30530
     RDKit          3D

 24 27  0  0  1  0  0  0  0  0999 V2000
   -4.5126   -4.2272    0.2742 Cl  0  0  0  0  0  0  0  0  0  0  0  0
   -0.5542    0.0311   -0.3607 N   0  0  0  0  0  0  0  0  0  0  0  0
   -3.3379    3.0468   -0.2507 N   0  0  0  0  0  0  0  0  0  0  0  0
    5.2494    1.1738    0.0365 N   0  0  0  0  0  0  0  0  0  0  0  0
   -1.3363    1.1351   -0.1958 C   0  0  0  0  0  0  0  0  0  0  0  0
   -2.6354    0.7337    0.0229 C   0  0  0  0  0  0  0  0  0  0  0  0
   -0.8842    2.5452   -0.2724 C   0  0  0  0  0  0  0  0  0  0  0  0
   -3.7369    1.7124    0.2605 C   0  0  0  0  0  0  0  0  0  0  0  0
   -2.0094    3.4638    0.2557 C   0  0  0  0  0  0  0  0  0  0  0  0
   -2.6461   -0.6893   -0.0006 C   0  0  0  0  0  0  0  0  0  0  0  0
   -1.3308   -1.1033   -0.2443 C   0  0  0  0  0  0  0  0  0  0  0  0
    0.8713    0.0428   -0.6107 C   0  0  0  0  0  0  0  0  0  0  0  0
    1.7168    0.0234    0.6671 C   0  0  0  0  0  0  0  0  0  0  0  0
   -3.6445   -1.6706    0.1639 C   0  0  0  0  0  0  0  0  0  0  0  0
   -0.9705   -2.4527   -0.3345 C   0  0  0  0  0  0  0  0  0  0  0  0
   -4.3540    4.0398    0.0979 C   0  0  0  0  0  0  0  0  0  0  0  0
   -3.2961   -3.0231    0.0761 C   0  0  0  0  0  0  0  0  0  0  0  0
   -1.9794   -3.4059   -0.1697 C   0  0  0  0  0  0  0  0  0  0  0  0
    3.2014   -0.0216    0.4020 C   0  0  0  0  0  0  0  0  0  0  0  0
    3.8502   -1.2335    0.2840 C   0  0  0  0  0  0  0  0  0  0  0  0
    3.9190    1.1439    0.2750 C   0  0  0  0  0  0  0  0  0  0  0  0
    5.2188   -1.2436    0.0384 C   0  0  0  0  0  0  0  0  0  0  0  0
    5.8662   -0.0240   -0.0759 C   0  0  0  0  0  0  0  0  0  0  0  0
    7.3353    0.0030   -0.3388 C   0  0  0  0  0  0  0  0  0  0  0  0
  1 17  1  0
  2  5  1  0
  2 11  1  0
  2 12  1  0
  3  8  1  0
  3  9  1  0
  3 16  1  0
  4 21  2  0
  4 23  1  0
  5  6  2  0
  5  7  1  0
  6  8  1  0
  6 10  1  0
  7  9  1  0
 10 11  2  0
 10 14  1  0
 11 15  1  0
 12 13  1  0
 13 19  1  0
 14 17  2  0
 15 18  2  0
 17 18  1  0
 19 20  2  0
 19 21  1  0
 20 22  1  0
 22 23  2  0
 23 24  1  0
M  END
>  <PUBCHEM_COMPOUND_CID>  (1) 
30530

>  <PUBCHEM_CONFORMER_RMSD>  (1) 
0.6

>  <PUBCHEM_CONFORMER_DIVERSEORDER>  (1) 
1
4
17
34
8
15
5
27
39
14
16
18
7
33
3
12
6
28
19
13
21
40
24
38
11
35
32
22
23
37
31
36
42
10
20
41
2
25
9
29
26
30

>  <PUBCHEM_MMFF94_PARTIAL_CHARGES>  (1) 
29
1 -0.18
11 -0.15
12 0.26
13 0.14
14 -0.15
15 -0.15
16 0.27
17 0.18
18 -0.15
19 -0.14
2 0.05
20 -0.15
21 0.16
22 -0.15
23 0.17
24 0.14
3 -0.81
35 0.15
36 0.15
4 -0.62
40 0.15
41 0.15
42 0.15
43 0.15
5 -0.33
6 -0.18
7 0.18
8 0.45
9 0.27

>  <PUBCHEM_EFFECTIVE_ROTOR_COUNT>  (1) 
3.8

>  <PUBCHEM_PHARMACOPHORE_FEATURES>  (1) 
7
1 2 cation
1 3 cation
1 4 acceptor
5 2 5 6 10 11 rings
6 10 11 14 15 17 18 rings
6 3 5 6 7 8 9 rings
6 4 19 20 21 22 23 rings

>  <PUBCHEM_HEAVY_ATOM_COUNT>  (1) 
24

>  <PUBCHEM_ATOM_DEF_STEREO_COUNT>  (1) 
0

>  <PUBCHEM_ATOM_UDEF_STEREO_COUNT>  (1) 
0

>  <PUBCHEM_BOND_DEF_STEREO_COUNT>  (1) 
0

>  <PUBCHEM_BOND_UDEF_STEREO_COUNT>  (1) 
0

>  <PUBCHEM_ISOTOPIC_ATOM_COUNT>  (1) 
0

>  <PUBCHEM_COMPONENT_COUNT>  (1) 
1

>  <PUBCHEM_CACTVS_TAUTO_COUNT>  (1) 
1

>  <PUBCHEM_CONFORMER_ID>  (1) 
0000774200000001

>  <PUBCHEM_MMFF94_ENERGY>  (1) 
53.2405

>  <PUBCHEM_FEATURE_SELFOVERLAP>  (1) 
35.702

>  <PUBCHEM_SHAPE_FINGERPRINT>  (1) 
10319926 262 18341597206522414090
10411042 1 18122344842373479671
10595046 47 18334296518064917702
10616163 171 18411417319709074822
1100329 8 18337955692662221729
11056379 131 18410579508706598110
11265709 11 18193557998379855575
11315181 36 18186800309968650868
12107183 9 17975405820711434738
12390115 104 18199760141308068409
12553582 1 18122609819737312754
12788726 201 18118703216226544406
13140716 1 18267309918846153057
13631057 29 18336262448607490826
138480 1 16537638060401051755
13911987 19 18118387455185962309
14251757 5 18342175540468674600
14508225 48 18196920275104484431
14790565 3 17907581324359004425
14844126 61 18408887369096655531
14866123 147 18411418397872077147
15042514 8 18410296956130763995
15230672 131 18193562160757612350
15250474 111 18261097544726483002
15927050 60 18268146453494938791
16087824 20 18410291407855775103
17492 89 18410011061712229746
17844677 252 18410862100965512784
19427546 20 18335422378504963956
20101258 96 18265901430890980017
21033648 29 17631432554488996744
21065198 57 18411697673846455576
21130935 74 18336818733673859834
21236236 1 18342173345877328117
21267235 1 18264212585252479546
21304303 172 18341335595716712187
21426921 1 18410292531702447923
2297311 6 18339648948700105998
23522609 53 17823156574873774164
23557571 272 18343868822787707900
23559900 14 18340476863702034144
283562 15 18261386793161398083
3091708 16 9345800999441275755
335352 9 18337951294689797895
4058900 60 17837497353914851209
4073 2 18334299756497042122
4214541 1 18411418406435462288
4409770 3 18408036313258802935
497634 4 18187080689422850470
5104073 3 18342168982438398066
563151 97 18048867504268180381
57634706 229 17914917351770593113
5969126 39 18272079556884546879
59755656 520 18265048037879502757
6327066 14 18191020097762366045
6700243 42 17841470125716896244
77188 2 17978228589208310445
7808743 9 18337670819844205632
7970288 3 18050285070091391558
9709674 26 18271527503199981702
9981440 41 18048883996567790801

>  <PUBCHEM_SHAPE_MULTIPOLES>  (1) 
480.84
13.26
5
0.69
26.7
0.38
0.01
-1.35
0.24
-11.55
0.16
0.06
-0.02
0.12

>  <PUBCHEM_SHAPE_SELFOVERLAP>  (1) 
1039.258

>  <PUBCHEM_SHAPE_VOLUME>  (1) 
267.1

>  <PUBCHEM_COORDINATE_TYPE>  (1) 
2
5
10

$$$$
