30537
     RDKit          3D

 15 16  0  0  0  0  0  0  0  0999 V2000
    3.1908   -0.0283   -0.8622 O   0  0  0  0  0  0  0  0  0  0  0  0
    0.9088   -0.0112   -0.9307 N   0  0  0  0  0  0  0  0  0  0  0  0
    2.1001   -0.0409    1.1430 N   0  0  0  0  0  0  0  0  0  0  0  0
   -0.4392   -0.0021   -0.5034 C   0  0  0  0  0  0  0  0  0  0  0  0
   -1.1152   -1.2056   -0.3024 C   0  0  0  0  0  0  0  0  0  0  0  0
   -1.0929    1.2102   -0.2830 C   0  0  0  0  0  0  0  0  0  0  0  0
   -3.0986    0.0156    0.3395 C   0  0  0  0  0  0  0  0  0  0  0  0
   -2.4448   -1.1967    0.1190 C   0  0  0  0  0  0  0  0  0  0  0  0
   -2.4226    1.2190    0.1384 C   0  0  0  0  0  0  0  0  0  0  0  0
    2.0261   -0.0294   -0.1519 C   0  0  0  0  0  0  0  0  0  0  0  0
    4.2073    0.1815    0.1049 C   0  0  0  0  0  0  0  0  0  0  0  0
    3.5367   -0.1326    1.4190 C   0  0  0  0  0  0  0  0  0  0  0  0
   -0.4411   -2.5197   -0.5302 C   0  0  0  0  0  0  0  0  0  0  0  0
   -0.3951    2.5152   -0.4905 C   0  0  0  0  0  0  0  0  0  0  0  0
   -4.5202    0.0251    0.7904 C   0  0  0  0  0  0  0  0  0  0  0  0
  1 10  1  0
  1 11  1  0
  2  4  1  0
  2 10  1  0
  3 10  2  0
  3 12  1  0
  4  5  2  0
  4  6  1  0
  5  8  1  0
  5 13  1  0
  6  9  2  0
  6 14  1  0
  7  8  2  0
  7  9  1  0
  7 15  1  0
 11 12  1  0
M  END
>  <PUBCHEM_COMPOUND_CID>  (1) 
30537

>  <PUBCHEM_CONFORMER_RMSD>  (1) 
0.6

>  <PUBCHEM_CONFORMER_DIVERSEORDER>  (1) 
1
7
8
2
5
6
4
3

>  <PUBCHEM_MMFF94_PARTIAL_CHARGES>  (1) 
18
1 -0.43
10 0.65
11 0.28
12 0.25
13 0.14
14 0.14
15 0.14
16 0.4
17 0.15
18 0.15
2 -0.55
3 -0.7
4 0.1
5 -0.14
6 -0.14
7 -0.14
8 -0.15
9 -0.15

>  <PUBCHEM_EFFECTIVE_ROTOR_COUNT>  (1) 
2.6

>  <PUBCHEM_PHARMACOPHORE_FEATURES>  (1) 
4
1 2 donor
3 2 3 10 cation
5 1 3 10 11 12 rings
6 4 5 6 7 8 9 rings

>  <PUBCHEM_HEAVY_ATOM_COUNT>  (1) 
15

>  <PUBCHEM_ATOM_DEF_STEREO_COUNT>  (1) 
0

>  <PUBCHEM_ATOM_UDEF_STEREO_COUNT>  (1) 
0

>  <PUBCHEM_BOND_DEF_STEREO_COUNT>  (1) 
0

>  <PUBCHEM_BOND_UDEF_STEREO_COUNT>  (1) 
0

>  <PUBCHEM_ISOTOPIC_ATOM_COUNT>  (1) 
0

>  <PUBCHEM_COMPONENT_COUNT>  (1) 
1

>  <PUBCHEM_CACTVS_TAUTO_COUNT>  (1) 
2

>  <PUBCHEM_CONFORMER_ID>  (1) 
0000774900000001

>  <PUBCHEM_MMFF94_ENERGY>  (1) 
47.9953

>  <PUBCHEM_FEATURE_SELFOVERLAP>  (1) 
20.297

>  <PUBCHEM_SHAPE_FINGERPRINT>  (1) 
10130415 120 18187089489726488701
11132069 177 18342738516070118735
12119455 92 17060336297261998159
12236239 1 17676492748144093324
12251169 10 18412824706986536368
13140716 1 18267314316708028473
13172582 1 18410860996699696093
13581323 91 18334853909581610618
14993402 34 18408884066255813359
15209294 21 17845667936890184009
15309172 13 18411982442514657475
15375462 189 17894628188367290312
15375462 478 17894349960359390487
15669948 3 18337670927191916862
15775835 57 18341892978559178842
16945 1 18410862057799256887
17846911 113 18341892974448548249
18186145 218 17275384278933132986
19049666 15 17772476694523535766
19422 9 17676769777845457376
200 152 15647048266023574080
20028762 73 17985554588046284431
20510252 161 18271810068676372761
20871998 184 18337105674898583085
21119208 17 12535629357989455200
21486144 27 17203317944942706504
21501502 16 18054507182067087365
21637258 2 15792010138488204897
22445834 79 17822565028093983826
2297311 6 18339936935094878116
23402539 116 18271516559633425767
23419403 2 16836793647958872309
23463225 33 18333453122945891359
23559900 14 18201447960887390846
2748010 2 18049737217664102637
3250762 1 17690002232723975271
4072396 5 18261948558162008315
43471831 8 18263082132643295571
465052 167 17968392242222441115
69090 78 17418088832472326063
77492 1 17676491652842997854
81228 2 17983553471844368430
90316 7 18260261910919055285

>  <PUBCHEM_SHAPE_MULTIPOLES>  (1) 
292.86
6.94
1.9
1.02
2.39
0
0.2
0.1
2.44
-0.97
-0.49
0.53
-0.03
-0.07

>  <PUBCHEM_SHAPE_SELFOVERLAP>  (1) 
617.828

>  <PUBCHEM_SHAPE_VOLUME>  (1) 
167.1

>  <PUBCHEM_COORDINATE_TYPE>  (1) 
2
5
10

$$$$
