30545
     RDKit          3D

 21 25  0  0  0  0  0  0  0  0999 V2000
   -2.2430   -3.3622   -0.0007 Br  0  0  0  0  0  0  0  0  0  0  0  0
    0.3988   -0.0634   -0.0001 C   0  0  0  0  0  0  0  0  0  0  0  0
    1.8132    0.0980    0.0000 C   0  0  0  0  0  0  0  0  0  0  0  0
   -0.4660    1.0634   -0.0001 C   0  0  0  0  0  0  0  0  0  0  0  0
   -0.1373   -1.3693    0.0000 C   0  0  0  0  0  0  0  0  0  0  0  0
   -1.8903    0.8631   -0.0001 C   0  0  0  0  0  0  0  0  0  0  0  0
    2.3805    1.3905   -0.0001 C   0  0  0  0  0  0  0  0  0  0  0  0
    2.6659   -1.0327    0.0001 C   0  0  0  0  0  0  0  0  0  0  0  0
   -2.4011   -0.4586   -0.0001 C   0  0  0  0  0  0  0  0  0  0  0  0
   -1.5234   -1.5476   -0.0001 C   0  0  0  0  0  0  0  0  0  0  0  0
    0.1472    2.3372   -0.0001 C   0  0  0  0  0  0  0  0  0  0  0  0
    0.7205   -2.4776    0.0004 C   0  0  0  0  0  0  0  0  0  0  0  0
    1.5350    2.4993   -0.0002 C   0  0  0  0  0  0  0  0  0  0  0  0
    2.1041   -2.3125    0.0003 C   0  0  0  0  0  0  0  0  0  0  0  0
    3.7755    1.5407   -0.0001 C   0  0  0  0  0  0  0  0  0  0  0  0
    4.0572   -0.8548    0.0002 C   0  0  0  0  0  0  0  0  0  0  0  0
   -2.8438    1.9131    0.0001 C   0  0  0  0  0  0  0  0  0  0  0  0
   -3.7881   -0.6893    0.0000 C   0  0  0  0  0  0  0  0  0  0  0  0
    4.6075    0.4244    0.0000 C   0  0  0  0  0  0  0  0  0  0  0  0
   -4.2200    1.6704    0.0003 C   0  0  0  0  0  0  0  0  0  0  0  0
   -4.6925    0.3678    0.0003 C   0  0  0  0  0  0  0  0  0  0  0  0
  1 10  1  0
  2  3  2  0
  2  4  1  0
  2  5  1  0
  3  7  1  0
  3  8  1  0
  4  6  1  0
  4 11  2  0
  5 10  2  0
  5 12  1  0
  6  9  2  0
  6 17  1  0
  7 13  2  0
  7 15  1  0
  8 14  1  0
  8 16  2  0
  9 10  1  0
  9 18  1  0
 11 13  1  0
 12 14  2  0
 15 19  2  0
 16 19  1  0
 17 20  2  0
 18 21  2  0
 20 21  1  0
M  END
>  <PUBCHEM_COMPOUND_CID>  (1) 
30545

>  <PUBCHEM_CONFORMER_RMSD>  (1) 
0.6

>  <PUBCHEM_CONFORMER_DIVERSEORDER>  (1) 
1

>  <PUBCHEM_MMFF94_PARTIAL_CHARGES>  (1) 
24
1 -0.11
10 0.11
11 -0.15
12 -0.15
13 -0.15
14 -0.15
15 -0.15
16 -0.15
17 -0.15
18 -0.15
19 -0.15
20 -0.15
21 -0.15
22 0.15
23 0.15
24 0.15
25 0.15
26 0.15
27 0.15
28 0.15
29 0.15
30 0.15
31 0.15
32 0.15

>  <PUBCHEM_EFFECTIVE_ROTOR_COUNT>  (1) 
0

>  <PUBCHEM_PHARMACOPHORE_FEATURES>  (1) 
6
1 1 hydrophobe
6 2 3 4 7 11 13 rings
6 2 3 5 8 12 14 rings
6 2 4 5 6 9 10 rings
6 3 7 8 15 16 19 rings
6 6 9 17 18 20 21 rings

>  <PUBCHEM_HEAVY_ATOM_COUNT>  (1) 
21

>  <PUBCHEM_ATOM_DEF_STEREO_COUNT>  (1) 
0

>  <PUBCHEM_ATOM_UDEF_STEREO_COUNT>  (1) 
0

>  <PUBCHEM_BOND_DEF_STEREO_COUNT>  (1) 
0

>  <PUBCHEM_BOND_UDEF_STEREO_COUNT>  (1) 
0

>  <PUBCHEM_ISOTOPIC_ATOM_COUNT>  (1) 
0

>  <PUBCHEM_COMPONENT_COUNT>  (1) 
1

>  <PUBCHEM_CACTVS_TAUTO_COUNT>  (1) 
1

>  <PUBCHEM_CONFORMER_ID>  (1) 
0000775100000001

>  <PUBCHEM_MMFF94_ENERGY>  (1) 
86.7456

>  <PUBCHEM_FEATURE_SELFOVERLAP>  (1) 
30.6

>  <PUBCHEM_SHAPE_FINGERPRINT>  (1) 
10411042 1 16393243588225424487
10616163 171 18339081613231647487
10863032 1 18412262865102866418
10967382 1 18410573946612874470
1100329 8 18410572898862394090
11112241 14 16556191670574904192
11471102 20 18410570665157666172
11578080 2 16914523626589651283
12011746 2 18410576158441872028
12236239 1 17775002358895860905
12403259 226 18053381294918409755
12403814 3 17676483930460333237
12838862 33 18338778066460337024
13132413 78 18412826871634339869
13140716 1 18267019633926232288
138480 1 17617940227660455075
14178342 30 18194947750780037000
14223421 5 18194686096914113627
14790565 3 18338807701639993761
15196674 1 18410855451543508452
15442244 35 18410572907135791354
15536298 74 18342739585385165076
1601671 61 18410575059215268876
16945 1 18410575127866069891
17492 89 18338516468613845530
19591789 44 18266178335732356463
200 152 18131627885722964549
20739085 24 17905074480966205297
20905425 154 18196372507485953276
21267235 1 18411146809287686830
21421861 104 17897440580286983690
21478907 32 17979352294271625767
221490 88 18265058122404457362
23227448 37 18412544340327913031
2334 1 18050569847944178370
23402539 116 18343574136079949814
23558518 356 17972316492961927243
23559900 14 18343021078311852214
238 59 17611706108578931365
2748010 2 18339364166519137718
335352 9 18338797819267769086
34934 24 18410569583079231986
350125 39 18194126437153294491
3680242 22 18263079916561035938
474 4 17894917355704274540
5104073 3 18410292505900892658
59755656 215 18340492154308042534
6138700 20 18338520712716215134
69090 78 18411416211332666639
7364860 26 18340769247499725790
7832392 63 18411696608167305350
9709674 26 18413112770438174767
9981440 41 17326893379481091056

>  <PUBCHEM_SHAPE_MULTIPOLES>  (1) 
438.11
7.96
3.32
0.62
0.41
1.37
0
-1.74
0
0.85
0
0.02
0.02
0

>  <PUBCHEM_SHAPE_SELFOVERLAP>  (1) 
1013.836

>  <PUBCHEM_SHAPE_VOLUME>  (1) 
225.7

>  <PUBCHEM_COORDINATE_TYPE>  (1) 
2
5
10

$$$$
