30546
     RDKit          3D

 21 25  0  0  0  0  0  0  0  0999 V2000
   -2.1582   -3.2090   -0.0004 Cl  0  0  0  0  0  0  0  0  0  0  0  0
    0.3960   -0.0693   -0.0001 C   0  0  0  0  0  0  0  0  0  0  0  0
    1.8093    0.1006   -0.0001 C   0  0  0  0  0  0  0  0  0  0  0  0
   -0.4757    1.0523   -0.0001 C   0  0  0  0  0  0  0  0  0  0  0  0
   -0.1322   -1.3784    0.0000 C   0  0  0  0  0  0  0  0  0  0  0  0
   -1.8987    0.8434   -0.0001 C   0  0  0  0  0  0  0  0  0  0  0  0
    2.3689    1.3965   -0.0001 C   0  0  0  0  0  0  0  0  0  0  0  0
    2.6689   -1.0250    0.0001 C   0  0  0  0  0  0  0  0  0  0  0  0
   -2.4015   -0.4814   -0.0002 C   0  0  0  0  0  0  0  0  0  0  0  0
   -1.5173   -1.5651   -0.0002 C   0  0  0  0  0  0  0  0  0  0  0  0
    0.1299    2.3297   -0.0001 C   0  0  0  0  0  0  0  0  0  0  0  0
    0.7322   -2.4816    0.0003 C   0  0  0  0  0  0  0  0  0  0  0  0
    1.5167    2.5002   -0.0001 C   0  0  0  0  0  0  0  0  0  0  0  0
    2.1148   -2.3081    0.0002 C   0  0  0  0  0  0  0  0  0  0  0  0
    3.7629    1.5551    0.0000 C   0  0  0  0  0  0  0  0  0  0  0  0
    4.0591   -0.8387    0.0001 C   0  0  0  0  0  0  0  0  0  0  0  0
   -2.8585    1.8876    0.0001 C   0  0  0  0  0  0  0  0  0  0  0  0
   -3.7871   -0.7205    0.0000 C   0  0  0  0  0  0  0  0  0  0  0  0
    4.6017    0.4438    0.0000 C   0  0  0  0  0  0  0  0  0  0  0  0
   -4.2332    1.6366    0.0003 C   0  0  0  0  0  0  0  0  0  0  0  0
   -4.6978    0.3311    0.0002 C   0  0  0  0  0  0  0  0  0  0  0  0
  1 10  1  0
  2  3  2  0
  2  4  1  0
  2  5  1  0
  3  7  1  0
  3  8  1  0
  4  6  1  0
  4 11  2  0
  5 10  2  0
  5 12  1  0
  6  9  2  0
  6 17  1  0
  7 13  2  0
  7 15  1  0
  8 14  1  0
  8 16  2  0
  9 10  1  0
  9 18  1  0
 11 13  1  0
 12 14  2  0
 15 19  2  0
 16 19  1  0
 17 20  2  0
 18 21  2  0
 20 21  1  0
M  END
>  <PUBCHEM_COMPOUND_CID>  (1) 
30546

>  <PUBCHEM_CONFORMER_RMSD>  (1) 
0.6

>  <PUBCHEM_CONFORMER_DIVERSEORDER>  (1) 
1

>  <PUBCHEM_MMFF94_PARTIAL_CHARGES>  (1) 
24
1 -0.18
10 0.18
11 -0.15
12 -0.15
13 -0.15
14 -0.15
15 -0.15
16 -0.15
17 -0.15
18 -0.15
19 -0.15
20 -0.15
21 -0.15
22 0.15
23 0.15
24 0.15
25 0.15
26 0.15
27 0.15
28 0.15
29 0.15
30 0.15
31 0.15
32 0.15

>  <PUBCHEM_EFFECTIVE_ROTOR_COUNT>  (1) 
0

>  <PUBCHEM_PHARMACOPHORE_FEATURES>  (1) 
5
6 2 3 4 7 11 13 rings
6 2 3 5 8 12 14 rings
6 2 4 5 6 9 10 rings
6 3 7 8 15 16 19 rings
6 6 9 17 18 20 21 rings

>  <PUBCHEM_HEAVY_ATOM_COUNT>  (1) 
21

>  <PUBCHEM_ATOM_DEF_STEREO_COUNT>  (1) 
0

>  <PUBCHEM_ATOM_UDEF_STEREO_COUNT>  (1) 
0

>  <PUBCHEM_BOND_DEF_STEREO_COUNT>  (1) 
0

>  <PUBCHEM_BOND_UDEF_STEREO_COUNT>  (1) 
0

>  <PUBCHEM_ISOTOPIC_ATOM_COUNT>  (1) 
0

>  <PUBCHEM_COMPONENT_COUNT>  (1) 
1

>  <PUBCHEM_CACTVS_TAUTO_COUNT>  (1) 
1

>  <PUBCHEM_CONFORMER_ID>  (1) 
0000775200000001

>  <PUBCHEM_MMFF94_ENERGY>  (1) 
84.2164

>  <PUBCHEM_FEATURE_SELFOVERLAP>  (1) 
25.526

>  <PUBCHEM_SHAPE_FINGERPRINT>  (1) 
10411042 1 16537358784859644395
10616163 171 18339081613221071999
10863032 1 18412262860813173882
10967382 1 18411137996077904070
1100329 8 18410854382402665560
11112241 14 16556191670569629440
11132069 177 18410288129614190256
11471102 20 18410852144424062876
11578080 2 16914805105866590987
12011746 2 18410576158441872036
12236239 1 17775002358906410409
12403814 3 17676202459731091133
12838862 33 18338778066407615512
13132413 78 18412826875929300669
13140716 1 18266738158954802880
138480 1 17617941335688190403
13862211 1 18410568449197413738
14178342 30 18194946651268409224
14223421 5 18194686092597988859
14790565 3 18338807710171906057
15196674 1 18410573976566797796
15230672 131 17406538682684965776
15442244 35 18410572902840817562
15536298 74 18342739589674844628
1601671 61 18410294688039904532
16945 1 18410574019574544999
19591789 44 18337954459072710287
200 152 18131627885728226309
20739085 24 17905074480960937041
20905425 154 18124314909168862804
21267235 1 18411146809314099566
21421861 104 17825102606478404104
221490 88 18264776634484790082
23227448 37 18412825815304617199
2334 1 18050569843654472834
23402539 116 18271516537741779830
23558518 356 17900258903197874115
23559900 14 18342739594734793942
238 59 17611986484049289005
2748010 2 18339364170814098518
335352 9 18338516344285777182
34934 24 18410569583084506730
350125 39 18265902547714332411
3680242 22 18263079920850741466
474 4 17894917360009784852
5104073 3 18410292505890343154
59755656 215 18340492154313304294
6138700 20 18338520717011175926
69090 78 18411416211332666639
7364860 26 18340768152277777548
7832392 63 18411697711984436934
9709674 26 18413112770448730751
9981440 41 17326893383770777104

>  <PUBCHEM_SHAPE_MULTIPOLES>  (1) 
434.04
7.96
3.18
0.62
0.88
1.07
0
-1.75
0
0.41
0
0
0.01
0

>  <PUBCHEM_SHAPE_SELFOVERLAP>  (1) 
1011.641

>  <PUBCHEM_SHAPE_VOLUME>  (1) 
207.8

>  <PUBCHEM_COORDINATE_TYPE>  (1) 
2
5
10

$$$$
