30549
     RDKit          3D

 37 42  0  0  1  0  0  0  0  0999 V2000
   -2.0772   -2.2839    0.2298 N   0  0  0  0  0  0  0  0  0  0  0  0
    2.8633   -2.4890   -0.4601 N   0  0  0  0  0  0  0  0  0  0  0  0
   -4.5857   -0.7239    0.0420 N   0  0  0  0  0  0  0  0  0  0  0  0
    4.1544    0.0368    0.5656 N   0  0  0  0  0  0  0  0  0  0  0  0
   -3.2889   -2.5852    1.1376 C   0  0  0  0  0  0  0  0  0  0  0  0
   -2.0679   -0.7613   -0.0248 C   0  0  0  0  0  0  0  0  0  0  0  0
    2.6777   -1.0879   -1.1379 C   0  0  0  0  0  0  0  0  0  0  0  0
    4.3015   -2.4455    0.1615 C   0  0  0  0  0  0  0  0  0  0  0  0
   -0.7574   -2.7545    0.8781 C   0  0  0  0  0  0  0  0  0  0  0  0
    1.8007   -2.8256    0.5157 C   0  0  0  0  0  0  0  0  0  0  0  0
    0.4274   -2.4552   -0.0342 C   0  0  0  0  0  0  0  0  0  0  0  0
   -3.1083   -1.8921    2.5031 C   0  0  0  0  0  0  0  0  0  0  0  0
   -1.8474   -0.0073    1.3021 C   0  0  0  0  0  0  0  0  0  0  0  0
    3.6585   -0.9732   -2.3221 C   0  0  0  0  0  0  0  0  0  0  0  0
    5.3362   -2.3753   -0.9796 C   0  0  0  0  0  0  0  0  0  0  0  0
   -4.5897   -2.1369    0.4328 C   0  0  0  0  0  0  0  0  0  0  0  0
   -3.3877   -0.3420   -0.7116 C   0  0  0  0  0  0  0  0  0  0  0  0
    2.8616    0.0656   -0.1252 C   0  0  0  0  0  0  0  0  0  0  0  0
    4.4598   -1.2709    1.1538 C   0  0  0  0  0  0  0  0  0  0  0  0
   -2.8075   -0.3946    2.4279 C   0  0  0  0  0  0  0  0  0  0  0  0
    5.1242   -1.2285   -1.9686 C   0  0  0  0  0  0  0  0  0  0  0  0
   -2.1400   -3.0821   -1.0887 C   0  0  0  0  0  0  0  0  0  0  0  0
    2.8067   -3.6011   -1.5516 C   0  0  0  0  0  0  0  0  0  0  0  0
   -5.8038   -0.3691   -0.6808 C   0  0  0  0  0  0  0  0  0  0  0  0
    4.2490    1.1016    1.5603 C   0  0  0  0  0  0  0  0  0  0  0  0
   -6.0515    1.1159   -0.6673 C   0  0  0  0  0  0  0  0  0  0  0  0
    4.5891    2.4271    0.9325 C   0  0  0  0  0  0  0  0  0  0  0  0
   -6.8045    1.6881    0.3581 C   0  0  0  0  0  0  0  0  0  0  0  0
    5.9232    2.8054    0.7813 C   0  0  0  0  0  0  0  0  0  0  0  0
   -5.5279    1.9198   -1.6801 C   0  0  0  0  0  0  0  0  0  0  0  0
    3.5701    3.2768    0.5013 C   0  0  0  0  0  0  0  0  0  0  0  0
   -7.0340    3.0639    0.3708 C   0  0  0  0  0  0  0  0  0  0  0  0
    6.2385    4.0333    0.1994 C   0  0  0  0  0  0  0  0  0  0  0  0
   -5.7574    3.2956   -1.6672 C   0  0  0  0  0  0  0  0  0  0  0  0
    3.8856    4.5046   -0.0806 C   0  0  0  0  0  0  0  0  0  0  0  0
   -6.5104    3.8676   -0.6417 C   0  0  0  0  0  0  0  0  0  0  0  0
    5.2197    4.8828   -0.2316 C   0  0  0  0  0  0  0  0  0  0  0  0
  1  5  1  0
  1  6  1  0
  1  9  1  0
  1 22  1  0
  2  7  1  0
  2  8  1  0
  2 10  1  0
  2 23  1  0
  3 16  1  0
  3 17  1  0
  3 24  1  0
  4 18  1  0
  4 19  1  0
  4 25  1  0
  5 12  1  0
  5 16  1  0
  6 13  1  0
  6 17  1  0
  7 14  1  0
  7 18  1  0
  8 15  1  0
  8 19  1  0
  9 11  1  0
 10 11  1  0
 12 20  1  0
 13 20  1  0
 14 21  1  0
 15 21  1  0
 24 26  1  0
 25 27  1  0
 26 28  2  0
 26 30  1  0
 27 29  2  0
 27 31  1  0
 28 32  1  0
 29 33  1  0
 30 34  2  0
 31 35  2  0
 32 36  2  0
 33 37  2  0
 34 36  1  0
 35 37  1  0
M  CHG  2   1   1   2   1
M  END
>  <PUBCHEM_COMPOUND_CID>  (1) 
30549

>  <PUBCHEM_CONFORMER_RMSD>  (1) 
1.2

>  <PUBCHEM_CONFORMER_DIVERSEORDER>  (1) 
1
56
113
141
73
89
130
21
32
17
134
76
131
128
34
68
112
116
61
42
23
100
105
72
129
78
63
137
57
90
15
118
79
64
93
115
98
28
45
18
111
58
6
96
103
65
143
138
39
74
22
121
107
114
104
99
133
101
55
29
135
77
35
30
71
59
122
91
33
123
16
94
25
136
142
75
40
67
139
92
51
125
46
49
83
24
54
102
108
97
48
109
14
66
27
95
31
84
119
41
52
19
36
81
106
47
124
4
11
110
132
85
127
120
70
126
20
50
13
69
7
38
3
140
8
53
80
37
62
117
12
44
87
9
60
82
26
88
5
43
2
10
86

>  <PUBCHEM_MMFF94_PARTIAL_CHARGES>  (1) 
40
1 -1.01
10 0.5
16 0.27
17 0.27
18 0.27
19 0.27
2 -1.01
22 0.5
23 0.5
24 0.41
25 0.41
26 -0.14
27 -0.14
28 -0.15
29 -0.15
3 -0.81
30 -0.15
31 -0.15
32 -0.15
33 -0.15
34 -0.15
35 -0.15
36 -0.15
37 -0.15
4 -0.81
5 0.5
6 0.5
7 0.5
78 0.15
79 0.15
8 0.5
80 0.15
81 0.15
82 0.15
83 0.15
84 0.15
85 0.15
86 0.15
87 0.15
9 0.5

>  <PUBCHEM_EFFECTIVE_ROTOR_COUNT>  (1) 
10.8

>  <PUBCHEM_PHARMACOPHORE_FEATURES>  (1) 
10
1 1 cation
1 2 cation
1 3 cation
1 4 cation
6 1 3 5 6 16 17 rings
6 1 5 6 12 13 20 rings
6 2 4 7 8 18 19 rings
6 2 7 8 14 15 21 rings
6 26 28 30 32 34 36 rings
6 27 29 31 33 35 37 rings

>  <PUBCHEM_HEAVY_ATOM_COUNT>  (1) 
37

>  <PUBCHEM_ATOM_DEF_STEREO_COUNT>  (1) 
0

>  <PUBCHEM_ATOM_UDEF_STEREO_COUNT>  (1) 
4

>  <PUBCHEM_BOND_DEF_STEREO_COUNT>  (1) 
0

>  <PUBCHEM_BOND_UDEF_STEREO_COUNT>  (1) 
0

>  <PUBCHEM_ISOTOPIC_ATOM_COUNT>  (1) 
0

>  <PUBCHEM_COMPONENT_COUNT>  (1) 
1

>  <PUBCHEM_CACTVS_TAUTO_COUNT>  (1) 
1

>  <PUBCHEM_CONFORMER_ID>  (1) 
0000775500000001

>  <PUBCHEM_MMFF94_ENERGY>  (1) 
140.8814

>  <PUBCHEM_FEATURE_SELFOVERLAP>  (1) 
54.022

>  <PUBCHEM_SHAPE_FINGERPRINT>  (1) 
10675989 125 18338232657089919544
11399510 152 17604446179124191691
11411753 29 18263100935904739650
11456790 92 17824261488467901034
11578080 2 18410291440828208205
12128747 34 18411414034043646237
12728209 76 18201709674498559287
13512321 179 18113905944817513940
14068700 686 18265900331417113151
14556957 393 16773798044242221113
15082195 135 18129666287858556786
15183329 4 18129378195017569089
15274700 147 17038109978966387677
15530120 55 17631147806462396565
16067689 134 17478336331820650761
16112460 7 18340773646022056145
19053607 189 18269261517156959800
19304144 158 18198334263784018888
19304152 47 17975138956912563506
21033648 144 18270129048641956327
21033648 29 18187088368492526859
21133410 127 18262520432778838476
21388113 180 18409444825533684197
2838139 119 18336537210866790023
4173938 77 18339654351500302937
4408954 64 17319270040748936514
5223283 242 17769107743562505503
53794403 172 18410855447512805020
550186 72 17545315745173390043
5951187 136 18336823109269367218
6036956 94 17757835902320434733
6086070 43 18270403789320820002
6376802 90 18262238940526793123
7970288 3 8393451855584646481

>  <PUBCHEM_SHAPE_MULTIPOLES>  (1) 
741.52
19.64
6.57
1.86
14.54
6.56
-0.1
20.93
2.9
-5.57
0.72
0.22
-0.71
4.47

>  <PUBCHEM_SHAPE_SELFOVERLAP>  (1) 
1563.141

>  <PUBCHEM_SHAPE_VOLUME>  (1) 
405.4

>  <PUBCHEM_COORDINATE_TYPE>  (1) 
2
5
10

$$$$
