30547
     RDKit          3D

 39 44  0  0  1  0  0  0  0  0999 V2000
   -3.7279    1.3521    0.7983 O   0  0  0  0  0  0  0  0  0  0  0  0
   -3.5134   -3.1726   -0.9745 O   0  0  0  0  0  0  0  0  0  0  0  0
    4.8718   -0.2391    0.1972 O   0  0  0  0  0  0  0  0  0  0  0  0
   -7.4116    2.0069    0.3084 O   0  0  0  0  0  0  0  0  0  0  0  0
    6.2546    0.5391   -1.5608 O   0  0  0  0  0  0  0  0  0  0  0  0
   -9.4867    1.6459    1.1637 O   0  0  0  0  0  0  0  0  0  0  0  0
    6.7258   -2.2767    0.7477 O   0  0  0  0  0  0  0  0  0  0  0  0
    7.0588    0.2903    1.8583 O   0  0  0  0  0  0  0  0  0  0  0  0
    8.7795    2.1101    0.6132 O   0  0  0  0  0  0  0  0  0  0  0  0
   -2.9663    0.4828   -0.0551 C   0  0  0  0  0  0  0  0  0  0  0  0
   -3.7431   -0.8559   -0.2190 C   0  0  0  0  0  0  0  0  0  0  0  0
   -1.5544    0.3106    0.5720 C   0  0  0  0  0  0  0  0  0  0  0  0
   -0.6992   -0.7884   -0.1216 C   0  0  0  0  0  0  0  0  0  0  0  0
    0.7301   -0.9706    0.5248 C   0  0  0  0  0  0  0  0  0  0  0  0
   -2.8384   -1.9149   -0.9209 C   0  0  0  0  0  0  0  0  0  0  0  0
   -4.9093   -0.4547   -1.1872 C   0  0  0  0  0  0  0  0  0  0  0  0
   -1.4907   -2.1046   -0.2226 C   0  0  0  0  0  0  0  0  0  0  0  0
   -2.9862    1.0872   -1.4717 C   0  0  0  0  0  0  0  0  0  0  0  0
   -4.2568    0.5574   -2.1514 C   0  0  0  0  0  0  0  0  0  0  0  0
   -0.7744    1.6412    0.6118 C   0  0  0  0  0  0  0  0  0  0  0  0
    1.3997    0.4014    0.6631 C   0  0  0  0  0  0  0  0  0  0  0  0
   -4.2601   -1.4154    1.1267 C   0  0  0  0  0  0  0  0  0  0  0  0
    0.5758    1.4889    1.3016 C   0  0  0  0  0  0  0  0  0  0  0  0
    1.5784   -1.9057   -0.3958 C   0  0  0  0  0  0  0  0  0  0  0  0
    0.6547   -1.6110    1.9316 C   0  0  0  0  0  0  0  0  0  0  0  0
   -6.1336    0.1455   -0.5516 C   0  0  0  0  0  0  0  0  0  0  0  0
    3.0764   -1.8006   -0.1328 C   0  0  0  0  0  0  0  0  0  0  0  0
    2.6545    0.6546    0.2472 C   0  0  0  0  0  0  0  0  0  0  0  0
    3.5644   -0.3723   -0.3550 C   0  0  0  0  0  0  0  0  0  0  0  0
   -7.2271   -0.7256   -0.2077 C   0  0  0  0  0  0  0  0  0  0  0  0
   -6.2701    1.4482   -0.2837 C   0  0  0  0  0  0  0  0  0  0  0  0
   -8.3372   -0.2427    0.3587 C   0  0  0  0  0  0  0  0  0  0  0  0
    5.8753   -0.5808   -0.7551 C   0  0  0  0  0  0  0  0  0  0  0  0
   -8.4678    1.2014    0.6448 C   0  0  0  0  0  0  0  0  0  0  0  0
    7.1081   -1.1748   -0.0641 C   0  0  0  0  0  0  0  0  0  0  0  0
    7.8638   -0.1269    0.7549 C   0  0  0  0  0  0  0  0  0  0  0  0
    6.8996    1.5894   -0.8283 C   0  0  0  0  0  0  0  0  0  0  0  0
    8.1749    1.0714   -0.1469 C   0  0  0  0  0  0  0  0  0  0  0  0
    7.2079    2.7089   -1.8184 C   0  0  0  0  0  0  0  0  0  0  0  0
  1 10  1  0
  2 15  1  0
  3 29  1  0
  3 33  1  0
  4 31  1  0
  4 34  1  0
  5 33  1  0
  5 37  1  0
  6 34  2  0
  7 35  1  0
  8 36  1  0
  9 38  1  0
 10 11  1  0
 10 12  1  0
 10 18  1  0
 11 15  1  0
 11 16  1  0
 11 22  1  0
 12 13  1  0
 12 20  1  0
 13 14  1  0
 13 17  1  0
 14 21  1  0
 14 24  1  0
 14 25  1  0
 15 17  1  0
 16 19  1  0
 16 26  1  0
 18 19  1  0
 20 23  1  0
 21 23  1  0
 21 28  2  0
 24 27  1  0
 26 30  1  0
 26 31  2  0
 27 29  1  0
 28 29  1  0
 30 32  2  0
 32 34  1  0
 33 35  1  0
 35 36  1  0
 36 38  1  0
 37 38  1  0
 37 39  1  0
M  END
>  <PUBCHEM_COMPOUND_CID>  (1) 
30547

>  <PUBCHEM_CONFORMER_RMSD>  (1) 
1

>  <PUBCHEM_CONFORMER_DIVERSEORDER>  (1) 
1
122
35
72
168
88
49
157
46
79
89
159
132
41
133
80
62
47
43
147
29
109
78
170
143
83
77
73
96
30
61
6
127
48
126
44
90
56
162
87
4
63
27
84
136
65
140
145
142
137
33
110
99
58
118
71
14
68
131
148
42
163
105
107
69
22
123
54
36
53
12
106
102
138
161
108
139
94
158
100
34
112
119
57
151
82
75
64
9
165
3
92
37
11
74
154
129
70
32
23
85
17
39
155
18
134
150
55
153
40
135
66
113
81
93
120
124
146
117
86
111
101
21
51
98
97
31
28
128
59
50
76
149
160
60
24
20
104
25
144
15
10
103
16
19
141
91
167
45
115
67
7
5
116
125
130
95
2
164
13
169
38
26
152
8
114
52
166
156
121

>  <PUBCHEM_MMFF94_PARTIAL_CHARGES>  (1) 
36
1 -0.68
10 0.28
14 0.14
15 0.28
16 0.14
2 -0.68
21 -0.28
23 0.14
26 -0.14
28 -0.29
29 0.42
3 -0.56
30 -0.15
31 -0.07
32 -0.14
33 0.56
34 0.71
35 0.28
36 0.28
37 0.28
38 0.28
4 -0.23
5 -0.56
59 0.4
6 -0.57
65 0.15
66 0.4
68 0.15
69 0.15
7 -0.68
70 0.15
76 0.4
8 -0.68
80 0.4
81 0.4
9 -0.68

>  <PUBCHEM_EFFECTIVE_ROTOR_COUNT>  (1) 
6.2

>  <PUBCHEM_PHARMACOPHORE_FEATURES>  (1) 
19
1 1 acceptor
1 1 donor
1 2 acceptor
1 2 donor
1 3 acceptor
1 5 acceptor
1 6 acceptor
1 7 acceptor
1 7 donor
1 8 acceptor
1 8 donor
1 9 acceptor
1 9 donor
5 10 11 16 18 19 rings
6 10 11 12 13 15 17 rings
6 12 13 14 20 21 23 rings
6 14 21 24 27 28 29 rings
6 4 26 30 31 32 34 rings
6 5 33 35 36 37 38 rings

>  <PUBCHEM_HEAVY_ATOM_COUNT>  (1) 
39

>  <PUBCHEM_ATOM_DEF_STEREO_COUNT>  (1) 
8

>  <PUBCHEM_ATOM_UDEF_STEREO_COUNT>  (1) 
5

>  <PUBCHEM_BOND_DEF_STEREO_COUNT>  (1) 
0

>  <PUBCHEM_BOND_UDEF_STEREO_COUNT>  (1) 
0

>  <PUBCHEM_ISOTOPIC_ATOM_COUNT>  (1) 
0

>  <PUBCHEM_COMPONENT_COUNT>  (1) 
1

>  <PUBCHEM_CACTVS_TAUTO_COUNT>  (1) 
1

>  <PUBCHEM_CONFORMER_ID>  (1) 
0000775300000001

>  <PUBCHEM_MMFF94_ENERGY>  (1) 
139.8024

>  <PUBCHEM_FEATURE_SELFOVERLAP>  (1) 
96.692

>  <PUBCHEM_SHAPE_FINGERPRINT>  (1) 
10 15 17313107453298192275
10050765 1 18056471992403242353
10076449 9 16917067759684910641
10165383 225 18411981343820577367
10369192 42 18412543181335284807
10674148 151 17917709089307863147
11135926 11 18337941321021544535
11181472 205 15697733497380466307
11315181 36 16200432494411884283
11621639 179 18058725789725620529
12664476 115 18413105049231695041
12838863 1 8430311321449968433
13811026 1 18272374157054304462
14118638 360 16343431600412009807
15082195 135 18201166529303847652
15183329 4 18273500091758455926
15198563 99 15482406274163049264
15301273 46 13902190382973617748
15392192 104 13767936710967077682
15439362 3 18054502780048285296
15840311 113 18260553303787103406
16087824 20 18201722792009345145
18393751 57 17022624195212397034
18608769 82 18261112998023672507
20156587 128 16271662100855426748
20157964 124 18187081746675978998
20511986 3 18335689586576230582
21781055 127 17417541228821902649
23559900 14 18129931398967795584
23576562 1 15912745307016440929
249057 3 15697993050828091729
3044373 193 16950290603035045638
335352 9 18202559593134330997
3552219 110 18342464707874691993
3633792 109 14405188356725356775
3711267 37 18340217302002538593
4017518 198 13686296881388534069
4073 2 18186806906395742594
4098825 35 18187081754157949327
4149490 64 17676486112636666274
44280117 145 18268710700602421247
474113 269 9439404606020349353
5265222 85 18413669119490891039
5776283 40 18273214222640039281
6081469 158 13110965305513012803
6523845 18 14996279249424064549
6691757 9 14692574356014971423

>  <PUBCHEM_SHAPE_MULTIPOLES>  (1) 
749.78
28.44
2.43
1.44
11.55
0.3
0.13
-13.13
-1.29
0.99
0.28
0.2
-0.24
-1.81

>  <PUBCHEM_SHAPE_SELFOVERLAP>  (1) 
1620.752

>  <PUBCHEM_SHAPE_VOLUME>  (1) 
404.8

>  <PUBCHEM_COORDINATE_TYPE>  (1) 
2
5
10

$$$$
