30553
     RDKit          3D

 15 16  0  0  0  0  0  0  0  0999 V2000
    0.5852   -1.6410   -0.1100 O   0  0  0  0  0  0  0  0  0  0  0  0
   -3.2409   -0.2111    0.4418 O   0  0  0  0  0  0  0  0  0  0  0  0
   -1.6490   -2.1055   -0.2252 O   0  0  0  0  0  0  0  0  0  0  0  0
   -2.7117    1.7897   -0.5956 O   0  0  0  0  0  0  0  0  0  0  0  0
    1.3249    0.6707    0.0294 C   0  0  0  0  0  0  0  0  0  0  0  0
    1.6187   -0.6880   -0.0225 C   0  0  0  0  0  0  0  0  0  0  0  0
   -0.0671    1.0916   -0.0084 C   0  0  0  0  0  0  0  0  0  0  0  0
   -1.0449    0.1817   -0.0918 C   0  0  0  0  0  0  0  0  0  0  0  0
    2.3773    1.5853    0.1163 C   0  0  0  0  0  0  0  0  0  0  0  0
    2.9306   -1.1568    0.0093 C   0  0  0  0  0  0  0  0  0  0  0  0
   -0.7558   -1.2689   -0.1480 C   0  0  0  0  0  0  0  0  0  0  0  0
    3.6986    1.1299    0.1493 C   0  0  0  0  0  0  0  0  0  0  0  0
    3.9742   -0.2382    0.0957 C   0  0  0  0  0  0  0  0  0  0  0  0
   -2.4162    0.7044   -0.1245 C   0  0  0  0  0  0  0  0  0  0  0  0
   -4.6237    0.1563    0.4841 C   0  0  0  0  0  0  0  0  0  0  0  0
  1  6  1  0
  1 11  1  0
  2 14  1  0
  2 15  1  0
  3 11  2  0
  4 14  2  0
  5  6  2  0
  5  7  1  0
  5  9  1  0
  6 10  1  0
  7  8  2  0
  8 11  1  0
  8 14  1  0
  9 12  2  0
 10 13  2  0
 12 13  1  0
M  END
>  <PUBCHEM_COMPOUND_CID>  (1) 
30553

>  <PUBCHEM_CONFORMER_RMSD>  (1) 
0.6

>  <PUBCHEM_CONFORMER_DIVERSEORDER>  (1) 
1
2
3

>  <PUBCHEM_MMFF94_PARTIAL_CHARGES>  (1) 
20
1 -0.23
10 -0.15
11 0.71
12 -0.15
13 -0.15
14 0.71
15 0.28
16 0.15
17 0.15
18 0.15
19 0.15
2 -0.43
20 0.15
3 -0.57
4 -0.57
5 0.03
6 0.08
7 -0.18
8 0.03
9 -0.15

>  <PUBCHEM_EFFECTIVE_ROTOR_COUNT>  (1) 
2

>  <PUBCHEM_PHARMACOPHORE_FEATURES>  (1) 
5
1 3 acceptor
1 4 acceptor
1 8 anion
6 1 5 6 7 8 11 rings
6 5 6 9 10 12 13 rings

>  <PUBCHEM_HEAVY_ATOM_COUNT>  (1) 
15

>  <PUBCHEM_ATOM_DEF_STEREO_COUNT>  (1) 
0

>  <PUBCHEM_ATOM_UDEF_STEREO_COUNT>  (1) 
0

>  <PUBCHEM_BOND_DEF_STEREO_COUNT>  (1) 
0

>  <PUBCHEM_BOND_UDEF_STEREO_COUNT>  (1) 
0

>  <PUBCHEM_ISOTOPIC_ATOM_COUNT>  (1) 
0

>  <PUBCHEM_COMPONENT_COUNT>  (1) 
1

>  <PUBCHEM_CACTVS_TAUTO_COUNT>  (1) 
1

>  <PUBCHEM_CONFORMER_ID>  (1) 
0000775900000001

>  <PUBCHEM_MMFF94_ENERGY>  (1) 
48.0412

>  <PUBCHEM_FEATURE_SELFOVERLAP>  (1) 
25.399

>  <PUBCHEM_SHAPE_FINGERPRINT>  (1) 
10608611 8 18410851079546765732
10967382 1 18411418401797590646
10980938 120 18409730634263934082
11132069 177 18340481252836499954
11471102 20 18412542098154225316
12032990 46 18337677416665733926
12251169 10 18409445899417510744
13140716 1 18339918328964203482
13221675 6 18409166623184604234
13380535 21 18339930410601711750
13380535 76 18413107272869356326
13581323 91 18186521011849412124
14144814 61 18410854335057934840
14325111 11 18410009918554291492
14897335 6 18341327872526659542
15196674 1 18411701019014224859
15219456 202 18335700499149100461
15309172 13 18412832369582667411
15442244 35 18339358544475623010
15536298 74 18343584053618378366
15775835 57 18341054102652654152
16945 1 18339918225848038782
17844478 74 18113339691274358845
18186145 218 18272656697014131772
200 152 18202273702815390373
20510252 161 18271807878411844001
20645477 70 18340762629319347279
21267235 1 18410301293757693034
21501502 16 18267862963898276822
2334 1 18267581497601151990
23402539 116 18202556276902932117
23402655 69 18271517620511661189
23463225 33 18408321090479834052
23559900 14 18202282525079181816
2748010 2 18340487867408038606
4047638 21 18273218603506563672
5104073 3 18410855498814620907
528886 8 18412538825731939794
53812653 166 18271803575060003792
69090 78 18342453764028339855
7364860 26 18270401581849996270
8809292 202 18334580174109925178

>  <PUBCHEM_SHAPE_MULTIPOLES>  (1) 
285.22
7.2
1.81
0.65
2.54
0.29
0.01
-1.2
0.9
-0.09
-0.16
0.12
-0.05
0.18

>  <PUBCHEM_SHAPE_SELFOVERLAP>  (1) 
620.394

>  <PUBCHEM_SHAPE_VOLUME>  (1) 
155.4

>  <PUBCHEM_COORDINATE_TYPE>  (1) 
2
5
10

$$$$
