30559
     RDKit          3D

 15 15  0  0  1  0  0  0  0  0999 V2000
    3.1932   -2.7843   -0.4871 Cl  0  0  0  0  0  0  0  0  0  0  0  0
    2.9833   -0.0174    0.1004 O   0  0  0  0  0  0  0  0  0  0  0  0
    0.6600    0.3240    0.2093 N   0  0  0  0  0  0  0  0  0  0  0  0
    0.8284    1.7773    0.5230 C   0  0  0  0  0  0  0  0  0  0  0  0
   -0.6115   -0.2411    0.1053 C   0  0  0  0  0  0  0  0  0  0  0  0
    0.2362    2.1051    1.8874 C   0  0  0  0  0  0  0  0  0  0  0  0
    1.8433   -0.4802    0.0167 C   0  0  0  0  0  0  0  0  0  0  0  0
   -1.2293   -0.7802    1.2338 C   0  0  0  0  0  0  0  0  0  0  0  0
   -1.2652   -0.2662   -1.1267 C   0  0  0  0  0  0  0  0  0  0  0  0
   -2.5007   -1.3448    1.1301 C   0  0  0  0  0  0  0  0  0  0  0  0
   -2.5365   -0.8307   -1.2302 C   0  0  0  0  0  0  0  0  0  0  0  0
    1.6361   -1.9433   -0.3351 C   0  0  0  0  0  0  0  0  0  0  0  0
    0.2095    2.5920   -0.5315 C   0  0  0  0  0  0  0  0  0  0  0  0
   -3.1542   -1.3700   -0.1017 C   0  0  0  0  0  0  0  0  0  0  0  0
   -0.2926    3.2600   -1.3938 C   0  0  0  0  0  0  0  0  0  0  0  0
  1 12  1  0
  2  7  2  0
  3  4  1  0
  3  5  1  0
  3  7  1  0
  4  6  1  0
  4 13  1  0
  5  8  2  0
  5  9  1  0
  7 12  1  0
  8 10  1  0
  9 11  2  0
 10 14  2  0
 11 14  1  0
 13 15  3  0
M  END
>  <PUBCHEM_COMPOUND_CID>  (1) 
30559

>  <PUBCHEM_CONFORMER_RMSD>  (1) 
0.6

>  <PUBCHEM_CONFORMER_DIVERSEORDER>  (1) 
1
59
40
35
17
49
20
56
28
71
44
55
24
11
63
2
3
8
9
41
60
33
57
58
12
47
10
66
4
70
67
26
23
43
19
53
62
16
22
45
42
61
32
50
5
36
51
38
31
30
37
34
27
68
46
29
39
21
65
48
13
25
18
15
69
52
64
54
7
6
14

>  <PUBCHEM_MMFF94_PARTIAL_CHARGES>  (1) 
20
1 -0.29
10 -0.15
11 -0.15
12 0.35
13 -0.2
14 -0.15
15 -0.18
2 -0.57
20 0.15
21 0.15
22 0.15
23 0.15
26 0.15
27 0.18
3 -0.48
4 0.5
5 0.12
7 0.57
8 -0.15
9 -0.15

>  <PUBCHEM_EFFECTIVE_ROTOR_COUNT>  (1) 
4

>  <PUBCHEM_PHARMACOPHORE_FEATURES>  (1) 
3
1 15 hydrophobe
1 2 acceptor
6 5 8 9 10 11 14 rings

>  <PUBCHEM_HEAVY_ATOM_COUNT>  (1) 
15

>  <PUBCHEM_ATOM_DEF_STEREO_COUNT>  (1) 
0

>  <PUBCHEM_ATOM_UDEF_STEREO_COUNT>  (1) 
1

>  <PUBCHEM_BOND_DEF_STEREO_COUNT>  (1) 
0

>  <PUBCHEM_BOND_UDEF_STEREO_COUNT>  (1) 
0

>  <PUBCHEM_ISOTOPIC_ATOM_COUNT>  (1) 
0

>  <PUBCHEM_COMPONENT_COUNT>  (1) 
1

>  <PUBCHEM_CACTVS_TAUTO_COUNT>  (1) 
1

>  <PUBCHEM_CONFORMER_ID>  (1) 
0000775F00000001

>  <PUBCHEM_MMFF94_ENERGY>  (1) 
56.8477

>  <PUBCHEM_FEATURE_SELFOVERLAP>  (1) 
15.223

>  <PUBCHEM_SHAPE_FINGERPRINT>  (1) 
1 1 17907015432294573252
11322862 65 17121445843431944246
11578080 2 17201040795931509889
12138202 97 17546730348597386862
12326174 3 18192412281071526810
12759256 9 18193277618255366808
14648413 74 17898003783817788501
14817 1 14235266823101836306
16945 1 18192163791454295931
20361792 2 18271808999255915822
20379382 53 17974595750854963619
20645476 183 16890359273057165190
20711985 344 18045216042429449258
21061003 4 18411703222374717250
21524375 3 16818267031307076497
22802520 49 18336812118152663853
23419403 2 16891944966534993908
23526113 38 18113606911412992983
2748010 2 18338222804360719038
3729539 64 17393364247996247348
430814 3 17256257462472294281
458136 41 17545065030842026971
576247 118 18260559921603725315
81228 2 18264205803435432616

>  <PUBCHEM_SHAPE_MULTIPOLES>  (1) 
299.71
4.11
3.53
1.44
1.77
2.56
0.26
-4.54
-0.57
0.51
-0.66
-0.67
0.62
0.68

>  <PUBCHEM_SHAPE_SELFOVERLAP>  (1) 
601.645

>  <PUBCHEM_SHAPE_VOLUME>  (1) 
175.9

>  <PUBCHEM_COORDINATE_TYPE>  (1) 
2
5
10

$$$$
