30564
     RDKit          3D

 19 19  0  0  1  0  0  0  0  0999 V2000
   -0.3695   -4.0367    0.3339 Br  0  0  0  0  0  0  0  0  0  0  0  0
    4.7686    1.2517   -2.2736 Cl  0  0  0  0  0  0  0  0  0  0  0  0
   -0.2919   -0.8690    0.1947 O   0  0  0  0  0  0  0  0  0  0  0  0
   -1.8284    0.9734   -0.1818 C   0  0  0  0  0  0  0  0  0  0  0  0
   -3.0234    0.0800   -0.5764 C   0  0  0  0  0  0  0  0  0  0  0  0
   -1.8202    1.3983    1.3038 C   0  0  0  0  0  0  0  0  0  0  0  0
   -0.5185    0.2862   -0.6012 C   0  0  0  0  0  0  0  0  0  0  0  0
   -4.3863    0.7378   -0.3371 C   0  0  0  0  0  0  0  0  0  0  0  0
   -5.5649   -0.1632   -0.7158 C   0  0  0  0  0  0  0  0  0  0  0  0
   -0.6707    2.3107    1.7094 C   0  0  0  0  0  0  0  0  0  0  0  0
    0.9090   -1.5319   -0.1773 C   0  0  0  0  0  0  0  0  0  0  0  0
   -6.9214    0.4741   -0.4564 C   0  0  0  0  0  0  0  0  0  0  0  0
    2.0577   -0.5674    0.0120 C   0  0  0  0  0  0  0  0  0  0  0  0
    1.0945   -2.7868    0.6682 C   0  0  0  0  0  0  0  0  0  0  0  0
    2.7884   -0.1590   -1.0912 C   0  0  0  0  0  0  0  0  0  0  0  0
    2.3551   -0.1109    1.2851 C   0  0  0  0  0  0  0  0  0  0  0  0
    3.8475    0.7318   -0.9162 C   0  0  0  0  0  0  0  0  0  0  0  0
    3.4142    0.7798    1.4602 C   0  0  0  0  0  0  0  0  0  0  0  0
    4.1603    1.2011    0.3596 C   0  0  0  0  0  0  0  0  0  0  0  0
  1 14  1  0
  2 17  1  0
  3  7  1  0
  3 11  1  0
  4  5  1  0
  4  6  1  0
  4  7  1  0
  5  8  1  0
  6 10  1  0
  8  9  1  0
  9 12  1  0
 11 13  1  0
 11 14  1  0
 13 15  2  0
 13 16  1  0
 15 17  1  0
 16 18  2  0
 17 19  2  0
 18 19  1  0
M  END
>  <PUBCHEM_COMPOUND_CID>  (1) 
30564

>  <PUBCHEM_CONFORMER_RMSD>  (1) 
1

>  <PUBCHEM_CONFORMER_DIVERSEORDER>  (1) 
3
160
743
235
402
28
583
23
726
420
184
503
656
149
678
528
98
668
167
575
251
127
382
53
509
113
11
599
747
531
76
627
229
591
16
653
74
671
237
29
104
328
270
497
674
306
421
545
152
735
272
749
675
732
57
622
210
189
463
501
177
727
592
628
5
185
191
70
438
215
105
137
562
19
613
720
290
663
148
338
512
101
213
504
64
698
77
601
188
22
378
211
527
689
374
547
326
51
755
319
293
135
476
424
376
63
21
365
559
360
133
2
450
254
58
710
488
312
79
652
212
49
275
401
86
39
669
550
97
647
535
118
686
107
389
195
172
372
204
71
165
1
138
600
54
232
336
201
699
224
20
205
346
110
337
24
332
175
684
701
196
203
6
42
17
445
381
746
108
394
34
171
354
32
369
419
226
65
157
679
66
718
106
52
4
80
344
14
598
121
618
62
13
403
124
93
8
174
46
116
255
48
10
119

>  <PUBCHEM_MMFF94_PARTIAL_CHARGES>  (1) 
16
1 -0.23
11 0.42
13 -0.14
14 0.23
15 -0.15
16 -0.15
17 0.18
18 -0.15
19 -0.15
2 -0.18
3 -0.56
40 0.15
41 0.15
42 0.15
43 0.15
7 0.28

>  <PUBCHEM_EFFECTIVE_ROTOR_COUNT>  (1) 
9

>  <PUBCHEM_PHARMACOPHORE_FEATURES>  (1) 
6
1 1 hydrophobe
1 10 hydrophobe
1 12 hydrophobe
1 3 acceptor
5 4 5 6 8 9 hydrophobe
6 13 15 16 17 18 19 rings

>  <PUBCHEM_HEAVY_ATOM_COUNT>  (1) 
19

>  <PUBCHEM_ATOM_DEF_STEREO_COUNT>  (1) 
0

>  <PUBCHEM_ATOM_UDEF_STEREO_COUNT>  (1) 
2

>  <PUBCHEM_BOND_DEF_STEREO_COUNT>  (1) 
0

>  <PUBCHEM_BOND_UDEF_STEREO_COUNT>  (1) 
0

>  <PUBCHEM_ISOTOPIC_ATOM_COUNT>  (1) 
0

>  <PUBCHEM_COMPONENT_COUNT>  (1) 
1

>  <PUBCHEM_CACTVS_TAUTO_COUNT>  (1) 
1

>  <PUBCHEM_CONFORMER_ID>  (1) 
0000776400000003

>  <PUBCHEM_MMFF94_ENERGY>  (1) 
36.13

>  <PUBCHEM_FEATURE_SELFOVERLAP>  (1) 
30.448

>  <PUBCHEM_SHAPE_FINGERPRINT>  (1) 
10090160 65 18334847308433356015
10498660 4 18339930414933732256
12507560 14 7925908201549171251
12616999 72 18334853888064550227
13675066 3 12396305846241428789
14114211 68 18336279976094803951
14787075 74 18200864201580069005
15537594 2 18273490179238058039
21524375 3 18412546479506449814
21756936 100 15938970927603598212
221357 26 16917074347605982456
2255824 54 18120378653099387746
22620623 9 17984990550843242326
23419403 2 16754047821546159006
23557571 272 17982737673609287624
23558518 356 17835806296688368475
23559900 14 17978775823628703267
2871803 45 18131068216681595361
312423 11 17986394386710075315
345986 75 12031241532683484022
350125 39 18336823083441768082
4340502 62 18334852810386851203
5486654 2 18410857694007125567
59755656 520 18335410301204964990
70251023 43 17913215265248266575
7097593 13 17333654877943901395
81228 2 18048046456359405754
8509985 295 9655573037231808249
9971528 1 7925626722055882175

>  <PUBCHEM_SHAPE_MULTIPOLES>  (1) 
392.95
11.25
3
1.58
15.98
4.53
-0.05
-6.08
-5.06
-0.35
0.94
-1.71
-0.91
-0.81

>  <PUBCHEM_SHAPE_SELFOVERLAP>  (1) 
752.916

>  <PUBCHEM_SHAPE_VOLUME>  (1) 
246.1

>  <PUBCHEM_COORDINATE_TYPE>  (1) 
2
5
10

$$$$
