30563
     RDKit          3D

 15 15  0  0  1  0  0  0  0  0999 V2000
    2.8782    2.8387    0.6615 Br  0  0  0  0  0  0  0  0  0  0  0  0
   -3.6966   -0.1637    1.9132 Cl  0  0  0  0  0  0  0  0  0  0  0  0
    1.5763   -0.0486    0.5032 O   0  0  0  0  0  0  0  0  0  0  0  0
    2.0974   -1.0516   -0.3643 C   0  0  0  0  0  0  0  0  0  0  0  0
    0.9060    0.9694   -0.2252 C   0  0  0  0  0  0  0  0  0  0  0  0
    2.1049   -2.3945    0.3690 C   0  0  0  0  0  0  0  0  0  0  0  0
   -0.5349    0.5488   -0.4056 C   0  0  0  0  0  0  0  0  0  0  0  0
    3.5023   -0.6497   -0.7928 C   0  0  0  0  0  0  0  0  0  0  0  0
    1.0069    2.2955    0.5201 C   0  0  0  0  0  0  0  0  0  0  0  0
    0.7157   -2.8007    0.8433 C   0  0  0  0  0  0  0  0  0  0  0  0
   -1.3442    0.4062    0.7090 C   0  0  0  0  0  0  0  0  0  0  0  0
   -1.0166    0.3169   -1.6831 C   0  0  0  0  0  0  0  0  0  0  0  0
   -2.6740    0.0202    0.5412 C   0  0  0  0  0  0  0  0  0  0  0  0
   -2.3463   -0.0692   -1.8508 C   0  0  0  0  0  0  0  0  0  0  0  0
   -3.1751   -0.2176   -0.7386 C   0  0  0  0  0  0  0  0  0  0  0  0
  1  9  1  0
  2 13  1  0
  3  4  1  0
  3  5  1  0
  4  6  1  0
  4  8  1  0
  5  7  1  0
  5  9  1  0
  6 10  1  0
  7 11  2  0
  7 12  1  0
 11 13  1  0
 12 14  2  0
 13 15  2  0
 14 15  1  0
M  END
>  <PUBCHEM_COMPOUND_CID>  (1) 
30563

>  <PUBCHEM_CONFORMER_RMSD>  (1) 
0.6

>  <PUBCHEM_CONFORMER_DIVERSEORDER>  (1) 
1
262
268
163
206
181
258
77
178
245
167
179
152
212
252
207
263
173
227
228
217
253
198
183
155
220
211
147
256
162
257
213
95
160
229
259
16
232
204
274
176
144
222
269
30
104
150
138
244
159
61
161
255
166
265
156
189
270
233
105
215
81
230
85
250
10
238
271
199
170
223
119
113
248
234
120
191
182
266
261
154
254
145
184
239
197
135
28
235
174
260
153
240
14
76
218
79
219
216
62
9
241
224
112
115
273
20
188
190
157
267
86
82
242
169
226
185
29
110
177
180
202
91
137
187
146
192
130
88
194
208
221
133
75
21
231
122
83
225
54
193
168
251
175
60
272
87
127
140
139
74
203
116
158
186
31
84
128
246
121
106
214
172
92
80
71
132
111
90
131
4
236
123
142
148
243
89
114
264
44
107
3
209
49
2
171
108
66
73
22
94
149
56
78
141
165
124
134
17
249
58
129
69
45
205
63
109
247
7
46
11
93
55
70
99
96
100
35
103
64
118
72
42
195
151
27
67
12
8
125
143
41
196
13
36
164
34
57
136
237
39
210
18
101
33
65
26
68
6
24
37
15
51
32
5
117
19
97
200
98
48
40
201
23
25
53
126
59
50
43
38
52
102
47

>  <PUBCHEM_MMFF94_PARTIAL_CHARGES>  (1) 
16
1 -0.23
11 -0.15
12 -0.15
13 0.18
14 -0.15
15 -0.15
2 -0.18
28 0.15
29 0.15
3 -0.56
30 0.15
31 0.15
4 0.28
5 0.42
7 -0.14
9 0.23

>  <PUBCHEM_EFFECTIVE_ROTOR_COUNT>  (1) 
5

>  <PUBCHEM_PHARMACOPHORE_FEATURES>  (1) 
4
1 1 hydrophobe
1 10 hydrophobe
1 3 acceptor
6 7 11 12 13 14 15 rings

>  <PUBCHEM_HEAVY_ATOM_COUNT>  (1) 
15

>  <PUBCHEM_ATOM_DEF_STEREO_COUNT>  (1) 
0

>  <PUBCHEM_ATOM_UDEF_STEREO_COUNT>  (1) 
2

>  <PUBCHEM_BOND_DEF_STEREO_COUNT>  (1) 
0

>  <PUBCHEM_BOND_UDEF_STEREO_COUNT>  (1) 
0

>  <PUBCHEM_ISOTOPIC_ATOM_COUNT>  (1) 
0

>  <PUBCHEM_COMPONENT_COUNT>  (1) 
1

>  <PUBCHEM_CACTVS_TAUTO_COUNT>  (1) 
1

>  <PUBCHEM_CONFORMER_ID>  (1) 
0000776300000001

>  <PUBCHEM_MMFF94_ENERGY>  (1) 
31.0317

>  <PUBCHEM_FEATURE_SELFOVERLAP>  (1) 
20.297

>  <PUBCHEM_SHAPE_FINGERPRINT>  (1) 
12202030 40 17676490514676787859
12553582 1 18270400460657667278
13583140 156 18339659862618161561
14817 1 11180391950115481423
15375462 189 18340212886189900770
15906896 17 17187282370678434664
16945 1 18410004425248655527
1813 80 17844827901279251198
19049666 15 18042674023296823733
19422 9 17632299011783601333
19930374 2 17609203907470797811
20361792 2 18128521683411325486
20645477 70 18271514364889196559
21061003 4 18336549309087704906
21731516 1 18198335157016124102
22112679 90 17203325632691897897
2255824 54 18343298189005710772
22802520 49 17459745921975928757
23402539 116 18270400461311652310
23526113 38 17897429615098371663
23557571 272 16660653929350795415
23559900 14 16443889588917855784
23598288 3 17691696588806159116
23598291 2 17917716811706877937
23728640 28 16321729156287744770
2748010 2 18117847822213506874
34934 24 18054228730826630368
458136 41 18263938802725265072
474 4 18057598983195517712
568465 68 18260270737202994658
633830 44 17843132651623238908
77492 1 17560799969737213277
81228 2 17403155016493843352
88987 49 15792275047560030093

>  <PUBCHEM_SHAPE_MULTIPOLES>  (1) 
310.64
5.71
2.76
1.58
1.67
0.41
-0.22
-0.61
0.86
-3.72
1.09
1.57
0.03
0.37

>  <PUBCHEM_SHAPE_SELFOVERLAP>  (1) 
601.025

>  <PUBCHEM_SHAPE_VOLUME>  (1) 
195

>  <PUBCHEM_COORDINATE_TYPE>  (1) 
2
5
10

$$$$
