30562
     RDKit          3D

 18 18  0  0  1  0  0  0  0  0999 V2000
   -1.3407   -3.5578    1.8821 Br  0  0  0  0  0  0  0  0  0  0  0  0
   -0.2674   -1.1501    0.2265 O   0  0  0  0  0  0  0  0  0  0  0  0
    1.7367   -0.5720   -1.0173 C   0  0  0  0  0  0  0  0  0  0  0  0
    2.1810    0.5479   -0.0528 C   0  0  0  0  0  0  0  0  0  0  0  0
    2.4035   -1.9396   -0.7480 C   0  0  0  0  0  0  0  0  0  0  0  0
    0.2017   -0.6603   -1.0223 C   0  0  0  0  0  0  0  0  0  0  0  0
    3.6884    0.8209   -0.0829 C   0  0  0  0  0  0  0  0  0  0  0  0
    4.1209    1.9216    0.8896 C   0  0  0  0  0  0  0  0  0  0  0  0
    2.0090   -3.0523   -1.7095 C   0  0  0  0  0  0  0  0  0  0  0  0
   -1.6859   -1.2333    0.2551 C   0  0  0  0  0  0  0  0  0  0  0  0
    5.6198    2.1796    0.8834 C   0  0  0  0  0  0  0  0  0  0  0  0
   -2.2442    0.1530    0.0259 C   0  0  0  0  0  0  0  0  0  0  0  0
   -2.1469   -1.8019    1.5923 C   0  0  0  0  0  0  0  0  0  0  0  0
   -3.4640    0.2942   -0.6144 C   0  0  0  0  0  0  0  0  0  0  0  0
   -1.5248    1.2533    0.4613 C   0  0  0  0  0  0  0  0  0  0  0  0
   -3.9793    1.5730   -0.8257 C   0  0  0  0  0  0  0  0  0  0  0  0
   -2.0403    2.5321    0.2501 C   0  0  0  0  0  0  0  0  0  0  0  0
   -3.2676    2.6919   -0.3934 C   0  0  0  0  0  0  0  0  0  0  0  0
  1 13  1  0
  2  6  1  0
  2 10  1  0
  3  4  1  0
  3  5  1  0
  3  6  1  0
  4  7  1  0
  5  9  1  0
  7  8  1  0
  8 11  1  0
 10 12  1  0
 10 13  1  0
 12 14  2  0
 12 15  1  0
 14 16  1  0
 15 17  2  0
 16 18  2  0
 17 18  1  0
M  END
>  <PUBCHEM_COMPOUND_CID>  (1) 
30562

>  <PUBCHEM_CONFORMER_RMSD>  (1) 
0.8

>  <PUBCHEM_CONFORMER_DIVERSEORDER>  (1) 
2
1
88
372
109
322
29
276
349
68
250
363
348
26
337
265
359
181
343
370
45
157
75
135
59
146
288
52
282
3
154
353
193
178
15
317
246
360
50
356
323
30
352
8
325
309
229
208
316
124
227
41
238
341
130
33
122
10
313
108
280
18
53
77
296
329
291
330
299
118
27
180
251
272
228
173
63
113
202
369
207
295
365
268
69
361
306
321
31
304
290
231
262
138
23
354
258
328
375
7
243
332
279
347
197
344
22
103
51
305
285
292
327
110
183
13
333
310
36
335
331
245
308
84
136
80
140
346
314
216
17
273
211
319
96
170
213
164
253
25
320
150
303
249
38
374
73
144
58
129
318
168
156
185
230
44
339
114
174
57
97
301
176
223
255
121
358
311
12
300
40
259
89
159
260
241
128
14
34
161
261
355
199
217
158
240
56
271
132
284
312
214
102
277
203
287
190
93
167
42
334
237
224
54
218
187
206
76
188
222
340
234
149
184
294
131
274
252
35
172
254
11
39
147
298
289
186
148
126
112
263
137
239
242
283
286
336
83
212
235
266
20
123
6
376
201
106
293
85
94
91
221
100
244
81
46
71
179
248
24
79
270
225
151
116
32
60
92
326
134
192
142
117
198
210
204
155
162
189
350
133
209
55
177
98
152
166
364
37
191
196
19
278
47
297
125
119
182
62
163
74
338
367
275
302
9
324
90
264
169
205
236
61
86
315
219
342
99
78
49
111
247
194
195
104
141
48
115
87
232
43
66
145
95
101
175
165
105
351
107
21
257
233
357
267
120
171
200
139
82
5
67
366
377
143
362
4
64
28
256
160
72
269
65
226
281
16
368
127
70
215
345
373
371
153
307
220

>  <PUBCHEM_MMFF94_PARTIAL_CHARGES>  (1) 
16
1 -0.23
10 0.42
12 -0.14
13 0.23
14 -0.15
15 -0.15
16 -0.15
17 -0.15
18 -0.15
2 -0.56
39 0.15
40 0.15
41 0.15
42 0.15
43 0.15
6 0.28

>  <PUBCHEM_EFFECTIVE_ROTOR_COUNT>  (1) 
9

>  <PUBCHEM_PHARMACOPHORE_FEATURES>  (1) 
6
1 1 hydrophobe
1 11 hydrophobe
1 2 acceptor
1 9 hydrophobe
5 3 4 5 7 8 hydrophobe
6 12 14 15 16 17 18 rings

>  <PUBCHEM_HEAVY_ATOM_COUNT>  (1) 
18

>  <PUBCHEM_ATOM_DEF_STEREO_COUNT>  (1) 
0

>  <PUBCHEM_ATOM_UDEF_STEREO_COUNT>  (1) 
2

>  <PUBCHEM_BOND_DEF_STEREO_COUNT>  (1) 
0

>  <PUBCHEM_BOND_UDEF_STEREO_COUNT>  (1) 
0

>  <PUBCHEM_ISOTOPIC_ATOM_COUNT>  (1) 
0

>  <PUBCHEM_COMPONENT_COUNT>  (1) 
1

>  <PUBCHEM_CACTVS_TAUTO_COUNT>  (1) 
1

>  <PUBCHEM_CONFORMER_ID>  (1) 
0000776200000002

>  <PUBCHEM_MMFF94_ENERGY>  (1) 
39.4883

>  <PUBCHEM_FEATURE_SELFOVERLAP>  (1) 
30.448

>  <PUBCHEM_SHAPE_FINGERPRINT>  (1) 
12549972 3 18116737135112800634
12633257 1 17897142677545844410
12788726 201 17316503969434358027
12892183 10 18116144662096946688
12930653 34 18261391204398480418
13294875 104 17828480267286204634
13544592 271 18412544348685634737
14178342 30 17822577200153042162
14251764 38 18198899210929478744
14468879 13 18341327868310807370
15295992 7 18050310084280389561
17980427 26 18047169883208439551
18186145 218 18044664092256408549
19049666 15 18266195962378762262
20510252 161 18335150790938490659
21304303 282 17897696917184542679
21401589 2 18410857659505463097
21524375 3 17974862666114236447
21650355 55 17900265509021528211
22956985 138 15952458859341672018
23526113 38 17980494360034398598
23557571 272 18190480400434356718
23558518 356 18335144180741332719
23559900 14 18127407843999789006
2748010 2 18265355969839003823
3380486 145 18125735714684741251
469060 322 17769370861479695271
526903 126 18339642240024590473
59554788 281 17458062681491075395
6049 1 18195277501063002166
633830 44 18195804060201506277
81228 2 17970939810479550547
84936 182 17830171307917113641
9709674 26 18340492174870099879
9981440 41 18342728646272410514

>  <PUBCHEM_SHAPE_MULTIPOLES>  (1) 
370.5
8.38
4.13
1.49
9.35
2.16
-0.13
-7.87
-1.24
-0.93
-1.04
0.26
1.37
3.24

>  <PUBCHEM_SHAPE_SELFOVERLAP>  (1) 
714.788

>  <PUBCHEM_SHAPE_VOLUME>  (1) 
230.3

>  <PUBCHEM_COORDINATE_TYPE>  (1) 
2
5
10

$$$$
