30561
     RDKit          3D

 14 14  0  0  1  0  0  0  0  0999 V2000
   -2.0347    3.1517   -0.2433 Br  0  0  0  0  0  0  0  0  0  0  0  0
   -1.1032    0.1671   -0.7726 O   0  0  0  0  0  0  0  0  0  0  0  0
   -1.7191   -0.9321   -0.1072 C   0  0  0  0  0  0  0  0  0  0  0  0
   -0.2873    0.9182    0.1140 C   0  0  0  0  0  0  0  0  0  0  0  0
   -3.0614   -0.4795    0.4713 C   0  0  0  0  0  0  0  0  0  0  0  0
    1.0941    0.3036    0.1180 C   0  0  0  0  0  0  0  0  0  0  0  0
   -1.9033   -2.0693   -1.1030 C   0  0  0  0  0  0  0  0  0  0  0  0
   -0.2434    2.3766   -0.3280 C   0  0  0  0  0  0  0  0  0  0  0  0
   -3.7644   -1.5926    1.2372 C   0  0  0  0  0  0  0  0  0  0  0  0
    1.5630   -0.3154   -1.0284 C   0  0  0  0  0  0  0  0  0  0  0  0
    1.8620    0.3720    1.2683 C   0  0  0  0  0  0  0  0  0  0  0  0
    2.8373   -0.8827   -1.0245 C   0  0  0  0  0  0  0  0  0  0  0  0
    3.1364   -0.1951    1.2722 C   0  0  0  0  0  0  0  0  0  0  0  0
    3.6241   -0.8224    0.1258 C   0  0  0  0  0  0  0  0  0  0  0  0
  1  8  1  0
  2  3  1  0
  2  4  1  0
  3  5  1  0
  3  7  1  0
  4  6  1  0
  4  8  1  0
  5  9  1  0
  6 10  2  0
  6 11  1  0
 10 12  1  0
 11 13  2  0
 12 14  2  0
 13 14  1  0
M  END
>  <PUBCHEM_COMPOUND_CID>  (1) 
30561

>  <PUBCHEM_CONFORMER_RMSD>  (1) 
0.6

>  <PUBCHEM_CONFORMER_DIVERSEORDER>  (1) 
1
53
121
120
108
79
128
125
44
112
118
37
129
126
73
100
72
94
122
123
103
110
95
42
109
114
43
51
38
82
78
88
90
96
60
59
49
98
19
93
92
11
87
101
56
97
40
130
55
104
54
85
10
66
91
7
107
14
31
9
111
41
71
77
84
86
18
76
22
58
26
80
64
28
34
50
106
47
105
67
20
30
124
48
45
35
113
63
99
61
23
29
116
15
74
62
115
81
75
24
27
83
4
68
33
117
127
5
17
69
102
119
32
6
89
70
3
13
39
46
65
16
36
8
2
57
25
21
52
12

>  <PUBCHEM_MMFF94_PARTIAL_CHARGES>  (1) 
16
1 -0.23
10 -0.15
11 -0.15
12 -0.15
13 -0.15
14 -0.15
2 -0.56
27 0.15
28 0.15
29 0.15
3 0.28
30 0.15
31 0.15
4 0.42
6 -0.14
8 0.23

>  <PUBCHEM_EFFECTIVE_ROTOR_COUNT>  (1) 
5

>  <PUBCHEM_PHARMACOPHORE_FEATURES>  (1) 
4
1 1 hydrophobe
1 2 acceptor
1 9 hydrophobe
6 6 10 11 12 13 14 rings

>  <PUBCHEM_HEAVY_ATOM_COUNT>  (1) 
14

>  <PUBCHEM_ATOM_DEF_STEREO_COUNT>  (1) 
0

>  <PUBCHEM_ATOM_UDEF_STEREO_COUNT>  (1) 
2

>  <PUBCHEM_BOND_DEF_STEREO_COUNT>  (1) 
0

>  <PUBCHEM_BOND_UDEF_STEREO_COUNT>  (1) 
0

>  <PUBCHEM_ISOTOPIC_ATOM_COUNT>  (1) 
0

>  <PUBCHEM_COMPONENT_COUNT>  (1) 
1

>  <PUBCHEM_CACTVS_TAUTO_COUNT>  (1) 
1

>  <PUBCHEM_CONFORMER_ID>  (1) 
0000776100000001

>  <PUBCHEM_MMFF94_ENERGY>  (1) 
32.1266

>  <PUBCHEM_FEATURE_SELFOVERLAP>  (1) 
20.297

>  <PUBCHEM_SHAPE_FINGERPRINT>  (1) 
10618630 7 18260830414280722290
12138202 97 18125147252292960500
12251169 10 17703792560630621146
12500047 106 18124023538724691060
12553582 1 18338519762726583127
12716301 132 18197484139279356144
13538477 17 17896038741442584148
13705890 14 15792002411699893386
14252887 29 18339648952641509282
15219456 202 17916856933695197232
15501101 241 17846779658587547730
15885798 251 18335990847934199427
16752209 62 18263072241580967533
16945 1 18271799125294381124
17844478 74 18272650138778223976
18186145 218 8069760601744897291
19049666 15 17842842122685831822
20097449 115 18335424624888962465
20281407 28 18343303669257646182
20339313 130 18265345077991416345
20361792 2 18262513809680050975
20711985 344 18336533924588820541
20871998 184 18341612568749967413
20871998 22 18410296955550391953
21296965 67 18335140933698369753
21524375 3 17618489992106229109
22112679 90 17750244625139374924
23402655 69 13695853823044427566
23419403 2 15837843289329454197
23526113 38 17126205668250073654
23557571 272 18341054034677326740
23559900 14 17912640208399125478
23598294 1 18263637381783165208
2748010 2 17984713216071885039
3071541 236 18045492028601732709
4175511 71 18266469870060680913
58051976 100 18046632209585863278
6049 1 18131631149850708280
6992083 37 18130229380004964799
7364860 26 17907305707928422093
77492 1 17313393257934357140
81228 2 18336536128018137997

>  <PUBCHEM_SHAPE_MULTIPOLES>  (1) 
288.19
5.95
2.69
1.26
1.11
2.18
0.13
-2.83
1.55
-3.31
-0.44
0.27
-0.4
0.67

>  <PUBCHEM_SHAPE_SELFOVERLAP>  (1) 
562.195

>  <PUBCHEM_SHAPE_VOLUME>  (1) 
178.8

>  <PUBCHEM_COORDINATE_TYPE>  (1) 
2
5
10

$$$$
