30569
     RDKit          3D

 24 24  0  0  1  0  0  0  0  0999 V2000
    3.9207    4.5604    0.0706 Br  0  0  0  0  0  0  0  0  0  0  0  0
    2.5399    1.5433   -0.4362 O   0  0  0  0  0  0  0  0  0  0  0  0
    3.4495   -0.7072   -0.3688 C   0  0  0  0  0  0  0  0  0  0  0  0
    3.8331   -1.8360    0.6113 C   0  0  0  0  0  0  0  0  0  0  0  0
    2.7207    0.4079    0.3988 C   0  0  0  0  0  0  0  0  0  0  0  0
    2.6555   -1.1861   -1.6049 C   0  0  0  0  0  0  0  0  0  0  0  0
    4.6957   -2.9319   -0.0229 C   0  0  0  0  0  0  0  0  0  0  0  0
    5.0564   -4.0552    0.9532 C   0  0  0  0  0  0  0  0  0  0  0  0
    1.8588    2.5887    0.2443 C   0  0  0  0  0  0  0  0  0  0  0  0
    1.3293   -1.8680   -1.2978 C   0  0  0  0  0  0  0  0  0  0  0  0
    0.3803    2.2726    0.2348 C   0  0  0  0  0  0  0  0  0  0  0  0
   -4.0752   -0.1341    0.0978 C   0  0  0  0  0  0  0  0  0  0  0  0
   -3.8053    1.3742    0.2063 C   0  0  0  0  0  0  0  0  0  0  0  0
   -5.5723   -0.4475    0.1286 C   0  0  0  0  0  0  0  0  0  0  0  0
   -2.3472    1.6874    0.2165 C   0  0  0  0  0  0  0  0  0  0  0  0
   -5.8293   -1.9484   -0.0139 C   0  0  0  0  0  0  0  0  0  0  0  0
    2.1441    3.9237   -0.4343 C   0  0  0  0  0  0  0  0  0  0  0  0
    5.8911   -5.1594    0.3232 C   0  0  0  0  0  0  0  0  0  0  0  0
   -0.2907    2.0376    1.4350 C   0  0  0  0  0  0  0  0  0  0  0  0
   -0.3125    2.2151   -0.9745 C   0  0  0  0  0  0  0  0  0  0  0  0
   -1.6544    1.7450    1.4258 C   0  0  0  0  0  0  0  0  0  0  0  0
   -1.6762    1.9223   -0.9836 C   0  0  0  0  0  0  0  0  0  0  0  0
   -7.3260   -2.2585   -0.0168 C   0  0  0  0  0  0  0  0  0  0  0  0
   -7.5860   -3.7461   -0.1925 C   0  0  0  0  0  0  0  0  0  0  0  0
  1 17  1  0
  2  5  1  0
  2  9  1  0
  3  4  1  0
  3  5  1  0
  3  6  1  0
  4  7  1  0
  6 10  1  0
  7  8  1  0
  8 18  1  0
  9 11  1  0
  9 17  1  0
 11 19  2  0
 11 20  1  0
 12 13  1  0
 12 14  1  0
 13 15  1  0
 14 16  1  0
 15 21  2  0
 15 22  1  0
 16 23  1  0
 19 21  1  0
 20 22  2  0
 23 24  1  0
M  END
>  <PUBCHEM_COMPOUND_CID>  (1) 
30569

>  <PUBCHEM_CONFORMER_RMSD>  (1) 
1.2

>  <PUBCHEM_CONFORMER_DIVERSEORDER>  (1) 
1
38
122
129
4
113
23
45
102
77
138
27
93
52
105
16
34
100
84
104
133
24
107
82
68
123
75
130
136
114
29
26
18
43
137
85
115
22
92
60
32
30
49
74
66
91
142
31
37
19
148
63
132
67
54
35
44
109
6
55
62
83
80
81
90
65
39
51
147
127
15
121
143
69
89
99
106
146
119
134
120
3
112
78
48
46
42
21
87
101
73
108
124
117
47
61
64
79
53
76
25
7
140
36
103
28
59
57
13
12
8
10
116
40
9
96
56
86
72
149
150
94
50
98
139
14
141
125
135
17
20
88
145
111
41
97
71
70
118
110
58
144
128
2
131
33
5
126
95
11

>  <PUBCHEM_MMFF94_PARTIAL_CHARGES>  (1) 
16
1 -0.23
11 -0.14
13 0.14
15 -0.14
17 0.23
19 -0.15
2 -0.56
20 -0.15
21 -0.15
22 -0.15
5 0.28
53 0.15
54 0.15
55 0.15
56 0.15
9 0.42

>  <PUBCHEM_EFFECTIVE_ROTOR_COUNT>  (1) 
14

>  <PUBCHEM_PHARMACOPHORE_FEATURES>  (1) 
8
1 1 hydrophobe
1 10 hydrophobe
1 18 hydrophobe
1 2 acceptor
1 24 hydrophobe
5 12 13 14 16 23 hydrophobe
5 3 4 6 7 8 hydrophobe
6 11 15 19 20 21 22 rings

>  <PUBCHEM_HEAVY_ATOM_COUNT>  (1) 
24

>  <PUBCHEM_ATOM_DEF_STEREO_COUNT>  (1) 
0

>  <PUBCHEM_ATOM_UDEF_STEREO_COUNT>  (1) 
2

>  <PUBCHEM_BOND_DEF_STEREO_COUNT>  (1) 
0

>  <PUBCHEM_BOND_UDEF_STEREO_COUNT>  (1) 
0

>  <PUBCHEM_ISOTOPIC_ATOM_COUNT>  (1) 
0

>  <PUBCHEM_COMPONENT_COUNT>  (1) 
1

>  <PUBCHEM_CACTVS_TAUTO_COUNT>  (1) 
1

>  <PUBCHEM_CONFORMER_ID>  (1) 
0000776900000001

>  <PUBCHEM_MMFF94_ENERGY>  (1) 
32.6471

>  <PUBCHEM_FEATURE_SELFOVERLAP>  (1) 
40.603

>  <PUBCHEM_SHAPE_FINGERPRINT>  (1) 
10319688 140 18337954600906793026
11963148 33 17981600782818604455
12107183 9 18198073482482791977
12166972 35 18041005003073985255
13533116 47 18199472241729845209
13692114 37 18049716619006674240
13968360 50 18193557994095827572
15019793 15 18051972816946920239
15475509 35 18058445577284016393
17492 89 18410854352417431425
19319366 153 18054506082360696844
20645477 70 18337390551753642721
20775438 99 18116430538751244907
20843269 155 18338234834791709034
21197605 99 18124880311522574055
21307412 95 18118955902707168861
22956985 138 18410004413282028504
23559900 14 18339351972997059257
32027 91 18337381652696949861
33382 64 18270406130626349873
392239 28 16342267222072491050
4340502 62 17985549098244389485
463206 1 18043540408109800194
50009960 94 18335684053814919539
5104073 3 17989492918315840681
57634706 280 17340967063971437432
7970288 3 18193837033577947354

>  <PUBCHEM_SHAPE_MULTIPOLES>  (1) 
493.98
16.3
7.28
1.14
29.93
3.88
-0.06
26.5
1.01
-11.89
0.7
-0.47
-0.07
-1.42

>  <PUBCHEM_SHAPE_SELFOVERLAP>  (1) 
943.858

>  <PUBCHEM_SHAPE_VOLUME>  (1) 
308.6

>  <PUBCHEM_COORDINATE_TYPE>  (1) 
2
5
10

$$$$
