30568
     RDKit          3D

 22 22  0  0  1  0  0  0  0  0999 V2000
   -1.0598   -5.2545   -0.1833 Br  0  0  0  0  0  0  0  0  0  0  0  0
    0.0245   -2.1384    0.4343 O   0  0  0  0  0  0  0  0  0  0  0  0
   -4.4785    2.3676    0.0655 C   0  0  0  0  0  0  0  0  0  0  0  0
    4.5224   -0.1510    0.3336 C   0  0  0  0  0  0  0  0  0  0  0  0
   -3.6342    1.1407   -0.0120 C   0  0  0  0  0  0  0  0  0  0  0  0
    3.2163   -0.3563   -0.4372 C   0  0  0  0  0  0  0  0  0  0  0  0
    5.5618    0.6684   -0.4368 C   0  0  0  0  0  0  0  0  0  0  0  0
    2.2089   -1.1584    0.3854 C   0  0  0  0  0  0  0  0  0  0  0  0
   -1.2020   -2.4003   -0.2346 C   0  0  0  0  0  0  0  0  0  0  0  0
    6.8392    0.9367    0.3618 C   0  0  0  0  0  0  0  0  0  0  0  0
   -4.9114    2.7948    1.5073 C   0  0  0  0  0  0  0  0  0  0  0  0
   -3.7353    3.6045   -0.5280 C   0  0  0  0  0  0  0  0  0  0  0  0
   -5.8079    2.1908   -0.7317 C   0  0  0  0  0  0  0  0  0  0  0  0
   -2.0566   -1.1555   -0.1566 C   0  0  0  0  0  0  0  0  0  0  0  0
    0.9210   -1.4041   -0.3878 C   0  0  0  0  0  0  0  0  0  0  0  0
   -3.2865    0.4589    1.1541 C   0  0  0  0  0  0  0  0  0  0  0  0
   -3.1932    0.6744   -1.2505 C   0  0  0  0  0  0  0  0  0  0  0  0
   -2.4978   -0.6892    1.0818 C   0  0  0  0  0  0  0  0  0  0  0  0
   -2.4045   -0.4737   -1.3227 C   0  0  0  0  0  0  0  0  0  0  0  0
    7.8096    1.8177   -0.4265 C   0  0  0  0  0  0  0  0  0  0  0  0
   -1.9008   -3.5931    0.4079 C   0  0  0  0  0  0  0  0  0  0  0  0
    9.0650    2.1200    0.3759 C   0  0  0  0  0  0  0  0  0  0  0  0
  1 21  1  0
  2  9  1  0
  2 15  1  0
  3  5  1  0
  3 11  1  0
  3 12  1  0
  3 13  1  0
  4  6  1  0
  4  7  1  0
  5 16  2  0
  5 17  1  0
  6  8  1  0
  7 10  1  0
  8 15  1  0
  9 14  1  0
  9 21  1  0
 10 20  1  0
 14 18  2  0
 14 19  1  0
 16 18  1  0
 17 19  2  0
 20 22  1  0
M  END
>  <PUBCHEM_COMPOUND_CID>  (1) 
30568

>  <PUBCHEM_CONFORMER_RMSD>  (1) 
1.2

>  <PUBCHEM_CONFORMER_DIVERSEORDER>  (1) 
1
24
21
25
16
12
10
32
26
36
31
6
30
15
37
43
5
33
9
14
34
40
20
2
13
35
41
7
22
29
8
45
39
18
27
44
17
4
38
28
3
23
11
19
42

>  <PUBCHEM_MMFF94_PARTIAL_CHARGES>  (1) 
16
1 -0.23
14 -0.14
15 0.28
16 -0.15
17 -0.15
18 -0.15
19 -0.15
2 -0.56
21 0.23
3 0.14
45 0.15
46 0.15
47 0.15
48 0.15
5 -0.14
9 0.42

>  <PUBCHEM_EFFECTIVE_ROTOR_COUNT>  (1) 
11

>  <PUBCHEM_PHARMACOPHORE_FEATURES>  (1) 
7
1 1 hydrophobe
1 2 acceptor
1 22 hydrophobe
3 4 6 8 hydrophobe
3 7 10 20 hydrophobe
4 3 11 12 13 hydrophobe
6 5 14 16 17 18 19 rings

>  <PUBCHEM_HEAVY_ATOM_COUNT>  (1) 
22

>  <PUBCHEM_ATOM_DEF_STEREO_COUNT>  (1) 
0

>  <PUBCHEM_ATOM_UDEF_STEREO_COUNT>  (1) 
1

>  <PUBCHEM_BOND_DEF_STEREO_COUNT>  (1) 
0

>  <PUBCHEM_BOND_UDEF_STEREO_COUNT>  (1) 
0

>  <PUBCHEM_ISOTOPIC_ATOM_COUNT>  (1) 
0

>  <PUBCHEM_COMPONENT_COUNT>  (1) 
1

>  <PUBCHEM_CACTVS_TAUTO_COUNT>  (1) 
1

>  <PUBCHEM_CONFORMER_ID>  (1) 
0000776800000001

>  <PUBCHEM_MMFF94_ENERGY>  (1) 
45.0708

>  <PUBCHEM_FEATURE_SELFOVERLAP>  (1) 
35.537

>  <PUBCHEM_SHAPE_FINGERPRINT>  (1) 
10319688 45 17836365226522057662
10411042 1 17761775469873913947
105312 117 18413111671390692886
11101153 10 17759243286362764476
11135609 201 18341338795124411593
12107183 9 18189885432412698538
12390115 104 18340216210684563391
12895837 130 18272087223185002684
14251764 75 18267309741882211953
14598715 104 17916011538841416168
14919807 6 18340785767426659364
15131766 46 18056480544169471881
15513586 35 16953399059350129468
155225 5 18339924814703515144
15778101 99 18409449211343815118
16120349 189 18335130943488616101
16126227 98 18412549803505149449
1813 80 7925046223151212259
18785283 64 17902792955874080171
20621476 66 18409452488404069788
21033648 29 18337123280064500910
21307412 95 10663519471678866761
21401589 2 18335426725248984713
21756936 100 18411980282104085126
2303208 19 12468621830555509160
23081809 10 17604987195818659294
23523766 6 17259336103515462183
270888 7 18338516335300482596
283562 15 18410569622388916391
2838139 119 18193837046303963629
474 4 18123466086488014947
5104073 3 17967248698621822650
57634706 229 18271542930358018592
57724786 102 18191019011219581290
58260988 647 10734717316469665949
6327066 14 18408881811055202157
636775 72 18341889749620082680
6431902 208 9367350332092777176
77188 2 17401769017621084055
7808743 9 18409165510988411346
9981440 41 18263368006109311131

>  <PUBCHEM_SHAPE_MULTIPOLES>  (1) 
452.82
19.08
5.4
1.1
57.08
6.18
-0.06
-26.09
-0.75
-6.61
-0.09
-1.18
-0.35
-0.05

>  <PUBCHEM_SHAPE_SELFOVERLAP>  (1) 
874.203

>  <PUBCHEM_SHAPE_VOLUME>  (1) 
282.3

>  <PUBCHEM_COORDINATE_TYPE>  (1) 
2
5
10

$$$$
