30576
     RDKit          3D

 22 23  0  0  1  0  0  0  0  0999 V2000
    2.4352   -4.9674   -0.4564 Br  0  0  0  0  0  0  0  0  0  0  0  0
    2.2304   -1.7241    0.3838 O   0  0  0  0  0  0  0  0  0  0  0  0
   -3.7201    0.6511    0.4503 C   0  0  0  0  0  0  0  0  0  0  0  0
   -3.5513    2.1171    0.0143 C   0  0  0  0  0  0  0  0  0  0  0  0
   -4.9147   -0.0026   -0.2661 C   0  0  0  0  0  0  0  0  0  0  0  0
   -4.8396    2.9124    0.2189 C   0  0  0  0  0  0  0  0  0  0  0  0
   -6.1973    0.8016   -0.0603 C   0  0  0  0  0  0  0  0  0  0  0  0
   -6.0239    2.2568   -0.4852 C   0  0  0  0  0  0  0  0  0  0  0  0
   -2.4426   -0.1462    0.2599 C   0  0  0  0  0  0  0  0  0  0  0  0
   -1.9125   -0.3186   -1.0188 C   0  0  0  0  0  0  0  0  0  0  0  0
   -1.7990   -0.7068    1.3632 C   0  0  0  0  0  0  0  0  0  0  0  0
   -0.0951   -1.6120   -0.0909 C   0  0  0  0  0  0  0  0  0  0  0  0
   -0.7388   -1.0514   -1.1941 C   0  0  0  0  0  0  0  0  0  0  0  0
   -0.6253   -1.4397    1.1878 C   0  0  0  0  0  0  0  0  0  0  0  0
    1.1764   -2.4073   -0.2815 C   0  0  0  0  0  0  0  0  0  0  0  0
    3.8467    0.0437    0.3729 C   0  0  0  0  0  0  0  0  0  0  0  0
    2.7245   -0.6427   -0.3944 C   0  0  0  0  0  0  0  0  0  0  0  0
    4.4135    1.2303   -0.4050 C   0  0  0  0  0  0  0  0  0  0  0  0
    1.0363   -3.8184    0.2781 C   0  0  0  0  0  0  0  0  0  0  0  0
    5.5686    1.9336    0.3132 C   0  0  0  0  0  0  0  0  0  0  0  0
    6.1193    3.1362   -0.4542 C   0  0  0  0  0  0  0  0  0  0  0  0
    7.3091    3.7545    0.2645 C   0  0  0  0  0  0  0  0  0  0  0  0
  1 19  1  0
  2 15  1  0
  2 17  1  0
  3  4  1  0
  3  5  1  0
  3  9  1  0
  4  6  1  0
  5  7  1  0
  6  8  1  0
  7  8  1  0
  9 10  2  0
  9 11  1  0
 10 13  1  0
 11 14  2  0
 12 13  2  0
 12 14  1  0
 12 15  1  0
 15 19  1  0
 16 17  1  0
 16 18  1  0
 18 20  1  0
 20 21  1  0
 21 22  1  0
M  END
>  <PUBCHEM_COMPOUND_CID>  (1) 
30576

>  <PUBCHEM_CONFORMER_RMSD>  (1) 
1

>  <PUBCHEM_CONFORMER_DIVERSEORDER>  (1) 
1
35
17
53
93
56
77
78
89
92
84
8
60
10
73
44
33
75
13
37
86
65
31
39
11
23
30
40
14
34
71
29
28
83
48
25
41
22
69
91
45
90
63
59
88
36
79
9
16
76
49
68
19
43
67
52
61
47
66
38
87
15
64
62
70
51
7
46
6
82
58
57
3
50
81
72
21
85
26
18
27
24
20
5
80
4
32
74
2
55
12
54
42

>  <PUBCHEM_MMFF94_PARTIAL_CHARGES>  (1) 
16
1 -0.23
10 -0.15
11 -0.15
12 -0.14
13 -0.15
14 -0.15
15 0.42
17 0.28
19 0.23
2 -0.56
3 0.14
34 0.15
35 0.15
36 0.15
37 0.15
9 -0.14

>  <PUBCHEM_EFFECTIVE_ROTOR_COUNT>  (1) 
10.2

>  <PUBCHEM_PHARMACOPHORE_FEATURES>  (1) 
6
1 1 hydrophobe
1 2 acceptor
1 22 hydrophobe
4 16 18 20 21 hydrophobe
6 3 4 5 6 7 8 rings
6 9 10 11 12 13 14 rings

>  <PUBCHEM_HEAVY_ATOM_COUNT>  (1) 
22

>  <PUBCHEM_ATOM_DEF_STEREO_COUNT>  (1) 
0

>  <PUBCHEM_ATOM_UDEF_STEREO_COUNT>  (1) 
1

>  <PUBCHEM_BOND_DEF_STEREO_COUNT>  (1) 
0

>  <PUBCHEM_BOND_UDEF_STEREO_COUNT>  (1) 
0

>  <PUBCHEM_ISOTOPIC_ATOM_COUNT>  (1) 
0

>  <PUBCHEM_COMPONENT_COUNT>  (1) 
1

>  <PUBCHEM_CACTVS_TAUTO_COUNT>  (1) 
1

>  <PUBCHEM_CONFORMER_ID>  (1) 
0000777000000001

>  <PUBCHEM_MMFF94_ENERGY>  (1) 
33.3722

>  <PUBCHEM_FEATURE_SELFOVERLAP>  (1) 
30.446

>  <PUBCHEM_SHAPE_FINGERPRINT>  (1) 
10595046 47 18342171121421723071
12293681 160 17846223293209557504
12633257 1 16153714266558573100
12895836 83 18339639061606185120
12895837 130 18196935698248330276
13590594 115 17474681546441870954
13955234 65 18263930925418284114
14251764 38 18123191195290253617
14251764 75 18341341032454687144
14257110 125 18411136961286509748
14420673 8 9655584019637848365
14429114 114 18338796710929823473
14774955 27 18410008806342222365
14849402 71 18265053523112103578
15142526 21 18260548922150419202
15342168 16 18410008832075291374
15513586 35 16520760003138898660
16120349 189 18336826493798619972
16120349 21 8574448546617891933
17844677 252 18052262791694304451
19438510 23 18187924032274912216
20238998 120 17761773962930808078
20691028 202 18265893756307655084
21365058 113 17624708851427252390
23522609 53 17559684941389909041
23559900 14 18121780517824899555
245318 6 17750815413292515644
270888 7 18410291445577258696
2748736 6 18410285948003594408
283562 15 18121773095815859638
2838139 119 18410572855728306132
3246875 12 18336830883302292315
34797466 226 18059017177480770333
3627633 1 17402613442899317246
465052 167 8502364559715760385
474 4 18336547127297170059
5219985 13 18339643442757410172
56633871 153 11314306174241668488
59682541 52 16916800552447412260
6327066 14 18338233877351150852
636775 72 18053940943019063528
67856867 119 18265893553916151819
7288768 16 18114179787146319706
77188 2 17690280409536048518
7808743 9 18338514270027615048
9981440 41 18335429005460147354

>  <PUBCHEM_SHAPE_MULTIPOLES>  (1) 
452.82
16.06
5.59
0.97
6.88
3.74
-0.06
-25.84
0.65
9.63
0.37
-0.23
0.24
0.42

>  <PUBCHEM_SHAPE_SELFOVERLAP>  (1) 
891.701

>  <PUBCHEM_SHAPE_VOLUME>  (1) 
275

>  <PUBCHEM_COORDINATE_TYPE>  (1) 
2
5
10

$$$$
