30572
     RDKit          3D

 20 21  0  0  1  0  0  0  0  0999 V2000
   -3.0065   -4.3562   -0.6689 Br  0  0  0  0  0  0  0  0  0  0  0  0
   -2.3884   -1.3172   -0.3998 O   0  0  0  0  0  0  0  0  0  0  0  0
    3.5681    0.7291    0.6252 C   0  0  0  0  0  0  0  0  0  0  0  0
    3.5671    2.1059   -0.0709 C   0  0  0  0  0  0  0  0  0  0  0  0
    4.7417   -0.0499    0.0049 C   0  0  0  0  0  0  0  0  0  0  0  0
    4.6238    2.0176   -1.1660 C   0  0  0  0  0  0  0  0  0  0  0  0
    5.6274    1.0179   -0.6188 C   0  0  0  0  0  0  0  0  0  0  0  0
    2.2593   -0.0229    0.5306 C   0  0  0  0  0  0  0  0  0  0  0  0
    1.7416   -0.3672   -0.7181 C   0  0  0  0  0  0  0  0  0  0  0  0
    1.5697   -0.3716    1.6918 C   0  0  0  0  0  0  0  0  0  0  0  0
   -0.1375   -1.3986    0.3570 C   0  0  0  0  0  0  0  0  0  0  0  0
    0.5342   -1.0601   -0.8055 C   0  0  0  0  0  0  0  0  0  0  0  0
    0.3624   -1.0647    1.6042 C   0  0  0  0  0  0  0  0  0  0  0  0
   -1.4459   -2.1500    0.2623 C   0  0  0  0  0  0  0  0  0  0  0  0
   -2.5995   -0.1030    0.3074 C   0  0  0  0  0  0  0  0  0  0  0  0
   -3.6150    0.7387   -0.4523 C   0  0  0  0  0  0  0  0  0  0  0  0
   -1.2795   -3.4580   -0.5030 C   0  0  0  0  0  0  0  0  0  0  0  0
   -3.9022    2.0572    0.2624 C   0  0  0  0  0  0  0  0  0  0  0  0
   -4.9536    2.8772   -0.4844 C   0  0  0  0  0  0  0  0  0  0  0  0
   -5.2672    4.1755    0.2420 C   0  0  0  0  0  0  0  0  0  0  0  0
  1 17  1  0
  2 14  1  0
  2 15  1  0
  3  4  1  0
  3  5  1  0
  3  8  1  0
  4  6  1  0
  5  7  1  0
  6  7  1  0
  8  9  2  0
  8 10  1  0
  9 12  1  0
 10 13  2  0
 11 12  2  0
 11 13  1  0
 11 14  1  0
 14 17  1  0
 15 16  1  0
 16 18  1  0
 18 19  1  0
 19 20  1  0
M  END
>  <PUBCHEM_COMPOUND_CID>  (1) 
30572

>  <PUBCHEM_CONFORMER_RMSD>  (1) 
0.8

>  <PUBCHEM_CONFORMER_DIVERSEORDER>  (1) 
1
234
253
242
123
139
232
171
5
206
173
156
236
216
293
124
279
100
250
266
151
180
152
49
238
199
248
74
161
270
246
243
145
105
192
286
241
22
264
95
204
153
237
149
280
212
98
267
11
194
251
94
268
198
118
50
225
218
142
252
278
26
92
91
78
229
224
35
48
154
160
73
203
138
57
44
172
32
272
249
163
47
102
245
284
189
33
289
227
202
79
59
77
121
10
260
209
25
182
239
148
89
200
150
282
168
30
34
205
87
295
52
41
228
193
210
60
85
112
76
292
120
211
183
97
83
178
64
88
261
116
86
263
231
131
187
281
277
186
29
84
162
222
113
174
188
114
132
46
99
170
96
285
147
167
262
265
63
68
62
144
81
136
283
125
196
18
39
16
45
107
27
166
269
157
158
31
273
40
61
247
201
65
221
56
80
17
159
8
14
208
207
12
23
51
69
165
140
13
244
127
276
3
37
19
75
115
257
219
271
190
109
6
259
169
274
291
71
226
104
179
130
70
4
82
7
137
256
122
164
101
9
66
128
67
24
254
155
255
134
15
175
177
240
126
36
58
230
184
133
191
214
129
220
296
90
72
213
195
111
215
21
294
288
287
43
53
223
103
146
38
235
258
54
143
197
108
217
117
42
181
135
28
119
55
290
20
106
110
185
233
275
176
2
93
141

>  <PUBCHEM_MMFF94_PARTIAL_CHARGES>  (1) 
16
1 -0.23
10 -0.15
11 -0.14
12 -0.15
13 -0.15
14 0.42
15 0.28
17 0.23
2 -0.56
3 0.14
30 0.15
31 0.15
32 0.15
33 0.15
8 -0.14
9 -0.15

>  <PUBCHEM_EFFECTIVE_ROTOR_COUNT>  (1) 
9

>  <PUBCHEM_PHARMACOPHORE_FEATURES>  (1) 
5
1 1 hydrophobe
1 2 acceptor
1 20 hydrophobe
5 3 4 5 6 7 rings
6 8 9 10 11 12 13 rings

>  <PUBCHEM_HEAVY_ATOM_COUNT>  (1) 
20

>  <PUBCHEM_ATOM_DEF_STEREO_COUNT>  (1) 
0

>  <PUBCHEM_ATOM_UDEF_STEREO_COUNT>  (1) 
1

>  <PUBCHEM_BOND_DEF_STEREO_COUNT>  (1) 
0

>  <PUBCHEM_BOND_UDEF_STEREO_COUNT>  (1) 
0

>  <PUBCHEM_ISOTOPIC_ATOM_COUNT>  (1) 
0

>  <PUBCHEM_COMPONENT_COUNT>  (1) 
1

>  <PUBCHEM_CACTVS_TAUTO_COUNT>  (1) 
1

>  <PUBCHEM_CONFORMER_ID>  (1) 
0000776C00000001

>  <PUBCHEM_MMFF94_ENERGY>  (1) 
42.1716

>  <PUBCHEM_FEATURE_SELFOVERLAP>  (1) 
25.371

>  <PUBCHEM_SHAPE_FINGERPRINT>  (1) 
10937287 8 18339922598441400197
11056379 131 18267026243934395391
11543360 7 18051132794294034210
11796584 16 9655308015863709128
12107183 9 18191012427229954114
12390115 104 18341905060861312537
12788726 201 18191010412790507139
13103583 49 11170199701054960333
13944108 23 17545320783254937517
13955234 65 17762064238352907187
13965767 371 17896038728921439261
14251764 38 18121496027807774112
14251764 75 18269000778425109945
14257110 125 18336265644205687669
15052358 14 18270413681004464980
15163728 17 18341056203298006293
15342168 16 18265608776626516317
15842332 3 17970038176136812274
15961568 22 17331950037562094568
16988056 13 17112405616364045917
17834072 32 18409167679910492077
18785283 64 17976817589161966987
21033650 10 18118707602078782388
21388113 180 17754727235573514661
21426921 1 18267303312390503287
23557571 272 18127701636631474726
23559900 14 18059301972562984166
270888 7 18336827472998844221
2838139 119 18412539903405370748
394222 165 18116427034379165267
633830 44 17676488389116460178
77188 2 17546444939805588455
7808743 9 18409728461110994945

>  <PUBCHEM_SHAPE_MULTIPOLES>  (1) 
411.66
11.56
4.98
1.16
3.83
0.83
-0.3
-13.3
2.51
-10.91
1.11
0.62
0.18
-1.23

>  <PUBCHEM_SHAPE_SELFOVERLAP>  (1) 
819.478

>  <PUBCHEM_SHAPE_VOLUME>  (1) 
249

>  <PUBCHEM_COORDINATE_TYPE>  (1) 
2
5
10

$$$$
