30573
     RDKit          3D

 23 24  0  0  1  0  0  0  0  0999 V2000
    0.5709    5.5598    0.7569 Br  0  0  0  0  0  0  0  0  0  0  0  0
   -0.3266    2.6021    0.3862 O   0  0  0  0  0  0  0  0  0  0  0  0
    3.9628   -2.0139   -0.6196 C   0  0  0  0  0  0  0  0  0  0  0  0
    5.3458   -1.9055    0.0472 C   0  0  0  0  0  0  0  0  0  0  0  0
    3.2837   -3.2399    0.0255 C   0  0  0  0  0  0  0  0  0  0  0  0
    5.5952   -3.2817    0.6453 C   0  0  0  0  0  0  0  0  0  0  0  0
    4.2199   -3.6941    1.1396 C   0  0  0  0  0  0  0  0  0  0  0  0
    3.1686   -0.7308   -0.5180 C   0  0  0  0  0  0  0  0  0  0  0  0
    2.8388   -0.2122    0.7342 C   0  0  0  0  0  0  0  0  0  0  0  0
    2.7655   -0.0666   -1.6762 C   0  0  0  0  0  0  0  0  0  0  0  0
    1.7134    1.6175   -0.3316 C   0  0  0  0  0  0  0  0  0  0  0  0
    2.1057    0.9708    0.8281 C   0  0  0  0  0  0  0  0  0  0  0  0
    2.0324    1.1165   -1.5823 C   0  0  0  0  0  0  0  0  0  0  0  0
    0.9191    2.9000   -0.2300 C   0  0  0  0  0  0  0  0  0  0  0  0
   -3.2308    0.3532   -0.4080 C   0  0  0  0  0  0  0  0  0  0  0  0
   -4.5699    0.1169    0.2941 C   0  0  0  0  0  0  0  0  0  0  0  0
   -2.3859    1.3807    0.3439 C   0  0  0  0  0  0  0  0  0  0  0  0
   -5.4493   -0.9234   -0.4057 C   0  0  0  0  0  0  0  0  0  0  0  0
   -1.0687    1.6540   -0.3683 C   0  0  0  0  0  0  0  0  0  0  0  0
   -6.7560   -1.2140    0.3356 C   0  0  0  0  0  0  0  0  0  0  0  0
    1.6650    3.9503    0.5853 C   0  0  0  0  0  0  0  0  0  0  0  0
   -7.5590   -2.3095   -0.3672 C   0  0  0  0  0  0  0  0  0  0  0  0
   -8.8407   -2.6303    0.3849 C   0  0  0  0  0  0  0  0  0  0  0  0
  1 21  1  0
  2 14  1  0
  2 19  1  0
  3  4  1  0
  3  5  1  0
  3  8  1  0
  4  6  1  0
  5  7  1  0
  6  7  1  0
  8  9  2  0
  8 10  1  0
  9 12  1  0
 10 13  2  0
 11 12  2  0
 11 13  1  0
 11 14  1  0
 14 21  1  0
 15 16  1  0
 15 17  1  0
 16 18  1  0
 17 19  1  0
 18 20  1  0
 20 22  1  0
 22 23  1  0
M  END
>  <PUBCHEM_COMPOUND_CID>  (1) 
30573

>  <PUBCHEM_CONFORMER_RMSD>  (1) 
1.2

>  <PUBCHEM_CONFORMER_DIVERSEORDER>  (1) 
1
58
101
32
46
78
77
34
64
9
5
6
61
28
15
65
71
94
27
98
86
48
38
19
18
80
93
36
85
11
108
102
42
22
47
88
68
92
76
72
104
26
81
50
30
90
17
56
31
7
60
89
10
40
70
33
51
8
12
39
63
24
62
97
91
43
66
16
83
25
52
3
74
79
67
107
84
23
35
41
109
87
14
59
29
44
69
45
95
96
73
82
2
53
103
21
13
49
37
20
75
99
100
54
57
4
55
106
105

>  <PUBCHEM_MMFF94_PARTIAL_CHARGES>  (1) 
16
1 -0.23
10 -0.15
11 -0.14
12 -0.15
13 -0.15
14 0.42
19 0.28
2 -0.56
21 0.23
3 0.14
33 0.15
34 0.15
35 0.15
36 0.15
8 -0.14
9 -0.15

>  <PUBCHEM_EFFECTIVE_ROTOR_COUNT>  (1) 
12

>  <PUBCHEM_PHARMACOPHORE_FEATURES>  (1) 
7
1 1 hydrophobe
1 2 acceptor
1 23 hydrophobe
3 15 16 17 hydrophobe
3 18 20 22 hydrophobe
5 3 4 5 6 7 rings
6 8 9 10 11 12 13 rings

>  <PUBCHEM_HEAVY_ATOM_COUNT>  (1) 
23

>  <PUBCHEM_ATOM_DEF_STEREO_COUNT>  (1) 
0

>  <PUBCHEM_ATOM_UDEF_STEREO_COUNT>  (1) 
1

>  <PUBCHEM_BOND_DEF_STEREO_COUNT>  (1) 
0

>  <PUBCHEM_BOND_UDEF_STEREO_COUNT>  (1) 
0

>  <PUBCHEM_ISOTOPIC_ATOM_COUNT>  (1) 
0

>  <PUBCHEM_COMPONENT_COUNT>  (1) 
1

>  <PUBCHEM_CACTVS_TAUTO_COUNT>  (1) 
1

>  <PUBCHEM_CONFORMER_ID>  (1) 
0000776D00000001

>  <PUBCHEM_MMFF94_ENERGY>  (1) 
41.8468

>  <PUBCHEM_FEATURE_SELFOVERLAP>  (1) 
35.535

>  <PUBCHEM_SHAPE_FINGERPRINT>  (1) 
10319688 140 18336829813460277173
10411042 1 18411700946115825400
10622 236 17534614911570527482
11088757 655 18263351517698336714
11552529 35 17760926239380779664
11796584 16 17977100154991175470
1200032 147 10735873988993965326
12107183 9 18199763462156695169
12633257 1 16199566035887904764
13533116 47 18339364192811219849
13631057 29 18192152595339867866
13955234 65 18198340869634403585
14344974 204 17977379435468016802
15019793 15 18049725423806649475
17492 89 18411979178957152305
17859628 70 18339641260524179073
1979834 28 17131844153040792063
20165401 70 18269272530070648511
20775438 99 18046896358628189467
20843269 155 18118398445769603186
21360442 33 18335980974031823547
23845131 108 17404578269777259105
24893989 43 17699856421131965015
3421961 26 18413105078109601432
439807 62 18334016082360068639
46194498 28 17458344177673149285
463206 1 18335708208520808827
5104073 3 17917717903171981681
5309563 4 18339643339230139675
5718773 13 18408601431633287915
6697151 62 18199727225332950333
70251023 43 18408323311242365665
77188 2 18411980239329180440
7808743 9 9260384892754696529
7970288 3 18337951190882815963

>  <PUBCHEM_SHAPE_MULTIPOLES>  (1) 
473.4
17.76
6.53
1.11
50.17
6.58
0.25
-29.63
-1.64
-5.85
-2.44
-0.96
0.03
-0.8

>  <PUBCHEM_SHAPE_SELFOVERLAP>  (1) 
932.638

>  <PUBCHEM_SHAPE_VOLUME>  (1) 
287.7

>  <PUBCHEM_COORDINATE_TYPE>  (1) 
2
5
10

$$$$
