30575
     RDKit          3D

 21 22  0  0  1  0  0  0  0  0999 V2000
    3.7041   -4.1998    0.5470 Br  0  0  0  0  0  0  0  0  0  0  0  0
    2.8295   -1.2143    0.3785 O   0  0  0  0  0  0  0  0  0  0  0  0
   -3.3286    0.3488   -0.4468 C   0  0  0  0  0  0  0  0  0  0  0  0
   -4.4113   -0.5741    0.1395 C   0  0  0  0  0  0  0  0  0  0  0  0
   -3.3400    1.7218    0.2478 C   0  0  0  0  0  0  0  0  0  0  0  0
   -5.7916    0.0784    0.0833 C   0  0  0  0  0  0  0  0  0  0  0  0
   -4.7247    2.3648    0.1912 C   0  0  0  0  0  0  0  0  0  0  0  0
   -5.7973    1.4435    0.7650 C   0  0  0  0  0  0  0  0  0  0  0  0
   -1.9541   -0.2937   -0.4043 C   0  0  0  0  0  0  0  0  0  0  0  0
   -1.3784   -0.6194    0.8217 C   0  0  0  0  0  0  0  0  0  0  0  0
   -1.2735   -0.5548   -1.5912 C   0  0  0  0  0  0  0  0  0  0  0  0
    0.5691   -1.4720   -0.3260 C   0  0  0  0  0  0  0  0  0  0  0  0
   -0.1150   -1.2092    0.8608 C   0  0  0  0  0  0  0  0  0  0  0  0
   -0.0102   -1.1448   -1.5520 C   0  0  0  0  0  0  0  0  0  0  0  0
    1.9195   -2.1030   -0.2842 C   0  0  0  0  0  0  0  0  0  0  0  0
    2.9213    0.0227   -0.3053 C   0  0  0  0  0  0  0  0  0  0  0  0
    1.9042   -3.4458    0.4535 C   0  0  0  0  0  0  0  0  0  0  0  0
    3.8965    0.9246    0.4380 C   0  0  0  0  0  0  0  0  0  0  0  0
    4.0563    2.2756   -0.2558 C   0  0  0  0  0  0  0  0  0  0  0  0
    5.0686    3.1588    0.4731 C   0  0  0  0  0  0  0  0  0  0  0  0
    5.2557    4.4918   -0.2339 C   0  0  0  0  0  0  0  0  0  0  0  0
  1 17  1  0
  2 15  1  0
  2 16  1  0
  3  4  1  0
  3  5  1  0
  3  9  1  0
  4  6  1  0
  5  7  1  0
  6  8  1  0
  7  8  1  0
  9 10  2  0
  9 11  1  0
 10 13  1  0
 11 14  2  0
 12 13  2  0
 12 14  1  0
 12 15  1  0
 15 17  1  0
 16 18  1  0
 18 19  1  0
 19 20  1  0
 20 21  1  0
M  END
>  <PUBCHEM_COMPOUND_CID>  (1) 
30575

>  <PUBCHEM_CONFORMER_RMSD>  (1) 
0.8

>  <PUBCHEM_CONFORMER_DIVERSEORDER>  (1) 
1
108
334
87
90
252
360
262
309
279
335
275
258
124
215
297
186
71
376
114
122
156
169
257
375
317
221
371
324
281
192
72
53
111
273
149
70
355
373
184
171
43
359
253
64
354
170
101
323
103
174
229
347
269
243
120
112
179
340
128
207
264
81
131
244
357
154
160
236
319
214
285
66
206
61
234
233
274
22
85
339
255
226
331
116
332
365
382
164
271
249
282
11
209
96
346
341
358
84
353
303
329
118
211
363
327
39
311
36
52
144
384
82
198
130
366
345
175
27
367
344
8
230
134
153
59
330
97
133
202
205
240
38
119
246
293
50
302
165
292
227
127
147
99
231
298
333
295
268
132
58
23
210
167
173
337
163
212
328
94
299
286
40
75
137
203
18
158
10
216
109
47
65
178
110
288
68
266
46
307
350
19
14
276
126
60
200
312
102
54
16
321
30
197
51
89
98
107
348
157
383
284
194
86
278
305
33
37
7
78
190
263
168
88
159
55
63
301
26
191
315
318
352
225
42
25
291
287
146
15
17
44
125
141
4
260
378
272
92
187
379
356
9
374
235
48
313
143
239
162
238
161
32
201
155
283
35
196
385
67
41
336
138
74
222
223
195
28
250
145
280
261
185
364
73
294
21
77
265
242
259
31
136
100
57
91
142
204
349
181
224
248
325
93
76
220
208
300
140
251
380
361
342
256
5
182
372
49
151
267
183
370
316
12
106
320
219
188
172
254
95
135
386
314
362
290
105
2
368
270
29
83
326
322
177
310
289
34
176
213
56
20
129
104
369
237
121
150
381
277
115
139
45
228
193
343
80
306
180
241
113
338
24
189
296
308
304
117
199
351
123
148
6
232
247
245
79
69
152
3
166
13
377
217
218
62

>  <PUBCHEM_MMFF94_PARTIAL_CHARGES>  (1) 
16
1 -0.23
10 -0.15
11 -0.15
12 -0.14
13 -0.15
14 -0.15
15 0.42
16 0.28
17 0.23
2 -0.56
3 0.14
33 0.15
34 0.15
35 0.15
36 0.15
9 -0.14

>  <PUBCHEM_EFFECTIVE_ROTOR_COUNT>  (1) 
9.2

>  <PUBCHEM_PHARMACOPHORE_FEATURES>  (1) 
5
1 1 hydrophobe
1 2 acceptor
1 21 hydrophobe
6 3 4 5 6 7 8 rings
6 9 10 11 12 13 14 rings

>  <PUBCHEM_HEAVY_ATOM_COUNT>  (1) 
21

>  <PUBCHEM_ATOM_DEF_STEREO_COUNT>  (1) 
0

>  <PUBCHEM_ATOM_UDEF_STEREO_COUNT>  (1) 
1

>  <PUBCHEM_BOND_DEF_STEREO_COUNT>  (1) 
0

>  <PUBCHEM_BOND_UDEF_STEREO_COUNT>  (1) 
0

>  <PUBCHEM_ISOTOPIC_ATOM_COUNT>  (1) 
0

>  <PUBCHEM_COMPONENT_COUNT>  (1) 
1

>  <PUBCHEM_CACTVS_TAUTO_COUNT>  (1) 
1

>  <PUBCHEM_CONFORMER_ID>  (1) 
0000776F00000001

>  <PUBCHEM_MMFF94_ENERGY>  (1) 
36.7926

>  <PUBCHEM_FEATURE_SELFOVERLAP>  (1) 
25.372

>  <PUBCHEM_SHAPE_FINGERPRINT>  (1) 
10937287 8 18266739267752820600
11405975 8 18266459802641872379
12390115 104 18194694893487079836
12403259 118 18127399060875642411
12633257 1 16298666217448796156
12895836 83 17346034601119633516
13590594 115 17834119645840875520
13955234 65 18334858269058494674
14251764 38 18268998574795429801
14251764 75 18339931535910316328
14257110 125 18339643459684643260
14429114 114 18342174483680691417
14739800 52 18413390929652588461
14774955 27 18411978078859702365
14790565 3 18338800151372479884
14849402 71 18336829702418530786
15142526 21 18335419122977522578
15342168 16 18337951294029992508
15842332 3 17986645191199251638
17844677 252 18267591191674590123
17980427 26 18339631322550027830
18785283 64 18335132064992174610
21315764 268 18191022292870150437
21365058 113 17770239162612801422
21756936 100 18125155189840786324
23559900 14 18265330595357095235
23845131 108 18189612907414518442
245318 6 17679596798171664412
270888 7 18268147737700703136
283562 15 17832977622538113542
2838139 119 18342173388516148212
34797466 226 18060428993297288597
38570 142 18341344374366238500
474 4 18409728473710748312
5104073 3 18265062349469876795
57307002 103 18340498767692885227
633830 44 18342173401748800814
67856867 119 18338796715171231243
7288768 16 18042963371148872888
77188 2 17977664209100078818
7808743 9 18196649812171102472
960060 61 11815893487538525848
9981440 41 18263926712381563722

>  <PUBCHEM_SHAPE_MULTIPOLES>  (1) 
432.24
13.15
5.05
1.04
8.1
1.3
0.28
12.56
-2.42
-12.32
-0.79
0.2
-0.28
-0.95

>  <PUBCHEM_SHAPE_SELFOVERLAP>  (1) 
855.927

>  <PUBCHEM_SHAPE_VOLUME>  (1) 
261.5

>  <PUBCHEM_COORDINATE_TYPE>  (1) 
2
5
10

$$$$
