30577
     RDKit          3D

 24 25  0  0  1  0  0  0  0  0999 V2000
   -0.2165    5.7970    0.6427 Br  0  0  0  0  0  0  0  0  0  0  0  0
   -0.8299    2.7588    0.3544 O   0  0  0  0  0  0  0  0  0  0  0  0
    3.8883   -1.4714   -0.4394 C   0  0  0  0  0  0  0  0  0  0  0  0
    5.2573   -1.1818    0.2008 C   0  0  0  0  0  0  0  0  0  0  0  0
    3.2332   -2.7094    0.1977 C   0  0  0  0  0  0  0  0  0  0  0  0
    6.1728   -2.4034    0.1380 C   0  0  0  0  0  0  0  0  0  0  0  0
    4.1570   -3.9246    0.1349 C   0  0  0  0  0  0  0  0  0  0  0  0
    5.5167   -3.6315    0.7624 C   0  0  0  0  0  0  0  0  0  0  0  0
    2.9739   -0.2609   -0.3906 C   0  0  0  0  0  0  0  0  0  0  0  0
    2.5756    0.2631    0.8393 C   0  0  0  0  0  0  0  0  0  0  0  0
    2.5315    0.3271   -1.5754 C   0  0  0  0  0  0  0  0  0  0  0  0
    1.3047    1.9466   -0.3014 C   0  0  0  0  0  0  0  0  0  0  0  0
    1.7347    1.3750    0.8842 C   0  0  0  0  0  0  0  0  0  0  0  0
    1.6906    1.4392   -1.5304 C   0  0  0  0  0  0  0  0  0  0  0  0
    0.3935    3.1521   -0.2528 C   0  0  0  0  0  0  0  0  0  0  0  0
   -3.4993    0.2261   -0.4095 C   0  0  0  0  0  0  0  0  0  0  0  0
   -4.8229   -0.1120    0.2802 C   0  0  0  0  0  0  0  0  0  0  0  0
   -2.7664    1.3503    0.3213 C   0  0  0  0  0  0  0  0  0  0  0  0
   -5.5898   -1.2505   -0.3986 C   0  0  0  0  0  0  0  0  0  0  0  0
   -1.4678    1.7230   -0.3799 C   0  0  0  0  0  0  0  0  0  0  0  0
   -6.8769   -1.6386    0.3325 C   0  0  0  0  0  0  0  0  0  0  0  0
    1.0246    4.2917    0.5391 C   0  0  0  0  0  0  0  0  0  0  0  0
   -7.5626   -2.8252   -0.3464 C   0  0  0  0  0  0  0  0  0  0  0  0
   -8.8222   -3.2406    0.3969 C   0  0  0  0  0  0  0  0  0  0  0  0
  1 22  1  0
  2 15  1  0
  2 20  1  0
  3  4  1  0
  3  5  1  0
  3  9  1  0
  4  6  1  0
  5  7  1  0
  6  8  1  0
  7  8  1  0
  9 10  2  0
  9 11  1  0
 10 13  1  0
 11 14  2  0
 12 13  2  0
 12 14  1  0
 12 15  1  0
 15 22  1  0
 16 17  1  0
 16 18  1  0
 17 19  1  0
 18 20  1  0
 19 21  1  0
 21 23  1  0
 23 24  1  0
M  END
>  <PUBCHEM_COMPOUND_CID>  (1) 
30577

>  <PUBCHEM_CONFORMER_RMSD>  (1) 
1.2

>  <PUBCHEM_CONFORMER_DIVERSEORDER>  (1) 
1
44
109
63
28
30
37
136
48
104
62
121
32
16
11
103
83
108
69
149
110
61
35
7
8
23
59
120
13
66
145
3
128
21
93
75
31
78
127
55
36
84
14
119
53
74
22
19
52
130
41
89
18
17
64
131
95
112
65
25
20
42
123
72
33
5
58
10
15
26
4
134
24
102
113
87
39
140
71
105
137
147
146
144
34
106
148
49
38
81
73
92
57
141
9
29
101
124
90
114
27
88
76
138
82
100
116
45
40
111
68
80
115
86
133
43
126
117
70
2
98
85
91
54
132
50
142
51
79
99
6
47
96
122
60
139
135
97
125
46
118
67
94
77
129
56
12
107
143

>  <PUBCHEM_MMFF94_PARTIAL_CHARGES>  (1) 
16
1 -0.23
10 -0.15
11 -0.15
12 -0.14
13 -0.15
14 -0.15
15 0.42
2 -0.56
20 0.28
22 0.23
3 0.14
36 0.15
37 0.15
38 0.15
39 0.15
9 -0.14

>  <PUBCHEM_EFFECTIVE_ROTOR_COUNT>  (1) 
12.2

>  <PUBCHEM_PHARMACOPHORE_FEATURES>  (1) 
7
1 1 hydrophobe
1 2 acceptor
1 24 hydrophobe
3 16 17 18 hydrophobe
3 19 21 23 hydrophobe
6 3 4 5 6 7 8 rings
6 9 10 11 12 13 14 rings

>  <PUBCHEM_HEAVY_ATOM_COUNT>  (1) 
24

>  <PUBCHEM_ATOM_DEF_STEREO_COUNT>  (1) 
0

>  <PUBCHEM_ATOM_UDEF_STEREO_COUNT>  (1) 
1

>  <PUBCHEM_BOND_DEF_STEREO_COUNT>  (1) 
0

>  <PUBCHEM_BOND_UDEF_STEREO_COUNT>  (1) 
0

>  <PUBCHEM_ISOTOPIC_ATOM_COUNT>  (1) 
0

>  <PUBCHEM_COMPONENT_COUNT>  (1) 
1

>  <PUBCHEM_CACTVS_TAUTO_COUNT>  (1) 
1

>  <PUBCHEM_CONFORMER_ID>  (1) 
0000777100000001

>  <PUBCHEM_MMFF94_ENERGY>  (1) 
36.982

>  <PUBCHEM_FEATURE_SELFOVERLAP>  (1) 
35.535

>  <PUBCHEM_SHAPE_FINGERPRINT>  (1) 
10075450 59 17843420501118005215
10319688 140 18264772236734132717
10411042 1 18411419488118380905
11497681 19 18191310382518743742
11552529 35 17833265325491073272
117089 54 18409455756526698051
12107183 9 18271539594171340625
12633257 1 16199569342917920124
13533116 47 18267025149661369569
13631057 29 18264490577637895442
13911852 28 18410292510950194095
13955234 65 18054225703196927473
13989917 61 18265053725065796067
14344974 204 18122341273266966266
15019793 15 17906454677830245151
17492 89 18411979191910586977
17859628 70 18267020738176490873
19141452 34 17398396326306650892
19319366 153 18120948458005295796
20165401 70 18269554017937581295
20691028 202 9294989259312016643
20775438 99 17975683211032133691
20843269 155 18118115879892298402
21360442 33 18336825424805566871
22956985 138 18410847751506748608
23523788 1 18195496321457531754
23569914 2 11788249991844131838
23845131 108 17260464198577516449
24893989 43 17556023824718990063
2748736 6 9295282807895236523
2838139 119 8790013268821107938
3421961 26 18341047510063114305
439807 62 18335423470128517303
46194498 28 17458343086809478365
463206 1 18335989705014508475
5104073 3 17918281974164614769
5309563 4 18411700954853608923
5718773 13 18409164403156413311
70251023 43 18336548317562845673
77188 2 18411698785584745584
7970288 3 18410291389531758751

>  <PUBCHEM_SHAPE_MULTIPOLES>  (1) 
493.98
18.5
7.2
1.01
42.7
7.17
0.23
-35.97
-1.79
-1.83
-1.99
-0.56
0.27
-0.72

>  <PUBCHEM_SHAPE_SELFOVERLAP>  (1) 
969.832

>  <PUBCHEM_SHAPE_VOLUME>  (1) 
300.1

>  <PUBCHEM_COORDINATE_TYPE>  (1) 
2
5
10

$$$$
