30583
     RDKit          3D

 19 19  0  0  1  0  0  0  0  0999 V2000
    0.8987    1.3473    1.6077 O   0  0  0  0  0  0  0  0  0  0  0  0
    4.2787   -1.7912   -1.2559 O   0  0  0  0  0  0  0  0  0  0  0  0
   -5.8594    0.5345    0.7100 O   0  0  0  0  0  0  0  0  0  0  0  0
   -5.3622   -0.9260   -0.9661 O   0  0  0  0  0  0  0  0  0  0  0  0
    2.3473    1.1751   -0.3490 C   0  0  0  0  0  0  0  0  0  0  0  0
    1.2642    0.4592    0.5420 C   0  0  0  0  0  0  0  0  0  0  0  0
    2.9142    0.1748   -1.3776 C   0  0  0  0  0  0  0  0  0  0  0  0
    1.7924   -0.8547    1.1190 C   0  0  0  0  0  0  0  0  0  0  0  0
    3.5159    1.7347    0.5088 C   0  0  0  0  0  0  0  0  0  0  0  0
    1.7583    2.3864   -1.1110 C   0  0  0  0  0  0  0  0  0  0  0  0
    3.4062   -1.1012   -0.7304 C   0  0  0  0  0  0  0  0  0  0  0  0
   -0.0102    0.1782   -0.2164 C   0  0  0  0  0  0  0  0  0  0  0  0
    2.7786   -1.5555    0.5342 C   0  0  0  0  0  0  0  0  0  0  0  0
    1.1398   -1.3838    2.3706 C   0  0  0  0  0  0  0  0  0  0  0  0
   -1.2295    0.2115    0.3451 C   0  0  0  0  0  0  0  0  0  0  0  0
   -2.5117   -0.0519   -0.3157 C   0  0  0  0  0  0  0  0  0  0  0  0
   -2.4747   -0.3742   -1.7875 C   0  0  0  0  0  0  0  0  0  0  0  0
   -3.6334    0.0329    0.4277 C   0  0  0  0  0  0  0  0  0  0  0  0
   -5.0134   -0.1962   -0.0553 C   0  0  0  0  0  0  0  0  0  0  0  0
  1  6  1  0
  2 11  2  0
  3 19  1  0
  4 19  2  0
  5  6  1  0
  5  7  1  0
  5  9  1  0
  5 10  1  0
  6  8  1  0
  6 12  1  0
  7 11  1  0
  8 13  2  0
  8 14  1  0
 11 13  1  0
 12 15  2  0
 15 16  1  0
 16 17  1  0
 16 18  2  0
 18 19  1  0
M  END
>  <PUBCHEM_COMPOUND_CID>  (1) 
30583

>  <PUBCHEM_CONFORMER_RMSD>  (1) 
0.6

>  <PUBCHEM_CONFORMER_DIVERSEORDER>  (1) 
3
2
4
13
16
11
1
18
5
12
8
15
14
9
6
7
10
17

>  <PUBCHEM_MMFF94_PARTIAL_CHARGES>  (1) 
22
1 -0.68
11 0.49
12 -0.29
13 -0.14
14 0.14
15 -0.15
16 -0.14
17 0.14
18 -0.14
19 0.71
2 -0.57
28 0.15
29 0.15
3 -0.65
30 0.4
34 0.15
38 0.15
39 0.5
4 -0.57
6 0.56
7 0.06
8 -0.28

>  <PUBCHEM_EFFECTIVE_ROTOR_COUNT>  (1) 
3.6

>  <PUBCHEM_PHARMACOPHORE_FEATURES>  (1) 
9
1 1 acceptor
1 1 donor
1 17 hydrophobe
1 2 acceptor
1 3 acceptor
1 4 acceptor
3 3 4 19 anion
3 5 9 10 hydrophobe
6 5 6 7 8 11 13 rings

>  <PUBCHEM_HEAVY_ATOM_COUNT>  (1) 
19

>  <PUBCHEM_ATOM_DEF_STEREO_COUNT>  (1) 
1

>  <PUBCHEM_ATOM_UDEF_STEREO_COUNT>  (1) 
0

>  <PUBCHEM_BOND_DEF_STEREO_COUNT>  (1) 
0

>  <PUBCHEM_BOND_UDEF_STEREO_COUNT>  (1) 
2

>  <PUBCHEM_ISOTOPIC_ATOM_COUNT>  (1) 
0

>  <PUBCHEM_COMPONENT_COUNT>  (1) 
1

>  <PUBCHEM_CACTVS_TAUTO_COUNT>  (1) 
5

>  <PUBCHEM_CONFORMER_ID>  (1) 
0000777700000003

>  <PUBCHEM_MMFF94_ENERGY>  (1) 
50.3063

>  <PUBCHEM_FEATURE_SELFOVERLAP>  (1) 
45.728

>  <PUBCHEM_SHAPE_FINGERPRINT>  (1) 
10366900 7 16877666760076393249
10498660 4 14418126288796418959
11796584 16 17132123433004221687
12730499 353 17095536092699703089
128620 24 13767930109322917715
13167823 11 18342737447082561919
13675066 3 16343695539585708179
14115302 16 17489872639166306855
15238133 3 15410624657105887675
16945 1 17461754752044076594
17844677 252 18259707796572899629
1813 80 18199477562925410254
18186145 218 18259981578767012055
19784866 140 18114749213710138358
19784866 240 17488756575035349902
20388580 30 18342747273709032046
20645477 70 18411981368699039167
212847 35 16630530622380410785
21503847 285 18334862701432802857
21637258 2 17917146070983605374
2255824 54 18261108595096391290
23559900 14 18334861644622642403
23590187 302 17967816028671212758
23596394 208 17458613498304095495
239999 70 18259990396092505019
2838139 119 13985816003683876710
29717793 49 18273208686843750461
3060560 45 17675924317786216718
3323516 105 17749394762532453227
42 15 16773795875025305367
42630746 31 18334009527696227160
474 4 18192148428446565976
4990 188 18261116274524420167
5104073 3 16702020920301522483
522135 26 18411419509867504503
5281201 14 18187079542545490333
54040823 5 17346321548243147928
633830 44 18260829319665104167
8509985 295 16415481523722528967
90127 26 18333170557802030305

>  <PUBCHEM_SHAPE_MULTIPOLES>  (1) 
367.53
9.88
1.84
1.62
16.52
0.07
0.2
-0.44
2.27
-2.31
-0.46
-0.76
-0.19
0.57

>  <PUBCHEM_SHAPE_SELFOVERLAP>  (1) 
752.88

>  <PUBCHEM_SHAPE_VOLUME>  (1) 
210.4

>  <PUBCHEM_COORDINATE_TYPE>  (1) 
2
5
10

$$$$
