30582
     RDKit          3D

 12 11  0  0  0  0  0  0  0  0999 V2000
   -0.7433   -0.0872   -0.1066 C   0  0  0  0  0  0  0  0  0  0  0  0
    0.7171   -0.0674    0.0190 C   0  0  0  0  0  0  0  0  0  0  0  0
   -1.3080   -1.0044   -1.1695 C   0  0  0  0  0  0  0  0  0  0  0  0
    1.4205   -1.4064   -0.0881 C   0  0  0  0  0  0  0  0  0  0  0  0
   -1.4920    0.7086    0.6845 C   0  0  0  0  0  0  0  0  0  0  0  0
    1.4275    1.0633    0.2112 C   0  0  0  0  0  0  0  0  0  0  0  0
   -2.9901    0.8069    0.7167 C   0  0  0  0  0  0  0  0  0  0  0  0
    2.9184    1.1988    0.3529 C   0  0  0  0  0  0  0  0  0  0  0  0
   -1.6250   -2.3928   -0.6301 C   0  0  0  0  0  0  0  0  0  0  0  0
    1.5851   -2.0946    1.2617 C   0  0  0  0  0  0  0  0  0  0  0  0
   -3.4940    1.8628   -0.2540 C   0  0  0  0  0  0  0  0  0  0  0  0
    3.5838    1.4124   -0.9978 C   0  0  0  0  0  0  0  0  0  0  0  0
  1  2  1  0
  1  3  1  0
  1  5  2  0
  2  4  1  0
  2  6  2  0
  3  9  1  0
  4 10  1  0
  5  7  1  0
  6  8  1  0
  7 11  1  0
  8 12  1  0
M  END
>  <PUBCHEM_COMPOUND_CID>  (1) 
30582

>  <PUBCHEM_CONFORMER_RMSD>  (1) 
0.6

>  <PUBCHEM_CONFORMER_DIVERSEORDER>  (1) 
1
27
35
34
11
42
22
32
46
31
41
47
33
30
40
39
37
6
8
24
36
7
45
14
19
13
28
18
15
44
25
10
17
21
23
20
16
12
26
29
4
2
3
9
38
43
5

>  <PUBCHEM_MMFF94_PARTIAL_CHARGES>  (1) 
10
1 -0.14
17 0.15
18 0.15
2 -0.14
3 0.14
4 0.14
5 -0.29
6 -0.29
7 0.14
8 0.14

>  <PUBCHEM_EFFECTIVE_ROTOR_COUNT>  (1) 
5

>  <PUBCHEM_PHARMACOPHORE_FEATURES>  (1) 
5
1 10 hydrophobe
1 11 hydrophobe
1 12 hydrophobe
1 9 hydrophobe
4 1 2 3 4 hydrophobe

>  <PUBCHEM_HEAVY_ATOM_COUNT>  (1) 
12

>  <PUBCHEM_ATOM_DEF_STEREO_COUNT>  (1) 
0

>  <PUBCHEM_ATOM_UDEF_STEREO_COUNT>  (1) 
0

>  <PUBCHEM_BOND_DEF_STEREO_COUNT>  (1) 
0

>  <PUBCHEM_BOND_UDEF_STEREO_COUNT>  (1) 
2

>  <PUBCHEM_ISOTOPIC_ATOM_COUNT>  (1) 
0

>  <PUBCHEM_COMPONENT_COUNT>  (1) 
1

>  <PUBCHEM_CACTVS_TAUTO_COUNT>  (1) 
1

>  <PUBCHEM_CONFORMER_ID>  (1) 
0000777600000001

>  <PUBCHEM_MMFF94_ENERGY>  (1) 
13.7365

>  <PUBCHEM_FEATURE_SELFOVERLAP>  (1) 
25.412

>  <PUBCHEM_SHAPE_FINGERPRINT>  (1) 
10756046 5 18343866610478793070
108231 29 17327453035020210811
10980938 120 18409730616825725512
12138202 97 18060427936128789309
12186901 62 18057902400774502213
12423570 1 8068646882307206071
13380535 21 18342185474332124622
13380536 305 18127139567219948759
13538477 17 18343574144633051867
14123255 52 18411418423083153208
14897335 6 18342450439454555856
14993402 34 18055354634748826366
15219459 52 18128818534265590423
15279307 12 18410852174557659002
15775835 57 18412268336886310044
16945 1 17984134044211758566
18342897 96 18339648939729973454
19873495 37 18340218482474141782
20653085 51 18057618748629368680
20671657 1 18339922623863011968
21501502 16 18410565197680395319
21524375 3 18411143549423411416
23419403 2 16971468261410393762
305870 269 18333732416332338784
528862 383 18335984155779157162
53748568 43 18410011065547644094
53812653 217 17845363513370616639
81539 233 18187370904426094016

>  <PUBCHEM_SHAPE_MULTIPOLES>  (1) 
246.95
5.34
2.47
1.08
0.11
1.13
0.01
-3.82
0.44
-0.23
0.06
0.14
0.27
-1.03

>  <PUBCHEM_SHAPE_SELFOVERLAP>  (1) 
458.301

>  <PUBCHEM_SHAPE_VOLUME>  (1) 
157.8

>  <PUBCHEM_COORDINATE_TYPE>  (1) 
2
5
10

$$$$
