30588
     RDKit          3D

 11 10  0  0  1  0  0  0  0  0999 V2000
    3.3919    1.4433   -0.4446 Cl  0  0  0  0  0  0  0  0  0  0  0  0
    0.6737    0.7306    0.2262 P   0  0  0  0  0  0  0  0  0  0  0  0
    1.1541   -0.7767    0.5684 O   0  0  0  0  0  0  0  0  0  0  0  0
    0.6986    1.6281    1.4314 O   0  0  0  0  0  0  0  0  0  0  0  0
   -4.3869   -0.0844   -0.5192 N   0  0  0  0  0  0  0  0  0  0  0  0
   -0.9594    0.5472   -0.4641 C   0  0  0  0  0  0  0  0  0  0  0  0
    1.7491    1.2707   -1.0821 C   0  0  0  0  0  0  0  0  0  0  0  0
   -1.9926    0.0854    0.5528 C   0  0  0  0  0  0  0  0  0  0  0  0
    1.2662   -1.7726   -0.4309 C   0  0  0  0  0  0  0  0  0  0  0  0
    1.7352   -3.0621    0.2086 C   0  0  0  0  0  0  0  0  0  0  0  0
   -3.3298   -0.0094   -0.0465 C   0  0  0  0  0  0  0  0  0  0  0  0
  1  7  1  0
  2  3  1  0
  2  4  2  0
  2  6  1  0
  2  7  1  0
  3  9  1  0
  5 11  3  0
  6  8  1  0
  8 11  1  0
  9 10  1  0
M  END
>  <PUBCHEM_COMPOUND_CID>  (1) 
30588

>  <PUBCHEM_CONFORMER_RMSD>  (1) 
0.6

>  <PUBCHEM_CONFORMER_DIVERSEORDER>  (1) 
1
108
102
86
25
34
5
78
9
64
61
104
93
12
58
54
91
7
14
105
11
62
53
92
83
109
55
96
74
31
19
40
68
2
27
103
57
71
110
52
20
94
79
42
46
107
98
59
80
69
4
18
44
33
32
35
75
3
38
48
13
90
100
43
6
36
87
16
47
89
82
22
41
51
21
67
88
66
45
49
97
95
81
72
73
15
106
17
29
10
63
76
24
65
101
8
84
70
50
99
77
30
85
37
39
28
56
60
23
26

>  <PUBCHEM_MMFF94_PARTIAL_CHARGES>  (1) 
9
1 -0.29
11 0.36
2 0.97
3 -0.55
4 -0.7
5 -0.56
7 0.29
8 0.2
9 0.28

>  <PUBCHEM_EFFECTIVE_ROTOR_COUNT>  (1) 
5

>  <PUBCHEM_PHARMACOPHORE_FEATURES>  (1) 
1
1 5 acceptor

>  <PUBCHEM_HEAVY_ATOM_COUNT>  (1) 
11

>  <PUBCHEM_ATOM_DEF_STEREO_COUNT>  (1) 
0

>  <PUBCHEM_ATOM_UDEF_STEREO_COUNT>  (1) 
1

>  <PUBCHEM_BOND_DEF_STEREO_COUNT>  (1) 
0

>  <PUBCHEM_BOND_UDEF_STEREO_COUNT>  (1) 
0

>  <PUBCHEM_ISOTOPIC_ATOM_COUNT>  (1) 
0

>  <PUBCHEM_COMPONENT_COUNT>  (1) 
1

>  <PUBCHEM_CACTVS_TAUTO_COUNT>  (1) 
1

>  <PUBCHEM_CONFORMER_ID>  (1) 
0000777C00000001

>  <PUBCHEM_MMFF94_ENERGY>  (1) 
2.8048

>  <PUBCHEM_FEATURE_SELFOVERLAP>  (1) 
5.074

>  <PUBCHEM_SHAPE_FINGERPRINT>  (1) 
1 1 18336266829373425316
12932764 1 18060414742617093981
13380535 76 18187648054249373027
14251717 144 18410855451591267214
187816 3 18129677408067365764
19021347 11 18410017636884569286
20201158 50 18261676982552541819
20645477 70 18334569110812286215
20671657 53 18044379318275679790
20708731 107 18409729538899651975
20711978 1 18264769857200463655
21501502 16 18268996384493646017
23530152 11 18337675342186474286
23532345 88 18336818689668761959
23552423 10 18265621983064888737
23557571 272 16950280733025989655
257057 1 17685772424292965762
3060560 45 18262518211974148004
366044 4 18336267967745714324
528862 383 18409728443656702318
7364860 26 18410293571195355422
81228 2 17188126795561009618
81539 233 18113901589108323462

>  <PUBCHEM_SHAPE_MULTIPOLES>  (1) 
215.37
5.63
2.49
0.99
6.21
2.57
0.14
-1.11
-1.25
-2.95
0.1
-0.18
-0.34
-0.24

>  <PUBCHEM_SHAPE_SELFOVERLAP>  (1) 
372.382

>  <PUBCHEM_SHAPE_VOLUME>  (1) 
142.9

>  <PUBCHEM_COORDINATE_TYPE>  (1) 
2
5
10

$$$$
