30593
     RDKit          3D

 28 30  0  0  1  0  0  0  0  0999 V2000
    4.8479    2.2741    0.1809 O   0  0  0  0  0  0  0  0  0  0  0  0
   -5.0212    2.1215    0.1095 O   0  0  0  0  0  0  0  0  0  0  0  0
    5.9538    0.2209   -0.0224 O   0  0  0  0  0  0  0  0  0  0  0  0
   -6.0602    0.0353   -0.1095 O   0  0  0  0  0  0  0  0  0  0  0  0
    1.2750   -2.5632   -0.2921 C   0  0  0  0  0  0  0  0  0  0  0  0
    1.2250   -3.7154    0.7267 C   0  0  0  0  0  0  0  0  0  0  0  0
   -0.0229   -1.7804   -0.2613 C   0  0  0  0  0  0  0  0  0  0  0  0
   -0.0398   -4.5692    0.6120 C   0  0  0  0  0  0  0  0  0  0  0  0
   -1.2923   -2.5899   -0.3513 C   0  0  0  0  0  0  0  0  0  0  0  0
   -1.3021   -3.7111    0.6870 C   0  0  0  0  0  0  0  0  0  0  0  0
    1.5859   -3.0651   -1.7053 C   0  0  0  0  0  0  0  0  0  0  0  0
   -0.0439   -0.4457   -0.1245 C   0  0  0  0  0  0  0  0  0  0  0  0
    1.2538    0.2757   -0.0433 C   0  0  0  0  0  0  0  0  0  0  0  0
   -1.3642    0.2353   -0.0626 C   0  0  0  0  0  0  0  0  0  0  0  0
    1.8273    0.4759    1.1945 C   0  0  0  0  0  0  0  0  0  0  0  0
   -1.9480    0.6627   -1.2365 C   0  0  0  0  0  0  0  0  0  0  0  0
    1.8406    0.7213   -1.2087 C   0  0  0  0  0  0  0  0  0  0  0  0
   -1.9612    0.4175    1.1669 C   0  0  0  0  0  0  0  0  0  0  0  0
    3.0444    1.1530    1.2704 C   0  0  0  0  0  0  0  0  0  0  0  0
   -3.1864    1.3019   -1.1781 C   0  0  0  0  0  0  0  0  0  0  0  0
    3.0577    1.3985   -1.1329 C   0  0  0  0  0  0  0  0  0  0  0  0
   -3.1996    1.0567    1.2253 C   0  0  0  0  0  0  0  0  0  0  0  0
    3.6595    1.6144    0.1066 C   0  0  0  0  0  0  0  0  0  0  0  0
   -3.8122    1.4990    0.0529 C   0  0  0  0  0  0  0  0  0  0  0  0
    5.9740    1.4385    0.1009 C   0  0  0  0  0  0  0  0  0  0  0  0
   -6.1197    1.2514    0.0154 C   0  0  0  0  0  0  0  0  0  0  0  0
    7.2281    2.2563    0.1918 C   0  0  0  0  0  0  0  0  0  0  0  0
   -7.3996    2.0302    0.0874 C   0  0  0  0  0  0  0  0  0  0  0  0
  1 23  1  0
  1 25  1  0
  2 24  1  0
  2 26  1  0
  3 25  2  0
  4 26  2  0
  5  6  1  0
  5  7  1  0
  5 11  1  0
  6  8  1  0
  7  9  1  0
  7 12  2  3
  8 10  1  0
  9 10  1  0
 12 13  1  0
 12 14  1  0
 13 15  2  0
 13 17  1  0
 14 16  2  0
 14 18  1  0
 15 19  1  0
 16 20  1  0
 17 21  2  0
 18 22  2  0
 19 23  2  0
 20 24  2  0
 21 23  1  0
 22 24  1  0
 25 27  1  0
 26 28  1  0
M  END
>  <PUBCHEM_COMPOUND_CID>  (1) 
30593

>  <PUBCHEM_CONFORMER_RMSD>  (1) 
0.8

>  <PUBCHEM_CONFORMER_DIVERSEORDER>  (1) 
1
17
30
32
39
29
36
23
8
40
10
27
31
35
11
21
28
33
5
4
38
24
20
19
12
3
25
34
26
16
18
22
7
9
37
15
13
6
2
14

>  <PUBCHEM_MMFF94_PARTIAL_CHARGES>  (1) 
32
1 -0.23
12 -0.06
13 0.03
14 0.03
15 -0.15
16 -0.15
17 -0.15
18 -0.15
19 -0.15
2 -0.23
20 -0.15
21 -0.15
22 -0.15
23 0.08
24 0.08
25 0.66
26 0.66
27 0.06
28 0.06
3 -0.57
4 -0.57
41 0.15
42 0.15
43 0.15
44 0.15
45 0.15
46 0.15
47 0.15
48 0.15
5 0.14
7 -0.28
9 0.14

>  <PUBCHEM_EFFECTIVE_ROTOR_COUNT>  (1) 
7

>  <PUBCHEM_PHARMACOPHORE_FEATURES>  (1) 
5
1 3 acceptor
1 4 acceptor
6 13 15 17 19 21 23 rings
6 14 16 18 20 22 24 rings
6 5 6 7 8 9 10 rings

>  <PUBCHEM_HEAVY_ATOM_COUNT>  (1) 
28

>  <PUBCHEM_ATOM_DEF_STEREO_COUNT>  (1) 
0

>  <PUBCHEM_ATOM_UDEF_STEREO_COUNT>  (1) 
1

>  <PUBCHEM_BOND_DEF_STEREO_COUNT>  (1) 
0

>  <PUBCHEM_BOND_UDEF_STEREO_COUNT>  (1) 
0

>  <PUBCHEM_ISOTOPIC_ATOM_COUNT>  (1) 
0

>  <PUBCHEM_COMPONENT_COUNT>  (1) 
1

>  <PUBCHEM_CACTVS_TAUTO_COUNT>  (1) 
1

>  <PUBCHEM_CONFORMER_ID>  (1) 
0000778100000001

>  <PUBCHEM_MMFF94_ENERGY>  (1) 
89.8251

>  <PUBCHEM_FEATURE_SELFOVERLAP>  (1) 
25.373

>  <PUBCHEM_SHAPE_FINGERPRINT>  (1) 
10165383 225 18410856563956505488
10369192 42 18335135401617592885
1100329 8 18338515219263548786
11823591 26 18411972568253196008
12107183 9 18334848412814912408
12293681 160 17846499227072048169
12597179 24 18341899606179078342
12643181 29 18411985772427835958
12730499 353 18337401444080199841
12788726 201 17612325447131782526
13140716 1 18408885101053411402
13631057 29 18200588229116010295
13692114 37 18200860868549103103
13955234 65 18192154794051744603
14190465 44 18123459751200763704
14955137 171 17840868469424068911
15230672 131 18335141987036658126
15439362 3 18339643331056605238
15664445 248 17552929420629641062
15927050 60 18412259549526245039
17913733 40 18339659870838532267
17980427 23 17168433769740682919
1813 80 17410780159349458367
20505436 4 18059850645754210141
20554085 129 17917134053601249296
20567600 254 18413387639918558325
20642791 105 18193279813031218955
21049683 118 18197752566166443368
21120745 212 17324664652273092732
21403212 168 18410286978963706130
22149856 69 18117869650403422545
22224240 67 18409445899613098909
2255824 54 18124595284671336495
23559900 14 17751660770725733583
23845131 108 18334577936754113667
249999 5 18337951164943947507
27425 322 17531257214044647406
283562 15 18122334950378150687
3411729 13 18338233760790791987
350125 39 18409729573112067539
3759504 43 18338796818450568592
4058900 60 18339367361917225913
4073 2 18408609128984159993
4340502 62 18412268320254670975
5104073 3 18193004729905076009
5265222 85 17908997840093234148
5385378 56 18337391535073813176
54076057 127 18059869316230382695
57124632 79 18265320721094756633
59755656 215 18410297973436581174
59755656 520 18411130368194829327
6009941 240 18270963561879280624
621550 34 18188206482193212069
6669772 16 18412829058126472478
70251023 43 17769104449664837183
7399639 24 18114741513329694837
77188 2 17401202274910522202
9981440 41 18335428945736923697

>  <PUBCHEM_SHAPE_MULTIPOLES>  (1) 
552.75
14.02
4.57
1.21
3.01
7.29
-0.14
-18.59
0.84
-1.02
0.45
-0.16
0.15
0.47

>  <PUBCHEM_SHAPE_SELFOVERLAP>  (1) 
1183.329

>  <PUBCHEM_SHAPE_VOLUME>  (1) 
304.5

>  <PUBCHEM_COORDINATE_TYPE>  (1) 
2
5
10

$$$$
