30595
     RDKit          3D

 25 26  0  0  1  0  0  0  0  0999 V2000
   -4.0818   -0.5885    0.1897 O   0  0  0  0  0  0  0  0  0  0  0  0
    1.3145    0.8951    0.8719 O   0  0  0  0  0  0  0  0  0  0  0  0
    1.8234   -3.2584   -1.1561 O   0  0  0  0  0  0  0  0  0  0  0  0
    5.5187   -0.7217   -0.2177 O   0  0  0  0  0  0  0  0  0  0  0  0
   -4.4081    1.6895    0.0259 O   0  0  0  0  0  0  0  0  0  0  0  0
    1.4987   -1.2616    0.0098 N   0  0  0  0  0  0  0  0  0  0  0  0
    3.6544   -1.9976   -0.6269 N   0  0  0  0  0  0  0  0  0  0  0  0
    0.0663   -1.3983   -0.0973 C   0  0  0  0  0  0  0  0  0  0  0  0
   -0.5135   -0.2916   -0.9821 C   0  0  0  0  0  0  0  0  0  0  0  0
   -0.5829   -1.4032    1.2897 C   0  0  0  0  0  0  0  0  0  0  0  0
   -2.6786   -0.3848    0.3159 C   0  0  0  0  0  0  0  0  0  0  0  0
   -2.0337   -0.3810   -1.0690 C   0  0  0  0  0  0  0  0  0  0  0  0
   -2.1026   -1.4915    1.1962 C   0  0  0  0  0  0  0  0  0  0  0  0
    3.4774   -0.1560    0.9425 C   0  0  0  0  0  0  0  0  0  0  0  0
    2.0012   -0.0895    0.5960 C   0  0  0  0  0  0  0  0  0  0  0  0
    2.2848   -2.2522   -0.6108 C   0  0  0  0  0  0  0  0  0  0  0  0
    4.0584    1.2397    1.1629 C   0  0  0  0  0  0  0  0  0  0  0  0
    4.3244   -0.9443   -0.0281 C   0  0  0  0  0  0  0  0  0  0  0  0
    4.0884    2.0373   -0.1372 C   0  0  0  0  0  0  0  0  0  0  0  0
   -4.8382    0.5446    0.0498 C   0  0  0  0  0  0  0  0  0  0  0  0
    4.6406    3.4437    0.0938 C   0  0  0  0  0  0  0  0  0  0  0  0
   -6.2946    0.1574   -0.0700 C   0  0  0  0  0  0  0  0  0  0  0  0
    4.6434    4.2588   -1.1896 C   0  0  0  0  0  0  0  0  0  0  0  0
   -7.2015    1.3782   -0.2035 C   0  0  0  0  0  0  0  0  0  0  0  0
   -8.6592    0.9756   -0.3558 C   0  0  0  0  0  0  0  0  0  0  0  0
  1 11  1  0
  1 20  1  0
  2 15  2  0
  3 16  2  0
  4 18  2  0
  5 20  2  0
  6  8  1  0
  6 15  1  0
  6 16  1  0
  7 16  1  0
  7 18  1  0
  8  9  1  0
  8 10  1  0
  9 12  1  0
 10 13  1  0
 11 12  1  0
 11 13  1  0
 14 15  1  0
 14 17  1  0
 14 18  1  0
 17 19  1  0
 19 21  1  0
 20 22  1  0
 21 23  1  0
 22 24  1  0
 24 25  1  0
M  END
>  <PUBCHEM_COMPOUND_CID>  (1) 
30595

>  <PUBCHEM_CONFORMER_RMSD>  (1) 
1

>  <PUBCHEM_CONFORMER_DIVERSEORDER>  (1) 
1
77
17
44
79
60
35
81
58
33
21
22
53
63
59
62
43
32
26
28
3
16
38
72
7
30
55
70
12
27
40
64
5
76
75
9
46
57
19
47
20
8
31
67
52
13
41
29
24
10
82
51
4
37
15
66
45
68
39
11
73
25
61
65
42
48
80
71
54
18
50
34
69
56
14
49
2
23
36
6
78
74

>  <PUBCHEM_MMFF94_PARTIAL_CHARGES>  (1) 
16
1 -0.43
11 0.28
14 0.12
15 0.57
16 0.69
18 0.57
2 -0.57
20 0.66
22 0.06
3 -0.57
39 0.37
4 -0.57
5 -0.57
6 -0.42
7 -0.49
8 0.3

>  <PUBCHEM_EFFECTIVE_ROTOR_COUNT>  (1) 
9.8

>  <PUBCHEM_PHARMACOPHORE_FEATURES>  (1) 
10
1 14 anion
1 2 acceptor
1 23 hydrophobe
1 25 hydrophobe
1 3 acceptor
1 4 acceptor
1 5 acceptor
1 7 donor
6 6 7 14 15 16 18 rings
6 8 9 10 11 12 13 rings

>  <PUBCHEM_HEAVY_ATOM_COUNT>  (1) 
25

>  <PUBCHEM_ATOM_DEF_STEREO_COUNT>  (1) 
0

>  <PUBCHEM_ATOM_UDEF_STEREO_COUNT>  (1) 
1

>  <PUBCHEM_BOND_DEF_STEREO_COUNT>  (1) 
0

>  <PUBCHEM_BOND_UDEF_STEREO_COUNT>  (1) 
0

>  <PUBCHEM_ISOTOPIC_ATOM_COUNT>  (1) 
0

>  <PUBCHEM_COMPONENT_COUNT>  (1) 
1

>  <PUBCHEM_CACTVS_TAUTO_COUNT>  (1) 
3

>  <PUBCHEM_CONFORMER_ID>  (1) 
0000778300000001

>  <PUBCHEM_MMFF94_ENERGY>  (1) 
38.4442

>  <PUBCHEM_FEATURE_SELFOVERLAP>  (1) 
50.746

>  <PUBCHEM_SHAPE_FINGERPRINT>  (1) 
10411042 1 17838057005808356982
10673678 19 18340492278018022892
12236239 1 16630523999071971882
12730499 353 18412830161906771483
12925494 130 18045501069682392969
14251764 38 18339930311717874001
14251764 75 18045784748077677084
14347332 77 11023565578751816833
14429380 56 18337096922435878693
15183329 4 16486975094550560473
15342168 16 18339359785604977748
155225 6 18117282677364006116
15840311 113 18335139783211903637
17810953 82 18335139847267388036
17980427 23 17823695467892151959
19427546 62 18411981377215620814
20157964 124 18271806800670126627
20771845 171 17274829017509255807
21315764 268 18187357676137981581
21344244 181 12319739193857769181
221357 26 18201433619896838673
23559900 14 18409172073994546778
255183 451 17485658061132571558
2838139 119 18337101290275148037
335352 9 18272653420692868822
3411729 13 18188208814154893988
34797466 226 18342458102583521407
3545911 37 18272649022403465499
397830 11 18115037415343814603
4073 2 18335984251202686003
444735 82 18408605843118842509
474 4 18341613737271326154
495365 180 18201711864894794362
5104073 3 17676763292281447256
57527293 21 17532357837868538426
57724786 102 18261950855785369676
59682541 52 16845585209458514276
633830 44 18335412508881321930
8272917 22 18202283572091424694
9999458 23 18408040719848282606

>  <PUBCHEM_SHAPE_MULTIPOLES>  (1) 
475.18
17.29
3.46
1.1
35
2.81
-0.04
13.63
1.43
-6.89
1.19
-0.55
-0.16
0.34

>  <PUBCHEM_SHAPE_SELFOVERLAP>  (1) 
966.306

>  <PUBCHEM_SHAPE_VOLUME>  (1) 
271.2

>  <PUBCHEM_COORDINATE_TYPE>  (1) 
2
5
10

$$$$
