30594
     RDKit          3D

 24 25  0  0  1  0  0  0  0  0999 V2000
   -3.3391   -0.5423    0.8366 O   0  0  0  0  0  0  0  0  0  0  0  0
    0.3532   -0.8931   -0.1290 O   0  0  0  0  0  0  0  0  0  0  0  0
    1.3736    3.6368    0.1206 O   0  0  0  0  0  0  0  0  0  0  0  0
    4.6785    0.6139   -0.8334 O   0  0  0  0  0  0  0  0  0  0  0  0
   -5.3088   -0.5593   -0.3649 O   0  0  0  0  0  0  0  0  0  0  0  0
    0.7524    1.4023   -0.1498 N   0  0  0  0  0  0  0  0  0  0  0  0
    2.9931    2.1139   -0.4086 N   0  0  0  0  0  0  0  0  0  0  0  0
   -0.5932    1.6939    0.2822 C   0  0  0  0  0  0  0  0  0  0  0  0
   -1.6015    1.2907   -0.7959 C   0  0  0  0  0  0  0  0  0  0  0  0
   -0.8958    1.0053    1.6153 C   0  0  0  0  0  0  0  0  0  0  0  0
   -3.3522    0.8751    0.9930 C   0  0  0  0  0  0  0  0  0  0  0  0
   -3.0399    1.5466   -0.3449 C   0  0  0  0  0  0  0  0  0  0  0  0
   -2.3347    1.2594    2.0668 C   0  0  0  0  0  0  0  0  0  0  0  0
    2.3985   -0.1233   -1.1349 C   0  0  0  0  0  0  0  0  0  0  0  0
    1.0804    0.0617   -0.4055 C   0  0  0  0  0  0  0  0  0  0  0  0
    1.6721    2.4692   -0.1449 C   0  0  0  0  0  0  0  0  0  0  0  0
    2.9071   -1.5582   -1.0053 C   0  0  0  0  0  0  0  0  0  0  0  0
    3.4773    0.8657   -0.7615 C   0  0  0  0  0  0  0  0  0  0  0  0
    3.3096   -1.8739    0.4320 C   0  0  0  0  0  0  0  0  0  0  0  0
   -4.2259   -1.0493   -0.0755 C   0  0  0  0  0  0  0  0  0  0  0  0
    3.7877   -3.3198    0.5635 C   0  0  0  0  0  0  0  0  0  0  0  0
   -3.6551   -2.3145   -0.6720 C   0  0  0  0  0  0  0  0  0  0  0  0
    4.1595   -3.6552    1.9989 C   0  0  0  0  0  0  0  0  0  0  0  0
   -4.5967   -2.9455   -1.6827 C   0  0  0  0  0  0  0  0  0  0  0  0
  1 11  1  0
  1 20  1  0
  2 15  2  0
  3 16  2  0
  4 18  2  0
  5 20  2  0
  6  8  1  0
  6 15  1  0
  6 16  1  0
  7 16  1  0
  7 18  1  0
  8  9  1  0
  8 10  1  0
  9 12  1  0
 10 13  1  0
 11 12  1  0
 11 13  1  0
 14 15  1  0
 14 17  1  0
 14 18  1  0
 17 19  1  0
 19 21  1  0
 20 22  1  0
 21 23  1  0
 22 24  1  0
M  END
>  <PUBCHEM_COMPOUND_CID>  (1) 
30594

>  <PUBCHEM_CONFORMER_RMSD>  (1) 
0.8

>  <PUBCHEM_CONFORMER_DIVERSEORDER>  (1) 
1
156
170
161
149
47
26
166
52
30
157
148
167
20
33
86
164
162
155
4
126
128
122
134
147
107
91
129
133
78
154
123
168
127
139
8
172
95
71
38
105
23
138
58
41
27
17
66
49
163
151
55
142
173
22
11
171
29
121
31
44
54
88
113
143
32
104
42
18
56
119
2
39
48
137
146
63
120
152
10
61
111
99
70
115
79
73
35
34
145
21
75
28
36
74
101
102
40
112
9
131
51
12
72
90
45
135
65
136
117
94
144
106
3
81
83
69
50
77
160
13
150
57
169
64
53
37
59
110
6
93
114
82
5
84
85
7
132
130
92
159
87
15
108
116
16
62
24
153
68
76
96
124
97
60
140
43
98
125
100
46
19
89
80
14
141
109
118
103
25
67
158
165

>  <PUBCHEM_MMFF94_PARTIAL_CHARGES>  (1) 
16
1 -0.43
11 0.28
14 0.12
15 0.57
16 0.69
18 0.57
2 -0.57
20 0.66
22 0.06
3 -0.57
38 0.37
4 -0.57
5 -0.57
6 -0.42
7 -0.49
8 0.3

>  <PUBCHEM_EFFECTIVE_ROTOR_COUNT>  (1) 
8.8

>  <PUBCHEM_PHARMACOPHORE_FEATURES>  (1) 
10
1 14 anion
1 2 acceptor
1 23 hydrophobe
1 24 hydrophobe
1 3 acceptor
1 4 acceptor
1 5 acceptor
1 7 donor
6 6 7 14 15 16 18 rings
6 8 9 10 11 12 13 rings

>  <PUBCHEM_HEAVY_ATOM_COUNT>  (1) 
24

>  <PUBCHEM_ATOM_DEF_STEREO_COUNT>  (1) 
0

>  <PUBCHEM_ATOM_UDEF_STEREO_COUNT>  (1) 
1

>  <PUBCHEM_BOND_DEF_STEREO_COUNT>  (1) 
0

>  <PUBCHEM_BOND_UDEF_STEREO_COUNT>  (1) 
0

>  <PUBCHEM_ISOTOPIC_ATOM_COUNT>  (1) 
0

>  <PUBCHEM_COMPONENT_COUNT>  (1) 
1

>  <PUBCHEM_CACTVS_TAUTO_COUNT>  (1) 
3

>  <PUBCHEM_CONFORMER_ID>  (1) 
0000778200000001

>  <PUBCHEM_MMFF94_ENERGY>  (1) 
42.5081

>  <PUBCHEM_FEATURE_SELFOVERLAP>  (1) 
50.746

>  <PUBCHEM_SHAPE_FINGERPRINT>  (1) 
10622 236 18341878702415701255
11578080 2 17558808625426134880
11796584 16 17988934405005158733
12553582 1 17979373974865050702
12596599 1 18057903349983366695
12633257 1 18197229048492479263
13004483 165 18341052922201520009
13631057 29 18058172893509261407
14117953 113 17981889636205569335
14178342 30 17771915926097327419
14787075 74 17771631431605867273
14844126 61 17540809495830351250
15163728 17 12252179607304319883
17134984 74 17977089486462211415
200 152 18131078172874827057
20621476 51 18268422439081464847
20626108 58 18342170034040824794
20681651 13 18272377455552232369
20775530 9 17913481622262024671
21054139 6 18339930436751259156
23559900 14 17846511304604304445
3004659 81 18202285840250485671
463206 1 18187932707644827787
5104073 3 18342184315076174777

>  <PUBCHEM_SHAPE_MULTIPOLES>  (1) 
454.6
9.98
4.12
1.53
2.93
1.79
0.61
8.45
-0.69
-2.52
0.38
0.1
0.64
-3.51

>  <PUBCHEM_SHAPE_SELFOVERLAP>  (1) 
930.09

>  <PUBCHEM_SHAPE_VOLUME>  (1) 
257.5

>  <PUBCHEM_COORDINATE_TYPE>  (1) 
2
5
10

$$$$
