30591
     RDKit          3D

  9  9  0  0  0  0  0  0  0  0999 V2000
    2.9526   -0.3691   -0.0006 Cl  0  0  0  0  0  0  0  0  0  0  0  0
   -1.4017    0.1866   -0.0003 N   0  0  0  0  0  0  0  0  0  0  0  0
    0.5077   -1.2668    0.0003 N   0  0  0  0  0  0  0  0  0  0  0  0
    0.8116    1.1134    0.0004 N   0  0  0  0  0  0  0  0  0  0  0  0
   -1.0730    2.5087    0.0000 N   0  0  0  0  0  0  0  0  0  0  0  0
   -0.8122   -1.0200   -0.0001 C   0  0  0  0  0  0  0  0  0  0  0  0
   -0.5279    1.2063   -0.0001 C   0  0  0  0  0  0  0  0  0  0  0  0
   -1.7150   -2.2062    0.0000 C   0  0  0  0  0  0  0  0  0  0  0  0
    1.2578   -0.1530    0.0005 C   0  0  0  0  0  0  0  0  0  0  0  0
  1  9  1  0
  2  6  2  0
  2  7  1  0
  3  6  1  0
  3  9  2  0
  4  7  2  0
  4  9  1  0
  5  7  1  0
  6  8  1  0
M  END
>  <PUBCHEM_COMPOUND_CID>  (1) 
30591

>  <PUBCHEM_CONFORMER_RMSD>  (1) 
0.4

>  <PUBCHEM_CONFORMER_DIVERSEORDER>  (1) 
1

>  <PUBCHEM_MMFF94_PARTIAL_CHARGES>  (1) 
11
1 -0.18
13 0.4
14 0.4
2 -0.62
3 -0.62
4 -0.62
5 -0.9
6 0.48
7 0.72
8 0.14
9 0.8

>  <PUBCHEM_EFFECTIVE_ROTOR_COUNT>  (1) 
0

>  <PUBCHEM_PHARMACOPHORE_FEATURES>  (1) 
3
1 5 donor
4 2 4 5 7 cation
6 2 3 4 6 7 9 rings

>  <PUBCHEM_HEAVY_ATOM_COUNT>  (1) 
9

>  <PUBCHEM_ATOM_DEF_STEREO_COUNT>  (1) 
0

>  <PUBCHEM_ATOM_UDEF_STEREO_COUNT>  (1) 
0

>  <PUBCHEM_BOND_DEF_STEREO_COUNT>  (1) 
0

>  <PUBCHEM_BOND_UDEF_STEREO_COUNT>  (1) 
0

>  <PUBCHEM_ISOTOPIC_ATOM_COUNT>  (1) 
0

>  <PUBCHEM_COMPONENT_COUNT>  (1) 
1

>  <PUBCHEM_CACTVS_TAUTO_COUNT>  (1) 
4

>  <PUBCHEM_CONFORMER_ID>  (1) 
0000777F00000001

>  <PUBCHEM_MMFF94_ENERGY>  (1) 
19.6759

>  <PUBCHEM_FEATURE_SELFOVERLAP>  (1) 
15.223

>  <PUBCHEM_SHAPE_FINGERPRINT>  (1) 
12716758 59 18197220252578974038
18185500 45 18051133884513970974
20871998 184 18272933838537756526
21040471 1 18122343471803515456
23552423 10 18187929538222128606
23552449 1 18411416241349958438
2748010 2 18195803192042787558
29004967 10 17832142001815457163

>  <PUBCHEM_SHAPE_MULTIPOLES>  (1) 
167.16
2.81
2.35
0.58
1.72
1.22
0
-1.63
0
-1.17
0
0.02
-0.03
0

>  <PUBCHEM_SHAPE_SELFOVERLAP>  (1) 
333.309

>  <PUBCHEM_SHAPE_VOLUME>  (1) 
97.2

>  <PUBCHEM_COORDINATE_TYPE>  (1) 
2
5
10

$$$$
