30592
     RDKit          3D

 10 10  0  0  0  0  0  0  0  0999 V2000
    2.2008    0.8702   -0.0005 N   0  0  0  0  0  0  0  0  0  0  0  0
    0.6708   -0.9069   -0.0014 N   0  0  0  0  0  0  0  0  0  0  0  0
   -0.0905    1.3687   -0.0010 N   0  0  0  0  0  0  0  0  0  0  0  0
   -1.6806   -0.4284   -0.0002 N   0  0  0  0  0  0  0  0  0  0  0  0
   -2.3948    1.8052    0.0021 N   0  0  0  0  0  0  0  0  0  0  0  0
    0.8619    0.4223   -0.0016 C   0  0  0  0  0  0  0  0  0  0  0  0
   -0.6251   -1.2586   -0.0008 C   0  0  0  0  0  0  0  0  0  0  0  0
   -1.3372    0.8698   -0.0004 C   0  0  0  0  0  0  0  0  0  0  0  0
   -0.9223   -2.7195    0.0012 C   0  0  0  0  0  0  0  0  0  0  0  0
    3.3170   -0.0227    0.0025 C   0  0  0  0  0  0  0  0  0  0  0  0
  1  6  1  0
  1 10  1  0
  2  6  2  0
  2  7  1  0
  3  6  1  0
  3  8  2  0
  4  7  2  0
  4  8  1  0
  5  8  1  0
  7  9  1  0
M  END
>  <PUBCHEM_COMPOUND_CID>  (1) 
30592

>  <PUBCHEM_CONFORMER_RMSD>  (1) 
0.4

>  <PUBCHEM_CONFORMER_DIVERSEORDER>  (1) 
1
2
3
4

>  <PUBCHEM_MMFF94_PARTIAL_CHARGES>  (1) 
13
1 -0.87
10 0.37
11 0.4
18 0.4
19 0.4
2 -0.62
3 -0.62
4 -0.62
5 -0.9
6 0.72
7 0.48
8 0.72
9 0.14

>  <PUBCHEM_EFFECTIVE_ROTOR_COUNT>  (1) 
1

>  <PUBCHEM_PHARMACOPHORE_FEATURES>  (1) 
5
1 1 donor
1 5 donor
4 1 2 3 6 cation
4 3 4 5 8 cation
6 2 3 4 6 7 8 rings

>  <PUBCHEM_HEAVY_ATOM_COUNT>  (1) 
10

>  <PUBCHEM_ATOM_DEF_STEREO_COUNT>  (1) 
0

>  <PUBCHEM_ATOM_UDEF_STEREO_COUNT>  (1) 
0

>  <PUBCHEM_BOND_DEF_STEREO_COUNT>  (1) 
0

>  <PUBCHEM_BOND_UDEF_STEREO_COUNT>  (1) 
0

>  <PUBCHEM_ISOTOPIC_ATOM_COUNT>  (1) 
0

>  <PUBCHEM_COMPONENT_COUNT>  (1) 
1

>  <PUBCHEM_CACTVS_TAUTO_COUNT>  (1) 
9

>  <PUBCHEM_CONFORMER_ID>  (1) 
0000778000000001

>  <PUBCHEM_MMFF94_ENERGY>  (1) 
29.7209

>  <PUBCHEM_FEATURE_SELFOVERLAP>  (1) 
25.415

>  <PUBCHEM_SHAPE_FINGERPRINT>  (1) 
12716758 59 18413386544843939530
14325111 11 18410855421800796064
16945 1 18338517559371020966
193761 8 17978228588670642917
20871998 184 18128542750278880694
21040471 1 18410856533912333220
23552423 10 17971753526266389046
241688 4 17906169903631628107
2748010 2 18265904566069471199
528862 383 17899972738211990722

>  <PUBCHEM_SHAPE_MULTIPOLES>  (1) 
180.89
3.45
2.28
0.57
3.09
1.12
0
-0.79
0
-1.74
0
0.01
0.03
0

>  <PUBCHEM_SHAPE_SELFOVERLAP>  (1) 
365.845

>  <PUBCHEM_SHAPE_VOLUME>  (1) 
98.4

>  <PUBCHEM_COORDINATE_TYPE>  (1) 
2
5
10

$$$$
