30602
     RDKit          3D

 21 22  0  0  0  0  0  0  0  0999 V2000
    7.0203    0.5227   -0.5618 Cl  0  0  0  0  0  0  0  0  0  0  0  0
   -2.8680   -0.8601    1.0158 O   0  0  0  0  0  0  0  0  0  0  0  0
   -3.9955    1.6083    0.1975 O   0  0  0  0  0  0  0  0  0  0  0  0
   -3.2208    0.8956   -1.8507 O   0  0  0  0  0  0  0  0  0  0  0  0
   -3.7207   -0.7343   -0.1142 C   0  0  0  0  0  0  0  0  0  0  0  0
   -3.3149   -1.7923   -1.1389 C   0  0  0  0  0  0  0  0  0  0  0  0
   -5.1572   -0.9495    0.3519 C   0  0  0  0  0  0  0  0  0  0  0  0
   -1.5271   -0.6727    0.8022 C   0  0  0  0  0  0  0  0  0  0  0  0
   -3.5964    0.6666   -0.7071 C   0  0  0  0  0  0  0  0  0  0  0  0
    1.1926   -0.2926    0.3692 C   0  0  0  0  0  0  0  0  0  0  0  0
   -0.9826    0.6006    0.9231 C   0  0  0  0  0  0  0  0  0  0  0  0
   -0.7257   -1.7581    0.4672 C   0  0  0  0  0  0  0  0  0  0  0  0
    0.3820    0.7913    0.7056 C   0  0  0  0  0  0  0  0  0  0  0  0
    0.6389   -1.5673    0.2500 C   0  0  0  0  0  0  0  0  0  0  0  0
    2.6077   -0.0948    0.1436 C   0  0  0  0  0  0  0  0  0  0  0  0
    3.2865    0.9206    0.8177 C   0  0  0  0  0  0  0  0  0  0  0  0
    3.2940   -0.9189   -0.7487 C   0  0  0  0  0  0  0  0  0  0  0  0
    4.6508    1.1119    0.5996 C   0  0  0  0  0  0  0  0  0  0  0  0
    4.6585   -0.7277   -0.9668 C   0  0  0  0  0  0  0  0  0  0  0  0
    5.3369    0.2878   -0.2926 C   0  0  0  0  0  0  0  0  0  0  0  0
   -3.9593    2.9631   -0.2625 C   0  0  0  0  0  0  0  0  0  0  0  0
  1 20  1  0
  2  5  1  0
  2  8  1  0
  3  9  1  0
  3 21  1  0
  4  9  2  0
  5  6  1  0
  5  7  1  0
  5  9  1  0
  8 11  2  0
  8 12  1  0
 10 13  2  0
 10 14  1  0
 10 15  1  0
 11 13  1  0
 12 14  2  0
 15 16  2  0
 15 17  1  0
 16 18  1  0
 17 19  2  0
 18 20  2  0
 19 20  1  0
M  END
>  <PUBCHEM_COMPOUND_CID>  (1) 
30602

>  <PUBCHEM_CONFORMER_RMSD>  (1) 
0.8

>  <PUBCHEM_CONFORMER_DIVERSEORDER>  (1) 
1
16
14
12
5
15
6
8
11
3
7
10
4
13
9
2

>  <PUBCHEM_MMFF94_PARTIAL_CHARGES>  (1) 
25
1 -0.18
11 -0.15
12 -0.15
13 -0.15
14 -0.15
16 -0.15
17 -0.15
18 -0.15
19 -0.15
2 -0.36
20 0.18
21 0.28
28 0.15
29 0.15
3 -0.43
30 0.15
31 0.15
32 0.15
33 0.15
34 0.15
35 0.15
4 -0.57
5 0.34
8 0.08
9 0.66

>  <PUBCHEM_EFFECTIVE_ROTOR_COUNT>  (1) 
5

>  <PUBCHEM_PHARMACOPHORE_FEATURES>  (1) 
5
1 2 acceptor
1 4 acceptor
3 5 6 7 hydrophobe
6 15 16 17 18 19 20 rings
6 8 10 11 12 13 14 rings

>  <PUBCHEM_HEAVY_ATOM_COUNT>  (1) 
21

>  <PUBCHEM_ATOM_DEF_STEREO_COUNT>  (1) 
0

>  <PUBCHEM_ATOM_UDEF_STEREO_COUNT>  (1) 
0

>  <PUBCHEM_BOND_DEF_STEREO_COUNT>  (1) 
0

>  <PUBCHEM_BOND_UDEF_STEREO_COUNT>  (1) 
0

>  <PUBCHEM_ISOTOPIC_ATOM_COUNT>  (1) 
0

>  <PUBCHEM_COMPONENT_COUNT>  (1) 
1

>  <PUBCHEM_CACTVS_TAUTO_COUNT>  (1) 
1

>  <PUBCHEM_CONFORMER_ID>  (1) 
0000778A00000001

>  <PUBCHEM_MMFF94_ENERGY>  (1) 
79.0203

>  <PUBCHEM_FEATURE_SELFOVERLAP>  (1) 
25.371

>  <PUBCHEM_SHAPE_FINGERPRINT>  (1) 
10670039 82 18260545602436312604
10680689 15 18411420639423064395
11045977 3 8214139638167265614
11046707 91 11671774979563648169
11089746 13 18114177571433791940
12166972 35 18337113462112523664
12236239 1 15864063295577093186
12390115 104 18339088077727127385
12403259 415 18272365395183987832
12507557 5 15430036582291803063
12596602 18 13984669156778100788
12670543 26 18341619179416720934
12670546 177 18202279251127153366
12670546 56 16588291783402931464
12892183 10 11963396236490065590
12916748 109 18334016111680677499
13073987 5 18187083927596329650
13288520 33 15698287728360378851
13668630 136 16630532855610528262
14251752 14 18409448060329574590
14251764 38 18261957448302135068
14251764 75 17619349806163580785
14573314 32 18411139126002391284
15183329 4 17385440999897673826
15188451 53 9943510891593207393
15348495 7 8214135244800681622
15716309 27 12679467478389677844
15788980 27 17346596370078042732
15880784 105 9007046972681219444
17349148 13 18343863338145963562
17844677 252 18341618135228439192
1813 80 12967131635627330674
18186145 218 18272928332146830107
18927931 339 15123518033324512212
19489759 90 17822009834793502674
200 152 16845578617026274538
20281389 69 17167858678057393676
20645477 56 18261112997453843467
20645477 70 17917722279596027862
21033648 29 18341886415970554616
21267235 1 18059584640775387107
21279426 13 18268151963932107238
21709351 56 18272087232064821044
22122407 14 15140965036948021325
221357 26 18273208716629264665
22393880 68 18272643545855913430
22646028 1 15052015671484396514
23198884 109 17603586343972381882
23402539 116 17060346214605235290
23402655 69 18272934890930967528
23557571 272 18411706486491768533
23559900 14 17774718775142696258
26918003 58 8142088654173683414
3268164 11 18260539048395054455
3545911 37 18343306998231840522
4028521 119 18413671305375790026
5104073 3 17968658211591558723
5281201 14 18343023302377242644
5283173 99 18341611486671812624
531348 171 18341612573140315438
542803 24 16950564398388554474
59755656 520 17968093161837739026
633830 44 18341889658496399564

>  <PUBCHEM_SHAPE_MULTIPOLES>  (1) 
416.43
13.65
1.98
1.13
13.14
0.85
-0.23
2.93
-3.3
-2.62
-0.2
-0.39
0
0.77

>  <PUBCHEM_SHAPE_SELFOVERLAP>  (1) 
882.323

>  <PUBCHEM_SHAPE_VOLUME>  (1) 
234.8

>  <PUBCHEM_COORDINATE_TYPE>  (1) 
2
5
10

$$$$
