30600
     RDKit          3D

 18 18  0  0  0  0  0  0  0  0999 V2000
   -5.8525    1.0590    1.6568 Br  0  0  0  0  0  0  0  0  0  0  0  0
    0.3162   -0.6877   -1.4791 O   0  0  0  0  0  0  0  0  0  0  0  0
    2.6866   -0.0424   -0.2231 N   0  0  0  0  0  0  0  0  0  0  0  0
   -0.8350    0.5809    0.1263 N   0  0  0  0  0  0  0  0  0  0  0  0
    1.5329    0.8425   -0.0651 C   0  0  0  0  0  0  0  0  0  0  0  0
    2.4901   -1.2783    0.5338 C   0  0  0  0  0  0  0  0  0  0  0  0
    3.9107    0.6318    0.2079 C   0  0  0  0  0  0  0  0  0  0  0  0
    0.2856    0.1425   -0.5763 C   0  0  0  0  0  0  0  0  0  0  0  0
   -2.1785    0.1719   -0.0489 C   0  0  0  0  0  0  0  0  0  0  0  0
    3.6308   -2.2298    0.3420 C   0  0  0  0  0  0  0  0  0  0  0  0
    4.1373    1.9027   -0.5517 C   0  0  0  0  0  0  0  0  0  0  0  0
   -3.1656    0.7234    0.7507 C   0  0  0  0  0  0  0  0  0  0  0  0
   -2.4770   -0.7724   -1.0171 C   0  0  0  0  0  0  0  0  0  0  0  0
   -4.4893    0.3192    0.5772 C   0  0  0  0  0  0  0  0  0  0  0  0
   -3.8006   -1.1767   -1.1906 C   0  0  0  0  0  0  0  0  0  0  0  0
   -4.8067   -0.6309   -0.3934 C   0  0  0  0  0  0  0  0  0  0  0  0
    4.4141   -2.6681    1.3341 C   0  0  0  0  0  0  0  0  0  0  0  0
    4.2012    3.1123    0.0164 C   0  0  0  0  0  0  0  0  0  0  0  0
  1 14  1  0
  2  8  2  0
  3  5  1  0
  3  6  1  0
  3  7  1  0
  4  8  1  0
  4  9  1  0
  5  8  1  0
  6 10  1  0
  7 11  1  0
  9 12  2  0
  9 13  1  0
 10 17  2  0
 11 18  2  0
 12 14  1  0
 13 15  2  0
 14 16  2  0
 15 16  1  0
M  END
>  <PUBCHEM_COMPOUND_CID>  (1) 
30600

>  <PUBCHEM_CONFORMER_RMSD>  (1) 
0.8

>  <PUBCHEM_CONFORMER_DIVERSEORDER>  (1) 
1
23
35
26
45
41
52
31
3
28
4
25
32
51
38
18
53
30
27
46
12
7
40
39
10
22
48
11
49
8
29
47
20
36
50
24
16
33
13
44
17
42
9
14
19
2
37
43
5
34
21
15
6

>  <PUBCHEM_MMFF94_PARTIAL_CHARGES>  (1) 
29
1 -0.11
10 -0.29
11 -0.29
12 -0.15
13 -0.15
14 0.11
15 -0.15
16 -0.15
17 -0.3
18 -0.3
2 -0.57
25 0.37
26 0.15
27 0.15
28 0.15
29 0.15
3 -0.81
30 0.15
31 0.15
32 0.15
33 0.15
34 0.15
35 0.15
4 -0.55
5 0.33
6 0.41
7 0.41
8 0.57
9 0.12

>  <PUBCHEM_EFFECTIVE_ROTOR_COUNT>  (1) 
8

>  <PUBCHEM_PHARMACOPHORE_FEATURES>  (1) 
7
1 1 hydrophobe
1 17 hydrophobe
1 18 hydrophobe
1 2 acceptor
1 3 cation
1 4 donor
6 9 12 13 14 15 16 rings

>  <PUBCHEM_HEAVY_ATOM_COUNT>  (1) 
18

>  <PUBCHEM_ATOM_DEF_STEREO_COUNT>  (1) 
0

>  <PUBCHEM_ATOM_UDEF_STEREO_COUNT>  (1) 
0

>  <PUBCHEM_BOND_DEF_STEREO_COUNT>  (1) 
0

>  <PUBCHEM_BOND_UDEF_STEREO_COUNT>  (1) 
0

>  <PUBCHEM_ISOTOPIC_ATOM_COUNT>  (1) 
0

>  <PUBCHEM_COMPONENT_COUNT>  (1) 
1

>  <PUBCHEM_CACTVS_TAUTO_COUNT>  (1) 
2

>  <PUBCHEM_CONFORMER_ID>  (1) 
0000778800000001

>  <PUBCHEM_MMFF94_ENERGY>  (1) 
47.4929

>  <PUBCHEM_FEATURE_SELFOVERLAP>  (1) 
35.52

>  <PUBCHEM_SHAPE_FINGERPRINT>  (1) 
10912923 1 18272931639698844147
11405975 8 18189609445559841437
12107183 9 17980201885556317777
12236239 1 18131070446143869264
12596602 18 18336276682571832481
12616971 3 18340765962103205307
12633257 1 18272932674606763879
12644460 14 18408038524839860752
12788726 201 17631746984169657729
13073987 5 18409172134360731915
13167823 11 18341892991481010263
13533116 47 18187651275532731131
13631057 29 17907292505072756751
13675066 3 17821450145052555397
13760787 19 18201721790168147581
13760787 5 18410852153409577967
13955234 65 18333729131135986520
14252887 29 17530963592283388092
14739800 52 17702929466089629520
15142526 21 17980193420629905992
15238133 3 17274825701266923729
15250474 111 18272639182291090575
17844677 252 18260547784263731821
1813 80 18194686969489086590
19026448 5 18343862221153818495
19050596 39 18130784534249878411
20281475 54 18341321262661752823
20645477 70 18041549287257539874
21065198 48 18342738537729720951
23503953 91 17988357079226783979
23532345 1 18334295413736375504
23557571 272 15913057551365505629
23559900 14 18335973195370868282
268830 7 18412822486799713189
300161 21 18273212010768927813
31174 14 18187638077747044334
312423 11 18337398140897083540
474 4 18191303995274509836
5104073 3 18343584049334234147
542803 24 18202289125647434661
573450 72 17988917860654224455
633830 44 18202006529314995295
67856867 119 18341322366790094968
8272917 22 18411423899471871622
9841814 1 18187919527022848010

>  <PUBCHEM_SHAPE_MULTIPOLES>  (1) 
360.54
13.16
2.51
1.26
6.99
0.36
-0.13
1.65
-4.21
-5.44
-0.52
1.06
-0.32
-2.72

>  <PUBCHEM_SHAPE_SELFOVERLAP>  (1) 
714.719

>  <PUBCHEM_SHAPE_VOLUME>  (1) 
217.1

>  <PUBCHEM_COORDINATE_TYPE>  (1) 
2
5
10

$$$$
