30609
     RDKit          3D

 17 18  0  0  0  0  0  0  0  0999 V2000
   -3.3768   -0.7741    1.4829 Cl  0  0  0  0  0  0  0  0  0  0  0  0
   -3.6685    1.6690   -0.0180 Cl  0  0  0  0  0  0  0  0  0  0  0  0
   -3.3858   -0.8241   -1.4433 Cl  0  0  0  0  0  0  0  0  0  0  0  0
    1.1582   -3.1035   -1.4434 Cl  0  0  0  0  0  0  0  0  0  0  0  0
    3.3136   -1.8437   -0.0032 Cl  0  0  0  0  0  0  0  0  0  0  0  0
    1.1625   -3.0648    1.4831 Cl  0  0  0  0  0  0  0  0  0  0  0  0
    1.2104    2.6713   -0.0558 N   0  0  0  0  0  0  0  0  0  0  0  0
    1.3742    0.3272   -0.0249 N   0  0  0  0  0  0  0  0  0  0  0  0
   -0.7694    1.4056   -0.0268 N   0  0  0  0  0  0  0  0  0  0  0  0
   -0.6315   -0.9897    0.0046 N   0  0  0  0  0  0  0  0  0  0  0  0
    2.5205    2.8434   -0.6967 C   0  0  0  0  0  0  0  0  0  0  0  0
    2.3893    2.9334    0.7800 C   0  0  0  0  0  0  0  0  0  0  0  0
    0.5734    1.4051   -0.0347 C   0  0  0  0  0  0  0  0  0  0  0  0
    0.7024   -0.8352   -0.0053 C   0  0  0  0  0  0  0  0  0  0  0  0
   -1.3024    0.1734   -0.0072 C   0  0  0  0  0  0  0  0  0  0  0  0
   -2.7906    0.0879    0.0023 C   0  0  0  0  0  0  0  0  0  0  0  0
    1.5206   -2.0812    0.0065 C   0  0  0  0  0  0  0  0  0  0  0  0
  1 16  1  0
  2 16  1  0
  3 16  1  0
  4 17  1  0
  5 17  1  0
  6 17  1  0
  7 11  1  0
  7 12  1  0
  7 13  1  0
  8 13  2  0
  8 14  1  0
  9 13  1  0
  9 15  2  0
 10 14  2  0
 10 15  1  0
 11 12  1  0
 14 17  1  0
 15 16  1  0
M  END
>  <PUBCHEM_COMPOUND_CID>  (1) 
30609

>  <PUBCHEM_CONFORMER_RMSD>  (1) 
0.6

>  <PUBCHEM_CONFORMER_DIVERSEORDER>  (1) 
1
5
3
2
4

>  <PUBCHEM_MMFF94_PARTIAL_CHARGES>  (1) 
21
1 -0.29
10 -0.62
11 -0.03
12 -0.03
13 0.72
14 0.48
15 0.48
16 1.01
17 1.01
18 0.1
19 0.1
2 -0.29
20 0.1
21 0.1
3 -0.29
4 -0.29
5 -0.29
6 -0.29
7 -0.44
8 -0.62
9 -0.62

>  <PUBCHEM_EFFECTIVE_ROTOR_COUNT>  (1) 
3.6

>  <PUBCHEM_PHARMACOPHORE_FEATURES>  (1) 
2
4 7 8 9 13 cation
6 8 9 10 13 14 15 rings

>  <PUBCHEM_HEAVY_ATOM_COUNT>  (1) 
17

>  <PUBCHEM_ATOM_DEF_STEREO_COUNT>  (1) 
0

>  <PUBCHEM_ATOM_UDEF_STEREO_COUNT>  (1) 
0

>  <PUBCHEM_BOND_DEF_STEREO_COUNT>  (1) 
0

>  <PUBCHEM_BOND_UDEF_STEREO_COUNT>  (1) 
0

>  <PUBCHEM_ISOTOPIC_ATOM_COUNT>  (1) 
0

>  <PUBCHEM_COMPONENT_COUNT>  (1) 
1

>  <PUBCHEM_CACTVS_TAUTO_COUNT>  (1) 
1

>  <PUBCHEM_CONFORMER_ID>  (1) 
0000779100000001

>  <PUBCHEM_MMFF94_ENERGY>  (1) 
48.4372

>  <PUBCHEM_FEATURE_SELFOVERLAP>  (1) 
10.148

>  <PUBCHEM_SHAPE_FINGERPRINT>  (1) 
108231 29 18189631466063091658
116883 192 17405709181593625998
12553582 1 18121775024292371043
12707595 3 18263936436193276691
12759256 9 18413108350969366655
12788726 201 17471576520956727090
13140716 1 18337673130124810138
13380535 76 18121210154419639368
13681431 1 18340209566100825816
14022347 108 17690299109474865415
14648413 74 18408886200881173545
15042514 8 17471012952685926432
15309172 13 18049163564293925073
16752209 62 17257921028260617060
16945 1 18411136956658940663
18186145 218 17914348010831870992
19591789 44 18122638407313291838
20510252 161 17115783315899645376
20600515 1 17823987723284533406
20645476 183 17317887206886498676
20645477 70 18411409636165219167
20711985 344 17258228366992749359
21041028 32 18268448848940415193
21524375 3 18123466343589674384
2255824 54 18411979165386045511
2334 1 18051131689769631108
23419403 2 17680673018327976052
23557571 272 17762903165266250174
23598291 2 18202282502939583981
2748010 2 18120385512061354614
305870 269 18339079409892429513
3071541 12 18410857654920221316
3071541 158 18262800644644331764
3071541 236 17616235323080069904
3091708 16 9650022676411673808
34934 24 18122057602959398351
352729 6 17688873459210094596
4175511 71 17981620272957355565
43471831 8 18193272120628714769
458136 41 18120958323212474673
6992083 37 17699293166266519067
7364860 26 18413388726344739708
81228 2 17475237898956091344
84936 182 18201995581607349113
90316 7 17689420599372867539

>  <PUBCHEM_SHAPE_MULTIPOLES>  (1) 
341.15
5.6
4.23
1.24
4.46
1.64
-0.04
-0.38
0
-4.58
-0.03
0.37
-0.92
0

>  <PUBCHEM_SHAPE_SELFOVERLAP>  (1) 
649.278

>  <PUBCHEM_SHAPE_VOLUME>  (1) 
206.2

>  <PUBCHEM_COORDINATE_TYPE>  (1) 
2
5
10

$$$$
