30607
     RDKit          3D

 23 26  0  0  1  0  0  0  0  0999 V2000
   -0.9836    1.7650   -0.9033 O   0  0  0  0  0  0  0  0  0  0  0  0
   -0.4849   -3.0267   -0.5082 O   0  0  0  0  0  0  0  0  0  0  0  0
   -3.1426    0.5372   -0.6391 C   0  0  0  0  0  0  0  0  0  0  0  0
   -3.8843    0.1666    0.6631 C   0  0  0  0  0  0  0  0  0  0  0  0
   -3.0294   -1.1118    0.7766 C   0  0  0  0  0  0  0  0  0  0  0  0
   -2.3906   -0.8088   -0.5948 C   0  0  0  0  0  0  0  0  0  0  0  0
   -2.2993    1.7797   -0.3208 C   0  0  0  0  0  0  0  0  0  0  0  0
   -3.5880    1.2830    1.6602 C   0  0  0  0  0  0  0  0  0  0  0  0
   -2.2424    1.8436    1.2144 C   0  0  0  0  0  0  0  0  0  0  0  0
   -0.8379   -0.6617   -0.6932 C   0  0  0  0  0  0  0  0  0  0  0  0
   -3.9044   -2.3537    0.7124 C   0  0  0  0  0  0  0  0  0  0  0  0
   -2.0963   -1.2468    1.9613 C   0  0  0  0  0  0  0  0  0  0  0  0
   -2.9993    3.0203   -0.8903 C   0  0  0  0  0  0  0  0  0  0  0  0
   -0.2493    0.6064   -0.8464 C   0  0  0  0  0  0  0  0  0  0  0  0
    0.0289   -1.7695   -0.6571 C   0  0  0  0  0  0  0  0  0  0  0  0
    1.1343    0.7571   -0.9880 C   0  0  0  0  0  0  0  0  0  0  0  0
    1.4123   -1.6239   -0.7801 C   0  0  0  0  0  0  0  0  0  0  0  0
    1.9645   -0.3591   -0.9498 C   0  0  0  0  0  0  0  0  0  0  0  0
    3.4400   -0.1992   -1.0908 C   0  0  0  0  0  0  0  0  0  0  0  0
    4.1884    0.0038    0.2397 C   0  0  0  0  0  0  0  0  0  0  0  0
    5.6912    0.2298    0.0471 C   0  0  0  0  0  0  0  0  0  0  0  0
    6.3935    0.4527    1.3871 C   0  0  0  0  0  0  0  0  0  0  0  0
    7.8791    0.7161    1.2000 C   0  0  0  0  0  0  0  0  0  0  0  0
  1  7  1  0
  1 14  1  0
  2 15  1  0
  3  4  1  0
  3  6  1  0
  3  7  1  0
  4  5  1  0
  4  8  1  0
  5  6  1  0
  5 11  1  0
  5 12  1  0
  6 10  1  0
  7  9  1  0
  7 13  1  0
  8  9  1  0
 10 14  2  0
 10 15  1  0
 14 16  1  0
 15 17  2  0
 16 18  2  0
 17 18  1  0
 18 19  1  0
 19 20  1  0
 20 21  1  0
 21 22  1  0
 22 23  1  0
M  END
>  <PUBCHEM_COMPOUND_CID>  (1) 
30607

>  <PUBCHEM_CONFORMER_RMSD>  (1) 
0.8

>  <PUBCHEM_CONFORMER_DIVERSEORDER>  (1) 
1
34
55
11
16
65
33
51
7
43
17
35
67
38
71
62
5
9
8
50
15
58
3
14
72
28
21
20
39
70
41
54
49
53
32
61
37
60
59
46
64
12
42
6
36
63
22
30
66
40
56
10
57
24
2
48
13
4
47
31
45
69
52
18
68
23
44
26
27
19
25
29

>  <PUBCHEM_MMFF94_PARTIAL_CHARGES>  (1) 
14
1 -0.36
10 -0.11
14 0.08
15 0.08
16 -0.15
17 -0.15
18 -0.14
19 0.14
2 -0.53
40 0.15
41 0.15
42 0.45
6 0.11
7 0.28

>  <PUBCHEM_EFFECTIVE_ROTOR_COUNT>  (1) 
4.8

>  <PUBCHEM_PHARMACOPHORE_FEATURES>  (1) 
9
1 1 acceptor
1 2 donor
1 23 hydrophobe
3 5 11 12 hydrophobe
4 19 20 21 22 hydrophobe
4 3 4 5 6 rings
6 1 3 6 7 10 14 rings
6 10 14 15 16 17 18 rings
7 3 4 5 6 7 8 9 rings

>  <PUBCHEM_HEAVY_ATOM_COUNT>  (1) 
23

>  <PUBCHEM_ATOM_DEF_STEREO_COUNT>  (1) 
0

>  <PUBCHEM_ATOM_UDEF_STEREO_COUNT>  (1) 
4

>  <PUBCHEM_BOND_DEF_STEREO_COUNT>  (1) 
0

>  <PUBCHEM_BOND_UDEF_STEREO_COUNT>  (1) 
0

>  <PUBCHEM_ISOTOPIC_ATOM_COUNT>  (1) 
0

>  <PUBCHEM_COMPONENT_COUNT>  (1) 
1

>  <PUBCHEM_CACTVS_TAUTO_COUNT>  (1) 
5

>  <PUBCHEM_CONFORMER_ID>  (1) 
0000778F00000001

>  <PUBCHEM_MMFF94_ENERGY>  (1) 
71.7567

>  <PUBCHEM_FEATURE_SELFOVERLAP>  (1) 
51.064

>  <PUBCHEM_SHAPE_FINGERPRINT>  (1) 
10 15 18340199787473298864
10319926 262 18336262341718526970
10675989 125 17185022870057927660
11132069 177 18263377931451333487
11315181 36 17530961406466852868
12035758 1 18115891624263084113
12390115 104 18201733816551641820
12403259 118 18113621162325686132
12403259 415 18271814463065687532
12596602 18 17894906378364186096
12633257 1 17823440277867391953
12670546 177 10663813079647258714
13140716 1 18051700137339726966
13288520 33 13695586650556141150
13690498 29 10447343446210516536
14142880 1 18201167551010218081
14178342 30 18264508229531365431
14844126 61 18114466772471697691
15099037 37 18260836998570724957
15183329 4 13039190299930084472
15209294 21 18130794425617284630
16945 1 18191048737094003141
17780758 139 17530682117501927912
1813 80 16081374004113219550
19377110 9 17531249504831916276
200 152 14851604388771066252
21033648 29 18343026554026149468
22182313 1 18268164075402434854
23198884 109 13973964320645077328
23419403 2 15910478170117083023
23559900 14 18119262662088182318
2748010 2 18122082926313488079
392239 28 18130515222372332008
484985 159 15646771214884291163
5104073 3 18340772533814826610
531348 171 12247418778049184708
543368 44 14045732751661821250
633830 44 16987729982592272190
7237137 82 11383828277559511264
9981440 41 18336264535718789371

>  <PUBCHEM_SHAPE_MULTIPOLES>  (1) 
461.59
12.43
2.55
1.53
33.35
0.08
-0.54
-3.31
-7.01
-3.36
0.25
-0.04
-0.13
1.08

>  <PUBCHEM_SHAPE_SELFOVERLAP>  (1) 
992.986

>  <PUBCHEM_SHAPE_VOLUME>  (1) 
258.5

>  <PUBCHEM_COORDINATE_TYPE>  (1) 
2
5
10

$$$$
