30610
     RDKit          3D

 21 23  0  0  1  0  0  0  0  0999 V2000
   -5.1350   -0.2139    0.1028 O   0  0  0  0  0  0  0  0  0  0  0  0
   -3.3664   -1.4129    0.9810 O   0  0  0  0  0  0  0  0  0  0  0  0
   -0.5821    2.4594   -0.0483 O   0  0  0  0  0  0  0  0  0  0  0  0
   -1.8325    0.5804   -0.6013 N   0  0  0  0  0  0  0  0  0  0  0  0
    0.4250    0.3508   -0.2899 N   0  0  0  0  0  0  0  0  0  0  0  0
   -3.0460    0.7909    0.1320 C   0  0  0  0  0  0  0  0  0  0  0  0
   -2.9215    1.2259   -1.2739 C   0  0  0  0  0  0  0  0  0  0  0  0
   -3.8344   -0.4081    0.4629 C   0  0  0  0  0  0  0  0  0  0  0  0
   -0.6420    1.2553   -0.2866 C   0  0  0  0  0  0  0  0  0  0  0  0
    1.7898    0.6143   -0.0336 C   0  0  0  0  0  0  0  0  0  0  0  0
    2.7605   -0.3998   -0.0794 C   0  0  0  0  0  0  0  0  0  0  0  0
    4.1123   -0.0762    0.1869 C   0  0  0  0  0  0  0  0  0  0  0  0
   -6.0167   -1.3094    0.3686 C   0  0  0  0  0  0  0  0  0  0  0  0
    2.1467    1.9284    0.2707 C   0  0  0  0  0  0  0  0  0  0  0  0
    2.4193   -1.7276   -0.3838 C   0  0  0  0  0  0  0  0  0  0  0  0
    4.4536    1.2519    0.4911 C   0  0  0  0  0  0  0  0  0  0  0  0
    3.4761    2.2466    0.5323 C   0  0  0  0  0  0  0  0  0  0  0  0
    5.0830   -1.0899    0.1410 C   0  0  0  0  0  0  0  0  0  0  0  0
   -7.4129   -0.9398   -0.0848 C   0  0  0  0  0  0  0  0  0  0  0  0
    3.3969   -2.7222   -0.4248 C   0  0  0  0  0  0  0  0  0  0  0  0
    4.7263   -2.4040   -0.1627 C   0  0  0  0  0  0  0  0  0  0  0  0
  1  8  1  0
  1 13  1  0
  2  8  2  0
  3  9  2  0
  4  6  1  0
  4  7  1  0
  4  9  1  0
  5  9  1  0
  5 10  1  0
  6  7  1  0
  6  8  1  0
 10 11  1  0
 10 14  2  0
 11 12  2  0
 11 15  1  0
 12 16  1  0
 12 18  1  0
 13 19  1  0
 14 17  1  0
 15 20  2  0
 16 17  2  0
 18 21  2  0
 20 21  1  0
M  END
>  <PUBCHEM_COMPOUND_CID>  (1) 
30610

>  <PUBCHEM_CONFORMER_RMSD>  (1) 
0.8

>  <PUBCHEM_CONFORMER_DIVERSEORDER>  (1) 
1
42
159
211
182
195
19
2
74
24
128
103
166
102
56
243
144
28
123
228
116
172
104
153
62
136
132
27
90
46
140
38
216
217
250
220
110
81
224
235
6
175
9
239
202
30
50
59
75
212
10
155
106
63
242
183
227
168
11
16
21
108
64
94
193
142
218
86
138
26
163
105
82
88
13
14
152
170
203
181
58
226
37
204
173
48
177
20
96
131
113
244
98
49
83
219
67
51
171
111
165
179
206
148
184
40
29
25
156
135
93
101
41
71
223
117
34
233
225
241
120
23
68
70
167
146
73
150
186
198
95
207
158
18
87
209
213
77
205
121
215
238
185
45
190
151
79
118
35
33
161
107
234
196
43
187
143
200
133
149
65
194
69
55
201
97
162
100
99
210
115
8
192
189
22
60
154
36
221
145
246
199
44
7
137
214
180
32
174
237
134
78
57
47
169
247
92
76
39
191
80
112
125
5
127
85
232
176
31
197
124
109
122
126
53
222
164
15
231
72
119
141
157
248
89
84
147
91
230
17
245
114
4
66
129
61
130
52
188
3
54
12
240
178
160
249
139
229
208
236

>  <PUBCHEM_MMFF94_PARTIAL_CHARGES>  (1) 
29
1 -0.43
10 0.12
13 0.28
14 -0.15
15 -0.15
16 -0.15
17 -0.15
18 -0.15
2 -0.57
20 -0.15
21 -0.15
22 0.1
23 0.1
24 0.1
25 0.37
28 0.15
29 0.15
3 -0.57
30 0.15
31 0.15
32 0.15
36 0.15
37 0.15
4 -0.36
5 -0.55
6 0.05
7 -0.05
8 0.72
9 0.69

>  <PUBCHEM_EFFECTIVE_ROTOR_COUNT>  (1) 
6.6

>  <PUBCHEM_PHARMACOPHORE_FEATURES>  (1) 
5
1 2 acceptor
1 3 acceptor
1 5 donor
6 10 11 12 14 16 17 rings
6 11 12 15 18 20 21 rings

>  <PUBCHEM_HEAVY_ATOM_COUNT>  (1) 
21

>  <PUBCHEM_ATOM_DEF_STEREO_COUNT>  (1) 
0

>  <PUBCHEM_ATOM_UDEF_STEREO_COUNT>  (1) 
1

>  <PUBCHEM_BOND_DEF_STEREO_COUNT>  (1) 
0

>  <PUBCHEM_BOND_UDEF_STEREO_COUNT>  (1) 
0

>  <PUBCHEM_ISOTOPIC_ATOM_COUNT>  (1) 
0

>  <PUBCHEM_COMPONENT_COUNT>  (1) 
1

>  <PUBCHEM_CACTVS_TAUTO_COUNT>  (1) 
2

>  <PUBCHEM_CONFORMER_ID>  (1) 
0000779200000001

>  <PUBCHEM_MMFF94_ENERGY>  (1) 
67.101

>  <PUBCHEM_FEATURE_SELFOVERLAP>  (1) 
25.398

>  <PUBCHEM_SHAPE_FINGERPRINT>  (1) 
10835480 77 18336537274969916437
108634 29 17968105260681198706
114674 6 18334014982284114194
11552529 35 17916868070355842363
12107183 9 17840602396378780609
12596602 18 16701737267190492475
12623949 98 18200886084212018462
12730499 353 18339924917803043216
13402501 40 18334580148361506219
13533116 47 18272372001191530185
13551218 46 18412827988969570895
13685833 64 18335424578087310579
13955234 65 18272361019129368896
14341114 176 18342741818599386376
14386348 63 18261112984748114155
15183329 4 15213013848358453759
15196674 1 18410293571058062365
15352361 1 18408888416857438331
15483637 11 18050566545453126719
15537594 2 18131068272716357796
15961568 22 17022906804567221668
17492 89 18269554931984068278
1768 124 18271246127340133431
17844677 252 18341055142225170025
1813 80 17530686510916043853
18222031 100 17022621983219525677
19141452 34 18338237180407835135
20028762 73 18272930505438160206
20261772 1 18131627876969694958
20403669 9 18334297548060970971
20645477 70 18409163303596793120
21033650 10 16516247306148257101
21049683 271 18409172117550881388
21065198 48 18130797750096422185
21197605 99 18269276944431897823
21267235 1 18271528603149140878
21279426 13 18261948554099357717
21623969 137 18412825793645053654
221357 26 18408041792793268139
221490 88 18339079281633832108
22224240 67 18200024196282425104
23557571 272 17676480644721083933
23559900 14 18334288738961792532
239999 70 18113616819986765736
2871803 45 18040433287271199467
3004659 81 17967253100229551127
314194 84 18271522104509947181
33824 294 18411697699579290746
3421961 26 18412545418301251160
4325135 7 17749674081889314228
46194498 28 17821729472245269596
465052 167 18272373057458332886
5104073 3 18271518685558114456
9709674 26 18334296474128814186

>  <PUBCHEM_SHAPE_MULTIPOLES>  (1) 
404.6
15.01
2.67
0.8
23.33
0.35
-0.07
8.13
1.59
-3.1
-0.05
0.32
-0.05
1.3

>  <PUBCHEM_SHAPE_SELFOVERLAP>  (1) 
868.946

>  <PUBCHEM_SHAPE_VOLUME>  (1) 
224.1

>  <PUBCHEM_COORDINATE_TYPE>  (1) 
2
5
10

$$$$
