30619
     RDKit          3D

 11 11  0  0  0  0  0  0  0  0999 V2000
    0.0800   -2.1881    0.0123 O   0  0  0  0  0  0  0  0  0  0  0  0
    1.5500    0.2342   -0.0047 N   0  0  0  0  0  0  0  0  0  0  0  0
    0.0195    0.2086    0.0000 C   0  0  0  0  0  0  0  0  0  0  0  0
    2.0164    1.6871   -0.0137 C   0  0  0  0  0  0  0  0  0  0  0  0
    2.0496   -0.5044   -1.2433 C   0  0  0  0  0  0  0  0  0  0  0  0
    2.1425   -0.4482    1.2265 C   0  0  0  0  0  0  0  0  0  0  0  0
   -0.5896   -1.0013    0.0082 C   0  0  0  0  0  0  0  0  0  0  0  0
   -0.6009    1.4147   -0.0046 C   0  0  0  0  0  0  0  0  0  0  0  0
   -1.9844   -1.0078    0.0122 C   0  0  0  0  0  0  0  0  0  0  0  0
   -1.9957    1.4082   -0.0006 C   0  0  0  0  0  0  0  0  0  0  0  0
   -2.6875    0.1970    0.0076 C   0  0  0  0  0  0  0  0  0  0  0  0
  1  7  1  0
  2  3  1  0
  2  4  1  0
  2  5  1  0
  2  6  1  0
  3  7  2  0
  3  8  1  0
  7  9  1  0
  8 10  2  0
  9 11  2  0
 10 11  1  0
M  CHG  1   2   1
M  END
>  <PUBCHEM_COMPOUND_CID>  (1) 
30619

>  <PUBCHEM_CONFORMER_RMSD>  (1) 
0.4

>  <PUBCHEM_CONFORMER_DIVERSEORDER>  (1) 
1
2

>  <PUBCHEM_MMFF94_PARTIAL_CHARGES>  (1) 
16
1 -0.53
10 -0.15
11 -0.15
2 -0.87
21 0.15
22 0.15
23 0.15
24 0.15
25 0.45
3 0.36
4 0.5
5 0.5
6 0.5
7 0.08
8 -0.15
9 -0.15

>  <PUBCHEM_EFFECTIVE_ROTOR_COUNT>  (1) 
1

>  <PUBCHEM_PHARMACOPHORE_FEATURES>  (1) 
3
1 1 donor
1 2 cation
6 3 7 8 9 10 11 rings

>  <PUBCHEM_HEAVY_ATOM_COUNT>  (1) 
11

>  <PUBCHEM_ATOM_DEF_STEREO_COUNT>  (1) 
0

>  <PUBCHEM_ATOM_UDEF_STEREO_COUNT>  (1) 
0

>  <PUBCHEM_BOND_DEF_STEREO_COUNT>  (1) 
0

>  <PUBCHEM_BOND_UDEF_STEREO_COUNT>  (1) 
0

>  <PUBCHEM_ISOTOPIC_ATOM_COUNT>  (1) 
0

>  <PUBCHEM_COMPONENT_COUNT>  (1) 
1

>  <PUBCHEM_CACTVS_TAUTO_COUNT>  (1) 
3

>  <PUBCHEM_CONFORMER_ID>  (1) 
0000779B00000001

>  <PUBCHEM_MMFF94_ENERGY>  (1) 
55.3737

>  <PUBCHEM_FEATURE_SELFOVERLAP>  (1) 
15.223

>  <PUBCHEM_SHAPE_FINGERPRINT>  (1) 
12423570 1 12391246958423155794
12524768 44 18269279130379392493
12897270 3 18410296887047212613
12932764 1 17967535657664848285
15775835 57 18113902641175071532
16945 1 18338517426527747629
18185500 45 17974283532143606482
19973954 147 18342182171497194045
20645464 45 18059564802463404096
20871998 184 17912367833344778655
21040471 1 18266459810861995917
23552423 10 18261114114002655678
23559900 14 18055644915495411702
241688 4 17329713115498531771
2748010 2 18338237171284916845
29004967 10 16487254369818115496
369184 2 18041270041310593337
5084963 1 18060145309979413097

>  <PUBCHEM_SHAPE_MULTIPOLES>  (1) 
215.52
3.51
1.82
0.89
0.29
0.08
-0.01
-0.46
0.04
0.05
-0.01
-0.61
0.14
0.01

>  <PUBCHEM_SHAPE_SELFOVERLAP>  (1) 
441.52

>  <PUBCHEM_SHAPE_VOLUME>  (1) 
127.1

>  <PUBCHEM_COORDINATE_TYPE>  (1) 
2
5
10

$$$$
