30611
     RDKit          3D

 22 24  0  0  1  0  0  0  0  0999 V2000
    0.6972    2.6220    1.4059 O   0  0  0  0  0  0  0  0  0  0  0  0
    4.1252    0.9304   -1.2610 O   0  0  0  0  0  0  0  0  0  0  0  0
   -0.5183    0.4175   -1.2587 O   0  0  0  0  0  0  0  0  0  0  0  0
    2.3897    1.8280    0.0137 N   0  0  0  0  0  0  0  0  0  0  0  0
   -1.7638    0.0730    0.7078 N   0  0  0  0  0  0  0  0  0  0  0  0
    0.6040    0.3186    0.8320 C   0  0  0  0  0  0  0  0  0  0  0  0
    1.5275   -0.8140    0.4914 C   0  0  0  0  0  0  0  0  0  0  0  0
    2.7227   -0.5980   -0.1926 C   0  0  0  0  0  0  0  0  0  0  0  0
    1.2384    1.6918    0.8015 C   0  0  0  0  0  0  0  0  0  0  0  0
    3.1402    0.7742   -0.5412 C   0  0  0  0  0  0  0  0  0  0  0  0
   -0.6135    0.2771   -0.0438 C   0  0  0  0  0  0  0  0  0  0  0  0
    1.1699   -2.1300    0.8313 C   0  0  0  0  0  0  0  0  0  0  0  0
    3.5476   -1.6784   -0.5374 C   0  0  0  0  0  0  0  0  0  0  0  0
    2.9070    3.1743   -0.2100 C   0  0  0  0  0  0  0  0  0  0  0  0
    1.9910   -3.2050    0.4923 C   0  0  0  0  0  0  0  0  0  0  0  0
    3.1795   -2.9787   -0.1942 C   0  0  0  0  0  0  0  0  0  0  0  0
   -3.0945   -0.0232    0.2363 C   0  0  0  0  0  0  0  0  0  0  0  0
   -4.1212   -0.2289    1.1429 C   0  0  0  0  0  0  0  0  0  0  0  0
   -3.3422    0.0901   -1.1217 C   0  0  0  0  0  0  0  0  0  0  0  0
   -5.4329   -0.3241    0.6782 C   0  0  0  0  0  0  0  0  0  0  0  0
   -4.6541   -0.0048   -1.5864 C   0  0  0  0  0  0  0  0  0  0  0  0
   -5.6994   -0.2118   -0.6864 C   0  0  0  0  0  0  0  0  0  0  0  0
  1  9  2  0
  2 10  2  0
  3 11  2  0
  4  9  1  0
  4 10  1  0
  4 14  1  0
  5 11  1  0
  5 17  1  0
  6  7  1  0
  6  9  1  0
  6 11  1  0
  7  8  2  0
  7 12  1  0
  8 10  1  0
  8 13  1  0
 12 15  2  0
 13 16  2  0
 15 16  1  0
 17 18  2  0
 17 19  1  0
 18 20  1  0
 19 21  2  0
 20 22  2  0
 21 22  1  0
M  END
>  <PUBCHEM_COMPOUND_CID>  (1) 
30611

>  <PUBCHEM_CONFORMER_RMSD>  (1) 
0.6

>  <PUBCHEM_CONFORMER_DIVERSEORDER>  (1) 
2
7
13
14
1
8
6
5
12
10
3
4
9
11

>  <PUBCHEM_MMFF94_PARTIAL_CHARGES>  (1) 
32
1 -0.57
10 0.54
11 0.57
12 -0.15
13 -0.15
14 0.3
15 -0.15
16 -0.15
17 0.12
18 -0.15
19 -0.15
2 -0.57
20 -0.15
21 -0.15
22 -0.15
24 0.15
25 0.15
29 0.15
3 -0.57
30 0.37
31 0.15
32 0.15
33 0.15
34 0.15
35 0.15
36 0.15
4 -0.42
5 -0.55
6 0.27
7 -0.14
8 0.09
9 0.57

>  <PUBCHEM_EFFECTIVE_ROTOR_COUNT>  (1) 
3.4

>  <PUBCHEM_PHARMACOPHORE_FEATURES>  (1) 
8
1 1 acceptor
1 2 acceptor
1 3 acceptor
1 5 donor
1 6 anion
6 17 18 19 20 21 22 rings
6 4 6 7 8 9 10 rings
6 7 8 12 13 15 16 rings

>  <PUBCHEM_HEAVY_ATOM_COUNT>  (1) 
22

>  <PUBCHEM_ATOM_DEF_STEREO_COUNT>  (1) 
0

>  <PUBCHEM_ATOM_UDEF_STEREO_COUNT>  (1) 
1

>  <PUBCHEM_BOND_DEF_STEREO_COUNT>  (1) 
0

>  <PUBCHEM_BOND_UDEF_STEREO_COUNT>  (1) 
0

>  <PUBCHEM_ISOTOPIC_ATOM_COUNT>  (1) 
0

>  <PUBCHEM_COMPONENT_COUNT>  (1) 
1

>  <PUBCHEM_CACTVS_TAUTO_COUNT>  (1) 
2

>  <PUBCHEM_CONFORMER_ID>  (1) 
0000779300000002

>  <PUBCHEM_MMFF94_ENERGY>  (1) 
63.7174

>  <PUBCHEM_FEATURE_SELFOVERLAP>  (1) 
40.619

>  <PUBCHEM_SHAPE_FINGERPRINT>  (1) 
10498660 4 16370998565029053247
10693767 8 18201729410147708254
11552529 35 17986396814016002723
12107183 9 17838345077769412321
12236239 1 17632583751067403569
12553582 1 18199462182220560175
12730499 353 18262245524516121515
12895836 83 17535768600295479652
13009979 54 17630616613090998754
13167823 11 18272930540519805327
13533116 47 18342173389280714283
13583140 156 18341048640240347855
13675066 3 12679456487383828855
13911882 115 17896336864213701203
13955234 65 18410009957203541034
14863182 85 18343014468146823742
15961568 22 16298676078266057804
17818456 19 17415570809316682897
17844677 252 18409452454070620901
1813 80 17916027862840801006
18681886 176 16343703295674451404
19078846 21 17775289309676299633
19784866 140 18200609011702924988
20388580 30 18341050697002415110
20645477 70 18335417954820634539
21452121 199 18046333146734036458
221357 26 18335978667433464549
2255824 54 18343298197279173146
23557571 272 17022904553882219781
23559900 14 17749107773065641423
23596394 208 18113333077209274295
238 59 18409731793752344226
2838139 119 16590007155235213084
3060560 45 18336265738583756876
312423 11 18272657809885324409
3323516 105 18260270732839533283
341906 21 15285628885879716287
34797466 226 17168153364363881127
46194498 28 17822296794591026943
495365 180 18339355391679607688
5281201 14 18259982639655674021
543358 83 18338801096227536913
59682541 52 18194936623316254751
633830 44 18200324341139099205
7164475 11 18198067975965056504
7471813 234 18270675351507236634
7970288 3 18055915394269875735
8272917 22 18411986866388845253
960060 61 18411410696874272807
9981440 41 15976916309932612680

>  <PUBCHEM_SHAPE_MULTIPOLES>  (1) 
425.18
10.23
2.99
1.24
15.52
0.17
-0.12
1.44
-2.51
-5.48
0.51
0.78
-0.19
-0.02

>  <PUBCHEM_SHAPE_SELFOVERLAP>  (1) 
933.949

>  <PUBCHEM_SHAPE_VOLUME>  (1) 
227.3

>  <PUBCHEM_COORDINATE_TYPE>  (1) 
2
5
10

$$$$
