30617
     RDKit          3D

 10 10  0  0  0  0  0  0  0  0999 V2000
    1.7039    1.3873   -0.2168 S   0  0  0  0  0  0  0  0  0  0  0  0
   -2.2473    1.3406    0.3913 O   0  0  0  0  0  0  0  0  0  0  0  0
   -1.4760   -0.6186   -0.6016 N   0  0  0  0  0  0  0  0  0  0  0  0
   -0.3712   -0.0461   -1.3364 C   0  0  0  0  0  0  0  0  0  0  0  0
    0.9075   -0.0784   -0.5420 C   0  0  0  0  0  0  0  0  0  0  0  0
    1.5389   -1.1696   -0.0281 C   0  0  0  0  0  0  0  0  0  0  0  0
    2.7276   -0.7981    0.6641 C   0  0  0  0  0  0  0  0  0  0  0  0
   -2.3203    0.1294    0.2011 C   0  0  0  0  0  0  0  0  0  0  0  0
    2.9372    0.5631    0.6388 C   0  0  0  0  0  0  0  0  0  0  0  0
   -3.4004   -0.7096    0.8296 C   0  0  0  0  0  0  0  0  0  0  0  0
  1  5  1  0
  1  9  1  0
  2  8  2  0
  3  4  1  0
  3  8  1  0
  4  5  1  0
  5  6  2  0
  6  7  1  0
  7  9  2  0
  8 10  1  0
M  END
>  <PUBCHEM_COMPOUND_CID>  (1) 
30617

>  <PUBCHEM_CONFORMER_RMSD>  (1) 
0.6

>  <PUBCHEM_CONFORMER_DIVERSEORDER>  (1) 
1
8
10
12
4
2
9
7
3
11
5
6

>  <PUBCHEM_MMFF94_PARTIAL_CHARGES>  (1) 
14
1 -0.08
10 0.06
13 0.37
14 0.15
15 0.15
16 0.15
2 -0.57
3 -0.73
4 0.48
5 -0.14
6 -0.15
7 -0.15
8 0.57
9 -0.11

>  <PUBCHEM_EFFECTIVE_ROTOR_COUNT>  (1) 
3

>  <PUBCHEM_PHARMACOPHORE_FEATURES>  (1) 
3
1 2 acceptor
1 3 donor
5 1 5 6 7 9 rings

>  <PUBCHEM_HEAVY_ATOM_COUNT>  (1) 
10

>  <PUBCHEM_ATOM_DEF_STEREO_COUNT>  (1) 
0

>  <PUBCHEM_ATOM_UDEF_STEREO_COUNT>  (1) 
0

>  <PUBCHEM_BOND_DEF_STEREO_COUNT>  (1) 
0

>  <PUBCHEM_BOND_UDEF_STEREO_COUNT>  (1) 
0

>  <PUBCHEM_ISOTOPIC_ATOM_COUNT>  (1) 
0

>  <PUBCHEM_COMPONENT_COUNT>  (1) 
1

>  <PUBCHEM_CACTVS_TAUTO_COUNT>  (1) 
2

>  <PUBCHEM_CONFORMER_ID>  (1) 
0000779900000001

>  <PUBCHEM_MMFF94_ENERGY>  (1) 
8.5253

>  <PUBCHEM_FEATURE_SELFOVERLAP>  (1) 
15.223

>  <PUBCHEM_SHAPE_FINGERPRINT>  (1) 
10149128 111 15841559586664559427
10857977 72 17167856482627374822
11031198 65 13182751363270997253
12251169 10 18408882970701685490
12696612 119 18410294730836674820
12932764 1 17846494841946926150
13764800 53 15984833687269254515
14128692 85 11746935369650637492
14390081 3 14476962281084769827
15775835 57 17632294622348195320
20281407 28 16877939399951850738
20361792 2 15285361734281418279
20653085 51 12031790288017975927
20653091 64 18041002847232069032
20711985 344 14346338057705711895
21028194 46 16988847167857587567
21119208 17 9151179752663564115
230 275 16702307814761536640
29004967 10 17968084297050736596

>  <PUBCHEM_SHAPE_MULTIPOLES>  (1) 
198.79
5.26
1.3
1.03
2.46
0.2
0.18
-0.47
-2.04
-0.36
-0.12
0.12
-0.02
-0.02

>  <PUBCHEM_SHAPE_SELFOVERLAP>  (1) 
387.229

>  <PUBCHEM_SHAPE_VOLUME>  (1) 
121

>  <PUBCHEM_COORDINATE_TYPE>  (1) 
2
5
10

$$$$
