30623
     RDKit          3D

 19 20  0  0  1  0  0  0  0  0999 V2000
   -5.0601    1.5744   -0.7511 O   0  0  0  0  0  0  0  0  0  0  0  0
   -3.8142   -2.5024    0.9804 O   0  0  0  0  0  0  0  0  0  0  0  0
    3.9325    1.9126    1.6423 O   0  0  0  0  0  0  0  0  0  0  0  0
    5.0167   -1.4701   -1.2821 O   0  0  0  0  0  0  0  0  0  0  0  0
   -1.8533    0.1568   -0.2825 N   0  0  0  0  0  0  0  0  0  0  0  0
    1.8655   -0.1861   -0.3157 N   0  0  0  0  0  0  0  0  0  0  0  0
   -4.4382   -0.4777    0.0832 N   0  0  0  0  0  0  0  0  0  0  0  0
    4.4754    0.2439    0.1543 N   0  0  0  0  0  0  0  0  0  0  0  0
   -0.4632    0.6094   -0.2170 C   0  0  0  0  0  0  0  0  0  0  0  0
    0.4632   -0.6035   -0.3527 C   0  0  0  0  0  0  0  0  0  0  0  0
   -2.7616    1.2949   -0.1399 C   0  0  0  0  0  0  0  0  0  0  0  0
   -2.1116   -0.8323    0.7645 C   0  0  0  0  0  0  0  0  0  0  0  0
   -0.2303    1.6412   -1.3206 C   0  0  0  0  0  0  0  0  0  0  0  0
    2.1745    0.4297    0.9752 C   0  0  0  0  0  0  0  0  0  0  0  0
    2.7401   -1.3352   -0.5516 C   0  0  0  0  0  0  0  0  0  0  0  0
   -4.1841    0.8230   -0.3232 C   0  0  0  0  0  0  0  0  0  0  0  0
   -3.5145   -1.3683    0.6077 C   0  0  0  0  0  0  0  0  0  0  0  0
    3.5903    0.9539    0.9505 C   0  0  0  0  0  0  0  0  0  0  0  0
    4.1730   -0.8642   -0.6217 C   0  0  0  0  0  0  0  0  0  0  0  0
  1 16  2  0
  2 17  2  0
  3 18  2  0
  4 19  2  0
  5  9  1  0
  5 11  1  0
  5 12  1  0
  6 10  1  0
  6 14  1  0
  6 15  1  0
  7 16  1  0
  7 17  1  0
  8 18  1  0
  8 19  1  0
  9 10  1  0
  9 13  1  0
 11 16  1  0
 12 17  1  0
 14 18  1  0
 15 19  1  0
M  END
>  <PUBCHEM_COMPOUND_CID>  (1) 
30623

>  <PUBCHEM_CONFORMER_RMSD>  (1) 
0.6

>  <PUBCHEM_CONFORMER_DIVERSEORDER>  (1) 
1
24
18
9
17
13
7
21
16
4
3
22
2
12
5
20
19
8
10
6
14
11
15
23

>  <PUBCHEM_MMFF94_PARTIAL_CHARGES>  (1) 
20
1 -0.57
10 0.27
11 0.33
12 0.33
14 0.33
15 0.33
16 0.57
17 0.57
18 0.57
19 0.57
2 -0.57
3 -0.57
34 0.37
35 0.37
4 -0.57
5 -0.81
6 -0.81
7 -0.49
8 -0.49
9 0.27

>  <PUBCHEM_EFFECTIVE_ROTOR_COUNT>  (1) 
4.6

>  <PUBCHEM_PHARMACOPHORE_FEATURES>  (1) 
10
1 1 acceptor
1 2 acceptor
1 3 acceptor
1 4 acceptor
1 5 cation
1 6 cation
1 7 donor
1 8 donor
6 5 7 11 12 16 17 rings
6 6 8 14 15 18 19 rings

>  <PUBCHEM_HEAVY_ATOM_COUNT>  (1) 
19

>  <PUBCHEM_ATOM_DEF_STEREO_COUNT>  (1) 
0

>  <PUBCHEM_ATOM_UDEF_STEREO_COUNT>  (1) 
1

>  <PUBCHEM_BOND_DEF_STEREO_COUNT>  (1) 
0

>  <PUBCHEM_BOND_UDEF_STEREO_COUNT>  (1) 
0

>  <PUBCHEM_ISOTOPIC_ATOM_COUNT>  (1) 
0

>  <PUBCHEM_COMPONENT_COUNT>  (1) 
1

>  <PUBCHEM_CACTVS_TAUTO_COUNT>  (1) 
4

>  <PUBCHEM_CONFORMER_ID>  (1) 
0000779F00000001

>  <PUBCHEM_MMFF94_ENERGY>  (1) 
51.1289

>  <PUBCHEM_FEATURE_SELFOVERLAP>  (1) 
50.747

>  <PUBCHEM_SHAPE_FINGERPRINT>  (1) 
10366900 7 18270963436111444748
10912923 1 15719393944934806993
11045977 3 18413951676313770972
11132069 177 18186799175733482645
11370993 144 18059586758431270819
11405975 8 18341332210369782402
11471102 20 17917990560422090164
11552529 35 16700610332212869135
11615757 297 17060619996894682866
12236239 1 16153430528086566062
12403259 415 18413112778985482546
12507560 40 18343584070460676425
12553582 1 17240483611051515109
12616971 3 16056885727813884827
12788726 201 16733263422170363572
13544592 145 18338518538613203423
13583140 156 17917424388758036617
13675066 3 18341331179551166205
13760787 5 16774080678179450048
14289901 80 17775559853655085107
14386348 63 18410297990569055478
14573314 32 18413108346663713445
15219456 202 18343580759067226066
15242439 84 18340487772533577815
15375358 24 18410569578863243079
15880784 105 17632292406561977343
15961568 22 17896037805731149316
17834072 33 17489579086878534661
19026448 4 18341894108024502466
200 152 17060334098502479849
20281475 54 17530959189672929826
20645477 70 17703505511113206910
21033648 29 18130495401488787489
21065198 57 18413671300843354874
21065201 7 18187362129639064618
21682296 61 17130157394935343198
2215653 11 18341891844835220085
22854114 59 18131348639517587648
22943178 12 18413105056813554282
22959321 60 18341887541193807616
23402539 116 17822012003994775166
23532345 42 18187644747166571060
23557571 272 18334298686042265737
23559900 14 18335985285666740366
26918003 58 18342454824768964194
300161 21 16226045604447436558
3545911 37 18335986385267999767
474 4 15839834517788142114
5104073 3 18413107255726157850
542803 24 16153432726872483878
573450 72 17385997386497189955
602551 16 18113620122748220066
7495541 125 18412830179571391558
90127 26 18273214196574796849
9709674 26 18264210373401850835

>  <PUBCHEM_SHAPE_MULTIPOLES>  (1) 
347.61
11.12
1.92
1.16
0.43
0.29
-0.12
0.88
0.05
-0.93
-0.16
0.94
-0.21
2.43

>  <PUBCHEM_SHAPE_SELFOVERLAP>  (1) 
720.088

>  <PUBCHEM_SHAPE_VOLUME>  (1) 
196.9

>  <PUBCHEM_COORDINATE_TYPE>  (1) 
2
5
10

$$$$
