30622
     RDKit          3D

 12 11  0  0  0  0  0  0  0  0999 V2000
   -3.3101    0.5761   -0.0184 N   0  0  0  0  0  0  0  0  0  0  0  0
   -5.6147    0.8239   -0.0207 N   0  0  0  0  0  0  0  0  0  0  0  0
   -4.8028   -1.3059   -0.0097 N   0  0  0  0  0  0  0  0  0  0  0  0
    1.6415    0.4083    0.0760 C   0  0  0  0  0  0  0  0  0  0  0  0
    2.9140   -0.4435    0.0625 C   0  0  0  0  0  0  0  0  0  0  0  0
    0.3551   -0.4180    0.0155 C   0  0  0  0  0  0  0  0  0  0  0  0
    4.2006    0.3850    0.0481 C   0  0  0  0  0  0  0  0  0  0  0  0
   -0.8815    0.4826    0.0081 C   0  0  0  0  0  0  0  0  0  0  0  0
    5.4359   -0.5125   -0.0392 C   0  0  0  0  0  0  0  0  0  0  0  0
   -2.1659   -0.3366   -0.0134 C   0  0  0  0  0  0  0  0  0  0  0  0
    6.7164    0.3057   -0.0924 C   0  0  0  0  0  0  0  0  0  0  0  0
   -4.4885    0.0349   -0.0163 C   0  0  0  0  0  0  0  0  0  0  0  0
  1 10  1  0
  1 12  2  3
  2 12  1  0
  3 12  1  0
  4  5  1  0
  4  6  1  0
  5  7  1  0
  6  8  1  0
  7  9  1  0
  8 10  1  0
  9 11  1  0
M  END
>  <PUBCHEM_COMPOUND_CID>  (1) 
30622

>  <PUBCHEM_CONFORMER_RMSD>  (1) 
0.8

>  <PUBCHEM_CONFORMER_DIVERSEORDER>  (1) 
1
63
2
64
137
26
90
50
128
22
49
88
52
85
98
10
81
135
27
3
99
21
129
120
106
70
108
42
92
91
34
43
6
136
14
48
113
51
102
119
19
12
35
87
94
30
5
17
58
71
31
127
117
29
38
13
96
8
20
105
75
47
123
124
72
126
44
121
7
131
32
9
73
53
100
132
67
33
114
54
28
89
78
74
65
57
16
56
18
86
46
11
95
77
80
84
62
134
68
4
111
93
107
101
115
23
59
103
130
125
39
110
112
69
133
82
109
45
118
36
24
37
104
25
116
66
79
15
61
97
60
55
83
40
122
41
76

>  <PUBCHEM_MMFF94_PARTIAL_CHARGES>  (1) 
9
1 -0.7
10 0.25
12 0.55
2 -0.85
3 -0.85
30 0.4
31 0.4
32 0.4
33 0.4

>  <PUBCHEM_EFFECTIVE_ROTOR_COUNT>  (1) 
7

>  <PUBCHEM_PHARMACOPHORE_FEATURES>  (1) 
6
1 11 hydrophobe
1 2 donor
1 3 donor
3 4 6 8 hydrophobe
3 5 7 9 hydrophobe
4 1 2 3 12 cation

>  <PUBCHEM_HEAVY_ATOM_COUNT>  (1) 
12

>  <PUBCHEM_ATOM_DEF_STEREO_COUNT>  (1) 
0

>  <PUBCHEM_ATOM_UDEF_STEREO_COUNT>  (1) 
0

>  <PUBCHEM_BOND_DEF_STEREO_COUNT>  (1) 
0

>  <PUBCHEM_BOND_UDEF_STEREO_COUNT>  (1) 
0

>  <PUBCHEM_ISOTOPIC_ATOM_COUNT>  (1) 
0

>  <PUBCHEM_COMPONENT_COUNT>  (1) 
1

>  <PUBCHEM_CACTVS_TAUTO_COUNT>  (1) 
2

>  <PUBCHEM_CONFORMER_ID>  (1) 
0000779E00000001

>  <PUBCHEM_MMFF94_ENERGY>  (1) 
11.2726

>  <PUBCHEM_FEATURE_SELFOVERLAP>  (1) 
30.515

>  <PUBCHEM_SHAPE_FINGERPRINT>  (1) 
11287383 113 18341895220864085192
12091667 2 17603304851852601865
12815109 37 18410012130762901900
13533116 47 17023172796497338552
14123238 8 17457780089801332898
1420 363 17846785113306919774
14251718 22 18408604773059250346
17834072 33 18410856602974597540
17834076 25 16660082204805496912
20645477 70 18130229234208517022
20719005 15 18411699885448631922
20767249 213 15068345622833724222
23402539 116 18408600370686013229
23521765 1 18341894090839351812
366044 4 18334295370718312834
42788 4 18410855464860998472
4463277 17 18411136939822209672
57483677 66 18411697677788436726
8209 1 18411699881090439108

>  <PUBCHEM_SHAPE_MULTIPOLES>  (1) 
232.01
16.38
0.9
0.6
5.84
0.1
0
-0.37
0.45
-0.59
0
0.11
0
0

>  <PUBCHEM_SHAPE_SELFOVERLAP>  (1) 
418.993

>  <PUBCHEM_SHAPE_VOLUME>  (1) 
148.2

>  <PUBCHEM_COORDINATE_TYPE>  (1) 
2
5
10

$$$$
