30627
     RDKit          3D

 23 23  0  0  0  0  0  0  0  0999 V2000
   -0.3185   -2.8598   -1.0584 O   0  0  0  0  0  0  0  0  0  0  0  0
   -3.2291    0.9409    2.4154 O   0  0  0  0  0  0  0  0  0  0  0  0
   -3.8160    0.5938   -2.3249 O   0  0  0  0  0  0  0  0  0  0  0  0
   -4.5633    1.6891    0.1067 O   0  0  0  0  0  0  0  0  0  0  0  0
    6.4324    2.9440    0.1010 O   0  0  0  0  0  0  0  0  0  0  0  0
    6.6070    1.2357   -1.3852 O   0  0  0  0  0  0  0  0  0  0  0  0
    0.6206   -1.9434    0.8544 N   0  0  0  0  0  0  0  0  0  0  0  0
    3.3930   -0.8556    0.6496 C   0  0  0  0  0  0  0  0  0  0  0  0
    2.9446   -2.2262    0.1369 C   0  0  0  0  0  0  0  0  0  0  0  0
    4.5533   -0.2583   -0.1487 C   0  0  0  0  0  0  0  0  0  0  0  0
    1.7683   -2.8081    0.9127 C   0  0  0  0  0  0  0  0  0  0  0  0
    4.9516    1.1135    0.3956 C   0  0  0  0  0  0  0  0  0  0  0  0
   -0.3429   -2.0425   -0.1420 C   0  0  0  0  0  0  0  0  0  0  0  0
   -1.4538   -1.0582   -0.0768 C   0  0  0  0  0  0  0  0  0  0  0  0
    6.0729    1.7351   -0.4047 C   0  0  0  0  0  0  0  0  0  0  0  0
   -2.1241   -0.6846   -1.2417 C   0  0  0  0  0  0  0  0  0  0  0  0
   -1.8284   -0.5095    1.1496 C   0  0  0  0  0  0  0  0  0  0  0  0
   -2.8731    0.4127    1.2113 C   0  0  0  0  0  0  0  0  0  0  0  0
   -3.1689    0.2376   -1.1800 C   0  0  0  0  0  0  0  0  0  0  0  0
   -3.5434    0.7861    0.0465 C   0  0  0  0  0  0  0  0  0  0  0  0
   -2.4930    0.5060    3.5571 C   0  0  0  0  0  0  0  0  0  0  0  0
   -3.3711   -0.0133   -3.5363 C   0  0  0  0  0  0  0  0  0  0  0  0
   -4.2186    3.0649   -0.0378 C   0  0  0  0  0  0  0  0  0  0  0  0
  1 13  2  0
  2 18  1  0
  2 21  1  0
  3 19  1  0
  3 22  1  0
  4 20  1  0
  4 23  1  0
  5 15  1  0
  6 15  2  0
  7 11  1  0
  7 13  1  0
  8  9  1  0
  8 10  1  0
  9 11  1  0
 10 12  1  0
 12 15  1  0
 13 14  1  0
 14 16  2  0
 14 17  1  0
 16 19  1  0
 17 18  2  0
 18 20  1  0
 19 20  2  0
M  END
>  <PUBCHEM_COMPOUND_CID>  (1) 
30627

>  <PUBCHEM_CONFORMER_RMSD>  (1) 
1

>  <PUBCHEM_CONFORMER_DIVERSEORDER>  (1) 
2
16
56
14
12
30
29
17
64
8
27
7
46
19
11
52
42
21
47
40
1
66
58
67
23
5
10
25
37
9
4
44
48
39
65
50
54
33
69
34
70
6
18
36
41
53
60
61
51
55
45
35
22
43
38
59
15
3
68
63
13
26
20
49
28
57
32
31
24
62

>  <PUBCHEM_MMFF94_PARTIAL_CHARGES>  (1) 
24
1 -0.57
11 0.3
12 0.06
13 0.54
14 0.09
15 0.66
16 -0.15
17 -0.15
18 0.08
19 0.08
2 -0.36
20 0.08
21 0.28
22 0.28
23 0.28
3 -0.36
34 0.37
35 0.15
36 0.15
37 0.5
4 -0.36
5 -0.65
6 -0.57
7 -0.73

>  <PUBCHEM_EFFECTIVE_ROTOR_COUNT>  (1) 
11

>  <PUBCHEM_PHARMACOPHORE_FEATURES>  (1) 
10
1 1 acceptor
1 2 acceptor
1 3 acceptor
1 4 acceptor
1 5 acceptor
1 6 acceptor
1 7 donor
3 5 6 15 anion
4 8 9 10 12 hydrophobe
6 14 16 17 18 19 20 rings

>  <PUBCHEM_HEAVY_ATOM_COUNT>  (1) 
23

>  <PUBCHEM_ATOM_DEF_STEREO_COUNT>  (1) 
0

>  <PUBCHEM_ATOM_UDEF_STEREO_COUNT>  (1) 
0

>  <PUBCHEM_BOND_DEF_STEREO_COUNT>  (1) 
0

>  <PUBCHEM_BOND_UDEF_STEREO_COUNT>  (1) 
0

>  <PUBCHEM_ISOTOPIC_ATOM_COUNT>  (1) 
0

>  <PUBCHEM_COMPONENT_COUNT>  (1) 
1

>  <PUBCHEM_CACTVS_TAUTO_COUNT>  (1) 
2

>  <PUBCHEM_CONFORMER_ID>  (1) 
000077A300000002

>  <PUBCHEM_MMFF94_ENERGY>  (1) 
71.58

>  <PUBCHEM_FEATURE_SELFOVERLAP>  (1) 
50.816

>  <PUBCHEM_SHAPE_FINGERPRINT>  (1) 
10319926 262 15574991724653735994
10730089 88 14548732885392168091
10794284 68 17131004204036326795
10928967 22 10159709035905677044
12523318 42 15357984477090217049
12633257 1 15574727901628315794
13103583 49 13767916928284551462
14178342 30 14635162161589062947
14251764 75 18412269397996492064
14848178 5 9727636068983221298
14848178 96 18410852201181660970
14950920 106 14563087109115426132
15183329 4 18201167585870863158
15342168 16 18340202982000720911
15475509 8 14189284925692186161
15513586 35 16736100394535986300
1768 210 18199174278136684876
17780758 139 13334730245803179460
17870717 6 15195564602365949165
19377110 9 12540709145451121038
193927 3 11167946887765980606
20693207 138 13973670759187582950
21033648 29 16154267187831949983
21033650 10 16343431635257428754
22122407 14 18120101584605882808
22849339 104 15913028925165755357
22907989 373 17774994739033690767
23559900 14 15938381322166116370
2748736 6 18336816585673265828
283562 15 18117554256836364978
2838139 119 18342734122830264940
314194 84 10375580551891199726
474 4 18199749137496497435
57724786 102 18188769432019837586
6034566 193 18413112761794959713
633830 44 18268425728994667895
7288768 16 17895197727159474122

>  <PUBCHEM_SHAPE_MULTIPOLES>  (1) 
433.13
13.69
3.12
2.64
25.05
0.07
0.08
14.12
-3.08
2.64
0.05
-4.85
0.37
-1.14

>  <PUBCHEM_SHAPE_SELFOVERLAP>  (1) 
876.198

>  <PUBCHEM_SHAPE_VOLUME>  (1) 
252.9

>  <PUBCHEM_COORDINATE_TYPE>  (1) 
2
5
10

$$$$
