30634
     RDKit          3D

 15 16  0  0  0  0  0  0  0  0999 V2000
    4.5727    0.3341   -0.0620 Br  0  0  0  0  0  0  0  0  0  0  0  0
   -1.9687    1.0309   -0.3626 O   0  0  0  0  0  0  0  0  0  0  0  0
   -3.5643   -0.5302   -0.2147 O   0  0  0  0  0  0  0  0  0  0  0  0
   -1.3555   -1.2128    0.0293 N   0  0  0  0  0  0  0  0  0  0  0  0
   -0.6796    1.5419    0.0607 C   0  0  0  0  0  0  0  0  0  0  0  0
    0.3948    0.4841   -0.0219 C   0  0  0  0  0  0  0  0  0  0  0  0
    0.0283   -0.8687   -0.0008 C   0  0  0  0  0  0  0  0  0  0  0  0
   -0.4195    2.7398   -0.8648 C   0  0  0  0  0  0  0  0  0  0  0  0
   -0.8384    2.0280    1.5078 C   0  0  0  0  0  0  0  0  0  0  0  0
    1.7599    0.8267   -0.0330 C   0  0  0  0  0  0  0  0  0  0  0  0
   -2.3637   -0.2609   -0.1648 C   0  0  0  0  0  0  0  0  0  0  0  0
    1.0364   -1.8498   -0.0014 C   0  0  0  0  0  0  0  0  0  0  0  0
    2.7478   -0.1553   -0.0437 C   0  0  0  0  0  0  0  0  0  0  0  0
   -1.7357   -2.6132    0.2001 C   0  0  0  0  0  0  0  0  0  0  0  0
    2.3854   -1.4944   -0.0282 C   0  0  0  0  0  0  0  0  0  0  0  0
  1 13  1  0
  2  5  1  0
  2 11  1  0
  3 11  2  0
  4  7  1  0
  4 11  1  0
  4 14  1  0
  5  6  1  0
  5  8  1  0
  5  9  1  0
  6  7  2  0
  6 10  1  0
  7 12  1  0
 10 13  2  0
 12 15  2  0
 13 15  1  0
M  END
>  <PUBCHEM_COMPOUND_CID>  (1) 
30634

>  <PUBCHEM_CONFORMER_RMSD>  (1) 
0.4

>  <PUBCHEM_CONFORMER_DIVERSEORDER>  (1) 
1
2

>  <PUBCHEM_MMFF94_PARTIAL_CHARGES>  (1) 
16
1 -0.11
10 -0.15
11 0.78
12 -0.15
13 0.11
14 0.3
15 -0.15
2 -0.43
22 0.15
23 0.15
27 0.15
3 -0.57
4 -0.48
5 0.42
6 -0.14
7 0.12

>  <PUBCHEM_EFFECTIVE_ROTOR_COUNT>  (1) 
0.6

>  <PUBCHEM_PHARMACOPHORE_FEATURES>  (1) 
5
1 1 hydrophobe
1 3 acceptor
3 5 8 9 hydrophobe
6 2 4 5 6 7 11 rings
6 6 7 10 12 13 15 rings

>  <PUBCHEM_HEAVY_ATOM_COUNT>  (1) 
15

>  <PUBCHEM_ATOM_DEF_STEREO_COUNT>  (1) 
0

>  <PUBCHEM_ATOM_UDEF_STEREO_COUNT>  (1) 
0

>  <PUBCHEM_BOND_DEF_STEREO_COUNT>  (1) 
0

>  <PUBCHEM_BOND_UDEF_STEREO_COUNT>  (1) 
0

>  <PUBCHEM_ISOTOPIC_ATOM_COUNT>  (1) 
0

>  <PUBCHEM_COMPONENT_COUNT>  (1) 
1

>  <PUBCHEM_CACTVS_TAUTO_COUNT>  (1) 
1

>  <PUBCHEM_CONFORMER_ID>  (1) 
000077AA00000001

>  <PUBCHEM_MMFF94_ENERGY>  (1) 
47.7536

>  <PUBCHEM_FEATURE_SELFOVERLAP>  (1) 
25.395

>  <PUBCHEM_SHAPE_FINGERPRINT>  (1) 
108231 29 18126286573972343298
10967382 1 18409729577575515070
11132069 177 18340764931579793920
11680986 33 17979348982371130145
13024252 1 14996289101878555473
13027679 85 18271805782488746433
13140716 1 18266745877047931130
14614273 12 18336262336769263324
14617773 55 17844805872070307681
14817 1 12847455957942589905
15490181 7 17615978711568613920
15775835 57 18193565475733119728
16945 1 18408597071850475276
193761 8 17617092508626972559
19591789 44 15813138667365474702
20201158 50 18410571807640260694
20510252 161 18270962340995154208
20511035 2 17910953866097538303
20588541 1 18411981381641969567
21029758 11 18271517689157193581
21029758 27 18188218705253164357
21501502 16 18196373624277806738
2334 1 17978791534323568846
23402539 116 18341321253866194111
23557571 272 18271540787602250590
23559900 14 18341891901440051168
2748010 2 18123181570157078230
3312278 4 18410013273124242290
353137 74 18336541621048791834
528886 8 18410849997077785762
537710 114 18410016571479608725
5493415 88 18122625217210366995
7364860 26 17837210741956007897
81228 2 18339092509584490778
8809292 202 18262238931805028418

>  <PUBCHEM_SHAPE_MULTIPOLES>  (1) 
297.92
5.24
2.71
0.83
4.43
0.22
0.18
-0.8
-0.3
-1.28
0.03
-0.15
0.46
-0.05

>  <PUBCHEM_SHAPE_SELFOVERLAP>  (1) 
620.424

>  <PUBCHEM_SHAPE_VOLUME>  (1) 
176

>  <PUBCHEM_COORDINATE_TYPE>  (1) 
2
5
10

$$$$
