30635
     RDKit          3D

 27 29  0  0  1  0  0  0  0  0999 V2000
   -0.1085   -0.2585   -0.2696 O   0  0  0  0  0  0  0  0  0  0  0  0
    1.1741   -2.0014    0.5157 O   0  0  0  0  0  0  0  0  0  0  0  0
   -3.7355   -0.7471    0.1936 N   0  0  0  0  0  0  0  0  0  0  0  0
   -4.8634   -0.2249   -0.5567 C   0  0  0  0  0  0  0  0  0  0  0  0
   -4.8681   -0.6840   -2.0098 C   0  0  0  0  0  0  0  0  0  0  0  0
   -4.8282    1.2923   -0.6943 C   0  0  0  0  0  0  0  0  0  0  0  0
   -5.8152    0.2976   -2.6948 C   0  0  0  0  0  0  0  0  0  0  0  0
   -5.7902    1.5718   -1.8460 C   0  0  0  0  0  0  0  0  0  0  0  0
   -3.9528   -0.5932    1.6349 C   0  0  0  0  0  0  0  0  0  0  0  0
   -2.4926   -0.0783   -0.2023 C   0  0  0  0  0  0  0  0  0  0  0  0
   -4.8953   -1.6793    2.1476 C   0  0  0  0  0  0  0  0  0  0  0  0
   -1.2868   -0.9362    0.1463 C   0  0  0  0  0  0  0  0  0  0  0  0
   -5.1546   -1.5289    3.6387 C   0  0  0  0  0  0  0  0  0  0  0  0
    1.0765   -0.9066   -0.0243 C   0  0  0  0  0  0  0  0  0  0  0  0
    2.2431   -0.0928   -0.5754 C   0  0  0  0  0  0  0  0  0  0  0  0
    2.3384    1.3143   -0.0006 C   0  0  0  0  0  0  0  0  0  0  0  0
    3.5732   -0.8316   -0.4977 C   0  0  0  0  0  0  0  0  0  0  0  0
    2.8741    2.3472   -0.7701 C   0  0  0  0  0  0  0  0  0  0  0  0
    4.3760   -0.7051    0.6361 C   0  0  0  0  0  0  0  0  0  0  0  0
    1.8896    1.5706    1.2950 C   0  0  0  0  0  0  0  0  0  0  0  0
    3.9880   -1.6351   -1.5598 C   0  0  0  0  0  0  0  0  0  0  0  0
    2.9612    3.6360   -0.2439 C   0  0  0  0  0  0  0  0  0  0  0  0
    5.5936   -1.3818    0.7075 C   0  0  0  0  0  0  0  0  0  0  0  0
    1.9767    2.8595    1.8212 C   0  0  0  0  0  0  0  0  0  0  0  0
    5.2057   -2.3117   -1.4883 C   0  0  0  0  0  0  0  0  0  0  0  0
    2.5125    3.8923    1.0516 C   0  0  0  0  0  0  0  0  0  0  0  0
    6.0085   -2.1851   -0.3546 C   0  0  0  0  0  0  0  0  0  0  0  0
  1 12  1  0
  1 14  1  0
  2 14  2  0
  3  4  1  0
  3  9  1  0
  3 10  1  0
  4  5  1  0
  4  6  1  0
  5  7  1  0
  6  8  1  0
  7  8  1  0
  9 11  1  0
 10 12  1  0
 11 13  1  0
 14 15  1  0
 15 16  1  0
 15 17  1  0
 16 18  2  0
 16 20  1  0
 17 19  2  0
 17 21  1  0
 18 22  1  0
 19 23  1  0
 20 24  2  0
 21 25  2  0
 22 26  2  0
 23 27  2  0
 24 26  1  0
 25 27  1  0
M  END
>  <PUBCHEM_COMPOUND_CID>  (1) 
30635

>  <PUBCHEM_CONFORMER_RMSD>  (1) 
1.2

>  <PUBCHEM_CONFORMER_DIVERSEORDER>  (1) 
1
6
47
48
17
33
68
54
5
23
55
29
38
41
13
36
27
43
34
19
46
52
11
32
9
63
39
20
15
58
12
14
4
21
45
61
62
8
66
24
40
67
16
2
26
3
64
59
35
51
28
57
60
70
22
65
10
25
44
42
53
69
31
30
56
37
18
7
50
49

>  <PUBCHEM_MMFF94_PARTIAL_CHARGES>  (1) 
31
1 -0.43
10 0.27
12 0.28
14 0.66
15 0.35
16 -0.14
17 -0.14
18 -0.15
19 -0.15
2 -0.57
20 -0.15
21 -0.15
22 -0.15
23 -0.15
24 -0.15
25 -0.15
26 -0.15
27 -0.15
3 -0.81
4 0.27
49 0.15
50 0.15
51 0.15
52 0.15
53 0.15
54 0.15
55 0.15
56 0.15
57 0.15
58 0.15
9 0.27

>  <PUBCHEM_EFFECTIVE_ROTOR_COUNT>  (1) 
11

>  <PUBCHEM_PHARMACOPHORE_FEATURES>  (1) 
6
1 13 hydrophobe
1 2 acceptor
1 3 cation
5 4 5 6 7 8 rings
6 16 18 20 22 24 26 rings
6 17 19 21 23 25 27 rings

>  <PUBCHEM_HEAVY_ATOM_COUNT>  (1) 
27

>  <PUBCHEM_ATOM_DEF_STEREO_COUNT>  (1) 
0

>  <PUBCHEM_ATOM_UDEF_STEREO_COUNT>  (1) 
0

>  <PUBCHEM_BOND_DEF_STEREO_COUNT>  (1) 
0

>  <PUBCHEM_BOND_UDEF_STEREO_COUNT>  (1) 
0

>  <PUBCHEM_ISOTOPIC_ATOM_COUNT>  (1) 
0

>  <PUBCHEM_COMPONENT_COUNT>  (1) 
1

>  <PUBCHEM_CACTVS_TAUTO_COUNT>  (1) 
1

>  <PUBCHEM_CONFORMER_ID>  (1) 
000077AB00000001

>  <PUBCHEM_MMFF94_ENERGY>  (1) 
63.9254

>  <PUBCHEM_FEATURE_SELFOVERLAP>  (1) 
30.446

>  <PUBCHEM_SHAPE_FINGERPRINT>  (1) 
11089746 13 18335405855976669039
11135926 11 18127417958795912648
11331351 85 16843626889524207912
11421498 54 12613029440720305486
11545043 162 17894354393003192483
11796584 16 17385724651906209530
12166972 35 17703498943828636257
12342043 65 17970374665697738099
12403259 415 18040721402425553139
12616971 3 17775016699643852667
13583140 156 18334012783466554083
13590594 115 18271529697838612056
13782708 43 18115037393231610035
14347329 18 16589416493862757957
14950920 106 18197521656404542203
15021287 119 18060150807891149035
15131766 46 17841162366073889105
16994733 274 16009324201224646588
17844677 252 18333735749416968455
18222031 100 18130223766619846174
18365409 1 17695072098221311308
21033648 29 18114737235362815373
21065201 7 17168143481433097243
21223535 225 18195511603247128037
21709351 56 18342728603428200367
22393880 68 18334564764147348015
23559900 14 17894344475839258013
23569943 247 17628641851622600758
24771293 8 17703789224490389826
249057 25 17274826874441802665
25223398 141 17458921417273700019
341906 21 16950552333730766877
4015057 19 18272365417075302147
44317340 157 18201148966950180253
508706 21 18115017516328607733
6086070 43 18335127683687669923
6823239 73 17530682130028380748
7471813 234 17846497015401214888
7495541 125 18114192955479437538
90127 26 18187080693881301851
9971528 1 18060134324075614094

>  <PUBCHEM_SHAPE_MULTIPOLES>  (1) 
538.93
16.2
3.56
2.49
11.53
3.92
-1.19
-6.91
3.59
-5.73
-0.87
5.64
-0.72
4.14

>  <PUBCHEM_SHAPE_SELFOVERLAP>  (1) 
1126.003

>  <PUBCHEM_SHAPE_VOLUME>  (1) 
305.8

>  <PUBCHEM_COORDINATE_TYPE>  (1) 
2
5
10

$$$$
