30632
     RDKit          3D

 15 16  0  0  0  0  0  0  0  0999 V2000
    1.2565   -3.2506    0.0361 Cl  0  0  0  0  0  0  0  0  0  0  0  0
    4.0581    1.3340   -0.0332 Cl  0  0  0  0  0  0  0  0  0  0  0  0
   -2.3722    0.5373   -0.1483 O   0  0  0  0  0  0  0  0  0  0  0  0
   -3.4286   -1.4521   -0.0596 O   0  0  0  0  0  0  0  0  0  0  0  0
   -1.1439   -1.4483    0.0203 N   0  0  0  0  0  0  0  0  0  0  0  0
   -1.1948    1.3833    0.0215 C   0  0  0  0  0  0  0  0  0  0  0  0
    0.1071    0.6160   -0.0156 C   0  0  0  0  0  0  0  0  0  0  0  0
    0.0812   -0.7774    0.0037 C   0  0  0  0  0  0  0  0  0  0  0  0
   -1.2809    2.4125   -1.1138 C   0  0  0  0  0  0  0  0  0  0  0  0
   -1.3682    2.0775    1.3788 C   0  0  0  0  0  0  0  0  0  0  0  0
    1.3548    1.2599   -0.0229 C   0  0  0  0  0  0  0  0  0  0  0  0
    1.2655   -1.5219    0.0116 C   0  0  0  0  0  0  0  0  0  0  0  0
   -2.3708   -0.8237   -0.0528 C   0  0  0  0  0  0  0  0  0  0  0  0
    2.5406    0.5224   -0.0215 C   0  0  0  0  0  0  0  0  0  0  0  0
    2.4957   -0.8688   -0.0042 C   0  0  0  0  0  0  0  0  0  0  0  0
  1 12  1  0
  2 14  1  0
  3  6  1  0
  3 13  1  0
  4 13  2  0
  5  8  1  0
  5 13  1  0
  6  7  1  0
  6  9  1  0
  6 10  1  0
  7  8  2  0
  7 11  1  0
  8 12  1  0
 11 14  2  0
 12 15  2  0
 14 15  1  0
M  END
>  <PUBCHEM_COMPOUND_CID>  (1) 
30632

>  <PUBCHEM_CONFORMER_RMSD>  (1) 
0.4

>  <PUBCHEM_CONFORMER_DIVERSEORDER>  (1) 
1

>  <PUBCHEM_MMFF94_PARTIAL_CHARGES>  (1) 
16
1 -0.18
11 -0.15
12 0.18
13 0.78
14 0.18
15 -0.15
2 -0.18
22 0.15
23 0.37
24 0.15
3 -0.43
4 -0.57
5 -0.55
6 0.42
7 -0.14
8 0.12

>  <PUBCHEM_EFFECTIVE_ROTOR_COUNT>  (1) 
0.6

>  <PUBCHEM_PHARMACOPHORE_FEATURES>  (1) 
5
1 4 acceptor
1 5 donor
3 6 9 10 hydrophobe
6 3 5 6 7 8 13 rings
6 7 8 11 12 14 15 rings

>  <PUBCHEM_HEAVY_ATOM_COUNT>  (1) 
15

>  <PUBCHEM_ATOM_DEF_STEREO_COUNT>  (1) 
0

>  <PUBCHEM_ATOM_UDEF_STEREO_COUNT>  (1) 
0

>  <PUBCHEM_BOND_DEF_STEREO_COUNT>  (1) 
0

>  <PUBCHEM_BOND_UDEF_STEREO_COUNT>  (1) 
0

>  <PUBCHEM_ISOTOPIC_ATOM_COUNT>  (1) 
0

>  <PUBCHEM_COMPONENT_COUNT>  (1) 
1

>  <PUBCHEM_CACTVS_TAUTO_COUNT>  (1) 
2

>  <PUBCHEM_CONFORMER_ID>  (1) 
000077A800000001

>  <PUBCHEM_MMFF94_ENERGY>  (1) 
42.3699

>  <PUBCHEM_FEATURE_SELFOVERLAP>  (1) 
25.396

>  <PUBCHEM_SHAPE_FINGERPRINT>  (1) 
108231 29 18055917850968932864
10967382 1 18410011060978422102
11132069 177 18340484564435854112
11206711 2 18409452466222059676
11680986 33 18052245203281338754
12423570 1 12961146911969424025
13140716 1 17762895863884650360
13380535 21 18267315226592417340
14178342 30 18268985385018799192
14614273 12 18334852801269344260
14617773 55 17987795186167386713
14648413 74 18120934997461159970
15042514 8 18121215648231963506
15490181 7 17827640244844958137
15775835 57 18337680723812008104
16945 1 17978510828277788512
193761 8 18266176123887619462
20510252 161 18271527593367758728
20511035 2 17769635526175461422
20588541 1 18266461090593678971
21160774 45 18265323091890499494
21501502 16 18339080372006925114
21524375 3 18409449215601716218
22344851 341 18341620257031661978
2334 1 17690561213985462854
23388829 49 18338520849495447829
23402539 116 18197489834722566670
23419403 2 15739845861896732835
23463225 33 18334288743789113538
23552423 10 18336831862127807958
23559900 14 17549259234528201582
2748010 2 18194682562208737590
3312278 4 18412545435570602697
353137 74 18408599279463665418
43471831 8 18408601466098313658
45790113 53 17615415761742098545
5255222 1 18193281784495190668
528886 8 18266734864836439802
589210 1 18266175020054657126
63268167 104 17977947873887020736
7364860 26 18269272349085305702
74978 22 17979636732273876678

>  <PUBCHEM_SHAPE_MULTIPOLES>  (1) 
295.71
4.74
3.06
0.82
1.62
1.33
-0.09
-0.69
0.09
0.18
0.04
-0.3
-0.47
-0.08

>  <PUBCHEM_SHAPE_SELFOVERLAP>  (1) 
616.895

>  <PUBCHEM_SHAPE_VOLUME>  (1) 
170.3

>  <PUBCHEM_COORDINATE_TYPE>  (1) 
2
5
10

$$$$
