30633
     RDKit          3D

 14 15  0  0  0  0  0  0  0  0999 V2000
   -1.7591    0.8499   -0.3561 O   0  0  0  0  0  0  0  0  0  0  0  0
   -3.1553   -0.8905   -0.1944 O   0  0  0  0  0  0  0  0  0  0  0  0
   -0.8790   -1.3034    0.0340 N   0  0  0  0  0  0  0  0  0  0  0  0
   -0.5373    1.5124    0.0569 C   0  0  0  0  0  0  0  0  0  0  0  0
    0.6553    0.5906   -0.0323 C   0  0  0  0  0  0  0  0  0  0  0  0
    0.4534   -0.7963   -0.0069 C   0  0  0  0  0  0  0  0  0  0  0  0
   -0.4292    2.7308   -0.8720 C   0  0  0  0  0  0  0  0  0  0  0  0
   -0.7427    1.9791    1.5046 C   0  0  0  0  0  0  0  0  0  0  0  0
    1.9694    1.0940   -0.0539 C   0  0  0  0  0  0  0  0  0  0  0  0
   -1.9952   -0.4794   -0.1538 C   0  0  0  0  0  0  0  0  0  0  0  0
    1.5716   -1.6498   -0.0137 C   0  0  0  0  0  0  0  0  0  0  0  0
    3.0676    0.2372   -0.0708 C   0  0  0  0  0  0  0  0  0  0  0  0
   -1.0877   -2.7389    0.2093 C   0  0  0  0  0  0  0  0  0  0  0  0
    2.8682   -1.1356   -0.0510 C   0  0  0  0  0  0  0  0  0  0  0  0
  1  4  1  0
  1 10  1  0
  2 10  2  0
  3  6  1  0
  3 10  1  0
  3 13  1  0
  4  5  1  0
  4  7  1  0
  4  8  1  0
  5  6  2  0
  5  9  1  0
  6 11  1  0
  9 12  2  0
 11 14  2  0
 12 14  1  0
M  END
>  <PUBCHEM_COMPOUND_CID>  (1) 
30633

>  <PUBCHEM_CONFORMER_RMSD>  (1) 
0.4

>  <PUBCHEM_CONFORMER_DIVERSEORDER>  (1) 
1
2

>  <PUBCHEM_MMFF94_PARTIAL_CHARGES>  (1) 
16
1 -0.43
10 0.78
11 -0.15
12 -0.15
13 0.3
14 -0.15
2 -0.57
21 0.15
22 0.15
23 0.15
27 0.15
3 -0.48
4 0.42
5 -0.14
6 0.12
9 -0.15

>  <PUBCHEM_EFFECTIVE_ROTOR_COUNT>  (1) 
0.6

>  <PUBCHEM_PHARMACOPHORE_FEATURES>  (1) 
4
1 2 acceptor
3 4 7 8 hydrophobe
6 1 3 4 5 6 10 rings
6 5 6 9 11 12 14 rings

>  <PUBCHEM_HEAVY_ATOM_COUNT>  (1) 
14

>  <PUBCHEM_ATOM_DEF_STEREO_COUNT>  (1) 
0

>  <PUBCHEM_ATOM_UDEF_STEREO_COUNT>  (1) 
0

>  <PUBCHEM_BOND_DEF_STEREO_COUNT>  (1) 
0

>  <PUBCHEM_BOND_UDEF_STEREO_COUNT>  (1) 
0

>  <PUBCHEM_ISOTOPIC_ATOM_COUNT>  (1) 
0

>  <PUBCHEM_COMPONENT_COUNT>  (1) 
1

>  <PUBCHEM_CACTVS_TAUTO_COUNT>  (1) 
1

>  <PUBCHEM_CONFORMER_ID>  (1) 
000077A900000001

>  <PUBCHEM_MMFF94_ENERGY>  (1) 
46.8036

>  <PUBCHEM_FEATURE_SELFOVERLAP>  (1) 
20.32

>  <PUBCHEM_SHAPE_FINGERPRINT>  (1) 
10967382 1 18337672043667044846
11206711 2 18337956662638801462
12382932 28 18268988868094942138
12423570 1 12091644277776257721
12524768 44 18342181097850348222
13140716 1 18267020733823306834
14614273 12 18047186349996838613
14617773 55 17916870114622742257
14648413 74 17756704500791710793
14817 1 13099090270779880760
15001771 113 18341057349780013160
15490181 7 17688880734905416222
15775835 57 18047482131805043580
16945 1 18335982089862938396
193761 8 17761207713761417303
20510252 161 18271240526227278816
20511035 2 17766839798871055103
20588541 1 18339359780988425727
21501502 16 18339930290585227038
2334 1 18194683657620667686
23402539 116 18341880896742406662
23552423 10 18261676982678823934
23559900 14 18341891880070547356
241688 4 18336266743142023352
2748010 2 18409445856330661909
2897 32 18264769861500829158
353137 74 18336541638339437298
427121 178 16194853426277932897
5084963 1 18198617727367549336
528886 8 18338793545580201882
66348 1 18411138077756200694
7364860 26 17693658520981651105
81228 2 18411428288749178170

>  <PUBCHEM_SHAPE_MULTIPOLES>  (1) 
271.39
3.67
2.87
0.84
1.31
0.01
-0.2
1
0.24
-1.05
-0.01
-0.2
-0.48
-0.09

>  <PUBCHEM_SHAPE_SELFOVERLAP>  (1) 
578.901

>  <PUBCHEM_SHAPE_VOLUME>  (1) 
149.9

>  <PUBCHEM_COORDINATE_TYPE>  (1) 
2
5
10

$$$$
