30642
     RDKit          3D

 25 27  0  0  1  0  0  0  0  0999 V2000
   -0.3756    0.3315    0.0933 O   0  0  0  0  0  0  0  0  0  0  0  0
    0.9638    1.8834   -0.9539 O   0  0  0  0  0  0  0  0  0  0  0  0
   -3.9739    0.7546   -0.6004 N   0  0  0  0  0  0  0  0  0  0  0  0
   -5.1550    0.0504   -0.1344 C   0  0  0  0  0  0  0  0  0  0  0  0
   -6.4517    0.7334   -0.5523 C   0  0  0  0  0  0  0  0  0  0  0  0
   -5.2704    0.0341    1.3852 C   0  0  0  0  0  0  0  0  0  0  0  0
   -7.4955    0.1275    0.3823 C   0  0  0  0  0  0  0  0  0  0  0  0
   -6.7336   -0.3242    1.6314 C   0  0  0  0  0  0  0  0  0  0  0  0
   -2.7580    0.1622   -0.0354 C   0  0  0  0  0  0  0  0  0  0  0  0
   -3.9056    0.7442   -2.0644 C   0  0  0  0  0  0  0  0  0  0  0  0
   -1.5262    0.9283   -0.4903 C   0  0  0  0  0  0  0  0  0  0  0  0
    1.9597    0.2064    0.5200 C   0  0  0  0  0  0  0  0  0  0  0  0
    0.8281    0.9114   -0.2216 C   0  0  0  0  0  0  0  0  0  0  0  0
    3.3033    0.9059    0.3583 C   0  0  0  0  0  0  0  0  0  0  0  0
    2.0542   -1.2847    0.2253 C   0  0  0  0  0  0  0  0  0  0  0  0
    4.1186    0.5459   -0.6943 C   0  0  0  0  0  0  0  0  0  0  0  0
    2.5415   -2.1271    1.2030 C   0  0  0  0  0  0  0  0  0  0  0  0
    3.6619    1.8775    1.2692 C   0  0  0  0  0  0  0  0  0  0  0  0
    1.6492   -1.7466   -1.0098 C   0  0  0  0  0  0  0  0  0  0  0  0
    5.3487    1.1863   -0.8427 C   0  0  0  0  0  0  0  0  0  0  0  0
    2.6280   -3.4929    0.9333 C   0  0  0  0  0  0  0  0  0  0  0  0
    4.8922    2.5180    1.1207 C   0  0  0  0  0  0  0  0  0  0  0  0
    1.7356   -3.1125   -1.2793 C   0  0  0  0  0  0  0  0  0  0  0  0
    5.7355    2.1723    0.0646 C   0  0  0  0  0  0  0  0  0  0  0  0
    2.2251   -3.9856   -0.3077 C   0  0  0  0  0  0  0  0  0  0  0  0
  1 11  1  0
  1 13  1  0
  2 13  2  0
  3  4  1  0
  3  9  1  0
  3 10  1  0
  4  5  1  0
  4  6  1  0
  5  7  1  0
  6  8  1  0
  7  8  1  0
  9 11  1  0
 12 13  1  0
 12 14  1  0
 12 15  1  0
 14 16  2  0
 14 18  1  0
 15 17  2  0
 15 19  1  0
 16 20  1  0
 17 21  1  0
 18 22  2  0
 19 23  2  0
 20 24  2  0
 21 25  2  0
 22 24  1  0
 23 25  1  0
M  END
>  <PUBCHEM_COMPOUND_CID>  (1) 
30642

>  <PUBCHEM_CONFORMER_RMSD>  (1) 
1

>  <PUBCHEM_CONFORMER_DIVERSEORDER>  (1) 
1
108
35
116
103
89
104
56
14
54
61
110
48
68
58
50
82
109
118
10
88
53
13
92
113
11
112
63
3
47
49
5
71
7
86
9
90
102
78
52
99
121
45
17
80
119
70
107
85
36
33
32
18
97
65
6
114
39
27
115
72
31
101
117
67
15
111
75
60
44
4
2
95
96
81
93
62
34
77
29
25
8
24
73
69
57
83
94
76
16
79
20
21
42
74
30
43
100
38
19
105
23
28
26
59
98
91
22
41
106
66
55
12
120
84
46
51
40
87
64
37

>  <PUBCHEM_MMFF94_PARTIAL_CHARGES>  (1) 
31
1 -0.43
10 0.27
11 0.28
12 0.35
13 0.66
14 -0.14
15 -0.14
16 -0.15
17 -0.15
18 -0.15
19 -0.15
2 -0.57
20 -0.15
21 -0.15
22 -0.15
23 -0.15
24 -0.15
25 -0.15
3 -0.81
4 0.27
43 0.15
44 0.15
45 0.15
46 0.15
47 0.15
48 0.15
49 0.15
50 0.15
51 0.15
52 0.15
9 0.27

>  <PUBCHEM_EFFECTIVE_ROTOR_COUNT>  (1) 
9

>  <PUBCHEM_PHARMACOPHORE_FEATURES>  (1) 
5
1 2 acceptor
1 3 cation
5 4 5 6 7 8 rings
6 14 16 18 20 22 24 rings
6 15 17 19 21 23 25 rings

>  <PUBCHEM_HEAVY_ATOM_COUNT>  (1) 
25

>  <PUBCHEM_ATOM_DEF_STEREO_COUNT>  (1) 
0

>  <PUBCHEM_ATOM_UDEF_STEREO_COUNT>  (1) 
0

>  <PUBCHEM_BOND_DEF_STEREO_COUNT>  (1) 
0

>  <PUBCHEM_BOND_UDEF_STEREO_COUNT>  (1) 
0

>  <PUBCHEM_ISOTOPIC_ATOM_COUNT>  (1) 
0

>  <PUBCHEM_COMPONENT_COUNT>  (1) 
1

>  <PUBCHEM_CACTVS_TAUTO_COUNT>  (1) 
1

>  <PUBCHEM_CONFORMER_ID>  (1) 
000077B200000001

>  <PUBCHEM_MMFF94_ENERGY>  (1) 
63.9701

>  <PUBCHEM_FEATURE_SELFOVERLAP>  (1) 
25.373

>  <PUBCHEM_SHAPE_FINGERPRINT>  (1) 
10165383 225 18409731803249873900
10319688 140 18199474272643488078
10369192 42 18114463465515464004
10670039 82 14620527696630956585
10835480 77 18261104142017704613
11135609 99 16805593747148085018
11135926 11 18411407423587051398
11181472 205 17987805091095902537
11421498 54 17703517601456785912
11963148 33 17967810595564847795
12107183 9 17552367575131219689
12166972 35 11818989690833848119
12596602 18 17632300120607765739
12597179 24 18261395589096028562
12730499 353 18410015433460935858
12788726 201 16845301497262271907
13073987 5 18336267843497838737
13383665 225 17605289401627257941
13533116 47 18343021047983512795
13955234 65 18341326704601893746
14118638 360 18411983529943535505
14347424 109 18268997484448139097
14461889 52 17968100854228946987
14565420 104 18342449396162735928
146900 427 18272650159952432345
14790565 3 18193555803477598236
14863182 85 18261118478127291742
14910302 57 17313385570512778495
15183329 4 12463303504905866269
15537594 2 18201997733712316933
1577012 14 17988926644600719337
16992610 120 18191316073535254844
17844677 252 18266180539852497521
17859628 70 18269274560466306359
17980427 23 17241608514547181030
18681886 176 15267055999550574113
19377110 9 18060131012376248129
1979834 28 18334293175620642372
20645477 70 18336543802929374183
20771845 140 17346309350874248430
21033648 29 18126558157993351760
21033650 10 15720804476688148493
21049683 118 17984394577397134578
21049683 271 18262525767671012542
21133410 32 16450726330534904874
21344244 181 18059591174291122182
21344244 246 18268160752074128990
21521721 280 18341897454369054752
21623969 137 18334580144398335003
21781051 124 18187656821174455562
22149856 69 18115605785477943729
22224240 67 18339357577965745064
2260408 40 18190483618071912177
22956985 138 17607228880531234786
23557571 272 17168424857235352261
239999 70 17967534545088944835
27425 322 18057321893480585044
3178227 256 18410288117277947352
32027 91 17316742288917308147
3421961 26 18264768770521289107
38570 142 17989213676062376950
4073 2 18334863844389891683
4340502 62 18407761451735331366
437795 51 18411429401167066838
5104073 3 18263642866878759329
57359948 33 17458625563104367375
5758199 1 18272369827637865688
59755656 215 18334297573830579721
6025842 7 18412540981536873726
621550 34 18335132077249251268
70251023 43 17986405386474878390
9658208 31 18126564750989248440

>  <PUBCHEM_SHAPE_MULTIPOLES>  (1) 
497.77
16.93
3.5
1.44
31.48
4.31
-0.05
-8.25
3.32
-7.38
0.15
0.82
0.05
1.01

>  <PUBCHEM_SHAPE_SELFOVERLAP>  (1) 
1052.723

>  <PUBCHEM_SHAPE_VOLUME>  (1) 
279.6

>  <PUBCHEM_COORDINATE_TYPE>  (1) 
2
5
10

$$$$
