30640
     RDKit          3D

 12 12  0  0  0  0  0  0  0  0999 V2000
   -2.7265    2.0593   -0.1526 Cl  0  0  0  0  0  0  0  0  0  0  0  0
    1.6262   -2.4055    0.1394 Cl  0  0  0  0  0  0  0  0  0  0  0  0
    2.4989    1.4327    0.9722 O   0  0  0  0  0  0  0  0  0  0  0  0
    3.0289    0.2871   -0.9069 O   0  0  0  0  0  0  0  0  0  0  0  0
   -1.8965   -0.5302    0.0218 C   0  0  0  0  0  0  0  0  0  0  0  0
    0.7988    0.1877   -0.0349 C   0  0  0  0  0  0  0  0  0  0  0  0
   -1.5345    0.8138   -0.0710 C   0  0  0  0  0  0  0  0  0  0  0  0
   -0.9108   -1.5150    0.0863 C   0  0  0  0  0  0  0  0  0  0  0  0
    0.4368   -1.1562    0.0578 C   0  0  0  0  0  0  0  0  0  0  0  0
   -0.1867    1.1726   -0.0991 C   0  0  0  0  0  0  0  0  0  0  0  0
   -3.3290   -0.9549    0.0546 C   0  0  0  0  0  0  0  0  0  0  0  0
    2.1944    0.6085   -0.0677 C   0  0  0  0  0  0  0  0  0  0  0  0
  1  7  1  0
  2  9  1  0
  3 12  1  0
  4 12  2  0
  5  7  2  0
  5  8  1  0
  5 11  1  0
  6  9  1  0
  6 10  2  0
  6 12  1  0
  7 10  1  0
  8  9  2  0
M  END
>  <PUBCHEM_COMPOUND_CID>  (1) 
30640

>  <PUBCHEM_CONFORMER_RMSD>  (1) 
0.4

>  <PUBCHEM_CONFORMER_DIVERSEORDER>  (1) 
1
2

>  <PUBCHEM_MMFF94_PARTIAL_CHARGES>  (1) 
15
1 -0.18
10 -0.15
11 0.14
12 0.63
13 0.15
14 0.15
18 0.5
2 -0.18
3 -0.65
4 -0.57
5 -0.14
6 0.09
7 0.18
8 -0.15
9 0.18

>  <PUBCHEM_EFFECTIVE_ROTOR_COUNT>  (1) 
1

>  <PUBCHEM_PHARMACOPHORE_FEATURES>  (1) 
4
1 3 acceptor
1 4 acceptor
3 3 4 12 anion
6 5 6 7 8 9 10 rings

>  <PUBCHEM_HEAVY_ATOM_COUNT>  (1) 
12

>  <PUBCHEM_ATOM_DEF_STEREO_COUNT>  (1) 
0

>  <PUBCHEM_ATOM_UDEF_STEREO_COUNT>  (1) 
0

>  <PUBCHEM_BOND_DEF_STEREO_COUNT>  (1) 
0

>  <PUBCHEM_BOND_UDEF_STEREO_COUNT>  (1) 
0

>  <PUBCHEM_ISOTOPIC_ATOM_COUNT>  (1) 
0

>  <PUBCHEM_COMPONENT_COUNT>  (1) 
1

>  <PUBCHEM_CACTVS_TAUTO_COUNT>  (1) 
1

>  <PUBCHEM_CONFORMER_ID>  (1) 
000077B000000001

>  <PUBCHEM_MMFF94_ENERGY>  (1) 
33.3601

>  <PUBCHEM_FEATURE_SELFOVERLAP>  (1) 
20.357

>  <PUBCHEM_SHAPE_FINGERPRINT>  (1) 
11206711 2 18409729586408049693
12897270 3 18410855494646220799
12932764 1 18131349717538587079
13380535 21 18265343823882168725
13380535 76 18337102355025876663
14325111 11 18410012126193809956
14614273 12 18260534637252696845
14648413 74 18194119620876892875
14897335 6 18337945676265659573
15490181 7 18271234019204261918
15775835 57 18337681805980074045
161256 15 18412550898468550246
16945 1 18336827605920517731
193761 8 18265894662012088499
19973954 147 18337952268897865147
20510252 161 18270683185290597769
20511035 2 18196360438337863479
21040471 1 18408884022979164028
21501502 16 18337108943505825655
2334 1 18409166571945650991
23402655 69 18339625756546484709
23463225 33 18260824869841712634
23552423 10 18188492354625622147
23559900 14 18271815584627080332
2748010 2 18336828580978340391
5084963 1 18200605803093426648
53812653 166 18341612585856184872
57177213 63 18259994772664017342
68250623 7 18337675192004861683
7364860 26 18270396071179985162

>  <PUBCHEM_SHAPE_MULTIPOLES>  (1) 
238.96
4.53
2.29
0.72
0.68
0.46
0.01
-0.86
-0.19
-0.02
0.16
-0.26
-0.12
0.18

>  <PUBCHEM_SHAPE_SELFOVERLAP>  (1) 
485.061

>  <PUBCHEM_SHAPE_VOLUME>  (1) 
141.5

>  <PUBCHEM_COORDINATE_TYPE>  (1) 
2
5
10

$$$$
