30656
     RDKit          3D

 13 12  0  0  0  0  0  0  0  0999 V2000
   -0.5903    0.6017   -2.1164 Cl  0  0  0  0  0  0  0  0  0  0  0  0
   -1.2772   -1.9809   -1.0260 Cl  0  0  0  0  0  0  0  0  0  0  0  0
    1.8633   -1.4844   -1.2401 Cl  0  0  0  0  0  0  0  0  0  0  0  0
    0.8873   -1.6539    1.4718 Cl  0  0  0  0  0  0  0  0  0  0  0  0
   -1.2345    2.0424    0.9174 Cl  0  0  0  0  0  0  0  0  0  0  0  0
   -3.2990    0.5542   -0.4125 Cl  0  0  0  0  0  0  0  0  0  0  0  0
   -2.0274   -0.5518    1.9266 Cl  0  0  0  0  0  0  0  0  0  0  0  0
    3.3571    0.3429    1.0781 Cl  0  0  0  0  0  0  0  0  0  0  0  0
    1.9961    1.8974   -0.9142 Cl  0  0  0  0  0  0  0  0  0  0  0  0
   -0.6079   -0.3238   -0.5213 C   0  0  0  0  0  0  0  0  0  0  0  0
    0.8946   -0.5362    0.0070 C   0  0  0  0  0  0  0  0  0  0  0  0
   -1.6792    0.3657    0.4180 C   0  0  0  0  0  0  0  0  0  0  0  0
    1.7171    0.7268    0.4117 C   0  0  0  0  0  0  0  0  0  0  0  0
  1 10  1  0
  2 10  1  0
  3 11  1  0
  4 11  1  0
  5 12  1  0
  6 12  1  0
  7 12  1  0
  8 13  1  0
  9 13  1  0
 10 11  1  0
 10 12  1  0
 11 13  1  0
M  END
>  <PUBCHEM_COMPOUND_CID>  (1) 
30656

>  <PUBCHEM_CONFORMER_RMSD>  (1) 
0.6

>  <PUBCHEM_CONFORMER_DIVERSEORDER>  (1) 
1
4
2
3
5

>  <PUBCHEM_MMFF94_PARTIAL_CHARGES>  (1) 
13
1 -0.29
10 0.58
11 0.58
12 0.87
13 0.58
2 -0.29
3 -0.29
4 -0.29
5 -0.29
6 -0.29
7 -0.29
8 -0.29
9 -0.29

>  <PUBCHEM_EFFECTIVE_ROTOR_COUNT>  (1) 
3

>  <PUBCHEM_PHARMACOPHORE_FEATURES>  (1) 
0

>  <PUBCHEM_HEAVY_ATOM_COUNT>  (1) 
13

>  <PUBCHEM_ATOM_DEF_STEREO_COUNT>  (1) 
0

>  <PUBCHEM_ATOM_UDEF_STEREO_COUNT>  (1) 
0

>  <PUBCHEM_BOND_DEF_STEREO_COUNT>  (1) 
0

>  <PUBCHEM_BOND_UDEF_STEREO_COUNT>  (1) 
0

>  <PUBCHEM_ISOTOPIC_ATOM_COUNT>  (1) 
0

>  <PUBCHEM_COMPONENT_COUNT>  (1) 
1

>  <PUBCHEM_CACTVS_TAUTO_COUNT>  (1) 
1

>  <PUBCHEM_CONFORMER_ID>  (1) 
000077C000000001

>  <PUBCHEM_MMFF94_ENERGY>  (1) 
41.2232

>  <PUBCHEM_FEATURE_SELFOVERLAP>  (1) 
0

>  <PUBCHEM_SHAPE_FINGERPRINT>  (1) 
12423570 1 15622847117321472084
137420 1 13849232706079897535
14817 1 17752218200939213581
15775835 57 17275103890578081609
16945 1 18059307546564922672
17834069 17 18263662769150144289
18186145 218 18190180084169341389
19837323 101 15984558796144690187
20082192 1 18339627993232759670
20511035 2 17842292366824841312
21922407 69 18338784680593655763
22344851 12 9320717114395163774
22802520 49 16987736721369637716
23402539 116 16987698229682989228
23419403 2 15393820915451333462
23557571 272 16700044096724770060
2748010 2 18127138459071062908
5084963 1 17681314110800361607
528886 8 17845922018117022266

>  <PUBCHEM_SHAPE_MULTIPOLES>  (1) 
284.36
4.15
2.12
1.95
0.43
0.04
-0.09
0.87
0.8
0.24
-0.16
-0.23
-0.27
-0.15

>  <PUBCHEM_SHAPE_SELFOVERLAP>  (1) 
464.014

>  <PUBCHEM_SHAPE_VOLUME>  (1) 
194.9

>  <PUBCHEM_COORDINATE_TYPE>  (1) 
2
5
10

$$$$
