30658
     RDKit          3D

 16 17  0  0  1  0  0  0  0  0999 V2000
    1.8556   -1.7870   -0.1961 O   0  0  0  0  0  0  0  0  0  0  0  0
    3.6317    0.2761    0.1996 O   0  0  0  0  0  0  0  0  0  0  0  0
   -4.2073    0.5078   -0.0838 N   0  0  0  0  0  0  0  0  0  0  0  0
   -2.8373    0.1670    0.2119 C   0  0  0  0  0  0  0  0  0  0  0  0
   -2.3541   -0.9786   -0.6761 C   0  0  0  0  0  0  0  0  0  0  0  0
   -1.9305    1.3893    0.0387 C   0  0  0  0  0  0  0  0  0  0  0  0
   -0.9479   -1.4142   -0.2685 C   0  0  0  0  0  0  0  0  0  0  0  0
   -0.4605    1.0555    0.1011 C   0  0  0  0  0  0  0  0  0  0  0  0
    0.0043   -0.2595   -0.0836 C   0  0  0  0  0  0  0  0  0  0  0  0
    1.3832   -0.5153   -0.0380 C   0  0  0  0  0  0  0  0  0  0  0  0
    0.4652    2.0927    0.2917 C   0  0  0  0  0  0  0  0  0  0  0  0
    2.2922    0.5229    0.1624 C   0  0  0  0  0  0  0  0  0  0  0  0
    1.8336    1.8267    0.3247 C   0  0  0  0  0  0  0  0  0  0  0  0
   -5.0681   -0.6531    0.0701 C   0  0  0  0  0  0  0  0  0  0  0  0
    2.0027   -2.5711    0.9841 C   0  0  0  0  0  0  0  0  0  0  0  0
    4.3372    0.3410   -1.0382 C   0  0  0  0  0  0  0  0  0  0  0  0
  1 10  1  0
  1 15  1  0
  2 12  1  0
  2 16  1  0
  3  4  1  0
  3 14  1  0
  4  5  1  0
  4  6  1  0
  5  7  1  0
  6  8  1  0
  7  9  1  0
  8  9  2  0
  8 11  1  0
  9 10  1  0
 10 12  2  0
 11 13  2  0
 12 13  1  0
M  END
>  <PUBCHEM_COMPOUND_CID>  (1) 
30658

>  <PUBCHEM_CONFORMER_RMSD>  (1) 
0.6

>  <PUBCHEM_CONFORMER_DIVERSEORDER>  (1) 
2
14
10
4
11
13
7
15
8
12
1
6
3
5
9

>  <PUBCHEM_MMFF94_PARTIAL_CHARGES>  (1) 
18
1 -0.36
10 0.08
11 -0.15
12 0.08
13 -0.15
14 0.27
15 0.28
16 0.28
2 -0.36
24 0.36
25 0.15
26 0.15
3 -0.9
4 0.27
6 0.14
7 0.14
8 -0.14
9 -0.14

>  <PUBCHEM_EFFECTIVE_ROTOR_COUNT>  (1) 
3.8

>  <PUBCHEM_PHARMACOPHORE_FEATURES>  (1) 
6
1 1 acceptor
1 2 acceptor
1 3 cation
1 3 donor
6 4 5 6 7 8 9 rings
6 8 9 10 11 12 13 rings

>  <PUBCHEM_HEAVY_ATOM_COUNT>  (1) 
16

>  <PUBCHEM_ATOM_DEF_STEREO_COUNT>  (1) 
0

>  <PUBCHEM_ATOM_UDEF_STEREO_COUNT>  (1) 
1

>  <PUBCHEM_BOND_DEF_STEREO_COUNT>  (1) 
0

>  <PUBCHEM_BOND_UDEF_STEREO_COUNT>  (1) 
0

>  <PUBCHEM_ISOTOPIC_ATOM_COUNT>  (1) 
0

>  <PUBCHEM_COMPONENT_COUNT>  (1) 
1

>  <PUBCHEM_CACTVS_TAUTO_COUNT>  (1) 
1

>  <PUBCHEM_CONFORMER_ID>  (1) 
000077C200000002

>  <PUBCHEM_MMFF94_ENERGY>  (1) 
56.4786

>  <PUBCHEM_FEATURE_SELFOVERLAP>  (1) 
30.472

>  <PUBCHEM_SHAPE_FINGERPRINT>  (1) 
10366900 7 18187650240788452121
10967382 1 18411979165327847675
10980938 120 18411136905077187139
11132069 177 18271517693172625128
11471102 20 18411695521588026325
12251169 10 18343582966981076981
12553582 1 18341601620888781839
12616999 72 18113622283021570694
12644460 14 18335707109066735787
13140716 1 18195236952234302968
13221675 6 18342176673949273463
13380535 76 18411138056102269515
13862211 1 18413103970044643998
14115302 16 18188782754491302004
14144814 61 18343018861496869345
14252887 29 17918002667259703526
14576447 43 18270668883545205359
14911166 2 18341056289054934036
14993402 34 18272653445845045693
15196674 1 18340206289130540621
15375462 189 18411132528579398107
15442244 35 18268990882545133249
15536298 74 18059009608946989360
15775835 57 18411421708737792343
16945 1 18338504313739554252
18186145 218 18337099185102785069
200 152 18060699511622607073
20559304 39 18411412873974409210
20645477 70 18272087223274160181
21267235 1 18341622511488591606
21501502 16 18194121815446990544
2255824 54 18336262465454966012
2334 1 17835234919513506088
23402539 116 16343705430985263041
23402655 69 18341888568192144829
23463225 33 18339921515682159207
23559900 14 18049711919832488538
25 1 18334292097641723830
2748010 2 18124306112796480028
2871803 45 18409729555937005468
3060560 45 17989489619300701470
33824 294 18409444817033128267
34934 24 18342166774012713343
4990 188 17917440821234320292
5104073 3 18339642235834657897
528886 8 18341044202789927792
53655031 270 18413951684993421808
537710 114 18410578374761209940
53812653 166 18342733048497785728
7364860 26 18343861091762230818
8809292 202 18262801894585134475
9999458 23 18335422429907473452

>  <PUBCHEM_SHAPE_MULTIPOLES>  (1) 
312.55
7.38
2.18
0.79
4.67
0.52
-0.03
0.49
-0.93
-1.1
0.5
-0.36
0.15
-0.38

>  <PUBCHEM_SHAPE_SELFOVERLAP>  (1) 
651.929

>  <PUBCHEM_SHAPE_VOLUME>  (1) 
178.5

>  <PUBCHEM_COORDINATE_TYPE>  (1) 
2
5
10

$$$$
