30653
     RDKit          3D

 15 14  0  0  0  0  0  0  0  0999 V2000
    0.7270    0.5952    0.0438 O   0  0  0  0  0  0  0  0  0  0  0  0
    1.7140   -0.7297   -1.5590 O   0  0  0  0  0  0  0  0  0  0  0  0
   -1.5813    2.2195    0.0193 N   0  0  0  0  0  0  0  0  0  0  0  0
   -1.7922   -2.0989    0.3878 N   0  0  0  0  0  0  0  0  0  0  0  0
   -0.5481   -0.0330   -0.1062 C   0  0  0  0  0  0  0  0  0  0  0  0
   -1.5755    0.8744    0.5781 C   0  0  0  0  0  0  0  0  0  0  0  0
   -0.4959   -1.4355    0.5109 C   0  0  0  0  0  0  0  0  0  0  0  0
   -2.5317    3.0729    0.7358 C   0  0  0  0  0  0  0  0  0  0  0  0
   -1.9078    2.1853   -1.4079 C   0  0  0  0  0  0  0  0  0  0  0  0
   -1.7275   -3.4549    0.9326 C   0  0  0  0  0  0  0  0  0  0  0  0
   -2.2206   -2.1307   -1.0105 C   0  0  0  0  0  0  0  0  0  0  0  0
    1.7744   -0.0411   -0.5502 C   0  0  0  0  0  0  0  0  0  0  0  0
    3.0228    0.2249    0.2176 C   0  0  0  0  0  0  0  0  0  0  0  0
    2.9877    1.0849    1.4437 C   0  0  0  0  0  0  0  0  0  0  0  0
    4.1547   -0.3333   -0.2358 C   0  0  0  0  0  0  0  0  0  0  0  0
  1  5  1  0
  1 12  1  0
  2 12  2  0
  3  6  1  0
  3  8  1  0
  3  9  1  0
  4  7  1  0
  4 10  1  0
  4 11  1  0
  5  6  1  0
  5  7  1  0
 12 13  1  0
 13 14  1  0
 13 15  2  0
M  END
>  <PUBCHEM_COMPOUND_CID>  (1) 
30653

>  <PUBCHEM_CONFORMER_RMSD>  (1) 
0.8

>  <PUBCHEM_CONFORMER_DIVERSEORDER>  (1) 
1
20
15
8
32
22
13
23
29
26
4
27
16
17
31
11
10
19
21
7
18
12
30
5
9
24
6
25
3
2
14
28

>  <PUBCHEM_MMFF94_PARTIAL_CHARGES>  (1) 
17
1 -0.43
10 0.27
11 0.27
12 0.71
13 -0.12
14 0.14
15 -0.3
2 -0.57
3 -0.81
36 0.15
37 0.15
4 -0.81
5 0.28
6 0.27
7 0.27
8 0.27
9 0.27

>  <PUBCHEM_EFFECTIVE_ROTOR_COUNT>  (1) 
7

>  <PUBCHEM_PHARMACOPHORE_FEATURES>  (1) 
3
1 2 acceptor
1 3 cation
1 4 cation

>  <PUBCHEM_HEAVY_ATOM_COUNT>  (1) 
15

>  <PUBCHEM_ATOM_DEF_STEREO_COUNT>  (1) 
0

>  <PUBCHEM_ATOM_UDEF_STEREO_COUNT>  (1) 
0

>  <PUBCHEM_BOND_DEF_STEREO_COUNT>  (1) 
0

>  <PUBCHEM_BOND_UDEF_STEREO_COUNT>  (1) 
0

>  <PUBCHEM_ISOTOPIC_ATOM_COUNT>  (1) 
0

>  <PUBCHEM_COMPONENT_COUNT>  (1) 
1

>  <PUBCHEM_CACTVS_TAUTO_COUNT>  (1) 
1

>  <PUBCHEM_CONFORMER_ID>  (1) 
000077BD00000001

>  <PUBCHEM_MMFF94_ENERGY>  (1) 
38.7775

>  <PUBCHEM_FEATURE_SELFOVERLAP>  (1) 
15.223

>  <PUBCHEM_SHAPE_FINGERPRINT>  (1) 
1 1 17759528763774228079
12138202 97 18340767035886987252
12500047 106 18337105653887729664
12532896 13 18267308633912472623
12759256 9 17334213927866492479
13294875 104 17765139575910998184
136203 1 18409735096708483747
14817 1 15009431757971018479
15490181 7 18195251005646785483
15852999 172 18270112388589642972
16945 1 18337972145916840231
18186145 218 18053665767872386108
18380122 1 17987805262160682350
19021347 4 18265338304780517851
20097449 115 17976544136888363419
20524608 308 18412830153152780146
20711985 344 18410567422589402035
21524375 3 18124311606186161125
21665056 4 18263645069653617258
23402539 116 18340195358718328127
23419403 2 13321163491855339070
23557571 272 18340204219019724612
23598294 1 18333730204287103240
25 1 17842279155610979236
257057 1 18049722124569009279
2748010 2 18047489824027972351
305870 269 17832421999297180449
3071541 236 18335689521006801217
5902787 121 17612591532850580571
6049 1 18059298764031925248
7364860 26 17331118291606982953
7615 1 17822013151056914012
81228 2 18337679701730760291
88987 49 18336282166796702052

>  <PUBCHEM_SHAPE_MULTIPOLES>  (1) 
286.99
5.35
3.64
1.26
5.99
0.72
0.18
-0.78
-0.22
-5.26
-0.78
0.01
-0.09
0.55

>  <PUBCHEM_SHAPE_SELFOVERLAP>  (1) 
544.532

>  <PUBCHEM_SHAPE_VOLUME>  (1) 
179.9

>  <PUBCHEM_COORDINATE_TYPE>  (1) 
2
5
10

$$$$
