30674
     RDKit          3D

 15 16  0  0  0  0  0  0  0  0999 V2000
   -0.0997   -0.1848   -0.1737 O   0  0  0  0  0  0  0  0  0  0  0  0
    2.8104    0.0006    0.8667 O   0  0  0  0  0  0  0  0  0  0  0  0
    2.8415    0.3447   -1.3436 N   0  0  0  0  0  0  0  0  0  0  0  0
    4.0636   -0.1874   -0.9769 N   0  0  0  0  0  0  0  0  0  0  0  0
    4.9241   -0.8659    1.1735 N   0  0  0  0  0  0  0  0  0  0  0  0
   -1.4333    0.0526   -0.0408 C   0  0  0  0  0  0  0  0  0  0  0  0
   -3.7115   -0.7517   -0.0332 C   0  0  0  0  0  0  0  0  0  0  0  0
   -2.3448   -0.9953   -0.1696 C   0  0  0  0  0  0  0  0  0  0  0  0
    0.7763    0.9322   -0.0295 C   0  0  0  0  0  0  0  0  0  0  0  0
   -1.8884    1.3441    0.2247 C   0  0  0  0  0  0  0  0  0  0  0  0
   -4.1667    0.5399    0.2321 C   0  0  0  0  0  0  0  0  0  0  0  0
   -3.2551    1.5877    0.3611 C   0  0  0  0  0  0  0  0  0  0  0  0
    2.1694    0.4268   -0.2404 C   0  0  0  0  0  0  0  0  0  0  0  0
   -4.6861   -1.8718   -0.1714 C   0  0  0  0  0  0  0  0  0  0  0  0
    4.0004   -0.3718    0.3211 C   0  0  0  0  0  0  0  0  0  0  0  0
  1  6  1  0
  1  9  1  0
  2 13  1  0
  2 15  1  0
  3  4  1  0
  3 13  2  0
  4 15  2  0
  5 15  1  0
  6  8  1  0
  6 10  2  0
  7  8  2  0
  7 11  1  0
  7 14  1  0
  9 13  1  0
 10 12  1  0
 11 12  2  0
M  END
>  <PUBCHEM_COMPOUND_CID>  (1) 
30674

>  <PUBCHEM_CONFORMER_RMSD>  (1) 
0.6

>  <PUBCHEM_CONFORMER_DIVERSEORDER>  (1) 
1
51
39
42
6
46
2
43
25
59
15
48
17
53
57
30
5
24
28
27
47
14
52
16
56
31
3
35
29
4
54
23
44
12
50
33
58
7
40
49
26
55
13
36
45
41
32
34
19
10
21
38
37
18
22
8
20
11
9

>  <PUBCHEM_MMFF94_PARTIAL_CHARGES>  (1) 
21
1 -0.36
10 -0.15
11 -0.15
12 -0.15
13 0.3
14 0.14
15 0.56
16 0.15
19 0.15
2 -0.28
20 0.15
21 0.15
25 0.4
26 0.4
3 -0.34
4 -0.34
5 -0.88
6 0.08
7 -0.14
8 -0.15
9 0.46

>  <PUBCHEM_EFFECTIVE_ROTOR_COUNT>  (1) 
3

>  <PUBCHEM_PHARMACOPHORE_FEATURES>  (1) 
5
1 1 acceptor
1 5 donor
3 4 5 15 cation
5 2 3 4 13 15 rings
6 6 7 8 10 11 12 rings

>  <PUBCHEM_HEAVY_ATOM_COUNT>  (1) 
15

>  <PUBCHEM_ATOM_DEF_STEREO_COUNT>  (1) 
0

>  <PUBCHEM_ATOM_UDEF_STEREO_COUNT>  (1) 
0

>  <PUBCHEM_BOND_DEF_STEREO_COUNT>  (1) 
0

>  <PUBCHEM_BOND_UDEF_STEREO_COUNT>  (1) 
0

>  <PUBCHEM_ISOTOPIC_ATOM_COUNT>  (1) 
0

>  <PUBCHEM_COMPONENT_COUNT>  (1) 
1

>  <PUBCHEM_CACTVS_TAUTO_COUNT>  (1) 
2

>  <PUBCHEM_CONFORMER_ID>  (1) 
000077D200000001

>  <PUBCHEM_MMFF94_ENERGY>  (1) 
33.9448

>  <PUBCHEM_FEATURE_SELFOVERLAP>  (1) 
25.371

>  <PUBCHEM_SHAPE_FINGERPRINT>  (1) 
10465860 250 18059851753238860032
10912923 1 18260553324734522696
11046707 91 18409729586529173645
11543360 7 16298950986659784159
12032990 46 18201443618485562981
12236239 1 17967534566590057337
13167823 11 18334294258005122554
13675066 3 17489587857170058772
13760787 5 17168148935524676317
13862211 1 18269552901129669367
14252887 29 16845580803127555542
17804303 29 18343867740440176873
17834072 33 18334017228657089020
17862501 102 18335135397264044155
18186145 218 13984664749983289092
19026448 5 18113343011157432708
19422 9 18186524310421238204
1986462 14 18413392029580583981
200 152 17313100856444703421
20279233 1 17346599659885841564
20281475 54 18259983768952426134
204376 136 15123501528145073604
20645477 70 15574711374773516000
21065201 7 18200880573757927166
21728266 224 18411688894590859515
22485316 2 18407758127536126208
22646028 1 18187363237703508494
22646028 28 18187364333078502570
22854114 59 16630807711900106446
2297311 6 18059308615995935757
2306618 200 18260542278500981637
23402539 116 18342450453067230981
23557571 272 17845952731512994021
23559900 14 17987249832599954086
23590187 198 18261388902058483306
23596394 208 13768196147981263600
26918003 58 16845291626905328330
42 15 18410853244246862034
4214541 1 18411982438225042889
449060 50 16200146625599064856
5104073 3 18342461486511414193
559249 180 18188201005803869819
573450 72 18335697213372369265

>  <PUBCHEM_SHAPE_MULTIPOLES>  (1) 
282.01
10.64
1.43
0.89
5.17
0.04
0.05
3.46
-1.05
-1.98
-0.08
1
0.04
-0.61

>  <PUBCHEM_SHAPE_SELFOVERLAP>  (1) 
600.992

>  <PUBCHEM_SHAPE_VOLUME>  (1) 
157.1

>  <PUBCHEM_COORDINATE_TYPE>  (1) 
2
5
10

$$$$
