30678
     RDKit          3D

 17 17  0  0  0  0  0  0  0  0999 V2000
    2.0312   -1.4845    0.7785 O   0  0  0  0  0  0  0  0  0  0  0  0
    3.0459    1.0541    0.2726 O   0  0  0  0  0  0  0  0  0  0  0  0
   -3.1551   -0.0335   -0.5271 N   0  0  0  0  0  0  0  0  0  0  0  0
   -5.1114   -0.4562   -1.6885 N   0  0  0  0  0  0  0  0  0  0  0  0
   -5.3035   -0.0571    0.5472 N   0  0  0  0  0  0  0  0  0  0  0  0
   -1.0499    0.4771    0.6338 C   0  0  0  0  0  0  0  0  0  0  0  0
    1.1943   -0.4175    0.6461 C   0  0  0  0  0  0  0  0  0  0  0  0
    1.7034    0.8562    0.3928 C   0  0  0  0  0  0  0  0  0  0  0  0
   -0.1823   -0.6071    0.7665 C   0  0  0  0  0  0  0  0  0  0  0  0
   -0.5408    1.7507    0.3805 C   0  0  0  0  0  0  0  0  0  0  0  0
   -2.5218    0.2743    0.7613 C   0  0  0  0  0  0  0  0  0  0  0  0
    0.8358    1.9403    0.2600 C   0  0  0  0  0  0  0  0  0  0  0  0
    1.8606   -2.5599   -0.1425 C   0  0  0  0  0  0  0  0  0  0  0  0
    3.5150    1.5795   -0.9675 C   0  0  0  0  0  0  0  0  0  0  0  0
    3.1999   -3.2260   -0.3762 C   0  0  0  0  0  0  0  0  0  0  0  0
    4.9215    1.0772   -1.2152 C   0  0  0  0  0  0  0  0  0  0  0  0
   -4.4428   -0.1675   -0.5222 C   0  0  0  0  0  0  0  0  0  0  0  0
  1  7  1  0
  1 13  1  0
  2  8  1  0
  2 14  1  0
  3 11  1  0
  3 17  2  3
  4 17  1  0
  5 17  1  0
  6  9  2  0
  6 10  1  0
  6 11  1  0
  7  8  2  0
  7  9  1  0
  8 12  1  0
 10 12  2  0
 13 15  1  0
 14 16  1  0
M  END
>  <PUBCHEM_COMPOUND_CID>  (1) 
30678

>  <PUBCHEM_CONFORMER_RMSD>  (1) 
0.8

>  <PUBCHEM_CONFORMER_DIVERSEORDER>  (1) 
1
61
66
33
36
14
48
29
56
41
7
26
49
3
27
9
57
31
35
62
22
38
42
25
43
6
28
30
50
40
13
63
59
21
11
52
45
68
55
65
70
34
16
18
44
20
23
54
8
64
69
32
67
4
46
10
39
2
19
58
12
53
17
37
60
51
5
24
47
15

>  <PUBCHEM_MMFF94_PARTIAL_CHARGES>  (1) 
22
1 -0.36
10 -0.15
11 0.39
12 -0.15
13 0.28
14 0.28
17 0.55
18 0.15
19 0.15
2 -0.36
22 0.15
3 -0.7
33 0.4
34 0.4
35 0.4
36 0.4
4 -0.85
5 -0.85
6 -0.14
7 0.08
8 0.08
9 -0.15

>  <PUBCHEM_EFFECTIVE_ROTOR_COUNT>  (1) 
6

>  <PUBCHEM_PHARMACOPHORE_FEATURES>  (1) 
6
1 1 acceptor
1 2 acceptor
1 4 donor
1 5 donor
4 3 4 5 17 cation
6 6 7 8 9 10 12 rings

>  <PUBCHEM_HEAVY_ATOM_COUNT>  (1) 
17

>  <PUBCHEM_ATOM_DEF_STEREO_COUNT>  (1) 
0

>  <PUBCHEM_ATOM_UDEF_STEREO_COUNT>  (1) 
0

>  <PUBCHEM_BOND_DEF_STEREO_COUNT>  (1) 
0

>  <PUBCHEM_BOND_UDEF_STEREO_COUNT>  (1) 
0

>  <PUBCHEM_ISOTOPIC_ATOM_COUNT>  (1) 
0

>  <PUBCHEM_COMPONENT_COUNT>  (1) 
1

>  <PUBCHEM_CACTVS_TAUTO_COUNT>  (1) 
2

>  <PUBCHEM_CONFORMER_ID>  (1) 
000077D600000001

>  <PUBCHEM_MMFF94_ENERGY>  (1) 
57.2721

>  <PUBCHEM_FEATURE_SELFOVERLAP>  (1) 
30.506

>  <PUBCHEM_SHAPE_FINGERPRINT>  (1) 
10693767 8 18202846535161961062
10756046 5 18264209097627986180
11796584 16 15338852962146029973
12507557 5 9006789670097188687
12616999 72 18335415794145765755
13257819 101 16878215472176098022
13836976 161 18261114127257017828
14576447 43 18201147858452887767
14863182 85 18343575227598228938
14911166 2 18337115673661900544
15475509 35 14045745902313709644
16945 1 18411705421413946904
19784866 140 18130797749632133252
20281475 54 18130498670296418363
20388580 30 18269274560798368806
20645477 70 18334856100163008259
21054139 6 18056745744585942286
21452121 199 18194109725609846882
21501502 16 18197225749820725512
21637258 2 16056884606875185996
22713019 99 18271536385292394356
23114952 82 18041836199535909420
231179 274 17095520733812645804
23402655 69 18335412470527205669
23557571 272 16805897285239808241
23596394 208 18114466669186337862
23598291 2 18128543673770351563
25147074 1 18198636436060715256
266924 1 18129677291554467072
266924 87 18335425612795121100
2838139 119 16443625843334386012
3060560 45 18337669827759514292
3071541 37 18335424573422941674
312423 11 18270128894112051251
4072396 5 18115289173057201992
5281201 14 18040992895993174797
58051976 378 18114180851944975772
7164475 11 18267863891358544361
81539 233 18113900489691699506

>  <PUBCHEM_SHAPE_MULTIPOLES>  (1) 
323.17
9.56
2.6
1.11
9.63
2.14
-0.32
0.33
-4.62
-4.09
-0.23
0.39
-0.05
-0.81

>  <PUBCHEM_SHAPE_SELFOVERLAP>  (1) 
651.57

>  <PUBCHEM_SHAPE_VOLUME>  (1) 
188.8

>  <PUBCHEM_COORDINATE_TYPE>  (1) 
2
5
10

$$$$
