30689
     RDKit          3D

 27 29  0  0  0  0  0  0  0  0999 V2000
    4.7567    0.4811    0.2139 O   0  0  0  0  0  0  0  0  0  0  0  0
    4.3068    1.2850   -1.8784 O   0  0  0  0  0  0  0  0  0  0  0  0
   -3.6897    2.6313    0.4645 O   0  0  0  0  0  0  0  0  0  0  0  0
   -6.0096    1.1017    0.4864 O   0  0  0  0  0  0  0  0  0  0  0  0
    0.1004   -0.6693   -0.3155 N   0  0  0  0  0  0  0  0  0  0  0  0
    2.5663    0.6873   -0.4616 N   0  0  0  0  0  0  0  0  0  0  0  0
   -1.0544   -2.7414   -0.4717 N   0  0  0  0  0  0  0  0  0  0  0  0
   -3.4525   -2.8462   -0.2591 N   0  0  0  0  0  0  0  0  0  0  0  0
    1.1490   -0.9800    0.6661 C   0  0  0  0  0  0  0  0  0  0  0  0
    0.5658   -0.1549   -1.6138 C   0  0  0  0  0  0  0  0  0  0  0  0
    2.0893    0.2125    0.8373 C   0  0  0  0  0  0  0  0  0  0  0  0
    1.5094    1.0277   -1.4084 C   0  0  0  0  0  0  0  0  0  0  0  0
   -1.1014   -1.3860   -0.2941 C   0  0  0  0  0  0  0  0  0  0  0  0
    3.9109    0.8536   -0.7971 C   0  0  0  0  0  0  0  0  0  0  0  0
   -2.3385   -0.7286   -0.0936 C   0  0  0  0  0  0  0  0  0  0  0  0
   -3.5030   -1.5139   -0.0843 C   0  0  0  0  0  0  0  0  0  0  0  0
    6.9665    0.1658    1.1663 C   0  0  0  0  0  0  0  0  0  0  0  0
    6.1572    0.6200   -0.0516 C   0  0  0  0  0  0  0  0  0  0  0  0
   -2.4035    0.6636    0.0904 C   0  0  0  0  0  0  0  0  0  0  0  0
   -4.7211   -0.8679    0.1131 C   0  0  0  0  0  0  0  0  0  0  0  0
   -3.6342    1.2829    0.2855 C   0  0  0  0  0  0  0  0  0  0  0  0
   -2.2313   -3.3874   -0.4438 C   0  0  0  0  0  0  0  0  0  0  0  0
   -4.7939    0.5162    0.2968 C   0  0  0  0  0  0  0  0  0  0  0  0
    6.7016   -1.3051    1.4946 C   0  0  0  0  0  0  0  0  0  0  0  0
    8.4576    0.3969    0.9316 C   0  0  0  0  0  0  0  0  0  0  0  0
   -3.8354    3.4358   -0.7047 C   0  0  0  0  0  0  0  0  0  0  0  0
   -6.4692    1.2195    1.8312 C   0  0  0  0  0  0  0  0  0  0  0  0
  1 14  1  0
  1 18  1  0
  2 14  2  0
  3 21  1  0
  3 26  1  0
  4 23  1  0
  4 27  1  0
  5  9  1  0
  5 10  1  0
  5 13  1  0
  6 11  1  0
  6 12  1  0
  6 14  1  0
  7 13  2  0
  7 22  1  0
  8 16  1  0
  8 22  2  0
  9 11  1  0
 10 12  1  0
 13 15  1  0
 15 16  2  0
 15 19  1  0
 16 20  1  0
 17 18  1  0
 17 24  1  0
 17 25  1  0
 19 21  2  0
 20 23  2  0
 21 23  1  0
M  END
>  <PUBCHEM_COMPOUND_CID>  (1) 
30689

>  <PUBCHEM_CONFORMER_RMSD>  (1) 
1

>  <PUBCHEM_CONFORMER_DIVERSEORDER>  (1) 
1
29
15
18
22
26
7
8
23
9
17
14
11
3
16
28
12
21
30
10
19
6
4
27
24
13
2
5
25
20

>  <PUBCHEM_MMFF94_PARTIAL_CHARGES>  (1) 
26
1 -0.43
10 0.37
11 0.3
12 0.3
13 0.41
14 0.78
16 0.31
18 0.28
19 -0.15
2 -0.57
20 -0.15
21 0.08
22 0.47
23 0.08
26 0.28
27 0.28
3 -0.36
39 0.15
4 -0.36
40 0.15
41 0.15
5 -0.84
6 -0.66
7 -0.62
8 -0.62
9 0.37

>  <PUBCHEM_EFFECTIVE_ROTOR_COUNT>  (1) 
8.2

>  <PUBCHEM_PHARMACOPHORE_FEATURES>  (1) 
9
1 2 acceptor
1 3 acceptor
1 4 acceptor
3 17 24 25 hydrophobe
3 5 7 13 cation
3 7 8 22 cation
6 15 16 19 20 21 23 rings
6 5 6 9 10 11 12 rings
6 7 8 13 15 16 22 rings

>  <PUBCHEM_HEAVY_ATOM_COUNT>  (1) 
27

>  <PUBCHEM_ATOM_DEF_STEREO_COUNT>  (1) 
0

>  <PUBCHEM_ATOM_UDEF_STEREO_COUNT>  (1) 
0

>  <PUBCHEM_BOND_DEF_STEREO_COUNT>  (1) 
0

>  <PUBCHEM_BOND_UDEF_STEREO_COUNT>  (1) 
0

>  <PUBCHEM_ISOTOPIC_ATOM_COUNT>  (1) 
0

>  <PUBCHEM_COMPONENT_COUNT>  (1) 
1

>  <PUBCHEM_CACTVS_TAUTO_COUNT>  (1) 
1

>  <PUBCHEM_CONFORMER_ID>  (1) 
000077E100000001

>  <PUBCHEM_MMFF94_ENERGY>  (1) 
102.3972

>  <PUBCHEM_FEATURE_SELFOVERLAP>  (1) 
45.834

>  <PUBCHEM_SHAPE_FINGERPRINT>  (1) 
10165383 225 18201441351138541649
10299344 5 18114179745014213490
10319926 262 18200581610022638402
10411042 1 17908982459499647655
11135609 187 13470689222090498244
11315181 36 18262232338956155046
12107183 9 18334857204143591852
12236239 1 18041279958442671390
12422481 6 18335414613826708254
12596602 18 17023476342704801929
12616971 3 17676205810069202654
12838862 33 18340481185009242217
13073987 5 18119247505221894706
13177829 73 18408605851211988728
13583140 156 17632291319998632774
13911987 19 15984552233682906420
14251764 18 18259704523707261956
14466204 15 18412825785482386984
14739800 52 18051134997591814532
14849402 71 17969225702354956100
15021287 119 17385723599886869044
15131766 46 16011027425390949813
15183329 4 18407764737939162094
15326921 28 18119792634850681212
15461852 350 17489300945070642134
1577012 14 18187370973419819380
16120349 21 18262231098602228042
1813 80 17022905627798546222
20554085 129 17703501108550604579
21033648 29 17346607386827419388
21756936 100 18272645745153248479
23522609 53 17822311076138644804
23559900 14 17986978309315987990
23569943 247 16879324789562728242
312425 54 18337098065034128066
350125 39 18123205506759158575
3504750 166 18337094731797199118
3610482 184 17897186790896394398
3633792 109 17823115922576027983
4073 2 18115588296550306682
5104073 3 18189619517611331896
513202 73 16805592634635224318
5385378 56 18271535177958425259
58260988 114 16516256270193488291
6299153 45 18261952951766008850
7226269 152 18060416902779993984
7808743 9 18411987966306778313
9965369 4 18334852818781425178
9981440 41 18336554837354531371

>  <PUBCHEM_SHAPE_MULTIPOLES>  (1) 
512.25
18.71
2.9
1.33
31.07
0.77
0.04
-5.98
-9.2
-5.08
0.57
0.83
-0.35
-1.72

>  <PUBCHEM_SHAPE_SELFOVERLAP>  (1) 
1075.27

>  <PUBCHEM_SHAPE_VOLUME>  (1) 
287.7

>  <PUBCHEM_COORDINATE_TYPE>  (1) 
2
5
10

$$$$
