30680
     RDKit          3D

 19 19  0  0  0  0  0  0  0  0999 V2000
   -1.4876    1.2629   -1.1599 O   0  0  0  0  0  0  0  0  0  0  0  0
   -2.5240   -1.2691   -0.6684 O   0  0  0  0  0  0  0  0  0  0  0  0
    3.5690   -0.0895    0.6630 N   0  0  0  0  0  0  0  0  0  0  0  0
    5.7716    0.1628   -0.2618 N   0  0  0  0  0  0  0  0  0  0  0  0
    5.3896    0.5141    1.9576 N   0  0  0  0  0  0  0  0  0  0  0  0
   -0.6577    0.2103   -0.9166 C   0  0  0  0  0  0  0  0  0  0  0  0
   -1.1779   -1.0602   -0.6700 C   0  0  0  0  0  0  0  0  0  0  0  0
    1.5829   -0.6586   -0.6680 C   0  0  0  0  0  0  0  0  0  0  0  0
    0.7226    0.4111   -0.9155 C   0  0  0  0  0  0  0  0  0  0  0  0
   -1.4124    2.3686   -0.2621 C   0  0  0  0  0  0  0  0  0  0  0  0
   -0.3177   -2.1299   -0.4222 C   0  0  0  0  0  0  0  0  0  0  0  0
    1.0628   -1.9292   -0.4214 C   0  0  0  0  0  0  0  0  0  0  0  0
   -3.1023   -1.7604    0.5393 C   0  0  0  0  0  0  0  0  0  0  0  0
   -2.7824    3.0230   -0.1720 C   0  0  0  0  0  0  0  0  0  0  0  0
    3.0587   -0.4442   -0.6672 C   0  0  0  0  0  0  0  0  0  0  0  0
   -4.5380   -1.2670    0.6332 C   0  0  0  0  0  0  0  0  0  0  0  0
   -2.7754    4.2223    0.7587 C   0  0  0  0  0  0  0  0  0  0  0  0
   -5.2158   -1.7404    1.9065 C   0  0  0  0  0  0  0  0  0  0  0  0
    4.8339    0.1734    0.7468 C   0  0  0  0  0  0  0  0  0  0  0  0
  1  6  1  0
  1 10  1  0
  2  7  1  0
  2 13  1  0
  3 15  1  0
  3 19  2  3
  4 19  1  0
  5 19  1  0
  6  7  2  0
  6  9  1  0
  7 11  1  0
  8  9  2  0
  8 12  1  0
  8 15  1  0
 10 14  1  0
 11 12  2  0
 13 16  1  0
 14 17  1  0
 16 18  1  0
M  END
>  <PUBCHEM_COMPOUND_CID>  (1) 
30680

>  <PUBCHEM_CONFORMER_RMSD>  (1) 
0.8

>  <PUBCHEM_CONFORMER_DIVERSEORDER>  (1) 
1
106
100
86
33
83
25
10
37
72
52
27
102
35
65
44
78
3
23
61
101
28
21
97
109
99
32
29
20
49
67
22
80
81
53
36
24
41
17
6
71
13
104
7
74
107
12
82
46
51
56
19
30
79
91
50
43
85
16
62
8
103
4
108
60
87
59
34
95
69
14
42
45
54
88
18
89
11
57
5
76
75
110
98
63
64
90
73
68
93
96
92
47
39
38
31
9
105
40
15
55
58
26
66
70
48
94
84
2
77

>  <PUBCHEM_MMFF94_PARTIAL_CHARGES>  (1) 
22
1 -0.36
10 0.28
11 -0.15
12 -0.15
13 0.28
15 0.39
19 0.55
2 -0.36
20 0.15
23 0.15
24 0.15
3 -0.7
39 0.4
4 -0.85
40 0.4
41 0.4
42 0.4
5 -0.85
6 0.08
7 0.08
8 -0.14
9 -0.15

>  <PUBCHEM_EFFECTIVE_ROTOR_COUNT>  (1) 
8

>  <PUBCHEM_PHARMACOPHORE_FEATURES>  (1) 
8
1 1 acceptor
1 17 hydrophobe
1 18 hydrophobe
1 2 acceptor
1 4 donor
1 5 donor
4 3 4 5 19 cation
6 6 7 8 9 11 12 rings

>  <PUBCHEM_HEAVY_ATOM_COUNT>  (1) 
19

>  <PUBCHEM_ATOM_DEF_STEREO_COUNT>  (1) 
0

>  <PUBCHEM_ATOM_UDEF_STEREO_COUNT>  (1) 
0

>  <PUBCHEM_BOND_DEF_STEREO_COUNT>  (1) 
0

>  <PUBCHEM_BOND_UDEF_STEREO_COUNT>  (1) 
0

>  <PUBCHEM_ISOTOPIC_ATOM_COUNT>  (1) 
0

>  <PUBCHEM_COMPONENT_COUNT>  (1) 
1

>  <PUBCHEM_CACTVS_TAUTO_COUNT>  (1) 
2

>  <PUBCHEM_CONFORMER_ID>  (1) 
000077D800000001

>  <PUBCHEM_MMFF94_ENERGY>  (1) 
56.4685

>  <PUBCHEM_FEATURE_SELFOVERLAP>  (1) 
40.655

>  <PUBCHEM_SHAPE_FINGERPRINT>  (1) 
11646440 116 18262815063677706931
11796584 16 16008738152441890819
12390115 104 18270973345097174204
12403259 415 18060135441072910284
12596602 18 17530959215975503400
12788726 201 18190200016379189749
12892183 10 18335130973917468050
12930653 34 18338798905535980575
13140716 1 18120376724664242766
13540713 4 18197788699642369246
13965767 371 17408572431007165339
14178342 30 18261678047635456812
14420673 8 17831000340386941298
15142526 21 17623294866784365041
17980427 26 15122130334340120957
18915476 22 16988008176245812614
200 152 15068612808106471246
20510252 161 18341609309086112846
20645477 56 17846497045734829606
21041028 32 18336273452387276949
21049683 118 17902217924230098177
21344244 78 18126029258877847691
21637258 2 15503205838309711211
22182313 1 18270688562631701358
22182937 141 18200027339829408768
23379529 103 8068582999286016105
23402539 116 18339350976427210999
23557571 272 18342749498586435676
23845131 108 17905614294331859497
2748010 2 18266462001169236814
3060560 45 10375325336307659059
33382 64 15502370166586004859
5104073 3 18263067844067421410
633830 44 14979675537840056206
69474 34 18270680990862586889

>  <PUBCHEM_SHAPE_MULTIPOLES>  (1) 
364.33
10.56
3.59
1.35
10.25
4.69
0.57
-1.16
6.92
-6.29
0.6
0.13
-0.13
1.32

>  <PUBCHEM_SHAPE_SELFOVERLAP>  (1) 
727.52

>  <PUBCHEM_SHAPE_VOLUME>  (1) 
214.5

>  <PUBCHEM_COORDINATE_TYPE>  (1) 
2
5
10

$$$$
