30690
     RDKit          3D

 28 30  0  0  0  0  0  0  0  0999 V2000
    4.5271    0.3859   -0.0176 O   0  0  0  0  0  0  0  0  0  0  0  0
    4.0272    1.0985   -2.1315 O   0  0  0  0  0  0  0  0  0  0  0  0
    6.4716    0.9603    1.9699 O   0  0  0  0  0  0  0  0  0  0  0  0
   -3.8789    2.6694    0.3728 O   0  0  0  0  0  0  0  0  0  0  0  0
   -6.2174    1.1768    0.5322 O   0  0  0  0  0  0  0  0  0  0  0  0
   -0.1576   -0.7191   -0.3598 N   0  0  0  0  0  0  0  0  0  0  0  0
    2.3209    0.5927   -0.6393 N   0  0  0  0  0  0  0  0  0  0  0  0
   -1.3441   -2.7791   -0.3862 N   0  0  0  0  0  0  0  0  0  0  0  0
   -3.7361   -2.8386   -0.1007 N   0  0  0  0  0  0  0  0  0  0  0  0
    0.9149   -0.9995    0.6050 C   0  0  0  0  0  0  0  0  0  0  0  0
    0.2766   -0.2723   -1.6935 C   0  0  0  0  0  0  0  0  0  0  0  0
    1.8756    0.1857    0.6934 C   0  0  0  0  0  0  0  0  0  0  0  0
    1.2415    0.9045   -1.5705 C   0  0  0  0  0  0  0  0  0  0  0  0
   -1.3677   -1.4164   -0.2707 C   0  0  0  0  0  0  0  0  0  0  0  0
    3.6573    0.7235   -1.0204 C   0  0  0  0  0  0  0  0  0  0  0  0
   -2.5896   -0.7323   -0.0661 C   0  0  0  0  0  0  0  0  0  0  0  0
    6.7719    0.0842    0.8804 C   0  0  0  0  0  0  0  0  0  0  0  0
    5.9210    0.4916   -0.3290 C   0  0  0  0  0  0  0  0  0  0  0  0
   -3.7638   -1.4991    0.0131 C   0  0  0  0  0  0  0  0  0  0  0  0
   -2.6306    0.6678    0.0546 C   0  0  0  0  0  0  0  0  0  0  0  0
    6.4613   -1.3393    1.3443 C   0  0  0  0  0  0  0  0  0  0  0  0
    8.2600    0.2239    0.5542 C   0  0  0  0  0  0  0  0  0  0  0  0
   -4.9668   -0.8267    0.2147 C   0  0  0  0  0  0  0  0  0  0  0  0
   -3.8466    1.3135    0.2555 C   0  0  0  0  0  0  0  0  0  0  0  0
   -2.5282   -3.4057   -0.2946 C   0  0  0  0  0  0  0  0  0  0  0  0
   -5.0157    0.5653    0.3356 C   0  0  0  0  0  0  0  0  0  0  0  0
   -4.0478    3.4210   -0.8280 C   0  0  0  0  0  0  0  0  0  0  0  0
   -6.6360    1.3635    1.8826 C   0  0  0  0  0  0  0  0  0  0  0  0
  1 15  1  0
  1 18  1  0
  2 15  2  0
  3 17  1  0
  4 24  1  0
  4 27  1  0
  5 26  1  0
  5 28  1  0
  6 10  1  0
  6 11  1  0
  6 14  1  0
  7 12  1  0
  7 13  1  0
  7 15  1  0
  8 14  2  0
  8 25  1  0
  9 19  1  0
  9 25  2  0
 10 12  1  0
 11 13  1  0
 14 16  1  0
 16 19  2  0
 16 20  1  0
 17 18  1  0
 17 21  1  0
 17 22  1  0
 19 23  1  0
 20 24  2  0
 23 26  2  0
 24 26  1  0
M  END
>  <PUBCHEM_COMPOUND_CID>  (1) 
30690

>  <PUBCHEM_CONFORMER_RMSD>  (1) 
1

>  <PUBCHEM_CONFORMER_DIVERSEORDER>  (1) 
1
30
16
8
52
14
9
17
51
29
28
47
13
24
32
3
42
53
19
12
31
18
26
49
23
11
27
45
35
43
5
10
39
20
36
22
37
40
25
15
6
21
44
7
38
41
34
33
2
4
50
48
46

>  <PUBCHEM_MMFF94_PARTIAL_CHARGES>  (1) 
29
1 -0.43
10 0.37
11 0.37
12 0.3
13 0.3
14 0.41
15 0.78
17 0.28
18 0.28
19 0.31
2 -0.57
20 -0.15
23 -0.15
24 0.08
25 0.47
26 0.08
27 0.28
28 0.28
3 -0.68
39 0.15
4 -0.36
46 0.15
47 0.15
48 0.4
5 -0.36
6 -0.84
7 -0.66
8 -0.62
9 -0.62

>  <PUBCHEM_EFFECTIVE_ROTOR_COUNT>  (1) 
8.2

>  <PUBCHEM_PHARMACOPHORE_FEATURES>  (1) 
11
1 2 acceptor
1 3 acceptor
1 3 donor
1 4 acceptor
1 5 acceptor
3 17 21 22 hydrophobe
3 6 8 14 cation
3 8 9 25 cation
6 16 19 20 23 24 26 rings
6 6 7 10 11 12 13 rings
6 8 9 14 16 19 25 rings

>  <PUBCHEM_HEAVY_ATOM_COUNT>  (1) 
28

>  <PUBCHEM_ATOM_DEF_STEREO_COUNT>  (1) 
0

>  <PUBCHEM_ATOM_UDEF_STEREO_COUNT>  (1) 
0

>  <PUBCHEM_BOND_DEF_STEREO_COUNT>  (1) 
0

>  <PUBCHEM_BOND_UDEF_STEREO_COUNT>  (1) 
0

>  <PUBCHEM_ISOTOPIC_ATOM_COUNT>  (1) 
0

>  <PUBCHEM_COMPONENT_COUNT>  (1) 
1

>  <PUBCHEM_CACTVS_TAUTO_COUNT>  (1) 
1

>  <PUBCHEM_CONFORMER_ID>  (1) 
000077E200000001

>  <PUBCHEM_MMFF94_ENERGY>  (1) 
110.8092

>  <PUBCHEM_FEATURE_SELFOVERLAP>  (1) 
55.984

>  <PUBCHEM_SHAPE_FINGERPRINT>  (1) 
10165383 225 18272937090508293497
10299344 5 18113336415248052858
10319926 262 18271237330929788290
10411042 1 17908420604852557535
10554248 39 14764352669936416428
11135609 187 13758356639624962181
11315181 36 18261390112949090870
12107183 9 18334013878593219004
12236239 1 17968097563830252094
12422481 6 18261387798673978902
12596602 18 16878517829321218041
12616971 3 17603586365468239854
12838862 33 18411694349922278189
13177829 73 18407762525661648182
13583140 156 17703504488985148462
14251764 18 18113339739072659772
14251764 30 14201400495161846410
14466204 15 18411982459947792696
14849402 71 17968383476379462572
15021287 119 17312822680277410724
15131766 46 15938970931038619045
15183329 4 17894623778069126814
15326921 28 18118386363657672205
15348495 7 18200869695170256136
15461852 350 17560515209257974574
1577012 14 18114471153274535532
1813 80 16877664544073891814
20554085 129 17774715377254437307
21033648 29 17561092414065413324
21365058 113 13984666936886898334
21623969 137 15213013835230536744
21756936 100 18271802415571684799
23081809 10 18041846237233325702
23522609 53 17677352558275412556
23559900 14 18058191478360499926
23569943 247 16806142403629816746
25147074 1 17967820504728788236
312425 54 18337099155924283114
3504750 166 18335969931280678030
3633792 109 17822835547163699103
397830 11 17773589619729874738
4073 2 18188491406371617874
5104073 3 18115875276846765928
513202 73 16588013585560140598
5364581 5 17984974045531713784
5385378 56 18270409278104356123
58083652 198 16950275260868792492
58260988 114 16371580331287667459
6299153 45 18261108522430146242
7226269 152 18131631166972555576
7808743 9 18411145736205135397
9981440 41 18336274457636692203

>  <PUBCHEM_SHAPE_MULTIPOLES>  (1) 
526.96
19.41
2.85
1.43
28.74
0.79
0.04
-6.27
-9.47
-5.49
0.43
1.17
-0.52
-1.32

>  <PUBCHEM_SHAPE_SELFOVERLAP>  (1) 
1110.08

>  <PUBCHEM_SHAPE_VOLUME>  (1) 
295

>  <PUBCHEM_COORDINATE_TYPE>  (1) 
2
5
10

$$$$
