30700
     RDKit          3D

 16 16  0  0  0  0  0  0  0  0999 V2000
   -3.5696   -0.5235    0.0109 O   0  0  0  0  0  0  0  0  0  0  0  0
   -3.4337    1.7115    0.5449 O   0  0  0  0  0  0  0  0  0  0  0  0
    4.5693   -0.4648    0.2431 N   0  0  0  0  0  0  0  0  0  0  0  0
    2.6413    0.0327   -0.7005 N   0  0  0  0  0  0  0  0  0  0  0  0
    3.2154   -0.2925    0.3616 N   0  0  0  0  0  0  0  0  0  0  0  0
   -1.4668    0.4902   -0.0250 C   0  0  0  0  0  0  0  0  0  0  0  0
    1.2696    0.1851   -0.4745 C   0  0  0  0  0  0  0  0  0  0  0  0
   -0.6095    1.5799    0.1267 C   0  0  0  0  0  0  0  0  0  0  0  0
   -0.9561   -0.7521   -0.4014 C   0  0  0  0  0  0  0  0  0  0  0  0
    0.7587    1.4274   -0.0981 C   0  0  0  0  0  0  0  0  0  0  0  0
    0.4121   -0.9047   -0.6261 C   0  0  0  0  0  0  0  0  0  0  0  0
   -2.8932    0.6494    0.2091 C   0  0  0  0  0  0  0  0  0  0  0  0
   -4.9870   -0.4946    0.2101 C   0  0  0  0  0  0  0  0  0  0  0  0
   -5.5503   -1.8746   -0.0547 C   0  0  0  0  0  0  0  0  0  0  0  0
    5.3677    0.2713   -0.7219 C   0  0  0  0  0  0  0  0  0  0  0  0
    5.2321   -1.0406    1.3957 C   0  0  0  0  0  0  0  0  0  0  0  0
  1 12  1  0
  1 13  1  0
  2 12  2  0
  3  5  1  0
  3 15  1  0
  3 16  1  0
  4  5  2  0
  4  7  1  0
  6  8  2  0
  6  9  1  0
  6 12  1  0
  7 10  2  0
  7 11  1  0
  8 10  1  0
  9 11  2  0
 13 14  1  0
M  END
>  <PUBCHEM_COMPOUND_CID>  (1) 
30700

>  <PUBCHEM_CONFORMER_RMSD>  (1) 
0.6

>  <PUBCHEM_CONFORMER_DIVERSEORDER>  (1) 
1
26
27
30
17
29
6
16
3
9
10
31
25
32
20
8
4
22
18
19
13
28
11
23
33
5
34
15
21
12
36
2
24
35
14
7

>  <PUBCHEM_MMFF94_PARTIAL_CHARGES>  (1) 
19
1 -0.43
10 -0.15
11 -0.15
12 0.63
13 0.28
15 0.3
16 0.3
17 0.15
18 0.15
19 0.15
2 -0.57
20 0.15
3 -0.54
4 -0.18
5 -0.06
6 0.09
7 0.18
8 -0.15
9 -0.15

>  <PUBCHEM_EFFECTIVE_ROTOR_COUNT>  (1) 
5

>  <PUBCHEM_PHARMACOPHORE_FEATURES>  (1) 
2
1 2 acceptor
6 6 7 8 9 10 11 rings

>  <PUBCHEM_HEAVY_ATOM_COUNT>  (1) 
16

>  <PUBCHEM_ATOM_DEF_STEREO_COUNT>  (1) 
0

>  <PUBCHEM_ATOM_UDEF_STEREO_COUNT>  (1) 
0

>  <PUBCHEM_BOND_DEF_STEREO_COUNT>  (1) 
0

>  <PUBCHEM_BOND_UDEF_STEREO_COUNT>  (1) 
0

>  <PUBCHEM_ISOTOPIC_ATOM_COUNT>  (1) 
0

>  <PUBCHEM_COMPONENT_COUNT>  (1) 
1

>  <PUBCHEM_CACTVS_TAUTO_COUNT>  (1) 
1

>  <PUBCHEM_CONFORMER_ID>  (1) 
000077EC00000001

>  <PUBCHEM_MMFF94_ENERGY>  (1) 
42.6873

>  <PUBCHEM_FEATURE_SELFOVERLAP>  (1) 
10.148

>  <PUBCHEM_SHAPE_FINGERPRINT>  (1) 
10912923 1 18187651284397153920
12236239 1 18113900455199981886
12555020 224 16660362575928445827
12596602 18 18340760473525164746
12670543 26 11891321037344307370
12839892 36 18341323409977238766
13214271 11 18130504141800150909
13288520 33 18410013234622205661
13533116 47 17894627033675345602
13675066 3 17775566412138854324
13690532 89 18333731329568417319
13760787 5 17240776072322590453
13862211 1 18410852183305979087
14123238 8 18187086156868673420
14251752 14 17676477321064645445
14252887 29 17560813107978784126
14911166 2 11530484432332492511
17834072 33 18187085083021354390
17862501 102 18409448098493650259
187816 3 12685092579138856254
18785283 64 17130129022011893448
200 152 17168142334339238421
20028762 73 17988360502717328479
20621476 66 9655579625516993943
20645477 56 16702008773959416040
20645477 70 16443336547543936618
21267235 1 18341342161788031391
21501925 9 18413390947148624517
21637258 2 17458330936653121538
22079108 93 15554439725741587606
22224240 67 16128658570416760647
2297311 6 17988374697683720852
23402539 116 17531245037448639485
23536379 177 16805600361175907359
23557571 272 17703242748966243324
23559900 14 17096090319453603165
3286 77 18409448128595630629
449060 50 16200430269339081172
465052 167 18335425698361871502
474229 33 18343303682121663711
5104073 3 18271253841142835617
5374978 207 18412257342603235480
573450 72 18261670372450043896
76465 3 18260543442072615067

>  <PUBCHEM_SHAPE_MULTIPOLES>  (1) 
302.59
12.32
1.54
0.87
2.87
0.18
0.11
-5.64
1.94
-1.39
0.17
0.88
-0.14
-0.9

>  <PUBCHEM_SHAPE_SELFOVERLAP>  (1) 
613.408

>  <PUBCHEM_SHAPE_VOLUME>  (1) 
178.3

>  <PUBCHEM_COORDINATE_TYPE>  (1) 
2
5
10

$$$$
