30713
     RDKit          3D

 19 21  0  0  0  0  0  0  0  0999 V2000
    4.4373   -1.9254    0.0006 O   0  0  0  0  0  0  0  0  0  0  0  0
    1.0634    0.6760   -0.0011 N   0  0  0  0  0  0  0  0  0  0  0  0
    1.7248    1.8525    0.0009 N   0  0  0  0  0  0  0  0  0  0  0  0
   -0.9537   -0.5314   -0.0018 N   0  0  0  0  0  0  0  0  0  0  0  0
   -2.3557    1.8674   -0.0007 N   0  0  0  0  0  0  0  0  0  0  0  0
    1.9009   -0.4096   -0.0014 C   0  0  0  0  0  0  0  0  0  0  0  0
    3.1797    0.0916    0.0005 C   0  0  0  0  0  0  0  0  0  0  0  0
   -0.3198    0.6551   -0.0027 C   0  0  0  0  0  0  0  0  0  0  0  0
    3.0100    1.4891    0.0017 C   0  0  0  0  0  0  0  0  0  0  0  0
    1.4071   -1.8022   -0.0039 C   0  0  0  0  0  0  0  0  0  0  0  0
   -2.2983   -0.5230   -0.0004 C   0  0  0  0  0  0  0  0  0  0  0  0
   -3.0082    0.6916    0.0002 C   0  0  0  0  0  0  0  0  0  0  0  0
    4.3907   -0.6719    0.0009 C   0  0  0  0  0  0  0  0  0  0  0  0
   -1.0109    1.8374   -0.0021 C   0  0  0  0  0  0  0  0  0  0  0  0
   -3.0071   -1.7221    0.0003 C   0  0  0  0  0  0  0  0  0  0  0  0
   -4.4009    0.6623    0.0017 C   0  0  0  0  0  0  0  0  0  0  0  0
    5.7421    0.0462    0.0029 C   0  0  0  0  0  0  0  0  0  0  0  0
   -4.4007   -1.7404    0.0018 C   0  0  0  0  0  0  0  0  0  0  0  0
   -5.1006   -0.5430    0.0026 C   0  0  0  0  0  0  0  0  0  0  0  0
  1 13  2  0
  2  3  1  0
  2  6  1  0
  2  8  1  0
  3  9  2  0
  4  8  2  0
  4 11  1  0
  5 12  1  0
  5 14  2  0
  6  7  2  0
  6 10  1  0
  7  9  1  0
  7 13  1  0
  8 14  1  0
 11 12  2  0
 11 15  1  0
 12 16  1  0
 13 17  1  0
 15 18  2  0
 16 19  2  0
 18 19  1  0
M  END
>  <PUBCHEM_COMPOUND_CID>  (1) 
30713

>  <PUBCHEM_CONFORMER_RMSD>  (1) 
0.6

>  <PUBCHEM_CONFORMER_DIVERSEORDER>  (1) 
1
7
6
3
8
4
9
2
5

>  <PUBCHEM_MMFF94_PARTIAL_CHARGES>  (1) 
25
1 -0.57
10 0.18
11 0.31
12 0.31
13 0.6
14 0.16
15 -0.15
16 -0.15
17 0.06
18 -0.15
19 -0.15
2 0.59
20 0.15
24 0.15
25 0.15
26 0.15
3 -0.71
30 0.15
31 0.15
4 -0.62
5 -0.62
6 -0.33
7 -0.09
8 0.29
9 0.14

>  <PUBCHEM_EFFECTIVE_ROTOR_COUNT>  (1) 
2

>  <PUBCHEM_PHARMACOPHORE_FEATURES>  (1) 
7
1 1 acceptor
1 3 acceptor
1 5 acceptor
3 2 4 8 cation
5 2 3 6 7 9 rings
6 11 12 15 16 18 19 rings
6 4 5 8 11 12 14 rings

>  <PUBCHEM_HEAVY_ATOM_COUNT>  (1) 
19

>  <PUBCHEM_ATOM_DEF_STEREO_COUNT>  (1) 
0

>  <PUBCHEM_ATOM_UDEF_STEREO_COUNT>  (1) 
0

>  <PUBCHEM_BOND_DEF_STEREO_COUNT>  (1) 
0

>  <PUBCHEM_BOND_UDEF_STEREO_COUNT>  (1) 
0

>  <PUBCHEM_ISOTOPIC_ATOM_COUNT>  (1) 
0

>  <PUBCHEM_COMPONENT_COUNT>  (1) 
1

>  <PUBCHEM_CACTVS_TAUTO_COUNT>  (1) 
2

>  <PUBCHEM_CONFORMER_ID>  (1) 
000077F900000001

>  <PUBCHEM_MMFF94_ENERGY>  (1) 
52.345

>  <PUBCHEM_FEATURE_SELFOVERLAP>  (1) 
35.559

>  <PUBCHEM_SHAPE_FINGERPRINT>  (1) 
10616163 171 18412265042973591119
11806522 49 18408604756021701998
12107183 9 17761492487278065810
12236239 1 17894348865374838552
12403259 226 18410849966939544832
13167823 11 18409446994328430491
13288520 33 18411983554789718525
13675066 3 18060693992431233280
13862211 1 18410569595784993642
14115302 16 17749117724141064175
14341114 176 18411706465164644466
15196674 1 18410574019732813537
15352361 1 18410855460128161798
15536298 74 18341330075786925120
17804303 29 18413390942721872797
17834072 33 18334860545580623636
1813 80 17458347433327028596
18186145 218 17603576469794913713
19141452 34 18272372005697831687
200 152 18202280308010731361
20261772 1 17988921205943306982
20374829 77 18408037420642966363
20645477 70 18411138051997095982
21267235 1 18410018762424762395
21709351 56 18261105287866156853
221490 88 18263369251079770088
2297311 6 18201167585132352196
23402539 116 18334852822685905015
23559900 14 18411411843135103713
26918003 58 18343300370727875265
2871803 45 18333725832094869291
3004659 81 18259989250127339462
335352 9 18410855452350851245
350125 39 18411138060882689388
3545911 37 18410856551060410989
4214541 1 18410573963988136833
4921388 177 16081380695286813699
5104073 3 18413108372380731577
559249 180 18262512576897881963
67856867 119 18262519324798348036
77779 3 18410294730873422509
8809292 202 18261396675822623595
9709674 26 18335987570521101283

>  <PUBCHEM_SHAPE_MULTIPOLES>  (1) 
365.22
11.2
2.05
0.59
3.47
0.01
0
3.32
-0.01
-0.25
0
-0.02
0.01
0

>  <PUBCHEM_SHAPE_SELFOVERLAP>  (1) 
811.073

>  <PUBCHEM_SHAPE_VOLUME>  (1) 
196.7

>  <PUBCHEM_COORDINATE_TYPE>  (1) 
2
5
10

$$$$
