30711
     RDKit          3D

 27 30  0  0  0  0  0  0  0  0999 V2000
   -1.0034    2.0802    2.7757 S   0  0  0  0  0  0  0  0  0  0  0  0
   -5.5397   -0.7150   -0.5170 O   0  0  0  0  0  0  0  0  0  0  0  0
   -0.3209    0.2947   -1.8382 O   0  0  0  0  0  0  0  0  0  0  0  0
   -3.1046    0.7532   -0.6433 N   0  0  0  0  0  0  0  0  0  0  0  0
   -0.9350    1.2127    0.2120 N   0  0  0  0  0  0  0  0  0  0  0  0
    0.8224    0.6466    1.5053 N   0  0  0  0  0  0  0  0  0  0  0  0
    1.0898    0.0407    0.1610 C   0  0  0  0  0  0  0  0  0  0  0  0
   -2.2026    1.8084   -0.1865 C   0  0  0  0  0  0  0  0  0  0  0  0
   -0.1323    0.5087   -0.6479 C   0  0  0  0  0  0  0  0  0  0  0  0
   -3.3648   -0.2129    0.4331 C   0  0  0  0  0  0  0  0  0  0  0  0
   -4.3706    1.3218   -1.1264 C   0  0  0  0  0  0  0  0  0  0  0  0
    1.1695   -1.4829    0.3493 C   0  0  0  0  0  0  0  0  0  0  0  0
    2.3563    0.6073   -0.5035 C   0  0  0  0  0  0  0  0  0  0  0  0
   -0.3164    1.2522    1.4139 C   0  0  0  0  0  0  0  0  0  0  0  0
   -4.3170   -1.2970   -0.0635 C   0  0  0  0  0  0  0  0  0  0  0  0
   -5.3000    0.2018   -1.5854 C   0  0  0  0  0  0  0  0  0  0  0  0
    2.1871   -2.0369    1.1257 C   0  0  0  0  0  0  0  0  0  0  0  0
    2.7331    0.1691   -1.7728 C   0  0  0  0  0  0  0  0  0  0  0  0
    0.2245   -2.3107   -0.2564 C   0  0  0  0  0  0  0  0  0  0  0  0
    3.1276    1.5587    0.1636 C   0  0  0  0  0  0  0  0  0  0  0  0
    2.2596   -3.4193    1.2967 C   0  0  0  0  0  0  0  0  0  0  0  0
    3.8814    0.6828   -2.3754 C   0  0  0  0  0  0  0  0  0  0  0  0
    0.2971   -3.6931   -0.0854 C   0  0  0  0  0  0  0  0  0  0  0  0
    4.2759    2.0724   -0.4389 C   0  0  0  0  0  0  0  0  0  0  0  0
    1.3145   -4.2476    0.6911 C   0  0  0  0  0  0  0  0  0  0  0  0
    4.6528    1.6344   -1.7085 C   0  0  0  0  0  0  0  0  0  0  0  0
    0.5157    2.5698    3.6218 C   0  0  0  0  0  0  0  0  0  0  0  0
  1 14  1  0
  1 27  1  0
  2 15  1  0
  2 16  1  0
  3  9  2  0
  4  8  1  0
  4 10  1  0
  4 11  1  0
  5  8  1  0
  5  9  1  0
  5 14  1  0
  6  7  1  0
  6 14  2  0
  7  9  1  0
  7 12  1  0
  7 13  1  0
 10 15  1  0
 11 16  1  0
 12 17  2  0
 12 19  1  0
 13 18  2  0
 13 20  1  0
 17 21  1  0
 18 22  1  0
 19 23  2  0
 20 24  2  0
 21 25  2  0
 22 26  2  0
 23 25  1  0
 24 26  1  0
M  END
>  <PUBCHEM_COMPOUND_CID>  (1) 
30711

>  <PUBCHEM_CONFORMER_RMSD>  (1) 
0.8

>  <PUBCHEM_CONFORMER_DIVERSEORDER>  (1) 
2
6
21
8
10
16
15
19
9
5
17
13
20
11
18
12
7
14
4
3
1

>  <PUBCHEM_MMFF94_PARTIAL_CHARGES>  (1) 
37
1 -0.37
10 0.27
11 0.27
12 -0.14
13 -0.14
14 0.65
15 0.28
16 0.28
17 -0.15
18 -0.15
19 -0.15
2 -0.56
20 -0.15
21 -0.15
22 -0.15
23 -0.15
24 -0.15
25 -0.15
26 -0.15
27 0.23
3 -0.57
38 0.15
39 0.15
4 -0.81
40 0.15
41 0.15
42 0.15
43 0.15
44 0.15
45 0.15
46 0.15
47 0.15
5 -0.42
6 -0.7
7 0.59
8 0.57
9 0.57

>  <PUBCHEM_EFFECTIVE_ROTOR_COUNT>  (1) 
6.6

>  <PUBCHEM_PHARMACOPHORE_FEATURES>  (1) 
8
1 2 acceptor
1 27 hydrophobe
1 3 acceptor
1 4 cation
5 5 6 7 9 14 rings
6 12 17 19 21 23 25 rings
6 13 18 20 22 24 26 rings
6 2 4 10 11 15 16 rings

>  <PUBCHEM_HEAVY_ATOM_COUNT>  (1) 
27

>  <PUBCHEM_ATOM_DEF_STEREO_COUNT>  (1) 
0

>  <PUBCHEM_ATOM_UDEF_STEREO_COUNT>  (1) 
0

>  <PUBCHEM_BOND_DEF_STEREO_COUNT>  (1) 
0

>  <PUBCHEM_BOND_UDEF_STEREO_COUNT>  (1) 
0

>  <PUBCHEM_ISOTOPIC_ATOM_COUNT>  (1) 
0

>  <PUBCHEM_COMPONENT_COUNT>  (1) 
1

>  <PUBCHEM_CACTVS_TAUTO_COUNT>  (1) 
1

>  <PUBCHEM_CONFORMER_ID>  (1) 
000077F700000002

>  <PUBCHEM_MMFF94_ENERGY>  (1) 
68.9969

>  <PUBCHEM_FEATURE_SELFOVERLAP>  (1) 
40.597

>  <PUBCHEM_SHAPE_FINGERPRINT>  (1) 
10366900 7 18270953644482724191
10759866 29 18334574629386358375
10906281 52 16443645535363955093
11007060 377 18265918946522221004
11069576 57 18268410357665516127
11578080 2 15870884524008515276
12160290 23 17614605770155583290
12293681 160 18200883979835876352
12549972 3 14115543845358866091
12788726 201 17845951696631253152
12977781 61 16805903826322169922
13004483 165 16530597908528054714
13009979 54 17769654196308795570
131258 43 17772191904160043174
13149001 5 17841719800487019736
133893 2 17825693065903187850
13681431 1 17538581906937223350
13911987 19 18043269004884600940
14022347 108 17275095111823151541
14787075 74 18058170711718901613
14955137 171 18191293893859485394
15238133 3 17629756765492891561
15537594 2 18342457084681911151
15842332 3 17911251524152707729
18681886 176 17969783166764416508
19319366 153 18339630209468117727
20197701 30 18261114118735719990
20602899 9 18264791985220021876
21344244 181 17987819508198712102
21421861 104 18055372249021358075
21521721 280 18194695975660790897
21860390 5 16153433860918164486
22182313 1 16372162951700277777
22393880 68 18337115557554865821
22950370 63 16486987210247555773
23419403 2 17268364124743974696
23559900 14 18119511168673829755
238 59 17896618214414547126
25265897 201 11412303910463538607
298252 57 17895198873694052552
3052486 1 17974839880732774563
340366 18 17398106058988690021
345986 75 12966311296852663534
376196 1 17022905700074739253
392239 28 17699531850199984098
394222 165 17967247615946899722
404807 78 17680710629932574211
4258327 124 17608672826977190372
4340502 62 18410851096662941900
44802255 64 17461473435928643270
46194498 28 17751069220495372575
469060 322 17608683787385030739
5845 1 16963804425168061462
6669772 16 17985809644551673568
81228 2 17617134668426798866

>  <PUBCHEM_SHAPE_MULTIPOLES>  (1) 
532.82
8.56
4
2.5
8.67
4.97
1.56
-2.69
-6.46
-2.76
2.49
-0.83
-2.16
-1.51

>  <PUBCHEM_SHAPE_SELFOVERLAP>  (1) 
1139.523

>  <PUBCHEM_SHAPE_VOLUME>  (1) 
298.7

>  <PUBCHEM_COORDINATE_TYPE>  (1) 
2
5
10

$$$$
