30723
     RDKit          3D

 12 12  0  0  0  0  0  0  0  0999 V2000
    2.3479   -0.2416   -1.6887 Cl  0  0  0  0  0  0  0  0  0  0  0  0
    1.8276    0.3443    0.2012 S   0  0  0  0  0  0  0  0  0  0  0  0
    2.1389   -0.7719    1.0719 O   0  0  0  0  0  0  0  0  0  0  0  0
    2.4305    1.6515    0.3721 O   0  0  0  0  0  0  0  0  0  0  0  0
   -0.7952   -2.9582    0.2811 O   0  0  0  0  0  0  0  0  0  0  0  0
    0.0881    0.5003    0.0769 C   0  0  0  0  0  0  0  0  0  0  0  0
   -0.7324   -0.6186   -0.0660 C   0  0  0  0  0  0  0  0  0  0  0  0
   -0.4740    1.7760    0.1235 C   0  0  0  0  0  0  0  0  0  0  0  0
   -2.1151   -0.4617   -0.1626 C   0  0  0  0  0  0  0  0  0  0  0  0
   -1.8566    1.9328    0.0269 C   0  0  0  0  0  0  0  0  0  0  0  0
   -2.6772    0.8140   -0.1162 C   0  0  0  0  0  0  0  0  0  0  0  0
   -0.1823   -1.9669   -0.1201 C   0  0  0  0  0  0  0  0  0  0  0  0
  1  2  1  0
  2  3  2  0
  2  4  2  0
  2  6  1  0
  5 12  2  0
  6  7  2  0
  6  8  1  0
  7  9  1  0
  7 12  1  0
  8 10  2  0
  9 11  2  0
 10 11  1  0
M  END
>  <PUBCHEM_COMPOUND_CID>  (1) 
30723

>  <PUBCHEM_CONFORMER_RMSD>  (1) 
0.6

>  <PUBCHEM_CONFORMER_DIVERSEORDER>  (1) 
1
2

>  <PUBCHEM_MMFF94_PARTIAL_CHARGES>  (1) 
17
1 -0.19
10 -0.15
11 -0.15
12 0.42
13 0.15
14 0.15
15 0.15
16 0.15
17 0.06
2 1.49
3 -0.65
4 -0.65
5 -0.57
6 -0.01
7 0.09
8 -0.15
9 -0.15

>  <PUBCHEM_EFFECTIVE_ROTOR_COUNT>  (1) 
2

>  <PUBCHEM_PHARMACOPHORE_FEATURES>  (1) 
2
1 5 acceptor
6 6 7 8 9 10 11 rings

>  <PUBCHEM_HEAVY_ATOM_COUNT>  (1) 
12

>  <PUBCHEM_ATOM_DEF_STEREO_COUNT>  (1) 
0

>  <PUBCHEM_ATOM_UDEF_STEREO_COUNT>  (1) 
0

>  <PUBCHEM_BOND_DEF_STEREO_COUNT>  (1) 
0

>  <PUBCHEM_BOND_UDEF_STEREO_COUNT>  (1) 
0

>  <PUBCHEM_ISOTOPIC_ATOM_COUNT>  (1) 
0

>  <PUBCHEM_COMPONENT_COUNT>  (1) 
1

>  <PUBCHEM_CACTVS_TAUTO_COUNT>  (1) 
1

>  <PUBCHEM_CONFORMER_ID>  (1) 
0000780300000001

>  <PUBCHEM_MMFF94_ENERGY>  (1) 
25.1687

>  <PUBCHEM_FEATURE_SELFOVERLAP>  (1) 
10.148

>  <PUBCHEM_SHAPE_FINGERPRINT>  (1) 
1 1 18193830440707565799
12423570 1 10799861133192150188
12524768 44 18200597032696329308
12716758 59 18339655506909035966
14817 1 10012782133981718078
15775835 57 18188494575276681988
16945 1 18195807362788627049
193761 8 17545597220424069473
20645476 183 17967827053826004983
20871998 184 17841151370028435822
20871998 22 17619364528809492974
21040471 1 18410011018028710156
22802520 49 18128839558383614734
23552423 10 17832149325087871263
23559900 14 18200042716798597246
241688 4 16609411988712476345
2748010 2 18410854382413390277
5084963 1 17988926613248804648
7364860 26 17766272077188063663
81228 2 18194126449954066779

>  <PUBCHEM_SHAPE_MULTIPOLES>  (1) 
235.07
3.58
2.44
0.97
0.34
1.31
0.28
-1.19
0.45
-0.5
-0.33
0.79
0.05
0.12

>  <PUBCHEM_SHAPE_SELFOVERLAP>  (1) 
470.686

>  <PUBCHEM_SHAPE_VOLUME>  (1) 
139.4

>  <PUBCHEM_COORDINATE_TYPE>  (1) 
2
5
10

$$$$
