30720
     RDKit          3D

 15 14  0  0  0  0  0  0  0  0999 V2000
   -2.2621    0.4184   -0.3445 O   0  0  0  0  0  0  0  0  0  0  0  0
    1.7387    1.2919   -0.2895 O   0  0  0  0  0  0  0  0  0  0  0  0
    1.5327   -1.4029    1.1795 O   0  0  0  0  0  0  0  0  0  0  0  0
   -1.8011   -1.5574    0.7527 O   0  0  0  0  0  0  0  0  0  0  0  0
   -0.1677    1.8268    0.8938 O   0  0  0  0  0  0  0  0  0  0  0  0
   -0.0115   -0.2894   -0.3008 C   0  0  0  0  0  0  0  0  0  0  0  0
    0.9299   -1.4226    0.1064 C   0  0  0  0  0  0  0  0  0  0  0  0
    1.0501   -2.5800   -0.8724 C   0  0  0  0  0  0  0  0  0  0  0  0
   -1.4452   -0.5773    0.1114 C   0  0  0  0  0  0  0  0  0  0  0  0
    0.4781    1.0646    0.1865 C   0  0  0  0  0  0  0  0  0  0  0  0
    1.9846   -3.6690   -0.3770 C   0  0  0  0  0  0  0  0  0  0  0  0
   -3.6497    0.2716   -0.0272 C   0  0  0  0  0  0  0  0  0  0  0  0
    2.3257    2.5401    0.0914 C   0  0  0  0  0  0  0  0  0  0  0  0
   -4.4133    1.4472   -0.5988 C   0  0  0  0  0  0  0  0  0  0  0  0
    3.7108    2.6381   -0.5116 C   0  0  0  0  0  0  0  0  0  0  0  0
  1  9  1  0
  1 12  1  0
  2 10  1  0
  2 13  1  0
  3  7  2  0
  4  9  2  0
  5 10  2  0
  6  7  1  0
  6  9  1  0
  6 10  1  0
  7  8  1  0
  8 11  1  0
 12 14  1  0
 13 15  1  0
M  END
>  <PUBCHEM_COMPOUND_CID>  (1) 
30720

>  <PUBCHEM_CONFORMER_RMSD>  (1) 
0.8

>  <PUBCHEM_CONFORMER_DIVERSEORDER>  (1) 
1
104
81
36
16
90
105
43
79
10
63
103
40
41
87
9
54
74
77
95
60
31
97
50
91
67
61
11
59
93
94
44
86
76
6
88
84
5
53
73
82
72
62
7
12
25
99
34
39
85
32
71
4
18
30
45
38
24
98
78
28
68
58
23
101
22
14
46
69
64
57
13
102
15
75
27
35
8
48
92
65
52
83
20
37
80
96
19
42
3
47
89
26
51
21
29
66
70
17
100
55
56
49
2
33

>  <PUBCHEM_MMFF94_PARTIAL_CHARGES>  (1) 
12
1 -0.43
10 0.66
12 0.28
13 0.28
2 -0.43
3 -0.57
4 -0.57
5 -0.57
6 0.18
7 0.45
8 0.06
9 0.66

>  <PUBCHEM_EFFECTIVE_ROTOR_COUNT>  (1) 
8

>  <PUBCHEM_PHARMACOPHORE_FEATURES>  (1) 
5
1 11 hydrophobe
1 3 acceptor
1 4 acceptor
1 5 acceptor
1 6 anion

>  <PUBCHEM_HEAVY_ATOM_COUNT>  (1) 
15

>  <PUBCHEM_ATOM_DEF_STEREO_COUNT>  (1) 
0

>  <PUBCHEM_ATOM_UDEF_STEREO_COUNT>  (1) 
0

>  <PUBCHEM_BOND_DEF_STEREO_COUNT>  (1) 
0

>  <PUBCHEM_BOND_UDEF_STEREO_COUNT>  (1) 
0

>  <PUBCHEM_ISOTOPIC_ATOM_COUNT>  (1) 
0

>  <PUBCHEM_COMPONENT_COUNT>  (1) 
1

>  <PUBCHEM_CACTVS_TAUTO_COUNT>  (1) 
5

>  <PUBCHEM_CONFORMER_ID>  (1) 
0000780000000001

>  <PUBCHEM_MMFF94_ENERGY>  (1) 
13.1081

>  <PUBCHEM_FEATURE_SELFOVERLAP>  (1) 
25.373

>  <PUBCHEM_SHAPE_FINGERPRINT>  (1) 
1 1 18411136973928402958
10726558 24 18337677528282610460
11833330 49 17472417647610321394
12500047 106 18052537970065005452
13380535 76 18335133254360063587
13464514 151 18410862044545589997
14508225 48 17691964860884935014
14648413 74 18408888416957756179
15042514 8 17400367140242428538
15490181 7 17836074946344197832
15848700 24 17909815553761941311
16945 1 18340218387916244058
18186145 218 18127430040269598172
20524608 308 17764313138588777324
20645476 183 17900268799309283740
20645477 70 18337380557854719031
20671657 53 17980762636555002911
20711985 344 17256244839426326466
21501502 16 18337096960826735595
21524375 3 18117832433066162381
23402539 116 17693085267497308047
23419403 2 17682726948729361266
23526114 1 18339923839111935806
25 1 18411418449058568349
2748010 2 18266473181100437198
3071541 12 18339084782959443597
3250762 1 18335151911783030195
532947 4 18342183267499715094
7364860 26 18411982420960498446
81228 2 17477210431348448283
81539 233 18335417993200949373

>  <PUBCHEM_SHAPE_MULTIPOLES>  (1) 
279.35
5.74
3.98
0.86
5.71
1.78
0.06
-4.22
-1.24
-5.12
-0.55
-0.07
0.14
0.22

>  <PUBCHEM_SHAPE_SELFOVERLAP>  (1) 
535.682

>  <PUBCHEM_SHAPE_VOLUME>  (1) 
170.7

>  <PUBCHEM_COORDINATE_TYPE>  (1) 
2
5
10

$$$$
