30725
     RDKit          3D

 15 15  0  0  0  0  0  0  0  0999 V2000
   -4.8503   -1.2188    0.7099 O   0  0  0  0  0  0  0  0  0  0  0  0
   -5.0211    1.0461    0.7961 O   0  0  0  0  0  0  0  0  0  0  0  0
    3.5251   -0.0378   -0.5831 C   0  0  0  0  0  0  0  0  0  0  0  0
    2.0780    0.0032   -0.0883 C   0  0  0  0  0  0  0  0  0  0  0  0
    4.5128   -0.0217    0.5846 C   0  0  0  0  0  0  0  0  0  0  0  0
    1.0918    0.0214   -1.2581 C   0  0  0  0  0  0  0  0  0  0  0  0
    5.9590   -0.0289    0.0900 C   0  0  0  0  0  0  0  0  0  0  0  0
   -0.3380    0.0258   -0.7812 C   0  0  0  0  0  0  0  0  0  0  0  0
    6.9435    0.0213    1.2473 C   0  0  0  0  0  0  0  0  0  0  0  0
   -0.9767    1.2356   -0.5523 C   0  0  0  0  0  0  0  0  0  0  0  0
   -0.9922   -1.1802   -0.5776 C   0  0  0  0  0  0  0  0  0  0  0  0
   -2.2996    1.2394   -0.1098 C   0  0  0  0  0  0  0  0  0  0  0  0
   -2.3151   -1.1763   -0.1352 C   0  0  0  0  0  0  0  0  0  0  0  0
   -2.9688    0.0334    0.0987 C   0  0  0  0  0  0  0  0  0  0  0  0
   -4.3483    0.0375    0.5592 C   0  0  0  0  0  0  0  0  0  0  0  0
  1 15  1  0
  2 15  2  0
  3  4  1  0
  3  5  1  0
  4  6  1  0
  5  7  1  0
  6  8  1  0
  7  9  1  0
  8 10  2  0
  8 11  1  0
 10 12  1  0
 11 13  2  0
 12 14  2  0
 13 14  1  0
 14 15  1  0
M  END
>  <PUBCHEM_COMPOUND_CID>  (1) 
30725

>  <PUBCHEM_CONFORMER_RMSD>  (1) 
0.6

>  <PUBCHEM_CONFORMER_DIVERSEORDER>  (1) 
1
66
62
70
6
56
39
38
25
3
69
58
40
59
31
67
47
20
26
53
43
19
32
24
46
21
60
36
33
22
45
14
35
34
61
4
30
18
63
9
11
49
27
5
10
57
28
16
13
37
64
55
29
50
15
44
12
65
8
68
52
54
42
23
2
48
41
51
17
7

>  <PUBCHEM_MMFF94_PARTIAL_CHARGES>  (1) 
15
1 -0.65
10 -0.15
11 -0.15
12 -0.15
13 -0.15
14 0.09
15 0.63
2 -0.57
29 0.15
30 0.15
31 0.15
32 0.15
33 0.5
6 0.14
8 -0.14

>  <PUBCHEM_EFFECTIVE_ROTOR_COUNT>  (1) 
6

>  <PUBCHEM_PHARMACOPHORE_FEATURES>  (1) 
6
1 1 acceptor
1 2 acceptor
1 9 hydrophobe
3 1 2 15 anion
5 3 4 5 6 7 hydrophobe
6 8 10 11 12 13 14 rings

>  <PUBCHEM_HEAVY_ATOM_COUNT>  (1) 
15

>  <PUBCHEM_ATOM_DEF_STEREO_COUNT>  (1) 
0

>  <PUBCHEM_ATOM_UDEF_STEREO_COUNT>  (1) 
0

>  <PUBCHEM_BOND_DEF_STEREO_COUNT>  (1) 
0

>  <PUBCHEM_BOND_UDEF_STEREO_COUNT>  (1) 
0

>  <PUBCHEM_ISOTOPIC_ATOM_COUNT>  (1) 
0

>  <PUBCHEM_COMPONENT_COUNT>  (1) 
1

>  <PUBCHEM_CACTVS_TAUTO_COUNT>  (1) 
1

>  <PUBCHEM_CONFORMER_ID>  (1) 
0000780500000001

>  <PUBCHEM_MMFF94_ENERGY>  (1) 
25.8906

>  <PUBCHEM_FEATURE_SELFOVERLAP>  (1) 
30.503

>  <PUBCHEM_SHAPE_FINGERPRINT>  (1) 
10014705 185 14836113395280359318
100836 57 15697999652477629760
106641 1 18130507530481757779
12119455 92 17060340699751221757
12236239 1 17603307059497453796
12251169 10 18411702097214468836
12507560 40 18269837523736490446
12596602 18 18334576858653512520
12670543 26 8358268037910508080
12714333 28 12607404390914530826
13214271 11 16988841696216958757
13288520 33 14129059209859739111
13551218 46 17895187749998242906
13668630 136 14490470864391413728
1420 363 15502376716975146080
14251718 22 8430314636953412632
14341114 176 18343021082554091488
14350574 20 13912325681479983070
15048467 5 15554732161432288906
15242439 84 8070025567331279590
15501527 16 17275100648325879968
15501527 24 10807932656873644836
15716309 27 17603300450096582210
17834072 8 8070029943734382963
17834076 25 13398629450925968612
17870717 6 11169911654403486848
1813 80 16878231866340891710
187816 3 9007057963259897581
19784866 240 15285362807875445238
200 152 14996281418419232116
20281389 69 16343983594351914602
20374829 77 12035448358686930468
20645477 56 17489584558851479420
20645477 70 13984658140877550328
20767249 213 15769774663073261810
20871999 31 8142096350602344102
21150785 3 13254788036607953617
21637258 2 16515681182129029514
22224240 67 17775567550590258319
2297311 6 18339653261142475756
23198884 109 10952053364045708216
23379529 103 11821856195437751305
23402539 116 18272365382567825381
23402655 69 12391516377938194116
23559900 14 18056786280740470734
26918003 58 17385446526734314313
2916195 48 17275099531386482920
300161 21 13110956531923377708
351380 3 16950277417158379594
42 15 18113622287158152686
5104073 3 18262811790073896121
542803 24 13902189283741337494
69474 34 18201718478775437768

>  <PUBCHEM_SHAPE_MULTIPOLES>  (1) 
296.95
14.24
1.14
1.03
19.16
0
0.02
0.04
-7.15
-1.34
0.02
0.44
-0.01
0.02

>  <PUBCHEM_SHAPE_SELFOVERLAP>  (1) 
596.673

>  <PUBCHEM_SHAPE_VOLUME>  (1) 
174.9

>  <PUBCHEM_COORDINATE_TYPE>  (1) 
2
5
10

$$$$
