30724
     RDKit          3D

 19 21  0  0  1  0  0  0  0  0999 V2000
   -1.4805    2.8105    0.3451 Cl  0  0  0  0  0  0  0  0  0  0  0  0
   -1.5520   -2.5062   -1.1391 Cl  0  0  0  0  0  0  0  0  0  0  0  0
   -3.5253    0.0259    0.0975 Cl  0  0  0  0  0  0  0  0  0  0  0  0
   -2.1911    0.7046   -2.3617 Cl  0  0  0  0  0  0  0  0  0  0  0  0
    2.6980    2.4679   -0.9942 Cl  0  0  0  0  0  0  0  0  0  0  0  0
   -0.5692    0.9834    2.9508 Cl  0  0  0  0  0  0  0  0  0  0  0  0
   -0.6064   -2.3135    2.0328 Cl  0  0  0  0  0  0  0  0  0  0  0  0
    2.1206   -2.6136   -0.7548 Cl  0  0  0  0  0  0  0  0  0  0  0  0
    3.8855   -0.2087    0.8101 Cl  0  0  0  0  0  0  0  0  0  0  0  0
    0.3799    1.0404   -0.7247 C   0  0  0  0  0  0  0  0  0  0  0  0
    0.3780   -0.4878   -1.1238 C   0  0  0  0  0  0  0  0  0  0  0  0
   -0.9277    1.1613    0.1345 C   0  0  0  0  0  0  0  0  0  0  0  0
   -0.9521   -1.0031   -0.4663 C   0  0  0  0  0  0  0  0  0  0  0  0
   -1.9057    0.2233   -0.6466 C   0  0  0  0  0  0  0  0  0  0  0  0
    1.7255    1.3241   -0.0261 C   0  0  0  0  0  0  0  0  0  0  0  0
   -0.7657    0.3369    1.3983 C   0  0  0  0  0  0  0  0  0  0  0  0
   -0.7858   -0.9530    1.0413 C   0  0  0  0  0  0  0  0  0  0  0  0
    1.6825   -0.9776   -0.5829 C   0  0  0  0  0  0  0  0  0  0  0  0
    2.3915   -0.0149    0.0096 C   0  0  0  0  0  0  0  0  0  0  0  0
  1 12  1  0
  2 13  1  0
  3 14  1  0
  4 14  1  0
  5 15  1  0
  6 16  1  0
  7 17  1  0
  8 18  1  0
  9 19  1  0
 10 11  1  0
 10 12  1  0
 10 15  1  0
 11 13  1  0
 11 18  1  0
 12 14  1  0
 12 16  1  0
 13 14  1  0
 13 17  1  0
 15 19  1  0
 16 17  2  0
 18 19  2  0
M  END
>  <PUBCHEM_COMPOUND_CID>  (1) 
30724

>  <PUBCHEM_CONFORMER_RMSD>  (1) 
0.6

>  <PUBCHEM_CONFORMER_DIVERSEORDER>  (1) 
1
2
3
4

>  <PUBCHEM_MMFF94_PARTIAL_CHARGES>  (1) 
14
1 -0.29
11 0.14
12 0.43
13 0.43
14 0.58
15 0.43
2 -0.29
3 -0.29
4 -0.29
5 -0.29
6 -0.14
7 -0.14
8 -0.14
9 -0.14

>  <PUBCHEM_EFFECTIVE_ROTOR_COUNT>  (1) 
0.4

>  <PUBCHEM_PHARMACOPHORE_FEATURES>  (1) 
2
5 10 11 15 18 19 rings
7 10 11 12 13 14 16 17 rings

>  <PUBCHEM_HEAVY_ATOM_COUNT>  (1) 
19

>  <PUBCHEM_ATOM_DEF_STEREO_COUNT>  (1) 
0

>  <PUBCHEM_ATOM_UDEF_STEREO_COUNT>  (1) 
5

>  <PUBCHEM_BOND_DEF_STEREO_COUNT>  (1) 
0

>  <PUBCHEM_BOND_UDEF_STEREO_COUNT>  (1) 
0

>  <PUBCHEM_ISOTOPIC_ATOM_COUNT>  (1) 
0

>  <PUBCHEM_COMPONENT_COUNT>  (1) 
1

>  <PUBCHEM_CACTVS_TAUTO_COUNT>  (1) 
1

>  <PUBCHEM_CONFORMER_ID>  (1) 
0000780400000001

>  <PUBCHEM_MMFF94_ENERGY>  (1) 
77.3196

>  <PUBCHEM_FEATURE_SELFOVERLAP>  (1) 
10.322

>  <PUBCHEM_SHAPE_FINGERPRINT>  (1) 
10863032 1 18118122695603710065
10948715 1 18188208809585282301
11578080 2 17483671583107588913
12423570 1 8033189157272727269
13024252 1 16081088164536631773
13140716 1 18268423710559751554
14142880 1 16406184903812661770
144361 1 17543049630191041543
14713566 1 18265307586963446215
14817 1 13416050430419834745
15881359 60 18264219152141177611
16945 1 18271231768519930300
18981168 100 13829312484673624946
20600515 1 15267050501712561309
21501502 16 18191863637601407766
2334 1 17979913031936269772
23419403 2 16983182660087246543
23559900 14 18261662736852513112
2748010 2 18122912198593555692
5845 1 8158902746704702465

>  <PUBCHEM_SHAPE_MULTIPOLES>  (1) 
407.84
4.28
2.88
2.14
2.19
0.28
-1.1
-0.45
0.67
0.38
0.22
-0.94
0
-0.18

>  <PUBCHEM_SHAPE_SELFOVERLAP>  (1) 
815.875

>  <PUBCHEM_SHAPE_VOLUME>  (1) 
237.5

>  <PUBCHEM_COORDINATE_TYPE>  (1) 
2
5
10

$$$$
