3073
     RDKit          3D

 11 10  0  0  0  0  0  0  0  0999 V2000
    0.0052   -0.2661    0.1593 P   0  0  0  0  0  0  0  0  0  0  0  0
   -1.2744    0.6444   -0.2328 O   0  0  0  0  0  0  0  0  0  0  0  0
    1.2730    0.6550   -0.2461 O   0  0  0  0  0  0  0  0  0  0  0  0
   -0.0071   -1.6239   -0.4826 O   0  0  0  0  0  0  0  0  0  0  0  0
   -2.5821    0.2703    0.1623 C   0  0  0  0  0  0  0  0  0  0  0  0
    2.5715    0.2523    0.1522 C   0  0  0  0  0  0  0  0  0  0  0  0
    0.0200   -0.3139    1.9413 C   0  0  0  0  0  0  0  0  0  0  0  0
   -3.5738    1.3069   -0.3435 C   0  0  0  0  0  0  0  0  0  0  0  0
   -2.8900   -1.1186   -0.3761 C   0  0  0  0  0  0  0  0  0  0  0  0
    2.8790   -1.1111   -0.4482 C   0  0  0  0  0  0  0  0  0  0  0  0
    3.5787    1.3047   -0.2858 C   0  0  0  0  0  0  0  0  0  0  0  0
  1  2  1  0
  1  3  1  0
  1  4  2  0
  1  7  1  0
  2  5  1  0
  3  6  1  0
  5  8  1  0
  5  9  1  0
  6 10  1  0
  6 11  1  0
M  END
>  <PUBCHEM_COMPOUND_CID>  (1) 
3073

>  <PUBCHEM_CONFORMER_RMSD>  (1) 
0.6

>  <PUBCHEM_CONFORMER_DIVERSEORDER>  (1) 
1
7
8
6
4
2
3
5

>  <PUBCHEM_MMFF94_PARTIAL_CHARGES>  (1) 
6
1 1.24
2 -0.55
3 -0.55
4 -0.7
5 0.28
6 0.28

>  <PUBCHEM_EFFECTIVE_ROTOR_COUNT>  (1) 
4

>  <PUBCHEM_PHARMACOPHORE_FEATURES>  (1) 
3
1 4 acceptor
3 5 8 9 hydrophobe
3 6 10 11 hydrophobe

>  <PUBCHEM_HEAVY_ATOM_COUNT>  (1) 
11

>  <PUBCHEM_ATOM_DEF_STEREO_COUNT>  (1) 
0

>  <PUBCHEM_ATOM_UDEF_STEREO_COUNT>  (1) 
0

>  <PUBCHEM_BOND_DEF_STEREO_COUNT>  (1) 
0

>  <PUBCHEM_BOND_UDEF_STEREO_COUNT>  (1) 
0

>  <PUBCHEM_ISOTOPIC_ATOM_COUNT>  (1) 
0

>  <PUBCHEM_COMPONENT_COUNT>  (1) 
1

>  <PUBCHEM_CACTVS_TAUTO_COUNT>  (1) 
1

>  <PUBCHEM_CONFORMER_ID>  (1) 
00000C0100000001

>  <PUBCHEM_MMFF94_ENERGY>  (1) 
13.1918

>  <PUBCHEM_FEATURE_SELFOVERLAP>  (1) 
15.223

>  <PUBCHEM_SHAPE_FINGERPRINT>  (1) 
12897270 3 18342738485936873301
12932764 1 17458618974070665847
14325111 11 18411700993170451252
15775835 57 18186800274897080693
170605 34 18114462271282082529
18186145 218 17703796928738844864
20281407 28 13183025098563744028
20645477 70 18272653389868403758
20653085 51 18335149686535757432
20711983 171 18342175570232459845
21293036 1 17704076243515693576
23402539 116 18260537944694038644
23402655 69 18413109442028255596
276578 36 16443064967691652632
3248919 1 17275110491879323495
528886 8 18341607096998438409

>  <PUBCHEM_SHAPE_MULTIPOLES>  (1) 
212.62
6.2
1.44
1.05
0.04
0.07
0.65
-1.95
-1.38
0.01
-0.29
-0.01
0.19
0.04

>  <PUBCHEM_SHAPE_SELFOVERLAP>  (1) 
375.259

>  <PUBCHEM_SHAPE_VOLUME>  (1) 
141.4

>  <PUBCHEM_COORDINATE_TYPE>  (1) 
2
5
10

$$$$
