30749
     RDKit          3D

 21 22  0  0  0  0  0  0  0  0999 V2000
   -6.6072   -0.1311   -0.2225 O   0  0  0  0  0  0  0  0  0  0  0  0
    6.0393   -0.5070    0.1697 N   0  0  0  0  0  0  0  0  0  0  0  0
   -4.5079   -1.1365    0.1525 N   0  0  0  0  0  0  0  0  0  0  0  0
    0.5634    0.3705   -0.5992 N   0  0  0  0  0  0  0  0  0  0  0  0
    0.0024    0.5730    0.5033 N   0  0  0  0  0  0  0  0  0  0  0  0
    4.6596   -0.2861   -0.0238 C   0  0  0  0  0  0  0  0  0  0  0  0
    3.7717   -1.3619   -0.0067 C   0  0  0  0  0  0  0  0  0  0  0  0
    4.1830    1.0082   -0.2325 C   0  0  0  0  0  0  0  0  0  0  0  0
    1.9310    0.1507   -0.4069 C   0  0  0  0  0  0  0  0  0  0  0  0
    2.4075   -1.1435   -0.1983 C   0  0  0  0  0  0  0  0  0  0  0  0
    2.8188    1.2265   -0.4239 C   0  0  0  0  0  0  0  0  0  0  0  0
    6.6479   -1.7553   -0.2446 C   0  0  0  0  0  0  0  0  0  0  0  0
    6.8688    0.5172    0.7728 C   0  0  0  0  0  0  0  0  0  0  0  0
   -3.6183   -0.0618    0.1352 C   0  0  0  0  0  0  0  0  0  0  0  0
   -1.3719    0.7941    0.3094 C   0  0  0  0  0  0  0  0  0  0  0  0
   -2.2543   -0.2819    0.3271 C   0  0  0  0  0  0  0  0  0  0  0  0
   -4.0932    1.2332   -0.0733 C   0  0  0  0  0  0  0  0  0  0  0  0
   -1.8404    2.0878    0.1017 C   0  0  0  0  0  0  0  0  0  0  0  0
   -3.2042    2.3079   -0.0902 C   0  0  0  0  0  0  0  0  0  0  0  0
   -5.8984   -1.1115   -0.0190 C   0  0  0  0  0  0  0  0  0  0  0  0
   -6.4976   -2.4926    0.0692 C   0  0  0  0  0  0  0  0  0  0  0  0
  1 20  2  0
  2  6  1  0
  2 12  1  0
  2 13  1  0
  3 14  1  0
  3 20  1  0
  4  5  2  0
  4  9  1  0
  5 15  1  0
  6  7  2  0
  6  8  1  0
  7 10  1  0
  8 11  2  0
  9 10  2  0
  9 11  1  0
 14 16  2  0
 14 17  1  0
 15 16  1  0
 15 18  2  0
 17 19  2  0
 18 19  1  0
 20 21  1  0
M  END
>  <PUBCHEM_COMPOUND_CID>  (1) 
30749

>  <PUBCHEM_CONFORMER_RMSD>  (1) 
0.8

>  <PUBCHEM_CONFORMER_DIVERSEORDER>  (1) 
1
4
6
5
3
2
7

>  <PUBCHEM_MMFF94_PARTIAL_CHARGES>  (1) 
30
1 -0.57
10 -0.15
11 -0.15
12 0.37
13 0.37
14 0.12
15 0.18
16 -0.15
17 -0.15
18 -0.15
19 -0.15
2 -0.84
20 0.57
21 0.06
22 0.15
23 0.15
24 0.15
25 0.15
3 -0.55
32 0.15
33 0.15
34 0.15
35 0.15
36 0.37
4 -0.18
5 -0.18
6 0.1
7 -0.15
8 -0.15
9 0.18

>  <PUBCHEM_EFFECTIVE_ROTOR_COUNT>  (1) 
5

>  <PUBCHEM_PHARMACOPHORE_FEATURES>  (1) 
5
1 1 acceptor
1 2 cation
1 3 donor
6 14 15 16 17 18 19 rings
6 6 7 8 9 10 11 rings

>  <PUBCHEM_HEAVY_ATOM_COUNT>  (1) 
21

>  <PUBCHEM_ATOM_DEF_STEREO_COUNT>  (1) 
0

>  <PUBCHEM_ATOM_UDEF_STEREO_COUNT>  (1) 
0

>  <PUBCHEM_BOND_DEF_STEREO_COUNT>  (1) 
0

>  <PUBCHEM_BOND_UDEF_STEREO_COUNT>  (1) 
0

>  <PUBCHEM_ISOTOPIC_ATOM_COUNT>  (1) 
0

>  <PUBCHEM_COMPONENT_COUNT>  (1) 
1

>  <PUBCHEM_CACTVS_TAUTO_COUNT>  (1) 
2

>  <PUBCHEM_CONFORMER_ID>  (1) 
0000781D00000001

>  <PUBCHEM_MMFF94_ENERGY>  (1) 
75.6867

>  <PUBCHEM_FEATURE_SELFOVERLAP>  (1) 
25.371

>  <PUBCHEM_SHAPE_FINGERPRINT>  (1) 
10354089 29 12175622875999154918
10595046 47 18335141981770824512
106641 1 16916783032621495010
11315181 36 17531253871763824401
11524674 6 16630808824756008263
12107183 9 17471289557391562216
12166972 35 18113903779442028484
12236239 1 18334296465586508276
12596602 18 18131633357584958440
12616971 3 16558742442713974648
12760667 363 18409733984881913003
13167823 11 18409729534583468702
13288520 33 18410575085449198909
13533116 47 18335423508281829052
13668630 136 18260547826939273286
13862211 1 18340488967273315087
13914758 101 16877933906873438605
1420 363 18202284697425148934
14251732 16 18413106173800612888
14251764 18 17967534580419237248
15183329 4 10881673590671609332
15716309 27 17917990572605567151
17492 89 18268995284639406390
1768 4 16844995940804995832
17834072 8 11458422431869037416
17844677 252 18411989048264464744
17857418 61 18407759235616687171
18681886 176 18411134736967898960
19489759 90 18114181912817715633
200 152 18342174449172285136
20028762 73 18412545414254885870
21054139 6 18113616789568839714
21130935 74 18342739568743847106
21267235 1 18410300206761416182
21315763 129 18408885118465350188
21623969 137 17561368365772528390
21709351 56 18259983747741574732
22224240 67 15985101929367070879
22896161 15 18411699911371449008
23081809 10 17676214529058697500
23198884 109 11602817995489260071
23402539 116 18333730200066228981
23522609 53 18123224326489062057
23559900 14 18263078976053232185
29717793 49 17894353280664496740
3004659 81 18040995172088535947
335352 9 18410570687977733557
34797466 226 17489594493812786292
4073 2 18114189631048039786
4214541 1 18337111172340937053
4325135 7 18411419518198976446
465052 167 18201443613710606599
474229 33 18343302574141401143
5104073 3 18200592488916258416
5283156 175 18334576837199546971
559249 180 18335419033068026093
59682541 35 18201432640754844418
5969126 39 18342166774962753845
59755656 520 16805600408568955755
67856867 119 18334297612554344724
7495541 125 17989204879922063697
9709674 26 18336558130903460883

>  <PUBCHEM_SHAPE_MULTIPOLES>  (1) 
406.38
19.04
2.12
0.69
2.98
0.08
-0.02
9.59
-0.99
-2.25
0.05
0.27
-0.04
0.26

>  <PUBCHEM_SHAPE_SELFOVERLAP>  (1) 
857.869

>  <PUBCHEM_SHAPE_VOLUME>  (1) 
229.3

>  <PUBCHEM_COORDINATE_TYPE>  (1) 
2
5
10

$$$$
