30751
     RDKit          3D

 24 26  0  0  1  0  0  0  0  0999 V2000
    3.4324    1.9535    0.2623 P   0  0  0  0  0  0  0  0  0  0  0  0
   -0.3683    3.0519   -0.5428 F   0  0  0  0  0  0  0  0  0  0  0  0
    0.7516   -1.3146    1.0400 O   0  0  0  0  0  0  0  0  0  0  0  0
    0.0712   -1.7313   -1.8849 O   0  0  0  0  0  0  0  0  0  0  0  0
    1.8932   -4.0849    0.1412 O   0  0  0  0  0  0  0  0  0  0  0  0
    2.8122    0.5343    0.7344 O   0  0  0  0  0  0  0  0  0  0  0  0
    2.4440    2.4278   -0.9265 O   0  0  0  0  0  0  0  0  0  0  0  0
    4.7765    1.5169   -0.5236 O   0  0  0  0  0  0  0  0  0  0  0  0
    3.6381    2.9528    1.3630 O   0  0  0  0  0  0  0  0  0  0  0  0
   -1.5426   -1.3887    0.4094 N   0  0  0  0  0  0  0  0  0  0  0  0
   -3.7398   -0.9805    0.4555 N   0  0  0  0  0  0  0  0  0  0  0  0
   -0.7223    0.8453   -0.0831 N   0  0  0  0  0  0  0  0  0  0  0  0
   -2.5554    2.4424   -0.2942 N   0  0  0  0  0  0  0  0  0  0  0  0
   -4.8484    1.8080   -0.0361 N   0  0  0  0  0  0  0  0  0  0  0  0
    0.2348   -2.6791   -0.8379 C   0  0  0  0  0  0  0  0  0  0  0  0
    1.7099   -2.8411   -0.5317 C   0  0  0  0  0  0  0  0  0  0  0  0
   -0.2920   -2.1348    0.4866 C   0  0  0  0  0  0  0  0  0  0  0  0
    2.0057   -1.6945    0.4373 C   0  0  0  0  0  0  0  0  0  0  0  0
    2.5873   -0.4643   -0.2452 C   0  0  0  0  0  0  0  0  0  0  0  0
   -1.6916   -0.0517    0.1520 C   0  0  0  0  0  0  0  0  0  0  0  0
   -2.8056   -1.8996    0.5836 C   0  0  0  0  0  0  0  0  0  0  0  0
   -3.0575    0.1793    0.1856 C   0  0  0  0  0  0  0  0  0  0  0  0
   -3.4807    1.4836   -0.0491 C   0  0  0  0  0  0  0  0  0  0  0  0
   -1.2529    2.0691   -0.2959 C   0  0  0  0  0  0  0  0  0  0  0  0
  1  6  1  0
  1  7  1  0
  1  8  1  0
  1  9  2  0
  2 24  1  0
  3 17  1  0
  3 18  1  0
  4 15  1  0
  5 16  1  0
  6 19  1  0
 10 17  1  0
 10 20  1  0
 10 21  1  0
 11 21  2  0
 11 22  1  0
 12 20  1  0
 12 24  2  0
 13 23  2  0
 13 24  1  0
 14 23  1  0
 15 16  1  0
 15 17  1  0
 16 18  1  0
 18 19  1  0
 20 22  2  0
 22 23  1  0
M  END
>  <PUBCHEM_COMPOUND_CID>  (1) 
30751

>  <PUBCHEM_CONFORMER_RMSD>  (1) 
0.8

>  <PUBCHEM_CONFORMER_DIVERSEORDER>  (1) 
2
13
44
19
47
39
31
48
29
34
20
49
6
17
35
25
37
24
12
27
3
42
26
18
36
38
43
46
22
1
50
10
30
41
23
45
4
33
9
40
15
16
14
28
21
5
11
7
32
8

>  <PUBCHEM_MMFF94_PARTIAL_CHARGES>  (1) 
31
1 1.51
10 0.05
11 -0.57
12 -0.57
13 -0.62
14 -0.9
15 0.28
16 0.28
17 0.54
18 0.28
19 0.28
2 -0.19
20 0.11
21 0.04
22 0.23
23 0.41
24 0.81
3 -0.56
31 0.4
32 0.4
33 0.15
34 0.4
35 0.4
36 0.5
37 0.5
4 -0.68
5 -0.68
6 -0.55
7 -0.77
8 -0.77
9 -0.7

>  <PUBCHEM_EFFECTIVE_ROTOR_COUNT>  (1) 
5

>  <PUBCHEM_PHARMACOPHORE_FEATURES>  (1) 
17
1 14 cation
1 14 donor
1 3 acceptor
1 4 acceptor
1 4 donor
1 5 acceptor
1 5 donor
1 7 acceptor
1 8 acceptor
1 9 acceptor
3 10 11 21 cation
3 10 12 20 cation
3 12 13 24 cation
4 1 7 8 9 anion
5 10 11 20 21 22 rings
5 3 15 16 17 18 rings
6 12 13 20 22 23 24 rings

>  <PUBCHEM_HEAVY_ATOM_COUNT>  (1) 
24

>  <PUBCHEM_ATOM_DEF_STEREO_COUNT>  (1) 
4

>  <PUBCHEM_ATOM_UDEF_STEREO_COUNT>  (1) 
0

>  <PUBCHEM_BOND_DEF_STEREO_COUNT>  (1) 
0

>  <PUBCHEM_BOND_UDEF_STEREO_COUNT>  (1) 
0

>  <PUBCHEM_ISOTOPIC_ATOM_COUNT>  (1) 
0

>  <PUBCHEM_COMPONENT_COUNT>  (1) 
1

>  <PUBCHEM_CACTVS_TAUTO_COUNT>  (1) 
3

>  <PUBCHEM_CONFORMER_ID>  (1) 
0000781F00000002

>  <PUBCHEM_MMFF94_ENERGY>  (1) 
18.7264

>  <PUBCHEM_FEATURE_SELFOVERLAP>  (1) 
86.914

>  <PUBCHEM_SHAPE_FINGERPRINT>  (1) 
10411042 1 16752969265428271370
10498660 4 18408888442421474933
10608611 8 18265896861030264307
10616163 171 18335704991505654457
10871710 139 18052533562816162679
10906281 52 18190476024706590491
10967382 1 18264489494741686401
1100329 8 17403461771274031521
11221954 11 18408326557651520163
11370993 70 18339636840939502112
12035759 4 17912623981395282455
12173636 292 18123746723777284926
12403259 226 17758115895770018983
12633257 1 18190456048022172346
13140716 1 18409163298890395529
138480 1 17978509737335028834
14223421 5 18335705988016902543
14787075 74 17462851209106639011
15006816 218 18410015428955192788
16945 1 17903351507838564411
17980427 23 17980443864114241362
19591789 44 18194967567542953512
20600515 1 17112981760388247132
20905425 154 18338805515463924596
21524375 3 18271249429863742842
22113638 7 17831858319267877917
23227448 37 18410571756501339607
23419403 2 15321616691378185074
23559900 14 18195802973221508259
238 59 17832953119295464101
2748010 2 18335992969558645419
350125 39 18409451354279184314
3524813 1 18200313367618821824
44154327 71 18335986393452109749
5262128 65 17555459427002139223
5939293 188 17906162954543269952
6438718 38 17411626092234467772
7097593 13 17607787423004308610
7364860 26 18268148656490576628
9709674 26 18266458703098310015
9981440 41 18335418023498056946

>  <PUBCHEM_SHAPE_MULTIPOLES>  (1) 
424.49
7.15
4.48
0.98
0.55
0.78
-0.14
-5.39
0.71
-2.55
-0.28
-0.41
0.12
0.78

>  <PUBCHEM_SHAPE_SELFOVERLAP>  (1) 
902.391

>  <PUBCHEM_SHAPE_VOLUME>  (1) 
241.1

>  <PUBCHEM_COORDINATE_TYPE>  (1) 
2
5
10

$$$$
