30759
     RDKit          3D

 19 21  0  0  1  0  0  0  0  0999 V2000
   -2.3232   -2.2050    0.8172 S   0  0  0  0  0  0  0  0  0  0  0  0
   -0.2920    0.6904   -1.8892 O   0  0  0  0  0  0  0  0  0  0  0  0
    1.6804   -0.3153   -0.2676 N   0  0  0  0  0  0  0  0  0  0  0  0
    4.2512    0.6272    0.6606 N   0  0  0  0  0  0  0  0  0  0  0  0
    0.3050   -0.7628   -0.0576 C   0  0  0  0  0  0  0  0  0  0  0  0
    1.8601    1.0605    0.2121 C   0  0  0  0  0  0  0  0  0  0  0  0
    2.6294   -1.2178    0.3957 C   0  0  0  0  0  0  0  0  0  0  0  0
    3.3030    1.5300   -0.0035 C   0  0  0  0  0  0  0  0  0  0  0  0
    4.0719   -0.7479    0.1788 C   0  0  0  0  0  0  0  0  0  0  0  0
    0.1228   -2.2044   -0.5326 C   0  0  0  0  0  0  0  0  0  0  0  0
   -0.6145    0.1653   -0.8257 C   0  0  0  0  0  0  0  0  0  0  0  0
   -1.3322   -2.6581   -0.6363 C   0  0  0  0  0  0  0  0  0  0  0  0
   -1.9665    0.4391   -0.2621 C   0  0  0  0  0  0  0  0  0  0  0  0
    5.6269    1.0749    0.4527 C   0  0  0  0  0  0  0  0  0  0  0  0
   -2.7347   -0.4909    0.4655 C   0  0  0  0  0  0  0  0  0  0  0  0
   -2.4610    1.7372   -0.4823 C   0  0  0  0  0  0  0  0  0  0  0  0
   -3.9756   -0.0704    0.9818 C   0  0  0  0  0  0  0  0  0  0  0  0
   -3.6977    2.1252    0.0281 C   0  0  0  0  0  0  0  0  0  0  0  0
   -4.4532    1.2230    0.7645 C   0  0  0  0  0  0  0  0  0  0  0  0
  1 12  1  0
  1 15  1  0
  2 11  2  0
  3  5  1  0
  3  6  1  0
  3  7  1  0
  4  8  1  0
  4  9  1  0
  4 14  1  0
  5 10  1  0
  5 11  1  0
  6  8  1  0
  7  9  1  0
 10 12  1  0
 11 13  1  0
 13 15  2  0
 13 16  1  0
 15 17  1  0
 16 18  2  0
 17 19  2  0
 18 19  1  0
M  END
>  <PUBCHEM_COMPOUND_CID>  (1) 
30759

>  <PUBCHEM_CONFORMER_RMSD>  (1) 
0.6

>  <PUBCHEM_CONFORMER_DIVERSEORDER>  (1) 
2
4
20
8
25
15
3
16
17
23
14
19
9
18
5
24
13
7
10
22
1
12
11
6
21

>  <PUBCHEM_MMFF94_PARTIAL_CHARGES>  (1) 
22
1 -0.33
11 0.42
12 0.23
13 0.09
14 0.27
15 0.1
16 -0.15
17 -0.15
18 -0.15
19 -0.15
2 -0.57
3 -0.81
36 0.15
37 0.15
38 0.15
39 0.15
4 -0.81
5 0.33
6 0.27
7 0.27
8 0.27
9 0.27

>  <PUBCHEM_EFFECTIVE_ROTOR_COUNT>  (1) 
3

>  <PUBCHEM_PHARMACOPHORE_FEATURES>  (1) 
6
1 2 acceptor
1 3 cation
1 4 cation
6 13 15 16 17 18 19 rings
6 3 4 6 7 8 9 rings
7 1 5 10 11 12 13 15 rings

>  <PUBCHEM_HEAVY_ATOM_COUNT>  (1) 
19

>  <PUBCHEM_ATOM_DEF_STEREO_COUNT>  (1) 
0

>  <PUBCHEM_ATOM_UDEF_STEREO_COUNT>  (1) 
1

>  <PUBCHEM_BOND_DEF_STEREO_COUNT>  (1) 
0

>  <PUBCHEM_BOND_UDEF_STEREO_COUNT>  (1) 
0

>  <PUBCHEM_ISOTOPIC_ATOM_COUNT>  (1) 
0

>  <PUBCHEM_COMPONENT_COUNT>  (1) 
1

>  <PUBCHEM_CACTVS_TAUTO_COUNT>  (1) 
2

>  <PUBCHEM_CONFORMER_ID>  (1) 
0000782700000002

>  <PUBCHEM_MMFF94_ENERGY>  (1) 
56.1006

>  <PUBCHEM_FEATURE_SELFOVERLAP>  (1) 
30.452

>  <PUBCHEM_SHAPE_FINGERPRINT>  (1) 
10493431 412 18410854373918160874
11132069 177 18187086139425079693
11370993 70 18338516331437674929
12077114 3 18412546530597443627
12173636 292 18342169003201116478
12251169 10 18259988175541405589
12390115 104 18270132313196305344
12403259 415 18264777558393544525
12403814 3 17894623768693026917
12500047 106 18342171189334058882
12507560 40 18335986384793259105
12633257 1 18262230010957293522
12892183 10 18040440953782606795
13004483 165 17697301181715162727
13583140 156 17202760531165576562
13675066 3 18201717379848813656
13994607 96 17417818382550005233
14178342 30 18113909298496031179
14251740 79 10807944768444244173
14341114 176 18335428941288916640
14420673 8 18263082111775296162
14787075 74 18273209799213906065
15196674 1 18411418397455248146
15209294 21 18410291428101496832
15295992 7 17917985113870907000
16945 1 18187942680948771959
17980427 23 18113625586395026893
1813 80 16298391245010068646
18186145 218 18059581252182924830
18915476 22 16988019222912461718
19862831 5 12103846756710954500
20374829 77 8935000352174202865
204376 136 18343301435980069343
20645477 56 18413106177953122752
21033648 29 18270949176841862128
21065199 12 18334298634529058233
21524375 3 18343300349453687199
21637258 2 14273748395040904257
21731228 192 18410299077639003411
21756936 100 18202274827833168596
22854114 59 18411139117075034881
23227448 37 18270961348741599116
23402539 116 18130781269853155021
23403322 49 8790884085940152073
23559900 14 18054229830111697046
27216 239 18410012156585473011
2748010 2 17899714358012941423
350125 39 18268993270183056872
474 4 18128819638478250609
474229 33 18412824699071906463
5104073 3 18335139748028914594
58807428 26 18187373073790819467
5924683 9 18269268118252485703
633830 44 17845093961175471397
69090 78 18410291406800935035
7097593 13 18114170913733654922
90316 7 17168142291437279109

>  <PUBCHEM_SHAPE_MULTIPOLES>  (1) 
379.03
9.33
2.51
1.02
8.17
1
0.2
-4.79
-3.24
-1.52
0.15
-0.38
0.01
0.28

>  <PUBCHEM_SHAPE_SELFOVERLAP>  (1) 
786.991

>  <PUBCHEM_SHAPE_VOLUME>  (1) 
216.3

>  <PUBCHEM_COORDINATE_TYPE>  (1) 
2
5
10

$$$$
