30761
     RDKit          3D

 27 29  0  0  1  0  0  0  0  0999 V2000
   -6.3352   -0.6135   -2.1195 F   0  0  0  0  0  0  0  0  0  0  0  0
   -6.6148    0.1361   -0.0883 F   0  0  0  0  0  0  0  0  0  0  0  0
   -5.4693    1.3032   -1.5346 F   0  0  0  0  0  0  0  0  0  0  0  0
    6.9507   -3.0183   -0.1101 F   0  0  0  0  0  0  0  0  0  0  0  0
    4.2025    2.5201   -1.1723 O   0  0  0  0  0  0  0  0  0  0  0  0
   -0.3072    1.4419    0.9948 N   0  0  0  0  0  0  0  0  0  0  0  0
   -2.5108   -0.5614    1.0066 C   0  0  0  0  0  0  0  0  0  0  0  0
   -3.7853    0.1327    0.4528 C   0  0  0  0  0  0  0  0  0  0  0  0
   -2.8720   -2.0148    1.4031 C   0  0  0  0  0  0  0  0  0  0  0  0
   -2.0102    0.1825    2.2703 C   0  0  0  0  0  0  0  0  0  0  0  0
   -1.3523   -0.5587   -0.0227 C   0  0  0  0  0  0  0  0  0  0  0  0
   -4.4762   -0.6502   -0.6768 C   0  0  0  0  0  0  0  0  0  0  0  0
   -3.5446   -2.8012    0.2800 C   0  0  0  0  0  0  0  0  0  0  0  0
   -4.7861   -2.0857   -0.2395 C   0  0  0  0  0  0  0  0  0  0  0  0
   -1.4046    1.5548    1.9618 C   0  0  0  0  0  0  0  0  0  0  0  0
   -0.7602    0.8343   -0.2614 C   0  0  0  0  0  0  0  0  0  0  0  0
   -5.7563    0.0618   -1.1159 C   0  0  0  0  0  0  0  0  0  0  0  0
    0.2939    2.7516    0.7447 C   0  0  0  0  0  0  0  0  0  0  0  0
    1.5093    2.6089   -0.1738 C   0  0  0  0  0  0  0  0  0  0  0  0
    2.5901    1.7072    0.4289 C   0  0  0  0  0  0  0  0  0  0  0  0
    3.8437    1.6100   -0.4291 C   0  0  0  0  0  0  0  0  0  0  0  0
    4.6724    0.3737   -0.3449 C   0  0  0  0  0  0  0  0  0  0  0  0
    4.6995   -0.3238    0.8422 C   0  0  0  0  0  0  0  0  0  0  0  0
    5.3816   -0.0243   -1.4560 C   0  0  0  0  0  0  0  0  0  0  0  0
    5.4766   -1.4794    0.9223 C   0  0  0  0  0  0  0  0  0  0  0  0
    6.1585   -1.1801   -1.3760 C   0  0  0  0  0  0  0  0  0  0  0  0
    6.2061   -1.9075   -0.1867 C   0  0  0  0  0  0  0  0  0  0  0  0
  1 17  1  0
  2 17  1  0
  3 17  1  0
  4 27  1  0
  5 21  2  0
  6 15  1  0
  6 16  1  0
  6 18  1  0
  7  8  1  0
  7  9  1  0
  7 10  1  0
  7 11  1  0
  8 12  1  0
  9 13  1  0
 10 15  1  0
 11 16  1  0
 12 14  1  0
 12 17  1  0
 13 14  1  0
 18 19  1  0
 19 20  1  0
 20 21  1  0
 21 22  1  0
 22 23  2  0
 22 24  1  0
 23 25  1  0
 24 26  2  0
 25 27  2  0
 26 27  1  0
M  END
>  <PUBCHEM_COMPOUND_CID>  (1) 
30761

>  <PUBCHEM_CONFORMER_RMSD>  (1) 
1

>  <PUBCHEM_CONFORMER_DIVERSEORDER>  (1) 
1
90
54
202
76
17
119
114
123
43
93
176
198
133
110
70
148
153
58
138
143
72
20
19
162
66
67
79
174
115
134
101
32
191
50
159
139
164
64
130
29
41
57
82
193
16
31
157
199
61
120
179
81
83
63
196
60
168
181
107
116
68
180
42
205
207
125
171
182
13
95
38
94
5
112
192
208
62
156
105
175
118
4
136
21
25
86
142
128
165
122
173
127
124
184
15
34
69
44
8
129
170
84
11
24
201
206
203
28
189
48
51
91
71
7
56
103
46
78
177
194
169
37
59
36
47
55
140
98
75
187
200
188
30
89
35
33
40
197
3
132
2
27
109
88
45
65
77
26
190
104
23
92
111
10
154
185
137
158
163
145
178
39
117
146
96
18
74
147
121
108
151
73
12
102
6
144
49
186
141
166
9
14
22
85
99
155
149
135
172
52
126
160
150
97
113
152
131
100
195
161
183
80
167
106
87
53
204

>  <PUBCHEM_MMFF94_PARTIAL_CHARGES>  (1) 
22
1 -0.34
15 0.27
16 0.27
17 1.02
18 0.27
2 -0.34
20 0.06
21 0.42
22 0.09
23 -0.15
24 -0.15
25 -0.15
26 -0.15
27 0.19
3 -0.34
4 -0.19
5 -0.57
51 0.15
52 0.15
53 0.15
54 0.15
6 -0.81

>  <PUBCHEM_EFFECTIVE_ROTOR_COUNT>  (1) 
8

>  <PUBCHEM_PHARMACOPHORE_FEATURES>  (1) 
5
1 5 acceptor
1 6 cation
6 22 23 24 25 26 27 rings
6 6 7 10 11 15 16 rings
6 7 8 9 12 13 14 rings

>  <PUBCHEM_HEAVY_ATOM_COUNT>  (1) 
27

>  <PUBCHEM_ATOM_DEF_STEREO_COUNT>  (1) 
0

>  <PUBCHEM_ATOM_UDEF_STEREO_COUNT>  (1) 
1

>  <PUBCHEM_BOND_DEF_STEREO_COUNT>  (1) 
0

>  <PUBCHEM_BOND_UDEF_STEREO_COUNT>  (1) 
0

>  <PUBCHEM_ISOTOPIC_ATOM_COUNT>  (1) 
0

>  <PUBCHEM_COMPONENT_COUNT>  (1) 
1

>  <PUBCHEM_CACTVS_TAUTO_COUNT>  (1) 
2

>  <PUBCHEM_CONFORMER_ID>  (1) 
0000782900000001

>  <PUBCHEM_MMFF94_ENERGY>  (1) 
55.6012

>  <PUBCHEM_FEATURE_SELFOVERLAP>  (1) 
25.373

>  <PUBCHEM_SHAPE_FINGERPRINT>  (1) 
10 15 11312053249267110294
10483366 6 18336820884814080109
11088757 655 13182153255327767173
11135609 201 9006764368434129780
11273773 42 10737583734080978082
11273773 46 18335144172209797403
11796584 16 18040993003235391096
12596602 18 12967135995019577494
12760667 363 18342460313726865784
12925494 130 9798601864723094899
13533116 47 18060698424996193424
1361 87 18115047259240915826
13782708 43 18126844026990592159
13828863 39 10665223748559750889
13885169 86 8862644820924789798
13914758 101 17917433095094706193
14117953 113 18271244924063254854
14251764 75 8502360136638020918
14848178 5 18273217517006393088
14866123 147 18270127790422150657
14910302 57 18260537952799007988
14931854 50 18041574568236949510
15003188 33 18114746035302951533
15052358 14 18260821588602795093
15183329 4 18260263053696451325
15188451 53 17561361747554673600
15274700 21 16734129983936978899
15475509 8 17095239203106940525
15510800 12 18059298635420608638
15519825 34 15194984060374378782
16126227 98 8502072073002214638
17349148 13 17131283479209079165
17857418 61 18343872108532504904
18222031 100 18202288013477738816
18393751 57 9799697013159664965
19377110 9 10447926161502817713
19958102 18 18334004004379009541
20028762 73 17989208119039873590
21279426 13 18261387875466178451
21302155 148 8646773287415701322
21304303 282 16914832319317936161
21315764 119 17675926482423445014
21401589 2 10519694562966687972
21458453 9 14045450228528642694
22061861 79 18335419092733481356
2215653 11 18334292084698676364
22393880 68 18115019835241169411
23559900 14 18340200911968883449
23572383 38 18341331188631984362
23929065 36 15984832471998953521
3004659 81 18259983786686183328
32027 91 18343018929952667256
3459 83 18410576184702591441
3472631 163 11891338664391198290
3729539 64 18187358784091929091
38570 142 16950556654663220961
392239 28 11599720714420832533
397830 11 10880000172465582573
437795 70 17167858638806875548
44062 13 18335419127425795123
444769 64 18340778044384383681
5085150 59 17132116814849735837
531348 171 18343297077173586551
550186 72 8718829773848640659
57307002 182 14045441368274875346
59682541 52 18041549282761924311
6034566 193 11314308368858563161
6443934 186 14045451310865695800
6695519 79 17115811353309706128
7808743 9 8574420994724512768
7970288 3 18339366267312643962
8988823 20 17417805197343687736
960060 61 17822015345769384220
9689198 14 14057002672689903261

>  <PUBCHEM_SHAPE_MULTIPOLES>  (1) 
515.7
18.41
3.03
1.66
7.56
0.11
-0.14
11.21
8.04
2.43
-0.28
-1.27
-0.17
-0.16

>  <PUBCHEM_SHAPE_SELFOVERLAP>  (1) 
1082.995

>  <PUBCHEM_SHAPE_VOLUME>  (1) 
290.6

>  <PUBCHEM_COORDINATE_TYPE>  (1) 
2
5
10

$$$$
