30760
     RDKit          3D

 16 16  0  0  0  0  0  0  0  0999 V2000
   -3.7751    2.2563   -0.2079 Cl  0  0  0  0  0  0  0  0  0  0  0  0
    2.1433   -1.3423    0.3807 O   0  0  0  0  0  0  0  0  0  0  0  0
    1.0673    0.7128    0.1821 N   0  0  0  0  0  0  0  0  0  0  0  0
    3.3387    0.6181    0.3298 N   0  0  0  0  0  0  0  0  0  0  0  0
    5.6193    0.7851   -0.1160 N   0  0  0  0  0  0  0  0  0  0  0  0
    4.5789   -1.1487   -0.7356 N   0  0  0  0  0  0  0  0  0  0  0  0
   -5.4540   -1.0941   -0.1474 N   0  0  0  0  0  0  0  0  0  0  0  0
   -0.2981    0.3526    0.1120 C   0  0  0  0  0  0  0  0  0  0  0  0
   -1.2577    1.3461    0.0004 C   0  0  0  0  0  0  0  0  0  0  0  0
   -0.6494   -0.9870    0.1566 C   0  0  0  0  0  0  0  0  0  0  0  0
   -2.6046    0.9903   -0.0687 C   0  0  0  0  0  0  0  0  0  0  0  0
   -1.9964   -1.3427    0.0876 C   0  0  0  0  0  0  0  0  0  0  0  0
   -2.9740   -0.3541   -0.0249 C   0  0  0  0  0  0  0  0  0  0  0  0
    2.1725   -0.1182    0.2932 C   0  0  0  0  0  0  0  0  0  0  0  0
   -4.3451   -0.7632   -0.0926 C   0  0  0  0  0  0  0  0  0  0  0  0
    4.4344    0.0889   -0.1494 C   0  0  0  0  0  0  0  0  0  0  0  0
  1 11  1  0
  2 14  2  0
  3  8  1  0
  3 14  1  0
  4 14  1  0
  4 16  2  3
  5 16  1  0
  6 16  1  0
  7 15  3  0
  8  9  2  0
  8 10  1  0
  9 11  1  0
 10 12  2  0
 11 13  2  0
 12 13  1  0
 13 15  1  0
M  END
>  <PUBCHEM_COMPOUND_CID>  (1) 
30760

>  <PUBCHEM_CONFORMER_RMSD>  (1) 
0.6

>  <PUBCHEM_CONFORMER_DIVERSEORDER>  (1) 
1
31
25
36
4
20
39
16
6
38
11
33
34
10
21
7
32
27
37
23
22
40
14
2
26
15
35
12
18
29
5
19
28
3
8
9
13
41
17
24
30

>  <PUBCHEM_MMFF94_PARTIAL_CHARGES>  (1) 
24
1 -0.18
10 -0.15
11 0.18
12 -0.15
13 0.07
14 0.84
15 0.48
16 0.55
17 0.15
18 0.15
19 0.15
2 -0.57
20 0.37
21 0.4
22 0.4
23 0.4
24 0.4
3 -0.55
4 -0.66
5 -0.85
6 -0.85
7 -0.56
8 0.12
9 -0.15

>  <PUBCHEM_EFFECTIVE_ROTOR_COUNT>  (1) 
3

>  <PUBCHEM_PHARMACOPHORE_FEATURES>  (1) 
7
1 2 acceptor
1 3 donor
1 4 donor
1 5 donor
1 6 donor
1 7 acceptor
6 8 9 10 11 12 13 rings

>  <PUBCHEM_HEAVY_ATOM_COUNT>  (1) 
16

>  <PUBCHEM_ATOM_DEF_STEREO_COUNT>  (1) 
0

>  <PUBCHEM_ATOM_UDEF_STEREO_COUNT>  (1) 
0

>  <PUBCHEM_BOND_DEF_STEREO_COUNT>  (1) 
0

>  <PUBCHEM_BOND_UDEF_STEREO_COUNT>  (1) 
0

>  <PUBCHEM_ISOTOPIC_ATOM_COUNT>  (1) 
0

>  <PUBCHEM_COMPONENT_COUNT>  (1) 
1

>  <PUBCHEM_CACTVS_TAUTO_COUNT>  (1) 
5

>  <PUBCHEM_CONFORMER_ID>  (1) 
0000782800000001

>  <PUBCHEM_MMFF94_ENERGY>  (1) 
46.3973

>  <PUBCHEM_FEATURE_SELFOVERLAP>  (1) 
35.708

>  <PUBCHEM_SHAPE_FINGERPRINT>  (1) 
10014705 185 18187080607750373765
10968037 39 18336265738177542359
12236239 1 17676483956045338386
12390115 104 18199481982499765041
13288520 33 18342740719383112333
14251718 22 18410855481835132916
15042514 8 18266743674432107375
15196674 1 18338234869018941770
17834072 33 18343582971123128596
187816 3 17676766552530850427
1986462 14 18411983533309743765
200 152 17846498140576787531
20300324 65 18412262839644370505
20510252 161 18343301440491373345
20645477 70 17775012246016266854
20871999 31 18335415755786745021
21267235 1 18409455807669848179
2297311 6 18272379675807750365
23402539 116 18411976949288519853
23402655 69 18341330003178682476
23557571 272 18342744004795931445
23559900 14 18267579285355754936
3004659 81 18335986364331616782
34797466 226 17917161606086088804
4214541 1 18411419479549844144
4463277 17 18410575098260176353
474 4 17023756752798570892
4990 188 18272655606466848734
5104073 3 18409727318464714944
559249 180 18264482897888542026
77779 3 18411138004894633508
9709674 26 18411143515116673926

>  <PUBCHEM_SHAPE_MULTIPOLES>  (1) 
300.37
11.19
1.7
0.64
8.26
0.47
-0.02
-0.38
-1.41
-1.67
-0.07
0.11
-0.02
0.21

>  <PUBCHEM_SHAPE_SELFOVERLAP>  (1) 
621.696

>  <PUBCHEM_SHAPE_VOLUME>  (1) 
170.8

>  <PUBCHEM_COORDINATE_TYPE>  (1) 
2
5
10

$$$$
