30765
     RDKit          3D

 25 26  0  0  1  0  0  0  0  0999 V2000
    0.2921    0.2716    0.3197 O   0  0  0  0  0  0  0  0  0  0  0  0
   -1.3373   -3.9098   -0.1338 O   0  0  0  0  0  0  0  0  0  0  0  0
   -2.3591    0.5893    0.3335 O   0  0  0  0  0  0  0  0  0  0  0  0
    1.1292   -1.1366    1.9236 O   0  0  0  0  0  0  0  0  0  0  0  0
   -3.9037    3.7024   -0.0338 O   0  0  0  0  0  0  0  0  0  0  0  0
   -2.4955    2.9352    1.4716 O   0  0  0  0  0  0  0  0  0  0  0  0
    3.8462    0.9718   -0.4601 N   0  0  0  0  0  0  0  0  0  0  0  0
   -2.2745   -2.9665   -0.5370 N   0  0  0  0  0  0  0  0  0  0  0  0
   -3.1862    2.7658    0.4244 N   0  0  0  0  0  0  0  0  0  0  0  0
    2.5837    0.2475   -0.4074 C   0  0  0  0  0  0  0  0  0  0  0  0
    1.4844    1.0557    0.2863 C   0  0  0  0  0  0  0  0  0  0  0  0
    4.2672    1.3758    0.8831 C   0  0  0  0  0  0  0  0  0  0  0  0
    4.8848    0.1549   -1.0917 C   0  0  0  0  0  0  0  0  0  0  0  0
    1.1582    2.3599   -0.4303 C   0  0  0  0  0  0  0  0  0  0  0  0
    5.5485    2.1908    0.8351 C   0  0  0  0  0  0  0  0  0  0  0  0
    4.4703   -0.2768   -2.4881 C   0  0  0  0  0  0  0  0  0  0  0  0
    0.3769   -0.9282    0.9772 C   0  0  0  0  0  0  0  0  0  0  0  0
   -0.5258   -1.9481    0.4364 C   0  0  0  0  0  0  0  0  0  0  0  0
   -1.7558   -1.7887   -0.1785 C   0  0  0  0  0  0  0  0  0  0  0  0
   -0.2883   -3.2774    0.4518 C   0  0  0  0  0  0  0  0  0  0  0  0
   -2.4652   -0.5230   -0.4402 C   0  0  0  0  0  0  0  0  0  0  0  0
    0.8000   -4.1361    0.9385 C   0  0  0  0  0  0  0  0  0  0  0  0
   -3.3221   -0.2990   -1.4927 C   0  0  0  0  0  0  0  0  0  0  0  0
   -3.7713    1.0362   -1.3568 C   0  0  0  0  0  0  0  0  0  0  0  0
   -3.1568    1.5333   -0.2309 C   0  0  0  0  0  0  0  0  0  0  0  0
  1 11  1  0
  1 17  1  0
  2  8  1  0
  2 20  1  0
  3 21  1  0
  3 25  1  0
  4 17  2  0
  5  9  1  0
  6  9  2  0
  7 10  1  0
  7 12  1  0
  7 13  1  0
  8 19  2  0
  9 25  1  0
 10 11  1  0
 11 14  1  0
 12 15  1  0
 13 16  1  0
 17 18  1  0
 18 19  1  0
 18 20  2  0
 19 21  1  0
 20 22  1  0
 21 23  2  0
 23 24  1  0
 24 25  2  0
M  CHG  2   5  -1   9   1
M  END
>  <PUBCHEM_COMPOUND_CID>  (1) 
30765

>  <PUBCHEM_CONFORMER_RMSD>  (1) 
1

>  <PUBCHEM_CONFORMER_DIVERSEORDER>  (1) 
1
129
19
83
70
140
115
80
154
84
65
143
62
17
14
31
120
99
114
24
12
73
47
29
149
85
43
127
151
88
119
41
66
25
87
21
48
141
97
102
124
9
159
8
20
40
131
110
139
113
36
16
57
104
42
117
100
146
71
125
67
26
132
112
28
90
96
77
130
156
68
74
27
45
15
49
157
126
133
123
150
56
138
7
107
94
39
108
121
11
152
58
4
34
5
92
144
13
35
33
61
22
18
145
81
55
122
54
59
147
23
134
30
91
153
38
2
44
135
111
136
137
37
3
103
50
158
46
101
82
32
116
89
142
128
60
93
63
155
10
53
75
51
6
98
95
69
109
72
106
105
148
79
64
78
118
76
86
52

>  <PUBCHEM_MMFF94_PARTIAL_CHARGES>  (1) 
24
1 -0.43
10 0.27
11 0.28
12 0.27
13 0.27
17 0.81
18 -0.09
19 0.29
2 -0.02
20 -0.04
21 0.14
22 0.18
23 -0.15
24 -0.15
25 0.22
3 -0.28
4 -0.57
45 0.15
46 0.15
5 -0.52
6 -0.52
7 -0.81
8 -0.41
9 0.96

>  <PUBCHEM_EFFECTIVE_ROTOR_COUNT>  (1) 
9

>  <PUBCHEM_PHARMACOPHORE_FEATURES>  (1) 
9
1 3 acceptor
1 4 acceptor
1 5 acceptor
1 5 anion
1 6 acceptor
1 7 cation
1 8 acceptor
5 2 8 18 19 20 rings
5 3 21 23 24 25 rings

>  <PUBCHEM_HEAVY_ATOM_COUNT>  (1) 
25

>  <PUBCHEM_ATOM_DEF_STEREO_COUNT>  (1) 
0

>  <PUBCHEM_ATOM_UDEF_STEREO_COUNT>  (1) 
1

>  <PUBCHEM_BOND_DEF_STEREO_COUNT>  (1) 
0

>  <PUBCHEM_BOND_UDEF_STEREO_COUNT>  (1) 
0

>  <PUBCHEM_ISOTOPIC_ATOM_COUNT>  (1) 
0

>  <PUBCHEM_COMPONENT_COUNT>  (1) 
1

>  <PUBCHEM_CACTVS_TAUTO_COUNT>  (1) 
1

>  <PUBCHEM_CONFORMER_ID>  (1) 
0000782D00000001

>  <PUBCHEM_MMFF94_ENERGY>  (1) 
39.0604

>  <PUBCHEM_FEATURE_SELFOVERLAP>  (1) 
45.764

>  <PUBCHEM_SHAPE_FINGERPRINT>  (1) 
10291535 26 18268988868232241704
107951 10 18341065020691896255
10937287 8 18339642213964792345
11582403 64 16337735146775194530
12173636 292 18410007753948790375
12788726 201 17828773072803230442
13140716 1 17830457541438137283
14251751 93 18334576892506919555
14251757 17 18201166511448615438
14251757 5 18119548766896699646
14713325 29 18116452468685322835
14790565 3 18266177227826382240
15463212 79 18262226807022239360
21033650 10 18043265720019803374
21141583 151 17979066408114848195
23557571 272 18124309669340416584
23559900 14 18342178895513099260
3493558 16 17394441846527259684
484989 97 17829030350509611695
5283173 99 18341332279859820704
9709674 26 18201442536201511292
9981440 41 18335973208202886851

>  <PUBCHEM_SHAPE_MULTIPOLES>  (1) 
464.33
9.13
4.75
1.5
10.51
2.6
0.49
-7.49
2.73
-4.29
-1.52
1.12
0.03
0.14

>  <PUBCHEM_SHAPE_SELFOVERLAP>  (1) 
969.867

>  <PUBCHEM_SHAPE_VOLUME>  (1) 
265.4

>  <PUBCHEM_COORDINATE_TYPE>  (1) 
2
5
10

$$$$
