30774
     RDKit          3D

 15 15  0  0  1  0  0  0  0  0999 V2000
   -0.1306    3.0039    0.0816 Cl  0  0  0  0  0  0  0  0  0  0  0  0
   -1.4722   -2.2120    0.3573 Cl  0  0  0  0  0  0  0  0  0  0  0  0
    1.5608   -3.0340    0.0300 Cl  0  0  0  0  0  0  0  0  0  0  0  0
    2.9140    2.2286   -0.2513 Cl  0  0  0  0  0  0  0  0  0  0  0  0
    3.7535   -0.8017   -0.2726 Cl  0  0  0  0  0  0  0  0  0  0  0  0
   -2.5215    0.2990    1.6359 O   0  0  0  0  0  0  0  0  0  0  0  0
   -3.5626   -0.3088   -1.5396 N   0  0  0  0  0  0  0  0  0  0  0  0
   -0.6072    0.3448    0.1963 C   0  0  0  0  0  0  0  0  0  0  0  0
   -2.0504    0.7242    0.3537 C   0  0  0  0  0  0  0  0  0  0  0  0
    0.3637    1.3370    0.0618 C   0  0  0  0  0  0  0  0  0  0  0  0
   -0.2365   -0.9999    0.1860 C   0  0  0  0  0  0  0  0  0  0  0  0
    1.1053   -1.3523    0.0413 C   0  0  0  0  0  0  0  0  0  0  0  0
    1.7056    0.9845   -0.0830 C   0  0  0  0  0  0  0  0  0  0  0  0
    2.0764   -0.3601   -0.0933 C   0  0  0  0  0  0  0  0  0  0  0  0
   -2.8984    0.1468   -0.7041 C   0  0  0  0  0  0  0  0  0  0  0  0
  1 10  1  0
  2 11  1  0
  3 12  1  0
  4 13  1  0
  5 14  1  0
  6  9  1  0
  7 15  3  0
  8  9  1  0
  8 10  2  0
  8 11  1  0
  9 15  1  0
 10 13  1  0
 11 12  2  0
 12 14  1  0
 13 14  2  0
M  END
>  <PUBCHEM_COMPOUND_CID>  (1) 
30774

>  <PUBCHEM_CONFORMER_RMSD>  (1) 
0.4

>  <PUBCHEM_CONFORMER_DIVERSEORDER>  (1) 
1
2

>  <PUBCHEM_MMFF94_PARTIAL_CHARGES>  (1) 
16
1 -0.18
10 0.18
11 0.18
12 0.18
13 0.18
14 0.18
15 0.36
17 0.4
2 -0.18
3 -0.18
4 -0.18
5 -0.18
6 -0.68
7 -0.56
8 -0.14
9 0.62

>  <PUBCHEM_EFFECTIVE_ROTOR_COUNT>  (1) 
1

>  <PUBCHEM_PHARMACOPHORE_FEATURES>  (1) 
4
1 6 acceptor
1 6 donor
1 7 acceptor
6 8 10 11 12 13 14 rings

>  <PUBCHEM_HEAVY_ATOM_COUNT>  (1) 
15

>  <PUBCHEM_ATOM_DEF_STEREO_COUNT>  (1) 
0

>  <PUBCHEM_ATOM_UDEF_STEREO_COUNT>  (1) 
1

>  <PUBCHEM_BOND_DEF_STEREO_COUNT>  (1) 
0

>  <PUBCHEM_BOND_UDEF_STEREO_COUNT>  (1) 
0

>  <PUBCHEM_ISOTOPIC_ATOM_COUNT>  (1) 
0

>  <PUBCHEM_COMPONENT_COUNT>  (1) 
1

>  <PUBCHEM_CACTVS_TAUTO_COUNT>  (1) 
1

>  <PUBCHEM_CONFORMER_ID>  (1) 
0000783600000001

>  <PUBCHEM_MMFF94_ENERGY>  (1) 
42.6578

>  <PUBCHEM_FEATURE_SELFOVERLAP>  (1) 
20.297

>  <PUBCHEM_SHAPE_FINGERPRINT>  (1) 
10967382 1 18410296917175176594
11206711 2 18191875530666751732
12423570 1 9399284723454773505
12553582 1 18338525114603869898
13140716 1 18337961181171328106
13380535 76 18336819905049469778
13897977 150 18337957895331494108
14251717 144 18412254060525482852
14911166 2 18408603639182700678
16945 1 18337679615857846546
18186145 218 18339092582894444372
193761 8 17690284132934116016
21501502 16 18267313208084447290
22112679 90 17632300060056561681
2334 1 18194126441532781210
23388829 49 18268989800071079624
23402539 116 18268984285670766382
23493267 7 17023188188710840240
23526114 1 18265899231925681398
23559900 14 18341346565384738812
23598291 2 18060144228043520973
25 1 18334566958611294613
2748010 2 18265624362645686130
63268167 104 18339359772519836441
77492 1 17846501417921748905
81228 2 16966325592250425946

>  <PUBCHEM_SHAPE_MULTIPOLES>  (1) 
307.19
4.98
3.15
0.93
0.29
0.05
-0.01
0.11
-1.16
-1.54
0.15
0.86
0
-0.12

>  <PUBCHEM_SHAPE_SELFOVERLAP>  (1) 
603.372

>  <PUBCHEM_SHAPE_VOLUME>  (1) 
186.1

>  <PUBCHEM_COORDINATE_TYPE>  (1) 
2
5
10

$$$$
