3077
     RDKit          3D

 10  9  0  0  0  0  0  0  0  0999 V2000
    1.9252    0.7007   -0.7066 S   0  0  0  0  0  0  0  0  0  0  0  0
   -3.2031   -0.0630   -0.2302 N   0  0  0  0  0  0  0  0  0  0  0  0
    4.1237    0.8109    0.7434 N   0  0  0  0  0  0  0  0  0  0  0  0
    3.5902   -1.3059   -0.1580 N   0  0  0  0  0  0  0  0  0  0  0  0
   -1.9085   -0.5468    0.2350 C   0  0  0  0  0  0  0  0  0  0  0  0
   -0.7777    0.2554   -0.4099 C   0  0  0  0  0  0  0  0  0  0  0  0
    0.5835   -0.2578    0.0541 C   0  0  0  0  0  0  0  0  0  0  0  0
   -3.3947    1.3388    0.1457 C   0  0  0  0  0  0  0  0  0  0  0  0
   -4.2859   -0.8863    0.3112 C   0  0  0  0  0  0  0  0  0  0  0  0
    3.3474   -0.0461    0.0152 C   0  0  0  0  0  0  0  0  0  0  0  0
  1  7  1  0
  1 10  1  0
  2  5  1  0
  2  8  1  0
  2  9  1  0
  3 10  1  0
  4 10  2  0
  5  6  1  0
  6  7  1  0
M  END
>  <PUBCHEM_COMPOUND_CID>  (1) 
3077

>  <PUBCHEM_CONFORMER_RMSD>  (1) 
0.6

>  <PUBCHEM_CONFORMER_DIVERSEORDER>  (1) 
1
10
9
12
40
17
19
35
23
16
20
13
8
32
39
26
27
24
5
34
30
22
38
21
18
14
7
33
15
36
11
31
3
4
37
25
29
28
6
2

>  <PUBCHEM_MMFF94_PARTIAL_CHARGES>  (1) 
12
1 -0.37
10 0.64
2 -0.81
23 0.4
24 0.4
25 0.4
3 -0.85
4 -0.85
5 0.27
7 0.23
8 0.27
9 0.27

>  <PUBCHEM_EFFECTIVE_ROTOR_COUNT>  (1) 
5

>  <PUBCHEM_PHARMACOPHORE_FEATURES>  (1) 
4
1 2 cation
1 3 donor
1 4 donor
3 3 4 10 cation

>  <PUBCHEM_HEAVY_ATOM_COUNT>  (1) 
10

>  <PUBCHEM_ATOM_DEF_STEREO_COUNT>  (1) 
0

>  <PUBCHEM_ATOM_UDEF_STEREO_COUNT>  (1) 
0

>  <PUBCHEM_BOND_DEF_STEREO_COUNT>  (1) 
0

>  <PUBCHEM_BOND_UDEF_STEREO_COUNT>  (1) 
0

>  <PUBCHEM_ISOTOPIC_ATOM_COUNT>  (1) 
0

>  <PUBCHEM_COMPONENT_COUNT>  (1) 
1

>  <PUBCHEM_CACTVS_TAUTO_COUNT>  (1) 
1

>  <PUBCHEM_CONFORMER_ID>  (1) 
00000C0500000001

>  <PUBCHEM_MMFF94_ENERGY>  (1) 
16.1128

>  <PUBCHEM_FEATURE_SELFOVERLAP>  (1) 
20.335

>  <PUBCHEM_SHAPE_FINGERPRINT>  (1) 
11062470 55 17060621109428336444
12932764 1 17417802959111233981
14123238 8 18410856598299776500
14252887 29 18260268542917675010
14325111 11 18410576184190557038
177051 138 18408326583542643094
190213 19 18259703402071925205
1986462 14 18261114049994897295
20645477 70 18201158759101439006
20711985 327 17167869668414266479
21119208 17 8790891782542489472
22485316 2 18342735225919636591
23402539 116 18412538834759750519
42 15 18410013225678908006
449060 50 18272367624641149128

>  <PUBCHEM_SHAPE_MULTIPOLES>  (1) 
194.7
9.11
1.17
0.75
0.18
0.06
-0.01
-0.64
1.33
-0.23
0.02
0.27
0.09
0.17

>  <PUBCHEM_SHAPE_SELFOVERLAP>  (1) 
340.849

>  <PUBCHEM_SHAPE_VOLUME>  (1) 
130

>  <PUBCHEM_COORDINATE_TYPE>  (1) 
2
5
10

$$$$
