30776
     RDKit          3D

 16 16  0  0  0  0  0  0  0  0999 V2000
   -2.4360   -0.9556   -2.0720 Br  0  0  0  0  0  0  0  0  0  0  0  0
    4.2894    1.2428   -0.2362 O   0  0  0  0  0  0  0  0  0  0  0  0
   -0.7755   -2.4446    0.6736 O   0  0  0  0  0  0  0  0  0  0  0  0
   -4.1429    1.5731    1.4701 O   0  0  0  0  0  0  0  0  0  0  0  0
   -4.4444    0.9713   -0.7041 O   0  0  0  0  0  0  0  0  0  0  0  0
    0.6064   -0.6460    0.0753 C   0  0  0  0  0  0  0  0  0  0  0  0
    0.6916    0.6278   -0.4866 C   0  0  0  0  0  0  0  0  0  0  0  0
    1.7588   -1.2850    0.5330 C   0  0  0  0  0  0  0  0  0  0  0  0
    3.0817    0.6237   -0.1332 C   0  0  0  0  0  0  0  0  0  0  0  0
    1.9292    1.2626   -0.5909 C   0  0  0  0  0  0  0  0  0  0  0  0
    2.9965   -0.6502    0.4288 C   0  0  0  0  0  0  0  0  0  0  0  0
   -0.6839   -1.3082    0.1838 C   0  0  0  0  0  0  0  0  0  0  0  0
   -1.9245   -0.6114   -0.3132 C   0  0  0  0  0  0  0  0  0  0  0  0
   -2.5653    0.1507    0.5869 C   0  0  0  0  0  0  0  0  0  0  0  0
    5.4268    0.5328    0.2516 C   0  0  0  0  0  0  0  0  0  0  0  0
   -3.8081    0.9161    0.3331 C   0  0  0  0  0  0  0  0  0  0  0  0
  1 13  1  0
  2  9  1  0
  2 15  1  0
  3 12  2  0
  4 16  1  0
  5 16  2  0
  6  7  2  0
  6  8  1  0
  6 12  1  0
  7 10  1  0
  8 11  2  0
  9 10  2  0
  9 11  1  0
 12 13  1  0
 13 14  2  0
 14 16  1  0
M  END
>  <PUBCHEM_COMPOUND_CID>  (1) 
30776

>  <PUBCHEM_CONFORMER_RMSD>  (1) 
0.6

>  <PUBCHEM_CONFORMER_DIVERSEORDER>  (1) 
1
7
18
10
8
16
21
20
19
14
3
22
11
13
6
24
17
15
2
4
5
23
9
12

>  <PUBCHEM_MMFF94_PARTIAL_CHARGES>  (1) 
22
1 -0.11
10 -0.15
11 -0.15
12 0.47
13 0.12
14 -0.14
15 0.28
16 0.71
17 0.15
18 0.15
19 0.15
2 -0.36
20 0.15
21 0.15
25 0.5
3 -0.57
4 -0.65
5 -0.57
6 0.09
7 -0.15
8 -0.15
9 0.08

>  <PUBCHEM_EFFECTIVE_ROTOR_COUNT>  (1) 
4

>  <PUBCHEM_PHARMACOPHORE_FEATURES>  (1) 
7
1 1 hydrophobe
1 2 acceptor
1 3 acceptor
1 4 acceptor
1 5 acceptor
3 4 5 16 anion
6 6 7 8 9 10 11 rings

>  <PUBCHEM_HEAVY_ATOM_COUNT>  (1) 
16

>  <PUBCHEM_ATOM_DEF_STEREO_COUNT>  (1) 
0

>  <PUBCHEM_ATOM_UDEF_STEREO_COUNT>  (1) 
0

>  <PUBCHEM_BOND_DEF_STEREO_COUNT>  (1) 
0

>  <PUBCHEM_BOND_UDEF_STEREO_COUNT>  (1) 
1

>  <PUBCHEM_ISOTOPIC_ATOM_COUNT>  (1) 
0

>  <PUBCHEM_COMPONENT_COUNT>  (1) 
1

>  <PUBCHEM_CACTVS_TAUTO_COUNT>  (1) 
1

>  <PUBCHEM_CONFORMER_ID>  (1) 
0000783800000001

>  <PUBCHEM_MMFF94_ENERGY>  (1) 
58.4188

>  <PUBCHEM_FEATURE_SELFOVERLAP>  (1) 
35.579

>  <PUBCHEM_SHAPE_FINGERPRINT>  (1) 
10465860 228 18268437836596587355
11046707 91 8070031051461236417
11089746 13 18059567010514768928
11543360 7 16845004736206901044
12236239 1 18271800203674037791
12251169 10 17313395543020287611
12500047 106 18341330093346674002
12633257 1 16588324786232872953
13675066 3 16153416256195103966
14123260 362 18272373083259667801
14251764 38 17630313358472910656
14897335 6 18410575093258509163
15209294 21 18412824681385713096
15309172 13 18040715861770152115
15342168 16 18113907078066062957
15534591 1 18343302582805045559
15653759 3 15719388417332950717
15775835 57 18342739602749767481
16945 1 18114452431712519446
1741750 31 18411986892026981810
17844478 74 16515683329670751927
18186145 218 18335421235869583239
18219364 16 17676196983721563735
18534176 82 15985100838545610687
20112054 13 18040997328088142143
20671657 53 9294992567000785003
20871999 31 16702295776527284501
21524375 3 18411983563838725375
21650355 55 13912328984473325255
23402539 116 18201432606273916212
23402655 69 18201718444436220108
23557571 272 16845572066800117395
23559900 14 16200436875589613166
298252 57 17775286041269639935
474 4 18408603668941353889
5104073 3 17969215815286824392
602551 16 14345805954160113032
633830 44 18339924822606965631

>  <PUBCHEM_SHAPE_MULTIPOLES>  (1) 
311.74
9.09
1.73
1.22
3.91
0.38
0.43
-4.81
-0.35
-0.79
-0.28
-1.25
0.19
-1.2

>  <PUBCHEM_SHAPE_SELFOVERLAP>  (1) 
637.453

>  <PUBCHEM_SHAPE_VOLUME>  (1) 
183.9

>  <PUBCHEM_COORDINATE_TYPE>  (1) 
2
5
10

$$$$
