30778
     RDKit          3D

 23 23  0  0  1  0  0  0  0  0999 V2000
    1.7403   -0.9198   -1.5683 O   0  0  0  0  0  0  0  0  0  0  0  0
    1.0363    3.0521    0.8784 O   0  0  0  0  0  0  0  0  0  0  0  0
   -0.5087    3.6210   -0.6710 O   0  0  0  0  0  0  0  0  0  0  0  0
    1.1847    0.5444    0.1438 N   0  0  0  0  0  0  0  0  0  0  0  0
    2.9182   -2.5825    0.3078 N   0  0  0  0  0  0  0  0  0  0  0  0
   -6.2427   -1.5827   -0.7063 N   0  0  0  0  0  0  0  0  0  0  0  0
    4.2572   -0.4580    0.5116 C   0  0  0  0  0  0  0  0  0  0  0  0
    2.8660   -1.1448    0.5736 C   0  0  0  0  0  0  0  0  0  0  0  0
   -1.2070    0.7073   -0.3991 C   0  0  0  0  0  0  0  0  0  0  0  0
   -1.6734    0.7329    1.0594 C   0  0  0  0  0  0  0  0  0  0  0  0
    0.1923    1.3073   -0.5787 C   0  0  0  0  0  0  0  0  0  0  0  0
   -3.0458    0.0959    1.2146 C   0  0  0  0  0  0  0  0  0  0  0  0
    4.9266   -0.5980   -0.8749 C   0  0  0  0  0  0  0  0  0  0  0  0
    1.8838   -0.5165   -0.4156 C   0  0  0  0  0  0  0  0  0  0  0  0
    4.1519    1.0134    0.9366 C   0  0  0  0  0  0  0  0  0  0  0  0
   -4.0870    0.9346    0.5168 C   0  0  0  0  0  0  0  0  0  0  0  0
   -3.0119   -1.3310    0.7275 C   0  0  0  0  0  0  0  0  0  0  0  0
   -4.9152   -0.9853   -0.8737 C   0  0  0  0  0  0  0  0  0  0  0  0
    6.3411   -0.0343   -0.9258 C   0  0  0  0  0  0  0  0  0  0  0  0
    0.1960    2.7658   -0.1449 C   0  0  0  0  0  0  0  0  0  0  0  0
   -4.9254    0.4496   -0.4109 C   0  0  0  0  0  0  0  0  0  0  0  0
   -3.8509   -1.8146   -0.2005 C   0  0  0  0  0  0  0  0  0  0  0  0
    1.7737   -3.2569    0.8997 C   0  0  0  0  0  0  0  0  0  0  0  0
  1 14  2  0
  2 20  1  0
  3 20  2  0
  4 11  1  0
  4 14  1  0
  5  8  1  0
  5 23  1  0
  6 18  1  0
  7  8  1  0
  7 13  1  0
  7 15  1  0
  8 14  1  0
  9 10  1  0
  9 11  1  0
 10 12  1  0
 11 20  1  0
 12 16  1  0
 12 17  1  0
 13 19  1  0
 16 21  2  0
 17 22  2  0
 18 21  1  0
 18 22  1  0
M  END
>  <PUBCHEM_COMPOUND_CID>  (1) 
30778

>  <PUBCHEM_CONFORMER_RMSD>  (1) 
1

>  <PUBCHEM_CONFORMER_DIVERSEORDER>  (1) 
1
152
55
21
3
110
139
180
34
248
246
29
153
250
11
213
227
100
131
17
243
123
208
95
116
56
35
46
59
215
144
115
39
61
169
200
109
237
73
253
45
155
142
254
75
57
93
72
245
18
214
64
14
70
159
234
226
160
66
114
221
112
89
168
43
51
15
25
10
96
148
242
149
23
119
2
19
229
121
84
31
146
87
124
44
94
135
9
165
184
67
58
177
232
201
192
136
16
120
170
134
222
38
52
198
210
197
204
42
212
183
151
225
188
103
223
60
108
13
127
69
218
191
162
111
82
228
79
86
224
141
130
41
63
54
199
50
68
241
32
217
238
113
62
154
195
27
85
102
138
104
205
83
88
7
6
128
202
33
203
244
179
249
37
80
240
181
231
185
122
171
182
157
137
239
5
4
219
255
105
252
187
150
97
186
158
196
251
78
161
147
90
194
91
156
176
178
81
216
164
65
28
230
145
163
49
22
133
235
12
193
26
189
20
99
98
125
48
172
233
24
40
118
107
190
92
166
256
71
117
126
211
247
36
47
53
8
220
106
143
129
77
132
236
101
74
175
207
173
76
30
174
209
206
140
167

>  <PUBCHEM_MMFF94_PARTIAL_CHARGES>  (1) 
26
1 -0.57
11 0.36
12 0.28
14 0.57
16 -0.29
17 -0.29
18 0.55
2 -0.65
20 0.66
21 -0.29
22 -0.29
23 0.27
3 -0.57
34 0.37
38 0.36
39 0.15
4 -0.73
40 0.15
45 0.15
46 0.15
5 -0.9
50 0.36
51 0.36
52 0.5
6 -0.99
8 0.33

>  <PUBCHEM_EFFECTIVE_ROTOR_COUNT>  (1) 
10.4

>  <PUBCHEM_PHARMACOPHORE_FEATURES>  (1) 
12
1 1 acceptor
1 15 hydrophobe
1 19 hydrophobe
1 2 acceptor
1 3 acceptor
1 4 donor
1 5 cation
1 5 donor
1 6 cation
1 6 donor
3 2 3 20 anion
6 12 16 17 18 21 22 rings

>  <PUBCHEM_HEAVY_ATOM_COUNT>  (1) 
23

>  <PUBCHEM_ATOM_DEF_STEREO_COUNT>  (1) 
0

>  <PUBCHEM_ATOM_UDEF_STEREO_COUNT>  (1) 
3

>  <PUBCHEM_BOND_DEF_STEREO_COUNT>  (1) 
0

>  <PUBCHEM_BOND_UDEF_STEREO_COUNT>  (1) 
0

>  <PUBCHEM_ISOTOPIC_ATOM_COUNT>  (1) 
0

>  <PUBCHEM_COMPONENT_COUNT>  (1) 
1

>  <PUBCHEM_CACTVS_TAUTO_COUNT>  (1) 
2

>  <PUBCHEM_CONFORMER_ID>  (1) 
0000783A00000001

>  <PUBCHEM_MMFF94_ENERGY>  (1) 
26.4865

>  <PUBCHEM_FEATURE_SELFOVERLAP>  (1) 
60.956

>  <PUBCHEM_SHAPE_FINGERPRINT>  (1) 
10090160 65 18040723563005106078
10366900 7 18335145271878953322
10447042 23 18114176419797409930
11265709 11 18411705387381281745
11552529 35 18058168319380043697
12011746 2 18411138056371229878
12516196 113 18411981368672561213
12553582 1 18262819400971890835
12596602 18 17489587895877466963
12788726 201 18115584825140805424
13004483 165 18265039246276438059
13177829 73 7853580110106873030
13464513 79 18201721764968016814
13533116 47 18128813234930029601
13544653 18 18261676982415131748
14251764 30 17417824894226737398
14787075 74 18261116287910241658
15537594 2 18338248080528540875
15880784 105 17775006799317058362
15927050 60 17692532630303585956
18222031 100 18341893013156131352
21250096 35 18335699425417793523
21285901 2 17385713656826692711
23402539 116 18411703175304046358
23557571 272 18270124500529760596
23559900 14 18266451195711683305
2871803 45 18336265656958428490
34934 24 18336548214071628027
46194498 28 17458622371811875351
463206 1 18261111855393989347
5283173 99 17969210149534241053
54446538 1 8718819891081003859
5486654 2 18334583455971204942
59755656 215 18409453557877696830

>  <PUBCHEM_SHAPE_MULTIPOLES>  (1) 
440.78
12.62
3.17
1.15
0.94
1.08
0.01
-5.25
2.83
-0.42
-0.35
-0.16
-0.08
-0.43

>  <PUBCHEM_SHAPE_SELFOVERLAP>  (1) 
874.036

>  <PUBCHEM_SHAPE_VOLUME>  (1) 
259.3

>  <PUBCHEM_COORDINATE_TYPE>  (1) 
2
5
10

$$$$
