30770
     RDKit          3D

 27 30  0  0  0  0  0  0  0  0999 V2000
    2.1301   -4.1321   -0.0468 O   0  0  0  0  0  0  0  0  0  0  0  0
   -0.8174    3.0178    0.1921 O   0  0  0  0  0  0  0  0  0  0  0  0
   -4.9939   -0.3739    1.5125 O   0  0  0  0  0  0  0  0  0  0  0  0
   -5.7289   -0.7037   -0.7588 O   0  0  0  0  0  0  0  0  0  0  0  0
    6.1280    1.5429   -0.2232 O   0  0  0  0  0  0  0  0  0  0  0  0
    4.3394    1.1589   -1.5702 O   0  0  0  0  0  0  0  0  0  0  0  0
    0.4173    1.1208    0.2063 N   0  0  0  0  0  0  0  0  0  0  0  0
    2.6119    0.7751    0.5534 C   0  0  0  0  0  0  0  0  0  0  0  0
    2.0082   -0.4819    0.3167 C   0  0  0  0  0  0  0  0  0  0  0  0
    0.6407   -0.2568    0.1056 C   0  0  0  0  0  0  0  0  0  0  0  0
    1.6266    1.7279    0.4878 C   0  0  0  0  0  0  0  0  0  0  0  0
    4.0443    1.0184    0.8271 C   0  0  0  0  0  0  0  0  0  0  0  0
   -0.8170    1.7958    0.0854 C   0  0  0  0  0  0  0  0  0  0  0  0
    2.5121   -1.7985    0.2662 C   0  0  0  0  0  0  0  0  0  0  0  0
   -0.2299   -1.3299   -0.1661 C   0  0  0  0  0  0  0  0  0  0  0  0
    1.7905    3.1890    0.6772 C   0  0  0  0  0  0  0  0  0  0  0  0
   -2.1123    1.1384   -0.1747 C   0  0  0  0  0  0  0  0  0  0  0  0
    1.6449   -2.8604    0.0024 C   0  0  0  0  0  0  0  0  0  0  0  0
    0.2926   -2.6265   -0.2116 C   0  0  0  0  0  0  0  0  0  0  0  0
   -2.8971    0.7147    0.8977 C   0  0  0  0  0  0  0  0  0  0  0  0
   -2.5373    0.9478   -1.4990 C   0  0  0  0  0  0  0  0  0  0  0  0
   -4.0995    0.1045    0.6051 C   0  0  0  0  0  0  0  0  0  0  0  0
    4.8217    1.2547   -0.4487 C   0  0  0  0  0  0  0  0  0  0  0  0
   -4.5193   -0.0840   -0.6919 C   0  0  0  0  0  0  0  0  0  0  0  0
   -3.7596    0.3272   -1.7678 C   0  0  0  0  0  0  0  0  0  0  0  0
   -6.0239   -0.8840    0.6413 C   0  0  0  0  0  0  0  0  0  0  0  0
    3.5276   -4.3022    0.1819 C   0  0  0  0  0  0  0  0  0  0  0  0
  1 18  1  0
  1 27  1  0
  2 13  2  0
  3 22  1  0
  3 26  1  0
  4 24  1  0
  4 26  1  0
  5 23  1  0
  6 23  2  0
  7 10  1  0
  7 11  1  0
  7 13  1  0
  8  9  1  0
  8 11  2  0
  8 12  1  0
  9 10  2  0
  9 14  1  0
 10 15  1  0
 11 16  1  0
 12 23  1  0
 13 17  1  0
 14 18  2  0
 15 19  2  0
 17 20  1  0
 17 21  2  0
 18 19  1  0
 20 22  2  0
 21 25  1  0
 22 24  1  0
 24 25  2  0
M  END
>  <PUBCHEM_COMPOUND_CID>  (1) 
30770

>  <PUBCHEM_CONFORMER_RMSD>  (1) 
0.8

>  <PUBCHEM_CONFORMER_DIVERSEORDER>  (1) 
4
47
13
41
50
30
27
53
42
24
40
26
36
28
1
23
49
55
22
8
43
39
37
11
17
15
33
31
34
45
19
5
29
54
32
57
35
52
48
16
12
25
51
9
21
44
14
10
20
46
2
38
56
58
7
6
3
18

>  <PUBCHEM_MMFF94_PARTIAL_CHARGES>  (1) 
33
1 -0.36
10 -0.15
11 -0.33
12 0.24
13 0.49
14 -0.15
15 -0.15
16 0.18
17 0.09
18 0.08
19 -0.15
2 -0.57
20 -0.15
21 -0.15
22 0.08
23 0.66
24 0.08
25 -0.15
26 0.56
27 0.28
3 -0.36
30 0.15
31 0.15
35 0.15
36 0.15
37 0.15
38 0.15
4 -0.36
44 0.5
5 -0.65
6 -0.57
7 0.29
8 -0.18

>  <PUBCHEM_EFFECTIVE_ROTOR_COUNT>  (1) 
5.6

>  <PUBCHEM_PHARMACOPHORE_FEATURES>  (1) 
11
1 1 acceptor
1 2 acceptor
1 3 acceptor
1 4 acceptor
1 5 acceptor
1 6 acceptor
3 5 6 23 anion
5 3 4 22 24 26 rings
5 7 8 9 10 11 rings
6 17 20 21 22 24 25 rings
6 9 10 14 15 18 19 rings

>  <PUBCHEM_HEAVY_ATOM_COUNT>  (1) 
27

>  <PUBCHEM_ATOM_DEF_STEREO_COUNT>  (1) 
0

>  <PUBCHEM_ATOM_UDEF_STEREO_COUNT>  (1) 
0

>  <PUBCHEM_BOND_DEF_STEREO_COUNT>  (1) 
0

>  <PUBCHEM_BOND_UDEF_STEREO_COUNT>  (1) 
0

>  <PUBCHEM_ISOTOPIC_ATOM_COUNT>  (1) 
0

>  <PUBCHEM_COMPONENT_COUNT>  (1) 
1

>  <PUBCHEM_CACTVS_TAUTO_COUNT>  (1) 
1

>  <PUBCHEM_CONFORMER_ID>  (1) 
0000783200000004

>  <PUBCHEM_MMFF94_ENERGY>  (1) 
81.3193

>  <PUBCHEM_FEATURE_SELFOVERLAP>  (1) 
56.127

>  <PUBCHEM_SHAPE_FINGERPRINT>  (1) 
10090160 65 18333449854644454156
10674148 151 17203346498228519436
1100329 8 18197496444440144048
11421498 54 17632305557303250520
11488393 25 18335139735429245114
11578080 2 17896876548060281013
11963148 33 18262231239524584411
12107183 9 17767695962574906025
12236239 1 17417813993573703625
12293681 25 17896624858491942115
12553582 1 18271515464221949821
12596602 18 17059775650007133585
13009979 54 17558550205859547570
13140716 1 18125712628866032880
13257819 37 18116733957364093534
13383665 225 17823149947317360613
13402501 40 18187931724418693395
13911987 19 18190477119396159324
14790565 3 18194125337547370704
14863182 85 18408610270601565158
15537594 2 18202280325317279535
15849732 13 17676769868662672436
19319366 153 18411135866170180550
19591789 44 18194683906665259514
20028762 73 18057320806579584759
20771845 171 18040442104844527990
21197605 99 18048885392643496347
21344244 181 17845392041039438302
21521721 280 18269560601494302480
21781051 124 18188224194770280954
221490 88 18193834847191355346
22956985 138 17971742282306675490
23557571 272 17385997365560891629
23559900 14 18049707534464683275
23569943 247 17630906914669205782
312423 11 18198908006731876122
3178227 256 18339088201621809304
3380486 145 18117016540242257451
3737641 26 18341900640748932869
4280585 95 17541365857399301338
474229 33 18335701680243884464
484989 97 18336281110520336934
5104073 3 18268988692138355681
58260988 647 16485878859935203100
59755656 215 18409732880257737670
6669772 16 18342174531641678004

>  <PUBCHEM_SHAPE_MULTIPOLES>  (1) 
515.45
11.43
3.98
1.13
7.46
3.85
-0.28
-0.05
-0.45
-5.87
0.32
0.89
-0.27
0.06

>  <PUBCHEM_SHAPE_SELFOVERLAP>  (1) 
1149.868

>  <PUBCHEM_SHAPE_VOLUME>  (1) 
276.5

>  <PUBCHEM_COORDINATE_TYPE>  (1) 
2
5
10

$$$$
