30789
     RDKit          3D

 23 24  0  0  1  0  0  0  0  0999 V2000
   -0.3565    2.3247    0.8993 I   0  0  0  0  0  0  0  0  0  0  0  0
   -2.7525   -3.0077   -0.9262 I   0  0  0  0  0  0  0  0  0  0  0  0
    2.9963   -2.7788    0.6126 I   0  0  0  0  0  0  0  0  0  0  0  0
   -3.3984   -0.3606    1.9686 O   0  0  0  0  0  0  0  0  0  0  0  0
    3.3967   -0.7451   -1.6214 O   0  0  0  0  0  0  0  0  0  0  0  0
    5.1212   -0.3139   -0.2123 O   0  0  0  0  0  0  0  0  0  0  0  0
   -2.5516    0.1760   -0.1550 N   0  0  0  0  0  0  0  0  0  0  0  0
   -2.9216    0.5658   -1.5265 C   0  0  0  0  0  0  0  0  0  0  0  0
   -3.9517    1.6802   -1.6023 C   0  0  0  0  0  0  0  0  0  0  0  0
   -5.1314    1.3269   -0.7240 C   0  0  0  0  0  0  0  0  0  0  0  0
   -4.6517    1.1958    0.7051 C   0  0  0  0  0  0  0  0  0  0  0  0
    3.0813    1.0000   -0.0053 C   0  0  0  0  0  0  0  0  0  0  0  0
   -1.2731   -0.4755    0.0295 C   0  0  0  0  0  0  0  0  0  0  0  0
    2.2515    0.3855    1.1373 C   0  0  0  0  0  0  0  0  0  0  0  0
   -3.4845    0.2424    0.8954 C   0  0  0  0  0  0  0  0  0  0  0  0
    1.0511   -0.3909    0.6506 C   0  0  0  0  0  0  0  0  0  0  0  0
   -0.1700    0.2505    0.4790 C   0  0  0  0  0  0  0  0  0  0  0  0
    3.9256    2.1755    0.5203 C   0  0  0  0  0  0  0  0  0  0  0  0
   -1.1469   -1.8372   -0.2453 C   0  0  0  0  0  0  0  0  0  0  0  0
    1.1852   -1.7473    0.3790 C   0  0  0  0  0  0  0  0  0  0  0  0
    0.0823   -2.4731   -0.0705 C   0  0  0  0  0  0  0  0  0  0  0  0
    3.9877   -0.0668   -0.6049 C   0  0  0  0  0  0  0  0  0  0  0  0
    4.7111    2.8738   -0.5829 C   0  0  0  0  0  0  0  0  0  0  0  0
  1 17  1  0
  2 19  1  0
  3 20  1  0
  4 15  2  0
  5 22  1  0
  6 22  2  0
  7  8  1  0
  7 13  1  0
  7 15  1  0
  8  9  1  0
  9 10  1  0
 10 11  1  0
 11 15  1  0
 12 14  1  0
 12 18  1  0
 12 22  1  0
 13 17  1  0
 13 19  2  0
 14 16  1  0
 16 17  2  0
 16 20  1  0
 18 23  1  0
 19 21  1  0
 20 21  2  0
M  END
>  <PUBCHEM_COMPOUND_CID>  (1) 
30789

>  <PUBCHEM_CONFORMER_RMSD>  (1) 
0.8

>  <PUBCHEM_CONFORMER_DIVERSEORDER>  (1) 
1
4
28
24
6
25
26
23
19
27
21
11
13
9
15
3
2
17
8
18
22
20
5
10
16
7
14
12

>  <PUBCHEM_MMFF94_PARTIAL_CHARGES>  (1) 
21
1 -0.08
11 0.06
12 0.06
13 0.12
14 0.14
15 0.57
16 -0.14
17 0.08
19 0.08
2 -0.08
20 0.08
21 -0.15
22 0.66
3 -0.08
37 0.15
4 -0.57
41 0.5
5 -0.65
6 -0.57
7 -0.48
8 0.3

>  <PUBCHEM_EFFECTIVE_ROTOR_COUNT>  (1) 
6

>  <PUBCHEM_PHARMACOPHORE_FEATURES>  (1) 
10
1 1 hydrophobe
1 2 hydrophobe
1 23 hydrophobe
1 3 hydrophobe
1 4 acceptor
1 5 acceptor
1 6 acceptor
3 5 6 22 anion
6 13 16 17 19 20 21 rings
6 7 8 9 10 11 15 rings

>  <PUBCHEM_HEAVY_ATOM_COUNT>  (1) 
23

>  <PUBCHEM_ATOM_DEF_STEREO_COUNT>  (1) 
0

>  <PUBCHEM_ATOM_UDEF_STEREO_COUNT>  (1) 
1

>  <PUBCHEM_BOND_DEF_STEREO_COUNT>  (1) 
0

>  <PUBCHEM_BOND_UDEF_STEREO_COUNT>  (1) 
0

>  <PUBCHEM_ISOTOPIC_ATOM_COUNT>  (1) 
0

>  <PUBCHEM_COMPONENT_COUNT>  (1) 
1

>  <PUBCHEM_CACTVS_TAUTO_COUNT>  (1) 
1

>  <PUBCHEM_CONFORMER_ID>  (1) 
0000784500000001

>  <PUBCHEM_MMFF94_ENERGY>  (1) 
94.3711

>  <PUBCHEM_FEATURE_SELFOVERLAP>  (1) 
50.806

>  <PUBCHEM_SHAPE_FINGERPRINT>  (1) 
10498660 4 18412259566620983984
1100329 8 18337945676123917194
11595378 159 14273739491125163799
11796584 16 13398621745586250869
12236239 1 17346595232465675369
12363563 72 10087643740363165605
12403259 415 18260276265063307140
12788726 201 17702667640129426824
12969540 114 18410284805357073453
13140716 1 18340758273901295011
13224815 77 18408600366101025443
13583140 156 18040438771791579363
14251751 93 18335982081631654467
14289901 80 16443072685526214001
14790565 3 18199761266811345161
16752209 62 17985540061600595657
16945 1 18200028417649863802
18186145 218 18413390947201280998
19591789 44 18267868469840856035
19784866 34 18410849997067210320
19862831 5 17846776299791279393
20871999 31 18197494232468241334
21756936 100 17346613975534131131
21864079 5 18114454651989084860
22182313 1 17700111490274205267
22393880 68 18341615962396740654
22907989 373 18057593455693505175
23227448 37 18336826506292962821
23402539 116 17988924448870214976
23493267 7 17821727204486439961
23557571 272 18056772150619643932
23558518 356 18122062275773144074
23559900 14 17970624091169491402
25147074 1 18339622512728441418
2748010 2 18200864205416483923
283562 15 18049432944532434651
335352 9 18411981339399087670
350125 39 18194964037391248152
469060 322 17970066866966540355
5104073 3 18339358682088676594
633830 44 18130515140968588169

>  <PUBCHEM_SHAPE_MULTIPOLES>  (1) 
486.55
10.14
3.57
1.39
0.78
1.26
0.06
-5.07
2.17
1.24
0.26
-0.8
-0.19
-0.48

>  <PUBCHEM_SHAPE_SELFOVERLAP>  (1) 
951.51

>  <PUBCHEM_SHAPE_VOLUME>  (1) 
301.1

>  <PUBCHEM_COORDINATE_TYPE>  (1) 
2
5
10

$$$$
