30785
     RDKit          3D

 19 20  0  0  0  0  0  0  0  0999 V2000
   -0.1021    2.4874   -0.6616 I   0  0  0  0  0  0  0  0  0  0  0  0
    2.1899   -2.9947    0.8222 I   0  0  0  0  0  0  0  0  0  0  0  0
   -3.6189   -2.5058   -0.3984 I   0  0  0  0  0  0  0  0  0  0  0  0
    2.9966    0.0417   -1.9995 O   0  0  0  0  0  0  0  0  0  0  0  0
   -4.5644    2.0121   -0.0396 O   0  0  0  0  0  0  0  0  0  0  0  0
   -3.2328    1.0456    1.5247 O   0  0  0  0  0  0  0  0  0  0  0  0
    2.0583    0.2200    0.1883 N   0  0  0  0  0  0  0  0  0  0  0  0
    2.5624    0.6854    1.4659 C   0  0  0  0  0  0  0  0  0  0  0  0
    3.7287    1.5782    1.0972 C   0  0  0  0  0  0  0  0  0  0  0  0
    4.2651    0.9490   -0.1729 C   0  0  0  0  0  0  0  0  0  0  0  0
    3.0315    0.3617   -0.8203 C   0  0  0  0  0  0  0  0  0  0  0  0
    0.7676   -0.3706    0.0485 C   0  0  0  0  0  0  0  0  0  0  0  0
   -0.3419    0.4052   -0.3141 C   0  0  0  0  0  0  0  0  0  0  0  0
   -1.6007   -0.1807   -0.4482 C   0  0  0  0  0  0  0  0  0  0  0  0
    0.5948   -1.7428    0.2744 C   0  0  0  0  0  0  0  0  0  0  0  0
   -1.7618   -1.5474   -0.2209 C   0  0  0  0  0  0  0  0  0  0  0  0
   -0.6642   -2.3285    0.1403 C   0  0  0  0  0  0  0  0  0  0  0  0
   -2.7878    0.6502   -0.8368 C   0  0  0  0  0  0  0  0  0  0  0  0
   -3.5205    1.2341    0.3507 C   0  0  0  0  0  0  0  0  0  0  0  0
  1 13  1  0
  2 15  1  0
  3 16  1  0
  4 11  2  0
  5 19  1  0
  6 19  2  0
  7  8  1  0
  7 11  1  0
  7 12  1  0
  8  9  1  0
  9 10  1  0
 10 11  1  0
 12 13  2  0
 12 15  1  0
 13 14  1  0
 14 16  2  0
 14 18  1  0
 15 17  2  0
 16 17  1  0
 18 19  1  0
M  END
>  <PUBCHEM_COMPOUND_CID>  (1) 
30785

>  <PUBCHEM_CONFORMER_RMSD>  (1) 
0.6

>  <PUBCHEM_CONFORMER_DIVERSEORDER>  (1) 
1
6
11
2
9
8
4
3
12
7
10
5

>  <PUBCHEM_MMFF94_PARTIAL_CHARGES>  (1) 
20
1 -0.08
10 0.06
11 0.57
12 0.12
13 0.08
14 -0.14
15 0.08
16 0.08
17 -0.15
18 0.2
19 0.66
2 -0.08
26 0.15
29 0.5
3 -0.08
4 -0.57
5 -0.65
6 -0.57
7 -0.48
8 0.3

>  <PUBCHEM_EFFECTIVE_ROTOR_COUNT>  (1) 
3.8

>  <PUBCHEM_PHARMACOPHORE_FEATURES>  (1) 
9
1 1 hydrophobe
1 2 hydrophobe
1 3 hydrophobe
1 4 acceptor
1 5 acceptor
1 6 acceptor
3 5 6 19 anion
5 7 8 9 10 11 rings
6 12 13 14 15 16 17 rings

>  <PUBCHEM_HEAVY_ATOM_COUNT>  (1) 
19

>  <PUBCHEM_ATOM_DEF_STEREO_COUNT>  (1) 
0

>  <PUBCHEM_ATOM_UDEF_STEREO_COUNT>  (1) 
0

>  <PUBCHEM_BOND_DEF_STEREO_COUNT>  (1) 
0

>  <PUBCHEM_BOND_UDEF_STEREO_COUNT>  (1) 
0

>  <PUBCHEM_ISOTOPIC_ATOM_COUNT>  (1) 
0

>  <PUBCHEM_COMPONENT_COUNT>  (1) 
1

>  <PUBCHEM_CACTVS_TAUTO_COUNT>  (1) 
2

>  <PUBCHEM_CONFORMER_ID>  (1) 
0000784100000001

>  <PUBCHEM_MMFF94_ENERGY>  (1) 
74.6101

>  <PUBCHEM_FEATURE_SELFOVERLAP>  (1) 
45.73

>  <PUBCHEM_SHAPE_FINGERPRINT>  (1) 
10498660 4 18410288116581900653
10646746 165 18272087235979726696
10967382 1 18336540508609992686
11132069 177 18335136501007498117
11543360 7 16200140019649525173
12236239 1 17169252927531192690
12403814 3 17240757398158319605
12788726 201 17977111484777447975
13140716 1 18263637381846994859
13380535 21 18409450258635665067
13965767 371 18115290199285574288
14178342 30 18337380634299057939
14787075 74 17769646834803006089
15309172 13 18334297560898166137
16752209 62 18263925612527388207
16945 1 18333445456397600141
18186145 218 18272656731394917172
20510252 161 18198621240518967963
20600515 1 17111246137917443362
20671657 1 18267583507377211043
20691752 17 17458061534624264302
20739085 24 17903096446810666097
20871999 31 18192448561156031460
21501502 16 18409721842382074203
2334 1 18408034122135086895
23366157 5 17968088669375741882
23402539 116 18124862710646452950
23557571 272 18199757010603574004
23558518 356 18120939666211949525
23559900 14 18341898507226385812
25147074 1 18337093597604066451
2748010 2 18408884014532148143
276578 36 18335985281313763682
283562 15 18121770888318200859
350125 39 17975976466776621604
352729 6 17828487208032839826
43471831 8 18261661666863026018
469060 322 18189342440939634419
5104073 3 18336816568171131066
59554788 170 18120096082683918709
633830 44 18343294899314203724
7364860 26 18267578014604656234
7832392 63 18411136926731248343
81228 2 18120372317806114539

>  <PUBCHEM_SHAPE_MULTIPOLES>  (1) 
404.23
7.57
3.41
1.24
0.9
1.51
-0.02
-2
0.51
1.17
0.3
-0.61
-0.26
-0.7

>  <PUBCHEM_SHAPE_SELFOVERLAP>  (1) 
790.655

>  <PUBCHEM_SHAPE_VOLUME>  (1) 
252.5

>  <PUBCHEM_COORDINATE_TYPE>  (1) 
2
5
10

$$$$
