30794
     RDKit          3D

 27 29  0  0  1  0  0  0  0  0999 V2000
   -1.1489   -1.9374    1.0902 I   0  0  0  0  0  0  0  0  0  0  0  0
   -3.3795    3.4202   -0.8731 I   0  0  0  0  0  0  0  0  0  0  0  0
    2.4693    2.8621    0.1565 I   0  0  0  0  0  0  0  0  0  0  0  0
   -5.7957   -1.0150    0.1894 O   0  0  0  0  0  0  0  0  0  0  0  0
    1.4631   -0.1102    0.9157 O   0  0  0  0  0  0  0  0  0  0  0  0
   -5.0174   -2.4310   -1.3866 O   0  0  0  0  0  0  0  0  0  0  0  0
    2.0424   -3.0560   -0.9701 O   0  0  0  0  0  0  0  0  0  0  0  0
    2.0119   -2.8314    1.2847 O   0  0  0  0  0  0  0  0  0  0  0  0
   -3.3074    0.2880    0.0988 N   0  0  0  0  0  0  0  0  0  0  0  0
   -4.1800    0.4111    1.2617 C   0  0  0  0  0  0  0  0  0  0  0  0
   -3.8260   -0.3709   -1.0978 C   0  0  0  0  0  0  0  0  0  0  0  0
   -2.0261    0.8380    0.1149 C   0  0  0  0  0  0  0  0  0  0  0  0
   -5.6213    0.2614    0.8170 C   0  0  0  0  0  0  0  0  0  0  0  0
   -0.8902    0.0841    0.5120 C   0  0  0  0  0  0  0  0  0  0  0  0
   -4.9093   -1.3721   -0.7737 C   0  0  0  0  0  0  0  0  0  0  0  0
   -1.7942    2.1862   -0.2636 C   0  0  0  0  0  0  0  0  0  0  0  0
    0.3888    0.6407    0.5296 C   0  0  0  0  0  0  0  0  0  0  0  0
    2.1448   -0.8318   -0.1057 C   0  0  0  0  0  0  0  0  0  0  0  0
   -0.5154    2.7427   -0.2459 C   0  0  0  0  0  0  0  0  0  0  0  0
    0.5761    1.9699    0.1506 C   0  0  0  0  0  0  0  0  0  0  0  0
    3.5749   -0.3464   -0.1881 C   0  0  0  0  0  0  0  0  0  0  0  0
    4.2076    0.0926    0.9625 C   0  0  0  0  0  0  0  0  0  0  0  0
    4.2218   -0.3516   -1.4123 C   0  0  0  0  0  0  0  0  0  0  0  0
    2.0502   -2.3210    0.1726 C   0  0  0  0  0  0  0  0  0  0  0  0
    5.5265    0.5402    0.8868 C   0  0  0  0  0  0  0  0  0  0  0  0
    5.5408    0.0958   -1.4879 C   0  0  0  0  0  0  0  0  0  0  0  0
    6.1931    0.5416   -0.3383 C   0  0  0  0  0  0  0  0  0  0  0  0
  1 14  1  0
  2 16  1  0
  3 20  1  0
  4 13  1  0
  4 15  1  0
  5 17  1  0
  5 18  1  0
  6 15  2  0
  7 24  1  0
  8 24  2  0
  9 10  1  0
  9 11  1  0
  9 12  1  0
 10 13  1  0
 11 15  1  0
 12 14  2  0
 12 16  1  0
 14 17  1  0
 16 19  2  0
 17 20  2  0
 18 21  1  0
 18 24  1  0
 19 20  1  0
 21 22  2  0
 21 23  1  0
 22 25  1  0
 23 26  2  0
 25 27  2  0
 26 27  1  0
M  END
>  <PUBCHEM_COMPOUND_CID>  (1) 
30794

>  <PUBCHEM_CONFORMER_RMSD>  (1) 
0.8

>  <PUBCHEM_CONFORMER_DIVERSEORDER>  (1) 
1
29
42
44
38
12
15
34
19
9
48
22
10
39
46
5
31
7
37
32
40
3
49
45
51
18
25
47
41
17
11
35
43
33
26
21
50
23
24
8
20
36
6
13
27
16
14
4
30
28
2

>  <PUBCHEM_MMFF94_PARTIAL_CHARGES>  (1) 
34
1 -0.08
10 0.37
11 0.43
12 0.1
13 0.28
14 0.08
15 0.66
16 0.08
17 0.08
18 0.48
19 -0.15
2 -0.08
20 0.08
21 -0.14
22 -0.15
23 -0.15
24 0.66
25 -0.15
26 -0.15
27 -0.15
3 -0.08
35 0.15
36 0.15
37 0.15
38 0.15
39 0.15
4 -0.43
40 0.15
41 0.5
5 -0.36
6 -0.57
7 -0.65
8 -0.57
9 -0.84

>  <PUBCHEM_EFFECTIVE_ROTOR_COUNT>  (1) 
6

>  <PUBCHEM_PHARMACOPHORE_FEATURES>  (1) 
12
1 1 hydrophobe
1 2 hydrophobe
1 3 hydrophobe
1 5 acceptor
1 6 acceptor
1 7 acceptor
1 8 acceptor
1 9 cation
3 7 8 24 anion
6 12 14 16 17 19 20 rings
6 21 22 23 25 26 27 rings
6 4 9 10 11 13 15 rings

>  <PUBCHEM_HEAVY_ATOM_COUNT>  (1) 
27

>  <PUBCHEM_ATOM_DEF_STEREO_COUNT>  (1) 
0

>  <PUBCHEM_ATOM_UDEF_STEREO_COUNT>  (1) 
1

>  <PUBCHEM_BOND_DEF_STEREO_COUNT>  (1) 
0

>  <PUBCHEM_BOND_UDEF_STEREO_COUNT>  (1) 
0

>  <PUBCHEM_ISOTOPIC_ATOM_COUNT>  (1) 
0

>  <PUBCHEM_COMPONENT_COUNT>  (1) 
1

>  <PUBCHEM_CACTVS_TAUTO_COUNT>  (1) 
1

>  <PUBCHEM_CONFORMER_ID>  (1) 
0000784A00000001

>  <PUBCHEM_MMFF94_ENERGY>  (1) 
112.4185

>  <PUBCHEM_FEATURE_SELFOVERLAP>  (1) 
60.959

>  <PUBCHEM_SHAPE_FINGERPRINT>  (1) 
10042902 136 17845646101086644663
10090160 65 17967817141363472890
10366900 7 18333454256938544584
10670039 82 18042137483640241812
10906281 52 18262536856469189296
11488393 25 17630066883543546974
11578080 2 17097477714011977349
11963148 33 18335135423140408674
12166972 35 17967255274295600956
12236239 1 13902185989427796056
12553582 1 18410287012943662297
12596602 18 16988847206612436019
12788726 201 18334007264253815329
13140716 1 18263930019348255776
13402501 40 18409733984348903160
13464513 79 18343582962765438896
13583140 156 15267344003051329553
13782708 43 17988927730789842382
13911987 19 17822585987344607606
14767858 380 18260835933650957366
14787075 74 18408888442722096736
14840074 17 18343024397604277679
14955137 171 17418098736640757384
15537594 2 18412548695640996239
17349148 13 18040719164526247172
17980427 23 17458357303167506956
19319366 153 17749383780665731042
19377110 9 18261109634478451456
20028762 73 18201718513414549926
20715895 44 17174039925975609940
21267235 1 18339648931641166305
21641784 216 17895205367458245396
22393880 68 18267026051156102758
23402539 116 18334290959480704125
23522609 53 18195277522686265760
23559900 14 18336825423945730569
24771293 8 18271521013747393408
350125 39 18335143068445555977
3737641 26 18129390314634972598
4461854 278 17701832200735992047
463206 1 18267022945688902239
484989 97 18044673116125336410
5104073 3 18191304871078236032
53794403 172 18120939662155099700
59755656 215 18335414660633414013
7237137 82 18260264114712084213
77296 10 14562818780389913568
9709674 26 18335989657743318938

>  <PUBCHEM_SHAPE_MULTIPOLES>  (1) 
557.13
13.23
3.61
1.29
1.05
0.98
-0.17
-1.81
-2.32
-1.74
-0.44
0.08
-0.39
0.01

>  <PUBCHEM_SHAPE_SELFOVERLAP>  (1) 
1133.052

>  <PUBCHEM_SHAPE_VOLUME>  (1) 
330.2

>  <PUBCHEM_COORDINATE_TYPE>  (1) 
2
5
10

$$$$
