30797
     RDKit          3D

 22 25  0  0  1  0  0  0  0  0999 V2000
    0.2071   -3.8716   -0.0017 O   0  0  0  0  0  0  0  0  0  0  0  0
    5.8027    1.4065   -0.3462 O   0  0  0  0  0  0  0  0  0  0  0  0
    0.0888   -1.5492   -0.0028 N   0  0  0  0  0  0  0  0  0  0  0  0
   -0.6411   -0.3945   -0.0085 N   0  0  0  0  0  0  0  0  0  0  0  0
    3.2713    0.3537    0.4190 N   0  0  0  0  0  0  0  0  0  0  0  0
   -2.6741   -1.6579   -0.3611 C   0  0  0  0  0  0  0  0  0  0  0  0
   -1.8917   -2.9292   -0.3224 C   0  0  0  0  0  0  0  0  0  0  0  0
   -2.8614   -2.6183    0.7831 C   0  0  0  0  0  0  0  0  0  0  0  0
   -1.9300   -0.4017   -0.1471 C   0  0  0  0  0  0  0  0  0  0  0  0
   -0.4393   -2.8318   -0.0899 C   0  0  0  0  0  0  0  0  0  0  0  0
    1.5213   -1.3438    0.1813 C   0  0  0  0  0  0  0  0  0  0  0  0
   -2.6921    0.8382   -0.1122 C   0  0  0  0  0  0  0  0  0  0  0  0
    1.8387    0.1481    0.2166 C   0  0  0  0  0  0  0  0  0  0  0  0
    4.0434   -0.2287   -0.6874 C   0  0  0  0  0  0  0  0  0  0  0  0
    3.5798    1.7845    0.5497 C   0  0  0  0  0  0  0  0  0  0  0  0
   -4.0097    0.8324    0.3433 C   0  0  0  0  0  0  0  0  0  0  0  0
   -2.1030    2.0293   -0.5337 C   0  0  0  0  0  0  0  0  0  0  0  0
    5.5335    0.0086   -0.4599 C   0  0  0  0  0  0  0  0  0  0  0  0
    5.0810    1.9750    0.7472 C   0  0  0  0  0  0  0  0  0  0  0  0
   -4.7400    2.0203    0.3770 C   0  0  0  0  0  0  0  0  0  0  0  0
   -2.8333    3.2173   -0.4998 C   0  0  0  0  0  0  0  0  0  0  0  0
   -4.1518    3.2127   -0.0444 C   0  0  0  0  0  0  0  0  0  0  0  0
  1 10  2  0
  2 18  1  0
  2 19  1  0
  3  4  1  0
  3 10  1  0
  3 11  1  0
  4  9  2  0
  5 13  1  0
  5 14  1  0
  5 15  1  0
  6  7  1  0
  6  8  1  0
  6  9  1  0
  7  8  1  0
  7 10  1  0
  9 12  1  0
 11 13  1  0
 12 16  2  0
 12 17  1  0
 14 18  1  0
 15 19  1  0
 16 20  1  0
 17 21  2  0
 20 22  2  0
 21 22  1  0
M  END
>  <PUBCHEM_COMPOUND_CID>  (1) 
30797

>  <PUBCHEM_CONFORMER_RMSD>  (1) 
0.8

>  <PUBCHEM_CONFORMER_DIVERSEORDER>  (1) 
1
35
8
31
23
29
4
38
14
33
26
20
36
37
16
11
34
30
3
22
21
15
7
10
2
9
13
18
32
28
5
19
12
6
24
25
27
17

>  <PUBCHEM_MMFF94_PARTIAL_CHARGES>  (1) 
31
1 -0.57
10 0.63
11 0.3
12 0.09
13 0.27
14 0.27
15 0.27
16 -0.15
17 -0.15
18 0.28
19 0.28
2 -0.56
20 -0.15
21 -0.15
22 -0.15
23 0.1
24 0.1
25 0.1
26 0.1
3 -0.3
35 0.15
36 0.15
4 -0.51
41 0.15
42 0.15
43 0.15
5 -0.81
6 -0.1
7 -0.1
8 -0.2
9 0.36

>  <PUBCHEM_EFFECTIVE_ROTOR_COUNT>  (1) 
5.6

>  <PUBCHEM_PHARMACOPHORE_FEATURES>  (1) 
7
1 1 acceptor
1 2 acceptor
1 4 acceptor
1 5 cation
6 12 16 17 20 21 22 rings
6 2 5 14 15 18 19 rings
7 3 4 6 7 8 9 10 rings

>  <PUBCHEM_HEAVY_ATOM_COUNT>  (1) 
22

>  <PUBCHEM_ATOM_DEF_STEREO_COUNT>  (1) 
0

>  <PUBCHEM_ATOM_UDEF_STEREO_COUNT>  (1) 
2

>  <PUBCHEM_BOND_DEF_STEREO_COUNT>  (1) 
0

>  <PUBCHEM_BOND_UDEF_STEREO_COUNT>  (1) 
0

>  <PUBCHEM_ISOTOPIC_ATOM_COUNT>  (1) 
0

>  <PUBCHEM_COMPONENT_COUNT>  (1) 
1

>  <PUBCHEM_CACTVS_TAUTO_COUNT>  (1) 
1

>  <PUBCHEM_CONFORMER_ID>  (1) 
0000784D00000001

>  <PUBCHEM_MMFF94_ENERGY>  (1) 
59.8152

>  <PUBCHEM_FEATURE_SELFOVERLAP>  (1) 
35.522

>  <PUBCHEM_SHAPE_FINGERPRINT>  (1) 
10165383 225 18342464694968294761
10319926 262 18340471362534321552
10411042 1 17833833055421958671
10493431 412 18410295779125335909
10615611 76 17386587876060807020
10670039 82 18262246641862117028
10871710 139 18339918320622474471
11014199 57 17760932144407034074
12107183 9 18191011328039956442
12173636 292 18410569608606397567
12390115 104 18342471334665577969
12403259 415 18059576966343848288
12769317 202 18126275355238658760
12788726 201 18189323744536058107
13073987 5 18335414725611662394
13140716 1 18335416803516464674
138480 1 17258214069262560911
13965767 371 17968934159124791324
14123255 52 18338796706649666913
14142880 1 18260541251702688847
14251764 75 18341059505759287233
14508225 48 17766827700202072351
1454969 45 18411697682879670757
14713325 29 18335989752412142627
14790565 3 18268154149591049560
15230672 131 18335988550676160294
15961568 22 17545591714413808816
17834072 32 18411418380175353456
17844677 252 18266465480852082720
18785283 64 17976255742598350899
20510252 161 18270119140083404235
20645477 56 18411987948520143764
21033648 29 18342450457051683304
21236236 1 18341332275237461495
21279426 13 18271535195939849174
22182937 141 18413392042238911993
23227448 37 18412543232120900997
23557571 272 18271535315739860876
23558518 356 18260551151333891130
23559900 14 18130509639912339982
23845131 108 18262240989764068515
283562 15 18337946913417233547
350125 39 18339646745349955337
4214541 1 18340487867682234640
5048184 11 18410290272512954424
508706 21 18341323500403160464
5104073 3 18334006216666806842
5283173 99 18341612663925186608
5895379 119 18189631582543946452
5939293 188 17329139179457039123
6327066 14 18335134250713998461
7288768 16 18040437655437640427
7808743 9 18409445895091284872
9981440 41 18408039594049776339

>  <PUBCHEM_SHAPE_MULTIPOLES>  (1) 
426.07
11.31
4.44
0.77
14.57
1.62
-0.02
-10.13
-0.21
-4.4
0.01
0.13
-0.07
0.72

>  <PUBCHEM_SHAPE_SELFOVERLAP>  (1) 
912.183

>  <PUBCHEM_SHAPE_VOLUME>  (1) 
235.6

>  <PUBCHEM_COORDINATE_TYPE>  (1) 
2
5
10

$$$$
