30807
     RDKit          3D

 18 19  0  0  0  0  0  0  0  0999 V2000
    1.4520    2.3112    0.3171 O   0  0  0  0  0  0  0  0  0  0  0  0
   -1.3354   -0.0020    0.2428 O   0  0  0  0  0  0  0  0  0  0  0  0
    0.4447   -1.5657   -1.0506 O   0  0  0  0  0  0  0  0  0  0  0  0
   -4.7882   -0.5355    0.0891 O   0  0  0  0  0  0  0  0  0  0  0  0
   -3.1372   -1.8397    0.7152 O   0  0  0  0  0  0  0  0  0  0  0  0
    2.8170    2.0597    0.3826 N   0  0  0  0  0  0  0  0  0  0  0  0
    2.2930   -2.1681    0.1890 N   0  0  0  0  0  0  0  0  0  0  0  0
   -3.5503   -0.7249    0.2787 N   0  0  0  0  0  0  0  0  0  0  0  0
    1.7044    0.1645   -0.0633 C   0  0  0  0  0  0  0  0  0  0  0  0
    0.7956    1.1540    0.0468 C   0  0  0  0  0  0  0  0  0  0  0  0
   -0.6178    1.1061   -0.0788 C   0  0  0  0  0  0  0  0  0  0  0  0
    2.9388    0.7501    0.1480 C   0  0  0  0  0  0  0  0  0  0  0  0
    1.4056   -1.2451   -0.3518 C   0  0  0  0  0  0  0  0  0  0  0  0
   -1.4490    2.1097   -0.5185 C   0  0  0  0  0  0  0  0  0  0  0  0
    4.2763    0.1336    0.1429 C   0  0  0  0  0  0  0  0  0  0  0  0
   -2.6394    0.2973    0.0056 C   0  0  0  0  0  0  0  0  0  0  0  0
   -2.7620    1.5844   -0.4637 C   0  0  0  0  0  0  0  0  0  0  0  0
    2.1520   -3.5897   -0.0312 C   0  0  0  0  0  0  0  0  0  0  0  0
  1  6  1  0
  1 10  1  0
  2 11  1  0
  2 16  1  0
  3 13  2  0
  4  8  1  0
  5  8  2  0
  6 12  2  0
  7 13  1  0
  7 18  1  0
  8 16  1  0
  9 10  2  0
  9 12  1  0
  9 13  1  0
 10 11  1  0
 11 14  2  0
 12 15  1  0
 14 17  1  0
 16 17  2  0
M  CHG  2   4  -1   8   1
M  END
>  <PUBCHEM_COMPOUND_CID>  (1) 
30807

>  <PUBCHEM_CONFORMER_RMSD>  (1) 
0.6

>  <PUBCHEM_CONFORMER_DIVERSEORDER>  (1) 
13
11
4
9
14
6
1
12
8
15
7
10
5
3
2

>  <PUBCHEM_MMFF94_PARTIAL_CHARGES>  (1) 
21
1 -0.02
10 0.14
11 0.14
12 0.11
13 0.72
14 -0.15
15 0.18
16 0.22
17 -0.15
18 0.3
19 0.15
2 -0.28
23 0.15
24 0.37
3 -0.57
4 -0.52
5 -0.52
6 -0.41
7 -0.73
8 0.96
9 -0.09

>  <PUBCHEM_EFFECTIVE_ROTOR_COUNT>  (1) 
4

>  <PUBCHEM_PHARMACOPHORE_FEATURES>  (1) 
9
1 2 acceptor
1 3 acceptor
1 4 acceptor
1 4 anion
1 5 acceptor
1 6 acceptor
1 7 donor
5 1 6 9 10 12 rings
5 2 11 14 16 17 rings

>  <PUBCHEM_HEAVY_ATOM_COUNT>  (1) 
18

>  <PUBCHEM_ATOM_DEF_STEREO_COUNT>  (1) 
0

>  <PUBCHEM_ATOM_UDEF_STEREO_COUNT>  (1) 
0

>  <PUBCHEM_BOND_DEF_STEREO_COUNT>  (1) 
0

>  <PUBCHEM_BOND_UDEF_STEREO_COUNT>  (1) 
0

>  <PUBCHEM_ISOTOPIC_ATOM_COUNT>  (1) 
0

>  <PUBCHEM_COMPONENT_COUNT>  (1) 
1

>  <PUBCHEM_CACTVS_TAUTO_COUNT>  (1) 
2

>  <PUBCHEM_CONFORMER_ID>  (1) 
000078570000000D

>  <PUBCHEM_MMFF94_ENERGY>  (1) 
24.7353

>  <PUBCHEM_FEATURE_SELFOVERLAP>  (1) 
45.772

>  <PUBCHEM_SHAPE_FINGERPRINT>  (1) 
10608611 8 18409443653060502885
10616163 171 18410013260255034635
10967382 1 18411135865673853038
11578080 2 16734936832039546486
12839892 36 18337934762917466610
13140716 1 18125151890762382738
14178342 30 18268706121871553400
14223421 5 18409446964273975039
15219456 202 18410291368072415341
15375358 24 18334852861994712265
15375462 6 18409166610304866797
15442244 35 18052821342836707065
16945 1 18411690002570920692
17990270 104 18338514123529072520
19591789 44 18411983602609553662
200 152 18060129964657694909
20201158 50 18408887351805535465
20261772 1 18128256881381846959
20645477 70 18410003313458988943
21501502 16 18339365137023698861
221490 88 18337397024174178386
23184049 29 18119245069289811170
2334 1 17763459921496587070
23557571 272 17530959160125344885
23559900 14 17977655412816827818
2748010 2 18197773311037953692
2871803 45 18408320003747626239
33824 294 18411418457511073627
474229 33 18337109081250643336
5104073 3 18410853256905509072
5493415 88 18122903131838543698
5902787 121 17975127643889746834
7364860 26 18340204094534270586
81228 2 17967542238040458141
8809292 202 18187649162477399723
9709674 26 18408323255164742571

>  <PUBCHEM_SHAPE_MULTIPOLES>  (1) 
326.14
6.89
3.08
0.71
3.51
1.89
-0.06
1.41
0.72
-1.77
0.03
0.05
0.06
0.75

>  <PUBCHEM_SHAPE_SELFOVERLAP>  (1) 
705.33

>  <PUBCHEM_SHAPE_VOLUME>  (1) 
181.2

>  <PUBCHEM_COORDINATE_TYPE>  (1) 
2
5
10

$$$$
