30804
     RDKit          3D

 17 18  0  0  0  0  0  0  0  0999 V2000
    1.2359    0.1057    0.0099 O   0  0  0  0  0  0  0  0  0  0  0  0
   -3.1348   -1.5135   -0.0010 O   0  0  0  0  0  0  0  0  0  0  0  0
   -1.1901    2.3034    1.0880 O   0  0  0  0  0  0  0  0  0  0  0  0
    4.7311    0.2196    0.0030 O   0  0  0  0  0  0  0  0  0  0  0  0
    3.2196    1.8115    0.0277 O   0  0  0  0  0  0  0  0  0  0  0  0
   -1.8272   -1.9838   -0.0106 N   0  0  0  0  0  0  0  0  0  0  0  0
    3.5172    0.5806    0.0107 N   0  0  0  0  0  0  0  0  0  0  0  0
   -1.2257    2.3026   -1.1911 N   0  0  0  0  0  0  0  0  0  0  0  0
   -1.0654   -0.8864    0.0018 C   0  0  0  0  0  0  0  0  0  0  0  0
   -1.8289    0.2935    0.0193 C   0  0  0  0  0  0  0  0  0  0  0  0
    0.4067   -0.9709   -0.0028 C   0  0  0  0  0  0  0  0  0  0  0  0
   -3.1228   -0.1562    0.0168 C   0  0  0  0  0  0  0  0  0  0  0  0
    1.1321   -2.1394   -0.0200 C   0  0  0  0  0  0  0  0  0  0  0  0
    2.5046   -0.3806    0.0002 C   0  0  0  0  0  0  0  0  0  0  0  0
    2.4945   -1.7560   -0.0183 C   0  0  0  0  0  0  0  0  0  0  0  0
   -4.4343    0.5063    0.0292 C   0  0  0  0  0  0  0  0  0  0  0  0
   -1.4124    1.6636    0.0373 C   0  0  0  0  0  0  0  0  0  0  0  0
  1 11  1  0
  1 14  1  0
  2  6  1  0
  2 12  1  0
  3 17  2  0
  4  7  1  0
  5  7  2  0
  6  9  2  0
  7 14  1  0
  8 17  1  0
  9 10  1  0
  9 11  1  0
 10 12  2  0
 10 17  1  0
 11 13  2  0
 12 16  1  0
 13 15  1  0
 14 15  2  0
M  CHG  2   4  -1   7   1
M  END
>  <PUBCHEM_COMPOUND_CID>  (1) 
30804

>  <PUBCHEM_CONFORMER_RMSD>  (1) 
0.6

>  <PUBCHEM_CONFORMER_DIVERSEORDER>  (1) 
1
8
3
7
4
2
5
10
6
9

>  <PUBCHEM_MMFF94_PARTIAL_CHARGES>  (1) 
21
1 -0.28
10 -0.09
11 0.14
12 -0.04
13 -0.15
14 0.22
15 -0.15
16 0.18
17 0.72
18 0.15
19 0.15
2 -0.02
23 0.37
24 0.37
3 -0.57
4 -0.52
5 -0.52
6 -0.41
7 0.96
8 -0.8
9 0.29

>  <PUBCHEM_EFFECTIVE_ROTOR_COUNT>  (1) 
3

>  <PUBCHEM_PHARMACOPHORE_FEATURES>  (1) 
9
1 1 acceptor
1 3 acceptor
1 4 acceptor
1 4 anion
1 5 acceptor
1 6 acceptor
1 8 donor
5 1 11 13 14 15 rings
5 2 6 9 10 12 rings

>  <PUBCHEM_HEAVY_ATOM_COUNT>  (1) 
17

>  <PUBCHEM_ATOM_DEF_STEREO_COUNT>  (1) 
0

>  <PUBCHEM_ATOM_UDEF_STEREO_COUNT>  (1) 
0

>  <PUBCHEM_BOND_DEF_STEREO_COUNT>  (1) 
0

>  <PUBCHEM_BOND_UDEF_STEREO_COUNT>  (1) 
0

>  <PUBCHEM_ISOTOPIC_ATOM_COUNT>  (1) 
0

>  <PUBCHEM_COMPONENT_COUNT>  (1) 
1

>  <PUBCHEM_CACTVS_TAUTO_COUNT>  (1) 
2

>  <PUBCHEM_CONFORMER_ID>  (1) 
0000785400000001

>  <PUBCHEM_MMFF94_ENERGY>  (1) 
27.2278

>  <PUBCHEM_FEATURE_SELFOVERLAP>  (1) 
45.765

>  <PUBCHEM_SHAPE_FINGERPRINT>  (1) 
10608611 8 18337106748545312030
10967382 1 18410856551049880978
11132069 177 18340200886040583440
13140716 1 18265900352553475785
13214271 11 18409730698878633415
14614273 12 18334853875032091861
15196674 1 18339080509530339496
15442244 35 18122906421994742522
15775835 57 18342178864435510778
16945 1 17545882624863241835
17802600 8 18410288104029048136
20510252 161 18270118998660550897
21267235 1 18338526321315808095
21501502 16 18267867181419095898
21524375 3 18410575098191883874
21652331 79 18408323280807705460
23402539 116 18339916108302853870
23419403 2 16592272196127122705
23557571 272 18270693067957572294
23559900 14 18341046316310002362
2748010 2 18049724018602016807
3312278 4 18410577309783517331
34934 24 18409724063169887831
350125 39 18194125109686627104
353137 74 18335134254955600803
4028521 119 18334290938084813815
474 4 17822300114690443012
5104073 3 18409730647001488067
537710 114 18410299142010713341
58051976 378 18343301448923039166
7364860 26 18269275673369140758
74978 22 17978509737166490094
9709674 26 18340209596155788031

>  <PUBCHEM_SHAPE_MULTIPOLES>  (1) 
305.56
7
2.42
0.7
2.34
0.43
-0.02
1.01
0.07
-0.07
-0.04
-0.19
0.27
0.04

>  <PUBCHEM_SHAPE_SELFOVERLAP>  (1) 
662.432

>  <PUBCHEM_SHAPE_VOLUME>  (1) 
168.5

>  <PUBCHEM_COORDINATE_TYPE>  (1) 
2
5
10

$$$$
