30810
     RDKit          3D

 18 20  0  0  1  0  0  0  0  0999 V2000
    2.5900    1.3971    1.0138 O   0  0  0  0  0  0  0  0  0  0  0  0
   -0.6141    2.6901    0.1841 O   0  0  0  0  0  0  0  0  0  0  0  0
   -3.1721   -0.5011   -0.1819 N   0  0  0  0  0  0  0  0  0  0  0  0
    0.2383    0.5810   -0.3335 N   0  0  0  0  0  0  0  0  0  0  0  0
   -1.0092    0.0720   -0.8338 C   0  0  0  0  0  0  0  0  0  0  0  0
   -1.9663    1.1788   -1.2826 C   0  0  0  0  0  0  0  0  0  0  0  0
   -1.7820   -0.7076    0.2254 C   0  0  0  0  0  0  0  0  0  0  0  0
   -3.2583    0.9208   -0.5161 C   0  0  0  0  0  0  0  0  0  0  0  0
   -4.1175   -0.8852    0.8561 C   0  0  0  0  0  0  0  0  0  0  0  0
    1.3777   -0.2710   -0.2676 C   0  0  0  0  0  0  0  0  0  0  0  0
    0.3253    1.8981    0.1112 C   0  0  0  0  0  0  0  0  0  0  0  0
    2.5213    0.1737    0.4059 C   0  0  0  0  0  0  0  0  0  0  0  0
   -4.0379   -2.3673    1.1581 C   0  0  0  0  0  0  0  0  0  0  0  0
    1.7385    2.3511    0.4177 C   0  0  0  0  0  0  0  0  0  0  0  0
    1.3845   -1.5630   -0.8139 C   0  0  0  0  0  0  0  0  0  0  0  0
    3.6386   -0.6537    0.5496 C   0  0  0  0  0  0  0  0  0  0  0  0
    2.5091   -2.3835   -0.6876 C   0  0  0  0  0  0  0  0  0  0  0  0
    3.6342   -1.9304   -0.0047 C   0  0  0  0  0  0  0  0  0  0  0  0
  1 12  1  0
  1 14  1  0
  2 11  2  0
  3  7  1  0
  3  8  1  0
  3  9  1  0
  4  5  1  0
  4 10  1  0
  4 11  1  0
  5  6  1  0
  5  7  1  0
  6  8  1  0
  9 13  1  0
 10 12  2  0
 10 15  1  0
 11 14  1  0
 12 16  1  0
 15 17  2  0
 16 18  2  0
 17 18  1  0
M  END
>  <PUBCHEM_COMPOUND_CID>  (1) 
30810

>  <PUBCHEM_CONFORMER_RMSD>  (1) 
0.6

>  <PUBCHEM_CONFORMER_DIVERSEORDER>  (1) 
3
17
7
1
9
13
5
6
2
12
14
15
18
4
10
16
8
11

>  <PUBCHEM_MMFF94_PARTIAL_CHARGES>  (1) 
20
1 -0.36
10 0.12
11 0.57
12 0.08
14 0.34
15 -0.15
16 -0.15
17 -0.15
18 -0.15
2 -0.57
3 -0.81
33 0.15
34 0.15
35 0.15
36 0.15
4 -0.48
5 0.3
7 0.27
8 0.27
9 0.27

>  <PUBCHEM_EFFECTIVE_ROTOR_COUNT>  (1) 
3.6

>  <PUBCHEM_PHARMACOPHORE_FEATURES>  (1) 
6
1 1 acceptor
1 2 acceptor
1 3 cation
5 3 5 6 7 8 rings
6 1 4 10 11 12 14 rings
6 10 12 15 16 17 18 rings

>  <PUBCHEM_HEAVY_ATOM_COUNT>  (1) 
18

>  <PUBCHEM_ATOM_DEF_STEREO_COUNT>  (1) 
0

>  <PUBCHEM_ATOM_UDEF_STEREO_COUNT>  (1) 
1

>  <PUBCHEM_BOND_DEF_STEREO_COUNT>  (1) 
0

>  <PUBCHEM_BOND_UDEF_STEREO_COUNT>  (1) 
0

>  <PUBCHEM_ISOTOPIC_ATOM_COUNT>  (1) 
0

>  <PUBCHEM_COMPONENT_COUNT>  (1) 
1

>  <PUBCHEM_CACTVS_TAUTO_COUNT>  (1) 
1

>  <PUBCHEM_CONFORMER_ID>  (1) 
0000785A00000003

>  <PUBCHEM_MMFF94_ENERGY>  (1) 
62.6895

>  <PUBCHEM_FEATURE_SELFOVERLAP>  (1) 
30.478

>  <PUBCHEM_SHAPE_FINGERPRINT>  (1) 
10493431 412 17694215973630901504
10967382 1 18342446071905326156
11067466 332 18263654011991461292
11471102 22 18342457057972668354
11543360 7 16878237376430348326
11578080 2 14347171616205191622
117890 22 18263654016397607611
11796584 16 17387117685867542250
12032990 46 18409730629736962118
12506688 2 18409454691052262787
12553582 1 18343861104599744830
12633257 1 18340784688529998411
12892183 10 18129952298806009801
13140716 1 18340208492512210137
13296908 3 18408038494321577791
13533116 47 18269283533670885283
14115302 16 18042412322154131605
14251705 54 18410293631166492490
14252887 29 18410294743589526242
14787075 74 18187651357569957354
14790565 3 17761783157554027028
15219456 202 18410847763568028868
15422964 175 18411140212291695407
15475509 84 17916883317590088097
15653759 3 18261109656048200391
16945 1 18201422671887959996
17804303 29 18261398823664857143
19049666 15 18336820875780657029
19141452 34 18409736184042656267
19591789 44 17762337311904413004
200 152 17845636119698433221
20281475 54 18261120698699281847
20645477 70 18338780321597301015
221490 88 18411137992247277398
22721475 48 18340484448476946956
23184049 59 17988642973645597703
2334 1 17910654786160651188
23557571 272 17604136095480987653
23559900 14 18191017899055199030
2748010 2 18340472388119245572
31174 14 18340487867007007883
458136 41 18124039185090486432
5104073 3 18269267972518549434
5902787 121 18260824869525214570
6049 1 18335136484043757437
77492 1 16773786030675296637
81228 2 17695633948419465664
8809292 202 18263924341221973031
9709674 26 18339635634016366095

>  <PUBCHEM_SHAPE_MULTIPOLES>  (1) 
348.73
7.13
2.81
1.04
3.44
0.34
0.04
-4.53
-1.76
-0.46
-0.33
0.35
-0.1
1.64

>  <PUBCHEM_SHAPE_SELFOVERLAP>  (1) 
749.315

>  <PUBCHEM_SHAPE_VOLUME>  (1) 
192.2

>  <PUBCHEM_COORDINATE_TYPE>  (1) 
2
5
10

$$$$
