30823
     RDKit          3D

 23 24  0  0  1  0  0  0  0  0999 V2000
    5.3875   -2.9588    0.8410 Cl  0  0  0  0  0  0  0  0  0  0  0  0
   -2.8038    0.1309   -0.1994 O   0  0  0  0  0  0  0  0  0  0  0  0
   -5.0481   -0.6705    1.3141 O   0  0  0  0  0  0  0  0  0  0  0  0
   -7.2274   -1.7538   -0.0144 O   0  0  0  0  0  0  0  0  0  0  0  0
   -0.9357   -0.8347   -1.1359 O   0  0  0  0  0  0  0  0  0  0  0  0
    1.2684    0.0872    0.1518 N   0  0  0  0  0  0  0  0  0  0  0  0
    1.2114    2.4096    0.6238 N   0  0  0  0  0  0  0  0  0  0  0  0
   -5.0296   -0.7974   -0.1096 C   0  0  0  0  0  0  0  0  0  0  0  0
    2.6174   -0.1976   -0.1105 C   0  0  0  0  0  0  0  0  0  0  0  0
   -3.5886   -0.9996   -0.5641 C   0  0  0  0  0  0  0  0  0  0  0  0
    3.2437   -1.3191    0.4450 C   0  0  0  0  0  0  0  0  0  0  0  0
    0.5444    1.3039    0.2235 C   0  0  0  0  0  0  0  0  0  0  0  0
   -0.7844    1.3131   -0.1115 C   0  0  0  0  0  0  0  0  0  0  0  0
   -5.9046   -1.9855   -0.4869 C   0  0  0  0  0  0  0  0  0  0  0  0
    3.3503    0.6553   -0.9432 C   0  0  0  0  0  0  0  0  0  0  0  0
   -1.4893    0.0812   -0.5475 C   0  0  0  0  0  0  0  0  0  0  0  0
    4.5855   -1.5841    0.1714 C   0  0  0  0  0  0  0  0  0  0  0  0
    2.4550   -2.2293    1.3356 C   0  0  0  0  0  0  0  0  0  0  0  0
   -1.5007    2.4871   -0.0480 C   0  0  0  0  0  0  0  0  0  0  0  0
    4.6922    0.3904   -1.2167 C   0  0  0  0  0  0  0  0  0  0  0  0
    5.3099   -0.7291   -0.6594 C   0  0  0  0  0  0  0  0  0  0  0  0
   -0.8491    3.6459    0.3594 C   0  0  0  0  0  0  0  0  0  0  0  0
    0.4954    3.5548    0.6816 C   0  0  0  0  0  0  0  0  0  0  0  0
  1 17  1  0
  2 10  1  0
  2 16  1  0
  3  8  1  0
  4 14  1  0
  5 16  2  0
  6  9  1  0
  6 12  1  0
  7 12  2  0
  7 23  1  0
  8 10  1  0
  8 14  1  0
  9 11  2  0
  9 15  1  0
 11 17  1  0
 11 18  1  0
 12 13  1  0
 13 16  1  0
 13 19  2  0
 15 20  2  0
 17 21  2  0
 19 22  1  0
 20 21  1  0
 22 23  2  0
M  END
>  <PUBCHEM_COMPOUND_CID>  (1) 
30823

>  <PUBCHEM_CONFORMER_RMSD>  (1) 
1

>  <PUBCHEM_CONFORMER_DIVERSEORDER>  (1) 
1
176
196
102
306
417
234
466
203
355
84
369
285
388
24
44
100
31
543
331
123
471
376
317
439
280
509
392
108
480
588
5
436
245
511
99
7
113
11
138
370
287
240
91
249
98
521
312
294
2
157
359
430
428
321
429
162
132
301
120
550
78
415
407
21
116
561
23
184
76
241
389
405
53
121
104
460
295
266
385
490
402
246
188
10
54
12
268
3
524
454
32
257
214
128
290
177
353
30
15
4
322
228
151
6
229
186
107
200
47
504
20
182
77
48
272
133
298
551
27

>  <PUBCHEM_MMFF94_PARTIAL_CHARGES>  (1) 
32
1 -0.18
10 0.28
11 -0.14
12 0.41
13 0.09
14 0.28
15 -0.15
16 0.63
17 0.18
18 0.14
19 -0.15
2 -0.43
20 -0.15
21 -0.15
22 -0.15
23 0.16
27 0.4
3 -0.68
30 0.15
34 0.15
35 0.15
36 0.15
37 0.15
38 0.15
39 0.4
4 -0.68
40 0.4
5 -0.57
6 -0.6
7 -0.62
8 0.28
9 0.1

>  <PUBCHEM_EFFECTIVE_ROTOR_COUNT>  (1) 
7

>  <PUBCHEM_PHARMACOPHORE_FEATURES>  (1) 
10
1 3 acceptor
1 3 donor
1 4 acceptor
1 4 donor
1 5 acceptor
1 6 cation
1 6 donor
1 7 acceptor
6 7 12 13 19 22 23 rings
6 9 11 15 17 20 21 rings

>  <PUBCHEM_HEAVY_ATOM_COUNT>  (1) 
23

>  <PUBCHEM_ATOM_DEF_STEREO_COUNT>  (1) 
0

>  <PUBCHEM_ATOM_UDEF_STEREO_COUNT>  (1) 
1

>  <PUBCHEM_BOND_DEF_STEREO_COUNT>  (1) 
0

>  <PUBCHEM_BOND_UDEF_STEREO_COUNT>  (1) 
0

>  <PUBCHEM_ISOTOPIC_ATOM_COUNT>  (1) 
0

>  <PUBCHEM_COMPONENT_COUNT>  (1) 
1

>  <PUBCHEM_CACTVS_TAUTO_COUNT>  (1) 
3

>  <PUBCHEM_CONFORMER_ID>  (1) 
0000786700000001

>  <PUBCHEM_MMFF94_ENERGY>  (1) 
80.0496

>  <PUBCHEM_FEATURE_SELFOVERLAP>  (1) 
50.755

>  <PUBCHEM_SHAPE_FINGERPRINT>  (1) 
10411042 1 18412542102496782249
10616163 171 18124593081490049350
10622 236 17825934941240076498
11045515 52 18186520981795918685
11578080 2 17899669334029786796
12516196 113 18411980286609977411
12553582 1 18342726434037302878
12760667 363 18335422335566022283
12788726 201 18338520737852685034
13103583 49 18129957732060912923
13540713 4 18267280132637142697
13583140 156 16985435272573085866
13631057 29 18337392648029278018
13899415 154 18339652225670306607
13911852 28 18411979148649606199
13955234 65 17982168126206811673
14251764 30 18411134744993811555
14739800 52 16199020824397746089
14767858 380 18261969539066999148
14787075 74 18259989275042854235
15042514 8 18197499523794629489
15537594 2 18410856598358455295
15927050 60 17694220375655160790
17492 89 18195529195359162942
1813 80 18201449085625756653
18222031 100 18131344237413447287
19319366 153 18187079607239550718
200 152 18259988141487550838
20028762 73 17846215626799163335
20554085 129 12540971971263121076
20832881 197 18408038520629387067
21049683 271 18262524826224212565
21267235 1 18413112741111661206
21478907 32 18411418388944947929
22182313 1 18196063690616437861
22950370 63 18411704287679437975
23522609 53 18194152726918041685
23559900 14 17750796735080325671
23598288 3 18196645203270124676
23622692 118 18263361404765500234
2838139 119 11240001109722039387
3004659 81 17968090906731572722
312423 11 18262246495711493286
314194 84 18408609188259646811
329604 57 18334296457244512918
3411729 13 17344620668290654584
3421961 26 18341326811902060545
351380 3 18413669123580292287
46194498 28 17023464278046196573
463206 1 18336543914514699611
465052 167 18343024432148989599
5104073 3 18202278070243554832
6058803 2 17972891250724963472
7164475 11 18337957762572454612
77188 2 18411979182767108633
7970288 3 18411976949262847455
8863177 126 18045508762327406131

>  <PUBCHEM_SHAPE_MULTIPOLES>  (1) 
441.76
13.65
3.77
1.04
12.85
2.97
-0.03
-15.57
0.84
0.33
-1.27
-0.52
-0.19
-1.4

>  <PUBCHEM_SHAPE_SELFOVERLAP>  (1) 
924.342

>  <PUBCHEM_SHAPE_VOLUME>  (1) 
249.3

>  <PUBCHEM_COORDINATE_TYPE>  (1) 
2
5
10

$$$$
