30838
     RDKit          3D

 11 10  0  0  0  0  0  0  0  0999 V2000
    2.6326   -0.1562    0.0175 S   0  0  0  0  0  0  0  0  0  0  0  0
    3.7395    1.0193   -0.2137 O   0  0  0  0  0  0  0  0  0  0  0  0
    2.6203   -1.0217   -1.1474 O   0  0  0  0  0  0  0  0  0  0  0  0
    2.7917   -0.6892    1.3581 O   0  0  0  0  0  0  0  0  0  0  0  0
   -2.5806   -0.0125    0.0008 N   0  0  0  0  0  0  0  0  0  0  0  0
   -1.3474    0.8793   -0.0058 C   0  0  0  0  0  0  0  0  0  0  0  0
   -0.0778    0.0387   -0.0002 C   0  0  0  0  0  0  0  0  0  0  0  0
   -2.5396   -0.9261    1.2172 C   0  0  0  0  0  0  0  0  0  0  0  0
   -3.8316    0.8525    0.0579 C   0  0  0  0  0  0  0  0  0  0  0  0
   -2.6041   -0.8555   -1.2661 C   0  0  0  0  0  0  0  0  0  0  0  0
    1.1969    0.8713   -0.0183 C   0  0  0  0  0  0  0  0  0  0  0  0
  1  2  1  0
  1  3  2  0
  1  4  2  0
  1 11  1  0
  5  6  1  0
  5  8  1  0
  5  9  1  0
  5 10  1  0
  6  7  1  0
  7 11  1  0
M  CHG  1   5   1
M  END
>  <PUBCHEM_COMPOUND_CID>  (1) 
30838

>  <PUBCHEM_CONFORMER_RMSD>  (1) 
0.6

>  <PUBCHEM_CONFORMER_DIVERSEORDER>  (1) 
1
2
3

>  <PUBCHEM_MMFF94_PARTIAL_CHARGES>  (1) 
11
1 1.38
10 0.5
11 0.11
2 -0.68
27 0.5
3 -0.65
4 -0.65
5 -1.01
6 0.5
8 0.5
9 0.5

>  <PUBCHEM_EFFECTIVE_ROTOR_COUNT>  (1) 
4

>  <PUBCHEM_PHARMACOPHORE_FEATURES>  (1) 
5
1 2 acceptor
1 3 acceptor
1 4 acceptor
1 5 cation
4 1 2 3 4 anion

>  <PUBCHEM_HEAVY_ATOM_COUNT>  (1) 
11

>  <PUBCHEM_ATOM_DEF_STEREO_COUNT>  (1) 
0

>  <PUBCHEM_ATOM_UDEF_STEREO_COUNT>  (1) 
0

>  <PUBCHEM_BOND_DEF_STEREO_COUNT>  (1) 
0

>  <PUBCHEM_BOND_UDEF_STEREO_COUNT>  (1) 
0

>  <PUBCHEM_ISOTOPIC_ATOM_COUNT>  (1) 
0

>  <PUBCHEM_COMPONENT_COUNT>  (1) 
1

>  <PUBCHEM_CACTVS_TAUTO_COUNT>  (1) 
1

>  <PUBCHEM_CONFORMER_ID>  (1) 
0000787600000001

>  <PUBCHEM_MMFF94_ENERGY>  (1) 
23.9789

>  <PUBCHEM_FEATURE_SELFOVERLAP>  (1) 
25.425

>  <PUBCHEM_SHAPE_FINGERPRINT>  (1) 
11062470 55 18410011035229899213
12500047 106 17489864925557738125
12932764 1 16630525124479542700
13296908 3 18409174311170756802
14144814 61 18040715844405575841
14325111 11 18040716973871139873
14390081 3 11458425738793427935
15310529 11 14418127405514035713
15775835 57 17775287166118269111
18186145 218 17603586318091619950
20201158 50 18410294696360768370
20279233 1 18409733962578777778
20281407 28 17775284967052789361
20528008 55 16487248863976023117
20645477 70 18130791096838639998
21028194 46 9439404618367187408
3248919 1 18410854360621860744
581208 293 18059851757887125094

>  <PUBCHEM_SHAPE_MULTIPOLES>  (1) 
207.64
7
1.16
1.12
1.08
0.02
0.02
0.25
0
-0.08
-0.02
-0.13
-0.46
-0.04

>  <PUBCHEM_SHAPE_SELFOVERLAP>  (1) 
369.387

>  <PUBCHEM_SHAPE_VOLUME>  (1) 
138

>  <PUBCHEM_COORDINATE_TYPE>  (1) 
2
5
10

$$$$
