30839
     RDKit          3D

 24 26  0  0  1  0  0  0  0  0999 V2000
    4.7633   -1.7965    0.2091 O   0  0  0  0  0  0  0  0  0  0  0  0
    3.7972    0.2724    1.7679 O   0  0  0  0  0  0  0  0  0  0  0  0
    2.6832    2.5065    0.6941 O   0  0  0  0  0  0  0  0  0  0  0  0
   -0.2184   -2.6650    0.0609 O   0  0  0  0  0  0  0  0  0  0  0  0
    0.2886    2.8211   -0.2783 O   0  0  0  0  0  0  0  0  0  0  0  0
   -2.7247   -2.3449   -0.0156 O   0  0  0  0  0  0  0  0  0  0  0  0
   -2.2322    2.9671   -0.3109 O   0  0  0  0  0  0  0  0  0  0  0  0
   -5.0147   -0.8540   -0.1594 O   0  0  0  0  0  0  0  0  0  0  0  0
    3.6987   -0.9907   -0.3105 C   0  0  0  0  0  0  0  0  0  0  0  0
    3.8065    0.3988    0.3390 C   0  0  0  0  0  0  0  0  0  0  0  0
    2.3605   -1.6525    0.0622 C   0  0  0  0  0  0  0  0  0  0  0  0
    2.6680    1.3276   -0.1091 C   0  0  0  0  0  0  0  0  0  0  0  0
    1.1656   -0.7313   -0.0284 C   0  0  0  0  0  0  0  0  0  0  0  0
    1.3021    0.6702   -0.0725 C   0  0  0  0  0  0  0  0  0  0  0  0
    3.8867   -0.9281   -1.8323 C   0  0  0  0  0  0  0  0  0  0  0  0
   -0.1179   -1.3036   -0.0203 C   0  0  0  0  0  0  0  0  0  0  0  0
    0.1462    1.4663   -0.1588 C   0  0  0  0  0  0  0  0  0  0  0  0
   -1.2600   -0.4990   -0.0871 C   0  0  0  0  0  0  0  0  0  0  0  0
   -1.1271    0.8850   -0.1606 C   0  0  0  0  0  0  0  0  0  0  0  0
   -2.5961   -1.1279   -0.0832 C   0  0  0  0  0  0  0  0  0  0  0  0
   -2.3208    1.7473   -0.2425 C   0  0  0  0  0  0  0  0  0  0  0  0
   -3.7798   -0.2385   -0.1642 C   0  0  0  0  0  0  0  0  0  0  0  0
   -3.6438    1.0895   -0.2380 C   0  0  0  0  0  0  0  0  0  0  0  0
   -5.5314   -1.0198    1.1386 C   0  0  0  0  0  0  0  0  0  0  0  0
  1  9  1  0
  2 10  1  0
  3 12  1  0
  4 16  1  0
  5 17  1  0
  6 20  2  0
  7 21  2  0
  8 22  1  0
  8 24  1  0
  9 10  1  0
  9 11  1  0
  9 15  1  0
 10 12  1  0
 11 13  1  0
 12 14  1  0
 13 14  2  0
 13 16  1  0
 14 17  1  0
 16 18  2  0
 17 19  2  0
 18 19  1  0
 18 20  1  0
 19 21  1  0
 20 22  1  0
 21 23  1  0
 22 23  2  0
M  END
>  <PUBCHEM_COMPOUND_CID>  (1) 
30839

>  <PUBCHEM_CONFORMER_RMSD>  (1) 
0.6

>  <PUBCHEM_CONFORMER_DIVERSEORDER>  (1) 
1
2

>  <PUBCHEM_MMFF94_PARTIAL_CHARGES>  (1) 
29
1 -0.68
10 0.28
11 0.14
12 0.42
13 -0.14
14 -0.14
16 0.08
17 0.08
18 0.09
19 0.09
2 -0.68
20 0.47
21 0.47
22 0.09
23 -0.14
24 0.28
3 -0.68
32 0.4
33 0.4
34 0.4
35 0.45
36 0.45
37 0.15
4 -0.53
5 -0.53
6 -0.57
7 -0.57
8 -0.36
9 0.28

>  <PUBCHEM_EFFECTIVE_ROTOR_COUNT>  (1) 
1.8

>  <PUBCHEM_PHARMACOPHORE_FEATURES>  (1) 
14
1 1 acceptor
1 1 donor
1 2 acceptor
1 2 donor
1 3 acceptor
1 3 donor
1 4 donor
1 5 donor
1 6 acceptor
1 7 acceptor
1 8 acceptor
6 13 14 16 17 18 19 rings
6 18 19 20 21 22 23 rings
6 9 10 11 12 13 14 rings

>  <PUBCHEM_HEAVY_ATOM_COUNT>  (1) 
24

>  <PUBCHEM_ATOM_DEF_STEREO_COUNT>  (1) 
3

>  <PUBCHEM_ATOM_UDEF_STEREO_COUNT>  (1) 
0

>  <PUBCHEM_BOND_DEF_STEREO_COUNT>  (1) 
0

>  <PUBCHEM_BOND_UDEF_STEREO_COUNT>  (1) 
0

>  <PUBCHEM_ISOTOPIC_ATOM_COUNT>  (1) 
0

>  <PUBCHEM_COMPONENT_COUNT>  (1) 
1

>  <PUBCHEM_CACTVS_TAUTO_COUNT>  (1) 
27

>  <PUBCHEM_CONFORMER_ID>  (1) 
0000787700000001

>  <PUBCHEM_MMFF94_ENERGY>  (1) 
86.1256

>  <PUBCHEM_FEATURE_SELFOVERLAP>  (1) 
71.13

>  <PUBCHEM_SHAPE_FINGERPRINT>  (1) 
10366900 7 18113629983718656267
10967382 1 18338233885587508069
11132069 177 18411974767318233907
11578080 2 16843310461450002267
12236239 1 17458627783470797462
12403259 226 18410849932606024324
12403259 415 18343298154393148112
12553582 1 18409447007598428383
13140716 1 18122056499089298731
13224815 77 18411419501061357044
138480 1 15239755761604372925
13862211 1 18409727374700670231
14178342 30 18265040337224687016
14223421 5 18340202007043014688
14790565 3 18338528464910761653
14866123 147 17049375042791463602
15196674 1 18410011013797260805
15536298 74 18343581858520844500
15848702 151 17846506897973140183
16752209 62 18334858281726618062
16945 1 18194114127524024412
17349148 13 17894354371401794111
17492 89 18266457800681002342
17804303 29 18411703157934390133
1813 80 17530964721923246853
18186145 218 18201723903471411610
19141452 34 18131071575873677999
19591789 44 18410012096213415431
20028762 73 18201154451323640015
20261772 1 18341615949205974091
20510252 161 18343299245346516009
20905425 154 18051694343645064166
21033648 29 17702646796552503403
21267235 1 18409738343435117038
221490 88 18409733980048608906
22182313 1 18336812148185922933
23184049 59 18343023315219920503
2334 1 18410571820604205980
23402539 116 18342450440208962743
23557571 272 18271249331047392038
23559900 14 18341609309334136644
2748010 2 18410851062208478820
2871803 45 18335415760197458135
335352 9 18338233757044477197
350125 39 18410297994848386765
474 4 16444491154980453268
5104073 3 18340201895331719824
59755656 215 18335701577671071759
7364860 26 18270680986515151196
9709674 26 18412543249231892950

>  <PUBCHEM_SHAPE_MULTIPOLES>  (1) 
446.95
9.37
2.76
0.94
3.53
0.99
-0.01
-3.18
-1.05
0.29
0.03
-0.75
-0.08
0.86

>  <PUBCHEM_SHAPE_SELFOVERLAP>  (1) 
989.922

>  <PUBCHEM_SHAPE_VOLUME>  (1) 
235.9

>  <PUBCHEM_COORDINATE_TYPE>  (1) 
2
5
10

$$$$
