30836
     RDKit          3D

 13 12  0  0  1  0  0  0  0  0999 V2000
    0.2111   -0.3684    0.6676 S   0  0  0  0  0  0  0  0  0  0  0  0
    3.7407   -1.4077    0.9505 O   0  0  0  0  0  0  0  0  0  0  0  0
   -4.7795   -0.1533    0.7295 O   0  0  0  0  0  0  0  0  0  0  0  0
    3.2725   -1.0963   -1.2472 O   0  0  0  0  0  0  0  0  0  0  0  0
   -4.0077   -0.2427   -1.4045 O   0  0  0  0  0  0  0  0  0  0  0  0
    3.5730    1.6957   -0.3642 N   0  0  0  0  0  0  0  0  0  0  0  0
   -1.3774    0.1922   -0.0414 C   0  0  0  0  0  0  0  0  0  0  0  0
    1.2783    0.8703   -0.0987 C   0  0  0  0  0  0  0  0  0  0  0  0
   -2.4893   -0.7597    0.4023 C   0  0  0  0  0  0  0  0  0  0  0  0
    2.7442    0.6869    0.2988 C   0  0  0  0  0  0  0  0  0  0  0  0
   -1.6282    1.6306    0.4045 C   0  0  0  0  0  0  0  0  0  0  0  0
    3.2806   -0.6764   -0.0960 C   0  0  0  0  0  0  0  0  0  0  0  0
   -3.8183   -0.3712   -0.2014 C   0  0  0  0  0  0  0  0  0  0  0  0
  1  7  1  0
  1  8  1  0
  2 12  1  0
  3 13  1  0
  4 12  2  0
  5 13  2  0
  6 10  1  0
  7  9  1  0
  7 11  1  0
  8 10  1  0
  9 13  1  0
 10 12  1  0
M  END
>  <PUBCHEM_COMPOUND_CID>  (1) 
30836

>  <PUBCHEM_CONFORMER_RMSD>  (1) 
0.6

>  <PUBCHEM_CONFORMER_DIVERSEORDER>  (1) 
3
229
198
165
285
183
74
224
246
180
9
79
223
181
255
158
129
59
291
73
42
86
16
227
118
121
260
234
259
192
1
12
48
138
50
211
152
188
92
187
270
120
19
137
160
114
97
290
54
43
276
245
191
283
8
108
184
91
140
242
157
189
93
80
22
286
109
236
278
251
135
186
136
13
124
101
185
117
123
178
122
253
49
75
23
28
232
169
256
106
81
40
115
67
55
125
141
216
208
53
7
177
45
226
207
206
99
83
275
70
52
239
264
105
111
292
34
78
155
175
258
113
31
134
250
252
265
21
214
35
153
195
4
58
102
41
116
130
268
126
94
243
219
82
68
202
95
38
295
235
39
76
17
225
271
174
127
162
269
100
11
194
171
150
145
98
72
190
36
159
272
248
217
231
294
212
257
238
64
147
2
89
156
241
151
10
267
112
222
65
88
14
288
277
289
182
210
90
237
143
85
221
247
71
103
172
128
18
254
173
279
199
261
213
144
149
196
240
176
47
218
29
148
282
131
281
167
266
284
201
26
132
293
51
133
154
30
60
56
215
233
244
96
46
69
87
280
230
5
200
205
287
179
163
168
203
110
84
228
25
161
6
193
204
170
62
273
77
220
104
119
20
146
107
66
37
24
209
63
27
263
32
166
57
262
44
142
15
139
33
61
197
164
249
274

>  <PUBCHEM_MMFF94_PARTIAL_CHARGES>  (1) 
16
1 -0.46
10 0.33
12 0.66
13 0.66
2 -0.65
23 0.36
24 0.36
25 0.5
26 0.5
3 -0.65
4 -0.57
5 -0.57
6 -0.99
7 0.23
8 0.23
9 0.06

>  <PUBCHEM_EFFECTIVE_ROTOR_COUNT>  (1) 
6

>  <PUBCHEM_PHARMACOPHORE_FEATURES>  (1) 
10
1 11 hydrophobe
1 2 acceptor
1 3 acceptor
1 4 acceptor
1 5 acceptor
1 6 cation
1 6 donor
3 2 4 12 anion
3 3 5 13 anion
4 1 7 8 9 hydrophobe

>  <PUBCHEM_HEAVY_ATOM_COUNT>  (1) 
13

>  <PUBCHEM_ATOM_DEF_STEREO_COUNT>  (1) 
0

>  <PUBCHEM_ATOM_UDEF_STEREO_COUNT>  (1) 
2

>  <PUBCHEM_BOND_DEF_STEREO_COUNT>  (1) 
0

>  <PUBCHEM_BOND_UDEF_STEREO_COUNT>  (1) 
0

>  <PUBCHEM_ISOTOPIC_ATOM_COUNT>  (1) 
0

>  <PUBCHEM_COMPONENT_COUNT>  (1) 
1

>  <PUBCHEM_CACTVS_TAUTO_COUNT>  (1) 
1

>  <PUBCHEM_CONFORMER_ID>  (1) 
0000787400000003

>  <PUBCHEM_MMFF94_ENERGY>  (1) 
19.4622

>  <PUBCHEM_FEATURE_SELFOVERLAP>  (1) 
51.087

>  <PUBCHEM_SHAPE_FINGERPRINT>  (1) 
11987891 27 17131828776762167215
12616999 72 17846788437869998556
14251717 144 18201718448752598382
177051 138 17917431999556045246
18186145 218 18113056047375866105
190213 19 17167860872279026085
1986462 14 17530963579741384023
20279233 1 17676491678660378456
20281407 28 17132115757860531995
20281475 54 17703789245232119935
20645477 70 18409732863357573130
20671657 53 18259703393503557445
21501925 9 18412536592528287560
22485316 2 16773793705961130883
23402539 116 18272925008058420573
23402655 69 18408885144002694636
32948 21 17386558059938635319
522135 26 18259987071908896890
5374978 207 18272930531117370752
57812782 119 18342174457846375410
58051976 378 18341053025169991228
581208 293 17988923375160085166

>  <PUBCHEM_SHAPE_MULTIPOLES>  (1) 
242.93
9.1
1.41
0.98
3.35
0.37
0.17
-1.69
0.86
-1.14
-0.05
0.13
-0.2
-0.22

>  <PUBCHEM_SHAPE_SELFOVERLAP>  (1) 
449.942

>  <PUBCHEM_SHAPE_VOLUME>  (1) 
153.3

>  <PUBCHEM_COORDINATE_TYPE>  (1) 
2
5
10

$$$$
