30832
     RDKit          3D

 20 23  0  0  0  0  0  0  0  0999 V2000
   -5.5400   -0.0002    1.0838 Cl  0  0  0  0  0  0  0  0  0  0  0  0
    0.0665    0.0007   -1.0595 C   0  0  0  0  0  0  0  0  0  0  0  0
    0.8868   -1.1817   -0.5503 C   0  0  0  0  0  0  0  0  0  0  0  0
    0.8883    1.1817   -0.5496 C   0  0  0  0  0  0  0  0  0  0  0  0
    2.0215   -0.7248    0.1585 C   0  0  0  0  0  0  0  0  0  0  0  0
    2.0225    0.7229    0.1587 C   0  0  0  0  0  0  0  0  0  0  0  0
   -1.3263    0.0014   -0.5272 C   0  0  0  0  0  0  0  0  0  0  0  0
    0.6229   -2.5345   -0.6939 C   0  0  0  0  0  0  0  0  0  0  0  0
    0.6263    2.5350   -0.6926 C   0  0  0  0  0  0  0  0  0  0  0  0
    2.9110   -1.6269    0.7190 C   0  0  0  0  0  0  0  0  0  0  0  0
    2.9137    1.6234    0.7189 C   0  0  0  0  0  0  0  0  0  0  0  0
   -2.4096    0.0024   -1.4063 C   0  0  0  0  0  0  0  0  0  0  0  0
   -1.5468    0.0003    0.8504 C   0  0  0  0  0  0  0  0  0  0  0  0
    1.5204   -3.4421   -0.1295 C   0  0  0  0  0  0  0  0  0  0  0  0
    1.5253    3.4410   -0.1280 C   0  0  0  0  0  0  0  0  0  0  0  0
    2.6538   -2.9929    0.5689 C   0  0  0  0  0  0  0  0  0  0  0  0
    2.6585    2.9899    0.5694 C   0  0  0  0  0  0  0  0  0  0  0  0
   -3.7125    0.0025   -0.9082 C   0  0  0  0  0  0  0  0  0  0  0  0
   -2.8497    0.0003    1.3484 C   0  0  0  0  0  0  0  0  0  0  0  0
   -3.9326    0.0015    0.4692 C   0  0  0  0  0  0  0  0  0  0  0  0
  1 20  1  0
  2  3  1  0
  2  4  1  0
  2  7  1  0
  3  5  1  0
  3  8  2  0
  4  6  2  0
  4  9  1  0
  5  6  1  0
  5 10  2  0
  6 11  1  0
  7 12  2  0
  7 13  1  0
  8 14  1  0
  9 15  2  0
 10 16  1  0
 11 17  2  0
 12 18  1  0
 13 19  2  0
 14 16  2  0
 15 17  1  0
 18 20  2  0
 19 20  1  0
M  END
>  <PUBCHEM_COMPOUND_CID>  (1) 
30832

>  <PUBCHEM_CONFORMER_RMSD>  (1) 
0.6

>  <PUBCHEM_CONFORMER_DIVERSEORDER>  (1) 
1

>  <PUBCHEM_MMFF94_PARTIAL_CHARGES>  (1) 
30
1 -0.18
10 -0.15
11 -0.15
12 -0.15
13 -0.15
14 -0.15
15 -0.15
16 -0.15
17 -0.15
18 -0.15
19 -0.15
2 0.43
20 0.18
22 0.15
23 0.15
24 0.15
25 0.15
26 0.15
27 0.15
28 0.15
29 0.15
3 -0.14
30 0.15
31 0.15
32 0.15
33 0.15
4 -0.14
7 -0.14
8 -0.15
9 -0.15

>  <PUBCHEM_EFFECTIVE_ROTOR_COUNT>  (1) 
1.2

>  <PUBCHEM_PHARMACOPHORE_FEATURES>  (1) 
4
5 2 3 4 5 6 rings
6 3 5 8 10 14 16 rings
6 4 6 9 11 15 17 rings
6 7 12 13 18 19 20 rings

>  <PUBCHEM_HEAVY_ATOM_COUNT>  (1) 
20

>  <PUBCHEM_ATOM_DEF_STEREO_COUNT>  (1) 
0

>  <PUBCHEM_ATOM_UDEF_STEREO_COUNT>  (1) 
0

>  <PUBCHEM_BOND_DEF_STEREO_COUNT>  (1) 
0

>  <PUBCHEM_BOND_UDEF_STEREO_COUNT>  (1) 
0

>  <PUBCHEM_ISOTOPIC_ATOM_COUNT>  (1) 
0

>  <PUBCHEM_COMPONENT_COUNT>  (1) 
1

>  <PUBCHEM_CACTVS_TAUTO_COUNT>  (1) 
1

>  <PUBCHEM_CONFORMER_ID>  (1) 
0000787000000001

>  <PUBCHEM_MMFF94_ENERGY>  (1) 
65.5842

>  <PUBCHEM_FEATURE_SELFOVERLAP>  (1) 
20.46

>  <PUBCHEM_SHAPE_FINGERPRINT>  (1) 
1100329 8 18340200916622338610
11582403 64 16019649735541638365
11640471 11 17846503681295875281
11725454 13 16810897855443160101
12293681 4 17759795953911823597
12390115 104 17762345012633412932
12403259 327 16661470960958960369
12553582 1 18268143158922466678
12633257 1 17895466046144903097
12788726 201 17254828676997227691
12954195 1 16678112310338500532
13134695 92 18263918860875430054
13140716 1 18266171923820820472
13149001 5 17836968768310393132
13533116 47 18335714827914270427
13681431 1 18263094227333848724
14787075 74 18041285366176548322
14790565 3 18409736196695917300
14844126 61 17255657721713517162
14955137 171 18340497690178047262
15309172 13 18193271016769729484
15906896 17 17479456093959634446
16945 1 18410566288791596540
17138139 8 17123638703868661983
1813 80 17914347783604572462
19049666 15 17968646117333177517
19591789 44 18264486364121906510
19765921 60 17916026961124320569
20157964 124 18411980270231864117
204376 136 18194117653607986268
20645477 70 18262778719252750943
20739085 24 18408889516564576224
20832881 197 17970915445208844467
21041028 32 18194965140896993692
21344244 78 18130218260297531209
21524375 3 17985264329032407676
21731228 192 18048877686732863528
21756936 100 17769098187202210020
2255824 54 18413394249751615438
23419403 2 17824518834523551124
23558518 356 17691121956668319398
23559900 14 17676781928508527775
2748010 2 18050539908365747500
3091708 16 9543970386366752436
31174 14 18335141968769709215
3286 77 18187371978589904719
350125 39 17976825611970529922
352729 6 17256231070188255190
3729539 64 18117871913407699268
3886686 26 17189492866404208376
394222 165 17987812907176011411
4340502 62 18197228142819064419
458136 41 18263368138836448700
474 4 18341896358956916505
5104073 3 18338535079708355627
54173680 148 17329986898568889502
57672749 33 18411981325944382546
5845 1 11630382249201444982
58807428 26 18194952161859454800
633830 44 18058175105533924749
6443956 14 18192152603254211959
7364860 26 18410858762958012434
77492 1 17703780440585995653
81228 2 17399235253087293604
8272917 22 18412834590128225601
8988823 20 18410016538027257619
9937071 3 17679038230625321251
9981440 41 16265718402498545656
9999458 23 18338244867850656276

>  <PUBCHEM_SHAPE_MULTIPOLES>  (1) 
413.46
6.94
3.78
1.19
10.96
0.01
-0.02
-0.01
2.64
-5.62
0.05
0.79
0
0

>  <PUBCHEM_SHAPE_SELFOVERLAP>  (1) 
927.209

>  <PUBCHEM_SHAPE_VOLUME>  (1) 
209.3

>  <PUBCHEM_COORDINATE_TYPE>  (1) 
2
5
10

$$$$
