30835
     RDKit          3D

 25 28  0  0  1  0  0  0  0  0999 V2000
    0.6072   -2.5637   -0.1604 O   0  0  0  0  0  0  0  0  0  0  0  0
    3.2754   -2.8480   -0.0722 O   0  0  0  0  0  0  0  0  0  0  0  0
   -4.8071    0.8707   -0.1512 O   0  0  0  0  0  0  0  0  0  0  0  0
   -3.8830   -1.6339    0.6080 O   0  0  0  0  0  0  0  0  0  0  0  0
    2.0021    3.4287   -0.2810 N   0  0  0  0  0  0  0  0  0  0  0  0
    1.0661    2.3736    0.1377 C   0  0  0  0  0  0  0  0  0  0  0  0
    1.6505    0.9720    0.0517 C   0  0  0  0  0  0  0  0  0  0  0  0
   -0.2114    2.4726   -0.7110 C   0  0  0  0  0  0  0  0  0  0  0  0
    3.0485    0.7945    0.0657 C   0  0  0  0  0  0  0  0  0  0  0  0
    0.7727   -0.1395    0.0211 C   0  0  0  0  0  0  0  0  0  0  0  0
    3.9731    1.9851    0.0468 C   0  0  0  0  0  0  0  0  0  0  0  0
   -1.1842    1.3729   -0.3482 C   0  0  0  0  0  0  0  0  0  0  0  0
    3.2714    3.2870    0.4330 C   0  0  0  0  0  0  0  0  0  0  0  0
   -0.6923    0.0929    0.0023 C   0  0  0  0  0  0  0  0  0  0  0  0
    1.3452   -1.4223   -0.0187 C   0  0  0  0  0  0  0  0  0  0  0  0
    3.5795   -0.4969    0.0238 C   0  0  0  0  0  0  0  0  0  0  0  0
    2.7312   -1.5986   -0.0149 C   0  0  0  0  0  0  0  0  0  0  0  0
   -2.5638    1.6191   -0.4095 C   0  0  0  0  0  0  0  0  0  0  0  0
   -1.6328   -0.9012    0.3253 C   0  0  0  0  0  0  0  0  0  0  0  0
   -3.4712    0.6128   -0.0941 C   0  0  0  0  0  0  0  0  0  0  0  0
   -3.0062   -0.6438    0.2778 C   0  0  0  0  0  0  0  0  0  0  0  0
    0.3673   -3.0143   -1.4901 C   0  0  0  0  0  0  0  0  0  0  0  0
    3.5218   -3.5032    1.1695 C   0  0  0  0  0  0  0  0  0  0  0  0
   -5.4245    1.3604    1.0378 C   0  0  0  0  0  0  0  0  0  0  0  0
   -4.3356   -2.4768   -0.4493 C   0  0  0  0  0  0  0  0  0  0  0  0
  1 15  1  0
  1 22  1  0
  2 17  1  0
  2 23  1  0
  3 20  1  0
  3 24  1  0
  4 21  1  0
  4 25  1  0
  5  6  1  0
  5 13  1  0
  6  7  1  0
  6  8  1  0
  7  9  2  0
  7 10  1  0
  8 12  1  0
  9 11  1  0
  9 16  1  0
 10 14  1  0
 10 15  2  0
 11 13  1  0
 12 14  2  0
 12 18  1  0
 14 19  1  0
 15 17  1  0
 16 17  2  0
 18 20  2  0
 19 21  2  0
 20 21  1  0
M  END
>  <PUBCHEM_COMPOUND_CID>  (1) 
30835

>  <PUBCHEM_CONFORMER_RMSD>  (1) 
0.8

>  <PUBCHEM_CONFORMER_DIVERSEORDER>  (1) 
1
2

>  <PUBCHEM_MMFF94_PARTIAL_CHARGES>  (1) 
27
1 -0.36
11 0.14
12 -0.14
13 0.27
15 0.08
16 -0.15
17 0.08
18 -0.15
19 -0.15
2 -0.36
20 0.08
21 0.08
22 0.28
23 0.28
24 0.28
25 0.28
3 -0.36
31 0.36
34 0.15
35 0.15
36 0.15
4 -0.36
5 -0.9
6 0.41
7 -0.14
8 0.14
9 -0.14

>  <PUBCHEM_EFFECTIVE_ROTOR_COUNT>  (1) 
4.8

>  <PUBCHEM_PHARMACOPHORE_FEATURES>  (1) 
10
1 1 acceptor
1 2 acceptor
1 3 acceptor
1 4 acceptor
1 5 cation
1 5 donor
6 12 14 18 19 20 21 rings
6 5 6 7 9 11 13 rings
6 6 7 8 10 12 14 rings
6 7 9 10 15 16 17 rings

>  <PUBCHEM_HEAVY_ATOM_COUNT>  (1) 
25

>  <PUBCHEM_ATOM_DEF_STEREO_COUNT>  (1) 
1

>  <PUBCHEM_ATOM_UDEF_STEREO_COUNT>  (1) 
0

>  <PUBCHEM_BOND_DEF_STEREO_COUNT>  (1) 
0

>  <PUBCHEM_BOND_UDEF_STEREO_COUNT>  (1) 
0

>  <PUBCHEM_ISOTOPIC_ATOM_COUNT>  (1) 
0

>  <PUBCHEM_COMPONENT_COUNT>  (1) 
1

>  <PUBCHEM_CACTVS_TAUTO_COUNT>  (1) 
1

>  <PUBCHEM_CONFORMER_ID>  (1) 
0000787300000001

>  <PUBCHEM_MMFF94_ENERGY>  (1) 
113.9765

>  <PUBCHEM_FEATURE_SELFOVERLAP>  (1) 
50.847

>  <PUBCHEM_SHAPE_FINGERPRINT>  (1) 
10074138 170 17042856549662777768
10411042 1 18050004385804732242
10493431 412 18052254295890933488
10616163 171 18339927129478845191
10967382 1 18266177412662709860
1100329 8 17762336916403814784
11405975 8 18411139108843770795
11578080 2 16734366241222936270
12107183 9 18124884460845994001
12403259 226 18117271459008564076
12553582 1 18123751946066944862
12633257 1 18267587905782346875
12788726 201 17131001871521159865
12839892 36 18121763178883046672
13140716 1 18195802964984521008
138480 1 18337952269151066248
14117953 113 18055068753431206143
14178342 30 17838036458372556624
14223421 5 18408037424764139741
14787075 74 17627512966770398065
14790565 3 18120383317518650772
14844126 61 17396408417435821314
14955137 171 18339069420705380170
15196674 1 18410293657057868913
15927050 60 18195245753619434614
1601671 61 18409171025832330044
16945 1 18267011929287821908
17492 89 18410292549283958443
19591789 44 18266741479328642764
20028762 73 17767122377618042046
20691752 17 17531242894043661169
20739085 24 18266192650953858304
20775438 99 17615071799649897677
20905425 154 18337112272268822284
21033648 144 18409157827724975069
21065198 57 18410012113741470257
21197605 99 17761503882054201011
21267235 1 18265624173261183610
21421861 104 18114738235916090280
221490 88 18408046208061898394
22182313 1 17895461545452206613
22393880 68 18341623649644252597
2334 1 18411133611338307588
23366157 5 18186521020566005716
23419403 2 17897426333959616660
23559900 14 18339636754849751954
2748010 2 18267292158792621028
335352 9 18193275196215721557
350125 39 18410577279993137148
3886686 26 15883745279886478906
4409770 3 17250322900169474516
484985 159 14428782493716136354
5104073 3 18409167744519248473
5265222 85 18048044253569073924
59755656 215 18264488567287135631
6443956 14 18266746787623449036
7364860 26 18411700967596125004
81228 2 17406841683228945952
8272917 22 18343309132556312541
9709674 26 18334861649165815547

>  <PUBCHEM_SHAPE_MULTIPOLES>  (1) 
486.03
8.79
4.42
0.87
8.43
0.99
-0.03
-0.01
1.9
-3.94
-0.12
0.12
0.36
-0.6

>  <PUBCHEM_SHAPE_SELFOVERLAP>  (1) 
1064.05

>  <PUBCHEM_SHAPE_VOLUME>  (1) 
263.9

>  <PUBCHEM_COORDINATE_TYPE>  (1) 
2
5
10

$$$$
