30846
     RDKit          3D

 11 12  0  0  0  0  0  0  0  0999 V2000
    0.8233    1.5418    0.0000 O   0  0  0  0  0  0  0  0  0  0  0  0
    2.9935    0.7587   -0.0007 O   0  0  0  0  0  0  0  0  0  0  0  0
    1.1850   -0.7248    0.0002 N   0  0  0  0  0  0  0  0  0  0  0  0
   -0.1793   -0.5314   -0.0001 C   0  0  0  0  0  0  0  0  0  0  0  0
   -0.3702    0.8353    0.0000 C   0  0  0  0  0  0  0  0  0  0  0  0
   -1.2319   -1.4226   -0.0004 C   0  0  0  0  0  0  0  0  0  0  0  0
    1.7916    0.5209    0.0001 C   0  0  0  0  0  0  0  0  0  0  0  0
   -1.6325    1.3904    0.0005 C   0  0  0  0  0  0  0  0  0  0  0  0
    1.8612   -1.9973    0.0006 C   0  0  0  0  0  0  0  0  0  0  0  0
   -2.5209   -0.8829   -0.0004 C   0  0  0  0  0  0  0  0  0  0  0  0
   -2.7197    0.5119    0.0001 C   0  0  0  0  0  0  0  0  0  0  0  0
  1  5  1  0
  1  7  1  0
  2  7  2  0
  3  4  1  0
  3  7  1  0
  3  9  1  0
  4  5  2  0
  4  6  1  0
  5  8  1  0
  6 10  2  0
  8 11  2  0
 10 11  1  0
M  END
>  <PUBCHEM_COMPOUND_CID>  (1) 
30846

>  <PUBCHEM_CONFORMER_RMSD>  (1) 
0.4

>  <PUBCHEM_CONFORMER_DIVERSEORDER>  (1) 
1

>  <PUBCHEM_MMFF94_PARTIAL_CHARGES>  (1) 
15
1 -0.23
10 -0.15
11 -0.15
12 0.15
16 0.15
17 0.15
18 0.15
2 -0.57
3 -0.48
4 0.12
5 0.08
6 -0.15
7 0.78
8 -0.15
9 0.3

>  <PUBCHEM_EFFECTIVE_ROTOR_COUNT>  (1) 
0

>  <PUBCHEM_PHARMACOPHORE_FEATURES>  (1) 
3
1 2 acceptor
5 1 3 4 5 7 rings
6 4 5 6 8 10 11 rings

>  <PUBCHEM_HEAVY_ATOM_COUNT>  (1) 
11

>  <PUBCHEM_ATOM_DEF_STEREO_COUNT>  (1) 
0

>  <PUBCHEM_ATOM_UDEF_STEREO_COUNT>  (1) 
0

>  <PUBCHEM_BOND_DEF_STEREO_COUNT>  (1) 
0

>  <PUBCHEM_BOND_UDEF_STEREO_COUNT>  (1) 
0

>  <PUBCHEM_ISOTOPIC_ATOM_COUNT>  (1) 
0

>  <PUBCHEM_COMPONENT_COUNT>  (1) 
1

>  <PUBCHEM_CACTVS_TAUTO_COUNT>  (1) 
1

>  <PUBCHEM_CONFORMER_ID>  (1) 
0000787E00000001

>  <PUBCHEM_MMFF94_ENERGY>  (1) 
31.4577

>  <PUBCHEM_FEATURE_SELFOVERLAP>  (1) 
15.336

>  <PUBCHEM_SHAPE_FINGERPRINT>  (1) 
12423570 1 11705608657220269422
12524768 44 18339928104046154743
12897270 3 18338797922009269813
13380535 21 18338251395963374003
13380535 76 18409443708726038754
14325111 11 18410575050588404517
16945 1 18410574032570249157
193761 8 14951810145682986695
19973954 147 18410857620660280961
20201158 50 18409163350635821923
21040471 1 18410573959434570277
21501502 16 18411699842166779491
23402655 69 18340752755806848917
23463225 33 18334570235877037154
23552423 10 18333735684507272742
241688 4 18192431866085492569
2748010 2 18337953368224798831
29004967 10 18335144223395288307
369184 2 18410854343710964987
5084963 1 18057033615021891155
528886 8 18339074990307284835
53812653 166 18271802453757151944
63268167 104 18411139100011158393
7364860 26 18271805675415179210

>  <PUBCHEM_SHAPE_MULTIPOLES>  (1) 
209.66
3.79
1.84
0.59
0.23
0.36
0
-0.03
0
0.37
0
-0.04
0.02
0

>  <PUBCHEM_SHAPE_SELFOVERLAP>  (1) 
458.923

>  <PUBCHEM_SHAPE_VOLUME>  (1) 
115.6

>  <PUBCHEM_COORDINATE_TYPE>  (1) 
2
5
10

$$$$
