30843
     RDKit          3D

 27 30  0  0  1  0  0  0  0  0999 V2000
    1.7076   -1.2867    2.2962 O   0  0  0  0  0  0  0  0  0  0  0  0
    3.8387   -3.8452   -0.8714 O   0  0  0  0  0  0  0  0  0  0  0  0
   -2.2717    1.0855   -0.2336 N   0  0  0  0  0  0  0  0  0  0  0  0
    2.7471   -2.5307    0.6730 N   0  0  0  0  0  0  0  0  0  0  0  0
    0.4926    0.3776    0.4389 C   0  0  0  0  0  0  0  0  0  0  0  0
    1.8050   -0.3091    0.0712 C   0  0  0  0  0  0  0  0  0  0  0  0
   -0.6565   -0.6335    0.5125 C   0  0  0  0  0  0  0  0  0  0  0  0
    0.1475    1.4811   -0.5668 C   0  0  0  0  0  0  0  0  0  0  0  0
    1.6262   -1.0028   -1.2982 C   0  0  0  0  0  0  0  0  0  0  0  0
   -1.9930    0.0612    0.7817 C   0  0  0  0  0  0  0  0  0  0  0  0
   -1.2154    2.1060   -0.2613 C   0  0  0  0  0  0  0  0  0  0  0  0
    2.9210    0.7503    0.0437 C   0  0  0  0  0  0  0  0  0  0  0  0
    2.0521   -1.4070    1.1188 C   0  0  0  0  0  0  0  0  0  0  0  0
    2.8545   -1.8183   -1.6717 C   0  0  0  0  0  0  0  0  0  0  0  0
   -3.5750    1.7042    0.0080 C   0  0  0  0  0  0  0  0  0  0  0  0
    3.1850   -2.8356   -0.6103 C   0  0  0  0  0  0  0  0  0  0  0  0
    3.6229    1.0424    1.2083 C   0  0  0  0  0  0  0  0  0  0  0  0
    3.2186    1.4070   -1.1455 C   0  0  0  0  0  0  0  0  0  0  0  0
   -4.6921    0.6960   -0.0396 C   0  0  0  0  0  0  0  0  0  0  0  0
    4.6343    2.0025    1.1834 C   0  0  0  0  0  0  0  0  0  0  0  0
    4.2301    2.3672   -1.1704 C   0  0  0  0  0  0  0  0  0  0  0  0
    4.9380    2.6649   -0.0060 C   0  0  0  0  0  0  0  0  0  0  0  0
   -5.3256    0.4347   -1.2464 C   0  0  0  0  0  0  0  0  0  0  0  0
   -5.0724    0.0423    1.1239 C   0  0  0  0  0  0  0  0  0  0  0  0
   -6.3605   -0.4994   -1.2906 C   0  0  0  0  0  0  0  0  0  0  0  0
   -6.1074   -0.8918    1.0798 C   0  0  0  0  0  0  0  0  0  0  0  0
   -6.7514   -1.1626   -0.1275 C   0  0  0  0  0  0  0  0  0  0  0  0
  1 13  2  0
  2 16  2  0
  3 10  1  0
  3 11  1  0
  3 15  1  0
  4 13  1  0
  4 16  1  0
  5  6  1  0
  5  7  1  0
  5  8  1  0
  6  9  1  0
  6 12  1  0
  6 13  1  0
  7 10  1  0
  8 11  1  0
  9 14  1  0
 12 17  2  0
 12 18  1  0
 14 16  1  0
 15 19  1  0
 17 20  1  0
 18 21  2  0
 19 23  2  0
 19 24  1  0
 20 22  2  0
 21 22  1  0
 23 25  1  0
 24 26  2  0
 25 27  2  0
 26 27  1  0
M  END
>  <PUBCHEM_COMPOUND_CID>  (1) 
30843

>  <PUBCHEM_CONFORMER_RMSD>  (1) 
0.8

>  <PUBCHEM_CONFORMER_DIVERSEORDER>  (1) 
1
16
10
17
9
5
3
8
12
18
2
13
20
11
15
7
6
14
19
4

>  <PUBCHEM_MMFF94_PARTIAL_CHARGES>  (1) 
34
1 -0.57
10 0.27
11 0.27
12 -0.14
13 0.57
14 0.06
15 0.41
16 0.57
17 -0.15
18 -0.15
19 -0.14
2 -0.57
20 -0.15
21 -0.15
22 -0.15
23 -0.15
24 -0.15
25 -0.15
26 -0.15
27 -0.15
3 -0.81
4 -0.49
43 0.37
44 0.15
45 0.15
46 0.15
47 0.15
48 0.15
49 0.15
50 0.15
51 0.15
52 0.15
53 0.15
6 0.2

>  <PUBCHEM_EFFECTIVE_ROTOR_COUNT>  (1) 
6

>  <PUBCHEM_PHARMACOPHORE_FEATURES>  (1) 
8
1 1 acceptor
1 2 acceptor
1 3 cation
1 4 donor
6 12 17 18 20 21 22 rings
6 19 23 24 25 26 27 rings
6 3 5 7 8 10 11 rings
6 4 6 9 13 14 16 rings

>  <PUBCHEM_HEAVY_ATOM_COUNT>  (1) 
27

>  <PUBCHEM_ATOM_DEF_STEREO_COUNT>  (1) 
1

>  <PUBCHEM_ATOM_UDEF_STEREO_COUNT>  (1) 
0

>  <PUBCHEM_BOND_DEF_STEREO_COUNT>  (1) 
0

>  <PUBCHEM_BOND_UDEF_STEREO_COUNT>  (1) 
0

>  <PUBCHEM_ISOTOPIC_ATOM_COUNT>  (1) 
0

>  <PUBCHEM_COMPONENT_COUNT>  (1) 
1

>  <PUBCHEM_CACTVS_TAUTO_COUNT>  (1) 
3

>  <PUBCHEM_CONFORMER_ID>  (1) 
0000787B00000001

>  <PUBCHEM_MMFF94_ENERGY>  (1) 
87.6557

>  <PUBCHEM_FEATURE_SELFOVERLAP>  (1) 
40.597

>  <PUBCHEM_SHAPE_FINGERPRINT>  (1) 
10169797 241 18187941537934201106
10835480 77 18114168736697192317
10906281 52 18042980941438210849
11405975 8 18127134061436190529
11421498 54 17203338792598216096
11475781 23 17313649474815016853
11963148 33 18337665442266245055
12730499 353 18271533082203795064
13009979 54 17272861896628180162
13073987 5 18342464734007751801
13150687 139 18129675222266499476
13533116 47 18272654528319287603
13955234 65 18201717341067566122
14251740 57 18412545375356969887
14251758 9 11024115335045798241
146900 427 17989207083446040913
15081414 286 18335430079550325297
15183329 4 9295021171440895201
15238133 3 13334726904503187743
15537594 2 17917708046158298535
15788980 27 13984660361159734665
15799311 1 17203331130672147247
17349148 13 15357697474717637837
17492 89 18268990882239269063
17844677 252 18339366254121319313
19377110 9 17703788115692651105
20645477 70 18335704914317458387
20691752 17 17314239868844996504
20775438 99 18408880767542705559
21033650 10 16589154814469474333
21344244 246 18059590040604164550
22149856 69 18337972155271712161
22182313 1 17969246536306852979
22224240 67 18270395126603879792
22393880 68 17896318017907268237
23559900 14 18192991521825442789
239999 70 18260830380105489858
25222932 49 18338795744994218199
312423 11 18199196100385260345
314194 84 18343300392761750973
32027 91 18190739722413281971
4325135 7 18334291015663536269
4340502 62 18187362164093533953
44317340 157 18338525149237888869
5104073 3 18270687459347300137
59755656 215 18408890633598367148
6913067 236 17313374660852787189
70251023 43 18266748969551329042
8509985 295 12107502641241821805

>  <PUBCHEM_SHAPE_MULTIPOLES>  (1) 
533.95
14.67
3.11
1.51
24.5
1.91
0.13
-0.93
-1.04
-5.82
-0.65
-0.46
0.36
0.68

>  <PUBCHEM_SHAPE_SELFOVERLAP>  (1) 
1158.97

>  <PUBCHEM_SHAPE_VOLUME>  (1) 
286.8

>  <PUBCHEM_COORDINATE_TYPE>  (1) 
2
5
10

$$$$
