30858
     RDKit          3D

  9  8  0  0  1  0  0  0  0  0999 V2000
    0.1419    1.0790   -0.0790 P   0  0  0  0  0  0  0  0  0  0  0  0
    1.2098   -0.0434   -0.5189 O   0  0  0  0  0  0  0  0  0  0  0  0
    0.7885    1.7793    1.2206 O   0  0  0  0  0  0  0  0  0  0  0  0
   -0.2736    2.0196   -1.1588 O   0  0  0  0  0  0  0  0  0  0  0  0
   -1.2444    0.1502    0.6133 C   0  0  0  0  0  0  0  0  0  0  0  0
   -1.9776   -0.7052   -0.4097 C   0  0  0  0  0  0  0  0  0  0  0  0
   -3.1418   -1.4673    0.2026 C   0  0  0  0  0  0  0  0  0  0  0  0
    1.7677   -0.9431    0.4218 C   0  0  0  0  0  0  0  0  0  0  0  0
    2.7295   -1.8691   -0.2918 C   0  0  0  0  0  0  0  0  0  0  0  0
  1  2  1  0
  1  3  1  0
  1  4  2  0
  1  5  1  0
  2  8  1  0
  5  6  1  0
  6  7  1  0
  8  9  1  0
M  END
>  <PUBCHEM_COMPOUND_CID>  (1) 
30858

>  <PUBCHEM_CONFORMER_RMSD>  (1) 
0.6

>  <PUBCHEM_CONFORMER_DIVERSEORDER>  (1) 
1
20
37
25
6
14
13
5
24
34
21
18
19
4
30
8
29
17
15
3
16
32
33
12
9
28
31
2
26
10
36
35
22
27
7
23
11

>  <PUBCHEM_MMFF94_PARTIAL_CHARGES>  (1) 
6
1 1.24
2 -0.55
22 0.5
3 -0.77
4 -0.7
8 0.28

>  <PUBCHEM_EFFECTIVE_ROTOR_COUNT>  (1) 
4

>  <PUBCHEM_PHARMACOPHORE_FEATURES>  (1) 
3
1 3 acceptor
1 4 acceptor
1 7 hydrophobe

>  <PUBCHEM_HEAVY_ATOM_COUNT>  (1) 
9

>  <PUBCHEM_ATOM_DEF_STEREO_COUNT>  (1) 
0

>  <PUBCHEM_ATOM_UDEF_STEREO_COUNT>  (1) 
0

>  <PUBCHEM_BOND_DEF_STEREO_COUNT>  (1) 
0

>  <PUBCHEM_BOND_UDEF_STEREO_COUNT>  (1) 
0

>  <PUBCHEM_ISOTOPIC_ATOM_COUNT>  (1) 
0

>  <PUBCHEM_COMPONENT_COUNT>  (1) 
1

>  <PUBCHEM_CACTVS_TAUTO_COUNT>  (1) 
1

>  <PUBCHEM_CONFORMER_ID>  (1) 
0000788A00000001

>  <PUBCHEM_MMFF94_ENERGY>  (1) 
-15.5524

>  <PUBCHEM_FEATURE_SELFOVERLAP>  (1) 
15.234

>  <PUBCHEM_SHAPE_FINGERPRINT>  (1) 
14128692 85 18334868186037214894
20653091 64 18267878339796690201
20711978 78 18128519626026979973
20711985 344 18044082471800537377
23552333 60 17701552920169791155
23552449 11 18130787922994678395
3250762 1 18338779144444627712

>  <PUBCHEM_SHAPE_MULTIPOLES>  (1) 
171.46
3.89
2.22
0.96
0.89
0.51
-0.03
-3.69
0
-0.47
0.14
-0.05
0.42
0.3

>  <PUBCHEM_SHAPE_SELFOVERLAP>  (1) 
291.95

>  <PUBCHEM_SHAPE_VOLUME>  (1) 
115.7

>  <PUBCHEM_COORDINATE_TYPE>  (1) 
2
5
10

$$$$
