30861
     RDKit          3D

 13 14  0  0  0  0  0  0  0  0999 V2000
    3.4739   -1.2279   -0.2935 O   0  0  0  0  0  0  0  0  0  0  0  0
   -0.5618   -1.7097    0.1730 N   0  0  0  0  0  0  0  0  0  0  0  0
    1.8358    0.2167    0.0653 N   0  0  0  0  0  0  0  0  0  0  0  0
   -2.6896   -1.0560    0.0570 N   0  0  0  0  0  0  0  0  0  0  0  0
    0.1297    1.8896   -0.1305 N   0  0  0  0  0  0  0  0  0  0  0  0
   -2.2438    1.3253   -0.1443 N   0  0  0  0  0  0  0  0  0  0  0  0
    2.2643   -1.0038   -0.4058 N   0  0  0  0  0  0  0  0  0  0  0  0
   -0.5258   -0.3497    0.0523 C   0  0  0  0  0  0  0  0  0  0  0  0
    0.4837    0.5909   -0.0047 C   0  0  0  0  0  0  0  0  0  0  0  0
   -1.8587    0.0326   -0.0179 C   0  0  0  0  0  0  0  0  0  0  0  0
   -1.8790   -2.0862    0.1712 C   0  0  0  0  0  0  0  0  0  0  0  0
    2.7648    1.2053    0.6697 C   0  0  0  0  0  0  0  0  0  0  0  0
   -1.1934    2.1728   -0.1917 C   0  0  0  0  0  0  0  0  0  0  0  0
  1  7  2  0
  2  8  1  0
  2 11  1  0
  3  7  1  0
  3  9  1  0
  3 12  1  0
  4 10  1  0
  4 11  2  0
  5  9  1  0
  5 13  2  0
  6 10  2  0
  6 13  1  0
  8  9  2  0
  8 10  1  0
M  END
>  <PUBCHEM_COMPOUND_CID>  (1) 
30861

>  <PUBCHEM_CONFORMER_RMSD>  (1) 
0.6

>  <PUBCHEM_CONFORMER_DIVERSEORDER>  (1) 
1
4
5
2
3

>  <PUBCHEM_MMFF94_PARTIAL_CHARGES>  (1) 
15
1 -0.16
10 0.48
11 0.04
12 0.37
13 0.47
14 0.27
15 0.15
19 0.15
2 0.03
3 -0.3
4 -0.57
5 -0.62
6 -0.57
8 -0.15
9 0.41

>  <PUBCHEM_EFFECTIVE_ROTOR_COUNT>  (1) 
2

>  <PUBCHEM_PHARMACOPHORE_FEATURES>  (1) 
6
1 2 donor
3 2 4 11 cation
3 3 5 9 cation
3 5 6 13 cation
5 2 4 8 10 11 rings
6 5 6 8 9 10 13 rings

>  <PUBCHEM_HEAVY_ATOM_COUNT>  (1) 
13

>  <PUBCHEM_ATOM_DEF_STEREO_COUNT>  (1) 
0

>  <PUBCHEM_ATOM_UDEF_STEREO_COUNT>  (1) 
0

>  <PUBCHEM_BOND_DEF_STEREO_COUNT>  (1) 
0

>  <PUBCHEM_BOND_UDEF_STEREO_COUNT>  (1) 
0

>  <PUBCHEM_ISOTOPIC_ATOM_COUNT>  (1) 
0

>  <PUBCHEM_COMPONENT_COUNT>  (1) 
1

>  <PUBCHEM_CACTVS_TAUTO_COUNT>  (1) 
4

>  <PUBCHEM_CONFORMER_ID>  (1) 
0000788D00000001

>  <PUBCHEM_MMFF94_ENERGY>  (1) 
33.2403

>  <PUBCHEM_FEATURE_SELFOVERLAP>  (1) 
30.69

>  <PUBCHEM_SHAPE_FINGERPRINT>  (1) 
12524768 44 18267016352624010907
12716758 59 18337668620446189208
15219456 202 18272364287446233568
16945 1 18265889151368483785
193761 8 18265335186698038517
19973954 147 18411699898228350592
20201158 50 18193832871511531066
20711985 365 18409167697079292132
20871998 184 18272090512881732623
20871998 22 18193564582269165459
21501502 16 18412547613245758640
22802520 49 18342742875330198318
2334 1 18410574032411922152
23552423 10 18187649128133413814
23559900 14 18126000461259705934
241688 4 18409168839609262353
2748010 2 18410854373533104053
369184 2 17775566467904720907
5255222 1 18047748200480894852
6333449 129 18411133602252572252
7364860 26 17763466514229552121
81228 2 18334855043437536001

>  <PUBCHEM_SHAPE_MULTIPOLES>  (1) 
231.78
4.23
2.33
0.63
2.71
0.28
0.03
-1.28
0.1
-0.67
-0.07
0.13
0.02
0.49

>  <PUBCHEM_SHAPE_SELFOVERLAP>  (1) 
501.105

>  <PUBCHEM_SHAPE_VOLUME>  (1) 
126.7

>  <PUBCHEM_COORDINATE_TYPE>  (1) 
2
5
10

$$$$
