30877
     RDKit          3D

 14 15  0  0  0  0  0  0  0  0999 V2000
   -1.4948    1.1229   -0.8218 O   0  0  0  0  0  0  0  0  0  0  0  0
   -3.6459   -1.3105    0.5795 O   0  0  0  0  0  0  0  0  0  0  0  0
   -1.8698   -0.0978   -0.2283 N   0  0  0  0  0  0  0  0  0  0  0  0
    4.4442    0.6009    0.4385 N   0  0  0  0  0  0  0  0  0  0  0  0
    0.5027   -0.7090   -0.2319 C   0  0  0  0  0  0  0  0  0  0  0  0
    0.7706    0.6621   -0.0735 C   0  0  0  0  0  0  0  0  0  0  0  0
   -0.9081   -1.1642   -0.4838 C   0  0  0  0  0  0  0  0  0  0  0  0
   -0.3706    1.6448   -0.1021 C   0  0  0  0  0  0  0  0  0  0  0  0
    1.5538   -1.6312   -0.1903 C   0  0  0  0  0  0  0  0  0  0  0  0
    2.0811    1.0910    0.1607 C   0  0  0  0  0  0  0  0  0  0  0  0
    3.1224    0.1640    0.2092 C   0  0  0  0  0  0  0  0  0  0  0  0
    2.8597   -1.1939    0.0312 C   0  0  0  0  0  0  0  0  0  0  0  0
   -3.1372   -0.2321    0.2709 C   0  0  0  0  0  0  0  0  0  0  0  0
   -3.9081    1.0532    0.4418 C   0  0  0  0  0  0  0  0  0  0  0  0
  1  3  1  0
  1  8  1  0
  2 13  2  0
  3  7  1  0
  3 13  1  0
  4 11  1  0
  5  6  2  0
  5  7  1  0
  5  9  1  0
  6  8  1  0
  6 10  1  0
  9 12  2  0
 10 11  2  0
 11 12  1  0
 13 14  1  0
M  END
>  <PUBCHEM_COMPOUND_CID>  (1) 
30877

>  <PUBCHEM_CONFORMER_RMSD>  (1) 
0.6

>  <PUBCHEM_CONFORMER_DIVERSEORDER>  (1) 
1
2
4
3

>  <PUBCHEM_MMFF94_PARTIAL_CHARGES>  (1) 
19
1 -0.32
10 -0.15
11 0.1
12 -0.15
13 0.57
14 0.06
19 0.15
2 -0.57
20 0.15
21 0.15
25 0.4
26 0.4
3 -0.32
4 -0.9
5 -0.14
6 -0.14
7 0.44
8 0.42
9 -0.15

>  <PUBCHEM_EFFECTIVE_ROTOR_COUNT>  (1) 
1.8

>  <PUBCHEM_PHARMACOPHORE_FEATURES>  (1) 
5
1 2 acceptor
1 4 cation
1 4 donor
6 1 3 5 6 7 8 rings
6 5 6 9 10 11 12 rings

>  <PUBCHEM_HEAVY_ATOM_COUNT>  (1) 
14

>  <PUBCHEM_ATOM_DEF_STEREO_COUNT>  (1) 
0

>  <PUBCHEM_ATOM_UDEF_STEREO_COUNT>  (1) 
0

>  <PUBCHEM_BOND_DEF_STEREO_COUNT>  (1) 
0

>  <PUBCHEM_BOND_UDEF_STEREO_COUNT>  (1) 
0

>  <PUBCHEM_ISOTOPIC_ATOM_COUNT>  (1) 
0

>  <PUBCHEM_COMPONENT_COUNT>  (1) 
1

>  <PUBCHEM_CACTVS_TAUTO_COUNT>  (1) 
1

>  <PUBCHEM_CONFORMER_ID>  (1) 
0000789D00000001

>  <PUBCHEM_MMFF94_ENERGY>  (1) 
45.407

>  <PUBCHEM_FEATURE_SELFOVERLAP>  (1) 
25.396

>  <PUBCHEM_SHAPE_FINGERPRINT>  (1) 
10219947 1 18343022185516797727
10608611 8 18337948987358553101
10980938 120 18341897385184951294
11132069 177 18410291414973917291
11471102 20 18341326708516643444
11471102 22 18336840769942617283
12032990 46 18410016520050848846
12251169 10 18340772628055836083
12382932 28 18341615893223342555
12932764 1 17274808147835869524
13214271 11 18411415124769237983
13221675 6 18411417315081285014
13705890 14 12107792912422207352
14144814 61 18413671296696152107
14252887 29 18341344335041671490
14325111 11 18413107259962972069
14445660 50 18342464720568916449
14943859 89 15339119052322668614
15196674 1 18411700971748479098
15219456 202 18337668611819285957
15309172 13 18131069333367778535
15536298 74 18272935986063407438
15775835 57 18201718470353632366
16945 1 18340755005752149796
17844478 74 18259985955064484173
200 152 18131058364791191223
20201158 50 18335139782499519339
20279233 1 18186800262434003135
20281407 28 18187370904452233963
20645477 70 18199741458158029231
21501925 9 18335422408780614323
23402539 116 17458335355857814732
23402655 69 18200017449025901293
23463225 33 18408886239129541332
23559900 14 18262796247120014314
2748010 2 18195800765734477180
5104073 3 18411418388712437522
528886 8 18342168994869663994
53812653 166 18272082816643099504
7364860 26 18200875046547000206
8809292 202 18188216407287704427

>  <PUBCHEM_SHAPE_MULTIPOLES>  (1) 
266.41
6.79
1.66
0.71
1.17
0.09
-0.02
-0.38
1.64
0.02
-0.04
0.14
-0.01
0.24

>  <PUBCHEM_SHAPE_SELFOVERLAP>  (1) 
564.422

>  <PUBCHEM_SHAPE_VOLUME>  (1) 
148.6

>  <PUBCHEM_COORDINATE_TYPE>  (1) 
2
5
10

$$$$
