30875
     RDKit          3D

 14 13  0  0  0  0  0  0  0  0999 V2000
    0.6444   -0.3831   -0.1888 C   0  0  0  0  0  0  0  0  0  0  0  0
   -0.6190    0.4718   -0.0446 C   0  0  0  0  0  0  0  0  0  0  0  0
    1.9383    0.3888    0.0804 C   0  0  0  0  0  0  0  0  0  0  0  0
   -1.9138   -0.3211   -0.2411 C   0  0  0  0  0  0  0  0  0  0  0  0
    3.1652   -0.5116   -0.0879 C   0  0  0  0  0  0  0  0  0  0  0  0
   -3.1781    0.5189   -0.0256 C   0  0  0  0  0  0  0  0  0  0  0  0
    4.4584    0.2500    0.2193 C   0  0  0  0  0  0  0  0  0  0  0  0
   -4.4752   -0.2800   -0.1930 C   0  0  0  0  0  0  0  0  0  0  0  0
    5.7123   -0.6205    0.0905 C   0  0  0  0  0  0  0  0  0  0  0  0
   -5.7320    0.5848   -0.0436 C   0  0  0  0  0  0  0  0  0  0  0  0
    6.9720    0.1071    0.4584 C   0  0  0  0  0  0  0  0  0  0  0  0
   -7.0014   -0.1798   -0.2790 C   0  0  0  0  0  0  0  0  0  0  0  0
    7.9973    0.2982   -0.3791 C   0  0  0  0  0  0  0  0  0  0  0  0
   -7.9683   -0.3234    0.6341 C   0  0  0  0  0  0  0  0  0  0  0  0
  1  2  1  0
  1  3  1  0
  2  4  1  0
  3  5  1  0
  4  6  1  0
  5  7  1  0
  6  8  1  0
  7  9  1  0
  8 10  1  0
  9 11  1  0
 10 12  1  0
 11 13  2  0
 12 14  2  0
M  END
>  <PUBCHEM_COMPOUND_CID>  (1) 
30875

>  <PUBCHEM_CONFORMER_RMSD>  (1) 
1

>  <PUBCHEM_CONFORMER_DIVERSEORDER>  (1) 
1
56
52
30
113
2
6
40
121
32
110
50
109
70
77
29
4
82
46
112
10
103
28
55
79
3
31
66
36
53
101
80
23
99
44
64
9
51
43
61
48
19
126
88
114
13
17
60
11
120
8
59
111
93
26
125
25
116
62
54
73
98
96
27
74
14
42
34
78
100
16
84
57
97
15
20
86
5
85
104
71
12
81
39
22
67
89
21
49
105
76
83
119
63
117
18
106
37
123
33
38
72
7
24
108
41
92
47
68
75
91
58
102
94
35
115
90
87
95
122
69
118
107
65
45
124

>  <PUBCHEM_MMFF94_PARTIAL_CHARGES>  (1) 
12
10 0.14
11 -0.29
12 -0.29
13 -0.3
14 -0.3
35 0.15
36 0.15
37 0.15
38 0.15
39 0.15
40 0.15
9 0.14

>  <PUBCHEM_EFFECTIVE_ROTOR_COUNT>  (1) 
11

>  <PUBCHEM_PHARMACOPHORE_FEATURES>  (1) 
2
1 13 hydrophobe
1 14 hydrophobe

>  <PUBCHEM_HEAVY_ATOM_COUNT>  (1) 
14

>  <PUBCHEM_ATOM_DEF_STEREO_COUNT>  (1) 
0

>  <PUBCHEM_ATOM_UDEF_STEREO_COUNT>  (1) 
0

>  <PUBCHEM_BOND_DEF_STEREO_COUNT>  (1) 
0

>  <PUBCHEM_BOND_UDEF_STEREO_COUNT>  (1) 
0

>  <PUBCHEM_ISOTOPIC_ATOM_COUNT>  (1) 
0

>  <PUBCHEM_COMPONENT_COUNT>  (1) 
1

>  <PUBCHEM_CACTVS_TAUTO_COUNT>  (1) 
1

>  <PUBCHEM_CONFORMER_ID>  (1) 
0000789B00000001

>  <PUBCHEM_MMFF94_ENERGY>  (1) 
0.0643

>  <PUBCHEM_FEATURE_SELFOVERLAP>  (1) 
10.149

>  <PUBCHEM_SHAPE_FINGERPRINT>  (1) 
11315181 36 17894915127339155137
12091667 2 18343299263438585757
13533116 47 14836128702454457070
14123256 10 18410575084673641434
14251764 18 18413106151856141531
14251764 46 15574433219643007233
155225 1 18114185290202810108
17834076 25 18410572885639823367
18006028 8 14057000520679257479
20281389 69 12391510876101334602
20621476 8 12823298987458547641
21150785 3 15719392836812087051
22224240 67 16081087091174616370
23521765 1 18341894090834051092
28498 318 11167947952859782616
33684 2 18410854356321573226
42788 4 18412543206656681813
57583515 80 11600003263118125141
59682541 35 18187648036990311344
8209 1 18410573985156738900

>  <PUBCHEM_SHAPE_MULTIPOLES>  (1) 
288.11
26.25
0.78
0.69
0.13
0
-0.02
-0.45
-1.77
0.01
0
0.08
-0.01
0.05

>  <PUBCHEM_SHAPE_SELFOVERLAP>  (1) 
516.692

>  <PUBCHEM_SHAPE_VOLUME>  (1) 
185.7

>  <PUBCHEM_COORDINATE_TYPE>  (1) 
2
5
10

$$$$
