30874
     RDKit          3D

 13 12  0  0  0  0  0  0  0  0999 V2000
    0.0399   -0.5647    0.0864 C   0  0  0  0  0  0  0  0  0  0  0  0
   -1.2615    0.1481   -0.2949 C   0  0  0  0  0  0  0  0  0  0  0  0
    1.2975    0.1721   -0.3792 C   0  0  0  0  0  0  0  0  0  0  0  0
   -2.5516   -0.4998    0.2182 C   0  0  0  0  0  0  0  0  0  0  0  0
    2.5652   -0.5350    0.1055 C   0  0  0  0  0  0  0  0  0  0  0  0
   -3.8199    0.2257   -0.2431 C   0  0  0  0  0  0  0  0  0  0  0  0
    3.8234    0.2201   -0.3276 C   0  0  0  0  0  0  0  0  0  0  0  0
   -5.1058   -0.4783    0.2044 C   0  0  0  0  0  0  0  0  0  0  0  0
    5.0911   -0.5050    0.1289 C   0  0  0  0  0  0  0  0  0  0  0  0
   -6.3474    0.1905   -0.3081 C   0  0  0  0  0  0  0  0  0  0  0  0
    6.3243    0.2519   -0.2672 C   0  0  0  0  0  0  0  0  0  0  0  0
   -7.3050    0.6951    0.4779 C   0  0  0  0  0  0  0  0  0  0  0  0
    7.2498    0.6795    0.5986 C   0  0  0  0  0  0  0  0  0  0  0  0
  1  2  1  0
  1  3  1  0
  2  4  1  0
  3  5  1  0
  4  6  1  0
  5  7  1  0
  6  8  1  0
  7  9  1  0
  8 10  1  0
  9 11  1  0
 10 12  2  0
 11 13  2  0
M  END
>  <PUBCHEM_COMPOUND_CID>  (1) 
30874

>  <PUBCHEM_CONFORMER_RMSD>  (1) 
0.8

>  <PUBCHEM_CONFORMER_DIVERSEORDER>  (1) 
1
278
74
260
70
359
56
236
91
252
124
20
129
369
286
133
165
44
245
247
114
39
240
75
360
201
101
169
352
79
333
181
145
38
7
171
323
87
341
291
239
73
98
267
41
287
213
115
297
96
135
157
302
76
214
251
244
118
268
83
21
63
199
259
58
34
125
28
151
246
97
138
94
150
233
158
33
130
42
288
376
222
106
93
307
32
61
316
178
349
296
121
187
119
293
51
14
159
134
196
90
175
208
113
104
126
206
108
224
345
192
327
269
152
9
131
47
62
170
46
142
216
146
13
54
37
4
107
147
336
95
64
202
262
257
116
52
299
49
277
17
143
275
232
312
303
110
78
306
27
148
29
370
40
372
55
382
280
354
112
24
221
319
6
194
166
5
205
86
237
82
26
15
212
279
16
92
11
203
161
290
10
378
304
223
71
30
155
292
348
295
53
179
105
31
320
346
235
190
381
68
258
226
218
342
322
207
164
160
23
217
197
65
122
266
255
355
195
241
162
249
140
85
80
243
328
12
123
238
315
2
261
326
99
281
127
35
139
301
120
325
19
331
180
50
351
231
356
324
256
363
209
149
228
154
81
294
313
48
335
343
283
144
373
265
22
310
253
188
182
189
347
229
374
330
193
66
198
184
289
219
111
314
102
379
220
371
272
210
109
172
25
264
311
88
367
298
273
361
18
380
364
36
168
211
353
225
300
276
254
215
329
103
167
230
57
45
368
176
358
308
234
59
141
174
84
3
43
377
100
72
317
8
284
274
270
332
357
282
60
173
77
163
186
340
200
67
185
89
365
132
344
177
136
362
156
305
321
337
250
137
117
204
242
334
248
69
366
285
153
318
263
338
271
191
339
309
128
183
227
375
350

>  <PUBCHEM_MMFF94_PARTIAL_CHARGES>  (1) 
12
10 -0.29
11 -0.29
12 -0.3
13 -0.3
32 0.15
33 0.15
34 0.15
35 0.15
36 0.15
37 0.15
8 0.14
9 0.14

>  <PUBCHEM_EFFECTIVE_ROTOR_COUNT>  (1) 
10

>  <PUBCHEM_PHARMACOPHORE_FEATURES>  (1) 
2
1 12 hydrophobe
1 13 hydrophobe

>  <PUBCHEM_HEAVY_ATOM_COUNT>  (1) 
13

>  <PUBCHEM_ATOM_DEF_STEREO_COUNT>  (1) 
0

>  <PUBCHEM_ATOM_UDEF_STEREO_COUNT>  (1) 
0

>  <PUBCHEM_BOND_DEF_STEREO_COUNT>  (1) 
0

>  <PUBCHEM_BOND_UDEF_STEREO_COUNT>  (1) 
0

>  <PUBCHEM_ISOTOPIC_ATOM_COUNT>  (1) 
0

>  <PUBCHEM_COMPONENT_COUNT>  (1) 
1

>  <PUBCHEM_CACTVS_TAUTO_COUNT>  (1) 
1

>  <PUBCHEM_CONFORMER_ID>  (1) 
0000789A00000001

>  <PUBCHEM_MMFF94_ENERGY>  (1) 
0.4499

>  <PUBCHEM_FEATURE_SELFOVERLAP>  (1) 
10.149

>  <PUBCHEM_SHAPE_FINGERPRINT>  (1) 
10968037 39 14908180855026945245
11315181 36 16056881356122856867
12091667 2 17775567546775033463
12714333 28 17917993875424816150
13073987 5 17168697527439304713
13533116 47 18270677567953578370
14123256 10 13470689243454434661
1420 363 15068624876679450459
14251764 18 17821446863285973955
14251764 46 18409729564521574223
14729087 3 18410853236089859765
15048467 5 18202001027435235337
15716309 27 13984664762920594171
17834072 8 13039185909365355276
17834076 25 18410012139015213423
20281389 69 18408319973799230880
20621476 38 10881668106236249632
20621476 8 18408605829294138278
20735858 18 16225764116612236874
20767249 213 17989205953663575494
21130983 4 18413109472198333016
22224240 67 18261108590875588914
23035841 295 12179846104303435625
23402539 116 18411978079445050575
23521765 1 18341895190345685359
246663 6 11530480017491273160
33532 11 11674868992726921216
33684 2 14045743716444302350
42788 4 17530684311813341719
4463277 17 18413107259952656393
57583515 80 18060139843092745787
59567204 34 17131840807847104065
8209 1 18411418410081583164

>  <PUBCHEM_SHAPE_MULTIPOLES>  (1) 
267.53
22.45
0.81
0.71
0.93
0
-0.01
5.02
-2.71
-0.02
-0.05
-0.06
0.03
0.05

>  <PUBCHEM_SHAPE_SELFOVERLAP>  (1) 
479.344

>  <PUBCHEM_SHAPE_VOLUME>  (1) 
172.6

>  <PUBCHEM_COORDINATE_TYPE>  (1) 
2
5
10

$$$$
