30881
     RDKit          3D

 15 16  0  0  0  0  0  0  0  0999 V2000
    5.0233   -0.8242    0.5816 Cl  0  0  0  0  0  0  0  0  0  0  0  0
   -1.1576   -0.9787   -0.9956 O   0  0  0  0  0  0  0  0  0  0  0  0
   -3.2885    1.4454    0.4525 O   0  0  0  0  0  0  0  0  0  0  0  0
   -1.5194    0.2206   -0.3522 N   0  0  0  0  0  0  0  0  0  0  0  0
   -0.5163    1.2673   -0.5124 C   0  0  0  0  0  0  0  0  0  0  0  0
    0.8688    0.7541   -0.2309 C   0  0  0  0  0  0  0  0  0  0  0  0
    1.0884   -0.6316   -0.1357 C   0  0  0  0  0  0  0  0  0  0  0  0
   -0.0799   -1.5738   -0.2618 C   0  0  0  0  0  0  0  0  0  0  0  0
    1.9448    1.6381   -0.0989 C   0  0  0  0  0  0  0  0  0  0  0  0
    2.3746   -1.1143    0.1269 C   0  0  0  0  0  0  0  0  0  0  0  0
   -2.8009    0.3690    0.1049 C   0  0  0  0  0  0  0  0  0  0  0  0
   -3.6161   -0.8980    0.1771 C   0  0  0  0  0  0  0  0  0  0  0  0
    3.2266    1.1478    0.1503 C   0  0  0  0  0  0  0  0  0  0  0  0
    3.4406   -0.2253    0.2660 C   0  0  0  0  0  0  0  0  0  0  0  0
   -4.9883   -0.5964    0.7283 C   0  0  0  0  0  0  0  0  0  0  0  0
  1 14  1  0
  2  4  1  0
  2  8  1  0
  3 11  2  0
  4  5  1  0
  4 11  1  0
  5  6  1  0
  6  7  2  0
  6  9  1  0
  7  8  1  0
  7 10  1  0
  9 13  2  0
 10 14  2  0
 11 12  1  0
 12 15  1  0
 13 14  1  0
M  END
>  <PUBCHEM_COMPOUND_CID>  (1) 
30881

>  <PUBCHEM_CONFORMER_RMSD>  (1) 
0.6

>  <PUBCHEM_CONFORMER_DIVERSEORDER>  (1) 
1
8
12
10
5
2
7
11
9
6
3
4

>  <PUBCHEM_MMFF94_PARTIAL_CHARGES>  (1) 
17
1 -0.18
10 -0.15
11 0.57
12 0.06
13 -0.15
14 0.18
2 -0.32
20 0.15
21 0.15
24 0.15
3 -0.57
4 -0.32
5 0.44
6 -0.14
7 -0.14
8 0.42
9 -0.15

>  <PUBCHEM_EFFECTIVE_ROTOR_COUNT>  (1) 
2.8

>  <PUBCHEM_PHARMACOPHORE_FEATURES>  (1) 
4
1 15 hydrophobe
1 3 acceptor
6 2 4 5 6 7 8 rings
6 6 7 9 10 13 14 rings

>  <PUBCHEM_HEAVY_ATOM_COUNT>  (1) 
15

>  <PUBCHEM_ATOM_DEF_STEREO_COUNT>  (1) 
0

>  <PUBCHEM_ATOM_UDEF_STEREO_COUNT>  (1) 
0

>  <PUBCHEM_BOND_DEF_STEREO_COUNT>  (1) 
0

>  <PUBCHEM_BOND_UDEF_STEREO_COUNT>  (1) 
0

>  <PUBCHEM_ISOTOPIC_ATOM_COUNT>  (1) 
0

>  <PUBCHEM_COMPONENT_COUNT>  (1) 
1

>  <PUBCHEM_CACTVS_TAUTO_COUNT>  (1) 
1

>  <PUBCHEM_CONFORMER_ID>  (1) 
000078A100000001

>  <PUBCHEM_MMFF94_ENERGY>  (1) 
32.6324

>  <PUBCHEM_FEATURE_SELFOVERLAP>  (1) 
20.322

>  <PUBCHEM_SHAPE_FINGERPRINT>  (1) 
11132069 177 18272927224013534550
11471102 20 18408879659498080828
12032990 46 18336547119092259838
12251169 10 18411981373062552031
12670543 26 9222957010687635184
13221675 6 18409443670429814886
13675066 3 18059851749323401714
13760787 5 18336260236213569271
13862211 1 18409160005025460674
14144814 61 18412543214787777889
14252887 29 18201442437464742502
14325111 11 18411982468258139501
14943859 89 15411177741582655303
15196674 1 18409729560321825304
15309172 13 18342172263076142687
15375462 189 18261663805935626266
15536298 74 18343018926042749932
15775835 57 18201441431893639097
16945 1 18337375085712845508
17804303 29 18411419497151524716
17844478 74 17967246490238122044
17862501 102 18413103983198512747
18522853 276 18342738524512516337
19050596 39 18341897424193026443
19422 9 18333454252538231308
200 152 18271514373853644807
20028762 73 18270961370665952591
20261772 1 18271247222065767503
20671657 1 18263369260055378844
20871998 22 18268716017613021878
20871999 31 8141792860245772969
21267235 1 18410019831454881162
21501502 16 18196646509351450670
21501925 9 18335420179534221717
21637258 2 16009018463761422042
23402539 116 17275377707870709509
23463225 33 18408885148234286940
26918003 58 18260550043848877307
2748010 2 17907849614160097870
296302 2 11672060856797376250
3286 77 18334013916767831196
4047638 21 13254802347380604284
42 15 18408044017728537817
465052 167 18187372051029556923
5104073 3 18410011030987855760

>  <PUBCHEM_SHAPE_MULTIPOLES>  (1) 
293.84
8.82
1.62
0.77
2.6
0.23
0.01
-1.81
-2.83
-0.32
0.05
0.14
-0.06
-0.16

>  <PUBCHEM_SHAPE_SELFOVERLAP>  (1) 
609.237

>  <PUBCHEM_SHAPE_VOLUME>  (1) 
169.2

>  <PUBCHEM_COORDINATE_TYPE>  (1) 
2
5
10

$$$$
