30892
     RDKit          3D

 40 45  0  0  0  0  0  0  0  0999 V2000
   -2.4081    2.2599    1.4151 N   0  0  0  0  0  0  0  0  0  0  0  0
    3.6964   -0.6460   -0.9700 N   0  0  0  0  0  0  0  0  0  0  0  0
   -3.5409   -1.5984    0.3653 N   0  0  0  0  0  0  0  0  0  0  0  0
    0.1411   -2.7944   -1.1082 N   0  0  0  0  0  0  0  0  0  0  0  0
    2.5875    4.8854   -0.0250 C   0  0  0  0  0  0  0  0  0  0  0  0
    3.7860    4.0000   -0.3741 C   0  0  0  0  0  0  0  0  0  0  0  0
    1.4655    4.0727    0.6235 C   0  0  0  0  0  0  0  0  0  0  0  0
    4.3383    3.3004    0.8697 C   0  0  0  0  0  0  0  0  0  0  0  0
    0.2544    4.9517    0.9423 C   0  0  0  0  0  0  0  0  0  0  0  0
    5.4958    2.3439    0.5666 C   0  0  0  0  0  0  0  0  0  0  0  0
   -0.8563    4.1423    1.6189 C   0  0  0  0  0  0  0  0  0  0  0  0
    5.1367    1.2615   -0.4572 C   0  0  0  0  0  0  0  0  0  0  0  0
   -1.3661    2.9999    0.7438 C   0  0  0  0  0  0  0  0  0  0  0  0
    3.9722    0.3858    0.0003 C   0  0  0  0  0  0  0  0  0  0  0  0
   -2.7857    0.9733    1.0651 C   0  0  0  0  0  0  0  0  0  0  0  0
    2.5106   -1.3624   -1.0161 C   0  0  0  0  0  0  0  0  0  0  0  0
   -2.1552   -0.1217    1.6645 C   0  0  0  0  0  0  0  0  0  0  0  0
    1.4446   -0.8898   -1.7884 C   0  0  0  0  0  0  0  0  0  0  0  0
   -3.7944    0.7812    0.1155 C   0  0  0  0  0  0  0  0  0  0  0  0
    2.3907   -2.5518   -0.2902 C   0  0  0  0  0  0  0  0  0  0  0  0
   -2.5700   -1.4078    1.2795 C   0  0  0  0  0  0  0  0  0  0  0  0
    0.2618   -1.6482   -1.8056 C   0  0  0  0  0  0  0  0  0  0  0  0
   -4.1451   -0.5402   -0.2089 C   0  0  0  0  0  0  0  0  0  0  0  0
    1.1710   -3.2453   -0.3661 C   0  0  0  0  0  0  0  0  0  0  0  0
   -1.1387    0.0421    2.6217 C   0  0  0  0  0  0  0  0  0  0  0  0
    1.5374    0.3021   -2.5279 C   0  0  0  0  0  0  0  0  0  0  0  0
   -4.4451    1.8632   -0.5026 C   0  0  0  0  0  0  0  0  0  0  0  0
    3.4458   -3.0502    0.4938 C   0  0  0  0  0  0  0  0  0  0  0  0
   -1.9460   -2.5020    1.8726 C   0  0  0  0  0  0  0  0  0  0  0  0
   -0.8030   -1.1829   -2.5725 C   0  0  0  0  0  0  0  0  0  0  0  0
   -5.1486   -0.7380   -1.1537 C   0  0  0  0  0  0  0  0  0  0  0  0
    1.0454   -4.4300    0.3544 C   0  0  0  0  0  0  0  0  0  0  0  0
   -0.5309   -1.0684    3.1999 C   0  0  0  0  0  0  0  0  0  0  0  0
    0.4584    0.7455   -3.2866 C   0  0  0  0  0  0  0  0  0  0  0  0
   -5.4451    1.6384   -1.4441 C   0  0  0  0  0  0  0  0  0  0  0  0
    3.2948   -4.2371    1.2046 C   0  0  0  0  0  0  0  0  0  0  0  0
   -0.9356   -2.3429    2.8243 C   0  0  0  0  0  0  0  0  0  0  0  0
   -0.7142    0.0011   -3.3087 C   0  0  0  0  0  0  0  0  0  0  0  0
   -5.7974    0.3350   -1.7700 C   0  0  0  0  0  0  0  0  0  0  0  0
    2.0919   -4.9280    1.1346 C   0  0  0  0  0  0  0  0  0  0  0  0
  1 13  1  0
  1 15  1  0
  2 14  1  0
  2 16  1  0
  3 21  2  0
  3 23  1  0
  4 22  2  0
  4 24  1  0
  5  6  1  0
  5  7  1  0
  6  8  1  0
  7  9  1  0
  8 10  1  0
  9 11  1  0
 10 12  1  0
 11 13  1  0
 12 14  1  0
 15 17  2  0
 15 19  1  0
 16 18  2  0
 16 20  1  0
 17 21  1  0
 17 25  1  0
 18 22  1  0
 18 26  1  0
 19 23  2  0
 19 27  1  0
 20 24  2  0
 20 28  1  0
 21 29  1  0
 22 30  1  0
 23 31  1  0
 24 32  1  0
 25 33  2  0
 26 34  2  0
 27 35  2  0
 28 36  2  0
 29 37  2  0
 30 38  2  0
 31 39  2  0
 32 40  2  0
 33 37  1  0
 34 38  1  0
 35 39  1  0
 36 40  1  0
M  END
>  <PUBCHEM_COMPOUND_CID>  (1) 
30892

>  <PUBCHEM_CONFORMER_RMSD>  (1) 
1.6

>  <PUBCHEM_CONFORMER_DIVERSEORDER>  (1) 
2
1
9
40
4
34
33
82
39
47
58
31
20
6
79
10
7
70
12
73
63
8
3
61
60
51
19
49
36
48
17
18
56
67
76
13
11
41
44
65
77
69
57
28
15
26
45
14
42
55
22
54
38
27
5
83
32
80
25
43
21
72
81
68
23
74
35
62
37
30
71
66
75
52
16
78
59
46
64
53
50
29
24

>  <PUBCHEM_MMFF94_PARTIAL_CHARGES>  (1) 
46
1 -0.87
13 0.37
14 0.37
15 0.1
16 0.1
2 -0.87
21 0.31
22 0.31
23 0.31
24 0.31
25 -0.15
26 -0.15
27 -0.15
28 -0.15
29 -0.15
3 -0.62
30 -0.15
31 -0.15
32 -0.15
33 -0.15
34 -0.15
35 -0.15
36 -0.15
37 -0.15
38 -0.15
39 -0.15
4 -0.62
40 -0.15
61 0.4
62 0.4
63 0.15
64 0.15
65 0.15
66 0.15
67 0.15
68 0.15
69 0.15
70 0.15
71 0.15
72 0.15
73 0.15
74 0.15
75 0.15
76 0.15
77 0.15
78 0.15

>  <PUBCHEM_EFFECTIVE_ROTOR_COUNT>  (1) 
13

>  <PUBCHEM_PHARMACOPHORE_FEATURES>  (1) 
12
1 1 cation
1 1 donor
1 2 cation
1 2 donor
1 3 acceptor
1 4 acceptor
6 17 21 25 29 33 37 rings
6 18 22 26 30 34 38 rings
6 19 23 27 31 35 39 rings
6 20 24 28 32 36 40 rings
6 3 15 17 19 21 23 rings
6 4 16 18 20 22 24 rings

>  <PUBCHEM_HEAVY_ATOM_COUNT>  (1) 
40

>  <PUBCHEM_ATOM_DEF_STEREO_COUNT>  (1) 
0

>  <PUBCHEM_ATOM_UDEF_STEREO_COUNT>  (1) 
0

>  <PUBCHEM_BOND_DEF_STEREO_COUNT>  (1) 
0

>  <PUBCHEM_BOND_UDEF_STEREO_COUNT>  (1) 
0

>  <PUBCHEM_ISOTOPIC_ATOM_COUNT>  (1) 
0

>  <PUBCHEM_COMPONENT_COUNT>  (1) 
1

>  <PUBCHEM_CACTVS_TAUTO_COUNT>  (1) 
3

>  <PUBCHEM_CONFORMER_ID>  (1) 
000078AC00000002

>  <PUBCHEM_MMFF94_ENERGY>  (1) 
143.2394

>  <PUBCHEM_FEATURE_SELFOVERLAP>  (1) 
61.02

>  <PUBCHEM_SHAPE_FINGERPRINT>  (1) 
10581848 127 17104520438618767076
12156800 1 15435331946303131951
12422481 6 14201935914105907519
1361 2 18270394009395561113
13642711 20 18338503252814086345
15815584 197 18269008620386110700
17974551 9 17467384152102958834
18603816 31 17543314587130832104
20764821 26 18195838282248051200
3298306 158 18126561456232978093
3493558 16 18265049128679558073
4066623 53 17836901436029634181
6669772 16 18337667641900378065

>  <PUBCHEM_SHAPE_MULTIPOLES>  (1) 
803.26
9.71
7.18
3.06
3.62
2.39
0.77
4.99
2.14
-8.39
-3.59
1.46
-0.85
0.31

>  <PUBCHEM_SHAPE_SELFOVERLAP>  (1) 
1763.325

>  <PUBCHEM_SHAPE_VOLUME>  (1) 
427.8

>  <PUBCHEM_COORDINATE_TYPE>  (1) 
2
5
10

$$$$
