30893
     RDKit          3D

 21 22  0  0  0  0  0  0  0  0999 V2000
    0.0318   -1.3246    0.8402 P   0  0  0  0  0  0  0  0  0  0  0  0
   -0.4733   -2.7588    0.2865 O   0  0  0  0  0  0  0  0  0  0  0  0
   -2.2952   -0.3198    0.6166 O   0  0  0  0  0  0  0  0  0  0  0  0
    2.0408    0.2054    0.5276 O   0  0  0  0  0  0  0  0  0  0  0  0
   -0.0192   -1.2340    2.3396 O   0  0  0  0  0  0  0  0  0  0  0  0
   -1.0150   -0.1229    0.0272 C   0  0  0  0  0  0  0  0  0  0  0  0
    1.6808   -1.1257    0.1762 C   0  0  0  0  0  0  0  0  0  0  0  0
   -0.4399   -3.0839   -1.0906 C   0  0  0  0  0  0  0  0  0  0  0  0
   -3.3047    0.5019    0.1943 C   0  0  0  0  0  0  0  0  0  0  0  0
    3.2977    0.6192    0.1785 C   0  0  0  0  0  0  0  0  0  0  0  0
   -0.9759   -4.4871   -1.2790 C   0  0  0  0  0  0  0  0  0  0  0  0
   -3.0478    1.4720   -0.7690 C   0  0  0  0  0  0  0  0  0  0  0  0
    4.1513   -0.2537   -0.4881 C   0  0  0  0  0  0  0  0  0  0  0  0
   -4.5794    0.3609    0.7331 C   0  0  0  0  0  0  0  0  0  0  0  0
    3.7115    1.9091    0.4945 C   0  0  0  0  0  0  0  0  0  0  0  0
   -4.0769    2.3101   -1.1982 C   0  0  0  0  0  0  0  0  0  0  0  0
    5.4328    0.1681   -0.8426 C   0  0  0  0  0  0  0  0  0  0  0  0
   -5.6085    1.1989    0.3038 C   0  0  0  0  0  0  0  0  0  0  0  0
    4.9928    2.3310    0.1400 C   0  0  0  0  0  0  0  0  0  0  0  0
   -5.3573    2.1735   -0.6619 C   0  0  0  0  0  0  0  0  0  0  0  0
    5.8535    1.4605   -0.5287 C   0  0  0  0  0  0  0  0  0  0  0  0
  1  2  1  0
  1  5  2  0
  1  6  1  0
  1  7  1  0
  2  8  1  0
  3  6  1  0
  3  9  1  0
  4  7  1  0
  4 10  1  0
  8 11  1  0
  9 12  2  0
  9 14  1  0
 10 13  2  0
 10 15  1  0
 12 16  1  0
 13 17  1  0
 14 18  2  0
 15 19  2  0
 16 20  2  0
 17 21  2  0
 18 20  1  0
 19 21  1  0
M  END
>  <PUBCHEM_COMPOUND_CID>  (1) 
30893

>  <PUBCHEM_CONFORMER_RMSD>  (1) 
0.8

>  <PUBCHEM_CONFORMER_DIVERSEORDER>  (1) 
1
129
107
72
110
11
82
126
36
121
47
60
69
74
59
14
133
125
105
67
115
103
87
124
44
128
22
71
68
111
33
49
113
56
3
93
48
117
66
81
17
24
130
90
70
42
123
84
26
106
116
19
127
97
98
102
46
88
15
50
6
119
79
16
65
109
43
86
31
62
132
52
91
78
30
29
122
38
7
118
101
53
96
51
99
25
83
61
75
4
112
5
77
20
57
76
8
120
41
64
35
9
92
39
21
18
13
28
94
85
37
40
80
23
32
27
108
12
100
34
58
55
131
63
10
45
95
2
114
104
73
54
89

>  <PUBCHEM_MMFF94_PARTIAL_CHARGES>  (1) 
30
1 0.97
10 0.08
12 -0.15
13 -0.15
14 -0.15
15 -0.15
16 -0.15
17 -0.15
18 -0.15
19 -0.15
2 -0.55
20 -0.15
21 -0.15
3 -0.36
31 0.15
32 0.15
33 0.15
34 0.15
35 0.15
36 0.15
37 0.15
38 0.15
39 0.15
4 -0.36
40 0.15
5 -0.7
6 0.28
7 0.28
8 0.28
9 0.08

>  <PUBCHEM_EFFECTIVE_ROTOR_COUNT>  (1) 
8

>  <PUBCHEM_PHARMACOPHORE_FEATURES>  (1) 
4
1 3 acceptor
1 4 acceptor
6 10 13 15 17 19 21 rings
6 9 12 14 16 18 20 rings

>  <PUBCHEM_HEAVY_ATOM_COUNT>  (1) 
21

>  <PUBCHEM_ATOM_DEF_STEREO_COUNT>  (1) 
0

>  <PUBCHEM_ATOM_UDEF_STEREO_COUNT>  (1) 
0

>  <PUBCHEM_BOND_DEF_STEREO_COUNT>  (1) 
0

>  <PUBCHEM_BOND_UDEF_STEREO_COUNT>  (1) 
0

>  <PUBCHEM_ISOTOPIC_ATOM_COUNT>  (1) 
0

>  <PUBCHEM_COMPONENT_COUNT>  (1) 
1

>  <PUBCHEM_CACTVS_TAUTO_COUNT>  (1) 
1

>  <PUBCHEM_CONFORMER_ID>  (1) 
000078AD00000001

>  <PUBCHEM_MMFF94_ENERGY>  (1) 
57.037

>  <PUBCHEM_FEATURE_SELFOVERLAP>  (1) 
20.297

>  <PUBCHEM_SHAPE_FINGERPRINT>  (1) 
105312 117 18413110584457784598
11488393 25 18050576144509367491
11796584 16 12319453256013930517
12596602 18 14779275223455867320
12730499 353 18337680732280428770
12760667 363 9511468813917646337
12788726 201 18049707813627963090
12895836 83 18412260674864932416
12895837 130 18117284872751125004
12969540 114 18412818084284233077
13402501 40 18333169461836868396
13544653 18 9295286148962496458
13685833 64 10663813092432251989
14341114 328 15647058161475684936
1454969 45 18412258472480548631
15878777 1 14965374464317131131
15961568 22 17895476925793319253
17539 30 17912073155739320791
17980427 23 15141261948264403579
17980427 26 17531511088834475914
20374829 77 12391513070418127009
20645477 56 18340212998043504546
21033648 29 18411974793199574440
21250096 35 9367340444703125577
21756936 100 17895473734552879658
23227448 37 18267584783056117260
23559900 14 17905035955547156555
2838139 119 18335132081607404876
2916195 48 18261111897979366296
293599 30 18408324384482672128
3057174 1 18130783417479709311
314194 84 8790302435846914553
3729539 64 18055373344217692958
38695281 34 18412545384078565503
5104073 3 17604431765688777537
59755656 520 18409163329187515662
7808743 9 18262514913639880256

>  <PUBCHEM_SHAPE_MULTIPOLES>  (1) 
412.54
13.6
3.86
1.24
3.69
4.99
-0.27
-14.26
2.42
-1.51
1.75
-0.41
0.48
0.65

>  <PUBCHEM_SHAPE_SELFOVERLAP>  (1) 
839.534

>  <PUBCHEM_SHAPE_VOLUME>  (1) 
239.1

>  <PUBCHEM_COORDINATE_TYPE>  (1) 
2
5
10

$$$$
