30897
     RDKit          3D

 19 21  0  0  0  0  0  0  0  0999 V2000
   -0.0037   -0.3618    0.0016 O   0  0  0  0  0  0  0  0  0  0  0  0
   -0.6963    1.6412    0.7177 N   0  0  0  0  0  0  0  0  0  0  0  0
    0.6861    1.6424    0.7172 N   0  0  0  0  0  0  0  0  0  0  0  0
   -2.3585   -0.1104    0.0931 C   0  0  0  0  0  0  0  0  0  0  0  0
    2.3508   -0.1072    0.0925 C   0  0  0  0  0  0  0  0  0  0  0  0
   -3.4443    0.6934   -0.2537 C   0  0  0  0  0  0  0  0  0  0  0  0
    3.4462    0.6939   -0.2540 C   0  0  0  0  0  0  0  0  0  0  0  0
   -1.0446    0.4566    0.2946 C   0  0  0  0  0  0  0  0  0  0  0  0
    1.0465    0.4539    0.2925 C   0  0  0  0  0  0  0  0  0  0  0  0
   -2.5307   -1.4857    0.2499 C   0  0  0  0  0  0  0  0  0  0  0  0
    2.5349   -1.4866    0.2479 C   0  0  0  0  0  0  0  0  0  0  0  0
   -4.7025    0.1219   -0.4435 C   0  0  0  0  0  0  0  0  0  0  0  0
    4.7055    0.1242   -0.4422 C   0  0  0  0  0  0  0  0  0  0  0  0
   -3.2983    2.1708   -0.4318 C   0  0  0  0  0  0  0  0  0  0  0  0
    3.2988    2.1714   -0.4299 C   0  0  0  0  0  0  0  0  0  0  0  0
   -3.7889   -2.0573    0.0600 C   0  0  0  0  0  0  0  0  0  0  0  0
    3.7942   -2.0563    0.0599 C   0  0  0  0  0  0  0  0  0  0  0  0
   -4.8747   -1.2533   -0.2867 C   0  0  0  0  0  0  0  0  0  0  0  0
    4.8794   -1.2508   -0.2851 C   0  0  0  0  0  0  0  0  0  0  0  0
  1  8  1  0
  1  9  1  0
  2  3  1  0
  2  8  2  0
  3  9  2  0
  4  6  2  0
  4  8  1  0
  4 10  1  0
  5  7  2  0
  5  9  1  0
  5 11  1  0
  6 12  1  0
  6 14  1  0
  7 13  1  0
  7 15  1  0
 10 16  2  0
 11 17  2  0
 12 18  2  0
 13 19  2  0
 16 18  1  0
 17 19  1  0
M  END
>  <PUBCHEM_COMPOUND_CID>  (1) 
30897

>  <PUBCHEM_CONFORMER_RMSD>  (1) 
0.6

>  <PUBCHEM_CONFORMER_DIVERSEORDER>  (1) 
1
12
2
13
3
8
11
9
19
18
4
10
16
20
6
14
15
17
7
5

>  <PUBCHEM_MMFF94_PARTIAL_CHARGES>  (1) 
27
1 -0.28
10 -0.15
11 -0.15
12 -0.15
13 -0.15
14 0.14
15 0.14
16 -0.15
17 -0.15
18 -0.15
19 -0.15
2 -0.34
20 0.15
21 0.15
22 0.15
23 0.15
3 -0.34
30 0.15
31 0.15
32 0.15
33 0.15
4 0.05
5 0.05
6 -0.14
7 -0.14
8 0.43
9 0.43

>  <PUBCHEM_EFFECTIVE_ROTOR_COUNT>  (1) 
2

>  <PUBCHEM_PHARMACOPHORE_FEATURES>  (1) 
3
5 1 2 3 8 9 rings
6 4 6 10 12 16 18 rings
6 5 7 11 13 17 19 rings

>  <PUBCHEM_HEAVY_ATOM_COUNT>  (1) 
19

>  <PUBCHEM_ATOM_DEF_STEREO_COUNT>  (1) 
0

>  <PUBCHEM_ATOM_UDEF_STEREO_COUNT>  (1) 
0

>  <PUBCHEM_BOND_DEF_STEREO_COUNT>  (1) 
0

>  <PUBCHEM_BOND_UDEF_STEREO_COUNT>  (1) 
0

>  <PUBCHEM_ISOTOPIC_ATOM_COUNT>  (1) 
0

>  <PUBCHEM_COMPONENT_COUNT>  (1) 
1

>  <PUBCHEM_CACTVS_TAUTO_COUNT>  (1) 
1

>  <PUBCHEM_CONFORMER_ID>  (1) 
000078B100000001

>  <PUBCHEM_MMFF94_ENERGY>  (1) 
49.3919

>  <PUBCHEM_FEATURE_SELFOVERLAP>  (1) 
15.223

>  <PUBCHEM_SHAPE_FINGERPRINT>  (1) 
10616163 171 18412827971272847423
11045515 52 18261112954536455725
11405975 8 18410575054656616321
11543360 7 18260550051689868280
11806522 49 18410295796573840706
12107183 9 17760082917386694779
12596602 18 14189565347563619671
12670546 177 18260829301846899270
12707595 3 17560798857266739832
13167823 11 18409728460731154303
14576447 43 18410296879016661454
14790565 3 17692255136514165057
15196674 1 18411418410081816979
15352361 1 18413107255699919590
15788980 27 18187086143635637802
15961568 22 17313948666194947796
17492 89 18410858728789042110
17804303 29 18413107277781060235
17834072 33 18409167731349457246
17844677 252 18410018731858935389
17870717 6 18340778056815546279
18186145 218 17603300449173545888
18222031 100 17060617815003914573
18681886 176 18413105074769039522
200 152 18343864407307911986
20261772 1 17632854252397775406
20281475 54 18342460339486094209
20645477 70 18341897389843941710
20871999 31 18335137575012741241
21250096 35 18273213092847336050
21267235 1 18411708681178092486
21709351 56 18333729122345637324
221357 26 18410851079852305207
221490 88 18336552723681702898
2215653 11 18342447145926725223
22646028 28 18272933812519889690
23402539 116 18409726223095150876
23402655 69 18334017151426610436
23403322 49 18341894091245761071
23522609 53 18055664899835931809
23559900 14 18411411826050011168
239999 70 18202007655413831166
2871803 45 18335419079891024026
3004659 81 18334574629433687834
3268164 11 16515676728538113879
4214541 1 18409448051117134733
4280585 95 17549269125547760198
465052 167 18060143188524506415
474 4 17023471983286545108
4921388 177 16733275633173498395
5104073 3 18413107251362547360
5281201 14 18259704497352201428
5283173 99 18335414613156866661
559249 180 18265046933967470771
58051976 100 18407759222710498039
633830 44 16660372458526919372
67856867 119 18335697286988524600
77779 3 18408604768484630293
9709674 26 18334581277705608042

>  <PUBCHEM_SHAPE_MULTIPOLES>  (1) 
375.18
11.18
2.31
0.72
0.04
0.16
0.01
-3.28
-2.15
0
-0.01
0
0.09
0

>  <PUBCHEM_SHAPE_SELFOVERLAP>  (1) 
829.272

>  <PUBCHEM_SHAPE_VOLUME>  (1) 
204.5

>  <PUBCHEM_COORDINATE_TYPE>  (1) 
2
5
10

$$$$
