30900
     RDKit          3D

 14 14  0  0  0  0  0  0  0  0999 V2000
   -5.2129   -1.2718    0.6274 Cl  0  0  0  0  0  0  0  0  0  0  0  0
    5.2227   -0.5978   -0.9033 Cl  0  0  0  0  0  0  0  0  0  0  0  0
   -0.5159    0.5616    1.4039 S   0  0  0  0  0  0  0  0  0  0  0  0
   -1.0456    0.2376   -1.1628 O   0  0  0  0  0  0  0  0  0  0  0  0
   -2.8254    0.7053    0.2623 N   0  0  0  0  0  0  0  0  0  0  0  0
   -3.8914    0.7048   -0.7128 C   0  0  0  0  0  0  0  0  0  0  0  0
    1.1094    0.2332    0.7505 C   0  0  0  0  0  0  0  0  0  0  0  0
   -4.5143   -0.6689   -0.8959 C   0  0  0  0  0  0  0  0  0  0  0  0
    1.9101    1.2871    0.3105 C   0  0  0  0  0  0  0  0  0  0  0  0
    1.5806   -1.0778    0.6790 C   0  0  0  0  0  0  0  0  0  0  0  0
   -1.5052    0.4723   -0.0525 C   0  0  0  0  0  0  0  0  0  0  0  0
    3.1820    1.0301   -0.2012 C   0  0  0  0  0  0  0  0  0  0  0  0
    2.8525   -1.3349    0.1675 C   0  0  0  0  0  0  0  0  0  0  0  0
    3.6534   -0.2809   -0.2726 C   0  0  0  0  0  0  0  0  0  0  0  0
  1  8  1  0
  2 14  1  0
  3  7  1  0
  3 11  1  0
  4 11  2  0
  5  6  1  0
  5 11  1  0
  6  8  1  0
  7  9  2  0
  7 10  1  0
  9 12  1  0
 10 13  2  0
 12 14  2  0
 13 14  1  0
M  END
>  <PUBCHEM_COMPOUND_CID>  (1) 
30900

>  <PUBCHEM_CONFORMER_RMSD>  (1) 
0.6

>  <PUBCHEM_CONFORMER_DIVERSEORDER>  (1) 
1
78
58
43
31
61
70
84
18
37
85
74
75
7
66
39
76
73
38
83
69
60
77
30
59
67
34
8
63
81
16
72
14
50
62
28
79
68
48
17
86
80
52
64
49
51
65
44
29
19
24
56
71
23
4
82
3
57
45
2
53
10
32
9
13
12
36
41
42
40
46
15
47
11
20
25
27
21
22
26
6
5
33
35
54
55

>  <PUBCHEM_MMFF94_PARTIAL_CHARGES>  (1) 
19
1 -0.29
10 -0.15
11 0.77
12 -0.15
13 -0.15
14 0.18
17 0.37
2 -0.18
20 0.15
21 0.15
22 0.15
23 0.15
3 -0.24
4 -0.57
5 -0.73
6 0.3
7 0.1
8 0.29
9 -0.15

>  <PUBCHEM_EFFECTIVE_ROTOR_COUNT>  (1) 
5

>  <PUBCHEM_PHARMACOPHORE_FEATURES>  (1) 
2
1 5 donor
6 7 9 10 12 13 14 rings

>  <PUBCHEM_HEAVY_ATOM_COUNT>  (1) 
14

>  <PUBCHEM_ATOM_DEF_STEREO_COUNT>  (1) 
0

>  <PUBCHEM_ATOM_UDEF_STEREO_COUNT>  (1) 
0

>  <PUBCHEM_BOND_DEF_STEREO_COUNT>  (1) 
0

>  <PUBCHEM_BOND_UDEF_STEREO_COUNT>  (1) 
0

>  <PUBCHEM_ISOTOPIC_ATOM_COUNT>  (1) 
0

>  <PUBCHEM_COMPONENT_COUNT>  (1) 
1

>  <PUBCHEM_CACTVS_TAUTO_COUNT>  (1) 
2

>  <PUBCHEM_CONFORMER_ID>  (1) 
000078B400000001

>  <PUBCHEM_MMFF94_ENERGY>  (1) 
17.8813

>  <PUBCHEM_FEATURE_SELFOVERLAP>  (1) 
10.148

>  <PUBCHEM_SHAPE_FINGERPRINT>  (1) 
11089746 13 13190342404750757654
114248 4 18259985980733918074
11543360 7 18113615694689412173
117890 112 8142095255818115711
12251169 10 10231746791093590688
12616999 72 18333730196008638322
13675066 3 12535351233625266469
13760787 5 17418370320455302893
14251718 22 17895197722415957447
14252887 29 15482671273555345390
14350574 20 18410298024965593603
14455015 7 18202289108383104519
14576447 43 18342174445336227750
15188451 53 14045442489456557421
15477762 27 18412826863582163434
15501527 24 18410581682487239364
17834072 33 18408324405846498661
17834074 16 18409727391722140979
18186145 218 17894905205431893041
18522853 295 16200430286255284300
18915474 69 18130780217818061919
19422 9 18202566155100833569
200 152 18342460330816823978
20645477 70 18413393129182012398
20871999 31 17603302666015045651
23402539 116 15936408953082165162
23402655 69 18114740421743336917
23557571 272 17822009787997223109
26918003 58 11527944556303891903
3060560 45 18260825999597511614
3268164 11 16153696627544795471
328317 168 15285359526530915507
42 15 14117799119827382637
465052 167 17560801104194044879
4990 188 18186518787040502530
53428517 58 17967813859855153035

>  <PUBCHEM_SHAPE_MULTIPOLES>  (1) 
284.85
10.97
1.33
1.14
5.91
0.11
0.07
3.89
-2.81
-0.14
0.14
0.36
0
0.32

>  <PUBCHEM_SHAPE_SELFOVERLAP>  (1) 
545.314

>  <PUBCHEM_SHAPE_VOLUME>  (1) 
176.2

>  <PUBCHEM_COORDINATE_TYPE>  (1) 
2
5
10

$$$$
