3090
     RDKit          3D

 10 10  0  0  0  0  0  0  0  0999 V2000
   -2.7353   -0.8852   -0.0005 O   0  0  0  0  0  0  0  0  0  0  0  0
   -2.1781    1.2381   -0.0008 O   0  0  0  0  0  0  0  0  0  0  0  0
    0.5273    0.5679    0.0002 N   0  0  0  0  0  0  0  0  0  0  0  0
    1.4893   -1.4337    0.0014 N   0  0  0  0  0  0  0  0  0  0  0  0
   -1.8485    0.0168   -0.0007 N   0  0  0  0  0  0  0  0  0  0  0  0
    1.6993   -0.1360    0.0013 C   0  0  0  0  0  0  0  0  0  0  0  0
   -0.4951   -0.3385   -0.0003 C   0  0  0  0  0  0  0  0  0  0  0  0
    0.3995    2.0083    0.0023 C   0  0  0  0  0  0  0  0  0  0  0  0
    0.1233   -1.5667    0.0003 C   0  0  0  0  0  0  0  0  0  0  0  0
    3.0183    0.5289   -0.0032 C   0  0  0  0  0  0  0  0  0  0  0  0
  1  5  1  0
  2  5  2  0
  3  6  1  0
  3  7  1  0
  3  8  1  0
  4  6  2  0
  4  9  1  0
  5  7  1  0
  6 10  1  0
  7  9  2  0
M  CHG  2   1  -1   5   1
M  END
>  <PUBCHEM_COMPOUND_CID>  (1) 
3090

>  <PUBCHEM_CONFORMER_RMSD>  (1) 
0.4

>  <PUBCHEM_CONFORMER_DIVERSEORDER>  (1) 
1

>  <PUBCHEM_MMFF94_PARTIAL_CHARGES>  (1) 
11
1 -0.52
10 0.18
14 0.15
2 -0.52
3 0.05
4 -0.57
5 0.96
6 0.01
7 -0.07
8 0.26
9 0.08

>  <PUBCHEM_EFFECTIVE_ROTOR_COUNT>  (1) 
1

>  <PUBCHEM_PHARMACOPHORE_FEATURES>  (1) 
5
1 1 acceptor
1 1 anion
1 2 acceptor
3 3 4 6 cation
5 3 4 6 7 9 rings

>  <PUBCHEM_HEAVY_ATOM_COUNT>  (1) 
10

>  <PUBCHEM_ATOM_DEF_STEREO_COUNT>  (1) 
0

>  <PUBCHEM_ATOM_UDEF_STEREO_COUNT>  (1) 
0

>  <PUBCHEM_BOND_DEF_STEREO_COUNT>  (1) 
0

>  <PUBCHEM_BOND_UDEF_STEREO_COUNT>  (1) 
0

>  <PUBCHEM_ISOTOPIC_ATOM_COUNT>  (1) 
0

>  <PUBCHEM_COMPONENT_COUNT>  (1) 
1

>  <PUBCHEM_CACTVS_TAUTO_COUNT>  (1) 
1

>  <PUBCHEM_CONFORMER_ID>  (1) 
00000C1200000001

>  <PUBCHEM_MMFF94_ENERGY>  (1) 
19.1946

>  <PUBCHEM_FEATURE_SELFOVERLAP>  (1) 
25.453

>  <PUBCHEM_SHAPE_FINGERPRINT>  (1) 
10857977 72 18410282640392668088
12897270 3 18339925913644274444
14325111 11 18410573989773472548
16945 1 18338516464191433158
18185500 45 18339923710331332691
193761 8 17762336912239852066
21040471 1 18410855490509580386
23402655 69 18268412565726676757
23552423 10 18189621540277313814
2748010 2 18339361855457519430
29004967 10 18408327670058560306
5084963 1 18130228284292172387

>  <PUBCHEM_SHAPE_MULTIPOLES>  (1) 
179.11
3.49
1.76
0.57
0.25
0.33
0
0.17
0
-0.01
0
-0.06
0
0

>  <PUBCHEM_SHAPE_SELFOVERLAP>  (1) 
369.481

>  <PUBCHEM_SHAPE_VOLUME>  (1) 
104.7

>  <PUBCHEM_COORDINATE_TYPE>  (1) 
2
5
10

$$$$
