30903
     RDKit          3D

 10 10  0  0  0  0  0  0  0  0999 V2000
    2.5453   -0.4135    0.5797 O   0  0  0  0  0  0  0  0  0  0  0  0
    1.5548    0.7320   -1.1595 O   0  0  0  0  0  0  0  0  0  0  0  0
   -0.8772   -0.3347   -0.2965 N   0  0  0  0  0  0  0  0  0  0  0  0
   -3.1903   -0.1303   -0.0494 C   0  0  0  0  0  0  0  0  0  0  0  0
   -2.5321    1.2027    0.2929 C   0  0  0  0  0  0  0  0  0  0  0  0
   -2.0611   -1.1497   -0.0253 C   0  0  0  0  0  0  0  0  0  0  0  0
   -1.0603    0.8777    0.5009 C   0  0  0  0  0  0  0  0  0  0  0  0
    0.3609   -1.0290    0.0245 C   0  0  0  0  0  0  0  0  0  0  0  0
    1.5258   -0.1217   -0.2835 C   0  0  0  0  0  0  0  0  0  0  0  0
    3.7343    0.3664    0.4162 C   0  0  0  0  0  0  0  0  0  0  0  0
  1  9  1  0
  1 10  1  0
  2  9  2  0
  3  6  1  0
  3  7  1  0
  3  8  1  0
  4  5  1  0
  4  6  1  0
  5  7  1  0
  8  9  1  0
M  END
>  <PUBCHEM_COMPOUND_CID>  (1) 
30903

>  <PUBCHEM_CONFORMER_RMSD>  (1) 
0.6

>  <PUBCHEM_CONFORMER_DIVERSEORDER>  (1) 
2
7
10
11
3
5
9
4
6
8
1

>  <PUBCHEM_MMFF94_PARTIAL_CHARGES>  (1) 
8
1 -0.43
10 0.28
2 -0.57
3 -0.81
6 0.27
7 0.27
8 0.33
9 0.66

>  <PUBCHEM_EFFECTIVE_ROTOR_COUNT>  (1) 
4

>  <PUBCHEM_PHARMACOPHORE_FEATURES>  (1) 
3
1 2 acceptor
1 3 cation
5 3 4 5 6 7 rings

>  <PUBCHEM_HEAVY_ATOM_COUNT>  (1) 
10

>  <PUBCHEM_ATOM_DEF_STEREO_COUNT>  (1) 
0

>  <PUBCHEM_ATOM_UDEF_STEREO_COUNT>  (1) 
0

>  <PUBCHEM_BOND_DEF_STEREO_COUNT>  (1) 
0

>  <PUBCHEM_BOND_UDEF_STEREO_COUNT>  (1) 
0

>  <PUBCHEM_ISOTOPIC_ATOM_COUNT>  (1) 
0

>  <PUBCHEM_COMPONENT_COUNT>  (1) 
1

>  <PUBCHEM_CACTVS_TAUTO_COUNT>  (1) 
1

>  <PUBCHEM_CONFORMER_ID>  (1) 
000078B700000002

>  <PUBCHEM_MMFF94_ENERGY>  (1) 
13.7096

>  <PUBCHEM_FEATURE_SELFOVERLAP>  (1) 
15.223

>  <PUBCHEM_SHAPE_FINGERPRINT>  (1) 
10219947 1 17603583015457058570
10857977 72 18202278143310343075
11062470 55 18186235130204561737
14325111 11 18341894065259536626
14390081 3 18131633348594142121
15310529 11 13614249148272782123
15775835 57 18412546478957635432
20201158 50 17561363976157397049
20645464 45 17418097615516733719
20871998 184 17988645267490800655
21040471 1 18269846328308651071
22485316 2 11891332062868286432
23402539 116 17917416627762630565
23552423 10 18265341616359019735
29004967 10 15267347322670710919
3248919 1 18187373129113638903
369184 2 18413669097767816115
5084963 1 17895190034376914319

>  <PUBCHEM_SHAPE_MULTIPOLES>  (1) 
189.08
5.51
1.17
0.79
2.63
0.02
-0.1
0.76
0.64
-0.61
0.06
0.27
0.09
-0.17

>  <PUBCHEM_SHAPE_SELFOVERLAP>  (1) 
368.801

>  <PUBCHEM_SHAPE_VOLUME>  (1) 
116.8

>  <PUBCHEM_COORDINATE_TYPE>  (1) 
2
5
10

$$$$
