30915
     RDKit          3D

 10 10  0  0  0  0  0  0  0  0999 V2000
    2.7112   -1.1774    0.0011 O   0  0  0  0  0  0  0  0  0  0  0  0
    0.0693    1.1690   -0.0003 N   0  0  0  0  0  0  0  0  0  0  0  0
   -1.4620   -1.1808   -0.0003 N   0  0  0  0  0  0  0  0  0  0  0  0
    0.6376   -0.0532   -0.0007 C   0  0  0  0  0  0  0  0  0  0  0  0
   -2.0304    0.0414   -0.0001 C   0  0  0  0  0  0  0  0  0  0  0  0
   -0.1145   -1.2073   -0.0008 C   0  0  0  0  0  0  0  0  0  0  0  0
    2.0871   -0.0951    0.0000 C   0  0  0  0  0  0  0  0  0  0  0  0
   -1.2783    1.1955   -0.0001 C   0  0  0  0  0  0  0  0  0  0  0  0
   -3.5178    0.1089    0.0011 C   0  0  0  0  0  0  0  0  0  0  0  0
    2.8977    1.1990    0.0002 C   0  0  0  0  0  0  0  0  0  0  0  0
  1  7  2  0
  2  4  2  0
  2  8  1  0
  3  5  1  0
  3  6  2  0
  4  6  1  0
  4  7  1  0
  5  8  2  0
  5  9  1  0
  7 10  1  0
M  END
>  <PUBCHEM_COMPOUND_CID>  (1) 
30915

>  <PUBCHEM_CONFORMER_RMSD>  (1) 
0.4

>  <PUBCHEM_CONFORMER_DIVERSEORDER>  (1) 
1
3
2
4

>  <PUBCHEM_MMFF94_PARTIAL_CHARGES>  (1) 
12
1 -0.57
10 0.06
11 0.15
12 0.15
2 -0.62
3 -0.62
4 0.4
5 0.17
6 0.16
7 0.42
8 0.16
9 0.14

>  <PUBCHEM_EFFECTIVE_ROTOR_COUNT>  (1) 
1

>  <PUBCHEM_PHARMACOPHORE_FEATURES>  (1) 
4
1 1 acceptor
1 2 acceptor
1 3 acceptor
6 2 3 4 5 6 8 rings

>  <PUBCHEM_HEAVY_ATOM_COUNT>  (1) 
10

>  <PUBCHEM_ATOM_DEF_STEREO_COUNT>  (1) 
0

>  <PUBCHEM_ATOM_UDEF_STEREO_COUNT>  (1) 
0

>  <PUBCHEM_BOND_DEF_STEREO_COUNT>  (1) 
0

>  <PUBCHEM_BOND_UDEF_STEREO_COUNT>  (1) 
0

>  <PUBCHEM_ISOTOPIC_ATOM_COUNT>  (1) 
0

>  <PUBCHEM_COMPONENT_COUNT>  (1) 
1

>  <PUBCHEM_CACTVS_TAUTO_COUNT>  (1) 
2

>  <PUBCHEM_CONFORMER_ID>  (1) 
000078C300000001

>  <PUBCHEM_MMFF94_ENERGY>  (1) 
24.1681

>  <PUBCHEM_FEATURE_SELFOVERLAP>  (1) 
20.301

>  <PUBCHEM_SHAPE_FINGERPRINT>  (1) 
10219947 1 18410859854296449989
11062470 55 17988925587015351977
12032990 46 18409456873143627395
12897270 3 18411704317812813404
12932764 1 17385718075957246770
14325111 11 18410573972456635201
16945 1 18410575058961905383
193761 8 17473825026772796805
20871998 184 18057611060479867895
21040471 1 18410575063240996454
23235685 24 18411695500181625093
23402655 69 18195508322229477085
23552423 10 18261111880936393654
2748010 2 18338519771289890407
29004967 10 15647051564447616036
369184 2 18410572885645098147
5084963 1 18271804562601639000
7364860 26 18343582928606043606

>  <PUBCHEM_SHAPE_MULTIPOLES>  (1) 
189.96
4.72
1.39
0.59
0.35
0.02
0
-0.42
0
-0.37
0
0.02
-0.01
0

>  <PUBCHEM_SHAPE_SELFOVERLAP>  (1) 
390.526

>  <PUBCHEM_SHAPE_VOLUME>  (1) 
109.5

>  <PUBCHEM_COORDINATE_TYPE>  (1) 
2
5
10

$$$$
