3091
     RDKit          3D

 28 29  0  0  0  0  0  0  0  0999 V2000
   -4.4886    2.7884   -1.1056 O   0  0  0  0  0  0  0  0  0  0  0  0
    4.4844   -2.7911   -1.1062 O   0  0  0  0  0  0  0  0  0  0  0  0
   -1.3088   -0.5631   -1.6257 O   0  0  0  0  0  0  0  0  0  0  0  0
    1.3098    0.5650   -1.6271 O   0  0  0  0  0  0  0  0  0  0  0  0
   -1.3146   -0.6743    0.6743 N   0  0  0  0  0  0  0  0  0  0  0  0
    1.3151    0.6762    0.6728 N   0  0  0  0  0  0  0  0  0  0  0  0
   -2.2419    1.2048   -0.4843 N   0  0  0  0  0  0  0  0  0  0  0  0
    2.2399   -1.2043   -0.4855 N   0  0  0  0  0  0  0  0  0  0  0  0
   -0.7602    0.0076    1.8419 C   0  0  0  0  0  0  0  0  0  0  0  0
    0.7593   -0.0050    1.8402 C   0  0  0  0  0  0  0  0  0  0  0  0
   -1.2851   -2.1292    0.7273 C   0  0  0  0  0  0  0  0  0  0  0  0
    1.2877    2.1311    0.7259 C   0  0  0  0  0  0  0  0  0  0  0  0
   -1.6059   -0.0415   -0.5432 C   0  0  0  0  0  0  0  0  0  0  0  0
    1.6057    0.0429   -0.5446 C   0  0  0  0  0  0  0  0  0  0  0  0
   -2.2443    2.0821   -1.6548 C   0  0  0  0  0  0  0  0  0  0  0  0
   -3.1643    1.6297    0.5761 C   0  0  0  0  0  0  0  0  0  0  0  0
    3.1613   -1.6306    0.5752 C   0  0  0  0  0  0  0  0  0  0  0  0
    2.2414   -2.0816   -1.6561 C   0  0  0  0  0  0  0  0  0  0  0  0
   -2.6461   -2.7268    1.0685 C   0  0  0  0  0  0  0  0  0  0  0  0
    2.6494    2.7266    1.0675 C   0  0  0  0  0  0  0  0  0  0  0  0
   -3.6660    2.2783   -2.1596 C   0  0  0  0  0  0  0  0  0  0  0  0
   -4.5531    1.8692   -0.0119 C   0  0  0  0  0  0  0  0  0  0  0  0
    4.5500   -1.8721   -0.0124 C   0  0  0  0  0  0  0  0  0  0  0  0
    3.6629   -2.2799   -2.1605 C   0  0  0  0  0  0  0  0  0  0  0  0
   -2.6132   -4.2545    1.1523 C   0  0  0  0  0  0  0  0  0  0  0  0
    2.6189    4.2544    1.1513 C   0  0  0  0  0  0  0  0  0  0  0  0
   -3.9679   -4.8179    1.5525 C   0  0  0  0  0  0  0  0  0  0  0  0
    3.9742    4.8157    1.5519 C   0  0  0  0  0  0  0  0  0  0  0  0
  1 21  1  0
  1 22  1  0
  2 23  1  0
  2 24  1  0
  3 13  2  0
  4 14  2  0
  5  9  1  0
  5 11  1  0
  5 13  1  0
  6 10  1  0
  6 12  1  0
  6 14  1  0
  7 13  1  0
  7 15  1  0
  7 16  1  0
  8 14  1  0
  8 17  1  0
  8 18  1  0
  9 10  1  0
 11 19  1  0
 12 20  1  0
 15 21  1  0
 16 22  1  0
 17 23  1  0
 18 24  1  0
 19 25  1  0
 20 26  1  0
 25 27  1  0
 26 28  1  0
M  END
>  <PUBCHEM_COMPOUND_CID>  (1) 
3091

>  <PUBCHEM_CONFORMER_RMSD>  (1) 
1.6

>  <PUBCHEM_CONFORMER_DIVERSEORDER>  (1) 
1
28
22
25
21
8
14
34
36
37
19
4
31
20
9
39
27
26
38
29
35
5
12
13
33
3
17
23
6
24
18
30
32
7
16
10
11
2
15

>  <PUBCHEM_MMFF94_PARTIAL_CHARGES>  (1) 
22
1 -0.56
10 0.3
11 0.3
12 0.3
13 0.69
14 0.69
15 0.3
16 0.3
17 0.3
18 0.3
2 -0.56
21 0.28
22 0.28
23 0.28
24 0.28
3 -0.57
4 -0.57
5 -0.66
6 -0.66
7 -0.66
8 -0.66
9 0.3

>  <PUBCHEM_EFFECTIVE_ROTOR_COUNT>  (1) 
15.4

>  <PUBCHEM_PHARMACOPHORE_FEATURES>  (1) 
8
1 1 acceptor
1 2 acceptor
1 27 hydrophobe
1 28 hydrophobe
1 3 acceptor
1 4 acceptor
6 1 7 15 16 21 22 rings
6 2 8 17 18 23 24 rings

>  <PUBCHEM_HEAVY_ATOM_COUNT>  (1) 
28

>  <PUBCHEM_ATOM_DEF_STEREO_COUNT>  (1) 
0

>  <PUBCHEM_ATOM_UDEF_STEREO_COUNT>  (1) 
0

>  <PUBCHEM_BOND_DEF_STEREO_COUNT>  (1) 
0

>  <PUBCHEM_BOND_UDEF_STEREO_COUNT>  (1) 
0

>  <PUBCHEM_ISOTOPIC_ATOM_COUNT>  (1) 
0

>  <PUBCHEM_COMPONENT_COUNT>  (1) 
1

>  <PUBCHEM_CACTVS_TAUTO_COUNT>  (1) 
1

>  <PUBCHEM_CONFORMER_ID>  (1) 
00000C1300000001

>  <PUBCHEM_MMFF94_ENERGY>  (1) 
60.3791

>  <PUBCHEM_FEATURE_SELFOVERLAP>  (1) 
40.6

>  <PUBCHEM_SHAPE_FINGERPRINT>  (1) 
11297750 10 18265069070371605402
11578080 2 18262255386030539204
12788726 201 17835804093502143882
12930653 34 18122056765425088064
13149001 5 18411137991698515040
14713325 29 18048302629219688569
15775530 1 18338797926219776258
16728300 4 17757236609002277256
1813 80 17416405347163657412
20600515 1 18194136114025953180
20775438 99 18194656346298147239
21703447 108 18337670948382462610
2260408 40 17545919325855406643
229495 10 17914901061191266435
23175994 123 18127695924277407428
23557571 272 17825664718955842019
23559900 14 18342453708699914072
25019877 29 16835179689200554396
621550 34 17980486985400893554
7399639 24 17979918538026528776
81228 2 17897170328455501491
9981440 41 17697845370971619985

>  <PUBCHEM_SHAPE_MULTIPOLES>  (1) 
532.83
8.69
6.44
2.14
0
0.01
0.62
-0.02
-0.58
0
-1.32
0
0
6.93

>  <PUBCHEM_SHAPE_SELFOVERLAP>  (1) 
1047.414

>  <PUBCHEM_SHAPE_VOLUME>  (1) 
314.8

>  <PUBCHEM_COORDINATE_TYPE>  (1) 
2
5
10

$$$$
