30918
     RDKit          3D

 20 21  0  0  1  0  0  0  0  0999 V2000
    0.6947   -1.0803    1.4544 O   0  0  0  0  0  0  0  0  0  0  0  0
    1.9226   -2.9933    0.2240 O   0  0  0  0  0  0  0  0  0  0  0  0
   -3.6088   -0.3189    0.0636 N   0  0  0  0  0  0  0  0  0  0  0  0
    0.7408   -0.9314    0.0139 C   0  0  0  0  0  0  0  0  0  0  0  0
   -2.7609    0.8558   -0.1726 C   0  0  0  0  0  0  0  0  0  0  0  0
   -0.6688   -0.6634   -0.4931 C   0  0  0  0  0  0  0  0  0  0  0  0
   -1.2977    0.5387    0.2231 C   0  0  0  0  0  0  0  0  0  0  0  0
    1.6943    0.1885   -0.2217 C   0  0  0  0  0  0  0  0  0  0  0  0
    2.2706    0.5607    0.9855 C   0  0  0  0  0  0  0  0  0  0  0  0
   -3.3284    2.0318    0.6338 C   0  0  0  0  0  0  0  0  0  0  0  0
   -2.8116    1.2006   -1.6708 C   0  0  0  0  0  0  0  0  0  0  0  0
    1.7377   -0.2907    2.0749 C   0  0  0  0  0  0  0  0  0  0  0  0
    1.2575   -2.2445   -0.4903 C   0  0  0  0  0  0  0  0  0  0  0  0
    2.0393    0.8267   -1.4023 C   0  0  0  0  0  0  0  0  0  0  0  0
   -4.9791   -0.0474   -0.3625 C   0  0  0  0  0  0  0  0  0  0  0  0
   -3.5723   -0.6934    1.4749 C   0  0  0  0  0  0  0  0  0  0  0  0
    3.2079    1.5765    1.0543 C   0  0  0  0  0  0  0  0  0  0  0  0
    0.9208   -2.6034   -1.9122 C   0  0  0  0  0  0  0  0  0  0  0  0
    2.9802    1.8573   -1.3491 C   0  0  0  0  0  0  0  0  0  0  0  0
    3.5613    2.2301   -0.1276 C   0  0  0  0  0  0  0  0  0  0  0  0
  1  4  1  0
  1 12  1  0
  2 13  2  0
  3  5  1  0
  3 15  1  0
  3 16  1  0
  4  6  1  0
  4  8  1  0
  4 13  1  0
  5  7  1  0
  5 10  1  0
  5 11  1  0
  6  7  1  0
  8  9  2  0
  8 14  1  0
  9 12  1  0
  9 17  1  0
 13 18  1  0
 14 19  2  0
 17 20  2  0
 19 20  1  0
M  END
>  <PUBCHEM_COMPOUND_CID>  (1) 
30918

>  <PUBCHEM_CONFORMER_RMSD>  (1) 
0.8

>  <PUBCHEM_CONFORMER_DIVERSEORDER>  (1) 
7
26
13
6
24
5
28
20
4
27
17
16
22
15
1
25
10
12
21
8
14
2
11
23
19
3
18
9

>  <PUBCHEM_MMFF94_PARTIAL_CHARGES>  (1) 
20
1 -0.56
12 0.42
13 0.45
14 -0.15
15 0.27
16 0.27
17 -0.15
18 0.06
19 -0.15
2 -0.57
20 -0.15
3 -0.81
33 0.15
4 0.48
40 0.15
44 0.15
45 0.15
5 0.27
8 -0.14
9 -0.14

>  <PUBCHEM_EFFECTIVE_ROTOR_COUNT>  (1) 
5.6

>  <PUBCHEM_PHARMACOPHORE_FEATURES>  (1) 
6
1 1 acceptor
1 2 acceptor
1 3 cation
3 5 10 11 hydrophobe
5 1 4 8 9 12 rings
6 8 9 14 17 19 20 rings

>  <PUBCHEM_HEAVY_ATOM_COUNT>  (1) 
20

>  <PUBCHEM_ATOM_DEF_STEREO_COUNT>  (1) 
0

>  <PUBCHEM_ATOM_UDEF_STEREO_COUNT>  (1) 
1

>  <PUBCHEM_BOND_DEF_STEREO_COUNT>  (1) 
0

>  <PUBCHEM_BOND_UDEF_STEREO_COUNT>  (1) 
0

>  <PUBCHEM_ISOTOPIC_ATOM_COUNT>  (1) 
0

>  <PUBCHEM_COMPONENT_COUNT>  (1) 
1

>  <PUBCHEM_CACTVS_TAUTO_COUNT>  (1) 
2

>  <PUBCHEM_CONFORMER_ID>  (1) 
000078C600000007

>  <PUBCHEM_MMFF94_ENERGY>  (1) 
66.8331

>  <PUBCHEM_FEATURE_SELFOVERLAP>  (1) 
30.54

>  <PUBCHEM_SHAPE_FINGERPRINT>  (1) 
10366900 7 18272369823843668785
10498660 4 18201432640554591669
107287 299 18342185470290455827
10922049 32 18335991968772989790
12633257 1 16950271897572094417
12788726 201 17324930742983131182
128993 33 17418096494773096425
13134695 92 18053652586839053790
13224815 77 18409448081472108017
13681431 1 17912095953678604030
14004458 79 17334777973242361718
14181834 199 18057594374642588710
14223421 5 18186520986406746933
14289901 80 18341894074318839785
14955137 171 18338506462003983170
15238133 3 16628009309190083417
15502722 9 18271252633550344430
15534591 1 18044655549661499412
15906896 17 17682122423957036834
16945 1 17828494900719531002
1813 80 17270899238092175062
18186145 218 17897162421457703861
18981168 100 18337954489417166949
20600515 1 17396667936196641224
20715895 44 17534877729721026893
21524375 3 18188492500939275396
21756936 100 17244148442780469300
2255824 54 18267870480017653071
23419403 2 17177493642474582122
23557571 272 17386587841816924251
23559900 14 18190457169467909879
2637199 183 18340780324579474708
2838139 119 17630313376154277384
298252 57 18266184005637846040
3060560 45 18272366516212688652
312423 11 17988368053379538435
3797600 57 18042974357258562569
458136 41 18129961042974652787
474 4 18113622321491926509
6049 1 17896608271681249781
633830 44 17489319627867558689
6442390 28 17915468409085931327
7364860 26 18270681961356416622
81228 2 17406259410144163926
81539 233 18334574667718985590

>  <PUBCHEM_SHAPE_MULTIPOLES>  (1) 
394.87
7.34
2.66
1.72
7.43
1.44
0.07
-3.88
0.2
-2.02
-0.72
-0.48
0.16
0.14

>  <PUBCHEM_SHAPE_SELFOVERLAP>  (1) 
828.559

>  <PUBCHEM_SHAPE_VOLUME>  (1) 
227

>  <PUBCHEM_COORDINATE_TYPE>  (1) 
2
5
10

$$$$
