30922
     RDKit          3D

 19 20  0  0  1  0  0  0  0  0999 V2000
    0.0601    1.3063   -0.3377 O   0  0  0  0  0  0  0  0  0  0  0  0
   -0.4950    0.3520   -2.6174 O   0  0  0  0  0  0  0  0  0  0  0  0
   -4.9795    0.2366    0.3768 N   0  0  0  0  0  0  0  0  0  0  0  0
   -0.0711   -0.1350   -0.3215 C   0  0  0  0  0  0  0  0  0  0  0  0
    1.4013    1.7084    0.0541 C   0  0  0  0  0  0  0  0  0  0  0  0
    1.2378   -0.6394    0.1780 C   0  0  0  0  0  0  0  0  0  0  0  0
    2.0967    0.4307    0.3953 C   0  0  0  0  0  0  0  0  0  0  0  0
   -1.2516   -0.5072    0.5639 C   0  0  0  0  0  0  0  0  0  0  0  0
   -0.3248   -0.5039   -1.7505 C   0  0  0  0  0  0  0  0  0  0  0  0
   -2.5600    0.0688    0.0225 C   0  0  0  0  0  0  0  0  0  0  0  0
    2.0401    2.4233   -1.1346 C   0  0  0  0  0  0  0  0  0  0  0  0
    1.2829    2.6450    1.2547 C   0  0  0  0  0  0  0  0  0  0  0  0
    1.6437   -1.9432    0.4185 C   0  0  0  0  0  0  0  0  0  0  0  0
    3.3873    0.2272    0.8603 C   0  0  0  0  0  0  0  0  0  0  0  0
   -3.7447   -0.3386    0.8970 C   0  0  0  0  0  0  0  0  0  0  0  0
    2.9405   -2.1604    0.8874 C   0  0  0  0  0  0  0  0  0  0  0  0
   -0.3589   -1.9730   -2.0743 C   0  0  0  0  0  0  0  0  0  0  0  0
    3.8077   -1.0808    1.1072 C   0  0  0  0  0  0  0  0  0  0  0  0
   -6.1125   -0.1170    1.2203 C   0  0  0  0  0  0  0  0  0  0  0  0
  1  4  1  0
  1  5  1  0
  2  9  2  0
  3 15  1  0
  3 19  1  0
  4  6  1  0
  4  8  1  0
  4  9  1  0
  5  7  1  0
  5 11  1  0
  5 12  1  0
  6  7  2  0
  6 13  1  0
  7 14  1  0
  8 10  1  0
  9 17  1  0
 10 15  1  0
 13 16  2  0
 14 18  2  0
 16 18  1  0
M  END
>  <PUBCHEM_COMPOUND_CID>  (1) 
30922

>  <PUBCHEM_CONFORMER_RMSD>  (1) 
0.8

>  <PUBCHEM_CONFORMER_DIVERSEORDER>  (1) 
6
5
18
4
14
13
26
17
1
10
23
19
20
9
16
11
27
28
2
7
21
22
25
8
24
3
15
12

>  <PUBCHEM_MMFF94_PARTIAL_CHARGES>  (1) 
20
1 -0.56
13 -0.15
14 -0.15
15 0.27
16 -0.15
17 0.06
18 -0.15
19 0.27
2 -0.57
3 -0.9
30 0.15
31 0.15
34 0.15
38 0.15
39 0.36
4 0.48
5 0.42
6 -0.14
7 -0.14
9 0.45

>  <PUBCHEM_EFFECTIVE_ROTOR_COUNT>  (1) 
5.6

>  <PUBCHEM_PHARMACOPHORE_FEATURES>  (1) 
7
1 1 acceptor
1 2 acceptor
1 3 cation
1 3 donor
3 5 11 12 hydrophobe
5 1 4 5 6 7 rings
6 6 7 13 14 16 18 rings

>  <PUBCHEM_HEAVY_ATOM_COUNT>  (1) 
19

>  <PUBCHEM_ATOM_DEF_STEREO_COUNT>  (1) 
0

>  <PUBCHEM_ATOM_UDEF_STEREO_COUNT>  (1) 
1

>  <PUBCHEM_BOND_DEF_STEREO_COUNT>  (1) 
0

>  <PUBCHEM_BOND_UDEF_STEREO_COUNT>  (1) 
0

>  <PUBCHEM_ISOTOPIC_ATOM_COUNT>  (1) 
0

>  <PUBCHEM_COMPONENT_COUNT>  (1) 
1

>  <PUBCHEM_CACTVS_TAUTO_COUNT>  (1) 
2

>  <PUBCHEM_CONFORMER_ID>  (1) 
000078CA00000006

>  <PUBCHEM_MMFF94_ENERGY>  (1) 
47.1627

>  <PUBCHEM_FEATURE_SELFOVERLAP>  (1) 
35.616

>  <PUBCHEM_SHAPE_FINGERPRINT>  (1) 
10756046 70 18201432622994700380
11140007 195 17385723582690804877
12251169 10 18413106160789142971
12423570 1 16112285432812055678
12633257 1 18334853935404558731
13134695 92 18342163441361263097
13140716 1 18193829564771569152
13538477 17 17844516914991626414
13583140 156 18267860778181838499
14955137 171 18273501173905754114
15422964 175 18118396255293778778
15501101 241 18040152937280456015
15852999 172 13901906764850294828
16945 1 18260834791136876172
17980427 23 15840398532440226496
1813 80 16225770687991515831
18785283 64 17823135786525231180
20723712 36 17846779593925654992
21033648 29 17822838850103909697
21041028 32 18339351964533270488
22112679 90 17630868573200092028
23184049 59 18201712916829238282
23402539 116 14333114274213021025
23419403 2 17385988585993240710
23558518 356 17263556007598684577
2748010 2 17980458098004553484
3060560 45 17417828256891055525
31174 14 17749381585741451052
3380486 145 17835475494038805584
3411729 13 15141823871372137933
465052 167 18411427189243175787
6992083 37 17915998257900118454
8272917 22 18334866038384664337
9999458 23 18262530315176235156

>  <PUBCHEM_SHAPE_MULTIPOLES>  (1) 
374.29
7.73
2.36
1.76
14.96
0.78
1.23
-0.84
-5.23
-2.5
0.07
0.19
-0.27
-0.74

>  <PUBCHEM_SHAPE_SELFOVERLAP>  (1) 
784.13

>  <PUBCHEM_SHAPE_VOLUME>  (1) 
216.1

>  <PUBCHEM_COORDINATE_TYPE>  (1) 
2
5
10

$$$$
