30926
     RDKit          3D

  5  4  0  0  0  0  0  0  0  0999 V2000
    1.7742   -0.0334    0.0009 O   0  0  0  0  0  0  0  0  0  0  0  0
   -1.7509   -0.4800    0.0010 N   0  0  0  0  0  0  0  0  0  0  0  0
    0.6238   -0.8277   -0.0007 N   0  0  0  0  0  0  0  0  0  0  0  0
   -0.4367   -0.0769   -0.0013 C   0  0  0  0  0  0  0  0  0  0  0  0
   -0.2105    1.4180   -0.0001 C   0  0  0  0  0  0  0  0  0  0  0  0
  1  3  1  0
  2  4  1  0
  3  4  2  0
  4  5  1  0
M  END
>  <PUBCHEM_COMPOUND_CID>  (1) 
30926

>  <PUBCHEM_CONFORMER_RMSD>  (1) 
0.4

>  <PUBCHEM_CONFORMER_DIVERSEORDER>  (1) 
1

>  <PUBCHEM_MMFF94_PARTIAL_CHARGES>  (1) 
8
1 -0.34
10 0.4
11 0.4
2 -0.85
3 -0.51
4 0.44
5 0.06
9 0.4

>  <PUBCHEM_EFFECTIVE_ROTOR_COUNT>  (1) 
0

>  <PUBCHEM_PHARMACOPHORE_FEATURES>  (1) 
3
1 1 anion
1 2 donor
3 2 3 4 cation

>  <PUBCHEM_HEAVY_ATOM_COUNT>  (1) 
5

>  <PUBCHEM_ATOM_DEF_STEREO_COUNT>  (1) 
0

>  <PUBCHEM_ATOM_UDEF_STEREO_COUNT>  (1) 
0

>  <PUBCHEM_BOND_DEF_STEREO_COUNT>  (1) 
0

>  <PUBCHEM_BOND_UDEF_STEREO_COUNT>  (1) 
1

>  <PUBCHEM_ISOTOPIC_ATOM_COUNT>  (1) 
0

>  <PUBCHEM_COMPONENT_COUNT>  (1) 
1

>  <PUBCHEM_CACTVS_TAUTO_COUNT>  (1) 
3

>  <PUBCHEM_CONFORMER_ID>  (1) 
000078CE00000001

>  <PUBCHEM_MMFF94_ENERGY>  (1) 
14.0378

>  <PUBCHEM_FEATURE_SELFOVERLAP>  (1) 
15.223

>  <PUBCHEM_SHAPE_FINGERPRINT>  (1) 
139733 1 9295291642310063875
16714656 1 18342746229799798942
20096714 4 17979640361468630625
21015797 1 9582929381604681611
5943 1 11462333617925086913

>  <PUBCHEM_SHAPE_MULTIPOLES>  (1) 
87.07
1.76
1.19
0.56
0.17
0.49
0
-0.39
0
-0.1
0
-0.02
0.03
0

>  <PUBCHEM_SHAPE_SELFOVERLAP>  (1) 
153.123

>  <PUBCHEM_SHAPE_VOLUME>  (1) 
57.1

>  <PUBCHEM_COORDINATE_TYPE>  (1) 
2
5
10

$$$$
