30930
     RDKit          3D

 10  9  0  0  0  0  0  0  0  0999 V2000
    2.8678    0.0095   -0.6630 S   0  0  0  0  0  0  0  0  0  0  0  0
   -2.3402    0.0082    0.0161 N   0  0  0  0  0  0  0  0  0  0  0  0
   -1.0543   -0.5706    0.5884 C   0  0  0  0  0  0  0  0  0  0  0  0
    0.1534   -0.0790   -0.1997 C   0  0  0  0  0  0  0  0  0  0  0  0
   -3.5217   -0.4487    0.8597 C   0  0  0  0  0  0  0  0  0  0  0  0
   -2.2633    1.5281    0.0320 C   0  0  0  0  0  0  0  0  0  0  0  0
   -2.5217   -0.4757   -1.4153 C   0  0  0  0  0  0  0  0  0  0  0  0
    1.4755   -0.6340    0.3188 C   0  0  0  0  0  0  0  0  0  0  0  0
    4.1592   -0.8979    0.2159 C   0  0  0  0  0  0  0  0  0  0  0  0
    3.0452    1.5601    0.2472 C   0  0  0  0  0  0  0  0  0  0  0  0
  1  8  1  0
  1  9  1  0
  1 10  1  0
  2  3  1  0
  2  5  1  0
  2  6  1  0
  2  7  1  0
  3  4  1  0
  4  8  1  0
M  CHG  2   1   1   2   1
M  END
>  <PUBCHEM_COMPOUND_CID>  (1) 
30930

>  <PUBCHEM_CONFORMER_RMSD>  (1) 
0.6

>  <PUBCHEM_CONFORMER_DIVERSEORDER>  (1) 
1
3
2
5
4
6

>  <PUBCHEM_EFFECTIVE_ROTOR_COUNT>  (1) 
4

>  <PUBCHEM_PHARMACOPHORE_FEATURES>  (1) 
1
1 2 cation

>  <PUBCHEM_HEAVY_ATOM_COUNT>  (1) 
10

>  <PUBCHEM_ATOM_DEF_STEREO_COUNT>  (1) 
0

>  <PUBCHEM_ATOM_UDEF_STEREO_COUNT>  (1) 
0

>  <PUBCHEM_BOND_DEF_STEREO_COUNT>  (1) 
0

>  <PUBCHEM_BOND_UDEF_STEREO_COUNT>  (1) 
0

>  <PUBCHEM_ISOTOPIC_ATOM_COUNT>  (1) 
0

>  <PUBCHEM_COMPONENT_COUNT>  (1) 
1

>  <PUBCHEM_CACTVS_TAUTO_COUNT>  (1) 
1

>  <PUBCHEM_CONFORMER_ID>  (1) 
000078D200000001

>  <PUBCHEM_MMFF94_ENERGY>  (1) 
26.6868

>  <PUBCHEM_FEATURE_SELFOVERLAP>  (1) 
5.074

>  <PUBCHEM_SHAPE_FINGERPRINT>  (1) 
11062470 55 12607404373349734770
12162725 195 18412825785281848900
12932764 1 18060697286333649658
14144814 61 18187364303235180226
14325111 11 18407762538504326080
14390081 3 18408040719067222792
15310529 11 18343022160052994471
15775835 57 17917435383858626564
18186145 218 17894630336030208186
190213 19 17748826319516209806
1986462 14 17385726872119081118
20281407 28 10159700192113794682
20645464 45 17968100785187813619
23402539 116 18410287013012435663
3248919 1 18040714775111589318

>  <PUBCHEM_SHAPE_MULTIPOLES>  (1) 
204.66
7.41
1.29
1.01
2.81
0.6
-0.24
-0.37
0.39
0.42
0.11
-0.6
-0.15
-0.01

>  <PUBCHEM_SHAPE_SELFOVERLAP>  (1) 
347.032

>  <PUBCHEM_SHAPE_VOLUME>  (1) 
142.6

>  <PUBCHEM_COORDINATE_TYPE>  (1) 
2
5
10

$$$$
