30932
     RDKit          3D

 12 13  0  0  0  0  0  0  0  0999 V2000
    1.0315    1.4622    0.0004 N   0  0  0  0  0  0  0  0  0  0  0  0
    0.2136   -0.6135    0.0001 C   0  0  0  0  0  0  0  0  0  0  0  0
   -0.1392    0.7377    0.0002 C   0  0  0  0  0  0  0  0  0  0  0  0
    1.6354   -0.6737    0.0004 C   0  0  0  0  0  0  0  0  0  0  0  0
    2.1093    0.6180    0.0005 C   0  0  0  0  0  0  0  0  0  0  0  0
   -1.4699    1.1708    0.0000 C   0  0  0  0  0  0  0  0  0  0  0  0
   -0.8099   -1.5817   -0.0004 C   0  0  0  0  0  0  0  0  0  0  0  0
   -2.4681    0.1924    0.0000 C   0  0  0  0  0  0  0  0  0  0  0  0
    2.4575   -1.9021    0.0002 C   0  0  0  0  0  0  0  0  0  0  0  0
   -2.1456   -1.1633   -0.0002 C   0  0  0  0  0  0  0  0  0  0  0  0
    3.4878    1.1446   -0.0010 C   0  0  0  0  0  0  0  0  0  0  0  0
   -3.9024    0.6087   -0.0001 C   0  0  0  0  0  0  0  0  0  0  0  0
  1  3  1  0
  1  5  1  0
  2  3  2  0
  2  4  1  0
  2  7  1  0
  3  6  1  0
  4  5  2  0
  4  9  1  0
  5 11  1  0
  6  8  2  0
  7 10  2  0
  8 10  1  0
  8 12  1  0
M  END
>  <PUBCHEM_COMPOUND_CID>  (1) 
30932

>  <PUBCHEM_CONFORMER_RMSD>  (1) 
0.4

>  <PUBCHEM_CONFORMER_DIVERSEORDER>  (1) 
1

>  <PUBCHEM_MMFF94_PARTIAL_CHARGES>  (1) 
15
1 0.03
10 -0.15
11 0.18
12 0.14
13 0.27
14 0.15
15 0.15
19 0.15
3 -0.15
4 -0.18
5 -0.33
6 -0.15
7 -0.15
8 -0.14
9 0.18

>  <PUBCHEM_EFFECTIVE_ROTOR_COUNT>  (1) 
0

>  <PUBCHEM_PHARMACOPHORE_FEATURES>  (1) 
4
1 1 cation
1 1 donor
5 1 2 3 4 5 rings
6 2 3 6 7 8 10 rings

>  <PUBCHEM_HEAVY_ATOM_COUNT>  (1) 
12

>  <PUBCHEM_ATOM_DEF_STEREO_COUNT>  (1) 
0

>  <PUBCHEM_ATOM_UDEF_STEREO_COUNT>  (1) 
0

>  <PUBCHEM_BOND_DEF_STEREO_COUNT>  (1) 
0

>  <PUBCHEM_BOND_UDEF_STEREO_COUNT>  (1) 
0

>  <PUBCHEM_ISOTOPIC_ATOM_COUNT>  (1) 
0

>  <PUBCHEM_COMPONENT_COUNT>  (1) 
1

>  <PUBCHEM_CACTVS_TAUTO_COUNT>  (1) 
1

>  <PUBCHEM_CONFORMER_ID>  (1) 
000078D400000001

>  <PUBCHEM_MMFF94_ENERGY>  (1) 
19.8629

>  <PUBCHEM_FEATURE_SELFOVERLAP>  (1) 
20.389

>  <PUBCHEM_SHAPE_FINGERPRINT>  (1) 
10130415 120 18337668603229474906
10608611 8 18409726261744893405
10967382 1 18410573972266555748
11471102 20 18410288078216962029
12932764 1 17489300936217099179
13380535 21 18337401516451253810
13380535 76 18410008870756357594
14144814 61 18411702071402466889
14325111 11 18410573968235540417
14897335 6 18411976983468643567
15219456 202 18409735066396000331
15536298 74 18343301444722971682
15775835 57 18411422825503246157
16945 1 18338799025747318980
17844478 74 17967823730038269201
18186145 218 18341054008469497789
193761 8 16897365309498599299
20201158 50 18411135857068146146
20588541 1 18409731789378118956
20645477 70 18339920412134423599
20871998 22 18054228718152939342
21501502 16 18411694408991172974
23235685 24 18411131463385355973
23402655 69 18342164550100856413
23463225 33 18337952281651054130
23552423 10 18334015003521216054
23559900 14 18200039568571926444
2748010 2 18337391539184008230
3312278 4 18340210794419248561
369184 2 18411417310812691395
5084963 1 18129094533264305419
528886 8 18411414046410660761
53812653 166 18271240620658751352
63268167 104 18411703175124633553
7364860 26 18343019952719496110

>  <PUBCHEM_SHAPE_MULTIPOLES>  (1) 
241.97
5.28
1.79
0.61
1.13
0.47
0
-1.05
0
-0.74
0
0.01
0.01
0

>  <PUBCHEM_SHAPE_SELFOVERLAP>  (1) 
523.948

>  <PUBCHEM_SHAPE_VOLUME>  (1) 
136.6

>  <PUBCHEM_COORDINATE_TYPE>  (1) 
2
5
10

$$$$
