30944
     RDKit          3D

 11 12  0  0  1  0  0  0  0  0999 V2000
   -0.9457    1.3258    0.6094 N   0  0  0  0  0  0  0  0  0  0  0  0
   -1.2864   -0.9474   -0.1713 C   0  0  0  0  0  0  0  0  0  0  0  0
   -1.9881    0.4140    0.1383 C   0  0  0  0  0  0  0  0  0  0  0  0
    0.1614   -0.5456   -0.1784 C   0  0  0  0  0  0  0  0  0  0  0  0
    0.2838    0.7707    0.2727 C   0  0  0  0  0  0  0  0  0  0  0  0
   -1.5694   -1.9897    0.9067 C   0  0  0  0  0  0  0  0  0  0  0  0
   -2.6470    1.0065   -1.1075 C   0  0  0  0  0  0  0  0  0  0  0  0
    1.2713   -1.2945   -0.5334 C   0  0  0  0  0  0  0  0  0  0  0  0
    1.5307    1.3536    0.4168 C   0  0  0  0  0  0  0  0  0  0  0  0
    2.5301   -0.7037   -0.4146 C   0  0  0  0  0  0  0  0  0  0  0  0
    2.6593    0.6103    0.0612 C   0  0  0  0  0  0  0  0  0  0  0  0
  1  3  1  0
  1  5  1  0
  2  3  1  0
  2  4  1  0
  2  6  1  0
  3  7  1  0
  4  5  2  0
  4  8  1  0
  5  9  1  0
  8 10  2  0
  9 11  2  0
 10 11  1  0
M  END
>  <PUBCHEM_COMPOUND_CID>  (1) 
30944

>  <PUBCHEM_CONFORMER_RMSD>  (1) 
0.4

>  <PUBCHEM_CONFORMER_DIVERSEORDER>  (1) 
2
1
4
3

>  <PUBCHEM_MMFF94_PARTIAL_CHARGES>  (1) 
14
1 -0.87
10 -0.15
11 -0.15
14 0.4
2 0.14
21 0.15
22 0.15
23 0.15
24 0.15
3 0.37
4 -0.14
5 0.1
8 -0.15
9 -0.15

>  <PUBCHEM_EFFECTIVE_ROTOR_COUNT>  (1) 
0.6

>  <PUBCHEM_PHARMACOPHORE_FEATURES>  (1) 
4
1 1 cation
1 1 donor
5 1 2 3 4 5 rings
6 4 5 8 9 10 11 rings

>  <PUBCHEM_HEAVY_ATOM_COUNT>  (1) 
11

>  <PUBCHEM_ATOM_DEF_STEREO_COUNT>  (1) 
0

>  <PUBCHEM_ATOM_UDEF_STEREO_COUNT>  (1) 
2

>  <PUBCHEM_BOND_DEF_STEREO_COUNT>  (1) 
0

>  <PUBCHEM_BOND_UDEF_STEREO_COUNT>  (1) 
0

>  <PUBCHEM_ISOTOPIC_ATOM_COUNT>  (1) 
0

>  <PUBCHEM_COMPONENT_COUNT>  (1) 
1

>  <PUBCHEM_CACTVS_TAUTO_COUNT>  (1) 
1

>  <PUBCHEM_CONFORMER_ID>  (1) 
000078E000000002

>  <PUBCHEM_MMFF94_ENERGY>  (1) 
38.8461

>  <PUBCHEM_FEATURE_SELFOVERLAP>  (1) 
20.386

>  <PUBCHEM_SHAPE_FINGERPRINT>  (1) 
12138202 97 18260259763550990735
12423570 1 14808311496094331804
12524768 44 18271813367295262222
12716758 59 18260545610714731387
12897270 3 18272087197267141748
13380535 76 18411692171376359350
16945 1 18270964544286853568
17844478 74 18188504569897305315
18534176 82 18187358891428765703
193761 8 15025835616532019080
19973954 147 18339930406206569576
20201158 50 18343017761806029942
21040471 1 18336265652188473556
23402655 69 18200580407516587677
23552423 10 18334862765820064198
23559900 14 18339930308440726030
241688 4 17191232924615488386
25 1 18121494657585865709
2748010 2 18270401723382989212
29004967 10 18271534203153381642
369184 2 17894910741306861106
5084963 1 18260835946287919452
528886 8 18272647935206767616

>  <PUBCHEM_SHAPE_MULTIPOLES>  (1) 
221.39
3.7
1.78
0.9
0.54
0.42
0.05
-0.46
0.58
-0.46
-0.26
-0.32
0.02
0.71

>  <PUBCHEM_SHAPE_SELFOVERLAP>  (1) 
471.35

>  <PUBCHEM_SHAPE_VOLUME>  (1) 
125.7

>  <PUBCHEM_COORDINATE_TYPE>  (1) 
2
5
10

$$$$
