30949
     RDKit          3D

 23 24  0  0  0  0  0  0  0  0999 V2000
    1.8777   -2.9464    0.8414 O   0  0  0  0  0  0  0  0  0  0  0  0
   -2.9931    0.0558    0.2167 N   0  0  0  0  0  0  0  0  0  0  0  0
   -0.3290   -2.5328    0.2911 N   0  0  0  0  0  0  0  0  0  0  0  0
    1.4774   -0.9921   -0.1771 N   0  0  0  0  0  0  0  0  0  0  0  0
    3.1183   -2.3071    0.7238 N   0  0  0  0  0  0  0  0  0  0  0  0
   -4.2495   -0.6892    0.3137 C   0  0  0  0  0  0  0  0  0  0  0  0
   -3.0989    1.3337    0.9108 C   0  0  0  0  0  0  0  0  0  0  0  0
   -1.8894   -0.7368    0.7616 C   0  0  0  0  0  0  0  0  0  0  0  0
   -5.2574   -0.1653   -0.7078 C   0  0  0  0  0  0  0  0  0  0  0  0
   -2.0235    2.2983    0.4138 C   0  0  0  0  0  0  0  0  0  0  0  0
   -1.4345   -1.7795   -0.2515 C   0  0  0  0  0  0  0  0  0  0  0  0
   -6.5711   -0.9448   -0.6379 C   0  0  0  0  0  0  0  0  0  0  0  0
   -2.1301    3.6533    1.1144 C   0  0  0  0  0  0  0  0  0  0  0  0
   -7.5922   -0.4063   -1.6273 C   0  0  0  0  0  0  0  0  0  0  0  0
   -1.0411    4.6077    0.6509 C   0  0  0  0  0  0  0  0  0  0  0  0
    0.9666   -2.1048    0.2862 C   0  0  0  0  0  0  0  0  0  0  0  0
    2.7996   -1.1615    0.1140 C   0  0  0  0  0  0  0  0  0  0  0  0
    3.7775   -0.1655   -0.2174 C   0  0  0  0  0  0  0  0  0  0  0  0
    5.1203   -0.3745    0.0973 C   0  0  0  0  0  0  0  0  0  0  0  0
    3.3856    1.0121   -0.8543 C   0  0  0  0  0  0  0  0  0  0  0  0
    6.0711    0.5940   -0.2246 C   0  0  0  0  0  0  0  0  0  0  0  0
    4.3365    1.9805   -1.1763 C   0  0  0  0  0  0  0  0  0  0  0  0
    5.6792    1.7715   -0.8614 C   0  0  0  0  0  0  0  0  0  0  0  0
  1  5  1  0
  1 16  1  0
  2  6  1  0
  2  7  1  0
  2  8  1  0
  3 11  1  0
  3 16  1  0
  4 16  2  0
  4 17  1  0
  5 17  2  0
  6  9  1  0
  7 10  1  0
  8 11  1  0
  9 12  1  0
 10 13  1  0
 12 14  1  0
 13 15  1  0
 17 18  1  0
 18 19  2  0
 18 20  1  0
 19 21  1  0
 20 22  2  0
 21 23  2  0
 22 23  1  0
M  END
>  <PUBCHEM_COMPOUND_CID>  (1) 
30949

>  <PUBCHEM_CONFORMER_RMSD>  (1) 
1.2

>  <PUBCHEM_CONFORMER_DIVERSEORDER>  (1) 
1
21
34
13
35
33
26
14
15
18
30
22
11
19
23
7
24
29
10
6
12
31
5
9
37
4
28
32
3
16
36
8
25
17
2
38
20
39
27

>  <PUBCHEM_MMFF94_PARTIAL_CHARGES>  (1) 
23
1 -0.02
11 0.37
16 0.56
17 0.46
18 0.05
19 -0.15
2 -0.81
20 -0.15
21 -0.15
22 -0.15
23 -0.15
3 -0.85
4 -0.57
46 0.4
47 0.15
48 0.15
49 0.15
5 -0.41
50 0.15
51 0.15
6 0.27
7 0.27
8 0.27

>  <PUBCHEM_EFFECTIVE_ROTOR_COUNT>  (1) 
11

>  <PUBCHEM_PHARMACOPHORE_FEATURES>  (1) 
8
1 14 hydrophobe
1 15 hydrophobe
1 2 cation
1 3 donor
3 3 4 16 cation
3 4 5 17 cation
5 1 4 5 16 17 rings
6 18 19 20 21 22 23 rings

>  <PUBCHEM_HEAVY_ATOM_COUNT>  (1) 
23

>  <PUBCHEM_ATOM_DEF_STEREO_COUNT>  (1) 
0

>  <PUBCHEM_ATOM_UDEF_STEREO_COUNT>  (1) 
0

>  <PUBCHEM_BOND_DEF_STEREO_COUNT>  (1) 
0

>  <PUBCHEM_BOND_UDEF_STEREO_COUNT>  (1) 
0

>  <PUBCHEM_ISOTOPIC_ATOM_COUNT>  (1) 
0

>  <PUBCHEM_COMPONENT_COUNT>  (1) 
1

>  <PUBCHEM_CACTVS_TAUTO_COUNT>  (1) 
3

>  <PUBCHEM_CONFORMER_ID>  (1) 
000078E500000001

>  <PUBCHEM_MMFF94_ENERGY>  (1) 
27.5215

>  <PUBCHEM_FEATURE_SELFOVERLAP>  (1) 
40.985

>  <PUBCHEM_SHAPE_FINGERPRINT>  (1) 
10670039 82 18339094709204040356
10871710 139 18342463604078152321
10906281 52 18200884977070453627
11513181 2 18056770827353219934
12403260 363 18265046925451493443
12592606 108 9655576306166085573
12788726 201 18272367538815422601
12838862 33 18263911284917519460
13617811 41 18337662109608851097
13911987 19 18411973664445868111
14767858 380 18341606045269800807
14931854 50 18412270549037236524
20157964 124 18187079542514205095
21049683 271 18336262449329969621
21734292 116 18339930415261260760
21864079 5 18194130624530143482
221357 26 18202848755627923048
23845131 108 17676768764123484818
245318 6 17678481820619129020
335352 9 18334580145026524470
46194498 28 14620791617860375490
465052 167 10159705706920537018
474 4 18186805794431398074
532947 4 18054500581193269481
54039377 194 11167677490327282484
6371009 1 18408600370950185936

>  <PUBCHEM_SHAPE_MULTIPOLES>  (1) 
447.54
16.17
4.13
1.1
9.84
4.49
0.2
0.04
7.82
0.35
-1.62
0.74
0.28
-2.45

>  <PUBCHEM_SHAPE_SELFOVERLAP>  (1) 
904.145

>  <PUBCHEM_SHAPE_VOLUME>  (1) 
264

>  <PUBCHEM_COORDINATE_TYPE>  (1) 
2
5
10

$$$$
