30950
     RDKit          3D

 20 21  0  0  0  0  0  0  0  0999 V2000
   -4.7576   -1.5018   -2.1177 Cl  0  0  0  0  0  0  0  0  0  0  0  0
   -5.7222    1.0898   -1.0125 S   0  0  0  0  0  0  0  0  0  0  0  0
   -1.4428   -0.3248    0.2269 O   0  0  0  0  0  0  0  0  0  0  0  0
   -2.8381   -2.1038    0.6598 O   0  0  0  0  0  0  0  0  0  0  0  0
    3.3966   -0.2447    0.4776 N   0  0  0  0  0  0  0  0  0  0  0  0
    5.9683    0.3922   -0.6795 N   0  0  0  0  0  0  0  0  0  0  0  0
   -5.0477    1.9021    0.2712 N   0  0  0  0  0  0  0  0  0  0  0  0
    3.5121    0.2412   -0.9029 C   0  0  0  0  0  0  0  0  0  0  0  0
    4.6092   -0.9752    0.8664 C   0  0  0  0  0  0  0  0  0  0  0  0
    4.7553    1.1219   -1.0686 C   0  0  0  0  0  0  0  0  0  0  0  0
    5.8531   -0.0956    0.7002 C   0  0  0  0  0  0  0  0  0  0  0  0
    2.2113   -1.0852    0.6346 C   0  0  0  0  0  0  0  0  0  0  0  0
    0.9497   -0.2834    0.3314 C   0  0  0  0  0  0  0  0  0  0  0  0
    7.1529    1.2342   -0.8353 C   0  0  0  0  0  0  0  0  0  0  0  0
   -0.3051   -1.1280    0.5081 C   0  0  0  0  0  0  0  0  0  0  0  0
   -2.6528   -0.9396    0.3411 C   0  0  0  0  0  0  0  0  0  0  0  0
   -3.7550    0.0024    0.0211 C   0  0  0  0  0  0  0  0  0  0  0  0
   -4.0105    1.1924    0.7091 C   0  0  0  0  0  0  0  0  0  0  0  0
   -4.6245   -0.2250   -0.9909 C   0  0  0  0  0  0  0  0  0  0  0  0
   -3.2522    1.7309    1.8599 C   0  0  0  0  0  0  0  0  0  0  0  0
  1 19  1  0
  2  7  1  0
  2 19  1  0
  3 15  1  0
  3 16  1  0
  4 16  2  0
  5  8  1  0
  5  9  1  0
  5 12  1  0
  6 10  1  0
  6 11  1  0
  6 14  1  0
  7 18  2  0
  8 10  1  0
  9 11  1  0
 12 13  1  0
 13 15  1  0
 16 17  1  0
 17 18  1  0
 17 19  2  0
 18 20  1  0
M  END
>  <PUBCHEM_COMPOUND_CID>  (1) 
30950

>  <PUBCHEM_CONFORMER_RMSD>  (1) 
0.8

>  <PUBCHEM_CONFORMER_DIVERSEORDER>  (1) 
1
269
43
288
102
117
270
266
133
189
268
184
277
114
38
81
246
118
26
203
315
169
70
79
249
68
252
13
306
309
255
261
177
142
57
67
120
126
135
103
29
307
5
87
111
131
63
3
127
219
295
113
141
311
241
14
183
182
176
191
281
253
2
32
78
226
107
290
136
24
237
300
154
181
58
193
110
130
205
89
132
239
223
97
139
228
60
289
238
172
283
294
274
194
157
19
229
232
95
145
242
216
178
54
201
134
163
86
119
278
291
23
61
40
15
125
303
299
105
234
27
285
301
84
221
156
174
82
88
256
292
260
162
286
224
243
51
282
9
308
267
138
265
284
259
16
209
11
293
280
31
213
59
22
235
76
204
149
90
168
272
297
20
77
305
262
99
47
155
197
287
146
164
313
166
196
116
298
188
72
36
73
222
180
98
137
220
108
214
314
158
80
185
30
41
12
271
112
312
279
66
302
192
93
91
37
275
187
245
7
161
152
236
227
4
276
206
69
273
173
123
151
148
74
129
171
165
50
64
244
106
56
179
218
199
310
140
121
190
104
62
240
211
21
251
6
296
248
115
250
122
247
49
167
75
200
212
254
257
144
83
34
92
143
42
231
217
8
85
210
94
175
128
198
53
48
304
150
17
55
46
195
100
18
160
10
264
258
44
233
159
208
170
33
101
25
65
225
263
147
71
35
215
109
28
39
202
207
153
230
45
124
186
96
52

>  <PUBCHEM_MMFF94_PARTIAL_CHARGES>  (1) 
19
1 -0.12
10 0.27
11 0.27
12 0.27
14 0.27
15 0.28
16 0.81
17 -0.09
18 0.11
19 0.16
2 0.18
20 0.18
3 -0.43
4 -0.57
5 -0.81
6 -0.81
7 -0.51
8 0.27
9 0.27

>  <PUBCHEM_EFFECTIVE_ROTOR_COUNT>  (1) 
7.2

>  <PUBCHEM_PHARMACOPHORE_FEATURES>  (1) 
6
1 4 acceptor
1 5 cation
1 6 cation
1 7 acceptor
5 2 7 17 18 19 rings
6 5 6 8 9 10 11 rings

>  <PUBCHEM_HEAVY_ATOM_COUNT>  (1) 
20

>  <PUBCHEM_ATOM_DEF_STEREO_COUNT>  (1) 
0

>  <PUBCHEM_ATOM_UDEF_STEREO_COUNT>  (1) 
0

>  <PUBCHEM_BOND_DEF_STEREO_COUNT>  (1) 
0

>  <PUBCHEM_BOND_UDEF_STEREO_COUNT>  (1) 
0

>  <PUBCHEM_ISOTOPIC_ATOM_COUNT>  (1) 
0

>  <PUBCHEM_COMPONENT_COUNT>  (1) 
1

>  <PUBCHEM_CACTVS_TAUTO_COUNT>  (1) 
1

>  <PUBCHEM_CONFORMER_ID>  (1) 
000078E600000001

>  <PUBCHEM_MMFF94_ENERGY>  (1) 
32.3433

>  <PUBCHEM_FEATURE_SELFOVERLAP>  (1) 
30.449

>  <PUBCHEM_SHAPE_FINGERPRINT>  (1) 
11089746 13 18410570708682397436
11315181 36 18272650164437342545
12236239 1 18260828194141216082
12596602 18 17385729088290512752
13167372 99 17968373451503137332
13288520 33 10735876171274915403
13631057 29 17896322592243494803
13668630 136 13686295777154059492
13675066 3 15574716871957536699
13862211 1 11527948950403653540
1420 363 14405186196425541094
14528608 73 18343579664119551946
14573314 32 17203332174027037064
15183329 4 18335423444242227102
15326921 28 7924264418802649583
15348495 7 14634880772669719268
15716309 27 9943806690232537662
16992828 155 18122348982606675085
17093844 174 12901540269393303215
17780758 139 11458422440712355399
17870717 6 16845290540837654791
18643901 69 16701731761896923095
18927931 339 17561078138301087383
19489759 90 17988923362158872259
20281389 69 17530682104263546124
21033648 29 15719665554466623652
21150785 3 17989204888796529468
220451 1 17704075083600678302
22061861 79 14979959151336173992
2297311 6 17275382123550510407
23081809 10 18410568479557597106
23198884 109 18341895186272342263
23402539 116 18271798017240375847
23402655 69 18334013913074335074
23559900 14 17417513800944511513
2767999 5 18334290963976098976
2838139 119 18187361034543892380
29717793 49 18341334414669407702
300161 21 18186518813279902298
328310 630 17894920671656599252
34797466 226 16630519674113322968
351380 3 10447926165897706240
465052 167 10879992476195353128
5104073 3 17458345281996715488
531348 171 17489032543679357903
5364581 5 14202264771277938052
542803 24 18408040710825389458
543368 44 18334858329213948853
7495541 125 10665235864868487558

>  <PUBCHEM_SHAPE_MULTIPOLES>  (1) 
390.63
18.64
1.75
1.48
18.88
0.12
-0.28
5.78
-6.29
-2.28
0.17
-0.79
0.01
-2.25

>  <PUBCHEM_SHAPE_SELFOVERLAP>  (1) 
774.43

>  <PUBCHEM_SHAPE_VOLUME>  (1) 
235.3

>  <PUBCHEM_COORDINATE_TYPE>  (1) 
2
5
10

$$$$
