30959
     RDKit          3D

 18 18  0  0  0  0  0  0  0  0999 V2000
    6.9604    0.0450    0.5588 O   0  0  0  0  0  0  0  0  0  0  0  0
   -0.2916   -0.0133    1.3725 O   0  0  0  0  0  0  0  0  0  0  0  0
    2.1302   -0.0423    0.2106 N   0  0  0  0  0  0  0  0  0  0  0  0
   -1.4123   -0.0140   -0.6904 N   0  0  0  0  0  0  0  0  0  0  0  0
    3.3743   -0.0495   -0.5493 C   0  0  0  0  0  0  0  0  0  0  0  0
    4.5717   -0.0161    0.3950 C   0  0  0  0  0  0  0  0  0  0  0  0
   -2.7759    0.0022   -0.3116 C   0  0  0  0  0  0  0  0  0  0  0  0
    0.9775   -0.0398   -0.6793 C   0  0  0  0  0  0  0  0  0  0  0  0
   -3.4452   -1.1979   -0.1246 C   0  0  0  0  0  0  0  0  0  0  0  0
   -3.4193    1.2179   -0.1339 C   0  0  0  0  0  0  0  0  0  0  0  0
    5.8873   -0.0007   -0.3715 C   0  0  0  0  0  0  0  0  0  0  0  0
   -0.2977   -0.0229    0.1457 C   0  0  0  0  0  0  0  0  0  0  0  0
   -4.7891   -1.1820    0.2487 C   0  0  0  0  0  0  0  0  0  0  0  0
   -4.7631    1.2338    0.2397 C   0  0  0  0  0  0  0  0  0  0  0  0
   -2.7672   -2.5165   -0.3120 C   0  0  0  0  0  0  0  0  0  0  0  0
   -2.7130    2.5200   -0.3315 C   0  0  0  0  0  0  0  0  0  0  0  0
   -5.4481    0.0339    0.4310 C   0  0  0  0  0  0  0  0  0  0  0  0
    8.2210    0.0423   -0.0978 C   0  0  0  0  0  0  0  0  0  0  0  0
  1 11  1  0
  1 18  1  0
  2 12  2  0
  3  5  1  0
  3  8  1  0
  4  7  1  0
  4 12  1  0
  5  6  1  0
  6 11  1  0
  7  9  2  0
  7 10  1  0
  8 12  1  0
  9 13  1  0
  9 15  1  0
 10 14  2  0
 10 16  1  0
 13 17  2  0
 14 17  1  0
M  END
>  <PUBCHEM_COMPOUND_CID>  (1) 
30959

>  <PUBCHEM_CONFORMER_RMSD>  (1) 
0.8

>  <PUBCHEM_CONFORMER_DIVERSEORDER>  (1) 
1
34
37
36
15
21
17
42
33
35
20
31
14
39
38
26
25
22
12
40
4
41
18
29
11
10
16
28
13
6
19
32
23
7
8
5
27
9
24
30
2
3

>  <PUBCHEM_MMFF94_PARTIAL_CHARGES>  (1) 
22
1 -0.56
10 -0.14
11 0.28
12 0.57
13 -0.15
14 -0.15
15 0.14
16 0.14
17 -0.15
18 0.28
2 -0.57
25 0.36
28 0.37
29 0.15
3 -0.9
30 0.15
37 0.15
4 -0.55
5 0.27
7 0.12
8 0.33
9 -0.14

>  <PUBCHEM_EFFECTIVE_ROTOR_COUNT>  (1) 
8

>  <PUBCHEM_PHARMACOPHORE_FEATURES>  (1) 
6
1 1 acceptor
1 2 acceptor
1 3 cation
1 3 donor
1 4 donor
6 7 9 10 13 14 17 rings

>  <PUBCHEM_HEAVY_ATOM_COUNT>  (1) 
18

>  <PUBCHEM_ATOM_DEF_STEREO_COUNT>  (1) 
0

>  <PUBCHEM_ATOM_UDEF_STEREO_COUNT>  (1) 
0

>  <PUBCHEM_BOND_DEF_STEREO_COUNT>  (1) 
0

>  <PUBCHEM_BOND_UDEF_STEREO_COUNT>  (1) 
0

>  <PUBCHEM_ISOTOPIC_ATOM_COUNT>  (1) 
0

>  <PUBCHEM_COMPONENT_COUNT>  (1) 
1

>  <PUBCHEM_CACTVS_TAUTO_COUNT>  (1) 
2

>  <PUBCHEM_CONFORMER_ID>  (1) 
000078EF00000001

>  <PUBCHEM_MMFF94_ENERGY>  (1) 
58.3224

>  <PUBCHEM_FEATURE_SELFOVERLAP>  (1) 
30.446

>  <PUBCHEM_SHAPE_FINGERPRINT>  (1) 
10411042 1 18122344847116846423
10638233 991 17095536110512874332
11315181 36 18113620105436196005
11524674 6 17060337439808293230
12091667 2 17775564243275166044
12107183 9 17540525825898492440
12236239 1 17748827414506043028
13288520 33 18335420192582692959
13403585 85 18413105065577951944
13533116 47 17385996236311040480
1420 363 17346604080156197310
14251764 18 17676490558322773548
14251764 46 17847062181372761196
14933364 13 18342176679072682088
15716309 27 17749106686808069970
17093844 174 18343861134421669258
17844677 252 18412549833970950880
19489759 90 18409167710122475632
20645477 56 18413106139345850949
20645477 70 16629972010349402830
21267235 1 18334580191848807475
220451 1 18186236226297208050
2297311 6 18413395336652719261
23035841 295 18409166615227769850
23402539 116 18113898268787289309
23536379 177 18408603643809808298
23557571 272 18273220767832938524
23559900 14 18273208720881793896
3545911 37 18272933808662512468
4073 2 18187650258469916562
4214541 1 18411418414387275389
59755656 520 16732985340233114811
6327066 14 17898280603456879981
67856867 119 18189058745201483852

>  <PUBCHEM_SHAPE_MULTIPOLES>  (1) 
348.73
18.1
1.69
0.81
42.75
0.02
0.07
0.27
1.49
-3.37
-0.22
0.07
0
0.01

>  <PUBCHEM_SHAPE_SELFOVERLAP>  (1) 
695.303

>  <PUBCHEM_SHAPE_VOLUME>  (1) 
207.8

>  <PUBCHEM_COORDINATE_TYPE>  (1) 
2
5
10

$$$$
