30967
     RDKit          3D

 13 13  0  0  0  0  0  0  0  0999 V2000
    3.5766   -1.9339   -0.0006 Cl  0  0  0  0  0  0  0  0  0  0  0  0
   -2.6062    1.3107   -0.0011 O   0  0  0  0  0  0  0  0  0  0  0  0
   -1.3738   -0.6925    0.0005 N   0  0  0  0  0  0  0  0  0  0  0  0
   -3.6863   -0.7331    0.0003 N   0  0  0  0  0  0  0  0  0  0  0  0
   -0.0479   -0.2583    0.0004 C   0  0  0  0  0  0  0  0  0  0  0  0
    2.6029    0.6111    0.0002 C   0  0  0  0  0  0  0  0  0  0  0  0
    0.9913   -1.1888    0.0001 C   0  0  0  0  0  0  0  0  0  0  0  0
    0.2382    1.1069    0.0005 C   0  0  0  0  0  0  0  0  0  0  0  0
    2.3166   -0.7541   -0.0001 C   0  0  0  0  0  0  0  0  0  0  0  0
    1.5636    1.5415    0.0005 C   0  0  0  0  0  0  0  0  0  0  0  0
    4.0089    1.1177   -0.0005 C   0  0  0  0  0  0  0  0  0  0  0  0
   -2.5507    0.0832   -0.0001 C   0  0  0  0  0  0  0  0  0  0  0  0
   -5.0332   -0.2103   -0.0002 C   0  0  0  0  0  0  0  0  0  0  0  0
  1  9  1  0
  2 12  2  0
  3  5  1  0
  3 12  1  0
  4 12  1  0
  4 13  1  0
  5  7  2  0
  5  8  1  0
  6  9  2  0
  6 10  1  0
  6 11  1  0
  7  9  1  0
  8 10  2  0
M  END
>  <PUBCHEM_COMPOUND_CID>  (1) 
30967

>  <PUBCHEM_CONFORMER_RMSD>  (1) 
0.6

>  <PUBCHEM_CONFORMER_DIVERSEORDER>  (1) 
1
7
3
6
8
2
4
5

>  <PUBCHEM_MMFF94_PARTIAL_CHARGES>  (1) 
18
1 -0.18
10 -0.15
11 0.14
12 0.69
13 0.3
14 0.15
15 0.15
16 0.15
17 0.37
2 -0.57
21 0.37
3 -0.55
4 -0.73
5 0.12
6 -0.14
7 -0.15
8 -0.15
9 0.18

>  <PUBCHEM_EFFECTIVE_ROTOR_COUNT>  (1) 
3

>  <PUBCHEM_PHARMACOPHORE_FEATURES>  (1) 
4
1 2 acceptor
1 3 donor
1 4 donor
6 5 6 7 8 9 10 rings

>  <PUBCHEM_HEAVY_ATOM_COUNT>  (1) 
13

>  <PUBCHEM_ATOM_DEF_STEREO_COUNT>  (1) 
0

>  <PUBCHEM_ATOM_UDEF_STEREO_COUNT>  (1) 
0

>  <PUBCHEM_BOND_DEF_STEREO_COUNT>  (1) 
0

>  <PUBCHEM_BOND_UDEF_STEREO_COUNT>  (1) 
0

>  <PUBCHEM_ISOTOPIC_ATOM_COUNT>  (1) 
0

>  <PUBCHEM_COMPONENT_COUNT>  (1) 
1

>  <PUBCHEM_CACTVS_TAUTO_COUNT>  (1) 
3

>  <PUBCHEM_CONFORMER_ID>  (1) 
000078F700000001

>  <PUBCHEM_MMFF94_ENERGY>  (1) 
30.7609

>  <PUBCHEM_FEATURE_SELFOVERLAP>  (1) 
20.345

>  <PUBCHEM_SHAPE_FINGERPRINT>  (1) 
10219947 1 18341897389427125622
10608611 8 18408600349053382221
10980938 120 18411983568059690186
11471102 20 18410290319751982127
12032990 46 18339082579736296198
12346645 6 18342458157969657934
12932764 1 17418082239438913953
13380535 76 18335984271965060482
14144814 61 18411982451083350257
14251717 144 18410854360748747134
14325111 11 18410573976566940705
14576447 43 18057029414581182631
15196674 1 18410573951076848197
15219456 202 18334569114363247244
15442244 35 18268150864024775528
15477762 27 18410012160495292221
15536298 74 18342457028335184626
15775835 57 18201440332429373805
16945 1 18338797948222198112
18186145 218 17822571616362838479
18522853 276 18342175570390864673
19422 9 18341898450241687347
200 152 18201995539226601941
20279233 1 17748830734684613619
20645477 70 18411698759898753399
20871998 22 18127977395439335094
21267235 1 18339932532352810502
21501502 16 18339367340447494792
21501925 9 18411129208833428946
22485316 2 18412823607907418751
22959321 4 18410856521090754394
23402539 116 18335974368002292255
23402655 69 18413384333157536213
23557571 272 17313096441065563901
2748010 2 18265322924893209420
3071541 37 18334863848579012956
449060 62 18341334474302863104
5104073 3 18410857629461310537
522135 26 18410012134725624862
53812653 166 18271521017904593328
7364860 26 18343020000032383352
77779 3 18410576176054238025

>  <PUBCHEM_SHAPE_MULTIPOLES>  (1) 
253.57
8.2
1.69
0.6
7.89
0.12
0
1.01
0
-1.62
0
-0.07
0.01
0

>  <PUBCHEM_SHAPE_SELFOVERLAP>  (1) 
510.866

>  <PUBCHEM_SHAPE_VOLUME>  (1) 
149.6

>  <PUBCHEM_COORDINATE_TYPE>  (1) 
2
5
10

$$$$
