30960
     RDKit          3D

 18 18  0  0  0  0  0  0  0  0999 V2000
    6.6243   -0.0095   -0.3060 O   0  0  0  0  0  0  0  0  0  0  0  0
    0.5378    0.0069    1.3381 O   0  0  0  0  0  0  0  0  0  0  0  0
   -0.5572    0.0035   -0.7427 N   0  0  0  0  0  0  0  0  0  0  0  0
    2.9822    0.0147    0.2246 N   0  0  0  0  0  0  0  0  0  0  0  0
   -1.9124    0.0006   -0.3952 C   0  0  0  0  0  0  0  0  0  0  0  0
   -2.5853   -1.2092   -0.2243 C   0  0  0  0  0  0  0  0  0  0  0  0
   -2.5905    1.2067   -0.2190 C   0  0  0  0  0  0  0  0  0  0  0  0
   -4.6143   -0.0067    0.2996 C   0  0  0  0  0  0  0  0  0  0  0  0
   -3.9362   -1.2128    0.1232 C   0  0  0  0  0  0  0  0  0  0  0  0
   -3.9415    1.2031    0.1285 C   0  0  0  0  0  0  0  0  0  0  0  0
    1.8478    0.0077   -0.6879 C   0  0  0  0  0  0  0  0  0  0  0  0
    0.5563    0.0040    0.1114 C   0  0  0  0  0  0  0  0  0  0  0  0
   -1.8856   -2.5176   -0.4026 C   0  0  0  0  0  0  0  0  0  0  0  0
   -1.8974    2.5192   -0.3948 C   0  0  0  0  0  0  0  0  0  0  0  0
    4.2413    0.0291   -0.5082 C   0  0  0  0  0  0  0  0  0  0  0  0
   -6.0591   -0.0101    0.6691 C   0  0  0  0  0  0  0  0  0  0  0  0
    5.4207   -0.0076    0.4505 C   0  0  0  0  0  0  0  0  0  0  0  0
    7.7691   -0.0221    0.5358 C   0  0  0  0  0  0  0  0  0  0  0  0
  1 17  1  0
  1 18  1  0
  2 12  2  0
  3  5  1  0
  3 12  1  0
  4 11  1  0
  4 15  1  0
  5  6  2  0
  5  7  1  0
  6  9  1  0
  6 13  1  0
  7 10  2  0
  7 14  1  0
  8  9  2  0
  8 10  1  0
  8 16  1  0
 11 12  1  0
 15 17  1  0
M  END
>  <PUBCHEM_COMPOUND_CID>  (1) 
30960

>  <PUBCHEM_CONFORMER_RMSD>  (1) 
0.8

>  <PUBCHEM_CONFORMER_DIVERSEORDER>  (1) 
1
29
17
26
24
4
21
14
16
23
28
19
6
20
7
22
15
13
10
3
18
12
9
27
5
11
25
8
2

>  <PUBCHEM_MMFF94_PARTIAL_CHARGES>  (1) 
22
1 -0.56
10 -0.15
11 0.33
12 0.57
13 0.14
14 0.14
15 0.27
16 0.14
17 0.28
18 0.28
19 0.15
2 -0.57
20 0.15
21 0.37
3 -0.55
32 0.36
4 -0.9
5 0.12
6 -0.14
7 -0.14
8 -0.14
9 -0.15

>  <PUBCHEM_EFFECTIVE_ROTOR_COUNT>  (1) 
7

>  <PUBCHEM_PHARMACOPHORE_FEATURES>  (1) 
6
1 1 acceptor
1 2 acceptor
1 3 donor
1 4 cation
1 4 donor
6 5 6 7 8 9 10 rings

>  <PUBCHEM_HEAVY_ATOM_COUNT>  (1) 
18

>  <PUBCHEM_ATOM_DEF_STEREO_COUNT>  (1) 
0

>  <PUBCHEM_ATOM_UDEF_STEREO_COUNT>  (1) 
0

>  <PUBCHEM_BOND_DEF_STEREO_COUNT>  (1) 
0

>  <PUBCHEM_BOND_UDEF_STEREO_COUNT>  (1) 
0

>  <PUBCHEM_ISOTOPIC_ATOM_COUNT>  (1) 
0

>  <PUBCHEM_COMPONENT_COUNT>  (1) 
1

>  <PUBCHEM_CACTVS_TAUTO_COUNT>  (1) 
2

>  <PUBCHEM_CONFORMER_ID>  (1) 
000078F000000001

>  <PUBCHEM_MMFF94_ENERGY>  (1) 
61.2259

>  <PUBCHEM_FEATURE_SELFOVERLAP>  (1) 
30.446

>  <PUBCHEM_SHAPE_FINGERPRINT>  (1) 
10411042 1 18122625222502827551
10638233 991 17095536110634167652
10968037 39 18260267460322198095
11315181 36 18113620105499557980
11524674 6 17132113554764434278
12236239 1 17676211281730976037
13073987 5 18263079929830831874
13288520 33 18334858333202727277
13403585 85 18413103970672508384
13533116 47 17604140447100107386
13668630 136 15285358410324644346
14251764 46 17275103929390782696
14933364 13 18342739637784869056
15042514 8 18337677546158967631
15716309 27 17894629254136293002
17834076 25 15339119039807005792
17844677 252 18412267251151147192
1813 80 16805893887984228198
19489759 90 18410009932050869864
200 152 15213297534726070893
20645477 56 18341891878952338980
20645477 70 16558196999706226550
21267235 1 18261399974689543243
2297311 6 18412834572605640620
23035841 295 17822012020900175378
23175994 123 16988569008822567481
23402539 116 18408600383307268559
23536379 177 18408603643989130394
23557571 272 18273220768260225924
23559900 14 18272644684438848688
3545911 37 18343865502920178878
4214541 1 18411418414851473076
5104073 3 18266466399173205458
59755656 520 14692565511754071493
6327066 14 17825940426098072973

>  <PUBCHEM_SHAPE_MULTIPOLES>  (1) 
348.73
16.11
1.69
0.84
33.08
0
-0.07
0.1
-3.31
-2.42
0.31
0.1
0
-0.01

>  <PUBCHEM_SHAPE_SELFOVERLAP>  (1) 
698.819

>  <PUBCHEM_SHAPE_VOLUME>  (1) 
207.9

>  <PUBCHEM_COORDINATE_TYPE>  (1) 
2
5
10

$$$$
