3097
     RDKit          3D

 18 19  0  0  0  0  0  0  0  0999 V2000
   -4.3016   -0.0925   -0.2837 O   0  0  0  0  0  0  0  0  0  0  0  0
   -2.1533   -1.8131   -0.5442 O   0  0  0  0  0  0  0  0  0  0  0  0
    0.3540   -2.0875   -0.5380 O   0  0  0  0  0  0  0  0  0  0  0  0
    1.8943   -0.7293    2.1388 O   0  0  0  0  0  0  0  0  0  0  0  0
   -0.6550    0.0219   -0.2081 C   0  0  0  0  0  0  0  0  0  0  0  0
    1.8678   -0.3554   -0.2308 C   0  0  0  0  0  0  0  0  0  0  0  0
    0.5114   -0.8739   -0.3412 C   0  0  0  0  0  0  0  0  0  0  0  0
   -1.9390   -0.4858   -0.3141 C   0  0  0  0  0  0  0  0  0  0  0  0
   -0.4273    1.3684    0.0246 C   0  0  0  0  0  0  0  0  0  0  0  0
   -3.0269    0.3776   -0.1841 C   0  0  0  0  0  0  0  0  0  0  0  0
    2.5149   -0.2999    1.0038 C   0  0  0  0  0  0  0  0  0  0  0  0
    2.5198    0.0905   -1.3805 C   0  0  0  0  0  0  0  0  0  0  0  0
   -1.5151    2.2315    0.1546 C   0  0  0  0  0  0  0  0  0  0  0  0
   -2.8150    1.7362    0.0502 C   0  0  0  0  0  0  0  0  0  0  0  0
    3.8139    0.2012    1.0884 C   0  0  0  0  0  0  0  0  0  0  0  0
    3.8188    0.5918   -1.2957 C   0  0  0  0  0  0  0  0  0  0  0  0
    4.4657    0.6472   -0.0613 C   0  0  0  0  0  0  0  0  0  0  0  0
   -4.9275   -0.5290    0.9213 C   0  0  0  0  0  0  0  0  0  0  0  0
  1 10  1  0
  1 18  1  0
  2  8  1  0
  3  7  2  0
  4 11  1  0
  5  7  1  0
  5  8  2  0
  5  9  1  0
  6  7  1  0
  6 11  2  0
  6 12  1  0
  8 10  1  0
  9 13  2  0
 10 14  2  0
 11 15  1  0
 12 16  2  0
 13 14  1  0
 15 17  2  0
 16 17  1  0
M  END
>  <PUBCHEM_COMPOUND_CID>  (1) 
3097

>  <PUBCHEM_CONFORMER_RMSD>  (1) 
0.6

>  <PUBCHEM_CONFORMER_DIVERSEORDER>  (1) 
2
10
28
29
9
11
12
14
17
19
26
25
8
22
21
27
24
18
4
1
15
20
5
6
7
23
3
16
13

>  <PUBCHEM_MMFF94_PARTIAL_CHARGES>  (1) 
27
1 -0.36
10 0.08
11 0.08
12 -0.15
13 -0.15
14 -0.15
15 -0.15
16 -0.15
17 -0.15
18 0.28
19 0.15
2 -0.53
20 0.15
21 0.15
22 0.15
23 0.15
24 0.15
25 0.15
26 0.45
27 0.45
3 -0.57
4 -0.53
5 0.09
6 0.09
7 0.4
8 0.08
9 -0.15

>  <PUBCHEM_EFFECTIVE_ROTOR_COUNT>  (1) 
3

>  <PUBCHEM_PHARMACOPHORE_FEATURES>  (1) 
6
1 1 acceptor
1 2 donor
1 3 acceptor
1 4 donor
6 5 8 9 10 13 14 rings
6 6 11 12 15 16 17 rings

>  <PUBCHEM_HEAVY_ATOM_COUNT>  (1) 
18

>  <PUBCHEM_ATOM_DEF_STEREO_COUNT>  (1) 
0

>  <PUBCHEM_ATOM_UDEF_STEREO_COUNT>  (1) 
0

>  <PUBCHEM_BOND_DEF_STEREO_COUNT>  (1) 
0

>  <PUBCHEM_BOND_UDEF_STEREO_COUNT>  (1) 
0

>  <PUBCHEM_ISOTOPIC_ATOM_COUNT>  (1) 
0

>  <PUBCHEM_COMPONENT_COUNT>  (1) 
1

>  <PUBCHEM_CACTVS_TAUTO_COUNT>  (1) 
24

>  <PUBCHEM_CONFORMER_ID>  (1) 
00000C1900000002

>  <PUBCHEM_MMFF94_ENERGY>  (1) 
70.5267

>  <PUBCHEM_FEATURE_SELFOVERLAP>  (1) 
30.446

>  <PUBCHEM_SHAPE_FINGERPRINT>  (1) 
10498660 4 18270399386631266412
11132069 177 18273212019158168653
12236239 1 17967532372383963116
12403814 3 17749103396757698221
13140716 1 18197217164544714291
13538477 17 18187642552670586286
13583140 156 17312814992280493813
13764800 53 18342742879493368393
13965767 371 17828767231679927988
14289901 80 16732700528119698349
14341114 328 18040160612703571001
14787075 74 17823143487327402363
15207287 21 12757147978475090736
15375462 189 18041272253218744467
15775835 57 18259704484810216476
16945 1 18343013381218826453
18186145 218 16917344818612229794
200 152 16298385773079288705
20028762 73 17843127163325331575
20510252 161 18202004279000227033
20645477 70 15357687579318339786
20715895 44 17463954775547825541
21069387 34 16008753463735920049
21486144 27 16271633563979446899
23048698 100 17385723586642965172
23402539 116 18271799164265578678
23557571 272 18060146427030022068
23559900 14 18123185697483915591
26918003 58 16660360393842238377
2748010 2 18054215798832822989
3286 77 15140950743349600106
350125 39 18126012554758346878
4340502 62 16805330981222734929
4409770 3 15806915813873274630
474 4 17387140956385395964
5104073 3 18268151967852301379
537710 114 18335706056726141733
6442390 28 18060423529403049391
7097593 13 17463956969874355514
7364860 26 17913207559897394918
77492 1 17967809457845958062
81228 2 17413561167837643926

>  <PUBCHEM_SHAPE_MULTIPOLES>  (1) 
346.95
8.46
1.67
1.23
1.73
0.25
-0.34
0.6
-0.81
1.1
0.09
-1.14
-0.19
-0.31

>  <PUBCHEM_SHAPE_SELFOVERLAP>  (1) 
756.733

>  <PUBCHEM_SHAPE_VOLUME>  (1) 
188.3

>  <PUBCHEM_COORDINATE_TYPE>  (1) 
2
5
10

$$$$
