30970
     RDKit          3D

 24 25  0  0  1  0  0  0  0  0999 V2000
    0.9572   -2.3473   -2.7107 I   0  0  0  0  0  0  0  0  0  0  0  0
    0.6089   -1.0790    3.2493 I   0  0  0  0  0  0  0  0  0  0  0  0
    2.2430    3.3601   -0.7249 I   0  0  0  0  0  0  0  0  0  0  0  0
   -2.4168    2.1390    0.2955 O   0  0  0  0  0  0  0  0  0  0  0  0
    1.8352   -1.9040    0.3715 O   0  0  0  0  0  0  0  0  0  0  0  0
   -4.2293    1.7974    1.6014 O   0  0  0  0  0  0  0  0  0  0  0  0
    5.3130    2.3178   -0.3238 O   0  0  0  0  0  0  0  0  0  0  0  0
   -5.5432    0.6621   -0.5687 N   0  0  0  0  0  0  0  0  0  0  0  0
   -4.0776    0.5631   -0.4990 C   0  0  0  0  0  0  0  0  0  0  0  0
   -3.6958   -0.8994   -0.1658 C   0  0  0  0  0  0  0  0  0  0  0  0
   -2.2145   -1.1693   -0.0217 C   0  0  0  0  0  0  0  0  0  0  0  0
   -3.5481    0.9952   -1.8754 C   0  0  0  0  0  0  0  0  0  0  0  0
   -3.6047    1.5442    0.5775 C   0  0  0  0  0  0  0  0  0  0  0  0
   -1.6208   -1.0382    1.2222 C   0  0  0  0  0  0  0  0  0  0  0  0
   -1.4830   -1.5409   -1.1370 C   0  0  0  0  0  0  0  0  0  0  0  0
   -0.1168   -1.7886   -1.0043 C   0  0  0  0  0  0  0  0  0  0  0  0
   -0.2546   -1.2858    1.3547 C   0  0  0  0  0  0  0  0  0  0  0  0
    0.4975   -1.6610    0.2414 C   0  0  0  0  0  0  0  0  0  0  0  0
    2.6983   -0.8385    0.1951 C   0  0  0  0  0  0  0  0  0  0  0  0
    2.1798    0.4104   -0.1010 C   0  0  0  0  0  0  0  0  0  0  0  0
    4.0614   -1.0457    0.3190 C   0  0  0  0  0  0  0  0  0  0  0  0
    3.0510    1.4850   -0.2787 C   0  0  0  0  0  0  0  0  0  0  0  0
    4.9326    0.0290    0.1411 C   0  0  0  0  0  0  0  0  0  0  0  0
    4.4274    1.2944   -0.1577 C   0  0  0  0  0  0  0  0  0  0  0  0
  1 16  1  0
  2 17  1  0
  3 22  1  0
  4 13  1  0
  5 18  1  0
  5 19  1  0
  6 13  2  0
  7 24  1  0
  8  9  1  0
  9 10  1  0
  9 12  1  0
  9 13  1  0
 10 11  1  0
 11 14  2  0
 11 15  1  0
 14 17  1  0
 15 16  2  0
 16 18  1  0
 17 18  2  0
 19 20  2  0
 19 21  1  0
 20 22  1  0
 21 23  2  0
 22 24  2  0
 23 24  1  0
M  END
>  <PUBCHEM_COMPOUND_CID>  (1) 
30970

>  <PUBCHEM_CONFORMER_RMSD>  (1) 
0.8

>  <PUBCHEM_CONFORMER_DIVERSEORDER>  (1) 
1
8
20
25
45
19
26
55
53
31
9
30
46
16
28
48
14
23
50
56
27
21
49
52
15
13
18
24
22
51
47
29
43
44
17
57
5
12
54
11
58
34
4
38
7
6
35
32
41
42
10
39
36
2
33
40
37
3

>  <PUBCHEM_MMFF94_PARTIAL_CHARGES>  (1) 
32
1 -0.08
10 0.14
11 -0.14
13 0.66
14 -0.15
15 -0.15
16 0.08
17 0.08
18 0.08
19 0.08
2 -0.08
20 -0.15
21 -0.15
22 0.08
23 -0.15
24 0.08
3 -0.08
30 0.36
31 0.36
32 0.15
33 0.15
34 0.5
35 0.15
36 0.15
37 0.15
38 0.45
4 -0.65
5 -0.17
6 -0.57
7 -0.53
8 -0.99
9 0.33

>  <PUBCHEM_EFFECTIVE_ROTOR_COUNT>  (1) 
5

>  <PUBCHEM_PHARMACOPHORE_FEATURES>  (1) 
12
1 1 hydrophobe
1 2 hydrophobe
1 3 hydrophobe
1 4 acceptor
1 5 acceptor
1 6 acceptor
1 7 donor
1 8 cation
1 8 donor
3 4 6 13 anion
6 11 14 15 16 17 18 rings
6 19 20 21 22 23 24 rings

>  <PUBCHEM_HEAVY_ATOM_COUNT>  (1) 
24

>  <PUBCHEM_ATOM_DEF_STEREO_COUNT>  (1) 
0

>  <PUBCHEM_ATOM_UDEF_STEREO_COUNT>  (1) 
1

>  <PUBCHEM_BOND_DEF_STEREO_COUNT>  (1) 
0

>  <PUBCHEM_BOND_UDEF_STEREO_COUNT>  (1) 
0

>  <PUBCHEM_ISOTOPIC_ATOM_COUNT>  (1) 
0

>  <PUBCHEM_COMPONENT_COUNT>  (1) 
1

>  <PUBCHEM_CACTVS_TAUTO_COUNT>  (1) 
3

>  <PUBCHEM_CONFORMER_ID>  (1) 
000078FA00000001

>  <PUBCHEM_MMFF94_ENERGY>  (1) 
71.1817

>  <PUBCHEM_FEATURE_SELFOVERLAP>  (1) 
60.956

>  <PUBCHEM_SHAPE_FINGERPRINT>  (1) 
12422481 6 17910653390465631010
12539773 59 15103014667018211480
12633257 1 16660917915563587380
13103583 49 12901547901660828197
133893 2 17271762453636179990
13402501 40 18113330903645021917
13583140 156 17821730503432812363
13590594 115 17829890932742272490
14178342 30 16009037185191984795
14251764 38 18338524134977143901
14466204 15 18261099795346978328
14713325 29 18200319951761786999
15163728 17 18200893827979653846
15209294 21 17385720300792907067
15238133 3 17967532415724156260
15295992 7 17822292435288898498
15475509 35 8141784102685909909
19930381 70 16536231350889373698
21033648 29 16733255777296744901
21475661 188 17968088746199343396
21623110 236 18336270123893435677
21860390 5 18410581660685277812
23114952 82 17344075069820297647
23227448 37 18262235624716867375
23402539 116 14764354821050276874
23419403 2 14579121604394308482
2838139 119 18410568470471822876
3380486 145 16599024395533051074
3472631 163 18264764360264960285
392239 28 17750249139476674305
469060 322 16175393646877634866
474 4 18333449850196532163
5081480 168 17198020347269257261
5895379 119 18126840495962725984
6287921 2 17771922532004890333
7288768 16 17317035068137132704

>  <PUBCHEM_SHAPE_MULTIPOLES>  (1) 
501.26
9.68
3.24
2.35
1.25
2.02
-0.86
6.7
0.87
-1.52
1.05
0.41
-1.69
-0.61

>  <PUBCHEM_SHAPE_SELFOVERLAP>  (1) 
1006.166

>  <PUBCHEM_SHAPE_VOLUME>  (1) 
304.7

>  <PUBCHEM_COORDINATE_TYPE>  (1) 
2
5
10

$$$$
