30989
     RDKit          3D

 21 23  0  0  1  0  0  0  0  0999 V2000
    4.5317    0.1051    0.0464 O   0  0  0  0  0  0  0  0  0  0  0  0
   -0.2131    0.2134   -0.1746 N   0  0  0  0  0  0  0  0  0  0  0  0
    3.9957    1.4491   -0.0886 N   0  0  0  0  0  0  0  0  0  0  0  0
   -0.0556   -1.1993   -0.2226 C   0  0  0  0  0  0  0  0  0  0  0  0
   -1.4154    0.9643   -0.2391 C   0  0  0  0  0  0  0  0  0  0  0  0
   -2.3682   -1.7811    0.8399 C   0  0  0  0  0  0  0  0  0  0  0  0
   -2.4361   -0.4539    1.5776 C   0  0  0  0  0  0  0  0  0  0  0  0
    1.0055    1.0377   -0.2160 C   0  0  0  0  0  0  0  0  0  0  0  0
   -1.0389   -2.1258    0.2024 C   0  0  0  0  0  0  0  0  0  0  0  0
   -2.5115    0.6748    0.5904 C   0  0  0  0  0  0  0  0  0  0  0  0
    1.8796    0.7723    1.0092 C   0  0  0  0  0  0  0  0  0  0  0  0
    3.1486    1.6270    1.0844 C   0  0  0  0  0  0  0  0  0  0  0  0
    1.1346   -1.7482   -0.7712 C   0  0  0  0  0  0  0  0  0  0  0  0
   -1.5428    2.0425   -1.1418 C   0  0  0  0  0  0  0  0  0  0  0  0
   -0.8128   -3.5151    0.0363 C   0  0  0  0  0  0  0  0  0  0  0  0
   -3.6853    1.4456    0.5116 C   0  0  0  0  0  0  0  0  0  0  0  0
    1.3467   -3.1225   -0.9070 C   0  0  0  0  0  0  0  0  0  0  0  0
   -2.7118    2.8021   -1.2162 C   0  0  0  0  0  0  0  0  0  0  0  0
    0.3668   -4.0099   -0.5063 C   0  0  0  0  0  0  0  0  0  0  0  0
   -3.7843    2.5036   -0.3873 C   0  0  0  0  0  0  0  0  0  0  0  0
    5.1664    2.3181   -0.0274 C   0  0  0  0  0  0  0  0  0  0  0  0
  1  3  1  0
  2  4  1  0
  2  5  1  0
  2  8  1  0
  3 12  1  0
  3 21  1  0
  4  9  2  0
  4 13  1  0
  5 10  2  0
  5 14  1  0
  6  7  1  0
  6  9  1  0
  7 10  1  0
  8 11  1  0
  9 15  1  0
 10 16  1  0
 11 12  1  0
 13 17  2  0
 14 18  2  0
 15 19  2  0
 16 20  2  0
 17 19  1  0
 18 20  1  0
M  END
>  <PUBCHEM_COMPOUND_CID>  (1) 
30989

>  <PUBCHEM_CONFORMER_RMSD>  (1) 
0.8

>  <PUBCHEM_CONFORMER_DIVERSEORDER>  (1) 
1
15
3
2
17
7
14
19
11
12
5
18
9
10
16
4
13
8
6

>  <PUBCHEM_MMFF94_PARTIAL_CHARGES>  (1) 
29
1 -0.3
10 -0.14
12 0.27
13 -0.15
14 -0.15
15 -0.15
16 -0.15
17 -0.15
18 -0.15
19 -0.15
2 -0.57
20 -0.15
21 0.27
3 -0.64
32 0.15
33 0.15
34 0.15
35 0.15
36 0.15
37 0.15
38 0.15
39 0.15
4 0.1
43 0.4
5 0.1
6 0.14
7 0.14
8 0.37
9 -0.14

>  <PUBCHEM_EFFECTIVE_ROTOR_COUNT>  (1) 
4.6

>  <PUBCHEM_PHARMACOPHORE_FEATURES>  (1) 
5
1 1 anion
1 2 cation
6 4 9 13 15 17 19 rings
6 5 10 14 16 18 20 rings
7 2 4 5 6 7 9 10 rings

>  <PUBCHEM_HEAVY_ATOM_COUNT>  (1) 
21

>  <PUBCHEM_ATOM_DEF_STEREO_COUNT>  (1) 
0

>  <PUBCHEM_ATOM_UDEF_STEREO_COUNT>  (1) 
0

>  <PUBCHEM_BOND_DEF_STEREO_COUNT>  (1) 
0

>  <PUBCHEM_BOND_UDEF_STEREO_COUNT>  (1) 
0

>  <PUBCHEM_ISOTOPIC_ATOM_COUNT>  (1) 
0

>  <PUBCHEM_COMPONENT_COUNT>  (1) 
1

>  <PUBCHEM_CACTVS_TAUTO_COUNT>  (1) 
1

>  <PUBCHEM_CONFORMER_ID>  (1) 
0000790D00000001

>  <PUBCHEM_MMFF94_ENERGY>  (1) 
78.0952

>  <PUBCHEM_FEATURE_SELFOVERLAP>  (1) 
25.387

>  <PUBCHEM_SHAPE_FINGERPRINT>  (1) 
10165383 225 18200047238301829561
10411042 1 17402050492650340822
108231 29 17545327371749918187
10871710 139 17974572699717974180
10906281 52 18114196258773472673
11014199 57 17329432160851303506
12553582 1 17328867011637308350
12788726 201 17974271420752875514
13004483 165 17690544703946586994
13134695 92 17402605252053097607
13140716 1 18265346018753168059
13681431 1 17481140103223002286
14251751 93 18335979874224212408
15042514 8 17977953710547713643
15230672 131 18408610237291833982
18785283 64 18192717730524171409
18915476 22 18268996371539847713
19591789 44 18411984658950072654
20600515 1 17622456360033634695
21033648 29 18270951432032333264
21120745 212 17472995363603589636
22112679 90 17615419489683767932
22182313 1 18042699308328315017
22907989 373 18119797264850917212
23419403 2 17759843301519992843
23526113 38 17471010281327141783
23559900 14 17904480710026326111
2748010 2 18263948591161545483
3027735 51 18128520730034516215
3091708 16 9482044808963574650
3298306 158 18340489946320046062
3729539 64 18053407417695832550
458136 41 18341335474677081657
474 4 18197770003739231209
532947 4 18125440817755681062
633830 44 17702962343800723704
6992083 37 17762631980471907523
7364860 26 17980195292860346821
81228 2 17765412632699126034
90316 7 17905321084886733050
9862522 239 18410284843895507170
9925002 15 17615981335778067844
9981440 41 18339070506499104601

>  <PUBCHEM_SHAPE_MULTIPOLES>  (1) 
416.34
7.04
4.74
1.14
7.08
4.2
-0.12
-8.39
-0.74
0.26
1.28
-0.42
-0.16
1.61

>  <PUBCHEM_SHAPE_SELFOVERLAP>  (1) 
884.201

>  <PUBCHEM_SHAPE_VOLUME>  (1) 
232

>  <PUBCHEM_COORDINATE_TYPE>  (1) 
2
5
10

$$$$
