30988
     RDKit          3D

 16 15  0  0  0  0  0  0  0  0999 V2000
    2.0734   -0.0358    0.2333 O   0  0  0  0  0  0  0  0  0  0  0  0
   -1.0202    1.4424   -0.2384 O   0  0  0  0  0  0  0  0  0  0  0  0
    3.5277   -0.0169   -1.5511 O   0  0  0  0  0  0  0  0  0  0  0  0
   -1.6821    2.9724    1.3492 O   0  0  0  0  0  0  0  0  0  0  0  0
    4.1606    0.7747    0.5128 N   0  0  0  0  0  0  0  0  0  0  0  0
   -1.6906    3.4957   -0.8897 N   0  0  0  0  0  0  0  0  0  0  0  0
   -0.2459   -0.8595    0.2021 C   0  0  0  0  0  0  0  0  0  0  0  0
   -1.3242   -1.4654   -0.7497 C   0  0  0  0  0  0  0  0  0  0  0  0
   -0.0018   -1.8377    1.3975 C   0  0  0  0  0  0  0  0  0  0  0  0
    1.0669   -0.6156   -0.5868 C   0  0  0  0  0  0  0  0  0  0  0  0
   -0.7643    0.4862    0.7831 C   0  0  0  0  0  0  0  0  0  0  0  0
   -2.7015   -1.7308   -0.1283 C   0  0  0  0  0  0  0  0  0  0  0  0
    0.4915   -3.2329    1.0287 C   0  0  0  0  0  0  0  0  0  0  0  0
   -3.6815   -2.2561   -1.1684 C   0  0  0  0  0  0  0  0  0  0  0  0
    3.2731    0.2182   -0.3746 C   0  0  0  0  0  0  0  0  0  0  0  0
   -1.4811    2.6611    0.1801 C   0  0  0  0  0  0  0  0  0  0  0  0
  1 10  1  0
  1 15  1  0
  2 11  1  0
  2 16  1  0
  3 15  2  0
  4 16  2  0
  5 15  1  0
  6 16  1  0
  7  8  1  0
  7  9  1  0
  7 10  1  0
  7 11  1  0
  8 12  1  0
  9 13  1  0
 12 14  1  0
M  END
>  <PUBCHEM_COMPOUND_CID>  (1) 
30988

>  <PUBCHEM_CONFORMER_RMSD>  (1) 
0.8

>  <PUBCHEM_CONFORMER_DIVERSEORDER>  (1) 
1
138
196
197
59
17
65
153
175
177
14
44
52
61
143
35
186
158
114
199
190
120
98
2
182
47
176
103
204
171
181
147
131
25
60
53
146
205
83
43
141
63
130
132
34
123
203
126
49
188
28
29
20
121
163
74
155
5
195
151
62
4
90
115
113
185
161
71
172
170
125
180
106
109
184
122
8
51
56
183
198
54
101
116
139
119
80
24
200
94
149
162
96
178
57
160
179
38
152
164
22
137
70
111
118
13
167
173
77
12
201
64
66
31
79
150
159
157
189
11
7
127
97
78
174
100
15
112
134
41
32
21
142
88
81
42
37
102
36
128
169
6
110
40
107
154
165
108
133
124
75
193
23
191
82
72
46
136
135
67
55
140
91
99
50
87
187
166
105
19
117
206
39
148
9
69
194
156
92
202
86
16
89
27
85
95
48
93
26
144
76
84
104
10
145
45
192
30
129
168
3
68
58
33
18
73

>  <PUBCHEM_MMFF94_PARTIAL_CHARGES>  (1) 
14
1 -0.43
10 0.28
11 0.28
15 0.78
16 0.78
2 -0.43
3 -0.57
33 0.37
34 0.37
35 0.37
36 0.37
4 -0.57
5 -0.8
6 -0.8

>  <PUBCHEM_EFFECTIVE_ROTOR_COUNT>  (1) 
9

>  <PUBCHEM_PHARMACOPHORE_FEATURES>  (1) 
7
1 13 hydrophobe
1 14 hydrophobe
1 3 acceptor
1 4 acceptor
1 5 donor
1 6 donor
4 7 8 9 12 hydrophobe

>  <PUBCHEM_HEAVY_ATOM_COUNT>  (1) 
16

>  <PUBCHEM_ATOM_DEF_STEREO_COUNT>  (1) 
0

>  <PUBCHEM_ATOM_UDEF_STEREO_COUNT>  (1) 
0

>  <PUBCHEM_BOND_DEF_STEREO_COUNT>  (1) 
0

>  <PUBCHEM_BOND_UDEF_STEREO_COUNT>  (1) 
0

>  <PUBCHEM_ISOTOPIC_ATOM_COUNT>  (1) 
0

>  <PUBCHEM_COMPONENT_COUNT>  (1) 
1

>  <PUBCHEM_CACTVS_TAUTO_COUNT>  (1) 
3

>  <PUBCHEM_CONFORMER_ID>  (1) 
0000790C00000001

>  <PUBCHEM_MMFF94_ENERGY>  (1) 
29.3697

>  <PUBCHEM_FEATURE_SELFOVERLAP>  (1) 
35.542

>  <PUBCHEM_SHAPE_FINGERPRINT>  (1) 
108231 29 18118968241726580491
13149001 5 17686048796780080551
13294875 104 17979066086313983178
13380536 55 18191021205573264491
14943834 7 18119232970546747739
15490181 7 18121794832449106890
187816 3 18262795310390005894
20510252 161 18410570725609000744
20511035 2 17466533112728037819
20600515 1 17828741169717564696
20671657 1 17905329524766339082
21041028 32 18124613117823578963
21524375 3 18048894995466949096
228727 97 18333725849053380803
23402539 116 18340480183553563406
23419403 2 17344606344337202521
23557571 272 18271810189483855788
23558518 356 18335425608436661598
23559900 14 18119243111707669410
2748010 2 17690288526738732250
3060560 45 17186999787784460205
353137 74 18336819814934174015
589210 1 18121209892416552603
68419 9 18192132816145070995
7164475 11 18339069407003235646
81228 2 18339375157166478944

>  <PUBCHEM_SHAPE_MULTIPOLES>  (1) 
295.83
5.29
4.02
1.28
3.93
3.64
0.03
-1.72
-2.23
-3.19
0.9
-0.02
-0.21
-0.6

>  <PUBCHEM_SHAPE_SELFOVERLAP>  (1) 
563.916

>  <PUBCHEM_SHAPE_VOLUME>  (1) 
178.8

>  <PUBCHEM_COORDINATE_TYPE>  (1) 
2
5
10

$$$$
