30992
     RDKit          3D

 23 25  0  0  0  0  0  0  0  0999 V2000
   -0.7593   -4.8654   -0.2987 Cl  0  0  0  0  0  0  0  0  0  0  0  0
   -4.1244    0.4403    0.0586 S   0  0  0  0  0  0  0  0  0  0  0  0
    2.6169    0.0172    0.7703 O   0  0  0  0  0  0  0  0  0  0  0  0
   -1.0618    0.2334    0.5495 N   0  0  0  0  0  0  0  0  0  0  0  0
    6.0824   -0.2181   -0.4090 N   0  0  0  0  0  0  0  0  0  0  0  0
    0.2557    0.1446    1.1922 C   0  0  0  0  0  0  0  0  0  0  0  0
   -1.7172   -0.9833    0.2329 C   0  0  0  0  0  0  0  0  0  0  0  0
   -1.5477    1.5273    0.2329 C   0  0  0  0  0  0  0  0  0  0  0  0
    1.3451    0.0671    0.1361 C   0  0  0  0  0  0  0  0  0  0  0  0
   -3.1003   -1.0148   -0.0340 C   0  0  0  0  0  0  0  0  0  0  0  0
   -2.9139    1.7445   -0.0342 C   0  0  0  0  0  0  0  0  0  0  0  0
   -1.0176   -2.2060    0.1343 C   0  0  0  0  0  0  0  0  0  0  0  0
   -0.6901    2.6449    0.1346 C   0  0  0  0  0  0  0  0  0  0  0  0
    3.6705   -0.0561   -0.1802 C   0  0  0  0  0  0  0  0  0  0  0  0
    5.0041   -0.1070    0.5457 C   0  0  0  0  0  0  0  0  0  0  0  0
   -3.7441   -2.2231   -0.3553 C   0  0  0  0  0  0  0  0  0  0  0  0
   -3.3893    3.0282   -0.3560 C   0  0  0  0  0  0  0  0  0  0  0  0
   -1.6615   -3.4031   -0.1904 C   0  0  0  0  0  0  0  0  0  0  0  0
   -1.1670    3.9177   -0.1907 C   0  0  0  0  0  0  0  0  0  0  0  0
   -3.0268   -3.4122   -0.4323 C   0  0  0  0  0  0  0  0  0  0  0  0
   -2.5186    4.1101   -0.4333 C   0  0  0  0  0  0  0  0  0  0  0  0
    7.3827   -0.3028    0.2689 C   0  0  0  0  0  0  0  0  0  0  0  0
    6.0823    0.9165   -1.3419 C   0  0  0  0  0  0  0  0  0  0  0  0
  1 18  1  0
  2 10  1  0
  2 11  1  0
  3  9  1  0
  3 14  1  0
  4  6  1  0
  4  7  1  0
  4  8  1  0
  5 15  1  0
  5 22  1  0
  5 23  1  0
  6  9  1  0
  7 10  2  0
  7 12  1  0
  8 11  2  0
  8 13  1  0
 10 16  1  0
 11 17  1  0
 12 18  2  0
 13 19  2  0
 14 15  1  0
 16 20  2  0
 17 21  2  0
 18 20  1  0
 19 21  1  0
M  END
>  <PUBCHEM_COMPOUND_CID>  (1) 
30992

>  <PUBCHEM_CONFORMER_RMSD>  (1) 
0.8

>  <PUBCHEM_CONFORMER_DIVERSEORDER>  (1) 
1
42
40
23
7
19
54
4
29
11
16
48
51
5
39
28
32
43
35
25
22
50
34
13
9
33
18
12
24
38
52
37
46
14
45
30
3
20
36
47
21
31
6
15
27
17
41
44
2
49
53
8
10
26

>  <PUBCHEM_MMFF94_PARTIAL_CHARGES>  (1) 
30
1 -0.18
10 0.1
11 0.1
12 -0.15
13 -0.15
14 0.28
15 0.27
16 -0.15
17 -0.15
18 0.18
19 -0.15
2 -0.2
20 -0.15
21 -0.15
22 0.27
23 0.27
28 0.15
29 0.15
3 -0.56
34 0.15
35 0.15
36 0.15
37 0.15
38 0.15
4 -0.57
5 -0.81
6 0.37
7 0.1
8 0.1
9 0.28

>  <PUBCHEM_EFFECTIVE_ROTOR_COUNT>  (1) 
6.4

>  <PUBCHEM_PHARMACOPHORE_FEATURES>  (1) 
6
1 3 acceptor
1 4 cation
1 5 cation
6 2 4 7 8 10 11 rings
6 7 10 12 16 18 20 rings
6 8 11 13 17 19 21 rings

>  <PUBCHEM_HEAVY_ATOM_COUNT>  (1) 
23

>  <PUBCHEM_ATOM_DEF_STEREO_COUNT>  (1) 
0

>  <PUBCHEM_ATOM_UDEF_STEREO_COUNT>  (1) 
0

>  <PUBCHEM_BOND_DEF_STEREO_COUNT>  (1) 
0

>  <PUBCHEM_BOND_UDEF_STEREO_COUNT>  (1) 
0

>  <PUBCHEM_ISOTOPIC_ATOM_COUNT>  (1) 
0

>  <PUBCHEM_COMPONENT_COUNT>  (1) 
1

>  <PUBCHEM_CACTVS_TAUTO_COUNT>  (1) 
1

>  <PUBCHEM_CONFORMER_ID>  (1) 
0000791000000001

>  <PUBCHEM_MMFF94_ENERGY>  (1) 
78.6143

>  <PUBCHEM_FEATURE_SELFOVERLAP>  (1) 
30.477

>  <PUBCHEM_SHAPE_FINGERPRINT>  (1) 
10165383 225 18200599077829178849
10319688 140 16681472426051584638
10411042 1 18194118753689592611
10595046 47 18334015021655535996
11049842 53 17835505043319078058
11056379 131 18411989052912333948
12107183 9 17901658268917356874
12553582 1 18265038314363902851
12788726 201 18261666051940012234
13140716 1 18339927147175666417
13761468 95 17679012708694452740
138480 1 16537918439950157323
13911987 19 18191008033642291597
14251757 5 18410012165154490314
14508225 48 18197203957525664463
14790565 3 18411424973710542217
14844126 61 18408324418921571194
14910302 57 18271539593806856638
15042514 8 18337956796067955331
15230672 131 18121220884208911174
15250474 111 18261662702519889258
15439362 3 17617375078699355764
15463212 79 18260825956399730722
15876981 60 18261679284559762388
16087824 20 18409727336842387213
167882 2 17833828270658812939
16992828 155 17531806823503679492
17539 30 18341322383674435047
18785283 64 17257656612862728273
19958102 18 18339078186327722238
20101258 96 18191596456529170011
20511986 3 17676759904048570292
20775438 99 16759677308633847055
21033650 10 18191050962045304980
21426921 1 18410292510496669360
23557571 272 18272938219636506804
23559900 14 18198896084335478368
25147074 1 17823122459642210234
255183 313 18270982167033652425
255183 451 17693659624984393415
283562 15 18269836433073617281
335352 9 18411133676269297439
4280585 95 18195518418905824282
4409770 3 18408878530185354655
531348 171 18337113354928076754
6327066 14 17972311824581338597
6700243 42 17840345334064590294
9981440 41 18191874430943828625

>  <PUBCHEM_SHAPE_MULTIPOLES>  (1) 
463.22
12
5.76
0.85
35.1
1.62
0.02
-0.65
1.9
-8.57
1.23
0.55
-0.07
-0.38

>  <PUBCHEM_SHAPE_SELFOVERLAP>  (1) 
955.16

>  <PUBCHEM_SHAPE_VOLUME>  (1) 
267.8

>  <PUBCHEM_COORDINATE_TYPE>  (1) 
2
5
10

$$$$
