30999
     RDKit          3D

 13 14  0  0  1  0  0  0  0  0999 V2000
    2.4007    1.4801   -0.3087 N   0  0  0  0  0  0  0  0  0  0  0  0
   -4.5376    0.0936   -0.0381 N   0  0  0  0  0  0  0  0  0  0  0  0
   -2.2336   -0.3534   -0.7916 C   0  0  0  0  0  0  0  0  0  0  0  0
   -3.1351    0.0706    0.3883 C   0  0  0  0  0  0  0  0  0  0  0  0
   -0.7833   -0.4441   -0.4470 C   0  0  0  0  0  0  0  0  0  0  0  0
    1.3821    0.5551   -0.2628 C   0  0  0  0  0  0  0  0  0  0  0  0
    0.0292    0.6833   -0.5969 C   0  0  0  0  0  0  0  0  0  0  0  0
    1.9327   -0.6398    0.2056 C   0  0  0  0  0  0  0  0  0  0  0  0
   -0.2612   -1.6496    0.0179 C   0  0  0  0  0  0  0  0  0  0  0  0
    1.0940   -1.7631    0.3482 C   0  0  0  0  0  0  0  0  0  0  0  0
   -2.7762    1.4535    0.9322 C   0  0  0  0  0  0  0  0  0  0  0  0
    3.3155   -0.3990    0.4392 C   0  0  0  0  0  0  0  0  0  0  0  0
    3.5729    0.9128    0.1137 C   0  0  0  0  0  0  0  0  0  0  0  0
  1  6  1  0
  1 13  1  0
  2  4  1  0
  3  4  1  0
  3  5  1  0
  4 11  1  0
  5  7  1  0
  5  9  2  0
  6  7  2  0
  6  8  1  0
  8 10  2  0
  8 12  1  0
  9 10  1  0
 12 13  2  0
M  END
>  <PUBCHEM_COMPOUND_CID>  (1) 
30999

>  <PUBCHEM_CONFORMER_RMSD>  (1) 
0.6

>  <PUBCHEM_CONFORMER_DIVERSEORDER>  (1) 
1
6
8
9
4
3
11
10
5
7
2

>  <PUBCHEM_MMFF94_PARTIAL_CHARGES>  (1) 
19
1 0.03
10 -0.15
12 -0.15
13 -0.3
17 0.15
18 0.15
19 0.15
2 -0.99
23 0.27
24 0.15
25 0.36
26 0.36
27 0.15
3 0.14
4 0.27
5 -0.14
6 -0.15
7 -0.15
9 -0.15

>  <PUBCHEM_EFFECTIVE_ROTOR_COUNT>  (1) 
2

>  <PUBCHEM_PHARMACOPHORE_FEATURES>  (1) 
6
1 1 cation
1 1 donor
1 2 cation
1 2 donor
5 1 6 8 12 13 rings
6 5 6 7 8 9 10 rings

>  <PUBCHEM_HEAVY_ATOM_COUNT>  (1) 
13

>  <PUBCHEM_ATOM_DEF_STEREO_COUNT>  (1) 
0

>  <PUBCHEM_ATOM_UDEF_STEREO_COUNT>  (1) 
1

>  <PUBCHEM_BOND_DEF_STEREO_COUNT>  (1) 
0

>  <PUBCHEM_BOND_UDEF_STEREO_COUNT>  (1) 
0

>  <PUBCHEM_ISOTOPIC_ATOM_COUNT>  (1) 
0

>  <PUBCHEM_COMPONENT_COUNT>  (1) 
1

>  <PUBCHEM_CACTVS_TAUTO_COUNT>  (1) 
1

>  <PUBCHEM_CONFORMER_ID>  (1) 
0000791700000001

>  <PUBCHEM_MMFF94_ENERGY>  (1) 
16.3505

>  <PUBCHEM_FEATURE_SELFOVERLAP>  (1) 
30.538

>  <PUBCHEM_SHAPE_FINGERPRINT>  (1) 
10219947 1 18040435494583592220
10465860 228 18198913508605951521
10980938 120 18410576141235687242
11471102 20 18334851706068300102
11471102 22 17967538934571687089
12251169 10 18333448750626986002
12346645 44 18413388734934381994
12346645 6 18411980230580275910
12491281 212 18412550937244367418
13380535 76 18410012156206119298
14144814 61 18410009922838540393
14325111 11 18409728486511169775
14350558 41 12901542416708191536
14943859 89 17346598590470685183
15219456 202 17822844274114445767
15309172 13 18333447651162960815
15775835 57 18202005417166307049
16945 1 18260537910181280462
17844478 74 17385437700507962588
18186145 218 18412260644884420988
200 152 18340475751737917439
201361 129 18270404879925443658
20279233 1 16877944923617312707
20645477 70 18188757345860930799
21524375 3 18341894103719173855
22854114 59 18260266356478608265
23402539 116 17703780436428334373
23402655 69 18341323419162571117
2748010 2 17830434104276304534
276578 36 18411986853477667082
528886 8 18336820978854584394
53655031 270 18412543189017883297
7364860 26 18129384795670705486

>  <PUBCHEM_SHAPE_MULTIPOLES>  (1) 
257.57
6.5
1.57
0.82
3.22
0.21
0.01
-1.85
0.9
-0.41
0.17
0.25
-0.07
-0.54

>  <PUBCHEM_SHAPE_SELFOVERLAP>  (1) 
550.375

>  <PUBCHEM_SHAPE_VOLUME>  (1) 
144

>  <PUBCHEM_COORDINATE_TYPE>  (1) 
2
5
10

$$$$
