31
     RDKit          3D

 13 12  0  0  1  0  0  0  0  0999 V2000
    2.9324   -0.1022    0.0268 P   0  0  0  0  0  0  0  0  0  0  0  0
   -3.3355    0.6550    0.5654 O   0  0  0  0  0  0  0  0  0  0  0  0
   -0.8314    1.7982    0.9020 O   0  0  0  0  0  0  0  0  0  0  0  0
    1.4691    0.2421    0.6176 O   0  0  0  0  0  0  0  0  0  0  0  0
   -2.4593   -2.0637    0.6968 O   0  0  0  0  0  0  0  0  0  0  0  0
    2.9855    0.7104   -1.3703 O   0  0  0  0  0  0  0  0  0  0  0  0
    2.7712   -1.6409   -0.4438 O   0  0  0  0  0  0  0  0  0  0  0  0
    4.0753    0.1575    0.9641 O   0  0  0  0  0  0  0  0  0  0  0  0
   -2.2420    0.1781   -0.2271 C   0  0  0  0  0  0  0  0  0  0  0  0
   -0.9262    0.4159    0.5536 C   0  0  0  0  0  0  0  0  0  0  0  0
   -2.4873   -1.3151   -0.5134 C   0  0  0  0  0  0  0  0  0  0  0  0
    0.3356    0.0202   -0.2173 C   0  0  0  0  0  0  0  0  0  0  0  0
   -2.2873    0.9445   -1.5544 C   0  0  0  0  0  0  0  0  0  0  0  0
  1  4  1  0
  1  6  1  0
  1  7  1  0
  1  8  2  0
  2  9  1  0
  3 10  1  0
  4 12  1  0
  5 11  1  0
  9 10  1  0
  9 11  1  0
  9 13  1  0
 10 12  1  0
M  END
>  <PUBCHEM_COMPOUND_CID>  (1) 
31

>  <PUBCHEM_CONFORMER_RMSD>  (1) 
0.6

>  <PUBCHEM_CONFORMER_DIVERSEORDER>  (1) 
1
109
114
40
90
86
76
124
4
129
139
140
104
38
137
29
153
51
132
46
122
42
47
125
23
96
14
19
143
151
24
106
149
60
27
9
152
72
39
33
146
7
68
18
80
37
154
34
100
134
16
78
35
128
121
20
142
3
108
119
126
43
13
148
17
131
5
70
83
62
136
8
97
52
94
56
123
133
53
54
31
11
6
112
113
15
81
141
10
44
98
41
120
22
135
32
75
49
111
2
118
25
67
92
82
63
55
26
144
57
95
117
91
105
103
58
84
65
48
88
45
36
147
107
79
59
127
115
61
93
21
138
87
71
30
130
69
64
85
89
77
116
50
101
150
145
28
73
110
74
99
12
66
102

>  <PUBCHEM_MMFF94_PARTIAL_CHARGES>  (1) 
17
1 1.51
10 0.28
11 0.28
12 0.28
2 -0.68
22 0.4
23 0.4
24 0.4
25 0.5
26 0.5
3 -0.68
4 -0.55
5 -0.68
6 -0.77
7 -0.77
8 -0.7
9 0.28

>  <PUBCHEM_EFFECTIVE_ROTOR_COUNT>  (1) 
5

>  <PUBCHEM_PHARMACOPHORE_FEATURES>  (1) 
10
1 2 acceptor
1 2 donor
1 3 acceptor
1 3 donor
1 5 acceptor
1 5 donor
1 6 acceptor
1 7 acceptor
1 8 acceptor
4 1 6 7 8 anion

>  <PUBCHEM_HEAVY_ATOM_COUNT>  (1) 
13

>  <PUBCHEM_ATOM_DEF_STEREO_COUNT>  (1) 
0

>  <PUBCHEM_ATOM_UDEF_STEREO_COUNT>  (1) 
2

>  <PUBCHEM_BOND_DEF_STEREO_COUNT>  (1) 
0

>  <PUBCHEM_BOND_UDEF_STEREO_COUNT>  (1) 
0

>  <PUBCHEM_ISOTOPIC_ATOM_COUNT>  (1) 
0

>  <PUBCHEM_COMPONENT_COUNT>  (1) 
1

>  <PUBCHEM_CACTVS_TAUTO_COUNT>  (1) 
1

>  <PUBCHEM_CONFORMER_ID>  (1) 
0000001F00000001

>  <PUBCHEM_MMFF94_ENERGY>  (1) 
-3.7537

>  <PUBCHEM_FEATURE_SELFOVERLAP>  (1) 
50.799

>  <PUBCHEM_SHAPE_FINGERPRINT>  (1) 
12716758 59 18337663131783842625
12932764 1 17748824103118003696
13024252 1 14562532864881209321
13296908 3 17846501452096838542
15309172 13 15051734213603185340
15310529 11 17095518453374630041
20201158 50 18342733026838443118
20279233 1 17703789223636022590
20281407 28 17846784022137274234
20645477 56 18188202113763195901
20645477 70 16343426094527596668
20653085 51 17459190690100142565
20711983 138 18131071528333112363
21061003 4 17987803045746444491
21524375 3 17052752763744761505
22169311 21 18338787945111620390
22959321 105 18334006220497569188
23557571 272 18334565850415169876
3248919 1 18411417293711846116
528716 315 18412271661227602230
8030462 33 18130510738843257836
81228 2 17773607026431115600

>  <PUBCHEM_SHAPE_MULTIPOLES>  (1) 
230.3
6.43
1.54
1.16
4.57
0.57
0.28
0.71
0.08
-0.89
-0.08
-0.06
-0.32
0.18

>  <PUBCHEM_SHAPE_SELFOVERLAP>  (1) 
424.607

>  <PUBCHEM_SHAPE_VOLUME>  (1) 
147

>  <PUBCHEM_COORDINATE_TYPE>  (1) 
2
5
10

$$$$
