310
     RDKit          3D

 10  9  0  0  0  0  0  0  0  0999 V2000
   -4.0227   -0.9220   -0.0010 O   0  0  0  0  0  0  0  0  0  0  0  0
    4.0231    0.9215   -0.0006 O   0  0  0  0  0  0  0  0  0  0  0  0
   -3.3636    1.2621    0.0008 O   0  0  0  0  0  0  0  0  0  0  0  0
    3.3630   -1.2625    0.0009 O   0  0  0  0  0  0  0  0  0  0  0  0
   -0.6752    0.2605   -0.0002 C   0  0  0  0  0  0  0  0  0  0  0  0
    0.6752   -0.2599   -0.0001 C   0  0  0  0  0  0  0  0  0  0  0  0
   -1.7560   -0.5313    0.0001 C   0  0  0  0  0  0  0  0  0  0  0  0
    1.7562    0.5317   -0.0005 C   0  0  0  0  0  0  0  0  0  0  0  0
   -3.1032    0.0710    0.0004 C   0  0  0  0  0  0  0  0  0  0  0  0
    3.1031   -0.0711    0.0001 C   0  0  0  0  0  0  0  0  0  0  0  0
  1  9  1  0
  2 10  1  0
  3  9  2  0
  4 10  2  0
  5  6  1  0
  5  7  2  0
  6  8  2  0
  7  9  1  0
  8 10  1  0
M  END
>  <PUBCHEM_COMPOUND_CID>  (1) 
310

>  <PUBCHEM_CONFORMER_RMSD>  (1) 
0.6

>  <PUBCHEM_CONFORMER_DIVERSEORDER>  (1) 
1
3
2

>  <PUBCHEM_MMFF94_PARTIAL_CHARGES>  (1) 
16
1 -0.65
10 0.71
11 0.15
12 0.15
13 0.15
14 0.15
15 0.5
16 0.5
2 -0.65
3 -0.57
4 -0.57
5 -0.15
6 -0.15
7 -0.14
8 -0.14
9 0.71

>  <PUBCHEM_EFFECTIVE_ROTOR_COUNT>  (1) 
3

>  <PUBCHEM_PHARMACOPHORE_FEATURES>  (1) 
6
1 1 acceptor
1 2 acceptor
1 3 acceptor
1 4 acceptor
3 1 3 9 anion
3 2 4 10 anion

>  <PUBCHEM_HEAVY_ATOM_COUNT>  (1) 
10

>  <PUBCHEM_ATOM_DEF_STEREO_COUNT>  (1) 
0

>  <PUBCHEM_ATOM_UDEF_STEREO_COUNT>  (1) 
0

>  <PUBCHEM_BOND_DEF_STEREO_COUNT>  (1) 
0

>  <PUBCHEM_BOND_UDEF_STEREO_COUNT>  (1) 
2

>  <PUBCHEM_ISOTOPIC_ATOM_COUNT>  (1) 
0

>  <PUBCHEM_COMPONENT_COUNT>  (1) 
1

>  <PUBCHEM_CACTVS_TAUTO_COUNT>  (1) 
1

>  <PUBCHEM_CONFORMER_ID>  (1) 
0000013600000001

>  <PUBCHEM_MMFF94_ENERGY>  (1) 
14.8579

>  <PUBCHEM_FEATURE_SELFOVERLAP>  (1) 
30.559

>  <PUBCHEM_SHAPE_FINGERPRINT>  (1) 
11062470 55 18344146998933992976
12932764 1 17418082235038302214
14144814 61 18410855447243260058
14325111 11 18410575080373412354
190213 19 17603305959685112935
1986462 14 18335703819311599823
20645477 70 18341613668546925582
22485316 2 18410570690959189799
23402539 116 18202274798121728293
3248919 1 17313112963783366074

>  <PUBCHEM_SHAPE_MULTIPOLES>  (1) 
182.32
7.99
1.05
0.58
0
0
0
0
0
0
0
0
0
0

>  <PUBCHEM_SHAPE_SELFOVERLAP>  (1) 
354.895

>  <PUBCHEM_SHAPE_VOLUME>  (1) 
109

>  <PUBCHEM_COORDINATE_TYPE>  (1) 
2
5
10

$$$$
