31004
     RDKit          3D

 14 14  0  0  1  0  0  0  0  0999 V2000
    4.7764    0.6396   -0.5406 Cl  0  0  0  0  0  0  0  0  0  0  0  0
   -1.3143   -0.8269    1.7815 O   0  0  0  0  0  0  0  0  0  0  0  0
   -2.9746    0.1811   -0.3989 N   0  0  0  0  0  0  0  0  0  0  0  0
   -1.9443   -0.8486   -0.5470 C   0  0  0  0  0  0  0  0  0  0  0  0
   -0.9252   -0.6888    0.6021 C   0  0  0  0  0  0  0  0  0  0  0  0
   -2.5889   -2.2274   -0.4955 C   0  0  0  0  0  0  0  0  0  0  0  0
   -2.3843    1.5090   -0.4467 C   0  0  0  0  0  0  0  0  0  0  0  0
    0.4653   -0.3657    0.3242 C   0  0  0  0  0  0  0  0  0  0  0  0
   -3.4352    2.5892   -0.2948 C   0  0  0  0  0  0  0  0  0  0  0  0
    1.0541   -0.7873   -0.8678 C   0  0  0  0  0  0  0  0  0  0  0  0
    1.2095    0.3671    1.2487 C   0  0  0  0  0  0  0  0  0  0  0  0
    2.3872   -0.4763   -1.1354 C   0  0  0  0  0  0  0  0  0  0  0  0
    2.5427    0.6783    0.9812 C   0  0  0  0  0  0  0  0  0  0  0  0
    3.1316    0.2567   -0.2110 C   0  0  0  0  0  0  0  0  0  0  0  0
  1 14  1  0
  2  5  2  0
  3  4  1  0
  3  7  1  0
  4  5  1  0
  4  6  1  0
  5  8  1  0
  7  9  1  0
  8 10  2  0
  8 11  1  0
 10 12  1  0
 11 13  2  0
 12 14  2  0
 13 14  1  0
M  END
>  <PUBCHEM_COMPOUND_CID>  (1) 
31004

>  <PUBCHEM_CONFORMER_RMSD>  (1) 
0.6

>  <PUBCHEM_CONFORMER_DIVERSEORDER>  (1) 
2
28
35
19
24
8
18
39
12
38
11
36
13
26
32
29
15
40
34
16
37
10
6
31
7
22
3
23
21
33
1
5
30
4
25
20
27
14
17
9

>  <PUBCHEM_MMFF94_PARTIAL_CHARGES>  (1) 
17
1 -0.18
10 -0.15
11 -0.15
12 -0.15
13 -0.15
14 0.18
16 0.36
2 -0.57
25 0.15
26 0.15
27 0.15
28 0.15
3 -0.9
4 0.33
5 0.42
7 0.27
8 0.09

>  <PUBCHEM_EFFECTIVE_ROTOR_COUNT>  (1) 
4

>  <PUBCHEM_PHARMACOPHORE_FEATURES>  (1) 
4
1 2 acceptor
1 3 cation
1 3 donor
6 8 10 11 12 13 14 rings

>  <PUBCHEM_HEAVY_ATOM_COUNT>  (1) 
14

>  <PUBCHEM_ATOM_DEF_STEREO_COUNT>  (1) 
0

>  <PUBCHEM_ATOM_UDEF_STEREO_COUNT>  (1) 
1

>  <PUBCHEM_BOND_DEF_STEREO_COUNT>  (1) 
0

>  <PUBCHEM_BOND_UDEF_STEREO_COUNT>  (1) 
0

>  <PUBCHEM_ISOTOPIC_ATOM_COUNT>  (1) 
0

>  <PUBCHEM_COMPONENT_COUNT>  (1) 
1

>  <PUBCHEM_CACTVS_TAUTO_COUNT>  (1) 
2

>  <PUBCHEM_CONFORMER_ID>  (1) 
0000791C00000002

>  <PUBCHEM_MMFF94_ENERGY>  (1) 
26.0201

>  <PUBCHEM_FEATURE_SELFOVERLAP>  (1) 
20.297

>  <PUBCHEM_SHAPE_FINGERPRINT>  (1) 
10498660 4 18192421975341007501
12138202 97 18342735187365008391
12491281 212 18186798071589206056
12500047 106 18341890771035529550
12932764 1 18342177790730779162
13675066 3 12829481572091936500
13764800 53 17968672531476941553
13839132 238 18338229371566213701
14144814 61 16153698847552224674
15775835 57 18042401340070753557
16945 1 18338220674310355555
17357990 137 17386293086221150444
1741750 31 18340764824089703305
17844478 74 18058448884087327223
18186145 218 17775009020200005722
19026448 5 18113611309823189130
19433438 38 18202283627952120030
19837323 101 18113626676894512011
200 152 15267060333087763624
20645477 56 18413392025153825665
20645477 70 16845300397566177094
20653085 51 18339646646465467705
20711983 171 18261107465836490612
20871999 31 18201992227675188589
21256008 23 14056722331605449852
21501502 16 18335409128451857634
21524375 3 18044932373183340713
21713013 43 16701720744672948725
22094290 60 18339080505145701566
22802520 49 18060135406001216753
22926399 65 18410292471731499164
23402539 116 18187641470281013503
23402655 69 17560234709255183301
23557571 272 18342744052050997781
23559900 14 18129944452259871542
25 1 17773880796557710701
2748010 2 17345742135521650274
276578 36 17532940402415543249
305870 269 17896031044950665859
3248919 1 17386000706591604490

>  <PUBCHEM_SHAPE_MULTIPOLES>  (1) 
279.13
6.97
1.92
1.24
3.98
0.53
0.38
2.77
-1.86
-2.95
-0.37
0.26
-0.12
0.48

>  <PUBCHEM_SHAPE_SELFOVERLAP>  (1) 
557.724

>  <PUBCHEM_SHAPE_VOLUME>  (1) 
166.4

>  <PUBCHEM_COORDINATE_TYPE>  (1) 
2
5
10

$$$$
