31001
     RDKit          3D

 14 13  0  0  0  0  0  0  0  0999 V2000
    7.9552    0.3166    0.0269 O   0  0  0  0  0  0  0  0  0  0  0  0
   -7.9557   -0.3160    0.0175 O   0  0  0  0  0  0  0  0  0  0  0  0
    1.8213   -0.3985   -0.0176 N   0  0  0  0  0  0  0  0  0  0  0  0
   -1.8194    0.3985   -0.0036 N   0  0  0  0  0  0  0  0  0  0  0  0
    0.6255    0.4368   -0.0336 C   0  0  0  0  0  0  0  0  0  0  0  0
   -0.6259   -0.4356   -0.0056 C   0  0  0  0  0  0  0  0  0  0  0  0
    3.0256    0.4194   -0.0073 C   0  0  0  0  0  0  0  0  0  0  0  0
   -3.0260   -0.4206   -0.0037 C   0  0  0  0  0  0  0  0  0  0  0  0
    4.2695   -0.4673    0.0015 C   0  0  0  0  0  0  0  0  0  0  0  0
   -4.2696    0.4666    0.0091 C   0  0  0  0  0  0  0  0  0  0  0  0
    5.5459    0.3721    0.0215 C   0  0  0  0  0  0  0  0  0  0  0  0
   -5.5464   -0.3725    0.0183 C   0  0  0  0  0  0  0  0  0  0  0  0
    6.7933   -0.5011   -0.0122 C   0  0  0  0  0  0  0  0  0  0  0  0
   -6.7934    0.5016   -0.0113 C   0  0  0  0  0  0  0  0  0  0  0  0
  1 13  1  0
  2 14  1  0
  3  5  1  0
  3  7  1  0
  4  6  1  0
  4  8  1  0
  5  6  1  0
  7  9  1  0
  8 10  1  0
  9 11  1  0
 10 12  1  0
 11 13  1  0
 12 14  1  0
M  END
>  <PUBCHEM_COMPOUND_CID>  (1) 
31001

>  <PUBCHEM_CONFORMER_RMSD>  (1) 
0.8

>  <PUBCHEM_CONFORMER_DIVERSEORDER>  (1) 
1
52
84
103
40
116
121
90
171
56
15
43
184
35
156
93
46
172
111
137
144
24
16
54
140
131
181
185
157
179
126
117
102
174
33
62
27
32
136
118
6
168
58
134
95
10
31
99
147
169
26
114
115
105
44
60
135
123
49
130
133
4
106
89
20
138
70
12
3
167
180
77
113
148
63
75
158
149
163
101
57
125
104
109
47
142
17
166
48
85
5
151
64
68
80
19
9
83
30
53
153
120
98
97
173
139
176
51
79
124
150
39
59
18
78
159
72
145
186
73
13
28
183
132
96
37
187
87
66
82
155
165
61
127
112
74
92
128
55
107
88
41
2
38
76
86
65
94
178
154
7
100
25
45
146
160
164
143
108
8
42
119
23
170
21
141
152
91
50
161
162
11
129
71
67
81
69
182
175
22
122
14
177
110
29
34
36

>  <PUBCHEM_MMFF94_PARTIAL_CHARGES>  (1) 
14
1 -0.68
13 0.28
14 0.28
2 -0.68
27 0.36
28 0.36
3 -0.9
37 0.4
38 0.4
4 -0.9
5 0.27
6 0.27
7 0.27
8 0.27

>  <PUBCHEM_EFFECTIVE_ROTOR_COUNT>  (1) 
11

>  <PUBCHEM_PHARMACOPHORE_FEATURES>  (1) 
8
1 1 acceptor
1 1 donor
1 2 acceptor
1 2 donor
1 3 cation
1 3 donor
1 4 cation
1 4 donor

>  <PUBCHEM_HEAVY_ATOM_COUNT>  (1) 
14

>  <PUBCHEM_ATOM_DEF_STEREO_COUNT>  (1) 
0

>  <PUBCHEM_ATOM_UDEF_STEREO_COUNT>  (1) 
0

>  <PUBCHEM_BOND_DEF_STEREO_COUNT>  (1) 
0

>  <PUBCHEM_BOND_UDEF_STEREO_COUNT>  (1) 
0

>  <PUBCHEM_ISOTOPIC_ATOM_COUNT>  (1) 
0

>  <PUBCHEM_COMPONENT_COUNT>  (1) 
1

>  <PUBCHEM_CACTVS_TAUTO_COUNT>  (1) 
1

>  <PUBCHEM_CONFORMER_ID>  (1) 
0000791900000001

>  <PUBCHEM_MMFF94_ENERGY>  (1) 
-6.1238

>  <PUBCHEM_FEATURE_SELFOVERLAP>  (1) 
40.598

>  <PUBCHEM_SHAPE_FINGERPRINT>  (1) 
11315181 36 18060705009270293739
12091667 2 18409167710739530515
13533116 47 18201434723735517410
14123256 10 18410856555344828811
14251764 18 18410573967971582104
14251764 46 18410575084663091914
17834076 25 18411982459562482454
18006028 8 18131632283363527785
20621476 8 18187082828089794438
22224240 67 15864070992200575480
23402539 116 18060413629460759917
23521765 1 18341894090834051077
33684 2 18410573980856496843
42788 4 18410855460508034884
59567204 34 18200594684542378153
8209 1 18410573985156732397

>  <PUBCHEM_SHAPE_MULTIPOLES>  (1) 
266.41
24.14
0.77
0.59
0.01
0
0
0
0.18
0
0
0
0
0.02

>  <PUBCHEM_SHAPE_SELFOVERLAP>  (1) 
475.698

>  <PUBCHEM_SHAPE_VOLUME>  (1) 
172.8

>  <PUBCHEM_COORDINATE_TYPE>  (1) 
2
5
10

$$$$
