31003
     RDKit          3D

 27 30  0  0  1  0  0  0  0  0999 V2000
    5.1834   -2.2775    1.0526 O   0  0  0  0  0  0  0  0  0  0  0  0
    0.2687   -0.2229   -0.2287 O   0  0  0  0  0  0  0  0  0  0  0  0
   -0.8388   -2.0965    0.5242 O   0  0  0  0  0  0  0  0  0  0  0  0
   -1.2624    2.0296   -0.2994 O   0  0  0  0  0  0  0  0  0  0  0  0
   -1.9687    3.6720    1.1588 O   0  0  0  0  0  0  0  0  0  0  0  0
    4.1703   -0.5496   -0.8219 N   0  0  0  0  0  0  0  0  0  0  0  0
    4.1240   -1.3823    1.4044 C   0  0  0  0  0  0  0  0  0  0  0  0
    3.8940   -2.5188    0.4811 C   0  0  0  0  0  0  0  0  0  0  0  0
    3.9528   -0.1291    0.5813 C   0  0  0  0  0  0  0  0  0  0  0  0
    3.5917   -1.9120   -0.8670 C   0  0  0  0  0  0  0  0  0  0  0  0
    2.4758    0.3197    0.6062 C   0  0  0  0  0  0  0  0  0  0  0  0
    2.0741   -1.6634   -1.0036 C   0  0  0  0  0  0  0  0  0  0  0  0
    1.5117   -0.8012    0.1521 C   0  0  0  0  0  0  0  0  0  0  0  0
    5.5556   -0.4714   -1.2637 C   0  0  0  0  0  0  0  0  0  0  0  0
   -0.8453   -0.9832    0.0146 C   0  0  0  0  0  0  0  0  0  0  0  0
   -2.0929   -0.2371   -0.4499 C   0  0  0  0  0  0  0  0  0  0  0  0
   -2.2010    1.1181    0.2637 C   0  0  0  0  0  0  0  0  0  0  0  0
   -3.3389   -1.0887   -0.2648 C   0  0  0  0  0  0  0  0  0  0  0  0
   -3.7665   -1.9314   -1.2910 C   0  0  0  0  0  0  0  0  0  0  0  0
   -4.0541   -1.0279    0.9313 C   0  0  0  0  0  0  0  0  0  0  0  0
   -4.9093   -2.7129   -1.1212 C   0  0  0  0  0  0  0  0  0  0  0  0
   -5.1970   -1.8095    1.1010 C   0  0  0  0  0  0  0  0  0  0  0  0
   -1.2510    3.2850    0.2468 C   0  0  0  0  0  0  0  0  0  0  0  0
   -5.6244   -2.6520    0.0747 C   0  0  0  0  0  0  0  0  0  0  0  0
   -0.2084    4.1226   -0.4579 C   0  0  0  0  0  0  0  0  0  0  0  0
   -0.1584    5.5486    0.0848 C   0  0  0  0  0  0  0  0  0  0  0  0
    0.9151    6.3716   -0.6085 C   0  0  0  0  0  0  0  0  0  0  0  0
  1  7  1  0
  1  8  1  0
  2 13  1  0
  2 15  1  0
  3 15  2  0
  4 17  1  0
  4 23  1  0
  5 23  2  0
  6  9  1  0
  6 10  1  0
  6 14  1  0
  7  8  1  0
  7  9  1  0
  8 10  1  0
  9 11  1  0
 10 12  1  0
 11 13  1  0
 12 13  1  0
 15 16  1  0
 16 17  1  0
 16 18  1  0
 18 19  2  0
 18 20  1  0
 19 21  1  0
 20 22  2  0
 21 24  2  0
 22 24  1  0
 23 25  1  0
 25 26  1  0
 26 27  1  0
M  END
>  <PUBCHEM_COMPOUND_CID>  (1) 
31003

>  <PUBCHEM_CONFORMER_RMSD>  (1) 
1

>  <PUBCHEM_CONFORMER_DIVERSEORDER>  (1) 
1
17
204
86
95
189
178
142
174
112
34
187
106
122
175
55
167
94
206
205
74
83
133
43
186
58
125
76
63
35
27
201
26
202
19
119
177
80
170
42
54
91
138
7
188
194
45
157
199
168
68
70
158
78
123
160
210
107
15
46
9
136
198
93
146
98
57
88
22
67
37
148
164
92
145
131
84
85
87
101
179
116
47
96
139
36
192
28
171
143
89
108
97
109
163
64
156
185
144
13
114
129
38
21
141
149
207
82
104
161
159
180
208
52
61
40
130
128
203
134
31
2
150
193
51
73
195
23
48
10
111
137
25
99
90
153
135
124
69
181
165
18
151
24
60
190
79
100
50
102
33
147
200
176
155
53
65
162
127
103
49
16
81
121
110
8
197
41
132
191
115
32
3
120
169
71
20
172
184
117
66
154
12
105
14
11
62
173
75
113
196
152
209
56
30
39
166
126
5
182
183
59
77
44
4
29
72
6
140
118

>  <PUBCHEM_MMFF94_PARTIAL_CHARGES>  (1) 
30
1 -0.3
10 0.37
13 0.28
14 0.27
15 0.66
16 0.2
17 0.28
18 -0.14
19 -0.15
2 -0.43
20 -0.15
21 -0.15
22 -0.15
23 0.66
24 -0.15
25 0.06
28 0.1
29 0.1
3 -0.57
4 -0.43
43 0.15
44 0.15
45 0.15
46 0.15
47 0.15
5 -0.57
6 -0.81
7 -0.05
8 -0.05
9 0.37

>  <PUBCHEM_EFFECTIVE_ROTOR_COUNT>  (1) 
10

>  <PUBCHEM_PHARMACOPHORE_FEATURES>  (1) 
8
1 1 acceptor
1 27 hydrophobe
1 3 acceptor
1 5 acceptor
1 6 cation
6 1 6 7 8 9 10 rings
6 18 19 20 21 22 24 rings
8 6 7 8 9 10 11 12 13 rings

>  <PUBCHEM_HEAVY_ATOM_COUNT>  (1) 
27

>  <PUBCHEM_ATOM_DEF_STEREO_COUNT>  (1) 
0

>  <PUBCHEM_ATOM_UDEF_STEREO_COUNT>  (1) 
5

>  <PUBCHEM_BOND_DEF_STEREO_COUNT>  (1) 
0

>  <PUBCHEM_BOND_UDEF_STEREO_COUNT>  (1) 
0

>  <PUBCHEM_ISOTOPIC_ATOM_COUNT>  (1) 
0

>  <PUBCHEM_COMPONENT_COUNT>  (1) 
1

>  <PUBCHEM_CACTVS_TAUTO_COUNT>  (1) 
1

>  <PUBCHEM_CONFORMER_ID>  (1) 
0000791B00000001

>  <PUBCHEM_MMFF94_ENERGY>  (1) 
64.8254

>  <PUBCHEM_FEATURE_SELFOVERLAP>  (1) 
44.098

>  <PUBCHEM_SHAPE_FINGERPRINT>  (1) 
10937287 8 17257930390730887332
11014199 57 18337391543991262972
11045515 52 18334008411157763237
11059845 2 17399213276404636314
11763715 3 18263946400390484964
12107183 9 17252579081245947602
12403259 226 18271799095372164882
12516196 113 18410574032934817715
12553582 1 18340766026375091447
12788726 201 18335426746507965250
13009979 54 18188497873990614918
13583140 156 17701800117234571294
13690498 29 18127710244289580430
138480 1 15024429594579559917
15042514 8 18266742389988342561
15439362 3 17976815708293150533
15664445 248 18126868198443827876
15927050 60 17404028513952113447
15961568 22 18340200903885551900
167882 2 17905606954184751557
17349148 13 17967818231974462186
1813 80 18271249417020844231
19315092 285 17241865680225144618
21033650 10 17976005097619532222
21304303 282 17472945460346766749
21641784 216 18339098029082001916
21796203 349 17976577027890672843
23366157 5 17975977884474363133
23559900 14 18120933064599523195
23845131 108 17476369301481620201
249999 5 17906455785751212433
38695281 34 17328581133876624953
469060 322 18340221712352709771
508706 21 17982732965797487582
5104073 3 18271800169262104722
5385378 56 17762347207851896121
6058803 2 17825954724386260322
6669772 16 17547300359229597444
6700243 42 17842872986742958172
7164475 11 18337673010393570942
7399639 24 18059278929730572898
7808743 9 18122072996792425172
79837 15 17834677093561603225
9981440 41 17255121147354714193

>  <PUBCHEM_SHAPE_MULTIPOLES>  (1) 
521.32
11.58
6.92
1.18
1.92
19.03
0.01
-15.29
-0.07
-0.8
0.54
-0.23
-0.5
-1.12

>  <PUBCHEM_SHAPE_SELFOVERLAP>  (1) 
1103.139

>  <PUBCHEM_SHAPE_VOLUME>  (1) 
293

>  <PUBCHEM_COORDINATE_TYPE>  (1) 
2
5
10

$$$$
