31016
     RDKit          3D

 16 16  0  0  1  0  0  0  0  0999 V2000
   -1.4571   -2.3244    0.2656 O   0  0  0  0  0  0  0  0  0  0  0  0
   -1.7633    2.4334   -0.1897 O   0  0  0  0  0  0  0  0  0  0  0  0
   -2.9636   -0.0018    0.3585 O   0  0  0  0  0  0  0  0  0  0  0  0
    4.8369    0.4911   -0.1589 N   0  0  0  0  0  0  0  0  0  0  0  0
    2.5247    0.2271   -0.9409 C   0  0  0  0  0  0  0  0  0  0  0  0
    3.4420    0.4029    0.2831 C   0  0  0  0  0  0  0  0  0  0  0  0
    1.0568    0.1658   -0.5926 C   0  0  0  0  0  0  0  0  0  0  0  0
    0.3194    1.3382   -0.5516 C   0  0  0  0  0  0  0  0  0  0  0  0
    0.4739   -1.0617   -0.3215 C   0  0  0  0  0  0  0  0  0  0  0  0
    3.3239   -0.7548    1.2746 C   0  0  0  0  0  0  0  0  0  0  0  0
   -0.8823   -1.1183   -0.0007 C   0  0  0  0  0  0  0  0  0  0  0  0
   -1.0368    1.2817   -0.2307 C   0  0  0  0  0  0  0  0  0  0  0  0
   -1.6376    0.0534    0.0449 C   0  0  0  0  0  0  0  0  0  0  0  0
   -0.6145   -3.4730    0.1974 C   0  0  0  0  0  0  0  0  0  0  0  0
   -1.8233    3.1177    1.0603 C   0  0  0  0  0  0  0  0  0  0  0  0
   -3.7990   -0.7772   -0.4979 C   0  0  0  0  0  0  0  0  0  0  0  0
  1 11  1  0
  1 14  1  0
  2 12  1  0
  2 15  1  0
  3 13  1  0
  3 16  1  0
  4  6  1  0
  5  6  1  0
  5  7  1  0
  6 10  1  0
  7  8  2  0
  7  9  1  0
  8 12  1  0
  9 11  2  0
 11 13  1  0
 12 13  2  0
M  END
>  <PUBCHEM_COMPOUND_CID>  (1) 
31016

>  <PUBCHEM_CONFORMER_RMSD>  (1) 
0.6

>  <PUBCHEM_CONFORMER_DIVERSEORDER>  (1) 
20
48
70
28
31
69
55
49
40
8
73
38
43
58
62
50
66
32
71
24
23
57
52
15
53
33
45
12
25
54
37
36
67
3
72
34
56
63
21
44
65
2
47
42
39
10
64
61
9
22
41
46
11
27
18
51
59
14
7
68
29
60
26
5
13
30
17
6
16
35
1
4
19

>  <PUBCHEM_MMFF94_PARTIAL_CHARGES>  (1) 
19
1 -0.36
11 0.08
12 0.08
13 0.08
14 0.28
15 0.28
16 0.28
2 -0.36
20 0.15
21 0.15
25 0.36
26 0.36
3 -0.36
4 -0.99
5 0.14
6 0.27
7 -0.14
8 -0.15
9 -0.15

>  <PUBCHEM_EFFECTIVE_ROTOR_COUNT>  (1) 
5

>  <PUBCHEM_PHARMACOPHORE_FEATURES>  (1) 
6
1 1 acceptor
1 2 acceptor
1 3 acceptor
1 4 cation
1 4 donor
6 7 8 9 11 12 13 rings

>  <PUBCHEM_HEAVY_ATOM_COUNT>  (1) 
16

>  <PUBCHEM_ATOM_DEF_STEREO_COUNT>  (1) 
0

>  <PUBCHEM_ATOM_UDEF_STEREO_COUNT>  (1) 
1

>  <PUBCHEM_BOND_DEF_STEREO_COUNT>  (1) 
0

>  <PUBCHEM_BOND_UDEF_STEREO_COUNT>  (1) 
0

>  <PUBCHEM_ISOTOPIC_ATOM_COUNT>  (1) 
0

>  <PUBCHEM_COMPONENT_COUNT>  (1) 
1

>  <PUBCHEM_CACTVS_TAUTO_COUNT>  (1) 
1

>  <PUBCHEM_CONFORMER_ID>  (1) 
0000792800000014

>  <PUBCHEM_MMFF94_ENERGY>  (1) 
62.9668

>  <PUBCHEM_FEATURE_SELFOVERLAP>  (1) 
30.455

>  <PUBCHEM_SHAPE_FINGERPRINT>  (1) 
10366900 7 18131347553249505816
11680986 33 17764863989550682507
12251169 10 18335135419266297236
13083527 12 16830350664022501126
13140716 1 18122354728675395691
13538477 17 18187931750140783830
14115302 16 18114748255832016606
14178342 30 18195531380837880137
14614273 12 18115868491072952973
15042514 8 18336552732119312659
15279307 12 18113898256567402434
15490181 7 17835536920381673509
15669948 3 18336263543839767662
16752209 62 18335696126613709469
16945 1 18338531810072502839
187816 3 18411130372885558911
193761 8 17905329529198605823
20510252 161 18343022164110767080
20645476 183 17241628271238811654
21029758 11 18270394031323434957
21501502 16 18194682566540556526
21524375 3 17984411941380699276
21650355 55 18267015253349824994
22344851 341 18053389790448195059
22445834 79 17967807228895127098
2334 1 17762064632524423751
23388829 49 18263067843439907043
23402539 116 18342168994853762151
23419403 2 17199646795934915971
23559900 14 18340487885073334444
23598294 1 18335981978568575752
257057 1 17834391602569060974
2748010 2 18120387453497335991
305870 269 18121783820263599840
3084891 72 18411135861732820431
43471831 8 18263363594671657859
58807428 26 18120373151219317162
7364860 26 17619910556628353559
81228 2 18341066175863914429

>  <PUBCHEM_SHAPE_MULTIPOLES>  (1) 
306.68
6.04
3.1
0.93
5.33
0.58
-0.12
-0.6
-0.42
-2.68
-0.81
0.34
-0.17
-0.6

>  <PUBCHEM_SHAPE_SELFOVERLAP>  (1) 
622.489

>  <PUBCHEM_SHAPE_VOLUME>  (1) 
180.9

>  <PUBCHEM_COORDINATE_TYPE>  (1) 
2
5
10

$$$$
