31010
     RDKit          3D

 35 37  0  0  1  0  0  0  0  0999 V2000
   -0.9337   -3.3906    0.4860 Cl  0  0  0  0  0  0  0  0  0  0  0  0
    1.9192    0.9124   -1.2873 Cl  0  0  0  0  0  0  0  0  0  0  0  0
   -7.2779    1.0320   -2.7122 O   0  0  0  0  0  0  0  0  0  0  0  0
   -3.1494    2.3452   -0.5309 O   0  0  0  0  0  0  0  0  0  0  0  0
   -6.4544   -0.9830   -2.0701 O   0  0  0  0  0  0  0  0  0  0  0  0
   -7.6808   -0.9895    3.1198 O   0  0  0  0  0  0  0  0  0  0  0  0
   -7.7205    1.2709    2.9285 O   0  0  0  0  0  0  0  0  0  0  0  0
    1.5819   -1.9338   -0.3339 N   0  0  0  0  0  0  0  0  0  0  0  0
   -4.3791    0.4022   -0.8332 N   0  0  0  0  0  0  0  0  0  0  0  0
    3.9262   -0.0642    0.7665 N   0  0  0  0  0  0  0  0  0  0  0  0
    6.0074   -1.7213    0.0046 N   0  0  0  0  0  0  0  0  0  0  0  0
    7.4402    0.0953   -0.0861 N   0  0  0  0  0  0  0  0  0  0  0  0
    6.6646    2.3047    0.4315 N   0  0  0  0  0  0  0  0  0  0  0  0
    4.4067    2.6363    1.0431 N   0  0  0  0  0  0  0  0  0  0  0  0
    8.8947    1.9349   -0.1789 N   0  0  0  0  0  0  0  0  0  0  0  0
   -5.6683    1.0345   -0.9551 C   0  0  0  0  0  0  0  0  0  0  0  0
   -6.3718    1.2235    0.3943 C   0  0  0  0  0  0  0  0  0  0  0  0
    0.3896   -1.1732   -0.4068 C   0  0  0  0  0  0  0  0  0  0  0  0
    2.3696   -1.9384    0.8794 C   0  0  0  0  0  0  0  0  0  0  0  0
   -6.7294   -0.0642    1.1476 C   0  0  0  0  0  0  0  0  0  0  0  0
   -1.9593    0.3249   -0.5506 C   0  0  0  0  0  0  0  0  0  0  0  0
   -3.2104    1.1224   -0.6283 C   0  0  0  0  0  0  0  0  0  0  0  0
   -0.8290   -1.7508   -0.0503 C   0  0  0  0  0  0  0  0  0  0  0  0
    0.4337    0.1535   -0.8352 C   0  0  0  0  0  0  0  0  0  0  0  0
   -2.0035   -1.0018   -0.1224 C   0  0  0  0  0  0  0  0  0  0  0  0
   -0.7407    0.9026   -0.9070 C   0  0  0  0  0  0  0  0  0  0  0  0
    3.7433   -1.3855    0.6183 C   0  0  0  0  0  0  0  0  0  0  0  0
   -6.4762    0.2359   -1.9573 C   0  0  0  0  0  0  0  0  0  0  0  0
    2.0278   -2.7003   -1.4767 C   0  0  0  0  0  0  0  0  0  0  0  0
   -7.4324    0.1758    2.4662 C   0  0  0  0  0  0  0  0  0  0  0  0
    4.7724   -2.2041    0.2416 C   0  0  0  0  0  0  0  0  0  0  0  0
    5.1616    0.4168    0.5291 C   0  0  0  0  0  0  0  0  0  0  0  0
    6.2212   -0.4074    0.1440 C   0  0  0  0  0  0  0  0  0  0  0  0
    5.4540    1.7614    0.6536 C   0  0  0  0  0  0  0  0  0  0  0  0
    7.6026    1.4227    0.0682 C   0  0  0  0  0  0  0  0  0  0  0  0
  1 23  1  0
  2 24  1  0
  3 28  1  0
  4 22  2  0
  5 28  2  0
  6 30  1  0
  7 30  2  0
  8 18  1  0
  8 19  1  0
  8 29  1  0
  9 16  1  0
  9 22  1  0
 10 27  2  0
 10 32  1  0
 11 31  2  0
 11 33  1  0
 12 33  1  0
 12 35  2  0
 13 34  2  0
 13 35  1  0
 14 34  1  0
 15 35  1  0
 16 17  1  0
 16 28  1  0
 17 20  1  0
 18 23  2  0
 18 24  1  0
 19 27  1  0
 20 30  1  0
 21 22  1  0
 21 25  2  0
 21 26  1  0
 23 25  1  0
 24 26  2  0
 27 31  1  0
 32 33  2  0
 32 34  1  0
M  END
>  <PUBCHEM_COMPOUND_CID>  (1) 
31010

>  <PUBCHEM_CONFORMER_RMSD>  (1) 
1

>  <PUBCHEM_CONFORMER_DIVERSEORDER>  (1) 
6
123
76
171
116
198
161
186
30
101
175
232
120
228
121
4
189
137
140
119
71
98
45
8
122
136
195
158
231
69
16
209
204
169
138
117
192
15
225
203
65
49
126
80
95
19
104
96
191
180
94
218
135
56
202
1
61
48
181
55
238
108
145
99
109
85
176
38
50
159
93
150
32
124
70
153
13
215
229
134
59
92
41
235
141
17
207
197
125
81
77
79
220
40
213
58
208
178
107
21
2
89
127
212
194
210
144
146
33
183
88
201
224
26
193
185
114
200
43
75
199
233
149
72
154
51
110
22
162
130
190
67
24
230
84
223
205
111
63
42
172
64
73
115
83
174
3
166
31
170
222
148
27
226
106
133
53
156
196
60
5
147
82
221
216
187
57
34
219
12
132
177
112
37
184
217
164
165
66
103
62
18
87
157
90
68
35
152
237
234
28
179
160
131
10
78
236
100
206
168
102
188
9
155
129
36
91
182
25
44
151
86
52
54
11
128
46
173
105
20
167
39
211
7
29
118
139
97
227
143
14
142
163
113
214
74
23
47

>  <PUBCHEM_MMFF94_PARTIAL_CHARGES>  (1) 
44
1 -0.18
10 -0.62
11 -0.62
12 -0.62
13 -0.62
14 -0.9
15 -0.9
16 0.36
18 0.1
19 0.51
2 -0.18
20 0.06
21 0.09
22 0.54
23 0.18
24 0.18
25 -0.15
26 -0.15
27 0.17
28 0.66
29 0.37
3 -0.65
30 0.66
31 0.16
32 0.31
33 0.62
34 0.41
35 0.72
4 -0.57
41 0.37
44 0.15
45 0.15
49 0.15
5 -0.57
50 0.5
51 0.5
52 0.4
53 0.4
54 0.4
55 0.4
6 -0.65
7 -0.57
8 -0.84
9 -0.73

>  <PUBCHEM_EFFECTIVE_ROTOR_COUNT>  (1) 
10

>  <PUBCHEM_PHARMACOPHORE_FEATURES>  (1) 
16
1 10 acceptor
1 14 donor
1 15 donor
1 3 acceptor
1 4 acceptor
1 5 acceptor
1 6 acceptor
1 7 acceptor
1 8 cation
1 9 donor
3 3 5 28 anion
3 6 7 30 anion
4 12 13 15 35 cation
6 10 11 27 31 32 33 rings
6 12 13 32 33 34 35 rings
6 18 21 23 24 25 26 rings

>  <PUBCHEM_HEAVY_ATOM_COUNT>  (1) 
35

>  <PUBCHEM_ATOM_DEF_STEREO_COUNT>  (1) 
0

>  <PUBCHEM_ATOM_UDEF_STEREO_COUNT>  (1) 
1

>  <PUBCHEM_BOND_DEF_STEREO_COUNT>  (1) 
0

>  <PUBCHEM_BOND_UDEF_STEREO_COUNT>  (1) 
0

>  <PUBCHEM_ISOTOPIC_ATOM_COUNT>  (1) 
0

>  <PUBCHEM_COMPONENT_COUNT>  (1) 
1

>  <PUBCHEM_CACTVS_TAUTO_COUNT>  (1) 
24

>  <PUBCHEM_CONFORMER_ID>  (1) 
0000792200000006

>  <PUBCHEM_MMFF94_ENERGY>  (1) 
122.5274

>  <PUBCHEM_FEATURE_SELFOVERLAP>  (1) 
81.358

>  <PUBCHEM_SHAPE_FINGERPRINT>  (1) 
10 15 18040714770605599656
10906281 52 18201723967849007327
11456790 92 18337946793442200752
12539765 74 17703797989701561494
12717326 120 16154291536080750673
12925494 130 18266169716508778304
13627175 23 17988934370434657928
1454969 45 18271511053379818719
14849402 71 18272653471747361841
14856354 85 16630515264015405629
15183329 4 18272642446207194096
1577012 14 17489587848516833809
19303781 99 15865215657706219555
19611394 137 17968105247780199585
21521721 280 18411420579256826467
23522609 53 17489595554184113281
24771293 8 18410853256842127333
2747138 104 17895202069023289077
335352 9 18411695471161482630
3383291 50 16950293931397356475
397830 11 17749394792950489745
3986486 107 17203335546378796044
4073 2 18114179766020149482
4093350 32 17632583725803963406
4112364 45 17677059057226476548
4169191 19 18342173371562521583
4258327 124 17968106364777528220
4339292 15 16370730383598823819
4403749 210 17676482844556624787
5080951 261 15574704821329226623
5104073 3 18190185581711656369
5109719 28 18341895165008671146

>  <PUBCHEM_SHAPE_MULTIPOLES>  (1) 
654.83
25.87
2.83
1.98
7.62
1.11
0.76
-12.99
8.06
-3.44
0.15
7.12
-0.14
1.25

>  <PUBCHEM_SHAPE_SELFOVERLAP>  (1) 
1388.042

>  <PUBCHEM_SHAPE_VOLUME>  (1) 
365

>  <PUBCHEM_COORDINATE_TYPE>  (1) 
2
5
10

$$$$
