31019
     RDKit          3D

 24 26  0  0  1  0  0  0  0  0999 V2000
   -6.7193   -2.4830   -0.2383 Cl  0  0  0  0  0  0  0  0  0  0  0  0
   -0.2894   -0.7415   -0.1908 O   0  0  0  0  0  0  0  0  0  0  0  0
    3.3837   -0.5598   -0.4246 N   0  0  0  0  0  0  0  0  0  0  0  0
    6.1268   -0.9020    0.4216 N   0  0  0  0  0  0  0  0  0  0  0  0
    3.7297   -0.7163    0.9934 C   0  0  0  0  0  0  0  0  0  0  0  0
    4.3609   -1.2562   -1.2702 C   0  0  0  0  0  0  0  0  0  0  0  0
    5.1490   -0.2074    1.2680 C   0  0  0  0  0  0  0  0  0  0  0  0
    5.7800   -0.7461   -0.9964 C   0  0  0  0  0  0  0  0  0  0  0  0
    2.0307   -1.0472   -0.6856 C   0  0  0  0  0  0  0  0  0  0  0  0
    1.0095   -0.2459    0.1059 C   0  0  0  0  0  0  0  0  0  0  0  0
    7.4792   -0.4126    0.6820 C   0  0  0  0  0  0  0  0  0  0  0  0
   -1.2936   -0.0311    0.5208 C   0  0  0  0  0  0  0  0  0  0  0  0
   -2.6643   -0.6511    0.3292 C   0  0  0  0  0  0  0  0  0  0  0  0
   -1.2539    1.4369    0.1501 C   0  0  0  0  0  0  0  0  0  0  0  0
   -3.5985   -0.5437    1.3426 C   0  0  0  0  0  0  0  0  0  0  0  0
   -2.9460   -1.3076   -0.8543 C   0  0  0  0  0  0  0  0  0  0  0  0
   -1.6430    2.3792    1.0855 C   0  0  0  0  0  0  0  0  0  0  0  0
   -0.8298    1.8020   -1.1151 C   0  0  0  0  0  0  0  0  0  0  0  0
   -4.8594   -1.1134    1.1662 C   0  0  0  0  0  0  0  0  0  0  0  0
   -4.2069   -1.8773   -1.0309 C   0  0  0  0  0  0  0  0  0  0  0  0
   -1.6065    3.7312    0.7443 C   0  0  0  0  0  0  0  0  0  0  0  0
   -0.7935    3.1541   -1.4562 C   0  0  0  0  0  0  0  0  0  0  0  0
   -5.1637   -1.7802   -0.0205 C   0  0  0  0  0  0  0  0  0  0  0  0
   -1.1817    4.1187   -0.5265 C   0  0  0  0  0  0  0  0  0  0  0  0
  1 23  1  0
  2 10  1  0
  2 12  1  0
  3  5  1  0
  3  6  1  0
  3  9  1  0
  4  7  1  0
  4  8  1  0
  4 11  1  0
  5  7  1  0
  6  8  1  0
  9 10  1  0
 12 13  1  0
 12 14  1  0
 13 15  2  0
 13 16  1  0
 14 17  2  0
 14 18  1  0
 15 19  1  0
 16 20  2  0
 17 21  1  0
 18 22  2  0
 19 23  2  0
 20 23  1  0
 21 24  2  0
 22 24  1  0
M  END
>  <PUBCHEM_COMPOUND_CID>  (1) 
31019

>  <PUBCHEM_CONFORMER_RMSD>  (1) 
0.8

>  <PUBCHEM_CONFORMER_DIVERSEORDER>  (1) 
1
65
31
45
50
71
56
21
29
36
59
48
55
37
30
63
3
73
20
2
26
70
64
27
47
68
69
16
75
54
22
60
12
7
34
5
6
53
51
23
40
9
67
74
14
41
38
46
11
17
15
43
18
58
35
24
13
49
72
19
4
8
25
44
39
32
42
28
10
66
52
57
33
61
62

>  <PUBCHEM_MMFF94_PARTIAL_CHARGES>  (1) 
33
1 -0.18
10 0.28
11 0.27
12 0.57
13 -0.14
14 -0.14
15 -0.15
16 -0.15
17 -0.15
18 -0.15
19 -0.15
2 -0.56
20 -0.15
21 -0.15
22 -0.15
23 0.18
24 -0.15
3 -0.81
4 -0.81
41 0.15
42 0.15
43 0.15
44 0.15
45 0.15
46 0.15
47 0.15
48 0.15
49 0.15
5 0.27
6 0.27
7 0.27
8 0.27
9 0.27

>  <PUBCHEM_EFFECTIVE_ROTOR_COUNT>  (1) 
7.2

>  <PUBCHEM_PHARMACOPHORE_FEATURES>  (1) 
6
1 2 acceptor
1 3 cation
1 4 cation
6 13 15 16 19 20 23 rings
6 14 17 18 21 22 24 rings
6 3 4 5 6 7 8 rings

>  <PUBCHEM_HEAVY_ATOM_COUNT>  (1) 
24

>  <PUBCHEM_ATOM_DEF_STEREO_COUNT>  (1) 
0

>  <PUBCHEM_ATOM_UDEF_STEREO_COUNT>  (1) 
1

>  <PUBCHEM_BOND_DEF_STEREO_COUNT>  (1) 
0

>  <PUBCHEM_BOND_UDEF_STEREO_COUNT>  (1) 
0

>  <PUBCHEM_ISOTOPIC_ATOM_COUNT>  (1) 
0

>  <PUBCHEM_COMPONENT_COUNT>  (1) 
1

>  <PUBCHEM_CACTVS_TAUTO_COUNT>  (1) 
1

>  <PUBCHEM_CONFORMER_ID>  (1) 
0000792B00000001

>  <PUBCHEM_MMFF94_ENERGY>  (1) 
65.1082

>  <PUBCHEM_FEATURE_SELFOVERLAP>  (1) 
30.449

>  <PUBCHEM_SHAPE_FINGERPRINT>  (1) 
10369192 42 16774079601060757948
10670039 82 18262252023672169790
10764073 3 16988295187762831121
11045515 52 18260547848830601269
11101153 10 18334302006886150308
11265709 11 18409452509541062309
11315181 36 14707215409599868342
11545043 162 18198622143274658458
11595378 159 18336260146510217146
12166972 35 17530966929325310590
12516196 113 18410011078575477407
12788726 201 18187918452415945410
13004483 165 18411981398927366613
13009979 54 17987252182474721939
13257819 101 13973419985153491433
13631057 29 18334853901118315810
13782708 43 18129673980873667014
13911987 19 17895773896474041167
14068700 675 18259982695268741828
14118638 360 18187925042088052978
14347332 77 18337108948033388734
14556957 393 17822587048322830484
14910302 57 17916604037320274054
15183329 4 13840253793437920710
15849732 13 18060701706825876759
16087824 20 18265895754031820205
16992727 255 17678165011395172629
17349148 13 17676215654081796118
17686467 74 18337952402722431232
18006028 8 18409727391769574735
1813 80 18411425041980580271
18222031 100 18410858806282550103
20238998 120 18342172285163357073
21304303 172 18343868806109174153
21304303 282 17465345687684089373
2132832 1 18041006145841170012
21424621 283 7853586720188480103
23402539 116 18408042905269048843
23557571 272 18341058427790281638
23845131 108 17551244960706170617
249057 3 18411696630803061791
283562 15 18334574594910484515
314173 85 18412267246275729803
3633792 109 16515676724412373410
469060 322 18335714805468918576
497634 4 17632305544808621418
5219985 9 18408884070719650487
5969126 39 18411974759013305109
7399639 24 18130783443623656094

>  <PUBCHEM_SHAPE_MULTIPOLES>  (1) 
479.95
15.53
3.79
1.35
18.96
5.95
-0.02
-15.44
1.99
-4.98
-0.76
0.21
0.19
-0.13

>  <PUBCHEM_SHAPE_SELFOVERLAP>  (1) 
1001.564

>  <PUBCHEM_SHAPE_VOLUME>  (1) 
274

>  <PUBCHEM_COORDINATE_TYPE>  (1) 
2
5
10

$$$$
