31014
     RDKit          3D

 16 16  0  0  1  0  0  0  0  0999 V2000
   -1.4537    1.9739   -0.5187 O   0  0  0  0  0  0  0  0  0  0  0  0
    2.5840   -1.7582   -0.0984 O   0  0  0  0  0  0  0  0  0  0  0  0
    3.1561    0.9555    0.0888 O   0  0  0  0  0  0  0  0  0  0  0  0
   -4.2680   -1.5335    0.2697 N   0  0  0  0  0  0  0  0  0  0  0  0
   -2.1507   -0.7886   -0.7250 C   0  0  0  0  0  0  0  0  0  0  0  0
   -2.9243   -1.0381    0.5825 C   0  0  0  0  0  0  0  0  0  0  0  0
   -0.7344   -0.3122   -0.5081 C   0  0  0  0  0  0  0  0  0  0  0  0
   -0.4630    1.0441   -0.4166 C   0  0  0  0  0  0  0  0  0  0  0  0
    0.2763   -1.2559   -0.4032 C   0  0  0  0  0  0  0  0  0  0  0  0
   -3.0631    0.2258    1.4312 C   0  0  0  0  0  0  0  0  0  0  0  0
    1.5900   -0.8324   -0.2018 C   0  0  0  0  0  0  0  0  0  0  0  0
    0.8507    1.4676   -0.2153 C   0  0  0  0  0  0  0  0  0  0  0  0
    1.8772    0.5293   -0.1079 C   0  0  0  0  0  0  0  0  0  0  0  0
   -1.0707    3.3434   -0.4111 C   0  0  0  0  0  0  0  0  0  0  0  0
    2.2062   -3.1293   -0.2055 C   0  0  0  0  0  0  0  0  0  0  0  0
    3.5876    1.1087    1.4395 C   0  0  0  0  0  0  0  0  0  0  0  0
  1  8  1  0
  1 14  1  0
  2 11  1  0
  2 15  1  0
  3 13  1  0
  3 16  1  0
  4  6  1  0
  5  6  1  0
  5  7  1  0
  6 10  1  0
  7  8  2  0
  7  9  1  0
  8 12  1  0
  9 11  2  0
 11 13  1  0
 12 13  2  0
M  END
>  <PUBCHEM_COMPOUND_CID>  (1) 
31014

>  <PUBCHEM_CONFORMER_RMSD>  (1) 
0.6

>  <PUBCHEM_CONFORMER_DIVERSEORDER>  (1) 
60
13
53
41
59
18
34
48
64
55
15
45
21
47
50
8
31
10
58
52
17
14
11
51
39
29
56
62
63
42
28
46
3
49
23
43
19
40
6
30
5
44
35
20
4
24
61
12
36
32
57
27
25
54
7
37
33
2
26
22
1
38
16
9

>  <PUBCHEM_MMFF94_PARTIAL_CHARGES>  (1) 
19
1 -0.36
11 0.08
12 -0.15
13 0.08
14 0.28
15 0.28
16 0.28
2 -0.36
20 0.15
24 0.15
25 0.36
26 0.36
3 -0.36
4 -0.99
5 0.14
6 0.27
7 -0.14
8 0.08
9 -0.15

>  <PUBCHEM_EFFECTIVE_ROTOR_COUNT>  (1) 
5

>  <PUBCHEM_PHARMACOPHORE_FEATURES>  (1) 
6
1 1 acceptor
1 2 acceptor
1 3 acceptor
1 4 cation
1 4 donor
6 7 8 9 11 12 13 rings

>  <PUBCHEM_HEAVY_ATOM_COUNT>  (1) 
16

>  <PUBCHEM_ATOM_DEF_STEREO_COUNT>  (1) 
0

>  <PUBCHEM_ATOM_UDEF_STEREO_COUNT>  (1) 
1

>  <PUBCHEM_BOND_DEF_STEREO_COUNT>  (1) 
0

>  <PUBCHEM_BOND_UDEF_STEREO_COUNT>  (1) 
0

>  <PUBCHEM_ISOTOPIC_ATOM_COUNT>  (1) 
0

>  <PUBCHEM_COMPONENT_COUNT>  (1) 
1

>  <PUBCHEM_CACTVS_TAUTO_COUNT>  (1) 
1

>  <PUBCHEM_CONFORMER_ID>  (1) 
000079260000003C

>  <PUBCHEM_MMFF94_ENERGY>  (1) 
62.6349

>  <PUBCHEM_FEATURE_SELFOVERLAP>  (1) 
30.45

>  <PUBCHEM_SHAPE_FINGERPRINT>  (1) 
10967382 1 18338236097258210862
10980938 120 18412269466473212927
11132069 177 18270959162645436912
11471102 22 18263657301878387731
11578080 2 17272250684190797593
11680986 33 18195798566800937548
12382932 28 18335985384187393515
13140716 1 17978503466651134872
13380535 21 18267026055303591092
14178342 30 18268996569024324235
14223421 5 18339358574313391330
14252887 29 18335429001434341651
14648413 74 18124585384829215222
14790565 3 18121513598044228468
15209294 21 17775004634753683712
15422964 175 18334300889629793323
161256 15 18341058436543811358
16945 1 18337950190123164140
193761 8 18267017254783447020
19784866 170 18410014372540937560
20344682 10 18338790238539669508
20511035 2 18125711288978485972
20871998 22 18408328791314108255
21501502 16 18265903462183650924
22445834 79 18271813457732369811
2334 1 18338793421099834564
23388829 49 18270399533086857413
23558518 356 18115873996751280760
2748010 2 18267013973470670052
3250762 1 18194957448789927620
54173680 148 18048882887906584551
568465 68 18123481732415331066
6049 1 18268712714682756030
81228 2 18041849393929059109

>  <PUBCHEM_SHAPE_MULTIPOLES>  (1) 
306.68
5.71
3.09
1.01
1.34
0.51
-0.35
-1.79
-2.25
-0.6
0.5
0.13
0.19
0.77

>  <PUBCHEM_SHAPE_SELFOVERLAP>  (1) 
623.367

>  <PUBCHEM_SHAPE_VOLUME>  (1) 
180.7

>  <PUBCHEM_COORDINATE_TYPE>  (1) 
2
5
10

$$$$
