31021
     RDKit          3D

 13 14  0  0  1  0  0  0  0  0999 V2000
    1.6946    1.8863   -0.3788 O   0  0  0  0  0  0  0  0  0  0  0  0
   -2.3323    0.4294   -0.3654 N   0  0  0  0  0  0  0  0  0  0  0  0
   -2.5310   -0.7288    0.5146 C   0  0  0  0  0  0  0  0  0  0  0  0
   -1.5110   -1.8207    0.1759 C   0  0  0  0  0  0  0  0  0  0  0  0
   -1.0293    1.0603   -0.0903 C   0  0  0  0  0  0  0  0  0  0  0  0
    0.1239    0.0831   -0.1070 C   0  0  0  0  0  0  0  0  0  0  0  0
   -0.1041   -1.2930    0.0655 C   0  0  0  0  0  0  0  0  0  0  0  0
    1.4377    0.5550   -0.2309 C   0  0  0  0  0  0  0  0  0  0  0  0
    0.9803   -2.1797    0.0744 C   0  0  0  0  0  0  0  0  0  0  0  0
   -3.4136    1.3999   -0.1986 C   0  0  0  0  0  0  0  0  0  0  0  0
    2.5115   -0.3346   -0.2115 C   0  0  0  0  0  0  0  0  0  0  0  0
    2.2830   -1.7006   -0.0612 C   0  0  0  0  0  0  0  0  0  0  0  0
    1.8902    2.6432    0.8132 C   0  0  0  0  0  0  0  0  0  0  0  0
  1  8  1  0
  1 13  1  0
  2  3  1  0
  2  5  1  0
  2 10  1  0
  3  4  1  0
  4  7  1  0
  5  6  1  0
  6  7  2  0
  6  8  1  0
  7  9  1  0
  8 11  2  0
  9 12  2  0
 11 12  1  0
M  END
>  <PUBCHEM_COMPOUND_CID>  (1) 
31021

>  <PUBCHEM_CONFORMER_RMSD>  (1) 
0.6

>  <PUBCHEM_CONFORMER_DIVERSEORDER>  (1) 
1
2
3

>  <PUBCHEM_MMFF94_PARTIAL_CHARGES>  (1) 
16
1 -0.36
10 0.27
11 -0.15
12 -0.15
13 0.28
2 -0.81
20 0.15
24 0.15
25 0.15
3 0.27
4 0.14
5 0.41
6 -0.14
7 -0.14
8 0.08
9 -0.15

>  <PUBCHEM_EFFECTIVE_ROTOR_COUNT>  (1) 
1.8

>  <PUBCHEM_PHARMACOPHORE_FEATURES>  (1) 
4
1 1 acceptor
1 2 cation
6 2 3 4 5 6 7 rings
6 6 7 8 9 11 12 rings

>  <PUBCHEM_HEAVY_ATOM_COUNT>  (1) 
13

>  <PUBCHEM_ATOM_DEF_STEREO_COUNT>  (1) 
0

>  <PUBCHEM_ATOM_UDEF_STEREO_COUNT>  (1) 
0

>  <PUBCHEM_BOND_DEF_STEREO_COUNT>  (1) 
0

>  <PUBCHEM_BOND_UDEF_STEREO_COUNT>  (1) 
0

>  <PUBCHEM_ISOTOPIC_ATOM_COUNT>  (1) 
0

>  <PUBCHEM_COMPONENT_COUNT>  (1) 
1

>  <PUBCHEM_CACTVS_TAUTO_COUNT>  (1) 
1

>  <PUBCHEM_CONFORMER_ID>  (1) 
0000792D00000001

>  <PUBCHEM_MMFF94_ENERGY>  (1) 
43.0775

>  <PUBCHEM_FEATURE_SELFOVERLAP>  (1) 
20.319

>  <PUBCHEM_SHAPE_FINGERPRINT>  (1) 
10130415 120 18044655300041849410
10608611 8 18408603669310787957
10967382 1 18265896852186732263
11471102 20 18265049133470417069
12423570 1 11297812370490592238
13294875 104 17244673721163611273
13380535 76 18194393618441927242
13897977 150 18409727370189035349
14648413 74 18408886243429789953
15490181 7 18196655318039386686
15775835 57 18334305235888458877
16945 1 18411140207891310863
17990270 104 18410013208494108378
193761 8 18338234984861901862
19973954 147 18409171034268926503
20201158 50 18264770961023110351
20510252 161 17694225873139946808
20511035 2 18335146426634617286
20588541 1 18191027806937875134
21501502 16 18408885174067439599
21524375 3 17839745103636821824
220403 375 18123454236161289048
2334 1 18193840568087455845
23402539 116 17910376308580989942
23402655 69 18194954159377904805
23552423 10 18334017232540664471
241688 4 17690845553631429322
25 1 17828196593855658445
2748010 2 18264492956237290367
305870 269 18266167512778923504
5255222 1 18334009458596877508
528886 8 18265049145901859059
53812653 166 18410853252884308344
63268167 104 18337679602651165403
7364860 26 18341894103966911792
81228 2 17474117501234813634

>  <PUBCHEM_SHAPE_MULTIPOLES>  (1) 
256.68
4.27
2.71
0.71
2.43
0.69
-0.05
0.95
0.11
-1.23
-0.42
-0.03
0.13
0.46

>  <PUBCHEM_SHAPE_SELFOVERLAP>  (1) 
537.97

>  <PUBCHEM_SHAPE_VOLUME>  (1) 
146.4

>  <PUBCHEM_COORDINATE_TYPE>  (1) 
2
5
10

$$$$
