31033
     RDKit          3D

 26 28  0  0  1  0  0  0  0  0999 V2000
   -2.4598    0.0993   -2.1667 S   0  0  0  0  0  0  0  0  0  0  0  0
   -2.2464    2.3245    1.6281 O   0  0  0  0  0  0  0  0  0  0  0  0
   -5.7986   -0.8031    1.0782 O   0  0  0  0  0  0  0  0  0  0  0  0
   -3.8322   -1.1192    2.1870 O   0  0  0  0  0  0  0  0  0  0  0  0
    1.6605    0.6431   -1.5990 O   0  0  0  0  0  0  0  0  0  0  0  0
    4.2536    3.9844   -0.2121 O   0  0  0  0  0  0  0  0  0  0  0  0
   -2.4637    0.3097    0.4184 N   0  0  0  0  0  0  0  0  0  0  0  0
    0.5588    1.1379    0.3804 N   0  0  0  0  0  0  0  0  0  0  0  0
    3.9004    1.6552    0.0497 N   0  0  0  0  0  0  0  0  0  0  0  0
   -1.4724    0.0396   -0.6271 C   0  0  0  0  0  0  0  0  0  0  0  0
   -3.9647   -0.5367   -1.2720 C   0  0  0  0  0  0  0  0  0  0  0  0
   -3.8693    0.1263    0.1189 C   0  0  0  0  0  0  0  0  0  0  0  0
   -0.7698    1.3376   -0.2058 C   0  0  0  0  0  0  0  0  0  0  0  0
   -1.8948    1.4768    0.8394 C   0  0  0  0  0  0  0  0  0  0  0  0
   -3.8902   -2.0695   -1.2534 C   0  0  0  0  0  0  0  0  0  0  0  0
   -5.2182   -0.0819   -2.0217 C   0  0  0  0  0  0  0  0  0  0  0  0
   -4.4608   -0.6611    1.2445 C   0  0  0  0  0  0  0  0  0  0  0  0
    1.6815    0.8015   -0.3794 C   0  0  0  0  0  0  0  0  0  0  0  0
    2.9404    0.6277    0.4631 C   0  0  0  0  0  0  0  0  0  0  0  0
    3.4971   -0.7735    0.3193 C   0  0  0  0  0  0  0  0  0  0  0  0
    3.0704   -1.7614    1.1889 C   0  0  0  0  0  0  0  0  0  0  0  0
    4.4200   -1.0334   -0.6780 C   0  0  0  0  0  0  0  0  0  0  0  0
    3.3269    2.9844    0.1959 C   0  0  0  0  0  0  0  0  0  0  0  0
    3.5835   -3.0518    1.0567 C   0  0  0  0  0  0  0  0  0  0  0  0
    4.9330   -2.3237   -0.8103 C   0  0  0  0  0  0  0  0  0  0  0  0
    4.5148   -3.3329    0.0571 C   0  0  0  0  0  0  0  0  0  0  0  0
  1 10  1  0
  1 11  1  0
  2 14  2  0
  3 17  1  0
  4 17  2  0
  5 18  2  0
  6 23  1  0
  7 10  1  0
  7 12  1  0
  7 14  1  0
  8 13  1  0
  8 18  1  0
  9 19  1  0
  9 23  1  0
 10 13  1  0
 11 12  1  0
 11 15  1  0
 11 16  1  0
 12 17  1  0
 13 14  1  0
 18 19  1  0
 19 20  1  0
 20 21  2  0
 20 22  1  0
 21 24  1  0
 22 25  2  0
 24 26  2  0
 25 26  1  0
M  END
>  <PUBCHEM_COMPOUND_CID>  (1) 
31033

>  <PUBCHEM_CONFORMER_RMSD>  (1) 
1

>  <PUBCHEM_CONFORMER_DIVERSEORDER>  (1) 
1
316
599
332
650
370
220
199
484
279
146
528
386
371
489
632
350
412
569
631
168
254
198
429
11
640
58
62
65
55
530
339
335
37
315
187
20
157
311
240
410
414
505
102
259
227
76
91
108
563
343
551
217
144
475
133
469
519
278
532
122
635
63
30
285
446
356
457
506
406
214
303
212
450
103
345
470
577
481
172
218
69
556
384
114
109
188
116
568
277
38
225
307
405
549
127
195
310
459
570
4
265
547
363
202
41
510
301
160
104
49
236
23
582
40
382
287
34
14
19
57
349
130
47
196
85
126
147
485
389
190
404
167
115
3
48
337
234
68
375
61
591
125
280
32
565
5
33
430
330
456
590
21
119
182
181
186
185
26
174
402
201
44
194
149
424
54
497
35
25
8
396
7
655
323
2
517
51
17

>  <PUBCHEM_MMFF94_PARTIAL_CHARGES>  (1) 
33
1 -0.45
10 0.44
11 0.23
12 0.36
13 0.28
14 0.58
17 0.66
18 0.57
19 0.47
2 -0.57
20 -0.14
21 -0.15
22 -0.15
23 0.55
24 -0.15
25 -0.15
26 -0.15
3 -0.65
36 0.37
38 0.5
39 0.36
4 -0.57
40 0.15
41 0.15
44 0.15
45 0.15
46 0.15
47 0.4
5 -0.57
6 -0.68
7 -0.59
8 -0.65
9 -0.9

>  <PUBCHEM_EFFECTIVE_ROTOR_COUNT>  (1) 
7.8

>  <PUBCHEM_PHARMACOPHORE_FEATURES>  (1) 
14
1 2 acceptor
1 3 acceptor
1 4 acceptor
1 5 acceptor
1 6 acceptor
1 6 donor
1 8 donor
1 9 cation
1 9 donor
3 11 15 16 hydrophobe
3 3 4 17 anion
4 7 10 13 14 rings
6 20 21 22 24 25 26 rings
7 1 7 10 11 12 13 14 rings

>  <PUBCHEM_HEAVY_ATOM_COUNT>  (1) 
26

>  <PUBCHEM_ATOM_DEF_STEREO_COUNT>  (1) 
0

>  <PUBCHEM_ATOM_UDEF_STEREO_COUNT>  (1) 
4

>  <PUBCHEM_BOND_DEF_STEREO_COUNT>  (1) 
0

>  <PUBCHEM_BOND_UDEF_STEREO_COUNT>  (1) 
0

>  <PUBCHEM_ISOTOPIC_ATOM_COUNT>  (1) 
0

>  <PUBCHEM_COMPONENT_COUNT>  (1) 
1

>  <PUBCHEM_CACTVS_TAUTO_COUNT>  (1) 
2

>  <PUBCHEM_CONFORMER_ID>  (1) 
0000793900000001

>  <PUBCHEM_MMFF94_ENERGY>  (1) 
70.321

>  <PUBCHEM_FEATURE_SELFOVERLAP>  (1) 
74.872

>  <PUBCHEM_SHAPE_FINGERPRINT>  (1) 
10090160 65 18194959871389515472
10319926 262 14620794881718931062
10622 236 17701511095937188255
10928967 22 18266178327486235758
11315621 136 18339356474407362382
12107183 9 18055080852185384329
12422481 6 17559969727232321439
12553582 1 18120652432032293634
12633257 1 16630526228423236307
12788726 201 17704076222151867577
13009979 54 17773885203584735480
13167823 11 18341615892938577384
13533116 47 18410018744775161185
13631057 29 17695339674292663295
13955234 65 18340486763960406296
14910302 57 17458063785534981803
15250474 111 18202277030697880086
15484559 13 12338111190932476329
15537594 2 18412552023882104142
17349148 13 17988636372417975207
17844677 252 18411135827188362045
17857418 61 18130498652441582462
1813 80 18200312096730313510
19377110 9 18060414755196138720
193927 3 18339081476030103310
20645477 70 18336815459784640502
20693207 138 17821732714797656930
21421861 104 18130238089623374714
22393880 68 17385718058777702739
22907989 373 12973901294576216489
235170 7 17458337559081215655
23557571 272 16950286225898939701
23559900 14 17676207961420608492
23598288 3 17917991655307045637
25222932 49 17770208676491894167
312423 11 18342184340714258352
314194 84 18411420566794014894
34797466 226 16950571020869416317
46194498 28 16588604096060601079
5104073 3 17418373627485214651
5486654 36 18266186019666141834
7970288 3 18124310515687403270
960060 61 17604147013430311134

>  <PUBCHEM_SHAPE_MULTIPOLES>  (1) 
494.63
12.98
3.47
1.74
2.68
1.25
0.11
-6.35
0.41
-6.73
-0.47
2.48
-0.4
-0.6

>  <PUBCHEM_SHAPE_SELFOVERLAP>  (1) 
1034.092

>  <PUBCHEM_SHAPE_VOLUME>  (1) 
282.3

>  <PUBCHEM_COORDINATE_TYPE>  (1) 
2
5
10

$$$$
