3103
     RDKit          3D

 21 23  0  0  0  0  0  0  0  0999 V2000
    0.4779    0.3990   -0.6465 O   0  0  0  0  0  0  0  0  0  0  0  0
    4.6010    0.7263   -0.0041 N   0  0  0  0  0  0  0  0  0  0  0  0
    1.7502    0.0901   -0.0920 C   0  0  0  0  0  0  0  0  0  0  0  0
    2.2874    1.3194    0.6340 C   0  0  0  0  0  0  0  0  0  0  0  0
    2.7129   -0.3328   -1.1979 C   0  0  0  0  0  0  0  0  0  0  0  0
    3.7217    1.0996    1.1133 C   0  0  0  0  0  0  0  0  0  0  0  0
    4.1341   -0.5023   -0.6623 C   0  0  0  0  0  0  0  0  0  0  0  0
   -0.5713    0.1259    0.2721 C   0  0  0  0  0  0  0  0  0  0  0  0
    5.9787    0.5660    0.4605 C   0  0  0  0  0  0  0  0  0  0  0  0
   -1.6945    1.1260    0.0918 C   0  0  0  0  0  0  0  0  0  0  0  0
   -1.0413   -1.3128    0.1776 C   0  0  0  0  0  0  0  0  0  0  0  0
   -2.4730    1.4693    1.1827 C   0  0  0  0  0  0  0  0  0  0  0  0
   -1.5458   -1.9309    1.3068 C   0  0  0  0  0  0  0  0  0  0  0  0
   -1.9158    1.6733   -1.1593 C   0  0  0  0  0  0  0  0  0  0  0  0
   -0.9544   -1.9706   -1.0354 C   0  0  0  0  0  0  0  0  0  0  0  0
   -3.5072    2.3904    1.0169 C   0  0  0  0  0  0  0  0  0  0  0  0
   -1.9784   -3.2541    1.2200 C   0  0  0  0  0  0  0  0  0  0  0  0
   -2.9500    2.5946   -1.3250 C   0  0  0  0  0  0  0  0  0  0  0  0
   -1.3871   -3.2938   -1.1221 C   0  0  0  0  0  0  0  0  0  0  0  0
   -3.7458    2.9531   -0.2368 C   0  0  0  0  0  0  0  0  0  0  0  0
   -1.8992   -3.9355    0.0057 C   0  0  0  0  0  0  0  0  0  0  0  0
  1  3  1  0
  1  8  1  0
  2  6  1  0
  2  7  1  0
  2  9  1  0
  3  4  1  0
  3  5  1  0
  4  6  1  0
  5  7  1  0
  8 10  1  0
  8 11  1  0
 10 12  2  0
 10 14  1  0
 11 13  2  0
 11 15  1  0
 12 16  1  0
 13 17  1  0
 14 18  2  0
 15 19  2  0
 16 20  2  0
 17 21  2  0
 18 20  1  0
 19 21  1  0
M  END
>  <PUBCHEM_COMPOUND_CID>  (1) 
3103

>  <PUBCHEM_CONFORMER_RMSD>  (1) 
0.8

>  <PUBCHEM_CONFORMER_DIVERSEORDER>  (1) 
1
12
14
10
11
5
8
7
9
13
4
3
2
6

>  <PUBCHEM_MMFF94_PARTIAL_CHARGES>  (1) 
29
1 -0.56
10 -0.14
11 -0.14
12 -0.15
13 -0.15
14 -0.15
15 -0.15
16 -0.15
17 -0.15
18 -0.15
19 -0.15
2 -0.81
20 -0.15
21 -0.15
3 0.28
35 0.15
36 0.15
37 0.15
38 0.15
39 0.15
40 0.15
41 0.15
42 0.15
43 0.15
44 0.15
6 0.27
7 0.27
8 0.57
9 0.27

>  <PUBCHEM_EFFECTIVE_ROTOR_COUNT>  (1) 
5.2

>  <PUBCHEM_PHARMACOPHORE_FEATURES>  (1) 
5
1 1 acceptor
1 2 cation
6 10 12 14 16 18 20 rings
6 11 13 15 17 19 21 rings
6 2 3 4 5 6 7 rings

>  <PUBCHEM_HEAVY_ATOM_COUNT>  (1) 
21

>  <PUBCHEM_ATOM_DEF_STEREO_COUNT>  (1) 
0

>  <PUBCHEM_ATOM_UDEF_STEREO_COUNT>  (1) 
0

>  <PUBCHEM_BOND_DEF_STEREO_COUNT>  (1) 
0

>  <PUBCHEM_BOND_UDEF_STEREO_COUNT>  (1) 
0

>  <PUBCHEM_ISOTOPIC_ATOM_COUNT>  (1) 
0

>  <PUBCHEM_COMPONENT_COUNT>  (1) 
1

>  <PUBCHEM_CACTVS_TAUTO_COUNT>  (1) 
1

>  <PUBCHEM_CONFORMER_ID>  (1) 
00000C1F00000001

>  <PUBCHEM_MMFF94_ENERGY>  (1) 
51.6042

>  <PUBCHEM_FEATURE_SELFOVERLAP>  (1) 
25.373

>  <PUBCHEM_SHAPE_FINGERPRINT>  (1) 
11101153 10 17829895691819919588
11405975 8 18410570691887591984
121448 382 18339909455751790933
12500047 106 18411416194416651968
12532896 13 18339077086409684919
12549972 3 17845638344470452434
12553582 1 17762635274949479734
12643181 29 18268717122221892606
12714826 92 18198639898136430774
12730499 353 18049168761695255833
12788726 201 18265877211571008291
13004483 165 18051130590453630403
13140716 1 18049448337821200515
13583140 156 16587738724691277076
13681431 1 17327456333813004619
14178000 22 18335135337145116429
14178342 30 18334011726967610450
14468879 13 16697470075389915760
15042514 8 18264777734598174963
15230672 131 18263088713609606422
17093844 174 18343293791808642976
17539 30 18267857462135036567
17980427 23 16515980164110286333
1813 80 17762915645929652127
19784866 34 18125722288369170969
20197701 30 18337388219638453517
20554085 129 17983270682781706505
21033648 29 18265320729975874408
21120745 212 17903381516326675437
21304303 282 17832093434572934253
21339142 126 18268430320267000443
21524375 3 18264772069303708967
21731228 192 18336271120003724721
22224240 67 18339653239847409657
22907989 373 18337677545462155477
22956985 138 9690335295667099423
23419403 2 17403506950520042099
23558518 356 18116434941361442688
23598288 3 18042141983958878350
283562 15 18191576669710159394
312423 11 17897452907339137788
3380486 145 17623559161664388255
3729539 64 17690579493641121054
3759504 43 18410293575348001829
5104073 3 18338506535334932048
59755656 520 18338511950217800085
633830 44 17772194102549944669
7364860 26 17618222806764812685
7399639 24 17624685048992427504
7615 1 17604717806157253052
77188 2 17760649570092677991
81228 2 18263924517642673331
84936 182 17765714624666538201
90316 7 18051990395740835691
9862522 239 18335147457801269315
9981440 41 16769247306953456536

>  <PUBCHEM_SHAPE_MULTIPOLES>  (1) 
421.32
8.44
4.41
1.35
14.65
3.89
0.02
-5.98
-0.9
-6.87
0.08
-0.51
0.07
0.93

>  <PUBCHEM_SHAPE_SELFOVERLAP>  (1) 
894.775

>  <PUBCHEM_SHAPE_VOLUME>  (1) 
234.5

>  <PUBCHEM_COORDINATE_TYPE>  (1) 
2
5
10

$$$$
