31048
     RDKit          3D

 21 24  0  0  1  0  0  0  0  0999 V2000
    0.4575   -2.7591   -0.1235 O   0  0  0  0  0  0  0  0  0  0  0  0
   -4.2945   -1.0432   -0.8807 O   0  0  0  0  0  0  0  0  0  0  0  0
    0.5661   -0.3139    0.0243 C   0  0  0  0  0  0  0  0  0  0  0  0
   -0.3287    0.9640   -0.0838 C   0  0  0  0  0  0  0  0  0  0  0  0
   -1.6261    0.8774    0.7752 C   0  0  0  0  0  0  0  0  0  0  0  0
    1.9105   -0.1627   -0.8149 C   0  0  0  0  0  0  0  0  0  0  0  0
   -2.4164   -0.4412    0.6179 C   0  0  0  0  0  0  0  0  0  0  0  0
    2.6549    1.1464   -0.3834 C   0  0  0  0  0  0  0  0  0  0  0  0
   -0.2876   -1.5607   -0.3163 C   0  0  0  0  0  0  0  0  0  0  0  0
   -1.5083   -1.6721    0.5957 C   0  0  0  0  0  0  0  0  0  0  0  0
    0.4612    2.2300    0.3040 C   0  0  0  0  0  0  0  0  0  0  0  0
   -2.6627    1.9399    0.3458 C   0  0  0  0  0  0  0  0  0  0  0  0
   -3.1625   -0.2079   -0.7132 C   0  0  0  0  0  0  0  0  0  0  0  0
    1.7562    2.3823   -0.4801 C   0  0  0  0  0  0  0  0  0  0  0  0
    2.9265   -1.3307   -0.6358 C   0  0  0  0  0  0  0  0  0  0  0  0
   -3.5839    1.2608   -0.6719 C   0  0  0  0  0  0  0  0  0  0  0  0
    3.2733    1.0437    1.0305 C   0  0  0  0  0  0  0  0  0  0  0  0
    1.6017   -0.1067   -2.3346 C   0  0  0  0  0  0  0  0  0  0  0  0
   -3.4154   -0.6301    1.7871 C   0  0  0  0  0  0  0  0  0  0  0  0
    3.4890   -1.4522    0.7753 C   0  0  0  0  0  0  0  0  0  0  0  0
    4.1893   -0.1642    1.1826 C   0  0  0  0  0  0  0  0  0  0  0  0
  1  9  1  0
  2 13  1  0
  3  4  1  0
  3  6  1  0
  3  9  1  0
  4  5  1  0
  4 11  1  0
  5  7  1  0
  5 12  1  0
  6  8  1  0
  6 15  1  0
  6 18  1  0
  7 10  1  0
  7 13  1  0
  7 19  1  0
  8 14  1  0
  8 17  1  0
  9 10  1  0
 11 14  1  0
 12 16  1  0
 13 16  1  0
 15 20  1  0
 17 21  1  0
 20 21  1  0
M  END
>  <PUBCHEM_COMPOUND_CID>  (1) 
31048

>  <PUBCHEM_CONFORMER_RMSD>  (1) 
0.6

>  <PUBCHEM_CONFORMER_DIVERSEORDER>  (1) 
2
48
14
39
49
30
11
17
35
45
38
31
43
32
50
26
6
58
57
29
8
52
19
5
54
28
21
23
16
27
13
24
33
15
10
47
22
9
4
41
40
56
37
20
44
18
12
53
36
59
3
34
46
25
55
7
1
51
42

>  <PUBCHEM_MMFF94_PARTIAL_CHARGES>  (1) 
6
1 -0.68
13 0.28
2 -0.68
52 0.4
53 0.4
9 0.28

>  <PUBCHEM_EFFECTIVE_ROTOR_COUNT>  (1) 
2.2

>  <PUBCHEM_PHARMACOPHORE_FEATURES>  (1) 
8
1 1 acceptor
1 1 donor
1 2 acceptor
1 2 donor
5 5 7 12 13 16 rings
6 3 4 5 7 9 10 rings
6 3 4 6 8 11 14 rings
6 6 8 15 17 20 21 rings

>  <PUBCHEM_HEAVY_ATOM_COUNT>  (1) 
21

>  <PUBCHEM_ATOM_DEF_STEREO_COUNT>  (1) 
3

>  <PUBCHEM_ATOM_UDEF_STEREO_COUNT>  (1) 
5

>  <PUBCHEM_BOND_DEF_STEREO_COUNT>  (1) 
0

>  <PUBCHEM_BOND_UDEF_STEREO_COUNT>  (1) 
0

>  <PUBCHEM_ISOTOPIC_ATOM_COUNT>  (1) 
0

>  <PUBCHEM_COMPONENT_COUNT>  (1) 
1

>  <PUBCHEM_CACTVS_TAUTO_COUNT>  (1) 
1

>  <PUBCHEM_CONFORMER_ID>  (1) 
0000794800000002

>  <PUBCHEM_MMFF94_ENERGY>  (1) 
76.7256

>  <PUBCHEM_FEATURE_SELFOVERLAP>  (1) 
40.814

>  <PUBCHEM_SHAPE_FINGERPRINT>  (1) 
10062212 137 18338789036128142267
10366900 7 17845934147184002336
10759866 29 17896610659678005972
10967382 1 18339365282841453928
11132069 177 18343017757368527297
11370993 70 18409719656095507922
11578080 2 17313646223208710932
11615756 56 18411420626495840833
12011746 2 18341327821619996364
12077114 3 18335695057177460681
12403259 226 18334851727796480549
12403260 363 18409719686402761621
12553582 1 18339659896138979793
12596599 1 17703523124911198767
128620 24 14476959016682654624
13132413 78 18410288134099139428
13140716 1 18339089180874424096
13172582 1 18411991251460751280
13224815 77 17989210351747061865
13296908 3 18408893922852420633
13583140 156 17313662775500478865
14178342 30 18269848514368156729
14223421 5 18045791344719357050
14289901 80 14979955861016497087
14787075 74 17702931673180319752
15196674 1 18411695469958656992
16945 1 18339091495866622709
17349148 13 18343009021399817990
17492 89 18413385453696406591
17834072 14 18410284792208375296
1813 80 13612308446490471948
18186145 218 18131084713587422311
192875 21 18411128156402917533
200 152 18130497600786225757
20559304 39 18261688055141371274
20905425 154 17690562983633399270
23184049 29 18265338484974264186
2334 1 18339934778325196760
23402539 116 18272355465140172532
23419403 2 16602873356313119225
23557571 272 17418096515999857243
23559900 14 18340774720121751414
2748010 2 18340219513165994612
296302 2 18334855026268099204
3286 77 18261104201582101287
5104073 3 18410575080574159225
74978 22 18261117399726516048
81228 2 17980216187808365232
9709674 26 18411983571969860462

>  <PUBCHEM_SHAPE_MULTIPOLES>  (1) 
420.43
7.06
2.38
1.41
1.16
0.17
0.27
-0.54
-1.15
-0.26
-0.04
-0.21
-0.14
0.11

>  <PUBCHEM_SHAPE_SELFOVERLAP>  (1) 
890.369

>  <PUBCHEM_SHAPE_VOLUME>  (1) 
233.2

>  <PUBCHEM_COORDINATE_TYPE>  (1) 
2
5
10

$$$$
