31045
     RDKit          3D

 10 10  0  0  1  0  0  0  0  0999 V2000
   -0.5478   -0.7655    0.2955 O   0  0  0  0  0  0  0  0  0  0  0  0
   -2.1513    0.5194   -0.7635 O   0  0  0  0  0  0  0  0  0  0  0  0
    1.8008   -0.2573    0.4846 N   0  0  0  0  0  0  0  0  0  0  0  0
    2.1801   -1.5177   -0.1329 C   0  0  0  0  0  0  0  0  0  0  0  0
    2.7890   -0.2213   -0.5814 C   0  0  0  0  0  0  0  0  0  0  0  0
    0.4974    0.1839   -0.0133 C   0  0  0  0  0  0  0  0  0  0  0  0
    0.1077    1.4865    0.6262 C   0  0  0  0  0  0  0  0  0  0  0  0
   -1.8083   -0.4731   -0.1358 C   0  0  0  0  0  0  0  0  0  0  0  0
   -0.1246    2.6149   -0.0548 C   0  0  0  0  0  0  0  0  0  0  0  0
   -2.7430   -1.5699    0.2754 C   0  0  0  0  0  0  0  0  0  0  0  0
  1  6  1  0
  1  8  1  0
  2  8  2  0
  3  4  1  0
  3  5  1  0
  3  6  1  0
  4  5  1  0
  6  7  1  0
  7  9  2  0
  8 10  1  0
M  END
>  <PUBCHEM_COMPOUND_CID>  (1) 
31045

>  <PUBCHEM_CONFORMER_RMSD>  (1) 
0.6

>  <PUBCHEM_CONFORMER_DIVERSEORDER>  (1) 
1
16
4
11
12
15
14
13
2
17
8
7
5
6
10
18
3
9

>  <PUBCHEM_MMFF94_PARTIAL_CHARGES>  (1) 
17
1 -0.43
10 0.06
11 0.1
12 0.1
13 0.1
14 0.1
16 0.15
17 0.15
18 0.15
2 -0.57
3 -0.59
4 -0.04
5 -0.04
6 0.69
7 -0.29
8 0.66
9 -0.3

>  <PUBCHEM_EFFECTIVE_ROTOR_COUNT>  (1) 
4.6

>  <PUBCHEM_PHARMACOPHORE_FEATURES>  (1) 
3
1 2 acceptor
1 3 cation
1 9 hydrophobe

>  <PUBCHEM_HEAVY_ATOM_COUNT>  (1) 
10

>  <PUBCHEM_ATOM_DEF_STEREO_COUNT>  (1) 
0

>  <PUBCHEM_ATOM_UDEF_STEREO_COUNT>  (1) 
1

>  <PUBCHEM_BOND_DEF_STEREO_COUNT>  (1) 
0

>  <PUBCHEM_BOND_UDEF_STEREO_COUNT>  (1) 
0

>  <PUBCHEM_ISOTOPIC_ATOM_COUNT>  (1) 
0

>  <PUBCHEM_COMPONENT_COUNT>  (1) 
1

>  <PUBCHEM_CACTVS_TAUTO_COUNT>  (1) 
1

>  <PUBCHEM_CONFORMER_ID>  (1) 
0000794500000001

>  <PUBCHEM_MMFF94_ENERGY>  (1) 
20.7458

>  <PUBCHEM_FEATURE_SELFOVERLAP>  (1) 
15.223

>  <PUBCHEM_SHAPE_FINGERPRINT>  (1) 
1 1 17691686005664363476
12897270 3 18411141307851162830
14128692 85 18335993067778176620
14390081 3 8141817074960125071
161256 15 18118963835179298733
20645477 70 17979347887746073503
20653085 51 16589160307326061108
20653091 64 18197787802093982705
20711978 78 18053092110749722453
20711985 344 18197495112883893400
21028194 46 10953464024378847710
21040471 1 17547570375512571488
22082395 3 18265613191277422249
23552423 10 18189058590455832754
2748010 2 18340475750946678309
29004967 10 18343016722413388314
81228 2 18196932180042094496

>  <PUBCHEM_SHAPE_MULTIPOLES>  (1) 
189.08
3.81
2.2
0.75
0.12
1.44
0.02
-2.39
0.47
0.26
-0.1
0
0.06
0.24

>  <PUBCHEM_SHAPE_SELFOVERLAP>  (1) 
365.108

>  <PUBCHEM_SHAPE_VOLUME>  (1) 
115

>  <PUBCHEM_COORDINATE_TYPE>  (1) 
2
5
10

$$$$
