31056
     RDKit          3D

 15 16  0  0  1  0  0  0  0  0999 V2000
   -0.6344   -0.1708    0.3174 N   0  0  0  0  0  0  0  0  0  0  0  0
   -4.3678   -0.3401    0.1528 N   0  0  0  0  0  0  0  0  0  0  0  0
    2.0569    0.7752   -0.3387 C   0  0  0  0  0  0  0  0  0  0  0  0
    1.8059   -0.5910    0.3233 C   0  0  0  0  0  0  0  0  0  0  0  0
    0.9222    1.7369    0.0239 C   0  0  0  0  0  0  0  0  0  0  0  0
    3.4270    1.3313    0.0628 C   0  0  0  0  0  0  0  0  0  0  0  0
    2.9163   -1.5804   -0.0521 C   0  0  0  0  0  0  0  0  0  0  0  0
    0.4181   -1.1256   -0.0637 C   0  0  0  0  0  0  0  0  0  0  0  0
    4.5433    0.3466   -0.2823 C   0  0  0  0  0  0  0  0  0  0  0  0
    4.2936   -1.0334    0.3215 C   0  0  0  0  0  0  0  0  0  0  0  0
   -0.4392    1.1329   -0.3317 C   0  0  0  0  0  0  0  0  0  0  0  0
   -1.9555   -0.7099   -0.0046 C   0  0  0  0  0  0  0  0  0  0  0  0
   -3.0620    0.2000    0.5085 C   0  0  0  0  0  0  0  0  0  0  0  0
   -4.4860   -0.4911   -1.2989 C   0  0  0  0  0  0  0  0  0  0  0  0
   -5.4383    0.5194    0.6618 C   0  0  0  0  0  0  0  0  0  0  0  0
  1  8  1  0
  1 11  1  0
  1 12  1  0
  2 13  1  0
  2 14  1  0
  2 15  1  0
  3  4  1  0
  3  5  1  0
  3  6  1  0
  4  7  1  0
  4  8  1  0
  5 11  1  0
  6  9  1  0
  7 10  1  0
  9 10  1  0
 12 13  1  0
M  END
>  <PUBCHEM_COMPOUND_CID>  (1) 
31056

>  <PUBCHEM_CONFORMER_RMSD>  (1) 
0.6

>  <PUBCHEM_CONFORMER_DIVERSEORDER>  (1) 
27
33
42
76
49
7
24
5
56
32
74
59
23
71
68
79
40
67
63
82
20
2
10
75
17
51
46
54
60
62
11
16
25
41
73
38
53
43
21
70
78
69
36
8
9
80
44
1
61
58
18
30
81
45
12
35
66
15
52
55
47
64
14
77
6
28
57
37
31
48
19
29
13
72
39
22
3
65
50
26
34
4

>  <PUBCHEM_MMFF94_PARTIAL_CHARGES>  (1) 
8
1 -0.81
11 0.27
12 0.27
13 0.27
14 0.27
15 0.27
2 -0.81
8 0.27

>  <PUBCHEM_EFFECTIVE_ROTOR_COUNT>  (1) 
4.6

>  <PUBCHEM_PHARMACOPHORE_FEATURES>  (1) 
4
1 1 cation
1 2 cation
6 1 3 4 5 8 11 rings
6 3 4 6 7 9 10 rings

>  <PUBCHEM_HEAVY_ATOM_COUNT>  (1) 
15

>  <PUBCHEM_ATOM_DEF_STEREO_COUNT>  (1) 
0

>  <PUBCHEM_ATOM_UDEF_STEREO_COUNT>  (1) 
2

>  <PUBCHEM_BOND_DEF_STEREO_COUNT>  (1) 
0

>  <PUBCHEM_BOND_UDEF_STEREO_COUNT>  (1) 
0

>  <PUBCHEM_ISOTOPIC_ATOM_COUNT>  (1) 
0

>  <PUBCHEM_COMPONENT_COUNT>  (1) 
1

>  <PUBCHEM_CACTVS_TAUTO_COUNT>  (1) 
1

>  <PUBCHEM_CONFORMER_ID>  (1) 
000079500000001B

>  <PUBCHEM_MMFF94_ENERGY>  (1) 
21.4452

>  <PUBCHEM_FEATURE_SELFOVERLAP>  (1) 
20.315

>  <PUBCHEM_SHAPE_FINGERPRINT>  (1) 
11287383 113 16226056616622296533
11401426 45 18412541032970609409
11471102 20 18408039628472408364
12236239 1 18060702792972242563
13167823 11 18131348644023805023
13675066 3 17967817184265393617
13760787 5 18409165519562489237
13862211 1 18409442566607772290
14115302 16 17458357350512184830
14251717 144 18411417310723202526
14252887 29 18272097063034029710
14573314 32 17385716968151096943
14576447 43 18128806611774084695
14993402 34 18272370896905023462
15196674 1 18409731798157925211
15375358 24 18113619005850760810
15848700 24 18410853252931813668
17834072 33 18202561808657012551
18186145 218 17821726143919609323
18522853 276 18413390921088819961
200 152 18272649052283360393
20279233 1 17603873307674600115
20645477 70 18408323267812501450
21267235 1 18337399249257212698
22646028 1 18131628998013830327
23402539 116 17632855322203080885
23402655 69 18412825806445319294
23557571 272 14620528791573355889
23559900 14 17894916230892581890
26918003 58 18040154024144533146
2871803 45 18187081720267806762
300161 21 18060414712256657401
33824 294 18334294254148102706
34934 24 18338513148988305658
42 15 18408045104386912209
449060 62 18411140264247897768
5104073 3 18411138082198991915
522135 26 18408042905458667114
5374978 207 18334008385393104304
537710 114 18409454695690088924
542803 24 17917996074917420787
602551 16 15410319074556703855
69090 78 18412823607454010935
8272917 22 18343027644388959375

>  <PUBCHEM_SHAPE_MULTIPOLES>  (1) 
298.73
10.64
1.51
0.81
9.12
0.17
0.12
-0.61
-0.12
-1.26
0.02
0.65
-0.03
-0.48

>  <PUBCHEM_SHAPE_SELFOVERLAP>  (1) 
590.484

>  <PUBCHEM_SHAPE_VOLUME>  (1) 
174.9

>  <PUBCHEM_COORDINATE_TYPE>  (1) 
2
5
10

$$$$
