31057
     RDKit          3D

 22 24  0  0  1  0  0  0  0  0999 V2000
    0.4554   -0.0769   -0.3814 O   0  0  0  0  0  0  0  0  0  0  0  0
   -5.6509    1.1699    0.1170 O   0  0  0  0  0  0  0  0  0  0  0  0
    1.0390   -2.7192   -0.2620 N   0  0  0  0  0  0  0  0  0  0  0  0
   -0.2556   -2.3293   -0.1774 N   0  0  0  0  0  0  0  0  0  0  0  0
    2.0884   -1.7928    0.1912 C   0  0  0  0  0  0  0  0  0  0  0  0
    1.8150   -0.5025   -0.5990 C   0  0  0  0  0  0  0  0  0  0  0  0
    2.7876    0.6206   -0.3006 C   0  0  0  0  0  0  0  0  0  0  0  0
    2.0832   -1.6063    1.7161 C   0  0  0  0  0  0  0  0  0  0  0  0
   -0.4803   -1.0531   -0.2404 C   0  0  0  0  0  0  0  0  0  0  0  0
    1.2991   -4.1079    0.0975 C   0  0  0  0  0  0  0  0  0  0  0  0
    2.5137    1.5276    0.7237 C   0  0  0  0  0  0  0  0  0  0  0  0
    3.9579    0.7483   -1.0495 C   0  0  0  0  0  0  0  0  0  0  0  0
   -1.8398   -0.4687   -0.1459 C   0  0  0  0  0  0  0  0  0  0  0  0
    3.4090    2.5613    0.9987 C   0  0  0  0  0  0  0  0  0  0  0  0
    4.8532    1.7820   -0.7744 C   0  0  0  0  0  0  0  0  0  0  0  0
   -2.9524   -1.2986    0.0187 C   0  0  0  0  0  0  0  0  0  0  0  0
   -2.0169    0.9159   -0.2212 C   0  0  0  0  0  0  0  0  0  0  0  0
    4.5787    2.6884    0.2497 C   0  0  0  0  0  0  0  0  0  0  0  0
   -4.2313   -0.7486    0.1073 C   0  0  0  0  0  0  0  0  0  0  0  0
   -3.2957    1.4659   -0.1325 C   0  0  0  0  0  0  0  0  0  0  0  0
   -4.4029    0.6336    0.0318 C   0  0  0  0  0  0  0  0  0  0  0  0
   -5.7545    2.5905    0.0324 C   0  0  0  0  0  0  0  0  0  0  0  0
  1  6  1  0
  1  9  1  0
  2 21  1  0
  2 22  1  0
  3  4  1  0
  3  5  1  0
  3 10  1  0
  4  9  2  0
  5  6  1  0
  5  8  1  0
  6  7  1  0
  7 11  2  0
  7 12  1  0
  9 13  1  0
 11 14  1  0
 12 15  2  0
 13 16  2  0
 13 17  1  0
 14 18  2  0
 15 18  1  0
 16 19  1  0
 17 20  2  0
 19 21  2  0
 20 21  1  0
M  END
>  <PUBCHEM_COMPOUND_CID>  (1) 
31057

>  <PUBCHEM_CONFORMER_RMSD>  (1) 
0.6

>  <PUBCHEM_CONFORMER_DIVERSEORDER>  (1) 
21
30
29
8
5
18
2
24
7
27
10
13
3
28
19
31
22
1
11
20
15
12
16
17
6
4
25
9
26
14
23

>  <PUBCHEM_MMFF94_PARTIAL_CHARGES>  (1) 
30
1 -0.43
10 0.27
11 -0.15
12 -0.15
13 0.09
14 -0.15
15 -0.15
16 -0.15
17 -0.15
18 -0.15
19 -0.15
2 -0.36
20 -0.15
21 0.08
22 0.28
3 -0.49
31 0.15
32 0.15
33 0.15
34 0.15
35 0.15
36 0.15
37 0.15
38 0.15
39 0.15
4 -0.5
5 0.27
6 0.42
7 -0.14
9 0.51

>  <PUBCHEM_EFFECTIVE_ROTOR_COUNT>  (1) 
3.8

>  <PUBCHEM_PHARMACOPHORE_FEATURES>  (1) 
4
1 2 acceptor
6 1 3 4 5 6 9 rings
6 13 16 17 19 20 21 rings
6 7 11 12 14 15 18 rings

>  <PUBCHEM_HEAVY_ATOM_COUNT>  (1) 
22

>  <PUBCHEM_ATOM_DEF_STEREO_COUNT>  (1) 
0

>  <PUBCHEM_ATOM_UDEF_STEREO_COUNT>  (1) 
2

>  <PUBCHEM_BOND_DEF_STEREO_COUNT>  (1) 
0

>  <PUBCHEM_BOND_UDEF_STEREO_COUNT>  (1) 
0

>  <PUBCHEM_ISOTOPIC_ATOM_COUNT>  (1) 
0

>  <PUBCHEM_COMPONENT_COUNT>  (1) 
1

>  <PUBCHEM_CACTVS_TAUTO_COUNT>  (1) 
1

>  <PUBCHEM_CONFORMER_ID>  (1) 
0000795100000015

>  <PUBCHEM_MMFF94_ENERGY>  (1) 
74.1159

>  <PUBCHEM_FEATURE_SELFOVERLAP>  (1) 
20.297

>  <PUBCHEM_SHAPE_FINGERPRINT>  (1) 
10165383 225 18335427876400921044
10382601 240 17894907417302912818
10411042 1 17618505376473900614
10498660 4 18342459261444326825
11595378 159 16153703172621650885
11720765 8 17631180702012548180
12173636 292 18267300031183000686
12390115 104 18269009732782334657
12403259 327 15647061507249972788
12403259 415 18269566081555618892
12730499 353 18410586075864275715
12769317 202 18343294860148145633
12788726 201 17032484839192608066
13140716 1 18335134276241026955
138480 1 18050849910072321222
13878862 14 18046043992461581677
13955234 65 18265338313371069811
13965767 371 18187630423762037820
14123255 52 18339922722557445902
14178342 30 17968101987942355803
14251764 38 17901370217971604885
14251764 75 18341342162131598593
14341114 328 16805603728225000088
14461889 52 18041290937085942931
14528608 73 18343297081178721557
146900 427 18342185453500788929
14790565 3 18264496259025794125
14848178 96 18413388739388196041
15196674 1 18411420630748636221
17868525 174 17685485460337254705
19784866 170 18334581256631529213
19784866 34 18412542141088112929
20567600 9 18341621364801213608
20739085 24 18113901529010397476
21033648 29 18270115858923893912
21452121 103 18411696578329186274
21524375 3 18334293219060945106
21756936 100 18197489834896698236
21864079 5 18342733044139391293
22393880 68 18343304772990122221
23558518 356 17541655462764699928
23559900 14 18196931068104753755
23845131 108 18334856143128771779
2637199 183 18411705417519476962
268830 7 18263072237665866845
2838139 119 18129093601584008348
2916195 48 18057882644405397568
34797466 226 17917999352473593549
350125 39 18335701599029909044
394222 165 18260259772499687082
474 4 18412261714231005395
5104073 3 18260834757278246513
59124914 9 18412265043047320848
59755656 520 18263639722983388302
633830 44 18272365403752622116
6442390 28 18337675329475346918
67856867 119 18337946797152039995
7364860 26 18339080367854817910
77188 2 17689716364096753022
7808743 9 17976820106128989716
7970288 3 9511197230198618044
84936 182 18342176635526637576
9841814 1 17898567570873517282
9981440 41 18336264647293097867
9999458 23 18337393738640397950

>  <PUBCHEM_SHAPE_MULTIPOLES>  (1) 
431.05
11.15
3.82
0.94
9.96
2.36
0.21
-11.54
-0.29
-2.11
0.48
-0.91
0
-0.07

>  <PUBCHEM_SHAPE_SELFOVERLAP>  (1) 
925.136

>  <PUBCHEM_SHAPE_VOLUME>  (1) 
236.6

>  <PUBCHEM_COORDINATE_TYPE>  (1) 
2
5
10

$$$$
