31054
     RDKit          3D

 18 19  0  0  0  0  0  0  0  0999 V2000
    0.3764    2.1173   -1.3369 S   0  0  0  0  0  0  0  0  0  0  0  0
   -3.6354    0.1774    0.0014 N   0  0  0  0  0  0  0  0  0  0  0  0
    0.0273   -0.4506   -0.4511 N   0  0  0  0  0  0  0  0  0  0  0  0
    1.7081   -1.8704    0.4641 N   0  0  0  0  0  0  0  0  0  0  0  0
   -2.2284    0.1068    0.3738 C   0  0  0  0  0  0  0  0  0  0  0  0
   -1.3965   -0.3990   -0.7957 C   0  0  0  0  0  0  0  0  0  0  0  0
   -4.4424    0.6636    1.1224 C   0  0  0  0  0  0  0  0  0  0  0  0
   -4.1190   -1.1321   -0.4408 C   0  0  0  0  0  0  0  0  0  0  0  0
    0.8895    0.6473   -0.6660 C   0  0  0  0  0  0  0  0  0  0  0  0
   -3.9583    2.0228    1.5985 C   0  0  0  0  0  0  0  0  0  0  0  0
   -5.5667   -1.0579   -0.8953 C   0  0  0  0  0  0  0  0  0  0  0  0
    2.3169    0.4065   -0.2491 C   0  0  0  0  0  0  0  0  0  0  0  0
    0.4946   -1.6335    0.0986 C   0  0  0  0  0  0  0  0  0  0  0  0
    2.6479   -0.8456    0.2948 C   0  0  0  0  0  0  0  0  0  0  0  0
    3.3243    1.3778   -0.3821 C   0  0  0  0  0  0  0  0  0  0  0  0
    3.9687   -1.1036    0.6915 C   0  0  0  0  0  0  0  0  0  0  0  0
    4.6348    1.1067    0.0177 C   0  0  0  0  0  0  0  0  0  0  0  0
    4.9579   -0.1335    0.5541 C   0  0  0  0  0  0  0  0  0  0  0  0
  1  9  2  0
  2  5  1  0
  2  7  1  0
  2  8  1  0
  3  6  1  0
  3  9  1  0
  3 13  1  0
  4 13  2  0
  4 14  1  0
  5  6  1  0
  7 10  1  0
  8 11  1  0
  9 12  1  0
 12 14  2  0
 12 15  1  0
 14 16  1  0
 15 17  2  0
 16 18  2  0
 17 18  1  0
M  END
>  <PUBCHEM_COMPOUND_CID>  (1) 
31054

>  <PUBCHEM_CONFORMER_RMSD>  (1) 
0.6

>  <PUBCHEM_CONFORMER_DIVERSEORDER>  (1) 
2
21
7
11
15
20
8
26
1
14
12
13
16
19
3
9
17
18
22
10
4
23
5
6
24
25

>  <PUBCHEM_MMFF94_PARTIAL_CHARGES>  (1) 
21
1 -0.38
12 0.09
13 0.45
14 0.18
15 -0.15
16 -0.15
17 -0.15
18 -0.15
2 -0.81
3 -0.42
33 0.06
34 0.15
35 0.15
36 0.15
37 0.15
4 -0.63
5 0.27
6 0.3
7 0.27
8 0.27
9 0.35

>  <PUBCHEM_EFFECTIVE_ROTOR_COUNT>  (1) 
5

>  <PUBCHEM_PHARMACOPHORE_FEATURES>  (1) 
5
1 1 acceptor
1 2 cation
3 3 4 13 cation
6 12 14 15 16 17 18 rings
6 3 4 9 12 13 14 rings

>  <PUBCHEM_HEAVY_ATOM_COUNT>  (1) 
18

>  <PUBCHEM_ATOM_DEF_STEREO_COUNT>  (1) 
0

>  <PUBCHEM_ATOM_UDEF_STEREO_COUNT>  (1) 
0

>  <PUBCHEM_BOND_DEF_STEREO_COUNT>  (1) 
0

>  <PUBCHEM_BOND_UDEF_STEREO_COUNT>  (1) 
0

>  <PUBCHEM_ISOTOPIC_ATOM_COUNT>  (1) 
0

>  <PUBCHEM_COMPONENT_COUNT>  (1) 
1

>  <PUBCHEM_CACTVS_TAUTO_COUNT>  (1) 
1

>  <PUBCHEM_CONFORMER_ID>  (1) 
0000794E00000002

>  <PUBCHEM_MMFF94_ENERGY>  (1) 
49.1615

>  <PUBCHEM_FEATURE_SELFOVERLAP>  (1) 
25.399

>  <PUBCHEM_SHAPE_FINGERPRINT>  (1) 
10688039 33 17313099730989641117
10912923 1 18413106160535844539
11471102 20 18186797002527432318
12107183 9 17694225469755665779
12236239 1 18343579659735128415
12596602 18 18201998854255779881
12670546 56 18342735234551892561
12916748 109 17703512176622927039
13140716 1 18043524113837114170
13544653 18 17530964657213627653
13862211 1 18187075140488971482
14252887 29 17749393628956440778
14341114 328 18201445757005009785
14386348 63 16588023511335140475
14790565 3 18044107954317174756
15209294 21 18271530814408575249
15475509 8 18196963031710105916
15788980 27 15068622703658185307
16945 1 18188192270441561998
17834072 33 18340762732271948647
200 152 18410566319415692815
20279233 1 16732984224000592075
20645477 70 17968082101964291374
20739085 24 18114756949162607460
21065198 48 18342457011039400987
21267235 1 18335141994339338894
22854114 59 18260266351909353918
231179 274 15195282002113062122
23184049 59 18260831509771325612
23402539 116 18334569136196636829
23557571 272 16415212191019420417
26918003 58 16877659067299173889
2748010 2 17902491707247077918
2838139 119 16271058567561010096
2916195 48 17346307237454108322
34797466 226 16773522190913664740
474 4 18261394498078817568
5104073 3 18409729551684275923
5283173 99 17241867827798690845
7495541 125 15697431260278716735
9849439 229 16769038138379201217

>  <PUBCHEM_SHAPE_MULTIPOLES>  (1) 
359.34
11.43
1.96
1.15
5.89
0.43
-0.13
-0.26
-2.06
0.08
-0.01
1.03
0.49
-1.87

>  <PUBCHEM_SHAPE_SELFOVERLAP>  (1) 
731.328

>  <PUBCHEM_SHAPE_VOLUME>  (1) 
210.7

>  <PUBCHEM_COORDINATE_TYPE>  (1) 
2
5
10

$$$$
