31050
     RDKit          3D

  9  8  0  0  1  0  0  0  0  0999 V2000
    0.9065    0.2865   -0.2566 O   0  0  0  0  0  0  0  0  0  0  0  0
    2.6930   -0.9747    0.4880 O   0  0  0  0  0  0  0  0  0  0  0  0
   -2.2871   -1.5495   -0.1662 N   0  0  0  0  0  0  0  0  0  0  0  0
   -1.4103   -0.3968   -0.3734 C   0  0  0  0  0  0  0  0  0  0  0  0
   -1.8829    0.8164    0.4498 C   0  0  0  0  0  0  0  0  0  0  0  0
    0.0211   -0.7968   -0.0003 C   0  0  0  0  0  0  0  0  0  0  0  0
   -3.2957    1.2745    0.1082 C   0  0  0  0  0  0  0  0  0  0  0  0
    2.2230    0.0600    0.0348 C   0  0  0  0  0  0  0  0  0  0  0  0
    3.0325    1.2803   -0.2843 C   0  0  0  0  0  0  0  0  0  0  0  0
  1  6  1  0
  1  8  1  0
  2  8  2  0
  3  4  1  0
  4  5  1  0
  4  6  1  0
  5  7  1  0
  8  9  1  0
M  END
>  <PUBCHEM_COMPOUND_CID>  (1) 
31050

>  <PUBCHEM_CONFORMER_RMSD>  (1) 
0.6

>  <PUBCHEM_CONFORMER_DIVERSEORDER>  (1) 
1
24
35
17
28
39
22
54
7
20
48
49
37
36
16
51
45
40
3
52
23
31
29
25
4
33
12
18
11
44
5
8
34
46
32
47
42
6
19
14
10
50
26
9
30
15
53
43
2
38
21
41
13
27

>  <PUBCHEM_MMFF94_PARTIAL_CHARGES>  (1) 
9
1 -0.43
18 0.36
19 0.36
2 -0.57
3 -0.99
4 0.27
6 0.28
8 0.66
9 0.06

>  <PUBCHEM_EFFECTIVE_ROTOR_COUNT>  (1) 
4

>  <PUBCHEM_PHARMACOPHORE_FEATURES>  (1) 
4
1 2 acceptor
1 3 cation
1 3 donor
1 7 hydrophobe

>  <PUBCHEM_HEAVY_ATOM_COUNT>  (1) 
9

>  <PUBCHEM_ATOM_DEF_STEREO_COUNT>  (1) 
0

>  <PUBCHEM_ATOM_UDEF_STEREO_COUNT>  (1) 
1

>  <PUBCHEM_BOND_DEF_STEREO_COUNT>  (1) 
0

>  <PUBCHEM_BOND_UDEF_STEREO_COUNT>  (1) 
0

>  <PUBCHEM_ISOTOPIC_ATOM_COUNT>  (1) 
0

>  <PUBCHEM_COMPONENT_COUNT>  (1) 
1

>  <PUBCHEM_CACTVS_TAUTO_COUNT>  (1) 
1

>  <PUBCHEM_CONFORMER_ID>  (1) 
0000794A00000001

>  <PUBCHEM_MMFF94_ENERGY>  (1) 
2.0684

>  <PUBCHEM_FEATURE_SELFOVERLAP>  (1) 
20.297

>  <PUBCHEM_SHAPE_FINGERPRINT>  (1) 
12932741 1 15984818280978535374
12932764 1 17418091078592456950
14325111 11 18410575093253013517
14390081 3 18342738563241178784
15775835 57 18408890632928837132
20653085 51 18341062830073646529
20711983 171 18343586247835106885
23552423 10 18407758123230875746
29004967 10 15502372331402119052
3248919 1 18339912779671388398

>  <PUBCHEM_SHAPE_MULTIPOLES>  (1) 
168.5
5.5
1.47
0.67
0.65
0.04
-0.01
-1.77
-0.15
-0.46
0.01
0.01
-0.02
-0.44

>  <PUBCHEM_SHAPE_SELFOVERLAP>  (1) 
306.227

>  <PUBCHEM_SHAPE_VOLUME>  (1) 
108.2

>  <PUBCHEM_COORDINATE_TYPE>  (1) 
2
5
10

$$$$
