3106
     RDKit          3D

 17 17  0  0  0  0  0  0  0  0999 V2000
   -4.2319   -1.3762    1.2993 O   0  0  0  0  0  0  0  0  0  0  0  0
   -5.2927    0.0909   -0.8099 O   0  0  0  0  0  0  0  0  0  0  0  0
    2.4238   -0.0854    0.2748 N   0  0  0  0  0  0  0  0  0  0  0  0
    1.0257   -0.2468   -0.1225 C   0  0  0  0  0  0  0  0  0  0  0  0
    2.8808    1.2754   -0.0045 C   0  0  0  0  0  0  0  0  0  0  0  0
    3.2673   -1.0598   -0.4166 C   0  0  0  0  0  0  0  0  0  0  0  0
    0.1241    0.7253    0.6393 C   0  0  0  0  0  0  0  0  0  0  0  0
    4.3404    1.4402    0.4115 C   0  0  0  0  0  0  0  0  0  0  0  0
    2.8259   -2.4804   -0.0737 C   0  0  0  0  0  0  0  0  0  0  0  0
   -1.3241    0.5537    0.2551 C   0  0  0  0  0  0  0  0  0  0  0  0
    4.8342    2.8548    0.1510 C   0  0  0  0  0  0  0  0  0  0  0  0
    3.7019   -3.5144   -0.7639 C   0  0  0  0  0  0  0  0  0  0  0  0
   -2.1146   -0.3400    0.9614 C   0  0  0  0  0  0  0  0  0  0  0  0
   -1.8407    1.2920   -0.7988 C   0  0  0  0  0  0  0  0  0  0  0  0
   -3.4538   -0.4993    0.6053 C   0  0  0  0  0  0  0  0  0  0  0  0
   -3.1798    1.1328   -1.1550 C   0  0  0  0  0  0  0  0  0  0  0  0
   -3.9864    0.2372   -0.4528 C   0  0  0  0  0  0  0  0  0  0  0  0
  1 15  1  0
  2 17  1  0
  3  4  1  0
  3  5  1  0
  3  6  1  0
  4  7  1  0
  5  8  1  0
  6  9  1  0
  7 10  1  0
  8 11  1  0
  9 12  1  0
 10 13  2  0
 10 14  1  0
 13 15  1  0
 14 16  2  0
 15 17  2  0
 16 17  1  0
M  END
>  <PUBCHEM_COMPOUND_CID>  (1) 
3106

>  <PUBCHEM_CONFORMER_RMSD>  (1) 
0.8

>  <PUBCHEM_CONFORMER_DIVERSEORDER>  (1) 
1
24
8
21
17
6
34
18
43
30
20
13
9
26
42
4
16
15
25
19
44
39
7
27
33
28
29
22
12
41
40
32
5
2
46
37
38
10
45
3
11
31
14
23
35
36

>  <PUBCHEM_MMFF94_PARTIAL_CHARGES>  (1) 
18
1 -0.53
10 -0.14
13 -0.15
14 -0.15
15 0.08
16 -0.15
17 0.08
2 -0.53
3 -0.81
36 0.15
37 0.15
38 0.15
39 0.45
4 0.27
40 0.45
5 0.27
6 0.27
7 0.14

>  <PUBCHEM_EFFECTIVE_ROTOR_COUNT>  (1) 
7

>  <PUBCHEM_PHARMACOPHORE_FEATURES>  (1) 
6
1 1 donor
1 11 hydrophobe
1 12 hydrophobe
1 2 donor
1 3 cation
6 10 13 14 15 16 17 rings

>  <PUBCHEM_HEAVY_ATOM_COUNT>  (1) 
17

>  <PUBCHEM_ATOM_DEF_STEREO_COUNT>  (1) 
0

>  <PUBCHEM_ATOM_UDEF_STEREO_COUNT>  (1) 
0

>  <PUBCHEM_BOND_DEF_STEREO_COUNT>  (1) 
0

>  <PUBCHEM_BOND_UDEF_STEREO_COUNT>  (1) 
0

>  <PUBCHEM_ISOTOPIC_ATOM_COUNT>  (1) 
0

>  <PUBCHEM_COMPONENT_COUNT>  (1) 
1

>  <PUBCHEM_CACTVS_TAUTO_COUNT>  (1) 
18

>  <PUBCHEM_CONFORMER_ID>  (1) 
00000C2200000001

>  <PUBCHEM_MMFF94_ENERGY>  (1) 
30.8274

>  <PUBCHEM_FEATURE_SELFOVERLAP>  (1) 
30.45

>  <PUBCHEM_SHAPE_FINGERPRINT>  (1) 
10912923 1 17632860819787379251
11405975 8 18267868280915003561
12916754 54 18341332171915464941
13296908 3 18335141964279407291
13533116 47 18202280291068369147
13544592 145 18187647929953732239
13631057 29 17699838828697603759
13911882 115 18262815084350878370
13955234 65 18342737412685757618
15375358 24 18187643634669918784
15502722 9 18412546496801999652
15961568 22 17240769536037007868
18186145 218 17895479115814643769
200 152 18059849507376983327
20279233 1 18259704505788992504
20281475 54 18131628967859453427
204376 136 18268992167036091560
20645477 56 17967812734848424389
20645477 70 18340481175648758782
20671657 53 18125162632808237038
20693207 138 18188217485366622494
21054139 6 17986378108947508830
21065201 7 17385443180849347738
221490 88 18337678516425677802
22943178 12 18260829271776859620
23402539 116 17386275618657813665
23532345 1 18412260649348335952
23557571 272 17749387040171037212
23559900 14 18263919952081907658
23596394 208 18335705996997292462
312423 11 17845664646554805768
33824 294 18411138052408435666
5104073 3 18261112946040928113
5281201 14 18335984155911208004
59755656 215 18408324385284109774
6025842 7 18341890792826805694
621550 34 18336546105290366308
7364860 26 18341613690427482418
81539 233 18410012178461229332
9709674 26 18335138657170666883

>  <PUBCHEM_SHAPE_MULTIPOLES>  (1) 
333.13
11.01
2.89
1.01
2.55
1.76
0.01
-0.95
-0.7
-6.36
-0.45
0.9
0.08
1.73

>  <PUBCHEM_SHAPE_SELFOVERLAP>  (1) 
663.6

>  <PUBCHEM_SHAPE_VOLUME>  (1) 
199.5

>  <PUBCHEM_COORDINATE_TYPE>  (1) 
2
5
10

$$$$
