31061
     RDKit          3D

 23 26  0  0  0  0  0  0  0  0999 V2000
   -0.7356   -0.2326   -0.3480 N   0  0  0  0  0  0  0  0  0  0  0  0
    4.9240    1.5023   -0.0151 N   0  0  0  0  0  0  0  0  0  0  0  0
   -1.3927   -1.4192   -0.1956 C   0  0  0  0  0  0  0  0  0  0  0  0
   -2.7297   -1.1564    0.0186 C   0  0  0  0  0  0  0  0  0  0  0  0
   -0.7609   -2.7618   -0.2824 C   0  0  0  0  0  0  0  0  0  0  0  0
   -3.7289   -2.2400    0.2403 C   0  0  0  0  0  0  0  0  0  0  0  0
   -1.7225   -3.8254    0.2800 C   0  0  0  0  0  0  0  0  0  0  0  0
   -3.1716   -3.6092   -0.1958 C   0  0  0  0  0  0  0  0  0  0  0  0
   -2.8925    0.2575    0.0033 C   0  0  0  0  0  0  0  0  0  0  0  0
   -1.6287    0.8113   -0.2294 C   0  0  0  0  0  0  0  0  0  0  0  0
    0.6820   -0.0867   -0.6038 C   0  0  0  0  0  0  0  0  0  0  0  0
   -3.9915    1.1253    0.1662 C   0  0  0  0  0  0  0  0  0  0  0  0
   -1.4140    2.1921   -0.3092 C   0  0  0  0  0  0  0  0  0  0  0  0
    1.5251    0.0267    0.6708 C   0  0  0  0  0  0  0  0  0  0  0  0
   -3.7896    2.5078    0.0889 C   0  0  0  0  0  0  0  0  0  0  0  0
   -2.5197    3.0309   -0.1453 C   0  0  0  0  0  0  0  0  0  0  0  0
    3.0066    0.1213    0.4021 C   0  0  0  0  0  0  0  0  0  0  0  0
   -4.9496    3.4314    0.2616 C   0  0  0  0  0  0  0  0  0  0  0  0
    3.7742   -1.0226    0.3265 C   0  0  0  0  0  0  0  0  0  0  0  0
    3.6034    1.3477    0.2293 C   0  0  0  0  0  0  0  0  0  0  0  0
    5.1368   -0.9042    0.0765 C   0  0  0  0  0  0  0  0  0  0  0  0
    5.6583    0.3693   -0.0853 C   0  0  0  0  0  0  0  0  0  0  0  0
    7.1171    0.5342   -0.3543 C   0  0  0  0  0  0  0  0  0  0  0  0
  1  3  1  0
  1 10  1  0
  1 11  1  0
  2 20  2  0
  2 22  1  0
  3  4  2  0
  3  5  1  0
  4  6  1  0
  4  9  1  0
  5  7  1  0
  6  8  1  0
  7  8  1  0
  9 10  2  0
  9 12  1  0
 10 13  1  0
 11 14  1  0
 12 15  2  0
 13 16  2  0
 14 17  1  0
 15 16  1  0
 15 18  1  0
 17 19  2  0
 17 20  1  0
 19 21  1  0
 21 22  2  0
 22 23  1  0
M  END
>  <PUBCHEM_COMPOUND_CID>  (1) 
31061

>  <PUBCHEM_CONFORMER_RMSD>  (1) 
0.6

>  <PUBCHEM_CONFORMER_DIVERSEORDER>  (1) 
1
13
6
16
19
3
5
8
15
20
4
12
9
26
11
7
14
22
10
17
24
18
23
25
2
21
28
27

>  <PUBCHEM_MMFF94_PARTIAL_CHARGES>  (1) 
26
1 0.05
10 -0.15
11 0.26
12 -0.15
13 -0.15
14 0.14
15 -0.14
16 -0.15
17 -0.14
18 0.14
19 -0.15
2 -0.62
20 0.16
21 -0.15
22 0.17
23 0.14
3 -0.33
34 0.15
35 0.15
38 0.15
4 -0.18
42 0.15
43 0.15
44 0.15
5 0.18
6 0.18

>  <PUBCHEM_EFFECTIVE_ROTOR_COUNT>  (1) 
3.8

>  <PUBCHEM_PHARMACOPHORE_FEATURES>  (1) 
6
1 1 cation
1 2 acceptor
5 1 3 4 9 10 rings
6 2 17 19 20 21 22 rings
6 3 4 5 6 7 8 rings
6 9 10 12 13 15 16 rings

>  <PUBCHEM_HEAVY_ATOM_COUNT>  (1) 
23

>  <PUBCHEM_ATOM_DEF_STEREO_COUNT>  (1) 
0

>  <PUBCHEM_ATOM_UDEF_STEREO_COUNT>  (1) 
0

>  <PUBCHEM_BOND_DEF_STEREO_COUNT>  (1) 
0

>  <PUBCHEM_BOND_UDEF_STEREO_COUNT>  (1) 
0

>  <PUBCHEM_ISOTOPIC_ATOM_COUNT>  (1) 
0

>  <PUBCHEM_COMPONENT_COUNT>  (1) 
1

>  <PUBCHEM_CACTVS_TAUTO_COUNT>  (1) 
1

>  <PUBCHEM_CONFORMER_ID>  (1) 
0000795500000001

>  <PUBCHEM_MMFF94_ENERGY>  (1) 
45.2029

>  <PUBCHEM_FEATURE_SELFOVERLAP>  (1) 
30.623

>  <PUBCHEM_SHAPE_FINGERPRINT>  (1) 
10165383 225 18271531888630629513
10319926 262 18341315761573414858
10411042 1 18050568753393033151
10595046 47 18262519320908860868
10616163 171 18410855499316293038
1100329 8 18337674252039747281
11056379 131 18338803415378319846
11315181 36 18114460162848707668
11405975 8 18409160001030622002
12107183 9 18119521034509595634
12173636 292 18410846646897520669
12390115 104 18271257014622851065
12788726 201 18262226850046480339
13140716 1 18121508110019483731
138480 1 16897644585668410219
14251757 5 18341895195057683344
14420673 8 18193276291786569626
14508225 48 18196639921109080231
14790565 3 18195530277200376065
14844126 61 18335985375951211915
14866123 147 18411419527432755667
15042514 8 18337113492298445227
15230672 131 18264775351366579542
15250474 111 18261659425259440794
15778101 99 18411140217103815620
15927050 60 18340768122746679111
16087824 20 18411134746222712183
17844677 252 18338804528312796016
18785283 64 17760646967216026323
20101258 96 18193283111676755411
21033648 29 18341038627933830512
21065198 57 18411417328382801288
21133410 171 17330775600837163602
21236236 1 18413669111016721341
21267235 1 18263649635193413802
21426921 1 18410855507425776943
22224240 67 18269844130050878193
2297311 6 18339087115327405326
23522609 53 17822872926590981140
23557571 272 18271531982834663692
23559900 14 18341042025605771952
283562 15 18409161147819272307
3298306 158 18059297565625657166
3610482 184 17895493487576913902
4058900 60 17980486663685217025
4073 2 18261115193100062218
4214541 1 18411136948564806776
469060 322 13262690282479499387
497634 4 18187079611333324646
5104073 3 18335975420506709208
5265222 85 18198914785319248630
59755656 520 18335980865765630205
6327066 14 18263076618232419869
77188 2 17762337320673663159
77779 3 18410574003032888344
7808743 9 18409727335718728720
9709674 26 18343023281150664142
9981440 41 18192717748363625321

>  <PUBCHEM_SHAPE_MULTIPOLES>  (1) 
463.37
12.95
4.32
0.7
23.67
1.86
-0.01
-5.9
-0.12
-8.16
-0.06
0.06
0.01
-0.22

>  <PUBCHEM_SHAPE_SELFOVERLAP>  (1) 
1011.764

>  <PUBCHEM_SHAPE_VOLUME>  (1) 
253.2

>  <PUBCHEM_COORDINATE_TYPE>  (1) 
2
5
10

$$$$
