31067
     RDKit          3D

 12 12  0  0  0  0  0  0  0  0999 V2000
    1.6721   -3.2015   -0.1585 I   0  0  0  0  0  0  0  0  0  0  0  0
    2.0240    3.0538    0.1804 I   0  0  0  0  0  0  0  0  0  0  0  0
    3.8204   -0.1864    0.0404 I   0  0  0  0  0  0  0  0  0  0  0  0
   -3.5656   -1.1191    0.6168 Cl  0  0  0  0  0  0  0  0  0  0  0  0
   -3.1013    1.1841   -0.5563 O   0  0  0  0  0  0  0  0  0  0  0  0
   -1.1075    0.0946   -0.0321 C   0  0  0  0  0  0  0  0  0  0  0  0
   -0.3434    1.2593    0.0434 C   0  0  0  0  0  0  0  0  0  0  0  0
   -0.4789   -1.1494   -0.0869 C   0  0  0  0  0  0  0  0  0  0  0  0
    0.9135   -1.2287   -0.0664 C   0  0  0  0  0  0  0  0  0  0  0  0
    1.0490    1.1799    0.0636 C   0  0  0  0  0  0  0  0  0  0  0  0
    1.6775   -0.0641    0.0088 C   0  0  0  0  0  0  0  0  0  0  0  0
   -2.5596    0.1776   -0.0533 C   0  0  0  0  0  0  0  0  0  0  0  0
  1  9  1  0
  2 10  1  0
  3 11  1  0
  4 12  1  0
  5 12  2  0
  6  7  2  0
  6  8  1  0
  6 12  1  0
  7 10  1  0
  8  9  2  0
  9 11  1  0
 10 11  2  0
M  END
>  <PUBCHEM_COMPOUND_CID>  (1) 
31067

>  <PUBCHEM_CONFORMER_RMSD>  (1) 
0.4

>  <PUBCHEM_CONFORMER_DIVERSEORDER>  (1) 
2
1
3

>  <PUBCHEM_MMFF94_PARTIAL_CHARGES>  (1) 
14
1 -0.08
10 0.08
11 0.08
12 0.69
13 0.15
14 0.15
2 -0.08
3 -0.08
4 -0.21
5 -0.57
6 0.09
7 -0.15
8 -0.15
9 0.08

>  <PUBCHEM_EFFECTIVE_ROTOR_COUNT>  (1) 
1

>  <PUBCHEM_PHARMACOPHORE_FEATURES>  (1) 
4
1 1 hydrophobe
1 2 hydrophobe
1 3 hydrophobe
6 6 7 8 9 10 11 rings

>  <PUBCHEM_HEAVY_ATOM_COUNT>  (1) 
12

>  <PUBCHEM_ATOM_DEF_STEREO_COUNT>  (1) 
0

>  <PUBCHEM_ATOM_UDEF_STEREO_COUNT>  (1) 
0

>  <PUBCHEM_BOND_DEF_STEREO_COUNT>  (1) 
0

>  <PUBCHEM_BOND_UDEF_STEREO_COUNT>  (1) 
0

>  <PUBCHEM_ISOTOPIC_ATOM_COUNT>  (1) 
0

>  <PUBCHEM_COMPONENT_COUNT>  (1) 
1

>  <PUBCHEM_CACTVS_TAUTO_COUNT>  (1) 
1

>  <PUBCHEM_CONFORMER_ID>  (1) 
0000795B00000002

>  <PUBCHEM_MMFF94_ENERGY>  (1) 
38.7629

>  <PUBCHEM_FEATURE_SELFOVERLAP>  (1) 
20.297

>  <PUBCHEM_SHAPE_FINGERPRINT>  (1) 
1 1 18411701031925351318
10608611 8 18335415794489085853
10967382 1 18339359661066860614
12032990 46 18411989026968606070
13140716 1 18268148841116219890
13380536 305 18339931527488400516
14325111 11 18337953514349009001
14648413 74 18408881807087418665
16945 1 18412543197618276332
17990270 104 18409446943073750579
18186145 218 18200602513264834228
193761 8 17834956756362658574
19591789 44 18194689387049076742
20201158 50 18336264557156617851
20510252 161 16613362078962575096
20511035 2 17970918984092928374
20588541 1 18335422326996829214
20645476 183 17970082238780742982
20645477 70 18336819892512890039
20671657 1 18193843875698265580
20711985 344 17329144667913378186
21501502 16 17981602990029958102
21524375 3 18055352706429660756
2334 1 18051409870727984788
23402539 116 18272077285136717990
23402655 69 18196636416590281821
23463225 33 18335698291878782186
23526113 38 18188767228480049403
23526114 1 18266737059622886716
23552423 10 18412823603322249223
23557571 272 17312817174387475311
23598294 1 16461647513097158874
241688 4 17834960767598245880
2748010 2 18192713568864261764
3071541 158 18335138687473100884
53812653 166 18413102844984531280
7364860 26 18411982464026248294
81228 2 17332809344579605098

>  <PUBCHEM_SHAPE_MULTIPOLES>  (1) 
278.76
5.55
3.58
0.74
2.88
0.71
0.03
-0.32
0.4
-2.87
-0.04
0
0.02
0.43

>  <PUBCHEM_SHAPE_SELFOVERLAP>  (1) 
504.891

>  <PUBCHEM_SHAPE_VOLUME>  (1) 
187.6

>  <PUBCHEM_COORDINATE_TYPE>  (1) 
2
5
10

$$$$
