31072
     RDKit          3D

 12 12  0  0  0  0  0  0  0  0999 V2000
    0.4686   -2.2751   -0.0017 S   0  0  0  0  0  0  0  0  0  0  0  0
   -1.8552   -0.2462    0.0002 O   0  0  0  0  0  0  0  0  0  0  0  0
   -1.5116    2.0132   -0.0013 O   0  0  0  0  0  0  0  0  0  0  0  0
    2.4366   -0.3141    0.0008 N   0  0  0  0  0  0  0  0  0  0  0  0
    0.3171    0.5536    0.0002 N   0  0  0  0  0  0  0  0  0  0  0  0
    1.0653   -0.7191    0.0002 C   0  0  0  0  0  0  0  0  0  0  0  0
    1.2663    1.5683    0.0003 C   0  0  0  0  0  0  0  0  0  0  0  0
    2.5002    1.0586    0.0005 C   0  0  0  0  0  0  0  0  0  0  0  0
    3.6298   -1.1399    0.0000 C   0  0  0  0  0  0  0  0  0  0  0  0
   -1.0631    0.8675   -0.0006 C   0  0  0  0  0  0  0  0  0  0  0  0
   -3.2690   -0.0167    0.0002 C   0  0  0  0  0  0  0  0  0  0  0  0
   -3.9851   -1.3503    0.0011 C   0  0  0  0  0  0  0  0  0  0  0  0
  1  6  2  0
  2 10  1  0
  2 11  1  0
  3 10  2  0
  4  6  1  0
  4  8  1  0
  4  9  1  0
  5  6  1  0
  5  7  1  0
  5 10  1  0
  7  8  2  0
 11 12  1  0
M  END
>  <PUBCHEM_COMPOUND_CID>  (1) 
31072

>  <PUBCHEM_CONFORMER_RMSD>  (1) 
0.6

>  <PUBCHEM_CONFORMER_DIVERSEORDER>  (1) 
1
11
5
13
6
10
7
14
9
12
8
3
4
2

>  <PUBCHEM_MMFF94_PARTIAL_CHARGES>  (1) 
13
1 -0.38
10 0.78
11 0.28
13 0.15
14 0.15
2 -0.43
3 -0.57
4 -0.47
5 -0.23
6 0.5
7 -0.04
8 -0.04
9 0.3

>  <PUBCHEM_EFFECTIVE_ROTOR_COUNT>  (1) 
3

>  <PUBCHEM_PHARMACOPHORE_FEATURES>  (1) 
3
1 1 acceptor
1 3 acceptor
5 4 5 6 7 8 rings

>  <PUBCHEM_HEAVY_ATOM_COUNT>  (1) 
12

>  <PUBCHEM_ATOM_DEF_STEREO_COUNT>  (1) 
0

>  <PUBCHEM_ATOM_UDEF_STEREO_COUNT>  (1) 
0

>  <PUBCHEM_BOND_DEF_STEREO_COUNT>  (1) 
0

>  <PUBCHEM_BOND_UDEF_STEREO_COUNT>  (1) 
0

>  <PUBCHEM_ISOTOPIC_ATOM_COUNT>  (1) 
0

>  <PUBCHEM_COMPONENT_COUNT>  (1) 
1

>  <PUBCHEM_CACTVS_TAUTO_COUNT>  (1) 
1

>  <PUBCHEM_CONFORMER_ID>  (1) 
0000796000000001

>  <PUBCHEM_MMFF94_ENERGY>  (1) 
36.5098

>  <PUBCHEM_FEATURE_SELFOVERLAP>  (1) 
15.223

>  <PUBCHEM_SHAPE_FINGERPRINT>  (1) 
10219947 1 18337112370942299989
108231 29 18272367577137890504
11806522 49 18409448089914206686
12032990 46 18341335487867841182
12897270 3 18408601448654329957
14251717 144 18339639053142863743
14325111 11 18410574006689773025
15757776 16 18187640293243586059
16945 1 18410855451712417446
19021347 11 18335981965467629554
20201158 50 18334857208275074411
20645477 70 18411694405350372679
20871998 22 18200604574706581902
21501925 9 18409438181545915856
22959321 4 18410012169280555011
23552423 10 18263649476242271837
2748010 2 18121788493135556098
2871803 45 18335413587086794951
5084963 1 18201720639301619496
581208 293 18339637953240579417
8809292 202 18187652422463481675

>  <PUBCHEM_SHAPE_MULTIPOLES>  (1) 
229.1
5.88
2.15
0.59
3.18
0.3
0
1.9
0
-0.19
0
-0.01
0.04
0

>  <PUBCHEM_SHAPE_SELFOVERLAP>  (1) 
446.898

>  <PUBCHEM_SHAPE_VOLUME>  (1) 
140.4

>  <PUBCHEM_COORDINATE_TYPE>  (1) 
2
5
10

$$$$
