3107
     RDKit          3D

 24 24  0  0  1  0  0  0  0  0999 V2000
   -1.3129    1.0443    1.3735 O   0  0  0  0  0  0  0  0  0  0  0  0
    0.3970   -0.6241   -1.3007 O   0  0  0  0  0  0  0  0  0  0  0  0
    4.2800   -1.8646   -0.1243 O   0  0  0  0  0  0  0  0  0  0  0  0
    5.1966   -0.4353   -1.6179 O   0  0  0  0  0  0  0  0  0  0  0  0
   -1.3583   -1.1521    0.6454 N   0  0  0  0  0  0  0  0  0  0  0  0
    2.1165   -0.4315    0.2574 N   0  0  0  0  0  0  0  0  0  0  0  0
   -3.9262    1.0255    1.8344 N   0  0  0  0  0  0  0  0  0  0  0  0
    0.0438   -1.4451    0.9127 C   0  0  0  0  0  0  0  0  0  0  0  0
    0.1411   -2.9650    0.8472 C   0  0  0  0  0  0  0  0  0  0  0  0
   -0.9651   -3.3494   -0.1322 C   0  0  0  0  0  0  0  0  0  0  0  0
   -2.0621   -2.3383    0.1649 C   0  0  0  0  0  0  0  0  0  0  0  0
   -1.9401    0.0634    0.9704 C   0  0  0  0  0  0  0  0  0  0  0  0
   -3.4352    0.1370    0.7894 C   0  0  0  0  0  0  0  0  0  0  0  0
    0.8466   -0.7887   -0.1697 C   0  0  0  0  0  0  0  0  0  0  0  0
   -3.8268    0.6142   -0.6257 C   0  0  0  0  0  0  0  0  0  0  0  0
    3.0921    0.1948   -0.5984 C   0  0  0  0  0  0  0  0  0  0  0  0
    3.5286    1.5909   -0.0905 C   0  0  0  0  0  0  0  0  0  0  0  0
   -5.3620    0.5895   -0.7985 C   0  0  0  0  0  0  0  0  0  0  0  0
   -3.2402    1.9866   -0.9872 C   0  0  0  0  0  0  0  0  0  0  0  0
    2.3014    2.5138    0.0723 C   0  0  0  0  0  0  0  0  0  0  0  0
    4.3538    1.5117    1.2012 C   0  0  0  0  0  0  0  0  0  0  0  0
    4.2923   -0.7127   -0.8373 C   0  0  0  0  0  0  0  0  0  0  0  0
   -5.8219    0.8862   -2.2197 C   0  0  0  0  0  0  0  0  0  0  0  0
    2.6611    3.9487    0.4333 C   0  0  0  0  0  0  0  0  0  0  0  0
  1 12  2  0
  2 14  2  0
  3 22  1  0
  4 22  2  0
  5  8  1  0
  5 11  1  0
  5 12  1  0
  6 14  1  0
  6 16  1  0
  7 13  1  0
  8  9  1  0
  8 14  1  0
  9 10  1  0
 10 11  1  0
 12 13  1  0
 13 15  1  0
 15 18  1  0
 15 19  1  0
 16 17  1  0
 16 22  1  0
 17 20  1  0
 17 21  1  0
 18 23  1  0
 20 24  1  0
M  END
>  <PUBCHEM_COMPOUND_CID>  (1) 
3107

>  <PUBCHEM_CONFORMER_RMSD>  (1) 
1.4

>  <PUBCHEM_CONFORMER_DIVERSEORDER>  (1) 
1
68
40
113
11
98
15
97
88
8
51
56
33
5
81
73
46
30
66
7
22
86
60
6
9
41
2
102
106
111
16
72
112
24
96
50
76
104
43
94
36
105
107
87
45
35
59
92
14
89
4
63
48
95
12
110
82
20
34
67
53
28
54
99
21
80
31
49
17
3
115
93
69
74
25
10
13
38
19
23
32
18
114
52
39
75
27
84
55
109
71
70
91
37
101
62
108
61
103
29
42
78
83
77
65
64
79
85
26
47
58
57
90
44
100

>  <PUBCHEM_MMFF94_PARTIAL_CHARGES>  (1) 
18
1 -0.57
11 0.3
12 0.57
13 0.33
14 0.57
16 0.36
2 -0.57
22 0.66
3 -0.65
36 0.37
4 -0.57
44 0.36
45 0.36
5 -0.66
55 0.5
6 -0.73
7 -0.99
8 0.36

>  <PUBCHEM_EFFECTIVE_ROTOR_COUNT>  (1) 
11

>  <PUBCHEM_PHARMACOPHORE_FEATURES>  (1) 
13
1 1 acceptor
1 19 hydrophobe
1 2 acceptor
1 21 hydrophobe
1 23 hydrophobe
1 24 hydrophobe
1 3 acceptor
1 4 acceptor
1 6 donor
1 7 cation
1 7 donor
3 3 4 22 anion
5 5 8 9 10 11 rings

>  <PUBCHEM_HEAVY_ATOM_COUNT>  (1) 
24

>  <PUBCHEM_ATOM_DEF_STEREO_COUNT>  (1) 
0

>  <PUBCHEM_ATOM_UDEF_STEREO_COUNT>  (1) 
5

>  <PUBCHEM_BOND_DEF_STEREO_COUNT>  (1) 
0

>  <PUBCHEM_BOND_UDEF_STEREO_COUNT>  (1) 
0

>  <PUBCHEM_ISOTOPIC_ATOM_COUNT>  (1) 
0

>  <PUBCHEM_COMPONENT_COUNT>  (1) 
1

>  <PUBCHEM_CACTVS_TAUTO_COUNT>  (1) 
2

>  <PUBCHEM_CONFORMER_ID>  (1) 
00000C2300000001

>  <PUBCHEM_MMFF94_ENERGY>  (1) 
43.955

>  <PUBCHEM_FEATURE_SELFOVERLAP>  (1) 
66.033

>  <PUBCHEM_SHAPE_FINGERPRINT>  (1) 
10366900 7 18041840610689290661
11725454 13 17458890571150057829
12403259 415 18260274070340222145
12633257 1 18262224642965747472
12892183 10 11097848571566101431
12969540 114 18260537923208497127
13583140 156 17822292409381906171
14251764 3 18261106370440742133
14251764 38 18271810184619410145
14347329 18 17313667031861055772
14957384 54 18042670861984668352
15003188 100 18335412500381065077
15238133 3 16515398573787816076
17349148 13 17774730774738157738
18186145 218 18413116056240623858
192875 21 18130791127061620848
20645477 56 18266187308019427322
20681677 76 18198349639898852378
20775438 99 17627194044042198207
21033648 144 18342461486316475020
21033648 29 18040435503337518253
21524375 3 18262249849611959883
23227448 37 18266174114138200789
23402539 116 17916875603395702667
23558518 356 17755016737510765282
23559900 14 18272657883021061714
25222932 49 13038606436710281052
2838139 119 17677594424678239909
633830 44 18059025994489524617
9709674 26 18125450949752324314
9981440 41 17763741388447918304

>  <PUBCHEM_SHAPE_MULTIPOLES>  (1) 
455.49
11.04
3.59
1.49
2.97
0.02
-0.17
-5.55
-4.54
-1.77
0.52
1.07
-0.35
1.59

>  <PUBCHEM_SHAPE_SELFOVERLAP>  (1) 
904.659

>  <PUBCHEM_SHAPE_VOLUME>  (1) 
270.9

>  <PUBCHEM_COORDINATE_TYPE>  (1) 
2
5
10

$$$$
