31073
     RDKit          3D

 25 27  0  0  1  0  0  0  0  0999 V2000
   -2.3498   -0.0069   -2.1736 S   0  0  0  0  0  0  0  0  0  0  0  0
   -2.2231   -2.2727    1.6029 O   0  0  0  0  0  0  0  0  0  0  0  0
   -5.6193    0.4556    1.4689 O   0  0  0  0  0  0  0  0  0  0  0  0
   -3.7130    1.6344    1.8840 O   0  0  0  0  0  0  0  0  0  0  0  0
    1.7548   -0.8054   -1.6223 O   0  0  0  0  0  0  0  0  0  0  0  0
   -2.3644   -0.2413    0.4096 N   0  0  0  0  0  0  0  0  0  0  0  0
    0.6315   -1.2760    0.3510 N   0  0  0  0  0  0  0  0  0  0  0  0
    3.8663   -2.1611   -0.0627 N   0  0  0  0  0  0  0  0  0  0  0  0
   -1.3625    0.0004   -0.6328 C   0  0  0  0  0  0  0  0  0  0  0  0
   -3.8303    0.6773   -1.2737 C   0  0  0  0  0  0  0  0  0  0  0  0
   -3.7619   -0.0030    0.1105 C   0  0  0  0  0  0  0  0  0  0  0  0
   -0.7104   -1.3272   -0.2233 C   0  0  0  0  0  0  0  0  0  0  0  0
   -1.8398   -1.4324    0.8209 C   0  0  0  0  0  0  0  0  0  0  0  0
   -3.6972    2.2059   -1.2394 C   0  0  0  0  0  0  0  0  0  0  0  0
   -5.0994    0.2785   -2.0290 C   0  0  0  0  0  0  0  0  0  0  0  0
   -4.3262    0.7938    1.2432 C   0  0  0  0  0  0  0  0  0  0  0  0
    1.7734   -1.0145   -0.4104 C   0  0  0  0  0  0  0  0  0  0  0  0
    3.0564   -1.0361    0.4132 C   0  0  0  0  0  0  0  0  0  0  0  0
    3.7857    0.2875    0.3120 C   0  0  0  0  0  0  0  0  0  0  0  0
    4.7198    0.4676   -0.6926 C   0  0  0  0  0  0  0  0  0  0  0  0
    3.5015    1.2860    1.2264 C   0  0  0  0  0  0  0  0  0  0  0  0
    3.1246   -3.4065    0.0433 C   0  0  0  0  0  0  0  0  0  0  0  0
    5.3916    1.6864   -0.7859 C   0  0  0  0  0  0  0  0  0  0  0  0
    4.1734    2.5047    1.1331 C   0  0  0  0  0  0  0  0  0  0  0  0
    5.1183    2.7051    0.1268 C   0  0  0  0  0  0  0  0  0  0  0  0
  1  9  1  0
  1 10  1  0
  2 13  2  0
  3 16  1  0
  4 16  2  0
  5 17  2  0
  6  9  1  0
  6 11  1  0
  6 13  1  0
  7 12  1  0
  7 17  1  0
  8 18  1  0
  8 22  1  0
  9 12  1  0
 10 11  1  0
 10 14  1  0
 10 15  1  0
 11 16  1  0
 12 13  1  0
 17 18  1  0
 18 19  1  0
 19 20  2  0
 19 21  1  0
 20 23  1  0
 21 24  2  0
 23 25  2  0
 24 25  1  0
M  END
>  <PUBCHEM_COMPOUND_CID>  (1) 
31073

>  <PUBCHEM_CONFORMER_RMSD>  (1) 
0.8

>  <PUBCHEM_CONFORMER_DIVERSEORDER>  (1) 
38
232
88
309
274
185
173
319
124
337
342
193
47
308
126
24
184
292
347
328
283
268
131
333
204
53
244
260
216
80
16
344
155
210
245
72
182
45
95
150
91
144
212
327
97
278
145
137
265
306
81
339
324
154
52
14
336
350
303
165
235
133
233
125
226
70
307
139
311
69
120
271
315
345
93
209
310
331
153
170
195
299
138
251
206
187
41
37
257
346
231
163
166
208
279
250
39
318
296
76
221
298
108
26
196
287
224
34
353
6
248
262
267
62
84
239
190
290
275
61
174
270
188
273
200
148
167
103
240
92
305
87
152
149
252
183
134
159
300
90
83
352
288
2
172
219
253
68
19
158
323
228
207
351
198
180
332
71
5
75
242
256
322
301
246
102
286
23
276
164
272
304
338
330
21
67
291
66
302
17
98
177
289
178
277
316
35
101
225
65
99
29
320
241
171
175
15
217
325
160
27
261
30
314
119
129
321
57
142
254
312
211
56
51
146
12
297
9
313
10
258
111
197
236
176
143
132
179
266
218
263
249
151
89
202
114
130
215
77
46
243
4
147
85
341
234
110
284
205
282
42
293
222
106
214
82
100
36
237
229
44
348
55
127
48
203
213
201
94
33
247
28
64
259
109
11
105
220
168
50
43
115
112
227
121
162
31
230
192
73
49
96
135
86
79
334
181
191
285
122
128
22
13
117
317
264
136
194
32
7
20
116
3
199
335
280
107
295
60
25
269
169
281
74
223
354
40
78
238
123
8
294
58
54
329
186
156
18
141
140
113
343
157
326
255
161
118
189
349
63
104
340
1
59

>  <PUBCHEM_MMFF94_PARTIAL_CHARGES>  (1) 
31
1 -0.45
10 0.23
11 0.36
12 0.28
13 0.58
16 0.66
17 0.57
18 0.47
19 -0.14
2 -0.57
20 -0.15
21 -0.15
22 0.27
23 -0.15
24 -0.15
25 -0.15
3 -0.65
35 0.37
37 0.5
38 0.36
39 0.15
4 -0.57
40 0.15
44 0.15
45 0.15
46 0.15
5 -0.57
6 -0.59
7 -0.65
8 -0.9
9 0.44

>  <PUBCHEM_EFFECTIVE_ROTOR_COUNT>  (1) 
6.8

>  <PUBCHEM_PHARMACOPHORE_FEATURES>  (1) 
12
1 2 acceptor
1 3 acceptor
1 4 acceptor
1 5 acceptor
1 7 donor
1 8 cation
1 8 donor
3 10 14 15 hydrophobe
3 3 4 16 anion
4 6 9 12 13 rings
6 19 20 21 23 24 25 rings
7 1 6 9 10 11 12 13 rings

>  <PUBCHEM_HEAVY_ATOM_COUNT>  (1) 
25

>  <PUBCHEM_ATOM_DEF_STEREO_COUNT>  (1) 
0

>  <PUBCHEM_ATOM_UDEF_STEREO_COUNT>  (1) 
4

>  <PUBCHEM_BOND_DEF_STEREO_COUNT>  (1) 
0

>  <PUBCHEM_BOND_UDEF_STEREO_COUNT>  (1) 
0

>  <PUBCHEM_ISOTOPIC_ATOM_COUNT>  (1) 
0

>  <PUBCHEM_COMPONENT_COUNT>  (1) 
1

>  <PUBCHEM_CACTVS_TAUTO_COUNT>  (1) 
2

>  <PUBCHEM_CONFORMER_ID>  (1) 
0000796100000026

>  <PUBCHEM_MMFF94_ENERGY>  (1) 
69.3771

>  <PUBCHEM_FEATURE_SELFOVERLAP>  (1) 
64.684

>  <PUBCHEM_SHAPE_FINGERPRINT>  (1) 
10319926 262 16733251375345578512
10498660 4 18199462337297994072
10670039 82 16917068862843100628
11405975 8 18260825986723523314
11545043 162 17313951792471578714
11595378 159 16153419554561306052
12403259 415 18041283162615076247
12523318 42 15719397265372191409
12616971 3 17846215493253612963
12633257 1 16951109786099786388
12769317 202 18341607153408214832
12788726 201 17202499809254563568
12892183 10 16081076083157631544
13583140 156 18411134757720549014
13675066 3 17531252725023516975
13878862 14 18265314141131428868
14251764 38 18194674878486430140
14251764 75 18269840989955180200
14528608 73 17846492668751802084
14848178 5 8574716797316763452
14848178 96 18411695521962624632
17844677 252 18337107839561925093
17868525 174 17975687295545155072
20645477 56 18040152911553097247
21033648 144 18411415124526554092
21033648 29 17822003177604905965
21033650 10 15769784545540224914
22122407 14 18127426553109595673
22393880 68 16558743555315823552
23559900 14 18040718026750427678
268830 7 18342178813075128195
2838139 119 18131632309602849576
376196 1 16810635974539900461
474 4 18342167891084037930
495365 180 18338502089553448710
5104073 3 17386284281638492121
57724786 102 18342184327876517448
633830 44 18059303054219184727
7808743 9 17829893492954575084
90127 26 18041277643386759733

>  <PUBCHEM_SHAPE_MULTIPOLES>  (1) 
479.92
13.35
2.86
1.78
1.63
0.8
0.17
-7.85
-0.1
3.83
-0.52
-2.43
-0.43
0.76

>  <PUBCHEM_SHAPE_SELFOVERLAP>  (1) 
1004.339

>  <PUBCHEM_SHAPE_VOLUME>  (1) 
274.5

>  <PUBCHEM_COORDINATE_TYPE>  (1) 
2
5
10

$$$$
