31089
     RDKit          3D

 20 22  0  0  1  0  0  0  0  0999 V2000
   -4.6783    2.4477   -0.0896 Cl  0  0  0  0  0  0  0  0  0  0  0  0
   -6.3010   -0.2399   -0.8769 Cl  0  0  0  0  0  0  0  0  0  0  0  0
    0.2633   -0.4883   -0.0066 N   0  0  0  0  0  0  0  0  0  0  0  0
    2.7211   -0.4255   -0.7002 C   0  0  0  0  0  0  0  0  0  0  0  0
    4.0084   -0.0667    0.1105 C   0  0  0  0  0  0  0  0  0  0  0  0
    3.3123    1.1634    0.7505 C   0  0  0  0  0  0  0  0  0  0  0  0
    1.6505   -0.5666    0.4310 C   0  0  0  0  0  0  0  0  0  0  0  0
    2.4393    0.8935   -1.4784 C   0  0  0  0  0  0  0  0  0  0  0  0
    2.0355    0.5741    1.3987 C   0  0  0  0  0  0  0  0  0  0  0  0
    2.8399    1.9830   -0.4701 C   0  0  0  0  0  0  0  0  0  0  0  0
    2.8072   -1.6362   -1.6127 C   0  0  0  0  0  0  0  0  0  0  0  0
    5.2561    0.2851   -0.7248 C   0  0  0  0  0  0  0  0  0  0  0  0
    4.4686   -1.1310    1.1283 C   0  0  0  0  0  0  0  0  0  0  0  0
   -0.6460   -0.5561    1.1293 C   0  0  0  0  0  0  0  0  0  0  0  0
   -2.0573   -0.4610    0.6312 C   0  0  0  0  0  0  0  0  0  0  0  0
   -2.6616    0.7854    0.5072 C   0  0  0  0  0  0  0  0  0  0  0  0
   -2.7494   -1.6198    0.2957 C   0  0  0  0  0  0  0  0  0  0  0  0
   -3.9738    0.8742    0.0422 C   0  0  0  0  0  0  0  0  0  0  0  0
   -4.0614   -1.5311   -0.1692 C   0  0  0  0  0  0  0  0  0  0  0  0
   -4.6735   -0.2842   -0.2961 C   0  0  0  0  0  0  0  0  0  0  0  0
  1 18  1  0
  2 20  1  0
  3  7  1  0
  3 14  1  0
  4  5  1  0
  4  7  1  0
  4  8  1  0
  4 11  1  0
  5  6  1  0
  5 12  1  0
  5 13  1  0
  6  9  1  0
  6 10  1  0
  7  9  1  0
  8 10  1  0
 14 15  1  0
 15 16  2  0
 15 17  1  0
 16 18  1  0
 17 19  2  0
 18 20  2  0
 19 20  1  0
M  END
>  <PUBCHEM_COMPOUND_CID>  (1) 
31089

>  <PUBCHEM_CONFORMER_RMSD>  (1) 
0.6

>  <PUBCHEM_CONFORMER_DIVERSEORDER>  (1) 
1
12
9
21
18
30
11
17
26
15
28
24
8
22
14
16
27
29
23
19
4
25
7
13
3
6
20
5
2
10

>  <PUBCHEM_MMFF94_PARTIAL_CHARGES>  (1) 
15
1 -0.18
14 0.41
15 -0.14
16 -0.15
17 -0.15
18 0.18
19 -0.15
2 -0.18
20 0.18
3 -0.9
38 0.36
41 0.15
42 0.15
43 0.15
7 0.27

>  <PUBCHEM_EFFECTIVE_ROTOR_COUNT>  (1) 
4

>  <PUBCHEM_PHARMACOPHORE_FEATURES>  (1) 
5
1 3 cation
1 3 donor
3 5 12 13 hydrophobe
6 15 16 17 18 19 20 rings
7 4 5 6 7 8 9 10 rings

>  <PUBCHEM_HEAVY_ATOM_COUNT>  (1) 
20

>  <PUBCHEM_ATOM_DEF_STEREO_COUNT>  (1) 
0

>  <PUBCHEM_ATOM_UDEF_STEREO_COUNT>  (1) 
3

>  <PUBCHEM_BOND_DEF_STEREO_COUNT>  (1) 
0

>  <PUBCHEM_BOND_UDEF_STEREO_COUNT>  (1) 
0

>  <PUBCHEM_ISOTOPIC_ATOM_COUNT>  (1) 
0

>  <PUBCHEM_COMPONENT_COUNT>  (1) 
1

>  <PUBCHEM_CACTVS_TAUTO_COUNT>  (1) 
1

>  <PUBCHEM_CONFORMER_ID>  (1) 
0000797100000001

>  <PUBCHEM_MMFF94_ENERGY>  (1) 
73.7532

>  <PUBCHEM_FEATURE_SELFOVERLAP>  (1) 
25.371

>  <PUBCHEM_SHAPE_FINGERPRINT>  (1) 
10354089 29 13406792224818197454
10447042 23 15913043184188022022
10498660 4 18336542725404461233
10646746 165 18409448093855765633
11089746 13 17749383776201204389
11370993 70 18272089404833301095
11405975 8 18333452049309608283
12107183 9 17757260492713522995
12166972 35 18334576858395458181
12236239 1 17676202472974740851
12553582 1 13398627238901734299
128620 24 15339122342204313865
12916748 109 18334580144524909619
13224815 77 17632302288986098859
13533116 47 17968085400588839579
13668630 136 15985107426977755989
14251764 38 18408325514265215245
15183329 4 18187364294598000146
15537594 2 11743840274763125589
15788980 27 18260830410022496523
15961568 22 18116429430734468004
17349148 13 18343017796060143427
17844677 252 18187373168205947811
18186145 218 16226044517651925275
19489759 90 18341891892359454243
200 152 15913330182455908123
20279233 1 17847065497093106795
20645477 56 18411705370454191465
20645477 70 17060346192798323422
21503847 285 16660365891753831196
21709351 56 18343582962485786460
22122407 14 15430324590520556509
221357 26 18201998829013736929
23402539 116 18409726248907171956
23402655 69 18334297560929691232
23557571 272 18343019982552158761
23559900 14 18343301504382950691
239999 70 15051734222414587692
3004659 81 18342175561652977138
351380 180 18334292080451207689
351380 3 13326852240958928117
3545911 37 18342742918369470539
4214541 1 18410855447686521081
4325135 7 11743833686119568394
474 4 17313105263212901209
5104073 3 18260830414270089169
5281201 14 18272095976280469605
542803 24 16805039631551922163
57724786 102 15430046473659541071
6328613 192 17894922866785892020
633830 44 17603587443230782851
9709674 26 18342747329243458999
9971528 1 17749104500616962388
9981440 41 17032483743406748440

>  <PUBCHEM_SHAPE_MULTIPOLES>  (1) 
410.35
13.22
1.85
1.27
9.98
0.61
0.13
1
2.46
0.97
0.19
-1.07
-0.14
-0.06

>  <PUBCHEM_SHAPE_SELFOVERLAP>  (1) 
858.226

>  <PUBCHEM_SHAPE_VOLUME>  (1) 
238.7

>  <PUBCHEM_COORDINATE_TYPE>  (1) 
2
5
10

$$$$
