31085
     RDKit          3D

 20 21  0  0  0  0  0  0  0  0999 V2000
    5.2001   -1.7965    1.3162 Cl  0  0  0  0  0  0  0  0  0  0  0  0
    6.2571    0.7255   -0.4142 Cl  0  0  0  0  0  0  0  0  0  0  0  0
    0.4992   -0.3133    0.1561 O   0  0  0  0  0  0  0  0  0  0  0  0
   -1.7644    0.1949   -0.2854 N   0  0  0  0  0  0  0  0  0  0  0  0
   -4.0697    0.6266    0.5727 N   0  0  0  0  0  0  0  0  0  0  0  0
   -3.5174   -1.4013   -0.4992 N   0  0  0  0  0  0  0  0  0  0  0  0
   -1.4101   -1.8896   -1.3258 N   0  0  0  0  0  0  0  0  0  0  0  0
   -5.6845   -0.9999    0.3082 N   0  0  0  0  0  0  0  0  0  0  0  0
   -2.6913    1.1140    0.3936 C   0  0  0  0  0  0  0  0  0  0  0  0
   -2.1808    1.4163    1.8128 C   0  0  0  0  0  0  0  0  0  0  0  0
   -2.8234    2.4149   -0.4166 C   0  0  0  0  0  0  0  0  0  0  0  0
   -0.3775    0.5979   -0.5033 C   0  0  0  0  0  0  0  0  0  0  0  0
   -2.2774   -1.0321   -0.6900 C   0  0  0  0  0  0  0  0  0  0  0  0
   -4.3967   -0.5509    0.1376 C   0  0  0  0  0  0  0  0  0  0  0  0
    1.8441   -0.0837    0.0323 C   0  0  0  0  0  0  0  0  0  0  0  0
    2.7490   -0.9382    0.6524 C   0  0  0  0  0  0  0  0  0  0  0  0
    2.2911    1.0017   -0.7130 C   0  0  0  0  0  0  0  0  0  0  0  0
    4.1182   -0.7043    0.5257 C   0  0  0  0  0  0  0  0  0  0  0  0
    3.6604    1.2356   -0.8396 C   0  0  0  0  0  0  0  0  0  0  0  0
    4.5739    0.3826   -0.2203 C   0  0  0  0  0  0  0  0  0  0  0  0
  1 18  1  0
  2 20  1  0
  3 12  1  0
  3 15  1  0
  4  9  1  0
  4 12  1  0
  4 13  1  0
  5  9  1  0
  5 14  2  0
  6 13  2  0
  6 14  1  0
  7 13  1  0
  8 14  1  0
  9 10  1  0
  9 11  1  0
 15 16  2  0
 15 17  1  0
 16 18  1  0
 17 19  2  0
 18 20  2  0
 19 20  1  0
M  END
>  <PUBCHEM_COMPOUND_CID>  (1) 
31085

>  <PUBCHEM_CONFORMER_RMSD>  (1) 
0.6

>  <PUBCHEM_CONFORMER_DIVERSEORDER>  (1) 
2
42
22
44
17
40
36
33
15
48
26
24
12
16
45
38
46
28
21
19
39
29
32
27
43
25
47
37
23
10
8
41
20
18
34
3
30
6
5
35
31
9
4
11
1
7
13
14

>  <PUBCHEM_MMFF94_PARTIAL_CHARGES>  (1) 
25
1 -0.18
12 0.65
13 0.55
14 0.71
15 0.08
16 -0.15
17 -0.15
18 0.18
19 -0.15
2 -0.18
20 0.18
29 0.4
3 -0.36
30 0.4
31 0.4
32 0.4
33 0.15
34 0.15
35 0.15
4 -0.79
5 -0.7
6 -0.66
7 -0.85
8 -0.85
9 0.62

>  <PUBCHEM_EFFECTIVE_ROTOR_COUNT>  (1) 
3.4

>  <PUBCHEM_PHARMACOPHORE_FEATURES>  (1) 
8
1 3 acceptor
1 7 donor
1 8 donor
3 9 10 11 hydrophobe
4 4 6 7 13 cation
4 5 6 8 14 cation
6 15 16 17 18 19 20 rings
6 4 5 6 9 13 14 rings

>  <PUBCHEM_HEAVY_ATOM_COUNT>  (1) 
20

>  <PUBCHEM_ATOM_DEF_STEREO_COUNT>  (1) 
0

>  <PUBCHEM_ATOM_UDEF_STEREO_COUNT>  (1) 
0

>  <PUBCHEM_BOND_DEF_STEREO_COUNT>  (1) 
0

>  <PUBCHEM_BOND_UDEF_STEREO_COUNT>  (1) 
0

>  <PUBCHEM_ISOTOPIC_ATOM_COUNT>  (1) 
0

>  <PUBCHEM_COMPONENT_COUNT>  (1) 
1

>  <PUBCHEM_CACTVS_TAUTO_COUNT>  (1) 
5

>  <PUBCHEM_CONFORMER_ID>  (1) 
0000796D00000002

>  <PUBCHEM_MMFF94_ENERGY>  (1) 
68.7896

>  <PUBCHEM_FEATURE_SELFOVERLAP>  (1) 
40.631

>  <PUBCHEM_SHAPE_FINGERPRINT>  (1) 
10912923 1 18409451362842855856
11045515 52 17749384910415910781
12107183 9 17758673348175948792
12236239 1 18408041805619933312
12596602 18 18333168370951410194
12633257 1 17560808778994504475
12916748 109 17918000477306573232
12916754 54 18113897147938143901
13073987 5 18261390027645675048
13167823 11 18334854996340393826
13533116 47 18260263053569942162
14341114 176 18260270745845812818
14386348 63 16056885744925084742
15196674 1 18187925037128128868
15788980 27 17967812709236473280
17834072 33 18408604768975260080
1813 80 17749398018592463406
18186145 218 13830128378278460164
19377110 9 18334564768642236528
200 152 18040996254451878009
20279233 1 14851605483623859640
20645477 56 17846780710654114172
20645477 70 17458337516907171722
21033648 29 15554444055458642168
21065198 48 18334576811182018304
21267235 1 18335709346929306390
22646028 1 18408039602491621024
2297311 6 17704083909721230021
23175994 123 16225769622976659957
23402539 116 17846775217923881165
23557571 272 16917080944760028384
23559900 14 17988636453869535136
2838139 119 17824812348732332581
312423 11 18040443161390489452
34797466 226 17560810978587953020
3545911 37 18131074835653193492
4214541 1 18336826403208563524
474 4 17897732200314726396
5104073 3 18335697209489054008
542803 24 11312055448258665352
559249 180 18263636273475991210
573450 72 18341889671492090722
59755656 520 14261352457535701573

>  <PUBCHEM_SHAPE_MULTIPOLES>  (1) 
384.56
13.09
1.9
1.14
6.39
0.14
0.29
-1.82
1.3
-0.44
-0.05
-0.1
-0.04
-1.82

>  <PUBCHEM_SHAPE_SELFOVERLAP>  (1) 
791.332

>  <PUBCHEM_SHAPE_VOLUME>  (1) 
222.3

>  <PUBCHEM_COORDINATE_TYPE>  (1) 
2
5
10

$$$$
