31090
     RDKit          3D

 15 16  0  0  1  0  0  0  0  0999 V2000
   -0.2437    0.9858   -0.0334 O   0  0  0  0  0  0  0  0  0  0  0  0
    3.0511   -0.2301    0.2716 O   0  0  0  0  0  0  0  0  0  0  0  0
    2.1452    1.7155   -0.5834 O   0  0  0  0  0  0  0  0  0  0  0  0
   -0.8147   -1.7993   -0.2156 N   0  0  0  0  0  0  0  0  0  0  0  0
    0.7264   -0.0172    0.2870 C   0  0  0  0  0  0  0  0  0  0  0  0
    0.5039   -1.2890   -0.5189 C   0  0  0  0  0  0  0  0  0  0  0  0
   -1.8299   -0.8621   -0.0736 C   0  0  0  0  0  0  0  0  0  0  0  0
   -1.5341    0.5087    0.0178 C   0  0  0  0  0  0  0  0  0  0  0  0
    2.0335    0.6116   -0.0675 C   0  0  0  0  0  0  0  0  0  0  0  0
   -3.1676   -1.2637    0.0169 C   0  0  0  0  0  0  0  0  0  0  0  0
   -2.5513    1.4574    0.1377 C   0  0  0  0  0  0  0  0  0  0  0  0
   -4.1864   -0.3179    0.1532 C   0  0  0  0  0  0  0  0  0  0  0  0
   -3.8788    1.0408    0.2073 C   0  0  0  0  0  0  0  0  0  0  0  0
    4.3681    0.2505   -0.0155 C   0  0  0  0  0  0  0  0  0  0  0  0
    5.3783   -0.7911    0.4164 C   0  0  0  0  0  0  0  0  0  0  0  0
  1  5  1  0
  1  8  1  0
  2  9  1  0
  2 14  1  0
  3  9  2  0
  4  6  1  0
  4  7  1  0
  5  6  1  0
  5  9  1  0
  7  8  2  0
  7 10  1  0
  8 11  1  0
 10 12  2  0
 11 13  2  0
 12 13  1  0
 14 15  1  0
M  END
>  <PUBCHEM_COMPOUND_CID>  (1) 
31090

>  <PUBCHEM_CONFORMER_RMSD>  (1) 
0.6

>  <PUBCHEM_CONFORMER_DIVERSEORDER>  (1) 
1
26
16
14
31
3
5
2
8
15
13
10
27
18
25
28
9
32
4
30
19
7
33
11
17
12
24
21
23
20
22
6
29

>  <PUBCHEM_MMFF94_PARTIAL_CHARGES>  (1) 
19
1 -0.36
10 -0.15
11 -0.15
12 -0.15
13 -0.15
14 0.28
19 0.4
2 -0.43
20 0.15
21 0.15
22 0.15
23 0.15
3 -0.57
4 -0.87
5 0.34
6 0.37
7 0.1
8 0.08
9 0.66

>  <PUBCHEM_EFFECTIVE_ROTOR_COUNT>  (1) 
3.8

>  <PUBCHEM_PHARMACOPHORE_FEATURES>  (1) 
6
1 1 acceptor
1 3 acceptor
1 4 cation
1 4 donor
6 1 4 5 6 7 8 rings
6 7 8 10 11 12 13 rings

>  <PUBCHEM_HEAVY_ATOM_COUNT>  (1) 
15

>  <PUBCHEM_ATOM_DEF_STEREO_COUNT>  (1) 
0

>  <PUBCHEM_ATOM_UDEF_STEREO_COUNT>  (1) 
1

>  <PUBCHEM_BOND_DEF_STEREO_COUNT>  (1) 
0

>  <PUBCHEM_BOND_UDEF_STEREO_COUNT>  (1) 
0

>  <PUBCHEM_ISOTOPIC_ATOM_COUNT>  (1) 
0

>  <PUBCHEM_COMPONENT_COUNT>  (1) 
1

>  <PUBCHEM_CACTVS_TAUTO_COUNT>  (1) 
1

>  <PUBCHEM_CONFORMER_ID>  (1) 
0000797200000001

>  <PUBCHEM_MMFF94_ENERGY>  (1) 
40.3894

>  <PUBCHEM_FEATURE_SELFOVERLAP>  (1) 
30.494

>  <PUBCHEM_SHAPE_FINGERPRINT>  (1) 
10062212 137 18413101775300641903
10465860 250 17846494829362912872
11132069 177 18342740715098739913
11401426 45 18131347509761853583
12119455 92 16917347030662805870
12251169 10 18335421265886615020
13214271 11 18343300362459648735
13288520 33 18411420600963310046
13380535 76 18413110550240607063
13675066 3 18273494598163176330
13690532 89 18408603656483706954
14325111 11 18411420639423031709
15042514 8 18267869565532770087
15196674 1 18410856602631868416
15219456 202 18059020488230960751
15536298 74 18201160932106931742
16945 1 18343022237652406751
17802600 8 18412259553831079553
17804303 29 18413390955706930024
17862501 102 18410852170273000842
1813 80 17168429255988907358
18186145 218 17313376880907455392
18522853 276 18413670218627855248
19422 9 18187368791101477532
200 152 18060692901741668381
20279233 1 16988849388329286484
20671657 1 18117567433890422428
21267235 1 18408893953165306403
2306618 200 18202290190968045313
23175994 123 17203896262178473368
23402539 116 18201430376901033581
23463225 33 18408322181048073383
23559900 14 18131911577361677640
2748010 2 18268721515308239375
42 15 18408603660778745746
4214541 1 18410855447517800424
474 4 17170120497993305756
5104073 3 18411139181488982648
54173680 148 18121782995883742635
6430166 295 18411699868063125372
69090 78 18060415841384962430
7364860 26 18127695924414836751
77779 3 18408605889792990760
9709674 26 18341057388461501974
9981440 41 17252869867511659392

>  <PUBCHEM_SHAPE_MULTIPOLES>  (1) 
286.1
9.09
1.59
0.66
8.26
0.05
0
0.27
-1.21
-0.62
0.15
0.09
0
-0.3

>  <PUBCHEM_SHAPE_SELFOVERLAP>  (1) 
604.213

>  <PUBCHEM_SHAPE_VOLUME>  (1) 
159.7

>  <PUBCHEM_COORDINATE_TYPE>  (1) 
2
5
10

$$$$
