31099
     RDKit          3D

 16 16  0  0  0  0  0  0  0  0999 V2000
    2.4939   -0.2864    0.8446 O   0  0  0  0  0  0  0  0  0  0  0  0
    2.5056    0.9842   -1.1026 O   0  0  0  0  0  0  0  0  0  0  0  0
   -3.9907    1.1000   -0.1469 N   0  0  0  0  0  0  0  0  0  0  0  0
   -2.3045   -0.4457    0.6137 N   0  0  0  0  0  0  0  0  0  0  0  0
    4.1643    1.2475    0.4978 N   0  0  0  0  0  0  0  0  0  0  0  0
   -1.0488   -0.9840    0.2849 C   0  0  0  0  0  0  0  0  0  0  0  0
    1.3567   -0.8945    0.4090 C   0  0  0  0  0  0  0  0  0  0  0  0
    0.1105   -0.3588    0.7343 C   0  0  0  0  0  0  0  0  0  0  0  0
   -0.9736   -2.1396   -0.4867 C   0  0  0  0  0  0  0  0  0  0  0  0
    1.4376   -2.0528   -0.3641 C   0  0  0  0  0  0  0  0  0  0  0  0
    0.2725   -2.6752   -0.8120 C   0  0  0  0  0  0  0  0  0  0  0  0
   -2.7882    0.4200   -0.2211 C   0  0  0  0  0  0  0  0  0  0  0  0
   -4.9028    0.8933    0.9690 C   0  0  0  0  0  0  0  0  0  0  0  0
   -4.2765    2.2253   -1.0257 C   0  0  0  0  0  0  0  0  0  0  0  0
    3.0168    0.6890   -0.0264 C   0  0  0  0  0  0  0  0  0  0  0  0
    4.9272    2.2777   -0.1679 C   0  0  0  0  0  0  0  0  0  0  0  0
  1  7  1  0
  1 15  1  0
  2 15  2  0
  3 12  1  0
  3 13  1  0
  3 14  1  0
  4  6  1  0
  4 12  2  0
  5 15  1  0
  5 16  1  0
  6  8  2  0
  6  9  1  0
  7  8  1  0
  7 10  2  0
  9 11  2  0
 10 11  1  0
M  END
>  <PUBCHEM_COMPOUND_CID>  (1) 
31099

>  <PUBCHEM_CONFORMER_RMSD>  (1) 
0.6

>  <PUBCHEM_CONFORMER_DIVERSEORDER>  (1) 
1
66
61
72
16
117
64
91
71
60
49
46
75
58
79
116
101
83
48
85
87
73
30
82
57
102
39
115
44
8
109
86
95
7
98
21
107
52
22
38
5
103
106
53
96
78
97
23
62
34
24
90
14
43
55
28
100
99
9
3
54
51
112
65
12
6
36
17
114
41
4
113
25
47
45
67
50
77
80
20
59
29
88
63
10
18
104
84
33
35
40
2
42
76
56
68
105
27
11
108
110
31
37
81
118
74
92
89
26
94
15
13
19
32
69
70
93
111

>  <PUBCHEM_MMFF94_PARTIAL_CHARGES>  (1) 
22
1 -0.23
10 -0.15
11 -0.15
12 0.44
13 0.37
14 0.37
15 0.78
16 0.3
17 0.15
18 0.15
19 0.15
2 -0.57
20 0.15
21 0.06
28 0.37
3 -0.79
4 -0.63
5 -0.73
6 0.18
7 0.08
8 -0.15
9 -0.15

>  <PUBCHEM_EFFECTIVE_ROTOR_COUNT>  (1) 
5

>  <PUBCHEM_PHARMACOPHORE_FEATURES>  (1) 
4
1 2 acceptor
1 5 donor
3 3 4 12 cation
6 6 7 8 9 10 11 rings

>  <PUBCHEM_HEAVY_ATOM_COUNT>  (1) 
16

>  <PUBCHEM_ATOM_DEF_STEREO_COUNT>  (1) 
0

>  <PUBCHEM_ATOM_UDEF_STEREO_COUNT>  (1) 
0

>  <PUBCHEM_BOND_DEF_STEREO_COUNT>  (1) 
0

>  <PUBCHEM_BOND_UDEF_STEREO_COUNT>  (1) 
0

>  <PUBCHEM_ISOTOPIC_ATOM_COUNT>  (1) 
0

>  <PUBCHEM_COMPONENT_COUNT>  (1) 
1

>  <PUBCHEM_CACTVS_TAUTO_COUNT>  (1) 
2

>  <PUBCHEM_CONFORMER_ID>  (1) 
0000797B00000001

>  <PUBCHEM_MMFF94_ENERGY>  (1) 
41.5407

>  <PUBCHEM_FEATURE_SELFOVERLAP>  (1) 
20.297

>  <PUBCHEM_SHAPE_FINGERPRINT>  (1) 
10498660 4 18342458149037137161
11543360 7 14261341483814722923
11796584 16 12175618439182043365
122479 349 18261393381561485106
12500047 106 18128816524874718198
12633257 1 15502657152137598508
12892183 10 16950561052213541849
13103583 49 10881965992019072685
14123255 352 18335135414402046596
14123255 52 18411698807164148220
14415576 193 18268427936934203839
14774955 27 18408598141798803949
15188451 53 14635160074836207481
15342168 16 18412265008845695045
15375462 189 7997387443416555459
17134986 127 18413392029538567982
1741750 31 18342457083916656090
17834072 32 18340488988410755768
1798214 55 18411139138455081692
18186145 218 18198910202061700479
19784866 34 18273498965981275897
20645477 56 18127700528819614458
20871999 31 17845369027934336719
21499 59 18343298150372298919
21524375 3 18408884074571753035
21713013 43 12967124995724272977
231179 274 18334297530727744170
23402539 116 18060133289036130940
23403322 49 10375875177598873705
23590187 49 18411701014740337073
25 1 18202845435365047803
2838139 119 18336537287712114164
6327066 14 18336539503593654612
633830 44 17774172180234839919
7808743 9 18338235002400642640
81539 233 18339359669451281259

>  <PUBCHEM_SHAPE_MULTIPOLES>  (1) 
302.59
9.27
2.79
0.98
2.01
0.6
-0.05
-10.46
0.25
-0.87
-0.93
0.36
-0.1
0.34

>  <PUBCHEM_SHAPE_SELFOVERLAP>  (1) 
613.779

>  <PUBCHEM_SHAPE_VOLUME>  (1) 
175

>  <PUBCHEM_COORDINATE_TYPE>  (1) 
2
5
10

$$$$
