3109
     RDKit          3D

 16 17  0  0  0  0  0  0  0  0999 V2000
   -0.7038   -2.0560    0.6276 S   0  0  0  0  0  0  0  0  0  0  0  0
    0.5312   -1.8793   -1.0080 S   0  0  0  0  0  0  0  0  0  0  0  0
   -0.6007    0.8091    1.4887 O   0  0  0  0  0  0  0  0  0  0  0  0
    1.2746    0.8210   -2.0647 O   0  0  0  0  0  0  0  0  0  0  0  0
   -1.6487    0.5271    0.8171 N   0  0  0  0  0  0  0  0  0  0  0  0
    1.9582    0.4794   -1.0424 N   0  0  0  0  0  0  0  0  0  0  0  0
   -1.8825   -0.7443    0.3299 C   0  0  0  0  0  0  0  0  0  0  0  0
    1.7626   -0.7358   -0.4098 C   0  0  0  0  0  0  0  0  0  0  0  0
   -3.0306   -1.0334   -0.4003 C   0  0  0  0  0  0  0  0  0  0  0  0
    2.5202   -1.0882    0.7051 C   0  0  0  0  0  0  0  0  0  0  0  0
   -2.5767    1.5202    0.5692 C   0  0  0  0  0  0  0  0  0  0  0  0
    2.9179    1.3453   -0.5546 C   0  0  0  0  0  0  0  0  0  0  0  0
   -3.9582   -0.0264   -0.6439 C   0  0  0  0  0  0  0  0  0  0  0  0
    3.4837   -0.2092    1.1876 C   0  0  0  0  0  0  0  0  0  0  0  0
   -3.7327    1.2569   -0.1583 C   0  0  0  0  0  0  0  0  0  0  0  0
    3.6855    1.0135    0.5569 C   0  0  0  0  0  0  0  0  0  0  0  0
  1  2  1  0
  1  7  1  0
  2  8  1  0
  3  5  1  0
  4  6  1  0
  5  7  2  0
  5 11  1  0
  6  8  2  0
  6 12  1  0
  7  9  1  0
  8 10  1  0
  9 13  2  0
 10 14  2  0
 11 15  2  0
 12 16  2  0
 13 15  1  0
 14 16  1  0
M  CHG  4   3  -1   4  -1   5   1   6   1
M  END
>  <PUBCHEM_COMPOUND_CID>  (1) 
3109

>  <PUBCHEM_CONFORMER_RMSD>  (1) 
0.6

>  <PUBCHEM_CONFORMER_DIVERSEORDER>  (1) 
2
68
73
8
38
67
74
5
66
76
39
6
75
7
77
12
33
11
26
32
40
19
81
80
49
16
72
78
52
71
15
10
53
25
9
20
59
1
58
79
29
64
41
69
42
30
65
70
21
46
60
22
45
24
61
37
48
47
17
3
23
4
34
44
31
43
57
56
18
51
55
50
54
62
63
28
27
36
35
13
14

>  <PUBCHEM_MMFF94_PARTIAL_CHARGES>  (1) 
24
1 -0.1
10 -0.15
11 -0.06
12 -0.06
13 -0.15
14 -0.15
15 -0.15
16 -0.15
17 0.15
18 0.15
19 0.15
2 -0.1
20 0.15
21 0.15
22 0.15
23 0.15
24 0.15
3 -0.75
4 -0.75
5 0.57
6 0.57
7 0.19
8 0.19
9 -0.15

>  <PUBCHEM_EFFECTIVE_ROTOR_COUNT>  (1) 
3

>  <PUBCHEM_PHARMACOPHORE_FEATURES>  (1) 
4
1 3 anion
1 4 anion
6 5 7 9 11 13 15 rings
6 6 8 10 12 14 16 rings

>  <PUBCHEM_HEAVY_ATOM_COUNT>  (1) 
16

>  <PUBCHEM_ATOM_DEF_STEREO_COUNT>  (1) 
0

>  <PUBCHEM_ATOM_UDEF_STEREO_COUNT>  (1) 
0

>  <PUBCHEM_BOND_DEF_STEREO_COUNT>  (1) 
0

>  <PUBCHEM_BOND_UDEF_STEREO_COUNT>  (1) 
0

>  <PUBCHEM_ISOTOPIC_ATOM_COUNT>  (1) 
0

>  <PUBCHEM_COMPONENT_COUNT>  (1) 
1

>  <PUBCHEM_CACTVS_TAUTO_COUNT>  (1) 
1

>  <PUBCHEM_CONFORMER_ID>  (1) 
00000C2500000002

>  <PUBCHEM_MMFF94_ENERGY>  (1) 
29.6375

>  <PUBCHEM_FEATURE_SELFOVERLAP>  (1) 
20.297

>  <PUBCHEM_SHAPE_FINGERPRINT>  (1) 
11370993 70 18410565180500181835
11640471 11 18187933927356802398
12162725 195 18408039610944561435
12633257 1 15358532103070259508
14251739 40 17821717321698457707
15276787 5 15791730793293143407
15775835 57 18408606971855711016
15852999 172 18412548699503505306
17357779 13 13971390432401429453
17492 89 18409726266130324163
18186145 218 18337115553497450047
18522851 12 10231755599934312813
192875 21 18409156723416907893
19766037 51 10592038064023202477
20715895 44 18044924681082063141
22749437 52 18409729543263119581
23402539 116 17704059716565889198
23557571 272 17560521806433567015
23559900 14 18130785603955308418
328317 168 17988353857900883781
3323516 105 12391501027271625055
351380 180 17988634207970527648
474 4 18260832557785660747
5262128 65 16916247514661298292
7364860 26 17915181208812352550
94968 8 10663805382585666797

>  <PUBCHEM_SHAPE_MULTIPOLES>  (1) 
315.27
7.13
1.95
1.35
1.17
0.49
-0.29
-2.55
0.31
0.26
0
-0.62
-0.12
-0.38

>  <PUBCHEM_SHAPE_SELFOVERLAP>  (1) 
640.322

>  <PUBCHEM_SHAPE_VOLUME>  (1) 
184.6

>  <PUBCHEM_COORDINATE_TYPE>  (1) 
2
5
10

$$$$
