31097
     RDKit          3D

 18 20  0  0  0  0  0  0  0  0999 V2000
   -2.2195    1.9412   -0.7736 O   0  0  0  0  0  0  0  0  0  0  0  0
   -4.1604   -0.5531    0.8219 O   0  0  0  0  0  0  0  0  0  0  0  0
   -2.4398    0.6502   -0.2164 N   0  0  0  0  0  0  0  0  0  0  0  0
   -0.1178   -0.0339   -0.0994 C   0  0  0  0  0  0  0  0  0  0  0  0
    0.5213    1.3375   -0.0343 C   0  0  0  0  0  0  0  0  0  0  0  0
    0.8713   -1.0426   -0.0644 C   0  0  0  0  0  0  0  0  0  0  0  0
    1.9930    0.9890    0.0420 C   0  0  0  0  0  0  0  0  0  0  0  0
    2.1711   -0.4127    0.0227 C   0  0  0  0  0  0  0  0  0  0  0  0
   -1.4640   -0.3438   -0.1820 C   0  0  0  0  0  0  0  0  0  0  0  0
    0.5143   -2.3798   -0.1121 C   0  0  0  0  0  0  0  0  0  0  0  0
    3.0705    1.8537    0.1220 C   0  0  0  0  0  0  0  0  0  0  0  0
    3.4412   -0.9613    0.0841 C   0  0  0  0  0  0  0  0  0  0  0  0
   -1.8234   -1.6919   -0.2300 C   0  0  0  0  0  0  0  0  0  0  0  0
   -0.8444   -2.6997   -0.1955 C   0  0  0  0  0  0  0  0  0  0  0  0
    4.3506    1.3003    0.1836 C   0  0  0  0  0  0  0  0  0  0  0  0
    4.5343   -0.0931    0.1650 C   0  0  0  0  0  0  0  0  0  0  0  0
   -3.7353    0.4751    0.2951 C   0  0  0  0  0  0  0  0  0  0  0  0
   -4.6630    1.6647    0.1712 C   0  0  0  0  0  0  0  0  0  0  0  0
  1  3  1  0
  2 17  2  0
  3  9  1  0
  3 17  1  0
  4  5  1  0
  4  6  2  0
  4  9  1  0
  5  7  1  0
  6  8  1  0
  6 10  1  0
  7  8  2  0
  7 11  1  0
  8 12  1  0
  9 13  2  0
 10 14  2  0
 11 15  2  0
 12 16  2  0
 13 14  1  0
 15 16  1  0
 17 18  1  0
M  END
>  <PUBCHEM_COMPOUND_CID>  (1) 
31097

>  <PUBCHEM_CONFORMER_RMSD>  (1) 
0.6

>  <PUBCHEM_CONFORMER_DIVERSEORDER>  (1) 
1
10
5
2
4
7
3
9
6
8

>  <PUBCHEM_MMFF94_PARTIAL_CHARGES>  (1) 
24
1 -0.44
10 -0.15
11 -0.15
12 -0.15
13 -0.15
14 -0.15
15 -0.15
16 -0.15
17 0.57
18 0.06
2 -0.57
21 0.15
22 0.15
23 0.15
24 0.15
25 0.15
26 0.15
27 0.15
28 0.4
3 -0.14
4 -0.14
5 0.29
7 -0.14
9 0.12

>  <PUBCHEM_EFFECTIVE_ROTOR_COUNT>  (1) 
2.2

>  <PUBCHEM_PHARMACOPHORE_FEATURES>  (1) 
4
1 2 acceptor
5 4 5 6 7 8 rings
6 4 6 9 10 13 14 rings
6 7 8 11 12 15 16 rings

>  <PUBCHEM_HEAVY_ATOM_COUNT>  (1) 
18

>  <PUBCHEM_ATOM_DEF_STEREO_COUNT>  (1) 
0

>  <PUBCHEM_ATOM_UDEF_STEREO_COUNT>  (1) 
0

>  <PUBCHEM_BOND_DEF_STEREO_COUNT>  (1) 
0

>  <PUBCHEM_BOND_UDEF_STEREO_COUNT>  (1) 
0

>  <PUBCHEM_ISOTOPIC_ATOM_COUNT>  (1) 
0

>  <PUBCHEM_COMPONENT_COUNT>  (1) 
1

>  <PUBCHEM_CACTVS_TAUTO_COUNT>  (1) 
1

>  <PUBCHEM_CONFORMER_ID>  (1) 
0000797900000001

>  <PUBCHEM_MMFF94_ENERGY>  (1) 
71.8815

>  <PUBCHEM_FEATURE_SELFOVERLAP>  (1) 
20.462

>  <PUBCHEM_SHAPE_FINGERPRINT>  (1) 
10411042 1 17258214597771242686
10493431 412 18411701014671804361
10608611 8 18269269243876477400
10922049 32 18409733958268122699
10967382 1 18411135801660813238
11471102 20 18340484469709105781
12173636 292 18340199794976394238
12251169 10 18335700567889435772
12390115 104 18270699643599858105
12403814 3 17894905256707620349
12500047 106 18271239538463876296
12592029 89 18335703793304822338
12644460 14 18188773821091481146
13140716 1 18410567422932222002
13380535 76 18413671318028895159
13544592 145 18272663320460338134
13583140 156 16733805554474939492
13675066 3 18333734636714366840
138480 1 17618785752033617127
14123255 52 18411980247870635321
14178342 30 18050269664675450250
14790565 3 18411428284312545848
14943859 89 18273495684420539603
15099037 51 18340770356181816398
15196674 1 18411136947995055595
15309172 13 18411142428758440779
15442244 35 18410005572680280242
15475509 35 16661776444728782539
16945 1 18336814321629038222
18186145 218 18342455937397686876
19591789 44 18337954493590977062
19784866 9 18341614746467243745
20261772 1 18337115665018802859
204376 136 18412265030035545379
20510252 161 18198907091914528314
20645477 56 18410852209270792696
21267235 1 18338525225972449602
21501502 16 18266735977586273902
21524375 3 18413387644192413695
23184049 59 18407760326506614804
2334 1 18267017443867548374
23402539 116 18201430380969231965
23558518 356 17901944467724596218
23559900 14 18201719575041085120
25 1 18341609291653003646
2748010 2 18411420652460927590
293599 30 18411984663265989540
335352 9 18411981326440352390
34934 24 18411412934779022098
350125 39 18267588094781591049
474229 33 18411701028200524719
5104073 3 18409448098129576330
633830 44 18201721700206131613
6430166 295 18411134740650949328
69090 78 18412259557967674423
7364860 26 18197499510878072751
7832392 63 18339357573907823132
81228 2 17833813246778893483
8272917 22 18127414445553991741
9709674 26 18270402814563645726

>  <PUBCHEM_SHAPE_MULTIPOLES>  (1) 
353.71
8.32
2.48
0.68
1.19
0.9
0.01
-4.16
1.2
0.58
-0.19
0.17
-0.03
0.12

>  <PUBCHEM_SHAPE_SELFOVERLAP>  (1) 
784.31

>  <PUBCHEM_SHAPE_VOLUME>  (1) 
191

>  <PUBCHEM_COORDINATE_TYPE>  (1) 
2
5
10

$$$$
