31094
     RDKit          3D

 17 18  0  0  1  0  0  0  0  0999 V2000
   -0.9935    1.0934   -0.1885 O   0  0  0  0  0  0  0  0  0  0  0  0
    1.3059    2.0137   -0.6356 O   0  0  0  0  0  0  0  0  0  0  0  0
   -1.1881   -1.6656    0.4939 N   0  0  0  0  0  0  0  0  0  0  0  0
    2.3705    0.6341    0.9079 N   0  0  0  0  0  0  0  0  0  0  0  0
    0.0136    0.4207    0.5749 C   0  0  0  0  0  0  0  0  0  0  0  0
    0.0939   -1.0566    0.2172 C   0  0  0  0  0  0  0  0  0  0  0  0
    1.2797    1.1228    0.2094 C   0  0  0  0  0  0  0  0  0  0  0  0
   -2.3158   -0.9189    0.1778 C   0  0  0  0  0  0  0  0  0  0  0  0
    3.7152    1.1290    0.7210 C   0  0  0  0  0  0  0  0  0  0  0  0
    4.4267    0.3330   -0.3718 C   0  0  0  0  0  0  0  0  0  0  0  0
   -2.2060    0.4422   -0.1544 C   0  0  0  0  0  0  0  0  0  0  0  0
    4.5298   -1.1465    0.0006 C   0  0  0  0  0  0  0  0  0  0  0  0
   -3.5905   -1.4956    0.2172 C   0  0  0  0  0  0  0  0  0  0  0  0
   -3.3329    1.1924   -0.4951 C   0  0  0  0  0  0  0  0  0  0  0  0
    5.2053   -1.9519   -1.0979 C   0  0  0  0  0  0  0  0  0  0  0  0
   -4.7218   -0.7432   -0.1075 C   0  0  0  0  0  0  0  0  0  0  0  0
   -4.5921    0.5970   -0.4690 C   0  0  0  0  0  0  0  0  0  0  0  0
  1  5  1  0
  1 11  1  0
  2  7  2  0
  3  6  1  0
  3  8  1  0
  4  7  1  0
  4  9  1  0
  5  6  1  0
  5  7  1  0
  8 11  2  0
  8 13  1  0
  9 10  1  0
 10 12  1  0
 11 14  1  0
 12 15  1  0
 13 16  2  0
 14 17  2  0
 16 17  1  0
M  END
>  <PUBCHEM_COMPOUND_CID>  (1) 
31094

>  <PUBCHEM_CONFORMER_RMSD>  (1) 
0.8

>  <PUBCHEM_CONFORMER_DIVERSEORDER>  (1) 
1
54
44
35
13
22
33
3
6
59
28
37
52
34
18
40
19
17
9
45
53
30
8
47
62
25
15
43
4
36
49
38
42
24
12
7
31
48
56
57
29
5
16
2
58
50
41
46
20
61
64
32
39
63
21
23
11
14
55
51
10
60
27
26

>  <PUBCHEM_MMFF94_PARTIAL_CHARGES>  (1) 
20
1 -0.36
11 0.08
13 -0.15
14 -0.15
16 -0.15
17 -0.15
2 -0.57
21 0.4
26 0.37
29 0.15
3 -0.87
30 0.15
34 0.15
35 0.15
4 -0.73
5 0.34
6 0.37
7 0.57
8 0.1
9 0.3

>  <PUBCHEM_EFFECTIVE_ROTOR_COUNT>  (1) 
5.8

>  <PUBCHEM_PHARMACOPHORE_FEATURES>  (1) 
8
1 1 acceptor
1 15 hydrophobe
1 2 acceptor
1 3 cation
1 3 donor
1 4 donor
6 1 3 5 6 8 11 rings
6 8 11 13 14 16 17 rings

>  <PUBCHEM_HEAVY_ATOM_COUNT>  (1) 
17

>  <PUBCHEM_ATOM_DEF_STEREO_COUNT>  (1) 
0

>  <PUBCHEM_ATOM_UDEF_STEREO_COUNT>  (1) 
1

>  <PUBCHEM_BOND_DEF_STEREO_COUNT>  (1) 
0

>  <PUBCHEM_BOND_UDEF_STEREO_COUNT>  (1) 
0

>  <PUBCHEM_ISOTOPIC_ATOM_COUNT>  (1) 
0

>  <PUBCHEM_COMPONENT_COUNT>  (1) 
1

>  <PUBCHEM_CACTVS_TAUTO_COUNT>  (1) 
2

>  <PUBCHEM_CONFORMER_ID>  (1) 
0000797600000001

>  <PUBCHEM_MMFF94_ENERGY>  (1) 
39.1288

>  <PUBCHEM_FEATURE_SELFOVERLAP>  (1) 
40.646

>  <PUBCHEM_SHAPE_FINGERPRINT>  (1) 
11128504 68 16515410668420626238
11458722 379 18334013869565454018
12032990 46 18411138060402284304
12596602 18 14620781705202612238
12670543 26 18410566259133092021
13134695 92 17131542933730520184
13533116 47 17846216674379928730
13544592 145 18411981352041246866
13675066 3 18341045336624442273
13690532 89 18410855464581482176
14251752 14 17677328300072939174
14573314 32 18410855460370885060
14866123 147 17624425177521464712
15042514 8 18118687849735951123
15099037 51 18335700554835761335
15196674 1 18409728473710715858
15536298 74 18412257350612856410
17804303 29 18335418006317933593
17834072 8 18409164389780414062
17870717 6 18336554836700234535
18186145 218 17677039252478041853
200 152 17489586761916423067
20374829 77 18336826399530709698
20645477 70 18273215292493096830
20871999 31 18113345197865303588
21267235 1 18334018328569610819
21279426 13 18340204064195089244
21521239 73 18129924746643800559
21682296 61 18272660004144705439
2215653 11 18341890775151031958
23175994 123 17988925587026200729
23402539 116 18201430402992779029
23559900 14 18342172306664281632
3004659 81 18260551092068960054
34797466 226 13840275753378715723
4990 188 18409165502604159538
5104073 3 18411134757603985640
5207 123 18200601285410356254
5374978 207 10303818674693291324
59755656 215 18264202526786608661
6138700 20 18337955559249716870
633830 44 17822286928782108970
960060 61 18260839193937427286
9709674 26 18264208187052604554
9981440 41 16890050842560386073

>  <PUBCHEM_SHAPE_MULTIPOLES>  (1) 
328.15
11.1
1.9
0.84
5.54
0.27
0.03
3.47
2.24
0.93
0.2
0.45
0.02
1.17

>  <PUBCHEM_SHAPE_SELFOVERLAP>  (1) 
681.368

>  <PUBCHEM_SHAPE_VOLUME>  (1) 
186

>  <PUBCHEM_COORDINATE_TYPE>  (1) 
2
5
10

$$$$
