31109
     RDKit          3D

 18 19  0  0  1  0  0  0  0  0999 V2000
   -1.0568    3.0447    0.3061 Cl  0  0  0  0  0  0  0  0  0  0  0  0
   -0.6235   -1.9952    0.2525 O   0  0  0  0  0  0  0  0  0  0  0  0
    1.8477    2.7414    0.0535 O   0  0  0  0  0  0  0  0  0  0  0  0
   -2.1934    0.2113    0.3962 N   0  0  0  0  0  0  0  0  0  0  0  0
   -2.9711   -0.4922   -0.5789 C   0  0  0  0  0  0  0  0  0  0  0  0
   -4.4605   -0.5095   -0.2002 C   0  0  0  0  0  0  0  0  0  0  0  0
   -0.8401    0.3677    0.2792 C   0  0  0  0  0  0  0  0  0  0  0  0
   -2.7742    0.1747   -1.9397 C   0  0  0  0  0  0  0  0  0  0  0  0
    1.4057   -0.8293    0.0805 C   0  0  0  0  0  0  0  0  0  0  0  0
   -0.0620   -0.9051    0.2077 C   0  0  0  0  0  0  0  0  0  0  0  0
    2.0530    0.4039    0.0283 C   0  0  0  0  0  0  0  0  0  0  0  0
   -4.7424   -1.1796    1.1386 C   0  0  0  0  0  0  0  0  0  0  0  0
   -0.1939    1.5426    0.2269 C   0  0  0  0  0  0  0  0  0  0  0  0
    1.2804    1.6559    0.0994 C   0  0  0  0  0  0  0  0  0  0  0  0
    2.1534   -2.0118    0.0116 C   0  0  0  0  0  0  0  0  0  0  0  0
    3.4473    0.4578   -0.0924 C   0  0  0  0  0  0  0  0  0  0  0  0
    3.5423   -1.9551   -0.1086 C   0  0  0  0  0  0  0  0  0  0  0  0
    4.1882   -0.7222   -0.1605 C   0  0  0  0  0  0  0  0  0  0  0  0
  1 13  1  0
  2 10  2  0
  3 14  2  0
  4  5  1  0
  4  7  1  0
  5  6  1  0
  5  8  1  0
  6 12  1  0
  7 10  1  0
  7 13  2  0
  9 10  1  0
  9 11  2  0
  9 15  1  0
 11 14  1  0
 11 16  1  0
 13 14  1  0
 15 17  2  0
 16 18  2  0
 17 18  1  0
M  END
>  <PUBCHEM_COMPOUND_CID>  (1) 
31109

>  <PUBCHEM_CONFORMER_RMSD>  (1) 
0.6

>  <PUBCHEM_CONFORMER_DIVERSEORDER>  (1) 
1
9
3
10
6
12
11
7
5
2
8
4

>  <PUBCHEM_MMFF94_PARTIAL_CHARGES>  (1) 
20
1 -0.14
10 0.47
11 0.09
13 0.15
14 0.47
15 -0.15
16 -0.15
17 -0.15
18 -0.15
2 -0.57
22 0.4
29 0.15
3 -0.57
30 0.15
31 0.15
32 0.15
4 -0.87
5 0.37
7 0.11
9 0.09

>  <PUBCHEM_EFFECTIVE_ROTOR_COUNT>  (1) 
3

>  <PUBCHEM_PHARMACOPHORE_FEATURES>  (1) 
7
1 12 hydrophobe
1 2 acceptor
1 3 acceptor
1 4 cation
1 4 donor
6 7 9 10 11 13 14 rings
6 9 11 15 16 17 18 rings

>  <PUBCHEM_HEAVY_ATOM_COUNT>  (1) 
18

>  <PUBCHEM_ATOM_DEF_STEREO_COUNT>  (1) 
0

>  <PUBCHEM_ATOM_UDEF_STEREO_COUNT>  (1) 
1

>  <PUBCHEM_BOND_DEF_STEREO_COUNT>  (1) 
0

>  <PUBCHEM_BOND_UDEF_STEREO_COUNT>  (1) 
0

>  <PUBCHEM_ISOTOPIC_ATOM_COUNT>  (1) 
0

>  <PUBCHEM_COMPONENT_COUNT>  (1) 
1

>  <PUBCHEM_CACTVS_TAUTO_COUNT>  (1) 
3

>  <PUBCHEM_CONFORMER_ID>  (1) 
0000798500000001

>  <PUBCHEM_MMFF94_ENERGY>  (1) 
49.3395

>  <PUBCHEM_FEATURE_SELFOVERLAP>  (1) 
35.541

>  <PUBCHEM_SHAPE_FINGERPRINT>  (1) 
10967382 1 18339080509704386912
11471102 20 18410571816214143703
11543360 7 16226057694680479182
11806522 49 18410012122130723834
12032990 46 18409452470506704467
12236239 1 17632298999663674723
12553582 1 18343015588615907734
13140716 1 18122901190718853320
13862211 1 18411133628318242874
14790565 3 17327475021153230977
15042514 8 17834679292648142698
15196674 1 18339081488914608928
16945 1 18410857676790371968
17357779 13 18337095787773208581
18186145 218 18336816567917935687
18785283 64 18044941417788750444
200 152 18343294838614877678
20645477 70 18337941394320305279
21029758 11 18341889676008928848
21041028 32 18342463629890206105
21267235 1 18339934735892663862
21296965 67 18341330007030499081
21501502 16 18194685861218160088
221357 26 18337372878485115589
221490 88 18192155004220617059
2334 1 17834394897278170024
23402539 116 18269829831487161646
23557571 272 17986958445107905006
23559900 14 18340769356034730376
23598291 2 17845647200503034421
2748010 2 18190727820620379104
3323516 105 18261392282250434171
5104073 3 18197774402429288826
7364860 26 18270397312652237776
77492 1 17560803281663101789

>  <PUBCHEM_SHAPE_MULTIPOLES>  (1) 
355.58
7.65
2.67
0.95
3.66
1.76
0.33
-4.01
-0.01
-0.83
-0.37
1.05
-0.07
0.35

>  <PUBCHEM_SHAPE_SELFOVERLAP>  (1) 
750.881

>  <PUBCHEM_SHAPE_VOLUME>  (1) 
201.4

>  <PUBCHEM_COORDINATE_TYPE>  (1) 
2
5
10

$$$$
