31101
     RDKit          3D

 43 49  0  0  1  0  0  0  0  0999 V2000
    8.9533   -1.5581    1.4974 Br  0  0  0  0  0  0  0  0  0  0  0  0
   -2.5505    0.8301   -1.1005 O   0  0  0  0  0  0  0  0  0  0  0  0
   -2.7795    1.2844    1.1951 O   0  0  0  0  0  0  0  0  0  0  0  0
   -3.5286   -2.5123   -0.5993 O   0  0  0  0  0  0  0  0  0  0  0  0
   -7.0470    0.6212    1.9930 O   0  0  0  0  0  0  0  0  0  0  0  0
    0.4141    0.4242   -1.9211 O   0  0  0  0  0  0  0  0  0  0  0  0
   -4.0469   -0.3502    0.1454 N   0  0  0  0  0  0  0  0  0  0  0  0
   -5.6652    1.8333    0.6110 N   0  0  0  0  0  0  0  0  0  0  0  0
   -1.0010   -0.8656   -0.5971 N   0  0  0  0  0  0  0  0  0  0  0  0
    3.2280   -2.3897   -0.0001 N   0  0  0  0  0  0  0  0  0  0  0  0
    8.0429    1.1052    0.7737 N   0  0  0  0  0  0  0  0  0  0  0  0
   -4.5869    1.9129   -0.3634 C   0  0  0  0  0  0  0  0  0  0  0  0
   -3.4644    0.9554   -0.0056 C   0  0  0  0  0  0  0  0  0  0  0  0
   -5.2230   -0.5831    0.9779 C   0  0  0  0  0  0  0  0  0  0  0  0
   -4.2708    3.4063   -0.4377 C   0  0  0  0  0  0  0  0  0  0  0  0
   -2.2332   -0.5582   -1.2691 C   0  0  0  0  0  0  0  0  0  0  0  0
   -6.2870    3.1320    0.8190 C   0  0  0  0  0  0  0  0  0  0  0  0
   -5.6499    4.0332   -0.2324 C   0  0  0  0  0  0  0  0  0  0  0  0
   -3.3462   -1.3051   -0.5690 C   0  0  0  0  0  0  0  0  0  0  0  0
   -6.0678    0.6749    1.2448 C   0  0  0  0  0  0  0  0  0  0  0  0
   -4.8198   -1.2198    2.3076 C   0  0  0  0  0  0  0  0  0  0  0  0
   -2.1626   -0.8852   -2.7490 C   0  0  0  0  0  0  0  0  0  0  0  0
   -4.0364   -2.5308    2.1425 C   0  0  0  0  0  0  0  0  0  0  0  0
   -3.4571   -0.4835   -3.4593 C   0  0  0  0  0  0  0  0  0  0  0  0
   -1.8791   -2.3731   -2.9663 C   0  0  0  0  0  0  0  0  0  0  0  0
    0.2223   -0.3452   -0.9830 C   0  0  0  0  0  0  0  0  0  0  0  0
    1.3400   -0.8070   -0.0980 C   0  0  0  0  0  0  0  0  0  0  0  0
    4.2358   -1.3199   -0.2466 C   0  0  0  0  0  0  0  0  0  0  0  0
    1.9591   -2.0820   -0.6758 C   0  0  0  0  0  0  0  0  0  0  0  0
   -4.8129   -3.5800    1.3458 C   0  0  0  0  0  0  0  0  0  0  0  0
   -2.6978   -2.2469    1.4570 C   0  0  0  0  0  0  0  0  0  0  0  0
    3.6461    0.1163   -0.1110 C   0  0  0  0  0  0  0  0  0  0  0  0
    2.3211    0.3211   -0.0088 C   0  0  0  0  0  0  0  0  0  0  0  0
    5.4877   -1.5612    0.6764 C   0  0  0  0  0  0  0  0  0  0  0  0
    4.5988    1.2486   -0.0744 C   0  0  0  0  0  0  0  0  0  0  0  0
    6.3978   -0.3853    0.6586 C   0  0  0  0  0  0  0  0  0  0  0  0
    5.8964    0.8837    0.3024 C   0  0  0  0  0  0  0  0  0  0  0  0
    3.7009   -3.7085   -0.4335 C   0  0  0  0  0  0  0  0  0  0  0  0
    6.9248    1.8083    0.3805 C   0  0  0  0  0  0  0  0  0  0  0  0
    7.7328   -0.2266    0.9471 C   0  0  0  0  0  0  0  0  0  0  0  0
    4.3747    2.5983   -0.3724 C   0  0  0  0  0  0  0  0  0  0  0  0
    6.7181    3.1572    0.0880 C   0  0  0  0  0  0  0  0  0  0  0  0
    5.4190    3.5306   -0.2901 C   0  0  0  0  0  0  0  0  0  0  0  0
  1 40  1  0
  2 13  1  0
  2 16  1  0
  3 13  1  0
  4 19  2  0
  5 20  2  0
  6 26  2  0
  7 13  1  0
  7 14  1  0
  7 19  1  0
  8 12  1  0
  8 17  1  0
  8 20  1  0
  9 16  1  0
  9 26  1  0
 10 28  1  0
 10 29  1  0
 10 38  1  0
 11 39  1  0
 11 40  1  0
 12 13  1  0
 12 15  1  0
 14 20  1  0
 14 21  1  0
 15 18  1  0
 16 19  1  0
 16 22  1  0
 17 18  1  0
 21 23  1  0
 22 24  1  0
 22 25  1  0
 23 30  1  0
 23 31  1  0
 26 27  1  0
 27 29  1  0
 27 33  1  0
 28 32  1  0
 28 34  1  0
 32 33  2  0
 32 35  1  0
 34 36  1  0
 35 37  2  0
 35 41  1  0
 36 37  1  0
 36 40  2  0
 37 39  1  0
 39 42  2  0
 41 43  2  0
 42 43  1  0
M  END
>  <PUBCHEM_COMPOUND_CID>  (1) 
31101

>  <PUBCHEM_CONFORMER_RMSD>  (1) 
1

>  <PUBCHEM_CONFORMER_DIVERSEORDER>  (1) 
2
10
8
5
3
4
6
7
9
1

>  <PUBCHEM_MMFF94_PARTIAL_CHARGES>  (1) 
40
1 -0.06
10 -0.81
11 0.03
12 0.3
13 0.86
14 0.36
16 0.64
17 0.3
19 0.57
2 -0.56
20 0.57
26 0.57
27 0.2
28 0.41
29 0.27
3 -0.68
32 -0.17
33 -0.29
34 0.18
35 0.03
36 -0.18
38 0.27
39 -0.15
4 -0.57
40 -0.09
41 -0.15
42 -0.15
43 -0.15
5 -0.57
55 0.37
56 0.4
6 -0.57
7 -0.66
74 0.15
8 -0.66
80 0.15
81 0.27
82 0.15
83 0.15
9 -0.73

>  <PUBCHEM_EFFECTIVE_ROTOR_COUNT>  (1) 
8

>  <PUBCHEM_PHARMACOPHORE_FEATURES>  (1) 
20
1 1 hydrophobe
1 10 cation
1 11 cation
1 11 donor
1 2 acceptor
1 3 acceptor
1 3 donor
1 4 acceptor
1 5 acceptor
1 6 acceptor
1 9 donor
3 22 24 25 hydrophobe
3 23 30 31 hydrophobe
5 11 36 37 39 40 rings
5 2 7 13 16 19 rings
5 8 12 15 17 18 rings
6 10 27 28 29 32 33 rings
6 28 32 34 35 36 37 rings
6 35 37 39 41 42 43 rings
6 7 8 12 13 14 20 rings

>  <PUBCHEM_HEAVY_ATOM_COUNT>  (1) 
43

>  <PUBCHEM_ATOM_DEF_STEREO_COUNT>  (1) 
6

>  <PUBCHEM_ATOM_UDEF_STEREO_COUNT>  (1) 
0

>  <PUBCHEM_BOND_DEF_STEREO_COUNT>  (1) 
0

>  <PUBCHEM_BOND_UDEF_STEREO_COUNT>  (1) 
0

>  <PUBCHEM_ISOTOPIC_ATOM_COUNT>  (1) 
0

>  <PUBCHEM_COMPONENT_COUNT>  (1) 
1

>  <PUBCHEM_CACTVS_TAUTO_COUNT>  (1) 
2

>  <PUBCHEM_CONFORMER_ID>  (1) 
0000797D00000002

>  <PUBCHEM_MMFF94_ENERGY>  (1) 
177.0705

>  <PUBCHEM_FEATURE_SELFOVERLAP>  (1) 
101.968

>  <PUBCHEM_SHAPE_FINGERPRINT>  (1) 
10 15 18408889542075560000
10554248 39 16128102139817194772
10930396 42 18261396663865903049
11062273 23 15502643868336230239
11093857 5 18042708207090057602
11135926 11 18337659837956020054
11456790 92 18335129862164186032
12128747 34 18336553694571177891
13560911 23 18261943111747897032
13782708 43 15574980794199084464
13811026 1 18408042888242238497
13911987 19 17275104995123278257
14856354 85 18262807375158622007
15183329 4 10375878463359293612
15513586 35 17771066291630562633
1577012 14 18272646896822116900
19302320 297 18409733954691138840
21033650 10 13038913205266309583
21756936 100 18411131412351981751
22122407 14 18343578568518341444
24771293 8 18128518527824101488
3178227 256 18334573548019814458
3552219 110 16914816114522294271
397830 11 18335710433297699395
4073 2 18260833696094646626
4144715 1 18335151868379092032
4258327 124 17704069616692314709
4756326 101 17750786646725355717
504843 32 17489862744189541823
5080951 261 17385996308619271387
5104073 3 18186798080669822770
5364581 5 18335426819453824545
6009941 240 18335138652886171496
6086070 43 16773216466525058592

>  <PUBCHEM_SHAPE_MULTIPOLES>  (1) 
836.61
23.45
4.38
2.15
30.37
1.74
-1.36
9.4
12.34
-2.06
0.41
-3.8
-1.47
-0.1

>  <PUBCHEM_SHAPE_SELFOVERLAP>  (1) 
1839.145

>  <PUBCHEM_SHAPE_VOLUME>  (1) 
462

>  <PUBCHEM_COORDINATE_TYPE>  (1) 
2
5
10

$$$$
