31119
     RDKit          3D

 17 19  0  0  0  0  0  0  0  0999 V2000
   -5.2019    0.3074    0.0010 Cl  0  0  0  0  0  0  0  0  0  0  0  0
    5.0454   -0.1964    0.0018 Cl  0  0  0  0  0  0  0  0  0  0  0  0
    1.4219    2.9491   -0.0003 O   0  0  0  0  0  0  0  0  0  0  0  0
    0.0693    2.5987   -0.0001 N   0  0  0  0  0  0  0  0  0  0  0  0
   -0.8472   -0.8489   -0.0004 C   0  0  0  0  0  0  0  0  0  0  0  0
    0.5989   -0.9179   -0.0004 C   0  0  0  0  0  0  0  0  0  0  0  0
   -1.2444    0.4996   -0.0002 C   0  0  0  0  0  0  0  0  0  0  0  0
    1.1249    0.3872   -0.0004 C   0  0  0  0  0  0  0  0  0  0  0  0
   -0.0198    1.3149   -0.0003 C   0  0  0  0  0  0  0  0  0  0  0  0
   -1.8069   -1.8459   -0.0002 C   0  0  0  0  0  0  0  0  0  0  0  0
    1.4561   -2.0046   -0.0004 C   0  0  0  0  0  0  0  0  0  0  0  0
   -2.5668    0.8971    0.0000 C   0  0  0  0  0  0  0  0  0  0  0  0
    2.4808    0.6501   -0.0003 C   0  0  0  0  0  0  0  0  0  0  0  0
   -3.1554   -1.4683    0.0001 C   0  0  0  0  0  0  0  0  0  0  0  0
    2.8348   -1.7619   -0.0001 C   0  0  0  0  0  0  0  0  0  0  0  0
   -3.5307   -0.1115    0.0002 C   0  0  0  0  0  0  0  0  0  0  0  0
    3.3409   -0.4487   -0.0002 C   0  0  0  0  0  0  0  0  0  0  0  0
  1 16  1  0
  2 17  1  0
  3  4  1  0
  4  9  2  3
  5  6  1  0
  5  7  2  0
  5 10  1  0
  6  8  2  0
  6 11  1  0
  7  9  1  0
  7 12  1  0
  8  9  1  0
  8 13  1  0
 10 14  2  0
 11 15  2  0
 12 16  2  0
 13 17  2  0
 14 16  1  0
 15 17  1  0
M  END
>  <PUBCHEM_COMPOUND_CID>  (1) 
31119

>  <PUBCHEM_CONFORMER_RMSD>  (1) 
0.4

>  <PUBCHEM_CONFORMER_DIVERSEORDER>  (1) 
1

>  <PUBCHEM_MMFF94_PARTIAL_CHARGES>  (1) 
22
1 -0.18
10 -0.15
11 -0.15
12 -0.15
13 -0.15
14 -0.15
15 -0.15
16 0.18
17 0.18
18 0.15
19 0.15
2 -0.18
20 0.15
21 0.15
22 0.15
23 0.15
24 0.4
3 -0.34
4 -0.51
7 0.09
8 0.09
9 0.28

>  <PUBCHEM_EFFECTIVE_ROTOR_COUNT>  (1) 
0

>  <PUBCHEM_PHARMACOPHORE_FEATURES>  (1) 
5
1 3 anion
1 4 acceptor
5 5 6 7 8 9 rings
6 5 7 10 12 14 16 rings
6 6 8 11 13 15 17 rings

>  <PUBCHEM_HEAVY_ATOM_COUNT>  (1) 
17

>  <PUBCHEM_ATOM_DEF_STEREO_COUNT>  (1) 
0

>  <PUBCHEM_ATOM_UDEF_STEREO_COUNT>  (1) 
0

>  <PUBCHEM_BOND_DEF_STEREO_COUNT>  (1) 
0

>  <PUBCHEM_BOND_UDEF_STEREO_COUNT>  (1) 
0

>  <PUBCHEM_ISOTOPIC_ATOM_COUNT>  (1) 
0

>  <PUBCHEM_COMPONENT_COUNT>  (1) 
1

>  <PUBCHEM_CACTVS_TAUTO_COUNT>  (1) 
2

>  <PUBCHEM_CONFORMER_ID>  (1) 
0000798F00000001

>  <PUBCHEM_MMFF94_ENERGY>  (1) 
67.2021

>  <PUBCHEM_FEATURE_SELFOVERLAP>  (1) 
25.539

>  <PUBCHEM_SHAPE_FINGERPRINT>  (1) 
10608611 8 18336542819740306229
10906281 52 18338536169464327538
10967382 1 18410856538191599686
11132069 177 18411132541611954050
11471102 20 18410289216272499671
11680986 33 18120937462487467001
12011746 2 18413107238519836367
12032990 46 18410860940538398334
12251169 10 18412829092480396443
12553582 1 18410284792134385806
13132413 78 18412827984009744508
13140716 1 18266741461805823985
13221675 6 18410012134857642979
13862211 1 18410568474777397898
14115302 16 18040727973277292286
14790565 3 18410586079922567532
14911166 2 18409444782810423007
15099037 51 18410009927713646143
15196674 1 18338516455538071622
15375462 189 18186517678907551955
15442244 35 18412547583154587945
15536298 74 18271525420035087912
16945 1 18410575123565736903
17804303 29 18409452522188489943
18522853 276 18413388722133908723
193761 8 17834394905715279622
19591789 44 16174829596853630267
200 152 18060695096396337303
20510252 161 18199185079441085168
21029758 11 18341326725992177953
21029758 27 18261682531528793469
21267235 1 18410865342853613383
21421861 104 17825665556374283898
21501502 16 18194965364625559871
221490 88 18191873533391057187
2334 1 17978511167316603713
23366157 5 17825382140304541204
23402539 116 18271799116514834879
23402655 69 18341605967870387319
23463225 33 18409730651306724598
23557571 272 18200601281036118252
23559900 14 18341325695163149320
23622692 118 17914604193389546487
2748010 2 18339920407411941358
3071541 12 18194684988760037468
3071541 158 18333449867313422837
3312278 4 18409731742238999834
335352 9 18410575084979577471
34934 24 18410849945422263466
350125 39 18265621072943577427
5104073 3 18338799026048078259
537710 114 18408329877935579036
69090 78 18342171155465320551
7364860 26 18268710687083931601
7832392 63 18341326785989818831
81228 2 18122921836294342104
84936 182 17842277253014580569
8809292 202 18188213203337053699
9709674 26 18411142475972173031
9981440 41 17401480945247241512

>  <PUBCHEM_SHAPE_MULTIPOLES>  (1) 
342.74
7.96
2.36
0.61
1.32
1.05
0
-1.07
0
-0.56
0
0.01
-0.03
0

>  <PUBCHEM_SHAPE_SELFOVERLAP>  (1) 
754.862

>  <PUBCHEM_SHAPE_VOLUME>  (1) 
188.6

>  <PUBCHEM_COORDINATE_TYPE>  (1) 
2
5
10

$$$$
