31113
     RDKit          3D

 23 25  0  0  0  0  0  0  0  0999 V2000
   -1.6584   -1.8119    1.6381 O   0  0  0  0  0  0  0  0  0  0  0  0
   -1.3091    2.4645   -0.3036 O   0  0  0  0  0  0  0  0  0  0  0  0
    0.1535   -0.5110    0.7147 N   0  0  0  0  0  0  0  0  0  0  0  0
    0.2995    0.7756    0.1676 N   0  0  0  0  0  0  0  0  0  0  0  0
   -1.9314    0.4015    0.7176 C   0  0  0  0  0  0  0  0  0  0  0  0
   -3.3761    0.6936    0.8521 C   0  0  0  0  0  0  0  0  0  0  0  0
   -4.1686    0.2241   -0.3681 C   0  0  0  0  0  0  0  0  0  0  0  0
   -1.1845   -0.6594    1.0643 C   0  0  0  0  0  0  0  0  0  0  0  0
   -0.9701    1.3617    0.0959 C   0  0  0  0  0  0  0  0  0  0  0  0
   -5.6626    0.5020   -0.1995 C   0  0  0  0  0  0  0  0  0  0  0  0
    0.8777   -1.5968    0.1346 C   0  0  0  0  0  0  0  0  0  0  0  0
    1.5512    1.4392    0.0530 C   0  0  0  0  0  0  0  0  0  0  0  0
   -6.4604    0.0036   -1.3940 C   0  0  0  0  0  0  0  0  0  0  0  0
    0.9113   -1.7712   -1.2579 C   0  0  0  0  0  0  0  0  0  0  0  0
    1.5689   -2.5098    0.9465 C   0  0  0  0  0  0  0  0  0  0  0  0
    1.6702    2.5922   -0.7313 C   0  0  0  0  0  0  0  0  0  0  0  0
    2.6764    0.9467    0.7237 C   0  0  0  0  0  0  0  0  0  0  0  0
    1.6182   -2.8321   -1.8242 C   0  0  0  0  0  0  0  0  0  0  0  0
    2.2757   -3.5706    0.3801 C   0  0  0  0  0  0  0  0  0  0  0  0
    2.8983    3.2439   -0.8436 C   0  0  0  0  0  0  0  0  0  0  0  0
    3.9045    1.5986    0.6115 C   0  0  0  0  0  0  0  0  0  0  0  0
    2.3004   -3.7316   -1.0053 C   0  0  0  0  0  0  0  0  0  0  0  0
    4.0154    2.7472   -0.1722 C   0  0  0  0  0  0  0  0  0  0  0  0
  1  8  1  0
  2  9  2  0
  3  4  1  0
  3  8  1  0
  3 11  1  0
  4  9  1  0
  4 12  1  0
  5  6  1  0
  5  8  2  0
  5  9  1  0
  6  7  1  0
  7 10  1  0
 10 13  1  0
 11 14  2  0
 11 15  1  0
 12 16  2  0
 12 17  1  0
 14 18  1  0
 15 19  2  0
 16 20  1  0
 17 21  2  0
 18 22  2  0
 19 22  1  0
 20 23  2  0
 21 23  1  0
M  END
>  <PUBCHEM_COMPOUND_CID>  (1) 
31113

>  <PUBCHEM_CONFORMER_RMSD>  (1) 
0.8

>  <PUBCHEM_CONFORMER_DIVERSEORDER>  (1) 
2
6
14
11
15
13
3
10
12
4
16
9
8
1
7
5

>  <PUBCHEM_MMFF94_PARTIAL_CHARGES>  (1) 
31
1 -0.53
11 0.1
12 0.12
14 -0.15
15 -0.15
16 -0.15
17 -0.15
18 -0.15
19 -0.15
2 -0.57
20 -0.15
21 -0.15
22 -0.15
23 -0.15
3 -0.22
33 0.15
34 0.15
35 0.15
36 0.15
37 0.45
38 0.15
39 0.15
4 -0.16
40 0.15
41 0.15
42 0.15
43 0.15
5 -0.12
6 0.14
8 0.18
9 0.62

>  <PUBCHEM_EFFECTIVE_ROTOR_COUNT>  (1) 
5

>  <PUBCHEM_PHARMACOPHORE_FEATURES>  (1) 
6
1 1 donor
1 13 hydrophobe
1 2 acceptor
5 3 4 5 8 9 rings
6 11 14 15 18 19 22 rings
6 12 16 17 20 21 23 rings

>  <PUBCHEM_HEAVY_ATOM_COUNT>  (1) 
23

>  <PUBCHEM_ATOM_DEF_STEREO_COUNT>  (1) 
0

>  <PUBCHEM_ATOM_UDEF_STEREO_COUNT>  (1) 
0

>  <PUBCHEM_BOND_DEF_STEREO_COUNT>  (1) 
0

>  <PUBCHEM_BOND_UDEF_STEREO_COUNT>  (1) 
0

>  <PUBCHEM_ISOTOPIC_ATOM_COUNT>  (1) 
0

>  <PUBCHEM_COMPONENT_COUNT>  (1) 
1

>  <PUBCHEM_CACTVS_TAUTO_COUNT>  (1) 
2

>  <PUBCHEM_CONFORMER_ID>  (1) 
0000798900000002

>  <PUBCHEM_MMFF94_ENERGY>  (1) 
79.9487

>  <PUBCHEM_FEATURE_SELFOVERLAP>  (1) 
30.446

>  <PUBCHEM_SHAPE_FINGERPRINT>  (1) 
10411042 1 17975973159393691891
10906281 52 18187659028244813697
11578080 2 16879622670945120382
12788726 201 16966630165635399674
13083527 12 18268698424994389107
13140716 1 18265628739090897192
13149001 5 17613421251807442517
13257819 101 17458888440498432005
13257819 37 17975434703822746196
133893 2 18197241190190945664
13681431 1 18126863594328459290
13968360 50 18339352063058594247
15664445 248 18124315995922825791
15842332 3 17631188398314290049
15906896 17 17762905759431544002
16752209 62 17909262829988319762
17138139 8 17414693661046436591
1813 80 17983578503093013559
20197701 30 18198059381576838816
20554085 129 17987220287488770344
20600515 1 17195167003147496520
20645477 70 18411978027884337207
20691752 17 17605567539245177297
20905425 154 17978803307409085366
21033648 29 14563906214944465829
21054139 6 18057873844111814799
21344244 246 18272658926645685982
22182313 1 18042145253088614491
23419403 2 17824806872231629534
23557571 272 16830087301603424734
23558518 356 18195534684158627329
23559900 14 18408044000406393546
23598288 3 17611749303302292888
23728640 28 17980483683330542290
25147074 1 17916596332475959921
2748010 2 18048062901456307434
3060560 45 18410295847923908172
34934 24 17824816982748849680
352729 6 18192164895176794088
376196 1 18115579508440895161
4017518 198 18129947892813272422
46194498 28 18264756698174881181
474 4 18336264630229149193
59554788 191 17900545884797723549
59755656 215 18334857203610848612
6025842 7 18412257342355289671
6138700 20 18339938009237823662
7364860 26 18341901736187087506
81228 2 16901598442424609362
81539 233 18410014368103201068
8272917 22 18409729556137614837
9999458 23 16443336598524556784

>  <PUBCHEM_SHAPE_MULTIPOLES>  (1) 
451.63
8.86
4.59
1.33
17.55
2.49
-0.19
-4.09
-2.43
-7.23
-1.3
0.21
0.75
0.23

>  <PUBCHEM_SHAPE_SELFOVERLAP>  (1) 
967.013

>  <PUBCHEM_SHAPE_VOLUME>  (1) 
249.4

>  <PUBCHEM_COORDINATE_TYPE>  (1) 
2
5
10

$$$$
