3111
     RDKit          3D

 21 22  0  0  1  0  0  0  0  0999 V2000
    3.5213   -0.9329    0.8472 S   0  0  0  0  0  0  0  0  0  0  0  0
    0.0389   -1.5307   -1.0225 O   0  0  0  0  0  0  0  0  0  0  0  0
    4.4753   -2.2523    0.7616 O   0  0  0  0  0  0  0  0  0  0  0  0
    4.3530    0.2258    1.0998 O   0  0  0  0  0  0  0  0  0  0  0  0
    2.3712   -1.2456    1.6704 O   0  0  0  0  0  0  0  0  0  0  0  0
   -0.6885    1.5293    0.4350 N   0  0  0  0  0  0  0  0  0  0  0  0
   -1.1088    0.2422    0.0680 N   0  0  0  0  0  0  0  0  0  0  0  0
    2.2432    0.2751   -1.2464 N   0  0  0  0  0  0  0  0  0  0  0  0
    1.0730    0.5916   -0.6536 C   0  0  0  0  0  0  0  0  0  0  0  0
    0.6002    1.7004   -0.0651 C   0  0  0  0  0  0  0  0  0  0  0  0
   -0.0356   -0.4068   -0.5514 C   0  0  0  0  0  0  0  0  0  0  0  0
    3.0142   -0.9183   -0.8685 C   0  0  0  0  0  0  0  0  0  0  0  0
   -2.4687   -0.1563    0.0397 C   0  0  0  0  0  0  0  0  0  0  0  0
    1.3351    2.9862    0.1156 C   0  0  0  0  0  0  0  0  0  0  0  0
   -1.0515    2.0292    1.7575 C   0  0  0  0  0  0  0  0  0  0  0  0
    2.7339    1.0076   -2.4180 C   0  0  0  0  0  0  0  0  0  0  0  0
   -2.8040   -1.5095   -0.0697 C   0  0  0  0  0  0  0  0  0  0  0  0
   -3.4849    0.8008    0.1209 C   0  0  0  0  0  0  0  0  0  0  0  0
   -4.1424   -1.9016   -0.0974 C   0  0  0  0  0  0  0  0  0  0  0  0
   -4.8231    0.4086    0.0931 C   0  0  0  0  0  0  0  0  0  0  0  0
   -5.1519   -0.9426   -0.0161 C   0  0  0  0  0  0  0  0  0  0  0  0
  1  3  1  0
  1  4  2  0
  1  5  2  0
  1 12  1  0
  2 11  2  0
  6  7  1  0
  6 10  1  0
  6 15  1  0
  7 11  1  0
  7 13  1  0
  8  9  1  0
  8 12  1  0
  8 16  1  0
  9 10  2  0
  9 11  1  0
 10 14  1  0
 13 17  2  0
 13 18  1  0
 17 19  1  0
 18 20  2  0
 19 21  2  0
 20 21  1  0
M  END
>  <PUBCHEM_COMPOUND_CID>  (1) 
3111

>  <PUBCHEM_CONFORMER_RMSD>  (1) 
0.6

>  <PUBCHEM_CONFORMER_DIVERSEORDER>  (1) 
1
40
15
14
9
41
47
33
16
45
17
39
30
5
42
35
11
23
48
8
25
34
21
46
27
18
36
2
38
6
12
31
24
22
44
13
37
28
49
29
20
26
43
10
3
32
4
7
19

>  <PUBCHEM_MMFF94_PARTIAL_CHARGES>  (1) 
27
1 1.38
10 -0.04
11 0.62
12 0.47
13 0.12
14 0.14
15 0.37
16 0.37
17 -0.15
18 -0.15
19 -0.15
2 -0.57
20 -0.15
21 -0.15
3 -0.68
33 0.15
34 0.15
35 0.15
36 0.15
37 0.15
38 0.5
4 -0.65
5 -0.65
6 -0.49
7 -0.16
8 -0.84
9 0.11

>  <PUBCHEM_EFFECTIVE_ROTOR_COUNT>  (1) 
4

>  <PUBCHEM_PHARMACOPHORE_FEATURES>  (1) 
8
1 2 acceptor
1 3 acceptor
1 4 acceptor
1 5 acceptor
1 8 cation
4 1 3 4 5 anion
5 6 7 9 10 11 rings
6 13 17 18 19 20 21 rings

>  <PUBCHEM_HEAVY_ATOM_COUNT>  (1) 
21

>  <PUBCHEM_ATOM_DEF_STEREO_COUNT>  (1) 
0

>  <PUBCHEM_ATOM_UDEF_STEREO_COUNT>  (1) 
0

>  <PUBCHEM_BOND_DEF_STEREO_COUNT>  (1) 
0

>  <PUBCHEM_BOND_UDEF_STEREO_COUNT>  (1) 
0

>  <PUBCHEM_ISOTOPIC_ATOM_COUNT>  (1) 
0

>  <PUBCHEM_COMPONENT_COUNT>  (1) 
1

>  <PUBCHEM_CACTVS_TAUTO_COUNT>  (1) 
1

>  <PUBCHEM_CONFORMER_ID>  (1) 
00000C2700000001

>  <PUBCHEM_MMFF94_ENERGY>  (1) 
74.6635

>  <PUBCHEM_FEATURE_SELFOVERLAP>  (1) 
40.651

>  <PUBCHEM_SHAPE_FINGERPRINT>  (1) 
10062212 137 18410572886225743199
10759866 29 18116163331496901621
11405975 8 18410579530824727097
11578080 2 18114725076189776884
11796584 16 17676201381963708531
12236239 1 18260835890922875782
12553582 1 18199772317808922977
12633257 1 18342750619841840347
13140716 1 18272373113683141825
13675066 3 16988851574942374261
14081887 123 17559681629167938969
14178342 30 17914908542881774033
14251764 38 11598633190026415283
14787075 74 18187641449254245288
15238133 3 18338805520323601965
15342168 16 14332541471989874874
16752209 62 18270412598250725781
16945 1 18200893785225360485
17349148 13 18201718444779079023
17834072 14 18131630067392225785
1813 80 17749670667453883502
18186145 218 14129059231529852077
18222031 100 17989210360537489423
19078846 21 18411705370032470981
19784866 240 18041000583726450738
200 152 17603868854025616058
20369508 70 18410009978863051885
20600515 1 18131068216607703400
20626108 58 18336537309139087923
20645477 70 18270406130267322567
21033648 29 16415477104085189051
21250096 35 18408317770137986915
21501925 9 18201438112042116405
22112679 90 18266477420307466168
2255824 54 18116158946298570380
23366157 5 18190744339244499917
23557571 272 17774168877104575428
23559900 14 17988375796820679124
3004659 81 18334021583342496759
3286 77 18335416911243529381
3411729 13 17915171541136472784
394222 165 17898301738715915404
4072396 5 18272930484315835391
4340502 62 17604718913931702264
495365 180 16009038331995413252
5104073 3 18271252741757944755
5902787 121 18341895229295777141
633830 44 15574428847698668109
81228 2 17772495416165062617
9841814 1 18272379714504771056

>  <PUBCHEM_SHAPE_MULTIPOLES>  (1) 
397.6
9.16
2.41
1.45
5.11
0.82
0.25
-4.67
-0.94
-0.78
-0.54
-1.78
0.24
-1.2

>  <PUBCHEM_SHAPE_SELFOVERLAP>  (1) 
823.189

>  <PUBCHEM_SHAPE_VOLUME>  (1) 
230.3

>  <PUBCHEM_COORDINATE_TYPE>  (1) 
2
5
10

$$$$
