31123
     RDKit          3D

 13 13  0  0  0  0  0  0  0  0999 V2000
   -4.9279    0.1421   -1.0129 Cl  0  0  0  0  0  0  0  0  0  0  0  0
    3.8404   -0.6196   -0.1573 O   0  0  0  0  0  0  0  0  0  0  0  0
   -2.6118   -1.3789    0.2451 O   0  0  0  0  0  0  0  0  0  0  0  0
   -1.5294    0.7111    0.2311 N   0  0  0  0  0  0  0  0  0  0  0  0
   -0.1785    0.3767    0.1339 C   0  0  0  0  0  0  0  0  0  0  0  0
    0.7876    1.3818    0.0881 C   0  0  0  0  0  0  0  0  0  0  0  0
    0.2059   -0.9632    0.0811 C   0  0  0  0  0  0  0  0  0  0  0  0
    2.5226   -0.2929   -0.0633 C   0  0  0  0  0  0  0  0  0  0  0  0
    2.1380    1.0470   -0.0106 C   0  0  0  0  0  0  0  0  0  0  0  0
    1.5564   -1.2981   -0.0175 C   0  0  0  0  0  0  0  0  0  0  0  0
   -2.6328   -0.1517    0.2887 C   0  0  0  0  0  0  0  0  0  0  0  0
   -3.9457    0.5882    0.3911 C   0  0  0  0  0  0  0  0  0  0  0  0
    4.7753    0.4576   -0.1975 C   0  0  0  0  0  0  0  0  0  0  0  0
  1 12  1  0
  2  8  1  0
  2 13  1  0
  3 11  2  0
  4  5  1  0
  4 11  1  0
  5  6  2  0
  5  7  1  0
  6  9  1  0
  7 10  2  0
  8  9  2  0
  8 10  1  0
 11 12  1  0
M  END
>  <PUBCHEM_COMPOUND_CID>  (1) 
31123

>  <PUBCHEM_CONFORMER_RMSD>  (1) 
0.6

>  <PUBCHEM_CONFORMER_DIVERSEORDER>  (1) 
1
9
6
7
4
10
5
3
8
2

>  <PUBCHEM_MMFF94_PARTIAL_CHARGES>  (1) 
18
1 -0.29
10 -0.15
11 0.57
12 0.35
13 0.28
14 0.15
15 0.15
16 0.15
17 0.15
18 0.37
2 -0.36
3 -0.57
4 -0.55
5 0.12
6 -0.15
7 -0.15
8 0.08
9 -0.15

>  <PUBCHEM_EFFECTIVE_ROTOR_COUNT>  (1) 
4

>  <PUBCHEM_PHARMACOPHORE_FEATURES>  (1) 
4
1 2 acceptor
1 3 acceptor
1 4 donor
6 5 6 7 8 9 10 rings

>  <PUBCHEM_HEAVY_ATOM_COUNT>  (1) 
13

>  <PUBCHEM_ATOM_DEF_STEREO_COUNT>  (1) 
0

>  <PUBCHEM_ATOM_UDEF_STEREO_COUNT>  (1) 
0

>  <PUBCHEM_BOND_DEF_STEREO_COUNT>  (1) 
0

>  <PUBCHEM_BOND_UDEF_STEREO_COUNT>  (1) 
0

>  <PUBCHEM_ISOTOPIC_ATOM_COUNT>  (1) 
0

>  <PUBCHEM_COMPONENT_COUNT>  (1) 
1

>  <PUBCHEM_CACTVS_TAUTO_COUNT>  (1) 
2

>  <PUBCHEM_CONFORMER_ID>  (1) 
0000799300000001

>  <PUBCHEM_MMFF94_ENERGY>  (1) 
43.1683

>  <PUBCHEM_FEATURE_SELFOVERLAP>  (1) 
20.297

>  <PUBCHEM_SHAPE_FINGERPRINT>  (1) 
10219947 1 18272093781599582470
11062470 55 17240485801242119467
11132069 177 18410855477614057706
11401426 45 18410008849328734048
11471102 20 18410572881555917692
12032990 46 18341060652968494862
124424 183 18260267447389706633
12500047 106 17240201053880365203
12932764 1 16805311232520015297
13380535 76 18411140229682879355
14251717 144 18413669097604461263
14325111 11 18338802315676508544
14576447 43 18130493215450803383
14911166 2 18410573989472811831
14993402 34 18202845460992303286
15375358 24 18408887325761639427
17834072 33 17703503380619640613
200 152 17989202651340140053
20201158 50 18410014316801210803
20279233 1 18333455335128381387
20645477 70 18338515231509913318
21119208 17 18412544310299655671
22485316 2 18259702298302396394
23402539 116 18412821382639534461
23402655 69 18341043018001706293
4072396 5 18261938675231465338
8809292 202 18188217592793552379

>  <PUBCHEM_SHAPE_MULTIPOLES>  (1) 
252.68
8.99
1.29
0.72
2.98
0.09
-0.08
-0.61
-1.8
-0.28
0.06
0.49
-0.02
0.02

>  <PUBCHEM_SHAPE_SELFOVERLAP>  (1) 
508.215

>  <PUBCHEM_SHAPE_VOLUME>  (1) 
149.5

>  <PUBCHEM_COORDINATE_TYPE>  (1) 
2
5
10

$$$$
