31126
     RDKit          3D

 14 15  0  0  0  0  0  0  0  0999 V2000
   -3.5142   -1.6422    0.6007 N   0  0  0  0  0  0  0  0  0  0  0  0
   -3.9574    0.6469    0.9055 N   0  0  0  0  0  0  0  0  0  0  0  0
   -1.1272    0.2725   -0.6130 C   0  0  0  0  0  0  0  0  0  0  0  0
    1.1374   -0.5283   -0.2270 C   0  0  0  0  0  0  0  0  0  0  0  0
    1.5466    0.7929    0.0724 C   0  0  0  0  0  0  0  0  0  0  0  0
   -0.2030   -0.7718   -0.5680 C   0  0  0  0  0  0  0  0  0  0  0  0
   -2.5472   -0.0034   -0.9771 C   0  0  0  0  0  0  0  0  0  0  0  0
   -0.7248    1.5717   -0.3185 C   0  0  0  0  0  0  0  0  0  0  0  0
    0.6030    1.8319    0.0220 C   0  0  0  0  0  0  0  0  0  0  0  0
    2.0810   -1.5674   -0.1770 C   0  0  0  0  0  0  0  0  0  0  0  0
    2.8870    1.0362    0.4134 C   0  0  0  0  0  0  0  0  0  0  0  0
    3.4087   -1.3076    0.1638 C   0  0  0  0  0  0  0  0  0  0  0  0
    3.8108   -0.0084    0.4586 C   0  0  0  0  0  0  0  0  0  0  0  0
   -3.4007   -0.3231    0.2442 C   0  0  0  0  0  0  0  0  0  0  0  0
  1 14  1  0
  2 14  2  0
  3  6  2  0
  3  7  1  0
  3  8  1  0
  4  5  2  0
  4  6  1  0
  4 10  1  0
  5  9  1  0
  5 11  1  0
  7 14  1  0
  8  9  2  0
 10 12  2  0
 11 13  2  0
 12 13  1  0
M  END
>  <PUBCHEM_COMPOUND_CID>  (1) 
31126

>  <PUBCHEM_CONFORMER_RMSD>  (1) 
0.6

>  <PUBCHEM_CONFORMER_DIVERSEORDER>  (1) 
1
4
7
6
5
3
2

>  <PUBCHEM_MMFF94_PARTIAL_CHARGES>  (1) 
22
1 -0.85
10 -0.15
11 -0.15
12 -0.15
13 -0.15
14 0.44
15 0.15
18 0.15
19 0.15
2 -0.85
20 0.15
21 0.15
22 0.15
23 0.15
24 0.4
25 0.4
26 0.4
3 -0.14
6 -0.15
7 0.2
8 -0.15
9 -0.15

>  <PUBCHEM_EFFECTIVE_ROTOR_COUNT>  (1) 
2

>  <PUBCHEM_PHARMACOPHORE_FEATURES>  (1) 
5
1 1 donor
1 2 donor
3 1 2 14 cation
6 3 4 5 6 8 9 rings
6 4 5 10 11 12 13 rings

>  <PUBCHEM_HEAVY_ATOM_COUNT>  (1) 
14

>  <PUBCHEM_ATOM_DEF_STEREO_COUNT>  (1) 
0

>  <PUBCHEM_ATOM_UDEF_STEREO_COUNT>  (1) 
0

>  <PUBCHEM_BOND_DEF_STEREO_COUNT>  (1) 
0

>  <PUBCHEM_BOND_UDEF_STEREO_COUNT>  (1) 
0

>  <PUBCHEM_ISOTOPIC_ATOM_COUNT>  (1) 
0

>  <PUBCHEM_COMPONENT_COUNT>  (1) 
1

>  <PUBCHEM_CACTVS_TAUTO_COUNT>  (1) 
1

>  <PUBCHEM_CONFORMER_ID>  (1) 
0000799600000001

>  <PUBCHEM_MMFF94_ENERGY>  (1) 
39.3306

>  <PUBCHEM_FEATURE_SELFOVERLAP>  (1) 
25.438

>  <PUBCHEM_SHAPE_FINGERPRINT>  (1) 
10219947 1 18343578547021925198
10618630 7 18336264565756952556
11132069 177 18411409622626078754
11471102 20 18412254034708258292
11471102 22 18411142458459247531
11543360 7 15791740693483021622
11769659 78 17749100063430624394
12032990 46 18409448064118055214
12251169 10 18343304794818542143
13296908 3 18259978254119420733
13705890 14 14706925129533746176
14144814 61 18343580746061011311
14252887 29 18273221884735315070
15219456 202 18335976493520675245
15309172 13 18131345310791625239
15375462 189 18272927245630711392
15501101 241 18408881858421362988
15653759 3 18040713649735244789
16945 1 18341878719568299956
17844478 74 18260261923840464924
200 152 18058999697059068079
20201158 50 18334009493046468363
20279233 1 18114173129952337431
20281407 28 18113337496572197423
20281475 54 18334016094358311927
20645477 70 18269821052204861023
20871998 22 18270968921075001214
21256008 23 18343303694911255952
21501502 16 18118968237204493463
21501925 9 18337952389262476983
231179 274 12679464153314922395
23402539 116 13840257062087082462
23463225 33 18411697686246223348
23557571 272 16732968808898737332
23559900 14 18115859708007224570
25610 137 18408322185707284532
26918003 58 18334006177262916787
2748010 2 18197483035794722316
83771 10 18260830379899534007
8809292 202 18186805781182440891

>  <PUBCHEM_SHAPE_MULTIPOLES>  (1) 
278.15
6.8
1.72
0.84
2.5
0.11
0.02
-1.72
-1.88
-0.35
-0.07
0.43
-0.01
0.25

>  <PUBCHEM_SHAPE_SELFOVERLAP>  (1) 
601.819

>  <PUBCHEM_SHAPE_VOLUME>  (1) 
150

>  <PUBCHEM_COORDINATE_TYPE>  (1) 
2
5
10

$$$$
