31124
     RDKit          3D

 13 13  0  0  0  0  0  0  0  0999 V2000
    2.6540   -2.2652   -0.0008 Cl  0  0  0  0  0  0  0  0  0  0  0  0
   -3.2904    1.4143   -0.0022 O   0  0  0  0  0  0  0  0  0  0  0  0
   -2.1871   -0.6692    0.0003 N   0  0  0  0  0  0  0  0  0  0  0  0
    4.3603    1.0717    0.0004 N   0  0  0  0  0  0  0  0  0  0  0  0
   -0.8344   -0.3275    0.0001 C   0  0  0  0  0  0  0  0  0  0  0  0
    0.1381   -1.3275   -0.0001 C   0  0  0  0  0  0  0  0  0  0  0  0
   -0.4547    1.0147    0.0003 C   0  0  0  0  0  0  0  0  0  0  0  0
    1.4903   -0.9854   -0.0003 C   0  0  0  0  0  0  0  0  0  0  0  0
    0.8976    1.3567    0.0003 C   0  0  0  0  0  0  0  0  0  0  0  0
    1.8701    0.3567    0.0001 C   0  0  0  0  0  0  0  0  0  0  0  0
   -3.2959    0.1875    0.0008 C   0  0  0  0  0  0  0  0  0  0  0  0
   -4.5948   -0.5789    0.0009 C   0  0  0  0  0  0  0  0  0  0  0  0
    3.2470    0.7521    0.0002 C   0  0  0  0  0  0  0  0  0  0  0  0
  1  8  1  0
  2 11  2  0
  3  5  1  0
  3 11  1  0
  4 13  3  0
  5  6  2  0
  5  7  1  0
  6  8  1  0
  7  9  2  0
  8 10  2  0
  9 10  1  0
 10 13  1  0
 11 12  1  0
M  END
>  <PUBCHEM_COMPOUND_CID>  (1) 
31124

>  <PUBCHEM_CONFORMER_RMSD>  (1) 
0.6

>  <PUBCHEM_CONFORMER_DIVERSEORDER>  (1) 
1
3
2
4

>  <PUBCHEM_MMFF94_PARTIAL_CHARGES>  (1) 
17
1 -0.18
10 0.07
11 0.57
12 0.06
13 0.48
14 0.15
15 0.15
16 0.37
17 0.15
2 -0.57
3 -0.55
4 -0.56
5 0.12
6 -0.15
7 -0.15
8 0.18
9 -0.15

>  <PUBCHEM_EFFECTIVE_ROTOR_COUNT>  (1) 
2

>  <PUBCHEM_PHARMACOPHORE_FEATURES>  (1) 
4
1 2 acceptor
1 3 donor
1 4 acceptor
6 5 6 7 8 9 10 rings

>  <PUBCHEM_HEAVY_ATOM_COUNT>  (1) 
13

>  <PUBCHEM_ATOM_DEF_STEREO_COUNT>  (1) 
0

>  <PUBCHEM_ATOM_UDEF_STEREO_COUNT>  (1) 
0

>  <PUBCHEM_BOND_DEF_STEREO_COUNT>  (1) 
0

>  <PUBCHEM_BOND_UDEF_STEREO_COUNT>  (1) 
0

>  <PUBCHEM_ISOTOPIC_ATOM_COUNT>  (1) 
0

>  <PUBCHEM_COMPONENT_COUNT>  (1) 
1

>  <PUBCHEM_CACTVS_TAUTO_COUNT>  (1) 
2

>  <PUBCHEM_CONFORMER_ID>  (1) 
0000799400000001

>  <PUBCHEM_MMFF94_ENERGY>  (1) 
30.9004

>  <PUBCHEM_FEATURE_SELFOVERLAP>  (1) 
20.297

>  <PUBCHEM_SHAPE_FINGERPRINT>  (1) 
10608611 8 18336262349596305197
10980938 120 18411982451072937034
11471102 20 18410007732405154606
12032990 46 18338520724851926727
12346645 6 18413388731003652070
12932764 1 17417798557133745841
13380535 76 18335702784024359138
14144814 61 18411700967801496145
14251717 144 18410852153051180487
14325111 11 18410575059204582945
14576447 43 18057307578407178927
14897335 6 18411980282235856326
15196674 1 18410856517154431201
15219456 202 18262232222891649029
15442244 35 18196092136057407225
15536298 74 18342739577016945462
15775835 57 18272089422017912111
16945 1 18338797922135824772
18186145 218 17822293418704734983
193761 8 18050568431006079204
20279233 1 17675929806817666395
20588541 1 18335422404321973826
20645477 70 18339920416345131271
20871998 22 18055074255284493702
21501502 16 18268996379776471368
21501925 9 18338506444054019250
23402539 116 18040988601115594767
23402655 69 18341604898608380829
23463225 33 18338515235909881794
2748010 2 18264763256004560988
3071541 37 18335145293396227830
366044 4 18338234972551714138
449060 62 18413673513157713666
4990 188 17989216940622481284
5104073 3 18338237068432425969
528886 8 18411695530161948338
53812653 166 18342735264822268760
63268167 104 18341335517610605753
7364860 26 18342458089429834422
81539 233 18259984890355810302

>  <PUBCHEM_SHAPE_MULTIPOLES>  (1) 
253.57
7.37
1.81
0.6
4.19
0.58
0
-0.66
0
-1.3
0
-0.02
0.02
0

>  <PUBCHEM_SHAPE_SELFOVERLAP>  (1) 
518.684

>  <PUBCHEM_SHAPE_VOLUME>  (1) 
146.4

>  <PUBCHEM_COORDINATE_TYPE>  (1) 
2
5
10

$$$$
