3112
     RDKit          3D

 30 31  0  0  1  0  0  0  0  0999 V2000
   -6.5258    1.4480    0.5496 O   0  0  0  0  0  0  0  0  0  0  0  0
    2.2079   -3.8671   -0.3082 O   0  0  0  0  0  0  0  0  0  0  0  0
   -2.1089   -4.1268    1.9494 O   0  0  0  0  0  0  0  0  0  0  0  0
   -4.6024    1.2872    1.7534 O   0  0  0  0  0  0  0  0  0  0  0  0
    2.8437   -2.5623   -2.0598 O   0  0  0  0  0  0  0  0  0  0  0  0
   -3.0281   -4.0591   -0.1268 O   0  0  0  0  0  0  0  0  0  0  0  0
    3.7517    2.5824    2.2606 O   0  0  0  0  0  0  0  0  0  0  0  0
    4.1662    0.4388    2.8870 O   0  0  0  0  0  0  0  0  0  0  0  0
   -0.8620    2.0411   -0.4017 N   0  0  0  0  0  0  0  0  0  0  0  0
    1.8818    1.7017   -1.8277 N   0  0  0  0  0  0  0  0  0  0  0  0
   -0.8039    0.5606   -0.3765 C   0  0  0  0  0  0  0  0  0  0  0  0
   -2.2345    0.1175   -0.4877 C   0  0  0  0  0  0  0  0  0  0  0  0
    0.0783    0.0891   -1.5249 C   0  0  0  0  0  0  0  0  0  0  0  0
    1.4751    0.5671   -1.3314 C   0  0  0  0  0  0  0  0  0  0  0  0
   -3.0615    1.1641   -0.5710 C   0  0  0  0  0  0  0  0  0  0  0  0
    2.4499   -0.2327   -0.5733 C   0  0  0  0  0  0  0  0  0  0  0  0
   -2.5862   -1.3296   -0.4637 C   0  0  0  0  0  0  0  0  0  0  0  0
    3.5467    0.5270   -0.6358 C   0  0  0  0  0  0  0  0  0  0  0  0
   -2.1334    2.3038   -0.5134 C   0  0  0  0  0  0  0  0  0  0  0  0
    3.2958    1.7811   -1.4087 C   0  0  0  0  0  0  0  0  0  0  0  0
   -4.5310    1.2727   -0.6888 C   0  0  0  0  0  0  0  0  0  0  0  0
    4.8915    0.2671   -0.0555 C   0  0  0  0  0  0  0  0  0  0  0  0
    2.1722   -1.5409    0.0558 C   0  0  0  0  0  0  0  0  0  0  0  0
   -2.1367   -2.0223    0.8177 C   0  0  0  0  0  0  0  0  0  0  0  0
   -2.6376    3.7126   -0.5840 C   0  0  0  0  0  0  0  0  0  0  0  0
    5.3123    1.3286    0.9555 C   0  0  0  0  0  0  0  0  0  0  0  0
   -5.1777    1.3345    0.6764 C   0  0  0  0  0  0  0  0  0  0  0  0
    2.4546   -2.6724   -0.9067 C   0  0  0  0  0  0  0  0  0  0  0  0
   -2.4692   -3.4949    0.8052 C   0  0  0  0  0  0  0  0  0  0  0  0
    4.3713    1.3831    2.1349 C   0  0  0  0  0  0  0  0  0  0  0  0
  1 27  1  0
  2 28  1  0
  3 29  1  0
  4 27  2  0
  5 28  2  0
  6 29  2  0
  7 30  1  0
  8 30  2  0
  9 11  1  0
  9 19  2  0
 10 14  2  0
 10 20  1  0
 11 12  1  0
 11 13  1  0
 12 15  2  0
 12 17  1  0
 13 14  1  0
 14 16  1  0
 15 19  1  0
 15 21  1  0
 16 18  2  0
 16 23  1  0
 17 24  1  0
 18 20  1  0
 18 22  1  0
 19 25  1  0
 21 27  1  0
 22 26  1  0
 23 28  1  0
 24 29  1  0
 26 30  1  0
M  END
>  <PUBCHEM_COMPOUND_CID>  (1) 
3112

>  <PUBCHEM_CONFORMER_RMSD>  (1) 
1.2

>  <PUBCHEM_CONFORMER_DIVERSEORDER>  (1) 
3
14
17
19
12
21
23
11
27
16
2
20
9
24
18
8
25
5
15
13
26
6
7
22
1
10
4

>  <PUBCHEM_MMFF94_PARTIAL_CHARGES>  (1) 
34
1 -0.65
10 -0.7
11 0.38
12 -0.28
13 0.06
14 0.37
15 -0.12
16 -0.12
17 0.14
18 -0.28
19 0.37
2 -0.65
20 0.38
21 0.2
22 0.14
23 0.2
24 0.06
25 0.06
26 0.06
27 0.66
28 0.66
29 0.66
3 -0.65
30 0.66
4 -0.57
5 -0.57
51 0.5
52 0.5
53 0.5
54 0.5
6 -0.57
7 -0.65
8 -0.57
9 -0.7

>  <PUBCHEM_EFFECTIVE_ROTOR_COUNT>  (1) 
12.4

>  <PUBCHEM_PHARMACOPHORE_FEATURES>  (1) 
16
1 1 acceptor
1 10 acceptor
1 2 acceptor
1 3 acceptor
1 4 acceptor
1 5 acceptor
1 6 acceptor
1 7 acceptor
1 8 acceptor
1 9 acceptor
3 1 4 27 anion
3 2 5 28 anion
3 3 6 29 anion
3 7 8 30 anion
5 10 14 16 18 20 rings
5 9 11 12 15 19 rings

>  <PUBCHEM_HEAVY_ATOM_COUNT>  (1) 
30

>  <PUBCHEM_ATOM_DEF_STEREO_COUNT>  (1) 
0

>  <PUBCHEM_ATOM_UDEF_STEREO_COUNT>  (1) 
1

>  <PUBCHEM_BOND_DEF_STEREO_COUNT>  (1) 
0

>  <PUBCHEM_BOND_UDEF_STEREO_COUNT>  (1) 
0

>  <PUBCHEM_ISOTOPIC_ATOM_COUNT>  (1) 
0

>  <PUBCHEM_COMPONENT_COUNT>  (1) 
1

>  <PUBCHEM_CACTVS_TAUTO_COUNT>  (1) 
1

>  <PUBCHEM_CONFORMER_ID>  (1) 
00000C2800000003

>  <PUBCHEM_MMFF94_ENERGY>  (1) 
32.7402

>  <PUBCHEM_FEATURE_SELFOVERLAP>  (1) 
81.442

>  <PUBCHEM_SHAPE_FINGERPRINT>  (1) 
10074138 170 18336262457365957987
10366900 7 18272644649778676668
11578080 2 17917434267172502347
12553582 1 17903374923847482815
12633257 1 17967808379519166068
12788726 201 17754463670514617938
13140716 1 18267311017662260765
13533116 47 18200315394758742445
13583140 156 18060416941439649292
14081887 123 18410288146556565616
14178342 30 18334572460469857494
14725015 67 17974010540102371591
21033648 29 18059281189221026656
22122407 14 16630533946237095497
23557571 272 18339369663692460006
23559900 14 18410862040487571244
5309563 4 17398409992550046083
653340 110 18268144438727827018
9709674 26 18410019822717403599

>  <PUBCHEM_SHAPE_MULTIPOLES>  (1) 
560.47
11.42
4.68
1.95
2.47
5.18
1.06
-5.78
4.94
3.01
0.6
-2.3
-0.31
2.15

>  <PUBCHEM_SHAPE_SELFOVERLAP>  (1) 
1170.935

>  <PUBCHEM_SHAPE_VOLUME>  (1) 
318.7

>  <PUBCHEM_COORDINATE_TYPE>  (1) 
2
5
10

$$$$
