31120
     RDKit          3D

 18 21  0  0  0  0  0  0  0  0999 V2000
   -1.1455   -2.6997    0.4018 S   0  0  0  0  0  0  0  0  0  0  0  0
   -4.3426    2.2674   -0.2380 F   0  0  0  0  0  0  0  0  0  0  0  0
    0.8024    1.2692    0.1670 N   0  0  0  0  0  0  0  0  0  0  0  0
    0.8932   -0.9251   -0.1779 C   0  0  0  0  0  0  0  0  0  0  0  0
    0.0338    0.1469   -0.0089 C   0  0  0  0  0  0  0  0  0  0  0  0
    2.2286   -0.4263   -0.1057 C   0  0  0  0  0  0  0  0  0  0  0  0
    2.1401    0.9493    0.1135 C   0  0  0  0  0  0  0  0  0  0  0  0
   -1.4262    0.0888    0.0095 C   0  0  0  0  0  0  0  0  0  0  0  0
    0.4390   -2.3173   -0.4297 C   0  0  0  0  0  0  0  0  0  0  0  0
   -2.0603   -1.1637    0.1642 C   0  0  0  0  0  0  0  0  0  0  0  0
    3.5073   -1.0118   -0.2098 C   0  0  0  0  0  0  0  0  0  0  0  0
    3.2671    1.7694    0.2398 C   0  0  0  0  0  0  0  0  0  0  0  0
   -2.2114    1.2427   -0.1257 C   0  0  0  0  0  0  0  0  0  0  0  0
   -3.4603   -1.2329    0.1956 C   0  0  0  0  0  0  0  0  0  0  0  0
    4.6435   -0.2042   -0.0864 C   0  0  0  0  0  0  0  0  0  0  0  0
    4.5228    1.1655    0.1355 C   0  0  0  0  0  0  0  0  0  0  0  0
   -3.6043    1.1581   -0.1030 C   0  0  0  0  0  0  0  0  0  0  0  0
   -4.2271   -0.0762    0.0583 C   0  0  0  0  0  0  0  0  0  0  0  0
  1  9  1  0
  1 10  1  0
  2 17  1  0
  3  5  1  0
  3  7  1  0
  4  5  2  0
  4  6  1  0
  4  9  1  0
  5  8  1  0
  6  7  2  0
  6 11  1  0
  7 12  1  0
  8 10  2  0
  8 13  1  0
 10 14  1  0
 11 15  2  0
 12 16  2  0
 13 17  2  0
 14 18  2  0
 15 16  1  0
 17 18  1  0
M  END
>  <PUBCHEM_COMPOUND_CID>  (1) 
31120

>  <PUBCHEM_CONFORMER_RMSD>  (1) 
0.6

>  <PUBCHEM_CONFORMER_DIVERSEORDER>  (1) 
1

>  <PUBCHEM_MMFF94_PARTIAL_CHARGES>  (1) 
25
1 -0.33
10 0.1
11 -0.15
12 -0.15
13 -0.15
14 -0.15
15 -0.15
16 -0.15
17 0.19
18 -0.15
2 -0.19
21 0.27
22 0.15
23 0.15
24 0.15
25 0.15
26 0.15
27 0.15
28 0.15
3 0.03
4 -0.18
5 -0.2
7 -0.15
8 0.05
9 0.41

>  <PUBCHEM_EFFECTIVE_ROTOR_COUNT>  (1) 
0.4

>  <PUBCHEM_PHARMACOPHORE_FEATURES>  (1) 
6
1 3 cation
1 3 donor
5 3 4 5 6 7 rings
6 1 4 5 8 9 10 rings
6 6 7 11 12 15 16 rings
6 8 10 13 14 17 18 rings

>  <PUBCHEM_HEAVY_ATOM_COUNT>  (1) 
18

>  <PUBCHEM_ATOM_DEF_STEREO_COUNT>  (1) 
0

>  <PUBCHEM_ATOM_UDEF_STEREO_COUNT>  (1) 
0

>  <PUBCHEM_BOND_DEF_STEREO_COUNT>  (1) 
0

>  <PUBCHEM_BOND_UDEF_STEREO_COUNT>  (1) 
0

>  <PUBCHEM_ISOTOPIC_ATOM_COUNT>  (1) 
0

>  <PUBCHEM_COMPONENT_COUNT>  (1) 
1

>  <PUBCHEM_CACTVS_TAUTO_COUNT>  (1) 
1

>  <PUBCHEM_CONFORMER_ID>  (1) 
0000799000000001

>  <PUBCHEM_MMFF94_ENERGY>  (1) 
40.4248

>  <PUBCHEM_FEATURE_SELFOVERLAP>  (1) 
30.626

>  <PUBCHEM_SHAPE_FINGERPRINT>  (1) 
10411042 1 17329711436531335430
10608611 8 18411698819954078544
10616163 171 18266743656803611510
10646746 165 18409731763734746892
10967382 1 18411419492698334214
11132069 177 18408321107327400336
11370993 70 18411134727592039023
11471102 20 18342455928892122228
12173636 292 18410007775529005079
12390115 104 18270419225485841129
12403259 226 18198337566809009035
12403259 415 18343582975133584280
12500047 106 18411696625404937032
13140716 1 18336825286432482379
13380535 76 18411702084245482431
13544592 145 18341624672421670286
13675066 3 18273213136097585394
138480 1 17617940236160842339
14178342 30 17978210975516015226
14866123 147 17048251333534544506
15042514 8 18119535585843294675
15196674 1 18411138034621787974
15219456 202 18412266133557225935
15375358 24 18342458149158268086
15536298 74 18342459248854401654
16945 1 18121222240325799982
18186145 218 18202014221764692248
200 152 17847056697179520175
20510252 161 18342179994338847217
20645477 56 18336828679435676857
20645477 70 17489036985144884774
21065198 57 18409730694493625042
21267235 1 18410302431565369307
21279426 13 18268153046216490742
21524375 3 18411699893785768215
23402539 116 18341886402874331005
23402655 69 18273493451006098676
23558518 356 17899976333400057400
23559900 14 18343021048083882142
25 1 18339920416059833239
2748010 2 18340215166775336990
3004659 81 18261965042795734006
335352 9 18338797797961841598
34934 24 18410287039161962970
350125 39 18338523053103911897
3545911 37 18412266142252837400
4214541 1 18410293613997400184
495365 180 17346024663187322194
4990 188 18059863852636233188
5104073 3 18410012130419972523
6138700 20 18195249915226986438
633830 44 18271241629764848677
6430166 295 18410008840765153704
69090 78 18341328984839078974
7364860 26 18124033433934260783
77779 3 18410013251607019296
8809292 202 18336269040912707386
9709674 26 18341056301871653870

>  <PUBCHEM_SHAPE_MULTIPOLES>  (1) 
362.03
8.79
2.41
0.65
1.79
0.67
-0.01
-3.47
-0.03
-1.13
-0.03
0.01
0.07
0.52

>  <PUBCHEM_SHAPE_SELFOVERLAP>  (1) 
809.55

>  <PUBCHEM_SHAPE_VOLUME>  (1) 
196.3

>  <PUBCHEM_COORDINATE_TYPE>  (1) 
2
5
10

$$$$
