31138
     RDKit          3D

  9  8  0  0  0  0  0  0  0  0999 V2000
    0.5107   -0.6865    1.2787 O   0  0  0  0  0  0  0  0  0  0  0  0
    1.6300    1.0876    0.0872 C   0  0  0  0  0  0  0  0  0  0  0  0
    2.8797    0.2286   -0.0942 C   0  0  0  0  0  0  0  0  0  0  0  0
    0.4197    0.2888    0.5386 C   0  0  0  0  0  0  0  0  0  0  0  0
    2.6864   -0.8705   -1.1296 C   0  0  0  0  0  0  0  0  0  0  0  0
   -0.9022    0.8054    0.0817 C   0  0  0  0  0  0  0  0  0  0  0  0
   -1.9837    0.0463   -0.1679 C   0  0  0  0  0  0  0  0  0  0  0  0
   -3.3246    0.5453   -0.6288 C   0  0  0  0  0  0  0  0  0  0  0  0
   -1.9158   -1.4449    0.0342 C   0  0  0  0  0  0  0  0  0  0  0  0
  1  4  2  0
  2  3  1  0
  2  4  1  0
  3  5  1  0
  4  6  1  0
  6  7  2  3
  7  8  1  0
  7  9  1  0
M  END
>  <PUBCHEM_COMPOUND_CID>  (1) 
31138

>  <PUBCHEM_CONFORMER_RMSD>  (1) 
0.6

>  <PUBCHEM_CONFORMER_DIVERSEORDER>  (1) 
5
22
24
21
9
12
13
10
19
8
15
14
20
16
23
3
7
2
18
17
6
4
11
1

>  <PUBCHEM_MMFF94_PARTIAL_CHARGES>  (1) 
8
1 -0.57
17 0.15
2 0.06
4 0.49
6 -0.14
7 -0.28
8 0.14
9 0.14

>  <PUBCHEM_EFFECTIVE_ROTOR_COUNT>  (1) 
3

>  <PUBCHEM_PHARMACOPHORE_FEATURES>  (1) 
3
1 1 acceptor
1 5 hydrophobe
3 7 8 9 hydrophobe

>  <PUBCHEM_HEAVY_ATOM_COUNT>  (1) 
9

>  <PUBCHEM_ATOM_DEF_STEREO_COUNT>  (1) 
0

>  <PUBCHEM_ATOM_UDEF_STEREO_COUNT>  (1) 
0

>  <PUBCHEM_BOND_DEF_STEREO_COUNT>  (1) 
0

>  <PUBCHEM_BOND_UDEF_STEREO_COUNT>  (1) 
0

>  <PUBCHEM_ISOTOPIC_ATOM_COUNT>  (1) 
0

>  <PUBCHEM_COMPONENT_COUNT>  (1) 
1

>  <PUBCHEM_CACTVS_TAUTO_COUNT>  (1) 
5

>  <PUBCHEM_CONFORMER_ID>  (1) 
000079A200000005

>  <PUBCHEM_MMFF94_ENERGY>  (1) 
10.9693

>  <PUBCHEM_FEATURE_SELFOVERLAP>  (1) 
15.223

>  <PUBCHEM_SHAPE_FINGERPRINT>  (1) 
10149128 111 15430039820528326253
11031198 65 17022905605732553553
11062470 55 16415478250751811848
12716758 59 18410573989641603827
12897270 3 18410857667867978580
12932741 1 18270953656713712793
12932764 1 17822283596077579753
14325111 11 18113615728753835968
14390081 3 17676199182665931613
15310529 11 17561083630820655004
15775835 57 17603301553096114156
20201158 50 18059861636227659446
20653085 51 17895204319501736637
20653091 64 14189000258658059602
21293036 1 18408599271279964845
23552423 10 18261955253309225346
23552449 11 14261338176515896371
29004967 10 17632581586541010512
3248919 1 18131350829792789488

>  <PUBCHEM_SHAPE_MULTIPOLES>  (1) 
179.35
4.97
1.23
0.97
0.29
0.25
0.06
0.28
-1.62
0.04
-0.04
-0.2
0.17
0.47

>  <PUBCHEM_SHAPE_SELFOVERLAP>  (1) 
330.737

>  <PUBCHEM_SHAPE_VOLUME>  (1) 
113.9

>  <PUBCHEM_COORDINATE_TYPE>  (1) 
2
5
10

$$$$
