31131
     RDKit          3D

 16 15  0  0  0  0  0  0  0  0999 V2000
    0.0168    2.9175    0.2712 C   0  0  0  0  0  0  0  0  0  0  0  0
   -1.0689    2.0077    0.8829 C   0  0  0  0  0  0  0  0  0  0  0  0
    1.1246    2.1700   -0.4976 C   0  0  0  0  0  0  0  0  0  0  0  0
   -1.8939    1.2045   -0.1292 C   0  0  0  0  0  0  0  0  0  0  0  0
    1.8621    1.1272    0.3489 C   0  0  0  0  0  0  0  0  0  0  0  0
   -2.9041    0.2994    0.5832 C   0  0  0  0  0  0  0  0  0  0  0  0
    3.0084    0.4878   -0.4389 C   0  0  0  0  0  0  0  0  0  0  0  0
   -0.6007    3.9927   -0.6294 C   0  0  0  0  0  0  0  0  0  0  0  0
   -3.7381   -0.5588   -0.3740 C   0  0  0  0  0  0  0  0  0  0  0  0
    3.7700   -0.5805    0.3520 C   0  0  0  0  0  0  0  0  0  0  0  0
   -4.7976   -1.4059    0.3361 C   0  0  0  0  0  0  0  0  0  0  0  0
    4.9439   -1.2410   -0.3770 C   0  0  0  0  0  0  0  0  0  0  0  0
   -5.6277   -2.2638   -0.6226 C   0  0  0  0  0  0  0  0  0  0  0  0
    5.7003   -2.2558    0.4806 C   0  0  0  0  0  0  0  0  0  0  0  0
   -6.7027   -3.0865    0.0709 C   0  0  0  0  0  0  0  0  0  0  0  0
    6.9075   -2.8144   -0.2573 C   0  0  0  0  0  0  0  0  0  0  0  0
  1  2  1  0
  1  3  1  0
  1  8  1  0
  2  4  1  0
  3  5  1  0
  4  6  1  0
  5  7  1  0
  6  9  1  0
  7 10  1  0
  9 11  1  0
 10 12  1  0
 11 13  1  0
 12 14  1  0
 13 15  1  0
 14 16  1  0
M  END
>  <PUBCHEM_COMPOUND_CID>  (1) 
31131

>  <PUBCHEM_CONFORMER_RMSD>  (1) 
1

>  <PUBCHEM_CONFORMER_DIVERSEORDER>  (1) 
1
50
168
101
13
342
356
109
6
264
124
74
391
258
186
76
84
21
144
157
279
119
293
112
395
91
65
230
71
66
273
292
268
198
254
394
241
302
138
156
246
32
54
2
154
339
201
330
191
335
310
271
25
172
104
122
324
41
99
152
175
361
58
147
89
180
40
267
38
368
86
340
106
216
80
98
396
364
43
352
284
160
121
397
30
28
10
7
325
291
120
133
166
369
237
392
62
289
19
278
184
212
149
155
377
145
90
169
33
171
108
388
4
16
193
337
270
77
315
262
288
389
205
97
5
344
383
143
238
110
250
137
22
283
142
107
95
190
192
233
176
153
309
367
214
248
57
115
31
287
102
49
18
384
140
179
301
393
188
150
381
42
135
128
359
72
295
265
294
326
73
132
52
253
9
11
148
316
245
390
373
12
215
366
27
83
261
26
376
299
158
305
48
379
365
222
3
234
44
197
286
159
127
266
259
255
347
349
114
129
187
303
105
304
61
386
328
285
51
131
307
94
263
23
338
311
167
306
36
229
331
53
244
78
360
60
206
226
319
67
343
345
56
334
327
199
125
274
290
113
300
260
272
93
228
64
221
252
346
232
223
257
63
79
183
247
236
69
217
194
276
280
92
281
355
203
362
348
336
269
251
134
96
371
70
240
314
225
20
195
8
35
123
202
353
29
45
59
372
24
317
39
34
220
116
88
207
37
178
200
243
242
210
227
139
177
151
126
382
15
208
82
296
235
209
141
378
100
47
14
165
173
85
219
256
118
181
170
318
174
308
322
350
385
329
46
218
357
103
363
298
277
87
164
204
249
387
17
136
323
211
231
213
130
374
341
313
111
333
189
320
163
370
117
358
161
297
224
55
196
146
312
275
185
239
81
321
162
354
380
75
282
332
375
351
182
68

>  <PUBCHEM_MMFF94_PARTIAL_CHARGES>  (1) 
0

>  <PUBCHEM_EFFECTIVE_ROTOR_COUNT>  (1) 
12

>  <PUBCHEM_PHARMACOPHORE_FEATURES>  (1) 
3
1 15 hydrophobe
1 16 hydrophobe
1 8 hydrophobe

>  <PUBCHEM_HEAVY_ATOM_COUNT>  (1) 
16

>  <PUBCHEM_ATOM_DEF_STEREO_COUNT>  (1) 
0

>  <PUBCHEM_ATOM_UDEF_STEREO_COUNT>  (1) 
0

>  <PUBCHEM_BOND_DEF_STEREO_COUNT>  (1) 
0

>  <PUBCHEM_BOND_UDEF_STEREO_COUNT>  (1) 
0

>  <PUBCHEM_ISOTOPIC_ATOM_COUNT>  (1) 
0

>  <PUBCHEM_COMPONENT_COUNT>  (1) 
1

>  <PUBCHEM_CACTVS_TAUTO_COUNT>  (1) 
1

>  <PUBCHEM_CONFORMER_ID>  (1) 
0000799B00000001

>  <PUBCHEM_MMFF94_ENERGY>  (1) 
0.7751

>  <PUBCHEM_FEATURE_SELFOVERLAP>  (1) 
15.224

>  <PUBCHEM_SHAPE_FINGERPRINT>  (1) 
11463208 1 17626395524415058342
11809386 21 18043528313972180010
12107183 9 18342189847643015249
12166972 35 18040437715129612255
12633257 1 15554158267902379025
13533116 47 18124597746256783283
13885169 86 9439395865208572607
13911852 28 18411417341072699895
13955234 65 17765998681541190169
13968360 50 17901952164549668956
14123256 34 18410295817389891827
14251740 57 18341324595461351474
14251764 30 18410008849144605047
14251764 75 8502385455074826167
14344974 204 18268429024058140286
14429380 30 18409171004341896754
14866123 147 18339648837473977329
15019793 15 17618225443886730675
15342168 16 10197136909894085060
15352361 1 18410856568229880131
155225 6 9367354746992467087
17539 30 18189612748443005061
20388580 30 18266180707024256993
20621476 21 17915190014312954830
20621476 91 18339913832597668346
20645477 70 18046057431482484137
20843269 155 18263355907244837234
21054139 6 17969508109423608514
23622692 118 18336267847602882508
270888 7 9115705654966209323
3421961 26 18268989959022228225
46194498 28 17314784320664191253
7062679 13 18410008815032546130
76465 3 18411420613442315816
77188 2 18411136973860883325
7970288 3 18411134748999011791
88748 71 18337955709509671063

>  <PUBCHEM_SHAPE_MULTIPOLES>  (1) 
329.27
16.85
4.87
0.83
3.1
1.89
0.02
-29.69
-0.82
-1.19
-0.52
-0.08
0.14
-0.4

>  <PUBCHEM_SHAPE_SELFOVERLAP>  (1) 
586.797

>  <PUBCHEM_SHAPE_VOLUME>  (1) 
215.2

>  <PUBCHEM_COORDINATE_TYPE>  (1) 
2
5
10

$$$$
