31142
     RDKit          3D

 12 13  0  0  1  0  0  0  0  0999 V2000
    2.3249   -0.4004    0.3440 N   0  0  0  0  0  0  0  0  0  0  0  0
   -0.2121   -0.6944    0.3956 C   0  0  0  0  0  0  0  0  0  0  0  0
   -1.3403   -0.0358   -0.4627 C   0  0  0  0  0  0  0  0  0  0  0  0
   -0.6808    1.3624   -0.3314 C   0  0  0  0  0  0  0  0  0  0  0  0
    1.0759   -0.3007   -0.3990 C   0  0  0  0  0  0  0  0  0  0  0  0
   -0.2555    0.1475    1.7048 C   0  0  0  0  0  0  0  0  0  0  0  0
    0.7628    1.1439   -0.8473 C   0  0  0  0  0  0  0  0  0  0  0  0
   -0.5694    1.5640    1.1956 C   0  0  0  0  0  0  0  0  0  0  0  0
   -0.3369   -2.1855    0.6545 C   0  0  0  0  0  0  0  0  0  0  0  0
   -2.7653   -0.1127    0.1218 C   0  0  0  0  0  0  0  0  0  0  0  0
   -1.4519   -0.5465   -1.9144 C   0  0  0  0  0  0  0  0  0  0  0  0
    3.4485    0.0583   -0.4615 C   0  0  0  0  0  0  0  0  0  0  0  0
  1  5  1  0
  1 12  1  0
  2  3  1  0
  2  5  1  0
  2  6  1  0
  2  9  1  0
  3  4  1  0
  3 10  1  0
  3 11  1  0
  4  7  1  0
  4  8  1  0
  5  7  1  0
  6  8  1  0
M  END
>  <PUBCHEM_COMPOUND_CID>  (1) 
31142

>  <PUBCHEM_CONFORMER_RMSD>  (1) 
0.6

>  <PUBCHEM_CONFORMER_DIVERSEORDER>  (1) 
1
2

>  <PUBCHEM_MMFF94_PARTIAL_CHARGES>  (1) 
4
1 -0.9
12 0.27
30 0.36
5 0.27

>  <PUBCHEM_EFFECTIVE_ROTOR_COUNT>  (1) 
2

>  <PUBCHEM_PHARMACOPHORE_FEATURES>  (1) 
4
1 1 cation
1 1 donor
3 3 10 11 hydrophobe
7 2 3 4 5 6 7 8 rings

>  <PUBCHEM_HEAVY_ATOM_COUNT>  (1) 
12

>  <PUBCHEM_ATOM_DEF_STEREO_COUNT>  (1) 
0

>  <PUBCHEM_ATOM_UDEF_STEREO_COUNT>  (1) 
3

>  <PUBCHEM_BOND_DEF_STEREO_COUNT>  (1) 
0

>  <PUBCHEM_BOND_UDEF_STEREO_COUNT>  (1) 
0

>  <PUBCHEM_ISOTOPIC_ATOM_COUNT>  (1) 
0

>  <PUBCHEM_COMPONENT_COUNT>  (1) 
1

>  <PUBCHEM_CACTVS_TAUTO_COUNT>  (1) 
1

>  <PUBCHEM_CONFORMER_ID>  (1) 
000079A600000001

>  <PUBCHEM_MMFF94_ENERGY>  (1) 
53.3292

>  <PUBCHEM_FEATURE_SELFOVERLAP>  (1) 
20.297

>  <PUBCHEM_SHAPE_FINGERPRINT>  (1) 
12423570 1 12358522876972357701
13024252 1 13623534575482577736
137420 1 11000067688095001513
14128692 85 17631156675042237220
16945 1 18337938056587247678
20653085 51 16371281113362576270
2748010 2 17973729378467927662
369184 2 18260550004777348976
5084963 1 18198638630878355484
528886 8 18187636986266207765
54276843 12 18343865506861815757
68250623 7 17768546988194394863

>  <PUBCHEM_SHAPE_MULTIPOLES>  (1) 
241.97
3.18
1.58
1.47
2.47
0.25
0.08
0.22
0.68
-0.28
-0.36
-0.47
-0.02
-0.23

>  <PUBCHEM_SHAPE_SELFOVERLAP>  (1) 
501.825

>  <PUBCHEM_SHAPE_VOLUME>  (1) 
145

>  <PUBCHEM_COORDINATE_TYPE>  (1) 
2
5
10

$$$$
