31147
     RDKit          3D

 20 19  0  0  0  0  0  0  0  0999 V2000
    2.8642   -3.8158   -1.3357 O   0  0  0  0  0  0  0  0  0  0  0  0
    6.8467    0.8685    0.5142 O   0  0  0  0  0  0  0  0  0  0  0  0
    3.4071   -0.6120    0.5254 N   0  0  0  0  0  0  0  0  0  0  0  0
    2.7448    0.3384   -0.3978 C   0  0  0  0  0  0  0  0  0  0  0  0
    3.7850   -1.9103   -0.2030 C   0  0  0  0  0  0  0  0  0  0  0  0
    4.6911   -0.0039    1.1091 C   0  0  0  0  0  0  0  0  0  0  0  0
    2.3787    1.6268    0.3284 C   0  0  0  0  0  0  0  0  0  0  0  0
    2.4802   -0.9762    1.6946 C   0  0  0  0  0  0  0  0  0  0  0  0
    1.6372    2.6764   -0.5079 C   0  0  0  0  0  0  0  0  0  0  0  0
    0.3224    2.2143   -1.1435 C   0  0  0  0  0  0  0  0  0  0  0  0
    2.5239   -2.5950   -0.6919 C   0  0  0  0  0  0  0  0  0  0  0  0
    5.6414    0.3384   -0.0214 C   0  0  0  0  0  0  0  0  0  0  0  0
   -0.6902    1.6802   -0.1272 C   0  0  0  0  0  0  0  0  0  0  0  0
   -2.0143    1.3189   -0.8057 C   0  0  0  0  0  0  0  0  0  0  0  0
   -3.0770    0.8033    0.1691 C   0  0  0  0  0  0  0  0  0  0  0  0
   -4.3921    0.4190   -0.5124 C   0  0  0  0  0  0  0  0  0  0  0  0
   -5.4403   -0.0187    0.5134 C   0  0  0  0  0  0  0  0  0  0  0  0
   -6.7680   -0.3666   -0.1618 C   0  0  0  0  0  0  0  0  0  0  0  0
   -7.8048   -0.8355    0.8586 C   0  0  0  0  0  0  0  0  0  0  0  0
   -9.1362   -1.1502    0.1954 C   0  0  0  0  0  0  0  0  0  0  0  0
  1 11  1  0
  2 12  1  0
  3  4  1  0
  3  5  1  0
  3  6  1  0
  3  8  1  0
  4  7  1  0
  5 11  1  0
  6 12  1  0
  7  9  1  0
  9 10  1  0
 10 13  1  0
 13 14  1  0
 14 15  1  0
 15 16  1  0
 16 17  1  0
 17 18  1  0
 18 19  1  0
 19 20  1  0
M  CHG  1   3   1
M  END
>  <PUBCHEM_COMPOUND_CID>  (1) 
31147

>  <PUBCHEM_CONFORMER_RMSD>  (1) 
1.2

>  <PUBCHEM_CONFORMER_DIVERSEORDER>  (1) 
1
5
3
80
119
131
100
115
13
68
89
78
123
127
67
106
107
102
60
27
99
121
132
94
114
30
33
52
49
116
93
15
113
19
22
24
120
48
64
111
84
130
105
118
90
83
101
86
87
45
7
71
98
57
81
124
126
23
110
66
31
109
44
40
117
79
97
103
36
112
29
76
88
70
56
95
96
43
108
125
37
104
72
28
12
20
82
85
21
9
39
58
77
59
51
26
42
50
16
47
63
91
122
61
69
38
4
41
92
35
10
74
55
11
14
32
73
75
2
129
62
65
17
6
54
8
25
46
18
128
34
133
53

>  <PUBCHEM_MMFF94_PARTIAL_CHARGES>  (1) 
11
1 -0.68
11 0.28
12 0.28
2 -0.68
3 -1.01
4 0.5
5 0.5
52 0.4
53 0.4
6 0.5
8 0.5

>  <PUBCHEM_EFFECTIVE_ROTOR_COUNT>  (1) 
15

>  <PUBCHEM_PHARMACOPHORE_FEATURES>  (1) 
6
1 1 acceptor
1 1 donor
1 2 acceptor
1 2 donor
1 20 hydrophobe
1 3 cation

>  <PUBCHEM_HEAVY_ATOM_COUNT>  (1) 
20

>  <PUBCHEM_ATOM_DEF_STEREO_COUNT>  (1) 
0

>  <PUBCHEM_ATOM_UDEF_STEREO_COUNT>  (1) 
0

>  <PUBCHEM_BOND_DEF_STEREO_COUNT>  (1) 
0

>  <PUBCHEM_BOND_UDEF_STEREO_COUNT>  (1) 
0

>  <PUBCHEM_ISOTOPIC_ATOM_COUNT>  (1) 
0

>  <PUBCHEM_COMPONENT_COUNT>  (1) 
1

>  <PUBCHEM_CACTVS_TAUTO_COUNT>  (1) 
1

>  <PUBCHEM_CONFORMER_ID>  (1) 
000079AB00000001

>  <PUBCHEM_MMFF94_ENERGY>  (1) 
34.6138

>  <PUBCHEM_FEATURE_SELFOVERLAP>  (1) 
30.446

>  <PUBCHEM_SHAPE_FINGERPRINT>  (1) 
10316853 100 18335145306186703723
11089746 13 8286196150052783113
12596602 18 17489873704349741169
12623949 98 17916031161454988006
12778500 126 15123514692251412836
13464513 79 18334853914119528472
13533116 47 18410295856819960257
13685833 64 18260266365337964545
13911882 115 18411423869607690458
14251740 57 18341337686822635647
14251764 18 18412548738838751401
14528608 73 8862940568341374369
14863182 85 18410578358277491574
15003188 105 17677326091816580786
15183329 4 17240477006146499809
15537594 2 17917422125093845031
1768 124 18342457058769688863
20397935 70 18411703197121637789
20645477 70 18260547831302832045
20771845 140 18131068243184226108
21033648 29 11743541181376541574
21049683 271 18114184176762262916
21150785 3 12612751329367715945
21197605 99 18337393867347017635
21344244 181 17703519822820236358
21521721 280 18201715206906929912
21623969 137 18408322181338288759
22224240 67 18202273737154049152
25222932 49 17895182294951699626
3472631 163 10809352139655192745
439807 62 17312816070491248201
465052 167 18408324389125630389
58260988 647 16485871125131769334
59682541 35 18336255830506116816
6025842 7 18041568069070833373

>  <PUBCHEM_SHAPE_MULTIPOLES>  (1) 
394.87
21.31
2.95
1.13
48.57
1.49
0.1
9.29
4.82
-3.58
-1.44
-0.73
0.39
1.19

>  <PUBCHEM_SHAPE_SELFOVERLAP>  (1) 
719.847

>  <PUBCHEM_SHAPE_VOLUME>  (1) 
253.3

>  <PUBCHEM_COORDINATE_TYPE>  (1) 
2
5
10

$$$$
