3114
     RDKit          3D

 25 26  0  0  1  0  0  0  0  0999 V2000
    0.0194    0.9165    2.6221 O   0  0  0  0  0  0  0  0  0  0  0  0
   -2.2177    0.5965   -0.3915 N   0  0  0  0  0  0  0  0  0  0  0  0
    2.6156    0.8873   -1.2239 N   0  0  0  0  0  0  0  0  0  0  0  0
    1.1760    2.6073    1.6198 N   0  0  0  0  0  0  0  0  0  0  0  0
    0.7627    0.5447    0.2973 C   0  0  0  0  0  0  0  0  0  0  0  0
    0.0474    1.4753   -0.7636 C   0  0  0  0  0  0  0  0  0  0  0  0
   -1.4211    1.8195   -0.4537 C   0  0  0  0  0  0  0  0  0  0  0  0
   -3.6037    0.9050   -0.0392 C   0  0  0  0  0  0  0  0  0  0  0  0
   -2.1625   -0.1168   -1.6675 C   0  0  0  0  0  0  0  0  0  0  0  0
    0.1203   -0.8673    0.4069 C   0  0  0  0  0  0  0  0  0  0  0  0
    2.2598    0.3295   -0.0773 C   0  0  0  0  0  0  0  0  0  0  0  0
    0.6273    1.3392    1.6383 C   0  0  0  0  0  0  0  0  0  0  0  0
   -4.4261   -0.3798   -0.0407 C   0  0  0  0  0  0  0  0  0  0  0  0
   -3.6633    1.5924    1.3220 C   0  0  0  0  0  0  0  0  0  0  0  0
   -2.7694    0.7543   -2.7630 C   0  0  0  0  0  0  0  0  0  0  0  0
   -0.7218   -0.4931   -2.0015 C   0  0  0  0  0  0  0  0  0  0  0  0
    0.6342   -1.8597   -0.3754 C   0  0  0  0  0  0  0  0  0  0  0  0
   -0.9174   -1.0259    1.2780 C   0  0  0  0  0  0  0  0  0  0  0  0
    3.0121   -0.3878    0.7914 C   0  0  0  0  0  0  0  0  0  0  0  0
    0.0581   -3.1262   -0.2774 C   0  0  0  0  0  0  0  0  0  0  0  0
   -1.4936   -2.2924    1.3761 C   0  0  0  0  0  0  0  0  0  0  0  0
    4.3430   -0.5616    0.4282 C   0  0  0  0  0  0  0  0  0  0  0  0
   -1.0058   -3.3426    0.5984 C   0  0  0  0  0  0  0  0  0  0  0  0
    3.9153    0.6973   -1.5438 C   0  0  0  0  0  0  0  0  0  0  0  0
    4.8111   -0.0119   -0.7601 C   0  0  0  0  0  0  0  0  0  0  0  0
  1 12  2  0
  2  7  1  0
  2  8  1  0
  2  9  1  0
  3 11  2  0
  3 24  1  0
  4 12  1  0
  5  6  1  0
  5 10  1  0
  5 11  1  0
  5 12  1  0
  6  7  1  0
  8 13  1  0
  8 14  1  0
  9 15  1  0
  9 16  1  0
 10 17  2  0
 10 18  1  0
 11 19  1  0
 17 20  1  0
 18 21  2  0
 19 22  2  0
 20 23  2  0
 21 23  1  0
 22 25  1  0
 24 25  2  0
M  END
>  <PUBCHEM_COMPOUND_CID>  (1) 
3114

>  <PUBCHEM_CONFORMER_RMSD>  (1) 
0.8

>  <PUBCHEM_CONFORMER_DIVERSEORDER>  (1) 
2
1
4
6
3
5

>  <PUBCHEM_MMFF94_PARTIAL_CHARGES>  (1) 
31
1 -0.57
10 -0.14
11 0.17
12 0.57
17 -0.15
18 -0.15
19 -0.15
2 -0.81
20 -0.15
21 -0.15
22 -0.15
23 -0.15
24 0.16
25 -0.15
3 -0.62
4 -0.8
44 0.15
45 0.15
46 0.15
47 0.37
48 0.37
49 0.15
5 0.35
50 0.15
51 0.15
52 0.15
53 0.15
54 0.15
7 0.27
8 0.27
9 0.27

>  <PUBCHEM_EFFECTIVE_ROTOR_COUNT>  (1) 
8

>  <PUBCHEM_PHARMACOPHORE_FEATURES>  (1) 
8
1 1 acceptor
1 2 cation
1 3 acceptor
1 4 donor
3 8 13 14 hydrophobe
3 9 15 16 hydrophobe
6 10 17 18 20 21 23 rings
6 3 11 19 22 24 25 rings

>  <PUBCHEM_HEAVY_ATOM_COUNT>  (1) 
25

>  <PUBCHEM_ATOM_DEF_STEREO_COUNT>  (1) 
0

>  <PUBCHEM_ATOM_UDEF_STEREO_COUNT>  (1) 
1

>  <PUBCHEM_BOND_DEF_STEREO_COUNT>  (1) 
0

>  <PUBCHEM_BOND_UDEF_STEREO_COUNT>  (1) 
0

>  <PUBCHEM_ISOTOPIC_ATOM_COUNT>  (1) 
0

>  <PUBCHEM_COMPONENT_COUNT>  (1) 
1

>  <PUBCHEM_CACTVS_TAUTO_COUNT>  (1) 
2

>  <PUBCHEM_CONFORMER_ID>  (1) 
00000C2A00000002

>  <PUBCHEM_MMFF94_ENERGY>  (1) 
192.9363

>  <PUBCHEM_FEATURE_SELFOVERLAP>  (1) 
40.594

>  <PUBCHEM_SHAPE_FINGERPRINT>  (1) 
10165383 225 18334022670417504677
10863032 1 18042134300367900214
10948715 1 16588297242153435733
11578080 2 18050856807837421096
12011746 2 18334013921669473007
12035758 1 18340205301119290851
12293681 4 17917443033421916233
12403814 3 17095244739219096621
12592029 89 17895480211342683826
12633257 1 17842309070364145363
12714826 92 18191035697251954626
12715332 25 18335135393064210642
12788726 201 17916877807431805408
13140716 1 18261669398003910720
13149001 5 18199739409553288336
133893 2 17612563671798261543
14251751 93 17022891350672820662
14787075 74 18412829066663100415
15209289 33 18343017792071053235
16752209 62 18338238283813847994
16945 1 18129361766129521061
17349148 13 18267864987318743402
17492 54 17749389321125407279
17980427 23 11747516985627009607
18981168 100 17825648196110990172
20600515 1 18340496629431797988
20691752 17 18195498528664688029
21330990 113 18261127261108850547
22907989 373 18115307924335738350
23227448 37 15937555808181898756
23402539 116 17846775175100710996
23419403 2 17913776294902238354
23559900 14 18413107286925045208
238 59 17899380200571596671
2748010 2 17978777227755779414
298252 57 17603853465205228188
34934 24 17844245121351580177
4340502 62 18265635199148906713
69090 78 17748548147269116524
70251023 43 17058338566713455501
81228 2 17682947053124321523

>  <PUBCHEM_SHAPE_MULTIPOLES>  (1) 
493.68
6.77
2.73
2.09
3.45
2.32
0.15
-1.86
1.39
-0.95
-0.59
-0.78
-0.86
0.12

>  <PUBCHEM_SHAPE_SELFOVERLAP>  (1) 
1055.553

>  <PUBCHEM_SHAPE_VOLUME>  (1) 
271.9

>  <PUBCHEM_COORDINATE_TYPE>  (1) 
2
5
10

$$$$
