31162
     RDKit          3D

 12 13  0  0  1  0  0  0  0  0999 V2000
   -4.4274   -0.4384    0.3545 Cl  0  0  0  0  0  0  0  0  0  0  0  0
    2.2747    1.1019    1.0335 S   0  0  0  0  0  0  0  0  0  0  0  0
    2.0970   -0.6681   -0.9400 O   0  0  0  0  0  0  0  0  0  0  0  0
    1.4534    0.5329   -0.4821 C   0  0  0  0  0  0  0  0  0  0  0  0
    3.4492   -0.2603    0.9901 C   0  0  0  0  0  0  0  0  0  0  0  0
    3.4523   -0.6526   -0.4758 C   0  0  0  0  0  0  0  0  0  0  0  0
   -0.0204    0.2893   -0.2739 C   0  0  0  0  0  0  0  0  0  0  0  0
   -0.9309    1.3317   -0.4466 C   0  0  0  0  0  0  0  0  0  0  0  0
   -0.4726   -0.9783    0.0927 C   0  0  0  0  0  0  0  0  0  0  0  0
   -2.2938    1.1065   -0.2527 C   0  0  0  0  0  0  0  0  0  0  0  0
   -1.8355   -1.2035    0.2865 C   0  0  0  0  0  0  0  0  0  0  0  0
   -2.7460   -0.1610    0.1139 C   0  0  0  0  0  0  0  0  0  0  0  0
  1 12  1  0
  2  4  1  0
  2  5  1  0
  3  4  1  0
  3  6  1  0
  4  7  1  0
  5  6  1  0
  7  8  2  0
  7  9  1  0
  8 10  1  0
  9 11  2  0
 10 12  2  0
 11 12  1  0
M  END
>  <PUBCHEM_COMPOUND_CID>  (1) 
31162

>  <PUBCHEM_CONFORMER_RMSD>  (1) 
0.6

>  <PUBCHEM_CONFORMER_DIVERSEORDER>  (1) 
1
3
2
4

>  <PUBCHEM_MMFF94_PARTIAL_CHARGES>  (1) 
16
1 -0.18
10 -0.15
11 -0.15
12 0.18
18 0.15
19 0.15
2 -0.46
20 0.15
21 0.15
3 -0.56
4 0.65
5 0.23
6 0.28
7 -0.14
8 -0.15
9 -0.15

>  <PUBCHEM_EFFECTIVE_ROTOR_COUNT>  (1) 
2

>  <PUBCHEM_PHARMACOPHORE_FEATURES>  (1) 
3
1 3 acceptor
5 2 3 4 5 6 rings
6 7 8 9 10 11 12 rings

>  <PUBCHEM_HEAVY_ATOM_COUNT>  (1) 
12

>  <PUBCHEM_ATOM_DEF_STEREO_COUNT>  (1) 
0

>  <PUBCHEM_ATOM_UDEF_STEREO_COUNT>  (1) 
1

>  <PUBCHEM_BOND_DEF_STEREO_COUNT>  (1) 
0

>  <PUBCHEM_BOND_UDEF_STEREO_COUNT>  (1) 
0

>  <PUBCHEM_ISOTOPIC_ATOM_COUNT>  (1) 
0

>  <PUBCHEM_COMPONENT_COUNT>  (1) 
1

>  <PUBCHEM_CACTVS_TAUTO_COUNT>  (1) 
1

>  <PUBCHEM_CONFORMER_ID>  (1) 
000079BA00000001

>  <PUBCHEM_MMFF94_ENERGY>  (1) 
25.5485

>  <PUBCHEM_FEATURE_SELFOVERLAP>  (1) 
15.223

>  <PUBCHEM_SHAPE_FINGERPRINT>  (1) 
10130415 120 18114466742364149585
10608611 8 18343013389566590144
10857977 72 18408882957885355357
11062470 55 14620795989920550755
11132069 177 18412261757518346691
11401426 45 18410568496995597815
11543360 7 14201686419946475323
12032990 46 18334301993663053283
12251169 10 18342450482704798928
12932764 1 17988921171741388766
13581323 91 18261107469867590296
14144814 61 18040433274233186632
14325111 11 18408604742657012117
14993402 34 16732989721062800382
15219456 202 18201714059422427344
16945 1 18260830397364220383
17804303 29 18337674122621016182
18175812 5 18130508621160675887
18186145 218 16558751204341367380
18522853 295 18261115179181087827
19026448 5 14995997744735692429
19049666 15 18056760918979503844
19422 9 16950282862833980392
20201158 50 18201720635048928046
20279233 1 18343299262610482102
20361792 2 16588015836059699718
20510252 161 18412544280156276777
20528008 55 18272365408116024161
20645464 45 18272363174543152193
20645476 183 16733561518749428931
21293036 1 9799693697064298665
21501502 16 17986099940731540700
21501925 9 18335698377250542413
23402539 116 18342165670865475631
23463225 33 17967530134268288386
23552423 10 17678184999217620061
23559900 14 18338797806767917470
369184 2 17203607090403960037
42 15 18187079542239372554
43471831 8 17968935280143352579
57812782 119 18343578538405623117
69090 78 18060132163485732791
7364860 26 18264214788781640820
77492 1 16805324366482631108

>  <PUBCHEM_SHAPE_MULTIPOLES>  (1) 
246.8
6.78
1.31
0.94
1.57
0.16
-0.1
-1.21
-1.17
0.15
0
-0.6
0.05
0.53

>  <PUBCHEM_SHAPE_SELFOVERLAP>  (1) 
496.414

>  <PUBCHEM_SHAPE_VOLUME>  (1) 
147.2

>  <PUBCHEM_COORDINATE_TYPE>  (1) 
2
5
10

$$$$
