31169
     RDKit          3D

  9  9  0  0  0  0  0  0  0  0999 V2000
    2.7048    0.3335    0.2996 N   0  0  0  0  0  0  0  0  0  0  0  0
   -0.1029   -0.2878   -0.2933 C   0  0  0  0  0  0  0  0  0  0  0  0
    0.3440    1.0865    0.2209 C   0  0  0  0  0  0  0  0  0  0  0  0
    0.9020   -1.3616    0.1426 C   0  0  0  0  0  0  0  0  0  0  0  0
   -1.5101   -0.6241    0.1920 C   0  0  0  0  0  0  0  0  0  0  0  0
    1.7924    1.3783   -0.1704 C   0  0  0  0  0  0  0  0  0  0  0  0
    2.3287   -0.9731   -0.2448 C   0  0  0  0  0  0  0  0  0  0  0  0
   -2.5306    0.3841   -0.3261 C   0  0  0  0  0  0  0  0  0  0  0  0
   -3.9282    0.0642    0.1794 C   0  0  0  0  0  0  0  0  0  0  0  0
  1  6  1  0
  1  7  1  0
  2  3  1  0
  2  4  1  0
  2  5  1  0
  3  6  1  0
  4  7  1  0
  5  8  1  0
  8  9  1  0
M  END
>  <PUBCHEM_COMPOUND_CID>  (1) 
31169

>  <PUBCHEM_CONFORMER_RMSD>  (1) 
0.6

>  <PUBCHEM_CONFORMER_DIVERSEORDER>  (1) 
1
8
3
7
5
6
2
4

>  <PUBCHEM_MMFF94_PARTIAL_CHARGES>  (1) 
4
1 -0.9
21 0.36
6 0.27
7 0.27

>  <PUBCHEM_EFFECTIVE_ROTOR_COUNT>  (1) 
3.2

>  <PUBCHEM_PHARMACOPHORE_FEATURES>  (1) 
4
1 1 cation
1 1 donor
1 9 hydrophobe
6 1 2 3 4 6 7 rings

>  <PUBCHEM_HEAVY_ATOM_COUNT>  (1) 
9

>  <PUBCHEM_ATOM_DEF_STEREO_COUNT>  (1) 
0

>  <PUBCHEM_ATOM_UDEF_STEREO_COUNT>  (1) 
0

>  <PUBCHEM_BOND_DEF_STEREO_COUNT>  (1) 
0

>  <PUBCHEM_BOND_UDEF_STEREO_COUNT>  (1) 
0

>  <PUBCHEM_ISOTOPIC_ATOM_COUNT>  (1) 
0

>  <PUBCHEM_COMPONENT_COUNT>  (1) 
1

>  <PUBCHEM_CACTVS_TAUTO_COUNT>  (1) 
1

>  <PUBCHEM_CONFORMER_ID>  (1) 
000079C100000001

>  <PUBCHEM_MMFF94_ENERGY>  (1) 
-0.4821

>  <PUBCHEM_FEATURE_SELFOVERLAP>  (1) 
20.297

>  <PUBCHEM_SHAPE_FINGERPRINT>  (1) 
10219947 1 18202565051336364983
10857977 72 16950287321294818159
11062470 55 15482670182459585393
12932764 1 17749101180375354783
14325111 11 18410855490636038045
14390081 3 18412261757328462097
15775835 57 18200877386860765941
20201158 50 18335421244591341091
20645477 70 18339636738350852191
20871998 22 17983579602689180294
21040471 1 18194681707779075988
23235685 24 18409724105903146512
23402655 69 18341604898513493813
23552333 60 18342738485968450722
23552423 10 18335138725758138478
29004967 10 18335422357003526138

>  <PUBCHEM_SHAPE_MULTIPOLES>  (1) 
180.23
5.08
1.36
0.66
4.34
0.06
0.01
0.23
-0.13
-0.82
-0.01
0.02
0
0.08

>  <PUBCHEM_SHAPE_SELFOVERLAP>  (1) 
338.824

>  <PUBCHEM_SHAPE_VOLUME>  (1) 
109.3

>  <PUBCHEM_COORDINATE_TYPE>  (1) 
2
5
10

$$$$
