31179
     RDKit          3D

  9  8  0  0  1  0  0  0  0  0999 V2000
   -1.6971    1.4101    0.4610 N   0  0  0  0  0  0  0  0  0  0  0  0
   -1.4350   -1.0479    0.3925 C   0  0  0  0  0  0  0  0  0  0  0  0
   -1.8181    0.2238   -0.3869 C   0  0  0  0  0  0  0  0  0  0  0  0
   -0.0340   -1.0248    1.0208 C   0  0  0  0  0  0  0  0  0  0  0  0
   -3.2493    0.1159   -0.9141 C   0  0  0  0  0  0  0  0  0  0  0  0
    1.0614   -0.9178   -0.0030 C   0  0  0  0  0  0  0  0  0  0  0  0
    2.0022    0.0383   -0.1206 C   0  0  0  0  0  0  0  0  0  0  0  0
    3.0315   -0.0397   -1.2173 C   0  0  0  0  0  0  0  0  0  0  0  0
    2.1383    1.2421    0.7677 C   0  0  0  0  0  0  0  0  0  0  0  0
  1  3  1  0
  2  3  1  0
  2  4  1  0
  3  5  1  0
  4  6  1  0
  6  7  2  3
  7  8  1  0
  7  9  1  0
M  END
>  <PUBCHEM_COMPOUND_CID>  (1) 
31179

>  <PUBCHEM_CONFORMER_RMSD>  (1) 
0.6

>  <PUBCHEM_CONFORMER_DIVERSEORDER>  (1) 
1
17
13
7
28
4
20
5
27
14
30
25
6
8
19
22
18
16
11
24
2
21
3
23
10
12
26
29
9
15

>  <PUBCHEM_MMFF94_PARTIAL_CHARGES>  (1) 
10
1 -0.99
18 0.15
19 0.36
20 0.36
3 0.27
4 0.14
6 -0.29
7 -0.28
8 0.14
9 0.14

>  <PUBCHEM_EFFECTIVE_ROTOR_COUNT>  (1) 
3

>  <PUBCHEM_PHARMACOPHORE_FEATURES>  (1) 
3
1 1 cation
1 1 donor
3 7 8 9 hydrophobe

>  <PUBCHEM_HEAVY_ATOM_COUNT>  (1) 
9

>  <PUBCHEM_ATOM_DEF_STEREO_COUNT>  (1) 
0

>  <PUBCHEM_ATOM_UDEF_STEREO_COUNT>  (1) 
1

>  <PUBCHEM_BOND_DEF_STEREO_COUNT>  (1) 
0

>  <PUBCHEM_BOND_UDEF_STEREO_COUNT>  (1) 
0

>  <PUBCHEM_ISOTOPIC_ATOM_COUNT>  (1) 
0

>  <PUBCHEM_COMPONENT_COUNT>  (1) 
1

>  <PUBCHEM_CACTVS_TAUTO_COUNT>  (1) 
1

>  <PUBCHEM_CONFORMER_ID>  (1) 
000079CB00000001

>  <PUBCHEM_MMFF94_ENERGY>  (1) 
-0.0989

>  <PUBCHEM_FEATURE_SELFOVERLAP>  (1) 
15.223

>  <PUBCHEM_SHAPE_FINGERPRINT>  (1) 
12897270 3 18273492386001765863
12932741 1 18341056323340773642
12932764 1 18337960094260109650
14390081 3 18408597072019280313
15310529 11 15985099730053632033
15775835 57 16950282927084410156
19973954 147 18340493373382155680
20653085 51 18059869336903359601
20828058 34 18187368735346024102
21028194 46 18040992934131019339
21040471 1 18040151837990543418
230 275 18336819866436962352
23235685 24 17967254195382914717
29004967 10 10737278082770280982
369184 2 13767921338751642999
5084963 1 17895188870456757210

>  <PUBCHEM_SHAPE_MULTIPOLES>  (1) 
180.23
4.83
1.3
1.11
0.54
0.05
0.1
1.18
1.8
0.12
-0.38
-0.33
0.06
0.28

>  <PUBCHEM_SHAPE_SELFOVERLAP>  (1) 
324.26

>  <PUBCHEM_SHAPE_VOLUME>  (1) 
116.6

>  <PUBCHEM_COORDINATE_TYPE>  (1) 
2
5
10

$$$$
