31173
     RDKit          3D

  6  5  0  0  0  0  0  0  0  0999 V2000
    0.4067    1.7924    0.0001 Cl  0  0  0  0  0  0  0  0  0  0  0  0
    2.6272   -0.4918    0.0000 Cl  0  0  0  0  0  0  0  0  0  0  0  0
   -2.5450   -0.4217    0.0000 N   0  0  0  0  0  0  0  0  0  0  0  0
   -0.0205    0.1153   -0.0002 C   0  0  0  0  0  0  0  0  0  0  0  0
    0.9413   -0.8121    0.0001 C   0  0  0  0  0  0  0  0  0  0  0  0
   -1.4096   -0.1820    0.0000 C   0  0  0  0  0  0  0  0  0  0  0  0
  1  4  1  0
  2  5  1  0
  3  6  3  0
  4  5  2  0
  4  6  1  0
M  END
>  <PUBCHEM_COMPOUND_CID>  (1) 
31173

>  <PUBCHEM_CONFORMER_RMSD>  (1) 
0.4

>  <PUBCHEM_CONFORMER_DIVERSEORDER>  (1) 
1

>  <PUBCHEM_MMFF94_PARTIAL_CHARGES>  (1) 
7
1 -0.14
2 -0.14
3 -0.56
4 0.2
5 -0.01
6 0.49
7 0.15

>  <PUBCHEM_EFFECTIVE_ROTOR_COUNT>  (1) 
0

>  <PUBCHEM_PHARMACOPHORE_FEATURES>  (1) 
1
1 3 acceptor

>  <PUBCHEM_HEAVY_ATOM_COUNT>  (1) 
6

>  <PUBCHEM_ATOM_DEF_STEREO_COUNT>  (1) 
0

>  <PUBCHEM_ATOM_UDEF_STEREO_COUNT>  (1) 
0

>  <PUBCHEM_BOND_DEF_STEREO_COUNT>  (1) 
0

>  <PUBCHEM_BOND_UDEF_STEREO_COUNT>  (1) 
1

>  <PUBCHEM_ISOTOPIC_ATOM_COUNT>  (1) 
0

>  <PUBCHEM_COMPONENT_COUNT>  (1) 
1

>  <PUBCHEM_CACTVS_TAUTO_COUNT>  (1) 
1

>  <PUBCHEM_CONFORMER_ID>  (1) 
000079C500000001

>  <PUBCHEM_MMFF94_ENERGY>  (1) 
3.6368

>  <PUBCHEM_FEATURE_SELFOVERLAP>  (1) 
5.074

>  <PUBCHEM_SHAPE_FINGERPRINT>  (1) 
139733 1 9295280647072466819
16714656 1 18343302531128164630
20096714 4 18052258685072716109
21040471 1 17690280829719546241
23552423 10 17972326114042481230
23552449 1 18194960738925007756
23552449 11 18335971073287629041
29004967 10 18410295800183161802
5460574 1 9295287239931883074
5943 1 13490769585599923016

>  <PUBCHEM_SHAPE_MULTIPOLES>  (1) 
122.24
3.2
1.39
0.62
0.02
0.92
0
-1.18
0
0.23
0
0.05
0.02
0

>  <PUBCHEM_SHAPE_SELFOVERLAP>  (1) 
210.977

>  <PUBCHEM_SHAPE_VOLUME>  (1) 
80.6

>  <PUBCHEM_COORDINATE_TYPE>  (1) 
2
5
10

$$$$
