31172
     RDKit          3D

 32 35  0  0  1  0  0  0  0  0999 V2000
   -3.0239    2.9921    0.5655 O   0  0  0  0  0  0  0  0  0  0  0  0
    2.9931    2.9907   -0.5716 O   0  0  0  0  0  0  0  0  0  0  0  0
   -5.2518    2.5847   -1.0414 O   0  0  0  0  0  0  0  0  0  0  0  0
    5.2248    2.6100    1.0366 O   0  0  0  0  0  0  0  0  0  0  0  0
   -3.2078   -3.1418    1.0628 N   0  0  0  0  0  0  0  0  0  0  0  0
    3.2422   -3.1419   -1.0567 N   0  0  0  0  0  0  0  0  0  0  0  0
   -2.7626   -1.8290    1.5707 C   0  0  0  0  0  0  0  0  0  0  0  0
    2.7833   -1.8350   -1.5673 C   0  0  0  0  0  0  0  0  0  0  0  0
   -1.2305   -1.8228    1.4892 C   0  0  0  0  0  0  0  0  0  0  0  0
    1.2513   -1.8449   -1.4862 C   0  0  0  0  0  0  0  0  0  0  0  0
   -0.7604   -1.8386    0.0401 C   0  0  0  0  0  0  0  0  0  0  0  0
    0.7671   -1.8629   -0.0366 C   0  0  0  0  0  0  0  0  0  0  0  0
   -3.4082   -0.6482    0.8567 C   0  0  0  0  0  0  0  0  0  0  0  0
    3.4161   -0.6459   -0.8555 C   0  0  0  0  0  0  0  0  0  0  0  0
   -4.5652   -0.8383    0.0735 C   0  0  0  0  0  0  0  0  0  0  0  0
    4.5749   -0.8222   -0.0716 C   0  0  0  0  0  0  0  0  0  0  0  0
   -4.6632   -3.1934    0.9502 C   0  0  0  0  0  0  0  0  0  0  0  0
    4.6981   -3.1780   -0.9437 C   0  0  0  0  0  0  0  0  0  0  0  0
   -5.1430   -2.2169   -0.1198 C   0  0  0  0  0  0  0  0  0  0  0  0
    5.1672   -2.1943    0.1244 C   0  0  0  0  0  0  0  0  0  0  0  0
   -2.9189    0.6575    1.0238 C   0  0  0  0  0  0  0  0  0  0  0  0
    2.9129    0.6541   -1.0253 C   0  0  0  0  0  0  0  0  0  0  0  0
   -5.1659    0.2536   -0.5704 C   0  0  0  0  0  0  0  0  0  0  0  0
    5.1638    0.2773    0.5701 C   0  0  0  0  0  0  0  0  0  0  0  0
   -3.5310    1.7398    0.3889 C   0  0  0  0  0  0  0  0  0  0  0  0
    3.5134    1.7441   -0.3924 C   0  0  0  0  0  0  0  0  0  0  0  0
   -4.6495    1.5373   -0.4129 C   0  0  0  0  0  0  0  0  0  0  0  0
    4.6338    1.5551    0.4100 C   0  0  0  0  0  0  0  0  0  0  0  0
   -2.0295    3.4249   -0.3604 C   0  0  0  0  0  0  0  0  0  0  0  0
    1.9938    3.4147    0.3532 C   0  0  0  0  0  0  0  0  0  0  0  0
   -6.3932    2.2896   -1.8445 C   0  0  0  0  0  0  0  0  0  0  0  0
    6.3690    2.3287    1.8406 C   0  0  0  0  0  0  0  0  0  0  0  0
  1 25  1  0
  1 29  1  0
  2 26  1  0
  2 30  1  0
  3 27  1  0
  3 31  1  0
  4 28  1  0
  4 32  1  0
  5  7  1  0
  5 17  1  0
  6  8  1  0
  6 18  1  0
  7  9  1  0
  7 13  1  0
  8 10  1  0
  8 14  1  0
  9 11  1  0
 10 12  1  0
 11 12  1  0
 13 15  2  0
 13 21  1  0
 14 16  2  0
 14 22  1  0
 15 19  1  0
 15 23  1  0
 16 20  1  0
 16 24  1  0
 17 19  1  0
 18 20  1  0
 21 25  2  0
 22 26  2  0
 23 27  2  0
 24 28  2  0
 25 27  1  0
 26 28  1  0
M  END
>  <PUBCHEM_COMPOUND_CID>  (1) 
31172

>  <PUBCHEM_CONFORMER_RMSD>  (1) 
1.2

>  <PUBCHEM_CONFORMER_DIVERSEORDER>  (1) 
1
12
11
32
49
10
34
31
44
103
90
75
27
21
22
93
76
106
28
42
18
78
20
79
5
60
80
62
87
40
105
86
92
77
108
33
9
59
3
61
25
15
82
8
91
19
13
84
29
102
53
66
55
74
57
56
69
52
23
65
50
39
72
101
98
45
89
67
35
70
58
81
24
51
2
88
107
26
71
6
100
43
36
47
99
96
17
64
41
109
14
85
38
97
63
54
37
68
83
7
30
48
46
94
4
104
95
73
16

>  <PUBCHEM_MMFF94_PARTIAL_CHARGES>  (1) 
34
1 -0.36
13 -0.14
14 -0.14
15 -0.14
16 -0.14
17 0.27
18 0.27
19 0.14
2 -0.36
20 0.14
21 -0.15
22 -0.15
23 -0.15
24 -0.15
25 0.08
26 0.08
27 0.08
28 0.08
29 0.28
3 -0.36
30 0.28
31 0.28
32 0.28
4 -0.36
43 0.36
44 0.36
5 -0.9
53 0.15
54 0.15
55 0.15
56 0.15
6 -0.9
7 0.41
8 0.41

>  <PUBCHEM_EFFECTIVE_ROTOR_COUNT>  (1) 
10.6

>  <PUBCHEM_PHARMACOPHORE_FEATURES>  (1) 
13
1 1 acceptor
1 2 acceptor
1 3 acceptor
1 4 acceptor
1 5 cation
1 5 donor
1 6 cation
1 6 donor
4 9 10 11 12 hydrophobe
6 13 15 21 23 25 27 rings
6 14 16 22 24 26 28 rings
6 5 7 13 15 17 19 rings
6 6 8 14 16 18 20 rings

>  <PUBCHEM_HEAVY_ATOM_COUNT>  (1) 
32

>  <PUBCHEM_ATOM_DEF_STEREO_COUNT>  (1) 
0

>  <PUBCHEM_ATOM_UDEF_STEREO_COUNT>  (1) 
2

>  <PUBCHEM_BOND_DEF_STEREO_COUNT>  (1) 
0

>  <PUBCHEM_BOND_UDEF_STEREO_COUNT>  (1) 
0

>  <PUBCHEM_ISOTOPIC_ATOM_COUNT>  (1) 
0

>  <PUBCHEM_COMPONENT_COUNT>  (1) 
1

>  <PUBCHEM_CACTVS_TAUTO_COUNT>  (1) 
1

>  <PUBCHEM_CONFORMER_ID>  (1) 
000079C400000001

>  <PUBCHEM_MMFF94_ENERGY>  (1) 
108.8184

>  <PUBCHEM_FEATURE_SELFOVERLAP>  (1) 
66.022

>  <PUBCHEM_SHAPE_FINGERPRINT>  (1) 
10439779 11 18049440336339313258
10864689 126 17901384489936393781
10939801 23 17977099395247285752
11136131 41 18335699460674142514
11828532 37 17462007875536031147
12925494 130 18338240336966094465
13402501 40 18410572885645715252
14223995 32 17897717665712594453
14251764 38 18410582781244486341
14739800 52 18261100821200675187
17844677 252 18411429405203954155
21033648 144 18200604712335854982
21033648 29 17967536752886699167
21315763 129 18410296908543804066
21315764 268 18409453604679075887
22121540 332 18341338838528064404
23559900 14 18269278962908082946
23572383 38 18410854364927786792
328310 1195 18342175578748534599
354706 109 18267000860777136321
373842 8 18411981377695155504
4015057 19 18343298133435250225
4144715 1 18335430079524289690
437795 96 18268142235382834496
4403749 210 18053086609293281672
508706 21 18262245395641021085
5283173 99 18335140878006583419
57527585 103 17315664999671315985
6086070 43 18337391522427028594
9981440 41 18114184142460007875

>  <PUBCHEM_SHAPE_MULTIPOLES>  (1) 
625.11
16.32
5.07
1.48
0.05
1.16
0
4.11
0.05
-0.03
-0.01
0.01
-0.11
4.6

>  <PUBCHEM_SHAPE_SELFOVERLAP>  (1) 
1322.425

>  <PUBCHEM_SHAPE_VOLUME>  (1) 
350

>  <PUBCHEM_COORDINATE_TYPE>  (1) 
2
5
10

$$$$
