31177
     RDKit          3D

 11 10  0  0  0  0  0  0  0  0999 V2000
    0.0000    1.5923   -1.4636 Cl  0  0  0  0  0  0  0  0  0  0  0  0
   -0.0002    1.5926    1.4635 Cl  0  0  0  0  0  0  0  0  0  0  0  0
    1.4980   -0.3963    0.0001 S   0  0  0  0  0  0  0  0  0  0  0  0
   -1.4980   -0.3963    0.0000 S   0  0  0  0  0  0  0  0  0  0  0  0
    1.5591   -1.1228    1.2556 O   0  0  0  0  0  0  0  0  0  0  0  0
    1.5594   -1.1221   -1.2558 O   0  0  0  0  0  0  0  0  0  0  0  0
   -1.5588   -1.1226   -1.2560 O   0  0  0  0  0  0  0  0  0  0  0  0
   -1.5592   -1.1228    1.2556 O   0  0  0  0  0  0  0  0  0  0  0  0
   -0.0001    0.5994    0.0002 C   0  0  0  0  0  0  0  0  0  0  0  0
    2.8644    0.7494    0.0003 C   0  0  0  0  0  0  0  0  0  0  0  0
   -2.8645    0.7493    0.0000 C   0  0  0  0  0  0  0  0  0  0  0  0
  1  9  1  0
  2  9  1  0
  3  5  2  0
  3  6  2  0
  3  9  1  0
  3 10  1  0
  4  7  2  0
  4  8  2  0
  4  9  1  0
  4 11  1  0
M  END
>  <PUBCHEM_COMPOUND_CID>  (1) 
31177

>  <PUBCHEM_CONFORMER_RMSD>  (1) 
0.4

>  <PUBCHEM_CONFORMER_DIVERSEORDER>  (1) 
1
3
5
2
4

>  <PUBCHEM_MMFF94_PARTIAL_CHARGES>  (1) 
11
1 -0.29
10 0.11
11 0.11
2 -0.29
3 1.09
4 1.09
5 -0.65
6 -0.65
7 -0.65
8 -0.65
9 0.79

>  <PUBCHEM_EFFECTIVE_ROTOR_COUNT>  (1) 
2

>  <PUBCHEM_PHARMACOPHORE_FEATURES>  (1) 
4
1 5 acceptor
1 6 acceptor
1 7 acceptor
1 8 acceptor

>  <PUBCHEM_HEAVY_ATOM_COUNT>  (1) 
11

>  <PUBCHEM_ATOM_DEF_STEREO_COUNT>  (1) 
0

>  <PUBCHEM_ATOM_UDEF_STEREO_COUNT>  (1) 
0

>  <PUBCHEM_BOND_DEF_STEREO_COUNT>  (1) 
0

>  <PUBCHEM_BOND_UDEF_STEREO_COUNT>  (1) 
0

>  <PUBCHEM_ISOTOPIC_ATOM_COUNT>  (1) 
0

>  <PUBCHEM_COMPONENT_COUNT>  (1) 
1

>  <PUBCHEM_CACTVS_TAUTO_COUNT>  (1) 
1

>  <PUBCHEM_CONFORMER_ID>  (1) 
000079C900000001

>  <PUBCHEM_MMFF94_ENERGY>  (1) 
13.7374

>  <PUBCHEM_FEATURE_SELFOVERLAP>  (1) 
20.336

>  <PUBCHEM_SHAPE_FINGERPRINT>  (1) 
12423570 1 8855574110274364680
12524768 44 18338520741978691309
137420 1 12739751179014169700
16945 1 18410855464423369445
21922407 69 17129866277345192803
23526114 1 17700402860745386992
23552333 60 18334856061349767648
29004967 10 17749112205176517592
369184 2 17822005393654770216
5084963 1 16199303385557621525
528886 8 17894909663196457104

>  <PUBCHEM_SHAPE_MULTIPOLES>  (1) 
214.34
3.36
1.64
1.49
0
0.25
0
-0.1
0
0
0
0
0.15
0

>  <PUBCHEM_SHAPE_SELFOVERLAP>  (1) 
370.799

>  <PUBCHEM_SHAPE_VOLUME>  (1) 
142.7

>  <PUBCHEM_COORDINATE_TYPE>  (1) 
2
5
10

$$$$
