31189
     RDKit          3D

 12 13  0  0  0  0  0  0  0  0999 V2000
   -2.9996   -1.1160   -0.2558 C   0  0  0  0  0  0  0  0  0  0  0  0
   -3.2417    0.1518    0.5532 C   0  0  0  0  0  0  0  0  0  0  0  0
   -1.5866   -1.6431   -0.0121 C   0  0  0  0  0  0  0  0  0  0  0  0
   -2.2833    1.2569    0.1133 C   0  0  0  0  0  0  0  0  0  0  0  0
   -0.5278   -0.5724   -0.1019 C   0  0  0  0  0  0  0  0  0  0  0  0
   -0.8526    0.7933   -0.0022 C   0  0  0  0  0  0  0  0  0  0  0  0
    0.8167   -0.9530   -0.2300 C   0  0  0  0  0  0  0  0  0  0  0  0
    0.1704    1.7512   -0.0693 C   0  0  0  0  0  0  0  0  0  0  0  0
    1.8251    0.0086   -0.2847 C   0  0  0  0  0  0  0  0  0  0  0  0
    1.5019    1.3601   -0.2067 C   0  0  0  0  0  0  0  0  0  0  0  0
    3.2490   -0.4114   -0.4269 C   0  0  0  0  0  0  0  0  0  0  0  0
    3.9285   -0.6262    0.9231 C   0  0  0  0  0  0  0  0  0  0  0  0
  1  2  1  0
  1  3  1  0
  2  4  1  0
  3  5  1  0
  4  6  1  0
  5  6  2  0
  5  7  1  0
  6  8  1  0
  7  9  2  0
  8 10  2  0
  9 10  1  0
  9 11  1  0
 11 12  1  0
M  END
>  <PUBCHEM_COMPOUND_CID>  (1) 
31189

>  <PUBCHEM_CONFORMER_RMSD>  (1) 
0.4

>  <PUBCHEM_CONFORMER_DIVERSEORDER>  (1) 
1
5
3
4
6
2

>  <PUBCHEM_MMFF94_PARTIAL_CHARGES>  (1) 
12
10 -0.15
11 0.14
21 0.15
22 0.15
23 0.15
3 0.14
4 0.14
5 -0.14
6 -0.14
7 -0.15
8 -0.15
9 -0.14

>  <PUBCHEM_EFFECTIVE_ROTOR_COUNT>  (1) 
1.8

>  <PUBCHEM_PHARMACOPHORE_FEATURES>  (1) 
3
1 12 hydrophobe
6 1 2 3 4 5 6 rings
6 5 6 7 8 9 10 rings

>  <PUBCHEM_HEAVY_ATOM_COUNT>  (1) 
12

>  <PUBCHEM_ATOM_DEF_STEREO_COUNT>  (1) 
0

>  <PUBCHEM_ATOM_UDEF_STEREO_COUNT>  (1) 
0

>  <PUBCHEM_BOND_DEF_STEREO_COUNT>  (1) 
0

>  <PUBCHEM_BOND_UDEF_STEREO_COUNT>  (1) 
0

>  <PUBCHEM_ISOTOPIC_ATOM_COUNT>  (1) 
0

>  <PUBCHEM_COMPONENT_COUNT>  (1) 
1

>  <PUBCHEM_CACTVS_TAUTO_COUNT>  (1) 
1

>  <PUBCHEM_CONFORMER_ID>  (1) 
000079D500000001

>  <PUBCHEM_MMFF94_ENERGY>  (1) 
20.1547

>  <PUBCHEM_FEATURE_SELFOVERLAP>  (1) 
15.244

>  <PUBCHEM_SHAPE_FINGERPRINT>  (1) 
10130415 120 18335139812574677506
11132069 177 18342175531466854138
11543360 7 15430611656837881630
11769659 78 18337105769277015639
12032990 46 18411708664177389582
12251169 10 18412827984025321856
12382932 28 18343303621886139184
124424 183 18114175324427378919
12932764 1 17748821925485136708
13380535 76 18341332202107200463
14144814 61 18409731763666324546
14325111 11 18411422829619034340
15375462 189 18113617863458058098
16945 1 18411987931414192661
17804303 29 18342742901321457160
19026448 4 16056885714649304078
193761 8 17835242624674058308
200 152 17988350551445907831
20201158 50 18413110554350821647
20871998 184 18202001010281850734
21501502 16 18267590280566750701
21501925 9 18340197596148271658
232386 152 18410298029471525230
2334 1 18195530530365426493
23380061 330 18342174466336122319
23402539 116 18272922817999522895
23402655 69 18124300629041583029
23463225 33 18408042901110919862
23552423 10 18045788046142217181
23559900 14 18271529676959471886
2748010 2 18267586990632306093
5084963 1 18272374204235459217
528886 8 18412544275897732267
53812653 166 18271523100393876720
53812654 25 18272649090568775108
6333449 129 18272084972473965391
7364860 26 18126850623522327240
75552 356 18413108346573919179
8809292 202 18188496885985015699
90316 7 18116423761535340264

>  <PUBCHEM_SHAPE_MULTIPOLES>  (1) 
246.95
5.66
1.69
0.75
2.27
0.27
0.07
-1.43
1.02
-0.52
-0.06
0.25
-0.05
-0.29

>  <PUBCHEM_SHAPE_SELFOVERLAP>  (1) 
516.004

>  <PUBCHEM_SHAPE_VOLUME>  (1) 
135.4

>  <PUBCHEM_COORDINATE_TYPE>  (1) 
2
5
10

$$$$
