31185
     RDKit          3D

 20 21  0  0  0  0  0  0  0  0999 V2000
    6.2729   -0.1735   -0.3257 F   0  0  0  0  0  0  0  0  0  0  0  0
   -3.3684    0.7623    0.5760 O   0  0  0  0  0  0  0  0  0  0  0  0
   -1.7323   -2.8777   -0.3232 O   0  0  0  0  0  0  0  0  0  0  0  0
   -3.3461   -1.9635    0.9908 O   0  0  0  0  0  0  0  0  0  0  0  0
   -3.5360    0.8358   -1.7577 O   0  0  0  0  0  0  0  0  0  0  0  0
    0.7455    0.3487    0.1922 C   0  0  0  0  0  0  0  0  0  0  0  0
    2.1798    0.2125    0.0586 C   0  0  0  0  0  0  0  0  0  0  0  0
   -0.0630   -0.7874    0.2279 C   0  0  0  0  0  0  0  0  0  0  0  0
   -1.4457   -0.6557    0.3568 C   0  0  0  0  0  0  0  0  0  0  0  0
    0.1717    1.6165    0.2854 C   0  0  0  0  0  0  0  0  0  0  0  0
   -2.0198    0.6123    0.4499 C   0  0  0  0  0  0  0  0  0  0  0  0
   -1.2110    1.7484    0.4143 C   0  0  0  0  0  0  0  0  0  0  0  0
    3.0262    1.1682    0.6204 C   0  0  0  0  0  0  0  0  0  0  0  0
    2.7159   -0.8736   -0.6333 C   0  0  0  0  0  0  0  0  0  0  0  0
    4.4088    1.0380    0.4902 C   0  0  0  0  0  0  0  0  0  0  0  0
    4.0986   -1.0040   -0.7634 C   0  0  0  0  0  0  0  0  0  0  0  0
    4.9451   -0.0482   -0.2016 C   0  0  0  0  0  0  0  0  0  0  0  0
   -2.2724   -1.8541    0.3919 C   0  0  0  0  0  0  0  0  0  0  0  0
   -4.0494    0.8670   -0.6471 C   0  0  0  0  0  0  0  0  0  0  0  0
   -5.5204    1.0281   -0.4023 C   0  0  0  0  0  0  0  0  0  0  0  0
  1 17  1  0
  2 11  1  0
  2 19  1  0
  3 18  1  0
  4 18  2  0
  5 19  2  0
  6  7  1  0
  6  8  2  0
  6 10  1  0
  7 13  2  0
  7 14  1  0
  8  9  1  0
  9 11  2  0
  9 18  1  0
 10 12  2  0
 11 12  1  0
 13 15  1  0
 14 16  2  0
 15 17  2  0
 16 17  1  0
 19 20  1  0
M  END
>  <PUBCHEM_COMPOUND_CID>  (1) 
31185

>  <PUBCHEM_CONFORMER_RMSD>  (1) 
0.6

>  <PUBCHEM_CONFORMER_DIVERSEORDER>  (1) 
1
19
8
11
4
15
2
5
6
18
3
10
17
16
13
7
14
9
12

>  <PUBCHEM_MMFF94_PARTIAL_CHARGES>  (1) 
26
1 -0.19
10 -0.15
11 0.08
12 -0.15
13 -0.15
14 -0.15
15 -0.15
16 -0.15
17 0.19
18 0.63
19 0.66
2 -0.23
20 0.06
21 0.15
22 0.15
23 0.15
24 0.15
25 0.15
26 0.15
27 0.15
3 -0.65
31 0.5
4 -0.57
5 -0.57
8 -0.15
9 0.09

>  <PUBCHEM_EFFECTIVE_ROTOR_COUNT>  (1) 
4

>  <PUBCHEM_PHARMACOPHORE_FEATURES>  (1) 
6
1 3 acceptor
1 4 acceptor
1 5 acceptor
3 3 4 18 anion
6 6 8 9 10 11 12 rings
6 7 13 14 15 16 17 rings

>  <PUBCHEM_HEAVY_ATOM_COUNT>  (1) 
20

>  <PUBCHEM_ATOM_DEF_STEREO_COUNT>  (1) 
0

>  <PUBCHEM_ATOM_UDEF_STEREO_COUNT>  (1) 
0

>  <PUBCHEM_BOND_DEF_STEREO_COUNT>  (1) 
0

>  <PUBCHEM_BOND_UDEF_STEREO_COUNT>  (1) 
0

>  <PUBCHEM_ISOTOPIC_ATOM_COUNT>  (1) 
0

>  <PUBCHEM_COMPONENT_COUNT>  (1) 
1

>  <PUBCHEM_CACTVS_TAUTO_COUNT>  (1) 
1

>  <PUBCHEM_CONFORMER_ID>  (1) 
000079D100000001

>  <PUBCHEM_MMFF94_ENERGY>  (1) 
66.6607

>  <PUBCHEM_FEATURE_SELFOVERLAP>  (1) 
30.504

>  <PUBCHEM_SHAPE_FINGERPRINT>  (1) 
10014705 185 18187364354421619628
10366900 7 17703789206772560832
105312 117 17895746310478704975
107951 10 17821732723672980971
10906281 52 18059031509127818825
11315181 36 17560802139117606696
12236239 1 17095526193121975224
12555020 224 18341046324446087703
12788726 201 18129658574092402393
12969540 114 18263064570832758829
13296908 3 18341055206723051922
13533116 47 18267860593213875794
13760787 19 17748541541630547202
14115302 16 18334863826381905773
14911166 2 18411134719266036917
15099037 51 18409729551911232317
15196674 1 18339364170951359088
15209294 21 12540971850971998093
15242439 84 18413671305507717192
15375358 24 18272370867061739926
187816 3 18272084972854052873
19141452 34 18059022812082963987
19433438 15 16950572090300578606
200 152 17203888548290608696
20279233 1 18272940414248399686
20602899 9 16487252188423570863
20645477 56 18259703393682593621
20645477 70 17775005640029303630
20871999 31 18261391195402175119
21029758 11 18202561761291702937
21267235 1 18338247066636651707
21339142 51 18410011069848081017
21521239 73 17988063540393541983
22182313 1 18268731475274536815
23402539 116 18202279174029004701
23557571 272 18339651138906424078
23559900 14 18342453777330194264
26918003 58 18343019987042103528
2748010 2 18267581493322080609
335352 9 18411420600620685212
34934 24 18334290955185678602
3545911 37 18408606950581211152
3759504 43 17530687606549305651
4028521 119 18335136466610654469
4175511 318 17894911811086046861
4214541 1 18410014364014020642
4340502 62 16298394509396301393
5104073 3 18340770429322692896
5283173 99 18410005516323849341
559249 180 18260261941400382634
58051976 100 18041278850399150707
59755656 215 18340210683520680638
69090 78 18272087175702465470
9709674 26 18059021570900173534

>  <PUBCHEM_SHAPE_MULTIPOLES>  (1) 
380.84
11.12
2.01
0.93
5.81
1.07
0.19
-1.36
2.19
-1.51
-0.21
-0.51
-0.02
1.13

>  <PUBCHEM_SHAPE_SELFOVERLAP>  (1) 
829.769

>  <PUBCHEM_SHAPE_VOLUME>  (1) 
207.7

>  <PUBCHEM_COORDINATE_TYPE>  (1) 
2
5
10

$$$$
