31182
     RDKit          3D

 35 35  0  0  1  0  0  0  0  0999 V2000
    0.4981    1.0494   -1.0074 Si  0  0  0  0  0  4  0  0  0  0  0  0
   -2.2833    0.2841    0.3416 Si  0  0  0  0  0  4  0  0  0  0  0  0
    2.7976   -0.1229    0.8058 Si  0  0  0  0  0  4  0  0  0  0  0  0
   -1.6931   -1.5512    2.8511 Si  0  0  0  0  0  4  0  0  0  0  0  0
    1.0276   -0.0222    3.4394 Si  0  0  0  0  0  4  0  0  0  0  0  0
   -0.1086    6.1748   -0.0219 F   0  0  0  0  0  0  0  0  0  0  0  0
   -1.2864    5.3107   -1.6465 F   0  0  0  0  0  0  0  0  0  0  0  0
    0.8603    5.6065   -1.8910 F   0  0  0  0  0  0  0  0  0  0  0  0
   -6.1472   -2.6245   -1.7166 F   0  0  0  0  0  0  0  0  0  0  0  0
   -4.1134   -3.4133   -1.8376 F   0  0  0  0  0  0  0  0  0  0  0  0
   -4.7081   -1.7289   -3.0884 F   0  0  0  0  0  0  0  0  0  0  0  0
    5.4550   -2.4179   -3.1093 F   0  0  0  0  0  0  0  0  0  0  0  0
    3.5351   -3.2926   -2.5421 F   0  0  0  0  0  0  0  0  0  0  0  0
    5.2649   -3.5117   -1.2325 F   0  0  0  0  0  0  0  0  0  0  0  0
   -0.6709    0.6023    0.0889 O   0  0  0  0  0  0  0  0  0  0  0  0
    1.9850    0.9194   -0.2329 O   0  0  0  0  0  0  0  0  0  0  0  0
   -2.4345   -0.4189    1.8588 O   0  0  0  0  0  0  0  0  0  0  0  0
    1.7650   -0.5790    2.0434 O   0  0  0  0  0  0  0  0  0  0  0  0
   -0.4117   -0.8475    3.6686 O   0  0  0  0  0  0  0  0  0  0  0  0
    0.2280    2.8171   -1.5783 C   0  0  0  0  0  0  0  0  0  0  0  0
   -2.9514   -0.8795   -0.9739 C   0  0  0  0  0  0  0  0  0  0  0  0
    3.3637   -1.6522   -0.1346 C   0  0  0  0  0  0  0  0  0  0  0  0
    0.4605   -0.0641   -2.5195 C   0  0  0  0  0  0  0  0  0  0  0  0
   -3.2849    1.8715    0.2722 C   0  0  0  0  0  0  0  0  0  0  0  0
    4.3297    0.7218    1.4928 C   0  0  0  0  0  0  0  0  0  0  0  0
    0.1676    3.8647   -0.4626 C   0  0  0  0  0  0  0  0  0  0  0  0
   -4.4092   -1.3113   -0.7884 C   0  0  0  0  0  0  0  0  0  0  0  0
    4.2613   -1.3826   -1.3459 C   0  0  0  0  0  0  0  0  0  0  0  0
   -2.9470   -2.2012    4.0987 C   0  0  0  0  0  0  0  0  0  0  0  0
   -1.0914   -3.0259    1.8457 C   0  0  0  0  0  0  0  0  0  0  0  0
    0.6966    1.8284    3.3488 C   0  0  0  0  0  0  0  0  0  0  0  0
    2.1635   -0.3121    4.9136 C   0  0  0  0  0  0  0  0  0  0  0  0
   -0.0988    5.2523   -1.0075 C   0  0  0  0  0  0  0  0  0  0  0  0
   -4.8497   -2.2823   -1.8637 C   0  0  0  0  0  0  0  0  0  0  0  0
    4.6302   -2.6611   -2.0688 C   0  0  0  0  0  0  0  0  0  0  0  0
  1 15  1  0
  1 16  1  0
  1 20  1  0
  1 23  1  0
  2 15  1  0
  2 17  1  0
  2 21  1  0
  2 24  1  0
  3 16  1  0
  3 18  1  0
  3 22  1  0
  3 25  1  0
  4 17  1  0
  4 19  1  0
  4 29  1  0
  4 30  1  0
  5 18  1  0
  5 19  1  0
  5 31  1  0
  5 32  1  0
  6 33  1  0
  7 33  1  0
  8 33  1  0
  9 34  1  0
 10 34  1  0
 11 34  1  0
 12 35  1  0
 13 35  1  0
 14 35  1  0
 20 26  1  0
 21 27  1  0
 22 28  1  0
 26 33  1  0
 27 34  1  0
 28 35  1  0
M  END
>  <PUBCHEM_COMPOUND_CID>  (1) 
31182

>  <PUBCHEM_CONFORMER_RMSD>  (1) 
1.6

>  <PUBCHEM_CONFORMER_DIVERSEORDER>  (1) 
1
78
32
27
70
15
111
6
55
22
4
104
60
64
19
51
53
18
11
76
23
13
36
89
5
102
99
103
7
90
58
17
41
20
31
83
72
43
71
100
35
12
3
21
24
40
96
8
94
29
30
108
114
67
25
34
92
66
68
110
79
59
44
97
38
9
81
65
88
106
74
73
57
54
95
2
63
48
75
101
117
39
42
10
26
91
61
14
45
116
16
98
62
46
37
86
50
93
77
87
28
115
80
113
47
56
85
109
82
69
52
84
33
105
107
49
112

>  <PUBCHEM_MMFF94_PARTIAL_CHARGES>  (1) 
32
1 0.76
10 -0.34
11 -0.34
12 -0.34
13 -0.34
14 -0.34
15 -0.59
16 -0.59
17 -0.59
18 -0.59
19 -0.59
2 0.76
20 -0.08
21 -0.08
22 -0.08
23 -0.08
24 -0.08
25 -0.08
29 -0.08
3 0.76
30 -0.08
31 -0.08
32 -0.08
33 1.02
34 1.02
35 1.02
4 0.76
5 0.76
6 -0.34
7 -0.34
8 -0.34
9 -0.34

>  <PUBCHEM_EFFECTIVE_ROTOR_COUNT>  (1) 
11

>  <PUBCHEM_PHARMACOPHORE_FEATURES>  (1) 
0

>  <PUBCHEM_HEAVY_ATOM_COUNT>  (1) 
35

>  <PUBCHEM_ATOM_DEF_STEREO_COUNT>  (1) 
0

>  <PUBCHEM_ATOM_UDEF_STEREO_COUNT>  (1) 
2

>  <PUBCHEM_BOND_DEF_STEREO_COUNT>  (1) 
0

>  <PUBCHEM_BOND_UDEF_STEREO_COUNT>  (1) 
0

>  <PUBCHEM_ISOTOPIC_ATOM_COUNT>  (1) 
0

>  <PUBCHEM_COMPONENT_COUNT>  (1) 
1

>  <PUBCHEM_CACTVS_TAUTO_COUNT>  (1) 
1

>  <PUBCHEM_CONFORMER_ID>  (1) 
000079CE00000001

>  <PUBCHEM_MMFF94_ENERGY>  (1) 
13.7097

>  <PUBCHEM_FEATURE_SELFOVERLAP>  (1) 
0

>  <PUBCHEM_SHAPE_FINGERPRINT>  (1) 
12160290 23 17752759126380060100
12788726 201 17898576375524643209
13636023 51 17845924161184734908
14040221 310 18192458306970349366
14114206 34 17749679480230675637
15361156 5 18192734275450242190
16114785 44 17683274394405017296
19315092 285 17775569745376737894
20600515 1 17749107811768274320
23419403 2 15161001115361152976
24941158 1 17975994368094627911
394222 165 17109566101324756709
484985 159 17054442739239774166
57527452 28 17482024166585697089
7288768 16 7997675472682268870

>  <PUBCHEM_SHAPE_MULTIPOLES>  (1) 
716.54
8.89
6.35
5.15
2.29
14.37
-1.98
-10.28
10.57
-0.43
0.69
-1.36
-5.42
1.93

>  <PUBCHEM_SHAPE_SELFOVERLAP>  (1) 
1341.3

>  <PUBCHEM_SHAPE_VOLUME>  (1) 
447.3

>  <PUBCHEM_COORDINATE_TYPE>  (1) 
2
5
10

$$$$
