31187
     RDKit          3D

 16 17  0  0  0  0  0  0  0  0999 V2000
   -2.7356   -0.3795   -0.0002 O   0  0  0  0  0  0  0  0  0  0  0  0
    0.3945    2.5454    0.0008 O   0  0  0  0  0  0  0  0  0  0  0  0
   -0.5805   -1.9983    0.0002 O   0  0  0  0  0  0  0  0  0  0  0  0
   -2.3435    1.8764   -0.0010 O   0  0  0  0  0  0  0  0  0  0  0  0
   -0.5570    0.3779   -0.0003 N   0  0  0  0  0  0  0  0  0  0  0  0
    1.7163    0.5917    0.0001 C   0  0  0  0  0  0  0  0  0  0  0  0
    1.4245   -0.7605   -0.0004 C   0  0  0  0  0  0  0  0  0  0  0  0
    0.4557    1.3289    0.0004 C   0  0  0  0  0  0  0  0  0  0  0  0
   -0.0282   -0.9128   -0.0006 C   0  0  0  0  0  0  0  0  0  0  0  0
    3.0153    1.0586    0.0004 C   0  0  0  0  0  0  0  0  0  0  0  0
    2.4157   -1.7213   -0.0004 C   0  0  0  0  0  0  0  0  0  0  0  0
   -1.9216    0.7216   -0.0009 C   0  0  0  0  0  0  0  0  0  0  0  0
    4.0366    0.1045    0.0004 C   0  0  0  0  0  0  0  0  0  0  0  0
    3.7395   -1.2730    0.0001 C   0  0  0  0  0  0  0  0  0  0  0  0
   -4.1440   -0.1206    0.0004 C   0  0  0  0  0  0  0  0  0  0  0  0
   -4.8878   -1.4391    0.0011 C   0  0  0  0  0  0  0  0  0  0  0  0
  1 12  1  0
  1 15  1  0
  2  8  2  0
  3  9  2  0
  4 12  2  0
  5  8  1  0
  5  9  1  0
  5 12  1  0
  6  7  2  0
  6  8  1  0
  6 10  1  0
  7  9  1  0
  7 11  1  0
 10 13  2  0
 11 14  2  0
 13 14  1  0
 15 16  1  0
M  END
>  <PUBCHEM_COMPOUND_CID>  (1) 
31187

>  <PUBCHEM_CONFORMER_RMSD>  (1) 
0.6

>  <PUBCHEM_CONFORMER_DIVERSEORDER>  (1) 
1
2
3
5
4

>  <PUBCHEM_MMFF94_PARTIAL_CHARGES>  (1) 
19
1 -0.43
10 -0.15
11 -0.15
12 0.78
13 -0.15
14 -0.15
15 0.28
17 0.15
18 0.15
19 0.15
2 -0.57
20 0.15
3 -0.57
4 -0.57
5 -0.18
6 0.09
7 0.09
8 0.54
9 0.54

>  <PUBCHEM_EFFECTIVE_ROTOR_COUNT>  (1) 
3.2

>  <PUBCHEM_PHARMACOPHORE_FEATURES>  (1) 
5
1 2 acceptor
1 3 acceptor
1 4 acceptor
5 5 6 7 8 9 rings
6 6 7 10 11 13 14 rings

>  <PUBCHEM_HEAVY_ATOM_COUNT>  (1) 
16

>  <PUBCHEM_ATOM_DEF_STEREO_COUNT>  (1) 
0

>  <PUBCHEM_ATOM_UDEF_STEREO_COUNT>  (1) 
0

>  <PUBCHEM_BOND_DEF_STEREO_COUNT>  (1) 
0

>  <PUBCHEM_BOND_UDEF_STEREO_COUNT>  (1) 
0

>  <PUBCHEM_ISOTOPIC_ATOM_COUNT>  (1) 
0

>  <PUBCHEM_COMPONENT_COUNT>  (1) 
1

>  <PUBCHEM_CACTVS_TAUTO_COUNT>  (1) 
1

>  <PUBCHEM_CONFORMER_ID>  (1) 
000079D300000001

>  <PUBCHEM_MMFF94_ENERGY>  (1) 
37.8902

>  <PUBCHEM_FEATURE_SELFOVERLAP>  (1) 
25.466

>  <PUBCHEM_SHAPE_FINGERPRINT>  (1) 
10967382 1 18410856602900711876
11471102 20 18410008870534558238
11680986 33 18192435396617155657
11806522 49 18409166636327878015
12032990 46 18411421678688968894
13140716 1 17978784945748908560
13380535 76 18410293631578416882
13690532 89 18410011048204413427
13862211 1 18410569600016754859
14251717 144 18410011056773294511
14252887 29 18060429001344098830
14325111 11 18410855413115786016
14576447 43 18341044211475210823
14790565 3 15955853060774631429
15196674 1 18410573959381673348
15477762 27 18410293648494119749
15536298 74 18343301453265271122
16945 1 18338799034564165348
18186145 218 18265053535616729644
18522853 276 18413387635538941785
193761 8 17906171011880779174
200 152 18201712960438073453
20261772 1 18059293266199837191
20510252 161 18272651203793269064
20645477 70 18410853231272770183
21029758 11 18413103970377011873
21267235 1 18411145723046206262
21501925 9 18409724045731257114
221490 88 18118971527629659059
2334 1 18410855425863570348
23402539 116 18342449335658465095
23402655 69 18412258415870240909
23463225 33 18409730621405301948
23559900 14 18124307204340795162
2748010 2 18338513028317888276
2871803 45 18333726906010812127
5104073 3 18411980221879279913
537710 114 18410017658380738636
602551 16 15194996245418143591
69090 78 18343016713686569927
7364860 26 18269555116567708120
8809292 202 18187369878171783139
9709674 26 18410300189592739587

>  <PUBCHEM_SHAPE_MULTIPOLES>  (1) 
300.81
7.76
2.09
0.59
5.86
0.41
0
-2.71
0
-0.01
0
-0.04
-0.02
0

>  <PUBCHEM_SHAPE_SELFOVERLAP>  (1) 
654.01

>  <PUBCHEM_SHAPE_VOLUME>  (1) 
163.8

>  <PUBCHEM_COORDINATE_TYPE>  (1) 
2
5
10

$$$$
