31190
     RDKit          3D

 19 20  0  0  0  0  0  0  0  0999 V2000
    2.2653    3.0312    0.7368 Cl  0  0  0  0  0  0  0  0  0  0  0  0
    3.0297   -2.9523   -0.8717 Cl  0  0  0  0  0  0  0  0  0  0  0  0
    5.2082   -1.4410    0.9836 Cl  0  0  0  0  0  0  0  0  0  0  0  0
    0.4251    1.3725   -0.9644 O   0  0  0  0  0  0  0  0  0  0  0  0
   -4.7353   -0.9977    1.7066 O   0  0  0  0  0  0  0  0  0  0  0  0
   -5.4428   -0.7695   -0.3589 O   0  0  0  0  0  0  0  0  0  0  0  0
   -4.5460   -0.6623    0.5124 N   0  0  0  0  0  0  0  0  0  0  0  0
   -0.7891    0.8741   -0.6038 C   0  0  0  0  0  0  0  0  0  0  0  0
    1.5533    0.7162   -0.5018 C   0  0  0  0  0  0  0  0  0  0  0  0
   -1.0222    0.4928    0.7175 C   0  0  0  0  0  0  0  0  0  0  0  0
   -1.8006    0.7455   -1.5556 C   0  0  0  0  0  0  0  0  0  0  0  0
    2.4747    1.3778    0.2908 C   0  0  0  0  0  0  0  0  0  0  0  0
    1.7247   -0.6109   -0.8576 C   0  0  0  0  0  0  0  0  0  0  0  0
   -3.2786   -0.1452    0.1354 C   0  0  0  0  0  0  0  0  0  0  0  0
   -2.2670   -0.0168    1.0871 C   0  0  0  0  0  0  0  0  0  0  0  0
   -3.0453    0.2359   -1.1860 C   0  0  0  0  0  0  0  0  0  0  0  0
    2.8523   -1.2969   -0.4062 C   0  0  0  0  0  0  0  0  0  0  0  0
    3.6023    0.6920    0.7422 C   0  0  0  0  0  0  0  0  0  0  0  0
    3.7911   -0.6454    0.3938 C   0  0  0  0  0  0  0  0  0  0  0  0
  1 12  1  0
  2 17  1  0
  3 19  1  0
  4  8  1  0
  4  9  1  0
  5  7  1  0
  6  7  2  0
  7 14  1  0
  8 10  2  0
  8 11  1  0
  9 12  2  0
  9 13  1  0
 10 15  1  0
 11 16  2  0
 12 18  1  0
 13 17  2  0
 14 15  2  0
 14 16  1  0
 17 19  1  0
 18 19  2  0
M  CHG  2   5  -1   7   1
M  END
>  <PUBCHEM_COMPOUND_CID>  (1) 
31190

>  <PUBCHEM_CONFORMER_RMSD>  (1) 
0.6

>  <PUBCHEM_CONFORMER_DIVERSEORDER>  (1) 
1
2
5
7
3
4
6

>  <PUBCHEM_MMFF94_PARTIAL_CHARGES>  (1) 
25
1 -0.18
10 -0.15
11 -0.15
12 0.18
13 -0.15
14 0.13
15 -0.15
16 -0.15
17 0.18
18 -0.15
19 0.18
2 -0.18
20 0.15
21 0.15
22 0.15
23 0.15
24 0.15
25 0.15
3 -0.18
4 -0.17
5 -0.52
6 -0.52
7 0.91
8 0.08
9 0.08

>  <PUBCHEM_EFFECTIVE_ROTOR_COUNT>  (1) 
3

>  <PUBCHEM_PHARMACOPHORE_FEATURES>  (1) 
6
1 4 acceptor
1 5 acceptor
1 5 anion
1 6 acceptor
6 8 10 11 14 15 16 rings
6 9 12 13 17 18 19 rings

>  <PUBCHEM_HEAVY_ATOM_COUNT>  (1) 
19

>  <PUBCHEM_ATOM_DEF_STEREO_COUNT>  (1) 
0

>  <PUBCHEM_ATOM_UDEF_STEREO_COUNT>  (1) 
0

>  <PUBCHEM_BOND_DEF_STEREO_COUNT>  (1) 
0

>  <PUBCHEM_BOND_UDEF_STEREO_COUNT>  (1) 
0

>  <PUBCHEM_ISOTOPIC_ATOM_COUNT>  (1) 
0

>  <PUBCHEM_COMPONENT_COUNT>  (1) 
1

>  <PUBCHEM_CACTVS_TAUTO_COUNT>  (1) 
1

>  <PUBCHEM_CONFORMER_ID>  (1) 
000079D600000001

>  <PUBCHEM_MMFF94_ENERGY>  (1) 
61.2914

>  <PUBCHEM_FEATURE_SELFOVERLAP>  (1) 
30.528

>  <PUBCHEM_SHAPE_FINGERPRINT>  (1) 
10366900 7 18336557078889271752
114674 6 18335144154761156170
11582403 64 16168822664373901300
11796584 16 17242718798306519010
12236239 1 17203891889590633069
12251169 10 18060416919627202700
12363563 72 17822298959027696668
12553582 1 18201155469166559158
12596602 18 16774075189327888043
12633257 1 18272366499064500366
12892183 10 17417526887730993610
13140716 1 18128525162751475314
13296908 3 17967810548261541501
13533116 47 18342746234522190059
13583140 156 17704064076095065833
14251764 30 17343524210590627638
14252887 29 18411139121570377674
14289901 80 18202283641047985945
14341114 328 17060052683391723322
14386348 63 18040154006790681203
14863182 85 18272095968287095734
15375462 189 17561358482915304970
15635459 17 18333733494327354402
15848702 151 18410014325670590323
16752209 62 16008738109428504489
1813 80 17845388669579449980
19050596 39 17346312730232015008
19141452 34 18261677073416819867
193927 3 18261120642421783631
19862831 5 14129063616306345669
200 152 18342729711223781117
20028762 73 18130780196244077470
20374829 77 17530965774332554635
20645477 70 18408878551127467190
21065201 7 17167849864388986541
21120745 212 15092274697510557580
22224240 67 18201709700626584730
2255824 54 18272651303036523908
23557571 272 17749380456297317909
23559900 14 17167863105467101340
26918003 58 18341890784020469659
3060560 45 11241971469472308960
31174 14 18411980277993753556
316301 35 17895193346060931586
3286 77 18408323284955187564
341906 21 14907909253921748011
465052 167 18333447630463708034
474 4 17772465948104664952
5104073 3 18408601435564233112
5352402 22 18410301306563434675
7808743 9 13110662987445357538
8988823 20 18343298210702236221

>  <PUBCHEM_SHAPE_MULTIPOLES>  (1) 
374.03
10.19
2.34
1.33
6.69
0.34
-0.04
-5.4
-3.36
-3.23
0.03
0.83
-0.11
0.9

>  <PUBCHEM_SHAPE_SELFOVERLAP>  (1) 
782.871

>  <PUBCHEM_SHAPE_VOLUME>  (1) 
215.3

>  <PUBCHEM_COORDINATE_TYPE>  (1) 
2
5
10

$$$$
