31215
     RDKit          3D

 10  9  0  0  0  0  0  0  0  0999 V2000
    0.0586   -0.0065   -0.7853 P   0  0  0  0  0  0  0  0  0  0  0  0
   -0.9458    0.9766    0.0258 O   0  0  0  0  0  0  0  0  0  0  0  0
   -0.3673   -1.4020   -0.0748 O   0  0  0  0  0  0  0  0  0  0  0  0
    1.4033    0.2845    0.0751 O   0  0  0  0  0  0  0  0  0  0  0  0
   -0.8842    2.3544   -0.3147 C   0  0  0  0  0  0  0  0  0  0  0  0
   -1.7290   -1.7839   -0.2103 C   0  0  0  0  0  0  0  0  0  0  0  0
    2.5712   -0.4153   -0.3312 C   0  0  0  0  0  0  0  0  0  0  0  0
   -1.8804    3.1166    0.5328 C   0  0  0  0  0  0  0  0  0  0  0  0
   -1.9462   -3.0987    0.5079 C   0  0  0  0  0  0  0  0  0  0  0  0
    3.7197   -0.0256    0.5747 C   0  0  0  0  0  0  0  0  0  0  0  0
  1  2  1  0
  1  3  1  0
  1  4  1  0
  2  5  1  0
  3  6  1  0
  4  7  1  0
  5  8  1  0
  6  9  1  0
  7 10  1  0
M  END
>  <PUBCHEM_COMPOUND_CID>  (1) 
31215

>  <PUBCHEM_CONFORMER_RMSD>  (1) 
0.6

>  <PUBCHEM_CONFORMER_DIVERSEORDER>  (1) 
1
11
17
13
16
19
2
14
18
20
6
3
12
9
8
10
4
15
5
7

>  <PUBCHEM_MMFF94_PARTIAL_CHARGES>  (1) 
7
1 0.3
2 -0.38
3 -0.38
4 -0.38
5 0.28
6 0.28
7 0.28

>  <PUBCHEM_EFFECTIVE_ROTOR_COUNT>  (1) 
6

>  <PUBCHEM_PHARMACOPHORE_FEATURES>  (1) 
0

>  <PUBCHEM_HEAVY_ATOM_COUNT>  (1) 
10

>  <PUBCHEM_ATOM_DEF_STEREO_COUNT>  (1) 
0

>  <PUBCHEM_ATOM_UDEF_STEREO_COUNT>  (1) 
0

>  <PUBCHEM_BOND_DEF_STEREO_COUNT>  (1) 
0

>  <PUBCHEM_BOND_UDEF_STEREO_COUNT>  (1) 
0

>  <PUBCHEM_ISOTOPIC_ATOM_COUNT>  (1) 
0

>  <PUBCHEM_COMPONENT_COUNT>  (1) 
1

>  <PUBCHEM_CACTVS_TAUTO_COUNT>  (1) 
1

>  <PUBCHEM_CONFORMER_ID>  (1) 
000079EF00000001

>  <PUBCHEM_MMFF94_ENERGY>  (1) 
5.4035

>  <PUBCHEM_FEATURE_SELFOVERLAP>  (1) 
0

>  <PUBCHEM_SHAPE_FINGERPRINT>  (1) 
1 1 17545603353172969356
136203 1 18410573989451693513
17841504 4 17760088814678004723
19021347 4 18194683657272209257
20711985 344 18339907281960340282
21524375 3 17840010858790902476
305870 269 17617936933362165988
58734985 188 17762336220634079450
58734987 43 17762626491793626110
7364860 26 17330279879425414983
81228 2 18410575088984426501

>  <PUBCHEM_SHAPE_MULTIPOLES>  (1) 
192.04
4.21
3.85
0.8
5.36
0.67
-0.03
-0.72
1
-5.14
0.84
0.04
0.02
0.02

>  <PUBCHEM_SHAPE_SELFOVERLAP>  (1) 
328.214

>  <PUBCHEM_SHAPE_VOLUME>  (1) 
129.7

>  <PUBCHEM_COORDINATE_TYPE>  (1) 
2
5
10

$$$$
