31226
     RDKit          3D

 13 13  0  0  0  0  0  0  0  0999 V2000
    2.9280   -0.0901    0.5073 O   0  0  0  0  0  0  0  0  0  0  0  0
    4.6611    0.1885   -0.9947 O   0  0  0  0  0  0  0  0  0  0  0  0
   -0.5077    0.1199   -1.0255 C   0  0  0  0  0  0  0  0  0  0  0  0
    0.5785   -0.0369    0.0457 C   0  0  0  0  0  0  0  0  0  0  0  0
   -1.8821    0.0545   -0.4499 C   0  0  0  0  0  0  0  0  0  0  0  0
    1.9799    0.0795   -0.5374 C   0  0  0  0  0  0  0  0  0  0  0  0
   -2.5361   -1.1731   -0.3440 C   0  0  0  0  0  0  0  0  0  0  0  0
   -2.5134    1.2207   -0.0171 C   0  0  0  0  0  0  0  0  0  0  0  0
   -3.8214   -1.2344    0.1945 C   0  0  0  0  0  0  0  0  0  0  0  0
   -3.7988    1.1592    0.5214 C   0  0  0  0  0  0  0  0  0  0  0  0
   -4.4527   -0.0685    0.6272 C   0  0  0  0  0  0  0  0  0  0  0  0
    4.2426   -0.0115    0.1376 C   0  0  0  0  0  0  0  0  0  0  0  0
    5.1222   -0.2078    1.3350 C   0  0  0  0  0  0  0  0  0  0  0  0
  1  6  1  0
  1 12  1  0
  2 12  2  0
  3  4  1  0
  3  5  1  0
  4  6  1  0
  5  7  2  0
  5  8  1  0
  7  9  1  0
  8 10  2  0
  9 11  2  0
 10 11  1  0
 12 13  1  0
M  END
>  <PUBCHEM_COMPOUND_CID>  (1) 
31226

>  <PUBCHEM_CONFORMER_RMSD>  (1) 
0.6

>  <PUBCHEM_CONFORMER_DIVERSEORDER>  (1) 
1
46
39
32
45
65
42
33
67
58
34
49
47
48
52
59
21
29
13
28
68
27
38
70
26
22
11
31
53
64
2
24
14
10
63
50
43
69
3
25
18
23
66
30
19
60
20
5
16
4
54
17
9
56
40
55
51
15
44
8
12
57
36
35
37
41
6
62
7
61

>  <PUBCHEM_MMFF94_PARTIAL_CHARGES>  (1) 
17
1 -0.43
10 -0.15
11 -0.15
12 0.66
13 0.06
2 -0.57
20 0.15
21 0.15
22 0.15
23 0.15
24 0.15
3 0.14
5 -0.14
6 0.28
7 -0.15
8 -0.15
9 -0.15

>  <PUBCHEM_EFFECTIVE_ROTOR_COUNT>  (1) 
5

>  <PUBCHEM_PHARMACOPHORE_FEATURES>  (1) 
2
1 2 acceptor
6 5 7 8 9 10 11 rings

>  <PUBCHEM_HEAVY_ATOM_COUNT>  (1) 
13

>  <PUBCHEM_ATOM_DEF_STEREO_COUNT>  (1) 
0

>  <PUBCHEM_ATOM_UDEF_STEREO_COUNT>  (1) 
0

>  <PUBCHEM_BOND_DEF_STEREO_COUNT>  (1) 
0

>  <PUBCHEM_BOND_UDEF_STEREO_COUNT>  (1) 
0

>  <PUBCHEM_ISOTOPIC_ATOM_COUNT>  (1) 
0

>  <PUBCHEM_COMPONENT_COUNT>  (1) 
1

>  <PUBCHEM_CACTVS_TAUTO_COUNT>  (1) 
1

>  <PUBCHEM_CONFORMER_ID>  (1) 
000079FA00000001

>  <PUBCHEM_MMFF94_ENERGY>  (1) 
21.9471

>  <PUBCHEM_FEATURE_SELFOVERLAP>  (1) 
10.148

>  <PUBCHEM_SHAPE_FINGERPRINT>  (1) 
10014705 185 15841541990020042944
10680689 15 17561363993389974999
10912923 1 18040437706913820608
114248 4 12035449449650756694
12251169 10 18411140242620113189
13167823 11 17894627037537763578
13214271 11 17846497028660435821
13675066 3 17561082523008911780
13897977 58 18410300224047144397
14123238 8 17966972733655031198
14455015 7 15502375591340338808
17834072 33 18040439931622471172
17834076 25 13110963136987051328
19050596 39 18333449850365402044
200 152 16081085991599658693
20279233 1 17418381289558813919
20432913 95 16877660141309991048
204376 136 15626222433345661540
20645464 45 17632583751568401191
20645477 56 17132106961962850896
20645477 70 15068613865116423184
20828058 21 18342460343997111934
20828058 44 18409728460852220154
20871999 31 8790887350837938043
22485316 2 14851604392533309369
22646028 1 17458341944495876274
2297311 6 18201173095158674645
23402539 116 17095518491839340685
23402655 69 11887956557870635570
23403322 49 13695584442869234569
23559900 14 18057622987677525662
23590187 198 17894907404434075834
42 15 18334294258168379850
449060 50 17060621105133382308
57265010 4 18413672413683087395
573450 72 18260823787124721865
90127 26 17346602975985592504

>  <PUBCHEM_SHAPE_MULTIPOLES>  (1) 
255.8
11.48
1.07
1.01
11.31
0
-0.04
0.11
-3.22
-1.45
-0.05
0.77
0
-0.15

>  <PUBCHEM_SHAPE_SELFOVERLAP>  (1) 
513.238

>  <PUBCHEM_SHAPE_VOLUME>  (1) 
150.2

>  <PUBCHEM_COORDINATE_TYPE>  (1) 
2
5
10

$$$$
