31227
     RDKit          3D

 13 13  0  0  0  0  0  0  0  0999 V2000
    0.5304   -0.0038    0.1186 O   0  0  0  0  0  0  0  0  0  0  0  0
    4.2919   -0.0026    0.5555 C   0  0  0  0  0  0  0  0  0  0  0  0
    2.7939   -0.0065    0.9006 C   0  0  0  0  0  0  0  0  0  0  0  0
    1.8828   -0.0211   -0.3210 C   0  0  0  0  0  0  0  0  0  0  0  0
    4.6353   -1.2359   -0.2832 C   0  0  0  0  0  0  0  0  0  0  0  0
    4.7145    1.2636   -0.1907 C   0  0  0  0  0  0  0  0  0  0  0  0
   -0.3738   -0.0318   -0.9769 C   0  0  0  0  0  0  0  0  0  0  0  0
   -1.7795   -0.0119   -0.4524 C   0  0  0  0  0  0  0  0  0  0  0  0
   -2.4285   -1.2103   -0.1769 C   0  0  0  0  0  0  0  0  0  0  0  0
   -2.4204    1.2047   -0.2462 C   0  0  0  0  0  0  0  0  0  0  0  0
   -3.7352   -1.1920    0.3108 C   0  0  0  0  0  0  0  0  0  0  0  0
   -3.7270    1.2230    0.2417 C   0  0  0  0  0  0  0  0  0  0  0  0
   -4.3843    0.0246    0.5202 C   0  0  0  0  0  0  0  0  0  0  0  0
  1  4  1  0
  1  7  1  0
  2  3  1  0
  2  5  1  0
  2  6  1  0
  3  4  1  0
  7  8  1  0
  8  9  2  0
  8 10  1  0
  9 11  1  0
 10 12  2  0
 11 13  2  0
 12 13  1  0
M  END
>  <PUBCHEM_COMPOUND_CID>  (1) 
31227

>  <PUBCHEM_CONFORMER_RMSD>  (1) 
0.6

>  <PUBCHEM_CONFORMER_DIVERSEORDER>  (1) 
1
19
6
7
4
11
10
5
13
2
14
3
15
18
12
16
17
9
8

>  <PUBCHEM_MMFF94_PARTIAL_CHARGES>  (1) 
14
1 -0.56
10 -0.15
11 -0.15
12 -0.15
13 -0.15
27 0.15
28 0.15
29 0.15
30 0.15
31 0.15
4 0.28
7 0.42
8 -0.14
9 -0.15

>  <PUBCHEM_EFFECTIVE_ROTOR_COUNT>  (1) 
5

>  <PUBCHEM_PHARMACOPHORE_FEATURES>  (1) 
3
1 1 acceptor
3 2 5 6 hydrophobe
6 8 9 10 11 12 13 rings

>  <PUBCHEM_HEAVY_ATOM_COUNT>  (1) 
13

>  <PUBCHEM_ATOM_DEF_STEREO_COUNT>  (1) 
0

>  <PUBCHEM_ATOM_UDEF_STEREO_COUNT>  (1) 
0

>  <PUBCHEM_BOND_DEF_STEREO_COUNT>  (1) 
0

>  <PUBCHEM_BOND_UDEF_STEREO_COUNT>  (1) 
0

>  <PUBCHEM_ISOTOPIC_ATOM_COUNT>  (1) 
0

>  <PUBCHEM_COMPONENT_COUNT>  (1) 
1

>  <PUBCHEM_CACTVS_TAUTO_COUNT>  (1) 
1

>  <PUBCHEM_CONFORMER_ID>  (1) 
000079FB00000001

>  <PUBCHEM_MMFF94_ENERGY>  (1) 
26.0891

>  <PUBCHEM_FEATURE_SELFOVERLAP>  (1) 
15.223

>  <PUBCHEM_SHAPE_FINGERPRINT>  (1) 
10014705 185 18187639189837891861
10680689 15 17385440999058663469
11128504 68 16660659440326976102
114248 4 7997965773684656847
12251169 10 18408041823126908653
124424 183 17704067382781799793
13167823 11 18335136479859761290
13675066 3 18131626786105633874
13897977 58 18410295838880266813
14123238 8 18412825806592973212
14445660 50 18334575728570619816
17834072 33 18261677060114887900
17844677 252 18411145718735401680
18186145 218 18113329800418057900
200 152 14273454786406860007
20279233 1 17704077282823946055
20432913 95 16153425038875846840
20645464 45 17918278649553536839
20645477 70 17417816089475403766
20828058 21 18412544314652632318
22485316 2 17095516288362868649
2297311 6 18340217322764426252
23402539 116 18272925030155567709
23557571 272 12974151940056604254
23559900 14 18270965614140243238
42 15 18411138017774390654
4214541 1 18410573959513691576
449060 50 18411982450988378788
5104073 3 18410290311531280984
522135 26 18060701680876373766
77779 3 18410856560003747490

>  <PUBCHEM_SHAPE_MULTIPOLES>  (1) 
261.66
11.29
1.31
0.85
7.42
0.02
0
0.16
1.56
-0.26
-0.04
0.13
-0.01
0.07

>  <PUBCHEM_SHAPE_SELFOVERLAP>  (1) 
517.559

>  <PUBCHEM_SHAPE_VOLUME>  (1) 
157.1

>  <PUBCHEM_COORDINATE_TYPE>  (1) 
2
5
10

$$$$
