31235
     RDKit          3D

 10 10  0  0  0  0  0  0  0  0999 V2000
    3.7765   -0.6048    0.6672 O   0  0  0  0  0  0  0  0  0  0  0  0
    1.0676   -0.3452   -0.2205 N   0  0  0  0  0  0  0  0  0  0  0  0
    1.9864    0.7501   -0.1804 C   0  0  0  0  0  0  0  0  0  0  0  0
   -0.3279   -0.1790   -0.0995 C   0  0  0  0  0  0  0  0  0  0  0  0
    3.4172    0.2853   -0.3816 C   0  0  0  0  0  0  0  0  0  0  0  0
   -0.8661    1.0969    0.0677 C   0  0  0  0  0  0  0  0  0  0  0  0
   -1.1697   -1.2901   -0.1478 C   0  0  0  0  0  0  0  0  0  0  0  0
   -2.2461    1.2617    0.1863 C   0  0  0  0  0  0  0  0  0  0  0  0
   -2.5498   -1.1253   -0.0293 C   0  0  0  0  0  0  0  0  0  0  0  0
   -3.0880    0.1506    0.1378 C   0  0  0  0  0  0  0  0  0  0  0  0
  1  5  1  0
  2  3  1  0
  2  4  1  0
  3  5  1  0
  4  6  2  0
  4  7  1  0
  6  8  1  0
  7  9  2  0
  8 10  2  0
  9 10  1  0
M  END
>  <PUBCHEM_COMPOUND_CID>  (1) 
31235

>  <PUBCHEM_CONFORMER_RMSD>  (1) 
0.6

>  <PUBCHEM_CONFORMER_DIVERSEORDER>  (1) 
1
7
5
3
8
2
4
6

>  <PUBCHEM_MMFF94_PARTIAL_CHARGES>  (1) 
17
1 -0.68
10 -0.15
13 0.4
16 0.15
17 0.15
18 0.15
19 0.15
2 -0.87
20 0.15
21 0.4
3 0.37
4 0.1
5 0.28
6 -0.15
7 -0.15
8 -0.15
9 -0.15

>  <PUBCHEM_EFFECTIVE_ROTOR_COUNT>  (1) 
3

>  <PUBCHEM_PHARMACOPHORE_FEATURES>  (1) 
5
1 1 acceptor
1 1 donor
1 2 cation
1 2 donor
6 4 6 7 8 9 10 rings

>  <PUBCHEM_HEAVY_ATOM_COUNT>  (1) 
10

>  <PUBCHEM_ATOM_DEF_STEREO_COUNT>  (1) 
0

>  <PUBCHEM_ATOM_UDEF_STEREO_COUNT>  (1) 
0

>  <PUBCHEM_BOND_DEF_STEREO_COUNT>  (1) 
0

>  <PUBCHEM_BOND_UDEF_STEREO_COUNT>  (1) 
0

>  <PUBCHEM_ISOTOPIC_ATOM_COUNT>  (1) 
0

>  <PUBCHEM_COMPONENT_COUNT>  (1) 
1

>  <PUBCHEM_CACTVS_TAUTO_COUNT>  (1) 
1

>  <PUBCHEM_CONFORMER_ID>  (1) 
00007A0300000001

>  <PUBCHEM_MMFF94_ENERGY>  (1) 
29.387

>  <PUBCHEM_FEATURE_SELFOVERLAP>  (1) 
25.374

>  <PUBCHEM_SHAPE_FINGERPRINT>  (1) 
12932764 1 17603578634479692420
13024252 1 15285358427420162413
13380535 76 18341332206296685719
14144814 61 18408323285218632888
14325111 11 18410577288260993604
15669948 3 18270119144610389182
20201158 50 18060142032951021406
20645464 45 17918279740069009015
20871998 184 18058738034228709415
23402539 116 18201429277763815877
23463225 33 18334857186773675694
23552423 10 18045784756155174333
3248919 1 17703800214441554220
369184 2 18113900480911756789
6333449 129 18272651251216938701

>  <PUBCHEM_SHAPE_MULTIPOLES>  (1) 
194.94
5.86
1.31
0.66
4.96
0.01
0.01
-0.28
0.46
-0.73
0.02
0.15
-0.02
-0.27

>  <PUBCHEM_SHAPE_SELFOVERLAP>  (1) 
391.974

>  <PUBCHEM_SHAPE_VOLUME>  (1) 
114.7

>  <PUBCHEM_COORDINATE_TYPE>  (1) 
2
5
10

$$$$
