31232
     RDKit          3D

 15 15  0  0  0  0  0  0  0  0999 V2000
   -2.0346    0.3925   -0.3053 O   0  0  0  0  0  0  0  0  0  0  0  0
   -3.8047    0.1878    1.1659 O   0  0  0  0  0  0  0  0  0  0  0  0
    0.9110    0.3992   -1.2511 N   0  0  0  0  0  0  0  0  0  0  0  0
   -0.4575    2.2217   -0.4336 C   0  0  0  0  0  0  0  0  0  0  0  0
    0.7532    1.3308   -0.2945 C   0  0  0  0  0  0  0  0  0  0  0  0
    2.9136   -0.2954   -0.0881 C   0  0  0  0  0  0  0  0  0  0  0  0
    4.0868   -1.2062   -0.0111 C   0  0  0  0  0  0  0  0  0  0  0  0
    1.5978    1.5231    0.7763 C   0  0  0  0  0  0  0  0  0  0  0  0
   -1.6810    1.6519    0.2758 C   0  0  0  0  0  0  0  0  0  0  0  0
    2.7032    0.6853    0.8751 C   0  0  0  0  0  0  0  0  0  0  0  0
    1.9964   -0.3964   -1.1218 C   0  0  0  0  0  0  0  0  0  0  0  0
    3.7889   -2.4779    0.7819 C   0  0  0  0  0  0  0  0  0  0  0  0
   -3.1172   -0.2212    0.2437 C   0  0  0  0  0  0  0  0  0  0  0  0
   -3.3241   -1.4939   -0.4781 C   0  0  0  0  0  0  0  0  0  0  0  0
   -4.3318   -2.3013   -0.1352 C   0  0  0  0  0  0  0  0  0  0  0  0
  1  9  1  0
  1 13  1  0
  2 13  2  0
  3  5  2  0
  3 11  1  0
  4  5  1  0
  4  9  1  0
  5  8  1  0
  6  7  1  0
  6 10  1  0
  6 11  2  0
  7 12  1  0
  8 10  2  0
 13 14  1  0
 14 15  2  0
M  END
>  <PUBCHEM_COMPOUND_CID>  (1) 
31232

>  <PUBCHEM_CONFORMER_RMSD>  (1) 
0.8

>  <PUBCHEM_CONFORMER_DIVERSEORDER>  (1) 
1
33
36
21
49
28
37
39
56
71
68
46
51
38
22
79
30
87
45
16
41
59
18
8
89
81
78
69
26
43
34
61
50
52
86
15
13
4
74
9
11
58
20
72
84
62
75
70
44
5
12
88
14
54
64
10
53
85
55
40
19
83
47
6
82
24
57
42
32
77
17
73
23
48
66
2
76
31
25
60
63
67
80
3
65
7
27
35
29

>  <PUBCHEM_MMFF94_PARTIAL_CHARGES>  (1) 
20
1 -0.43
10 -0.15
11 0.16
13 0.71
14 -0.14
15 -0.3
2 -0.57
20 0.15
23 0.15
24 0.15
28 0.15
29 0.15
3 -0.62
30 0.15
4 0.14
5 0.17
6 -0.14
7 0.14
8 -0.15
9 0.28

>  <PUBCHEM_EFFECTIVE_ROTOR_COUNT>  (1) 
6

>  <PUBCHEM_PHARMACOPHORE_FEATURES>  (1) 
5
1 12 hydrophobe
1 15 hydrophobe
1 2 acceptor
1 3 acceptor
6 3 5 6 8 10 11 rings

>  <PUBCHEM_HEAVY_ATOM_COUNT>  (1) 
15

>  <PUBCHEM_ATOM_DEF_STEREO_COUNT>  (1) 
0

>  <PUBCHEM_ATOM_UDEF_STEREO_COUNT>  (1) 
0

>  <PUBCHEM_BOND_DEF_STEREO_COUNT>  (1) 
0

>  <PUBCHEM_BOND_UDEF_STEREO_COUNT>  (1) 
0

>  <PUBCHEM_ISOTOPIC_ATOM_COUNT>  (1) 
0

>  <PUBCHEM_COMPONENT_COUNT>  (1) 
1

>  <PUBCHEM_CACTVS_TAUTO_COUNT>  (1) 
2

>  <PUBCHEM_CONFORMER_ID>  (1) 
00007A0000000001

>  <PUBCHEM_MMFF94_ENERGY>  (1) 
28.0249

>  <PUBCHEM_FEATURE_SELFOVERLAP>  (1) 
25.372

>  <PUBCHEM_SHAPE_FINGERPRINT>  (1) 
10618630 7 18408323289228964957
11615756 256 9151172073399461523
11769659 78 18115868495451913064
12006461 19 18410854364969634130
122479 349 10303807704940706884
12400797 245 18271802488016546700
12500047 106 17974561395169502604
12633257 1 17846509092891150865
12824470 246 18412544279934224202
13103583 49 18130517339860131315
13764800 53 10807936007227983797
1420 369 18410012173765809723
14251731 5 18410855460165526835
15163728 17 10662670790329967866
15239191 94 18408324371523741778
17134986 127 9078854981832703369
17834072 32 9727626224254014826
1798214 55 9871479724494047243
19107657 9 9367350318806467951
20281475 54 18410296912537642773
20291156 8 18408321085968790411
20361792 2 17821734957103200325
20621476 51 18048297973533421810
20621476 91 18263619846001512346
20645477 70 17971464350613880703
20871998 22 18337950194455431205
21501925 9 18199466743823546541
21524375 3 9583518672608866829
21713013 43 15502954020450795195
22485316 2 18408603651724795340
22620623 9 16806717374616249014
22646028 28 18410294756870170607
22926399 65 8358251553725805902
235170 7 15502378915297548130
23559900 14 18337660915850119880
24859131 72 18272086054711032063
27216 239 11023815211062469959
568465 68 17274811403563446328
5902787 121 18269836428614943976
76465 3 18409441466937713666
7808743 9 9727341442120798838
8199 26 9655567526456763242

>  <PUBCHEM_SHAPE_MULTIPOLES>  (1) 
291.97
8.38
2.56
1.03
3.62
0.67
-0.04
7.16
1.41
0.21
0.21
-0.24
-0.04
-0.45

>  <PUBCHEM_SHAPE_SELFOVERLAP>  (1) 
590.41

>  <PUBCHEM_SHAPE_VOLUME>  (1) 
169.2

>  <PUBCHEM_COORDINATE_TYPE>  (1) 
2
5
10

$$$$
