31242
     RDKit          3D

  9  9  0  0  0  0  0  0  0  0999 V2000
   -3.1473    0.0000    0.2784 O   0  0  0  0  0  0  0  0  0  0  0  0
    0.9642   -0.0003   -0.2926 C   0  0  0  0  0  0  0  0  0  0  0  0
    2.4412    0.0000   -0.4975 C   0  0  0  0  0  0  0  0  0  0  0  0
    0.2730   -1.2082   -0.1963 C   0  0  0  0  0  0  0  0  0  0  0  0
    0.2737    1.2079   -0.1965 C   0  0  0  0  0  0  0  0  0  0  0  0
    3.2106   -0.0001    0.8210 C   0  0  0  0  0  0  0  0  0  0  0  0
   -1.1086   -1.2078   -0.0043 C   0  0  0  0  0  0  0  0  0  0  0  0
   -1.1078    1.2081   -0.0042 C   0  0  0  0  0  0  0  0  0  0  0  0
   -1.7990    0.0003    0.0918 C   0  0  0  0  0  0  0  0  0  0  0  0
  1  9  1  0
  2  3  1  0
  2  4  2  0
  2  5  1  0
  3  6  1  0
  4  7  1  0
  5  8  2  0
  7  9  2  0
  8  9  1  0
M  END
>  <PUBCHEM_COMPOUND_CID>  (1) 
31242

>  <PUBCHEM_CONFORMER_RMSD>  (1) 
0.4

>  <PUBCHEM_CONFORMER_DIVERSEORDER>  (1) 
1
2

>  <PUBCHEM_MMFF94_PARTIAL_CHARGES>  (1) 
13
1 -0.53
12 0.15
13 0.15
17 0.15
18 0.15
19 0.45
2 -0.14
3 0.14
4 -0.15
5 -0.15
7 -0.15
8 -0.15
9 0.08

>  <PUBCHEM_EFFECTIVE_ROTOR_COUNT>  (1) 
1

>  <PUBCHEM_PHARMACOPHORE_FEATURES>  (1) 
3
1 1 donor
1 6 hydrophobe
6 2 4 5 7 8 9 rings

>  <PUBCHEM_HEAVY_ATOM_COUNT>  (1) 
9

>  <PUBCHEM_ATOM_DEF_STEREO_COUNT>  (1) 
0

>  <PUBCHEM_ATOM_UDEF_STEREO_COUNT>  (1) 
0

>  <PUBCHEM_BOND_DEF_STEREO_COUNT>  (1) 
0

>  <PUBCHEM_BOND_UDEF_STEREO_COUNT>  (1) 
0

>  <PUBCHEM_ISOTOPIC_ATOM_COUNT>  (1) 
0

>  <PUBCHEM_COMPONENT_COUNT>  (1) 
1

>  <PUBCHEM_CACTVS_TAUTO_COUNT>  (1) 
2

>  <PUBCHEM_CONFORMER_ID>  (1) 
00007A0A00000001

>  <PUBCHEM_MMFF94_ENERGY>  (1) 
17.5189

>  <PUBCHEM_FEATURE_SELFOVERLAP>  (1) 
15.223

>  <PUBCHEM_SHAPE_FINGERPRINT>  (1) 
10857977 72 18411978083043588008
14325111 11 18411420579187890604
15310529 11 16660363701109344684
16945 1 18410579482751788167
20645464 45 17917705812500984442
20871998 184 18129946817858430462
21040471 1 18339088077083191756
23235685 24 18412262826448193285
23402655 69 18195511607821488205
23552423 10 17826800540089152916
2748010 2 18050013194565755159
29004967 10 18334306356911859249
369184 2 18341040870116845578
5084963 1 18270410390600527828

>  <PUBCHEM_SHAPE_MULTIPOLES>  (1) 
179.35
4.05
1.28
0.74
1.09
0
0.03
0
0.87
-0.32
-0.06
0.31
0
0

>  <PUBCHEM_SHAPE_SELFOVERLAP>  (1) 
366.397

>  <PUBCHEM_SHAPE_VOLUME>  (1) 
105

>  <PUBCHEM_COORDINATE_TYPE>  (1) 
2
5
10

$$$$
