31240
     RDKit          3D

  9  8  0  0  1  0  0  0  0  0999 V2000
   -1.2537   -2.7872   -0.2203 Cl  0  0  0  0  0  0  0  0  0  0  0  0
   -1.3508   -0.0228   -0.2416 C   0  0  0  0  0  0  0  0  0  0  0  0
    0.0804    0.0311   -0.8266 C   0  0  0  0  0  0  0  0  0  0  0  0
    1.2060    0.0966    0.2108 C   0  0  0  0  0  0  0  0  0  0  0  0
   -1.7307    1.2362    0.5696 C   0  0  0  0  0  0  0  0  0  0  0  0
   -1.6138   -1.2648    0.6299 C   0  0  0  0  0  0  0  0  0  0  0  0
    2.5788    0.0743   -0.4651 C   0  0  0  0  0  0  0  0  0  0  0  0
   -1.6199    2.5363   -0.2141 C   0  0  0  0  0  0  0  0  0  0  0  0
    3.7038    0.1002    0.5575 C   0  0  0  0  0  0  0  0  0  0  0  0
  1  6  1  0
  2  3  1  0
  2  5  1  0
  2  6  1  0
  3  4  1  0
  4  7  1  0
  5  8  1  0
  7  9  1  0
M  END
>  <PUBCHEM_COMPOUND_CID>  (1) 
31240

>  <PUBCHEM_CONFORMER_RMSD>  (1) 
0.6

>  <PUBCHEM_CONFORMER_DIVERSEORDER>  (1) 
1
94
88
96
50
98
10
100
97
68
16
85
80
48
87
42
3
103
56
15
57
91
2
37
102
8
9
58
67
24
18
90
43
66
101
81
41
26
53
71
93
70
69
38
40
5
52
86
46
95
12
7
49
47
79
61
73
84
59
63
28
31
74
4
33
92
76
45
25
82
77
14
32
44
72
99
60
83
21
65
20
34
22
36
17
62
13
35
30
89
29
64
39
23
27
55
51
6
54
19
11
75
78

>  <PUBCHEM_MMFF94_PARTIAL_CHARGES>  (1) 
2
1 -0.29
6 0.29

>  <PUBCHEM_EFFECTIVE_ROTOR_COUNT>  (1) 
5

>  <PUBCHEM_PHARMACOPHORE_FEATURES>  (1) 
3
1 8 hydrophobe
1 9 hydrophobe
5 2 3 4 5 7 hydrophobe

>  <PUBCHEM_HEAVY_ATOM_COUNT>  (1) 
9

>  <PUBCHEM_ATOM_DEF_STEREO_COUNT>  (1) 
0

>  <PUBCHEM_ATOM_UDEF_STEREO_COUNT>  (1) 
1

>  <PUBCHEM_BOND_DEF_STEREO_COUNT>  (1) 
0

>  <PUBCHEM_BOND_UDEF_STEREO_COUNT>  (1) 
0

>  <PUBCHEM_ISOTOPIC_ATOM_COUNT>  (1) 
0

>  <PUBCHEM_COMPONENT_COUNT>  (1) 
1

>  <PUBCHEM_CACTVS_TAUTO_COUNT>  (1) 
1

>  <PUBCHEM_CONFORMER_ID>  (1) 
00007A0800000001

>  <PUBCHEM_MMFF94_ENERGY>  (1) 
3.9742

>  <PUBCHEM_FEATURE_SELFOVERLAP>  (1) 
15.226

>  <PUBCHEM_SHAPE_FINGERPRINT>  (1) 
1 1 17762057640475849973
12716758 59 18341900632385844938
12932764 1 17489305321948232318
18342897 69 18336262457165497514
19021347 4 18266179431117899995
20645464 45 18201442424305228766
20653085 51 16055484842299141081
20871998 184 18339653312117742799
21040471 1 18193287299043210301
23211744 41 17985555454958693117
23402539 116 18343009013358490439
23552423 10 17042335402436000423
23552449 1 18339924938576019317
305870 269 17976819783420347456
3248919 1 18409162212822721764
54338 74 18336825398386559357
81228 2 18340494464324882923

>  <PUBCHEM_SHAPE_MULTIPOLES>  (1) 
187.09
4.32
2.61
0.86
5.81
0.52
0.01
-0.33
-0.75
-2.89
0.14
0.04
0.01
0.02

>  <PUBCHEM_SHAPE_SELFOVERLAP>  (1) 
321.272

>  <PUBCHEM_SHAPE_VOLUME>  (1) 
125.5

>  <PUBCHEM_COORDINATE_TYPE>  (1) 
2
5
10

$$$$
