31261
     RDKit          3D

  7  6  0  0  0  0  0  0  0  0999 V2000
   -1.3197   -1.2209    0.0368 O   0  0  0  0  0  0  0  0  0  0  0  0
    1.3189   -1.2208   -0.0383 O   0  0  0  0  0  0  0  0  0  0  0  0
    0.0000    0.8033    0.0172 C   0  0  0  0  0  0  0  0  0  0  0  0
   -1.2888    0.0079   -0.0028 C   0  0  0  0  0  0  0  0  0  0  0  0
    1.2890    0.0077    0.0065 C   0  0  0  0  0  0  0  0  0  0  0  0
   -2.5635    0.8117   -0.0267 C   0  0  0  0  0  0  0  0  0  0  0  0
    2.5641    0.8112    0.0073 C   0  0  0  0  0  0  0  0  0  0  0  0
  1  4  2  0
  2  5  2  0
  3  4  1  0
  3  5  1  0
  4  6  1  0
  5  7  1  0
M  END
>  <PUBCHEM_COMPOUND_CID>  (1) 
31261

>  <PUBCHEM_CONFORMER_RMSD>  (1) 
0.4

>  <PUBCHEM_CONFORMER_DIVERSEORDER>  (1) 
1
9
10
22
12
13
8
3
25
2
14
15
26
20
24
4
23
19
17
5
21
6
18
11
16
7

>  <PUBCHEM_MMFF94_PARTIAL_CHARGES>  (1) 
7
1 -0.57
2 -0.57
3 0.12
4 0.45
5 0.45
6 0.06
7 0.06

>  <PUBCHEM_EFFECTIVE_ROTOR_COUNT>  (1) 
2

>  <PUBCHEM_PHARMACOPHORE_FEATURES>  (1) 
3
1 1 acceptor
1 2 acceptor
1 3 anion

>  <PUBCHEM_HEAVY_ATOM_COUNT>  (1) 
7

>  <PUBCHEM_ATOM_DEF_STEREO_COUNT>  (1) 
0

>  <PUBCHEM_ATOM_UDEF_STEREO_COUNT>  (1) 
0

>  <PUBCHEM_BOND_DEF_STEREO_COUNT>  (1) 
0

>  <PUBCHEM_BOND_UDEF_STEREO_COUNT>  (1) 
0

>  <PUBCHEM_ISOTOPIC_ATOM_COUNT>  (1) 
0

>  <PUBCHEM_COMPONENT_COUNT>  (1) 
1

>  <PUBCHEM_CACTVS_TAUTO_COUNT>  (1) 
5

>  <PUBCHEM_CONFORMER_ID>  (1) 
00007A1D00000001

>  <PUBCHEM_MMFF94_ENERGY>  (1) 
4.9494

>  <PUBCHEM_FEATURE_SELFOVERLAP>  (1) 
15.232

>  <PUBCHEM_SHAPE_FINGERPRINT>  (1) 
14325111 11 18410573942782280229
14390081 3 18272647969545796776
16714656 1 18335422348450696653
20096714 4 18410013225663012329
21040471 1 18410293605401976449
23552423 10 18333734593675295798
24536 1 18338504296485624161
29004967 10 17821737125686871968
5460574 1 9223230749821798053

>  <PUBCHEM_SHAPE_MULTIPOLES>  (1) 
132.32
3.54
1.21
0.59
0
0.25
0
-0.91
0.02
0
0
0
-0.04
0.02

>  <PUBCHEM_SHAPE_SELFOVERLAP>  (1) 
242.302

>  <PUBCHEM_SHAPE_VOLUME>  (1) 
84.2

>  <PUBCHEM_COORDINATE_TYPE>  (1) 
2
5
10

$$$$
