31263
     RDKit          3D

  9  8  0  0  0  0  0  0  0  0999 V2000
   -0.0001    0.6157   -0.0052 O   0  0  0  0  0  0  0  0  0  0  0  0
    1.2997   -1.3084   -0.0017 O   0  0  0  0  0  0  0  0  0  0  0  0
   -1.2997   -1.3085   -0.0034 O   0  0  0  0  0  0  0  0  0  0  0  0
    2.3197    0.8933   -0.0057 C   0  0  0  0  0  0  0  0  0  0  0  0
   -2.3197    0.8932   -0.0058 C   0  0  0  0  0  0  0  0  0  0  0  0
    1.1718   -0.0920   -0.0035 C   0  0  0  0  0  0  0  0  0  0  0  0
   -1.1718   -0.0920   -0.0050 C   0  0  0  0  0  0  0  0  0  0  0  0
    3.6706    0.1994    0.0146 C   0  0  0  0  0  0  0  0  0  0  0  0
   -3.6706    0.1994    0.0157 C   0  0  0  0  0  0  0  0  0  0  0  0
  1  6  1  0
  1  7  1  0
  2  6  2  0
  3  7  2  0
  4  6  1  0
  4  8  1  0
  5  7  1  0
  5  9  1  0
M  END
>  <PUBCHEM_COMPOUND_CID>  (1) 
31263

>  <PUBCHEM_CONFORMER_RMSD>  (1) 
0.6

>  <PUBCHEM_CONFORMER_DIVERSEORDER>  (1) 
1
17
15
9
4
6
13
12
2
7
16
19
11
3
18
14
10
8
5

>  <PUBCHEM_MMFF94_PARTIAL_CHARGES>  (1) 
7
1 -0.3
2 -0.57
3 -0.57
4 0.06
5 0.06
6 0.66
7 0.66

>  <PUBCHEM_EFFECTIVE_ROTOR_COUNT>  (1) 
4

>  <PUBCHEM_PHARMACOPHORE_FEATURES>  (1) 
4
1 2 acceptor
1 3 acceptor
1 8 hydrophobe
1 9 hydrophobe

>  <PUBCHEM_HEAVY_ATOM_COUNT>  (1) 
9

>  <PUBCHEM_ATOM_DEF_STEREO_COUNT>  (1) 
0

>  <PUBCHEM_ATOM_UDEF_STEREO_COUNT>  (1) 
0

>  <PUBCHEM_BOND_DEF_STEREO_COUNT>  (1) 
0

>  <PUBCHEM_BOND_UDEF_STEREO_COUNT>  (1) 
0

>  <PUBCHEM_ISOTOPIC_ATOM_COUNT>  (1) 
0

>  <PUBCHEM_COMPONENT_COUNT>  (1) 
1

>  <PUBCHEM_CACTVS_TAUTO_COUNT>  (1) 
1

>  <PUBCHEM_CONFORMER_ID>  (1) 
00007A1F00000001

>  <PUBCHEM_MMFF94_ENERGY>  (1) 
3.9607

>  <PUBCHEM_FEATURE_SELFOVERLAP>  (1) 
20.309

>  <PUBCHEM_SHAPE_FINGERPRINT>  (1) 
11062470 55 13398912024855319793
13380535 76 18410855464423616303
14325111 11 18410856521433580741
14390081 3 18343862225248546657
170605 34 18333732411926601730
21040471 1 18410855464428481807
21293036 1 16056878048064264720
23235685 24 18410849966865068160
23402655 69 18270389508918265765
29004967 10 14923941236876227316
5460574 1 9295287240116382469

>  <PUBCHEM_SHAPE_MULTIPOLES>  (1) 
167.61
5.85
1.12
0.58
0
0.24
0
-1.08
-0.04
0
0
0
-0.02
0

>  <PUBCHEM_SHAPE_SELFOVERLAP>  (1) 
313.364

>  <PUBCHEM_SHAPE_VOLUME>  (1) 
105

>  <PUBCHEM_COORDINATE_TYPE>  (1) 
2
5
10

$$$$
