31262
     RDKit          3D

 12 12  0  0  0  0  0  0  0  0999 V2000
   -3.2071    1.7567    0.8061 O   0  0  0  0  0  0  0  0  0  0  0  0
    3.2073    1.7565    0.8061 O   0  0  0  0  0  0  0  0  0  0  0  0
   -2.4193    0.1965   -0.7736 N   0  0  0  0  0  0  0  0  0  0  0  0
    2.4193    0.1965   -0.7737 N   0  0  0  0  0  0  0  0  0  0  0  0
   -1.2080   -0.3908   -0.3947 C   0  0  0  0  0  0  0  0  0  0  0  0
    1.2079   -0.3908   -0.3947 C   0  0  0  0  0  0  0  0  0  0  0  0
    0.0000    0.1952   -0.7728 C   0  0  0  0  0  0  0  0  0  0  0  0
   -1.2081   -1.5629    0.3616 C   0  0  0  0  0  0  0  0  0  0  0  0
    1.2079   -1.5629    0.3615 C   0  0  0  0  0  0  0  0  0  0  0  0
   -0.0001   -2.1489    0.7396 C   0  0  0  0  0  0  0  0  0  0  0  0
   -2.8134    0.9774    0.0172 C   0  0  0  0  0  0  0  0  0  0  0  0
    2.8135    0.9773    0.0172 C   0  0  0  0  0  0  0  0  0  0  0  0
  1 11  2  0
  2 12  2  0
  3  5  1  0
  3 11  2  0
  4  6  1  0
  4 12  2  0
  5  7  2  0
  5  8  1  0
  6  7  1  0
  6  9  2  0
  8 10  2  0
  9 10  1  0
M  END
>  <PUBCHEM_COMPOUND_CID>  (1) 
31262

>  <PUBCHEM_CONFORMER_RMSD>  (1) 
0.6

>  <PUBCHEM_CONFORMER_DIVERSEORDER>  (1) 
1
10
8
2
3
9
7
5
4
6

>  <PUBCHEM_MMFF94_PARTIAL_CHARGES>  (1) 
16
1 -0.49
10 -0.15
11 0.79
12 0.79
13 0.15
14 0.15
15 0.15
16 0.15
2 -0.49
3 -0.48
4 -0.48
5 0.18
6 0.18
7 -0.15
8 -0.15
9 -0.15

>  <PUBCHEM_EFFECTIVE_ROTOR_COUNT>  (1) 
2

>  <PUBCHEM_PHARMACOPHORE_FEATURES>  (1) 
3
1 3 acceptor
1 4 acceptor
6 5 6 7 8 9 10 rings

>  <PUBCHEM_HEAVY_ATOM_COUNT>  (1) 
12

>  <PUBCHEM_ATOM_DEF_STEREO_COUNT>  (1) 
0

>  <PUBCHEM_ATOM_UDEF_STEREO_COUNT>  (1) 
0

>  <PUBCHEM_BOND_DEF_STEREO_COUNT>  (1) 
0

>  <PUBCHEM_BOND_UDEF_STEREO_COUNT>  (1) 
0

>  <PUBCHEM_ISOTOPIC_ATOM_COUNT>  (1) 
0

>  <PUBCHEM_COMPONENT_COUNT>  (1) 
1

>  <PUBCHEM_CACTVS_TAUTO_COUNT>  (1) 
1

>  <PUBCHEM_CONFORMER_ID>  (1) 
00007A1E00000001

>  <PUBCHEM_MMFF94_ENERGY>  (1) 
28.8569

>  <PUBCHEM_FEATURE_SELFOVERLAP>  (1) 
15.223

>  <PUBCHEM_SHAPE_FINGERPRINT>  (1) 
10857977 72 16298967346290376503
12202030 40 11531025439598899772
13380535 21 18187942654688617486
13764800 53 18336275638093010121
13839132 238 18340209686555128046
14390081 3 18342455958498048381
15775835 57 18341336582926343457
16945 1 17312821575980152951
17357990 137 17485093985923143441
18186145 218 18411421669972486021
19837323 101 18339926033750774079
20510252 161 18048600609807867466
20653085 51 17917723382779597839
21040471 1 18186525427234392462
21524375 3 18410287012664262934
23402539 116 18122610919327841255
23500284 214 18340491152847224936
2748010 2 18186809071027396583
276578 36 18189065225879254410
305870 269 18261665978740457576
7364860 26 18196370316842057862
81228 2 17826804925124596739

>  <PUBCHEM_SHAPE_MULTIPOLES>  (1) 
225.25
4.72
2.06
0.91
0
0.53
-0.01
-3.76
-0.72
0
-0.74
0
-0.11
0

>  <PUBCHEM_SHAPE_SELFOVERLAP>  (1) 
480.767

>  <PUBCHEM_SHAPE_VOLUME>  (1) 
122.7

>  <PUBCHEM_COORDINATE_TYPE>  (1) 
2
5
10

$$$$
