3127
     RDKit          3D

 11 11  0  0  1  0  0  0  0  0999 V2000
    4.1387    0.2762   -0.4646 Cl  0  0  0  0  0  0  0  0  0  0  0  0
   -4.0133   -0.3673   -0.0350 N   0  0  0  0  0  0  0  0  0  0  0  0
   -2.6213   -0.1126   -0.4179 C   0  0  0  0  0  0  0  0  0  0  0  0
   -1.6903   -0.4738    0.7550 C   0  0  0  0  0  0  0  0  0  0  0  0
   -0.2310   -0.2857    0.4481 C   0  0  0  0  0  0  0  0  0  0  0  0
   -2.4994    1.3522   -0.8378 C   0  0  0  0  0  0  0  0  0  0  0  0
    0.4979   -1.3382   -0.0907 C   0  0  0  0  0  0  0  0  0  0  0  0
    0.3722    0.9384    0.7084 C   0  0  0  0  0  0  0  0  0  0  0  0
    1.8526   -1.1638   -0.3741 C   0  0  0  0  0  0  0  0  0  0  0  0
    1.7268    1.1127    0.4249 C   0  0  0  0  0  0  0  0  0  0  0  0
    2.4670    0.0617   -0.1163 C   0  0  0  0  0  0  0  0  0  0  0  0
  1 11  1  0
  2  3  1  0
  3  4  1  0
  3  6  1  0
  4  5  1  0
  5  7  2  0
  5  8  1  0
  7  9  1  0
  8 10  2  0
  9 11  2  0
 10 11  1  0
M  END
>  <PUBCHEM_COMPOUND_CID>  (1) 
3127

>  <PUBCHEM_CONFORMER_RMSD>  (1) 
0.4

>  <PUBCHEM_CONFORMER_DIVERSEORDER>  (1) 
2
7
5
4
1
8
6
3

>  <PUBCHEM_MMFF94_PARTIAL_CHARGES>  (1) 
16
1 -0.18
10 -0.15
11 0.18
18 0.15
19 0.15
2 -0.99
20 0.36
21 0.36
22 0.15
23 0.15
3 0.27
4 0.14
5 -0.14
7 -0.15
8 -0.15
9 -0.15

>  <PUBCHEM_EFFECTIVE_ROTOR_COUNT>  (1) 
2

>  <PUBCHEM_PHARMACOPHORE_FEATURES>  (1) 
3
1 2 cation
1 2 donor
6 5 7 8 9 10 11 rings

>  <PUBCHEM_HEAVY_ATOM_COUNT>  (1) 
11

>  <PUBCHEM_ATOM_DEF_STEREO_COUNT>  (1) 
0

>  <PUBCHEM_ATOM_UDEF_STEREO_COUNT>  (1) 
1

>  <PUBCHEM_BOND_DEF_STEREO_COUNT>  (1) 
0

>  <PUBCHEM_BOND_UDEF_STEREO_COUNT>  (1) 
0

>  <PUBCHEM_ISOTOPIC_ATOM_COUNT>  (1) 
0

>  <PUBCHEM_COMPONENT_COUNT>  (1) 
1

>  <PUBCHEM_CACTVS_TAUTO_COUNT>  (1) 
1

>  <PUBCHEM_CONFORMER_ID>  (1) 
00000C3700000002

>  <PUBCHEM_MMFF94_ENERGY>  (1) 
15.7124

>  <PUBCHEM_FEATURE_SELFOVERLAP>  (1) 
15.223

>  <PUBCHEM_SHAPE_FINGERPRINT>  (1) 
11062470 55 18113621196473855634
11401426 45 18202559588475379634
11769659 78 14117525290214394580
12138202 97 18040715904493244779
12251169 10 8646766707610271245
12897270 3 18412820283396964317
12932764 1 18272640256021591543
13839132 238 17750227019978426365
14325111 11 18334856095445670676
14911166 2 18272660073332920404
14993402 34 17418095420883300334
15775835 57 18343020008105541967
16945 1 18131073736041332434
17844478 74 18261402152280257937
18186145 218 18060134362334765440
20201158 50 18411702079823687235
20645477 70 18271241600138401615
21119208 17 17132116840129045565
21293036 1 18343587356253017766
21501502 16 18190737531599457697
22485316 2 12535346779343312580
23402539 116 17749101227567293119
23402655 69 18341887451447880845
2748010 2 17912650404065345562
305870 269 16588856859307141995
528886 8 18272367585553855506

>  <PUBCHEM_SHAPE_MULTIPOLES>  (1) 
223.26
6.11
1.31
0.86
0.38
0.04
-0.01
0.55
1.43
-0.04
0.08
0.13
0.11
0.42

>  <PUBCHEM_SHAPE_SELFOVERLAP>  (1) 
443.506

>  <PUBCHEM_SHAPE_VOLUME>  (1) 
133.9

>  <PUBCHEM_COORDINATE_TYPE>  (1) 
2
5
10

$$$$
