31270
     RDKit          3D

 21 20  0  0  1  0  0  0  0  0999 V2000
   -6.7268    1.5015   -1.2866 O   0  0  0  0  0  0  0  0  0  0  0  0
   -9.4130   -1.7284   -0.8186 O   0  0  0  0  0  0  0  0  0  0  0  0
   -9.1581    0.9047    0.1618 N   0  0  0  0  0  0  0  0  0  0  0  0
    3.1954    0.4046    0.2393 C   0  0  0  0  0  0  0  0  0  0  0  0
    4.4842   -0.4186    0.2951 C   0  0  0  0  0  0  0  0  0  0  0  0
    1.9631   -0.4814    0.4416 C   0  0  0  0  0  0  0  0  0  0  0  0
    5.7462    0.4065    0.0273 C   0  0  0  0  0  0  0  0  0  0  0  0
    0.6761    0.3458    0.4182 C   0  0  0  0  0  0  0  0  0  0  0  0
    7.0278   -0.4295    0.0101 C   0  0  0  0  0  0  0  0  0  0  0  0
   -0.5892   -0.4887    0.6388 C   0  0  0  0  0  0  0  0  0  0  0  0
    8.2564    0.4457   -0.2485 C   0  0  0  0  0  0  0  0  0  0  0  0
   -1.9126    0.2825    0.6035 C   0  0  0  0  0  0  0  0  0  0  0  0
    9.5348   -0.3923   -0.3039 C   0  0  0  0  0  0  0  0  0  0  0  0
   -3.1334   -0.5928    0.8923 C   0  0  0  0  0  0  0  0  0  0  0  0
   10.7657    0.4856   -0.5287 C   0  0  0  0  0  0  0  0  0  0  0  0
   -4.3988    0.2141    0.8511 C   0  0  0  0  0  0  0  0  0  0  0  0
   -6.7151    0.8519   -0.0090 C   0  0  0  0  0  0  0  0  0  0  0  0
   -7.9999    0.0007    0.1340 C   0  0  0  0  0  0  0  0  0  0  0  0
   -5.4482    0.0436    0.0318 C   0  0  0  0  0  0  0  0  0  0  0  0
   12.0420   -0.3401   -0.5509 C   0  0  0  0  0  0  0  0  0  0  0  0
   -8.1966   -1.0155   -0.9986 C   0  0  0  0  0  0  0  0  0  0  0  0
  1 17  1  0
  2 21  1  0
  3 18  1  0
  4  5  1  0
  4  6  1  0
  5  7  1  0
  6  8  1  0
  7  9  1  0
  8 10  1  0
  9 11  1  0
 10 12  1  0
 11 13  1  0
 12 14  1  0
 13 15  1  0
 14 16  1  0
 15 20  1  0
 16 19  2  0
 17 18  1  0
 17 19  1  0
 18 21  1  0
M  END
>  <PUBCHEM_COMPOUND_CID>  (1) 
31270

>  <PUBCHEM_CONFORMER_RMSD>  (1) 
1.4

>  <PUBCHEM_CONFORMER_DIVERSEORDER>  (1) 
1
87
46
32
53
25
10
21
19
72
35
43
13
60
94
31
17
58
44
67
47
27
8
37
45
54
95
30
56
63
49
14
64
55
15
34
92
11
73
20
88
18
82
93
3
61
7
76
74
85
5
66
41
65
38
59
6
86
78
71
22
40
80
91
42
84
81
68
51
9
16
24
52
69
75
29
26
90
83
12
62
33
96
77
89
70
28
2
97
57
48
79
39
4
36
50
23

>  <PUBCHEM_MMFF94_PARTIAL_CHARGES>  (1) 
15
1 -0.68
14 0.14
16 -0.29
17 0.42
18 0.27
19 -0.29
2 -0.68
21 0.28
3 -0.99
46 0.15
49 0.15
55 0.36
56 0.36
57 0.4
58 0.4

>  <PUBCHEM_EFFECTIVE_ROTOR_COUNT>  (1) 
15

>  <PUBCHEM_PHARMACOPHORE_FEATURES>  (1) 
7
1 1 acceptor
1 1 donor
1 2 acceptor
1 2 donor
1 20 hydrophobe
1 3 cation
1 3 donor

>  <PUBCHEM_HEAVY_ATOM_COUNT>  (1) 
21

>  <PUBCHEM_ATOM_DEF_STEREO_COUNT>  (1) 
2

>  <PUBCHEM_ATOM_UDEF_STEREO_COUNT>  (1) 
0

>  <PUBCHEM_BOND_DEF_STEREO_COUNT>  (1) 
0

>  <PUBCHEM_BOND_UDEF_STEREO_COUNT>  (1) 
1

>  <PUBCHEM_ISOTOPIC_ATOM_COUNT>  (1) 
0

>  <PUBCHEM_COMPONENT_COUNT>  (1) 
1

>  <PUBCHEM_CACTVS_TAUTO_COUNT>  (1) 
1

>  <PUBCHEM_CONFORMER_ID>  (1) 
00007A2600000001

>  <PUBCHEM_MMFF94_ENERGY>  (1) 
4.6737

>  <PUBCHEM_FEATURE_SELFOVERLAP>  (1) 
35.527

>  <PUBCHEM_SHAPE_FINGERPRINT>  (1) 
12498461 61 11383820594739570285
14123256 10 16630808807290840173
14202775 3 17275111626526767774
14251764 18 17385718085127436953
14251764 46 18410857663451659410
14251920 1 11671781560250137281
14344974 52 18272649095755305520
15247644 1 16056883533523480102
15510794 2 18272375274220912390
155225 1 16588023502528960621
1818759 1 15626226818607464878
21095086 128 15051736370504884212
21150785 3 18413951689815812459
21362267 2 16153989175131754244
21362267 20 12535620571036229404
232437 2 17988925570173138390
23528940 14 13829839259125315501
23581129 1 18409450284278485240
246663 6 14548738408582817656
335352 9 18259985989814430690
33684 2 17988926665642798696
57676310 188 18411696574504808767
59521270 166 17131554955823749569
636775 8 17988924509786026727
67123 10 18410855468723371138
8209 1 18409167705495166592

>  <PUBCHEM_SHAPE_MULTIPOLES>  (1) 
415.45
46.83
1.03
0.91
54.97
0.1
0.07
2.63
14.99
-2.08
0.22
-1
0.01
-0.43

>  <PUBCHEM_SHAPE_SELFOVERLAP>  (1) 
760.576

>  <PUBCHEM_SHAPE_VOLUME>  (1) 
263.3

>  <PUBCHEM_COORDINATE_TYPE>  (1) 
2
5
10

$$$$
