3128
     RDKit          3D

 12 12  0  0  1  0  0  0  0  0999 V2000
   -4.5126   -0.2482    0.6677 Cl  0  0  0  0  0  0  0  0  0  0  0  0
    3.5946    0.3337   -0.2943 N   0  0  0  0  0  0  0  0  0  0  0  0
    2.2276    0.0962    0.1784 C   0  0  0  0  0  0  0  0  0  0  0  0
    1.2285    0.4433   -0.9405 C   0  0  0  0  0  0  0  0  0  0  0  0
   -0.2160    0.2695   -0.5368 C   0  0  0  0  0  0  0  0  0  0  0  0
    2.1203   -1.3611    0.6280 C   0  0  0  0  0  0  0  0  0  0  0  0
   -0.8346   -0.9541   -0.7373 C   0  0  0  0  0  0  0  0  0  0  0  0
   -0.8962    1.3367    0.0275 C   0  0  0  0  0  0  0  0  0  0  0  0
    4.5547    0.0725    0.7650 C   0  0  0  0  0  0  0  0  0  0  0  0
   -2.1690   -1.1148   -0.3640 C   0  0  0  0  0  0  0  0  0  0  0  0
   -2.2305    1.1760    0.4011 C   0  0  0  0  0  0  0  0  0  0  0  0
   -2.8669   -0.0497    0.2052 C   0  0  0  0  0  0  0  0  0  0  0  0
  1 12  1  0
  2  3  1  0
  2  9  1  0
  3  4  1  0
  3  6  1  0
  4  5  1  0
  5  7  2  0
  5  8  1  0
  7 10  1  0
  8 11  2  0
 10 12  2  0
 11 12  1  0
M  END
>  <PUBCHEM_COMPOUND_CID>  (1) 
3128

>  <PUBCHEM_CONFORMER_RMSD>  (1) 
0.6

>  <PUBCHEM_CONFORMER_DIVERSEORDER>  (1) 
1
7
10
2
3
6
8
9
4
5

>  <PUBCHEM_MMFF94_PARTIAL_CHARGES>  (1) 
16
1 -0.18
10 -0.15
11 -0.15
12 0.18
19 0.36
2 -0.9
20 0.15
21 0.15
25 0.15
26 0.15
3 0.27
4 0.14
5 -0.14
7 -0.15
8 -0.15
9 0.27

>  <PUBCHEM_EFFECTIVE_ROTOR_COUNT>  (1) 
3

>  <PUBCHEM_PHARMACOPHORE_FEATURES>  (1) 
3
1 2 cation
1 2 donor
6 5 7 8 10 11 12 rings

>  <PUBCHEM_HEAVY_ATOM_COUNT>  (1) 
12

>  <PUBCHEM_ATOM_DEF_STEREO_COUNT>  (1) 
0

>  <PUBCHEM_ATOM_UDEF_STEREO_COUNT>  (1) 
1

>  <PUBCHEM_BOND_DEF_STEREO_COUNT>  (1) 
0

>  <PUBCHEM_BOND_UDEF_STEREO_COUNT>  (1) 
0

>  <PUBCHEM_ISOTOPIC_ATOM_COUNT>  (1) 
0

>  <PUBCHEM_COMPONENT_COUNT>  (1) 
1

>  <PUBCHEM_CACTVS_TAUTO_COUNT>  (1) 
1

>  <PUBCHEM_CONFORMER_ID>  (1) 
00000C3800000001

>  <PUBCHEM_MMFF94_ENERGY>  (1) 
22.4

>  <PUBCHEM_FEATURE_SELFOVERLAP>  (1) 
15.223

>  <PUBCHEM_SHAPE_FINGERPRINT>  (1) 
11031198 65 14764635204883468780
11132069 177 18202565089806311389
11401426 45 18273213097886056413
12119455 92 16272209665349660149
12251169 10 18342739632461097665
12932764 1 17774990280978137806
13024252 1 15647050448083257861
13581323 91 18413109454686005125
14144814 61 18411138000272586112
14252887 29 18339936947294269746
14943859 89 14045741525604851420
15219456 202 17417540102944391364
15375462 189 18335134306437173266
15775835 57 18273215287486038058
16945 1 18272943721526237597
17846911 113 17918277541183020417
187816 3 11097852999724726021
200 152 16009026189695417416
20201158 50 13695586637534225784
20510252 161 17917154892556073145
20528008 55 18130781274295685281
20645464 45 17274824661805774821
20653085 51 12679167328241198795
20871998 184 17988926720908103519
21293036 1 8430316818686042111
22445834 79 18334573508120091674
22485316 2 15719390654847381585
23402539 116 18060412522081962029
26918003 58 17748827431939087571
2748010 2 17983035357634292221
369184 2 18412540990242502117
42 15 18260832591939599315
449060 50 18273494581041277340
53655031 270 18409168813765572771

>  <PUBCHEM_SHAPE_MULTIPOLES>  (1) 
243.84
7.62
1.26
0.92
2.64
0.05
0.03
0.36
-2.59
-0.31
-0.03
0.11
0.05
-0.33

>  <PUBCHEM_SHAPE_SELFOVERLAP>  (1) 
482.099

>  <PUBCHEM_SHAPE_VOLUME>  (1) 
147.2

>  <PUBCHEM_COORDINATE_TYPE>  (1) 
2
5
10

$$$$
