31299
     RDKit          3D

  6  5  0  0  0  0  0  0  0  0999 V2000
   -1.6745   -1.3421   -0.7914 Cl  0  0  0  0  0  0  0  0  0  0  0  0
   -0.9556    1.8393   -0.5821 Cl  0  0  0  0  0  0  0  0  0  0  0  0
   -0.4156   -0.0065    0.1022 Si  0  0  0  0  0  4  0  0  0  0  0  0
   -0.5267   -0.1008    1.9259 C   0  0  0  0  0  0  0  0  0  0  0  0
    1.1998   -0.3238   -0.6211 C   0  0  0  0  0  0  0  0  0  0  0  0
    2.3726   -0.0662   -0.0335 C   0  0  0  0  0  0  0  0  0  0  0  0
  1  3  1  0
  2  3  1  0
  3  4  1  0
  3  5  1  0
  5  6  2  0
M  END
>  <PUBCHEM_COMPOUND_CID>  (1) 
31299

>  <PUBCHEM_CONFORMER_RMSD>  (1) 
0.4

>  <PUBCHEM_CONFORMER_DIVERSEORDER>  (1) 
1
2
3

>  <PUBCHEM_MMFF94_PARTIAL_CHARGES>  (1) 
9
1 -0.37
10 0.15
11 0.15
12 0.15
2 -0.37
3 1.05
4 -0.08
5 -0.38
6 -0.3

>  <PUBCHEM_EFFECTIVE_ROTOR_COUNT>  (1) 
1

>  <PUBCHEM_PHARMACOPHORE_FEATURES>  (1) 
0

>  <PUBCHEM_HEAVY_ATOM_COUNT>  (1) 
6

>  <PUBCHEM_ATOM_DEF_STEREO_COUNT>  (1) 
0

>  <PUBCHEM_ATOM_UDEF_STEREO_COUNT>  (1) 
0

>  <PUBCHEM_BOND_DEF_STEREO_COUNT>  (1) 
0

>  <PUBCHEM_BOND_UDEF_STEREO_COUNT>  (1) 
0

>  <PUBCHEM_ISOTOPIC_ATOM_COUNT>  (1) 
0

>  <PUBCHEM_COMPONENT_COUNT>  (1) 
1

>  <PUBCHEM_CACTVS_TAUTO_COUNT>  (1) 
1

>  <PUBCHEM_CONFORMER_ID>  (1) 
00007A4300000001

>  <PUBCHEM_MMFF94_ENERGY>  (1) 
1.7458

>  <PUBCHEM_FEATURE_SELFOVERLAP>  (1) 
0

>  <PUBCHEM_SHAPE_FINGERPRINT>  (1) 
137420 1 12589870169216082923
16714656 1 18411976932282470629
21040471 1 18050281471018495772
23552449 1 18412536605065387052
24536 1 17313684688687341094
29004967 10 18192712469189253023
5943 1 12749804447850685729
68250623 7 17609781903053262147

>  <PUBCHEM_SHAPE_MULTIPOLES>  (1) 
145.43
2.37
1.53
1.45
1.49
0.6
0.91
-0.48
-0.53
-0.92
-0.5
-0.37
-0.11
-0.06

>  <PUBCHEM_SHAPE_SELFOVERLAP>  (1) 
233.662

>  <PUBCHEM_SHAPE_VOLUME>  (1) 
102.5

>  <PUBCHEM_COORDINATE_TYPE>  (1) 
2
5
10

$$$$
