31306
     RDKit          3D

 21 25  0  0  1  0  0  0  0  0999 V2000
   -3.1208    0.3429    0.9715 O   0  0  0  0  0  0  0  0  0  0  0  0
   -1.3282   -1.5300   -1.4798 O   0  0  0  0  0  0  0  0  0  0  0  0
   -0.1191    2.7395    0.4720 O   0  0  0  0  0  0  0  0  0  0  0  0
    1.8286    0.2797   -1.6117 O   0  0  0  0  0  0  0  0  0  0  0  0
   -3.0249   -2.3551   -0.1461 O   0  0  0  0  0  0  0  0  0  0  0  0
    2.5852    2.2564   -0.7176 O   0  0  0  0  0  0  0  0  0  0  0  0
   -1.1331    0.7059   -0.5239 C   0  0  0  0  0  0  0  0  0  0  0  0
   -2.0549   -0.2133    0.2107 C   0  0  0  0  0  0  0  0  0  0  0  0
   -0.2084    1.3187    0.5954 C   0  0  0  0  0  0  0  0  0  0  0  0
   -1.9282   -0.0452    1.6714 C   0  0  0  0  0  0  0  0  0  0  0  0
   -0.4786   -0.3420   -1.4887 C   0  0  0  0  0  0  0  0  0  0  0  0
   -0.9391    1.0352    1.9480 C   0  0  0  0  0  0  0  0  0  0  0  0
    1.2157    0.7225    0.6081 C   0  0  0  0  0  0  0  0  0  0  0  0
    0.9553   -0.7636   -1.1375 C   0  0  0  0  0  0  0  0  0  0  0  0
    1.2093   -0.7824    0.3624 C   0  0  0  0  0  0  0  0  0  0  0  0
   -2.2250   -1.4876   -0.4530 C   0  0  0  0  0  0  0  0  0  0  0  0
   -1.9243    1.7474   -1.3247 C   0  0  0  0  0  0  0  0  0  0  0  0
    1.9719    1.2065   -0.6143 C   0  0  0  0  0  0  0  0  0  0  0  0
    2.5181   -1.4304    0.7127 C   0  0  0  0  0  0  0  0  0  0  0  0
    2.9007   -1.4071    2.1628 C   0  0  0  0  0  0  0  0  0  0  0  0
    3.2998   -1.9979   -0.2179 C   0  0  0  0  0  0  0  0  0  0  0  0
  1  8  1  0
  1 10  1  0
  2 11  1  0
  2 16  1  0
  3  9  1  0
  4 14  1  0
  4 18  1  0
  5 16  2  0
  6 18  2  0
  7  8  1  0
  7  9  1  0
  7 11  1  0
  7 17  1  0
  8 10  1  0
  8 16  1  0
  9 12  1  0
  9 13  1  0
 10 12  1  0
 11 14  1  0
 13 15  1  0
 13 18  1  0
 14 15  1  0
 15 19  1  0
 19 20  1  0
 19 21  2  0
M  END
>  <PUBCHEM_COMPOUND_CID>  (1) 
31306

>  <PUBCHEM_CONFORMER_RMSD>  (1) 
0.6

>  <PUBCHEM_CONFORMER_DIVERSEORDER>  (1) 
1
2

>  <PUBCHEM_MMFF94_PARTIAL_CHARGES>  (1) 
24
1 -0.3
10 -0.05
11 0.28
12 0.09
13 0.06
14 0.28
15 0.14
16 0.72
18 0.66
19 -0.28
2 -0.43
20 0.14
21 -0.3
22 0.1
3 -0.68
32 0.4
36 0.15
37 0.15
4 -0.43
5 -0.57
6 -0.57
7 0.09
8 0.05
9 0.28

>  <PUBCHEM_EFFECTIVE_ROTOR_COUNT>  (1) 
2

>  <PUBCHEM_PHARMACOPHORE_FEATURES>  (1) 
8
1 1 acceptor
1 3 acceptor
1 3 donor
1 5 acceptor
1 6 acceptor
5 2 7 8 11 16 rings
6 1 7 8 9 10 12 rings
8 4 7 9 11 13 14 15 18 rings

>  <PUBCHEM_HEAVY_ATOM_COUNT>  (1) 
21

>  <PUBCHEM_ATOM_DEF_STEREO_COUNT>  (1) 
5

>  <PUBCHEM_ATOM_UDEF_STEREO_COUNT>  (1) 
3

>  <PUBCHEM_BOND_DEF_STEREO_COUNT>  (1) 
0

>  <PUBCHEM_BOND_UDEF_STEREO_COUNT>  (1) 
0

>  <PUBCHEM_ISOTOPIC_ATOM_COUNT>  (1) 
0

>  <PUBCHEM_COMPONENT_COUNT>  (1) 
1

>  <PUBCHEM_CACTVS_TAUTO_COUNT>  (1) 
1

>  <PUBCHEM_CONFORMER_ID>  (1) 
00007A4A00000001

>  <PUBCHEM_MMFF94_ENERGY>  (1) 
80.9888

>  <PUBCHEM_FEATURE_SELFOVERLAP>  (1) 
40.926

>  <PUBCHEM_SHAPE_FINGERPRINT>  (1) 
10863032 1 18335420209688715637
10948715 1 18126589991805457393
11578080 2 18263626463739571436
11680611 10 18272103720080266899
12202030 40 16950853599436730035
12423570 1 9067354854668166809
13024252 1 16227469351751590353
13140716 1 18201725037163715595
13172582 1 18059580126685195859
13538477 17 18130238098202759875
14142880 1 11886797693816165579
144361 1 17701561685928932155
14787075 74 17046272753253124567
14817 1 9717318302796141649
15852999 172 17626657202920668421
15881359 60 17915455004640407525
16945 1 18267866068911601575
18981168 100 16128378219898171680
21421861 104 18053953024318468331
21731516 1 18113897113678918218
22112679 90 18202288030187830238
22344851 12 11990950509036247716
22344851 341 17336453611387219946
23419403 2 17109808896015767288
2748010 2 17417546747485658063
34934 24 18342190989091595576
5845 1 13019801081466065089

>  <PUBCHEM_SHAPE_MULTIPOLES>  (1) 
396.95
4.46
2.37
1.8
1.52
0.44
0.44
-2.09
0.71
0.05
-0.28
0.04
-0.05
-0.68

>  <PUBCHEM_SHAPE_SELFOVERLAP>  (1) 
904.499

>  <PUBCHEM_SHAPE_VOLUME>  (1) 
208.7

>  <PUBCHEM_COORDINATE_TYPE>  (1) 
2
5
10

$$$$
