31328
     RDKit          3D

 25 29  0  0  1  0  0  0  0  0999 V2000
   -1.4537    0.0420    1.4753 O   0  0  0  0  0  0  0  0  0  0  0  0
   -4.5706    1.2090   -0.4273 O   0  0  0  0  0  0  0  0  0  0  0  0
   -0.3562   -3.3288   -0.8856 O   0  0  0  0  0  0  0  0  0  0  0  0
   -3.4362   -1.1333    1.3733 O   0  0  0  0  0  0  0  0  0  0  0  0
   -0.5968   -2.3020    1.1351 O   0  0  0  0  0  0  0  0  0  0  0  0
    1.3041   -0.3535   -0.2295 C   0  0  0  0  0  0  0  0  0  0  0  0
    0.8066    0.7555    0.7750 C   0  0  0  0  0  0  0  0  0  0  0  0
   -0.7195    0.8705    0.5371 C   0  0  0  0  0  0  0  0  0  0  0  0
   -0.9810    0.1481   -0.7883 C   0  0  0  0  0  0  0  0  0  0  0  0
    0.0367   -1.0088   -0.8132 C   0  0  0  0  0  0  0  0  0  0  0  0
    2.2019    0.2634   -1.3247 C   0  0  0  0  0  0  0  0  0  0  0  0
    3.4324    0.6873   -0.5038 C   0  0  0  0  0  0  0  0  0  0  0  0
   -2.4862   -0.0912   -0.6445 C   0  0  0  0  0  0  0  0  0  0  0  0
    2.3133   -1.3106    0.4395 C   0  0  0  0  0  0  0  0  0  0  0  0
    1.5719    2.0811    0.6005 C   0  0  0  0  0  0  0  0  0  0  0  0
    3.0790    1.9126    0.3719 C   0  0  0  0  0  0  0  0  0  0  0  0
    3.6034   -0.5344    0.3908 C   0  0  0  0  0  0  0  0  0  0  0  0
   -1.3904    2.2239    0.5856 C   0  0  0  0  0  0  0  0  0  0  0  0
   -3.2075    1.2858   -0.8345 C   0  0  0  0  0  0  0  0  0  0  0  0
   -2.5588   -0.4822    0.8301 C   0  0  0  0  0  0  0  0  0  0  0  0
   -0.3405   -2.2549   -0.0588 C   0  0  0  0  0  0  0  0  0  0  0  0
    4.6338    0.9772   -1.4040 C   0  0  0  0  0  0  0  0  0  0  0  0
   -3.0509   -1.1608   -1.5696 C   0  0  0  0  0  0  0  0  0  0  0  0
   -2.5480    2.4126   -0.0699 C   0  0  0  0  0  0  0  0  0  0  0  0
    4.7132   -0.9086    1.0395 C   0  0  0  0  0  0  0  0  0  0  0  0
  1  8  1  0
  1 20  1  0
  2 19  1  0
  3 21  1  0
  4 20  2  0
  5 21  2  0
  6  7  1  0
  6 10  1  0
  6 11  1  0
  6 14  1  0
  7  8  1  0
  7 15  1  0
  8  9  1  0
  8 18  1  0
  9 10  1  0
  9 13  1  0
 10 21  1  0
 11 12  1  0
 12 16  1  0
 12 17  1  0
 12 22  1  0
 13 19  1  0
 13 20  1  0
 13 23  1  0
 14 17  1  0
 15 16  1  0
 17 25  2  0
 18 24  2  0
 19 24  1  0
M  END
>  <PUBCHEM_COMPOUND_CID>  (1) 
31328

>  <PUBCHEM_CONFORMER_RMSD>  (1) 
0.6

>  <PUBCHEM_CONFORMER_DIVERSEORDER>  (1) 
1
4
3
2

>  <PUBCHEM_MMFF94_PARTIAL_CHARGES>  (1) 
23
1 -0.43
10 0.06
12 0.14
13 0.06
14 0.14
17 -0.28
18 -0.29
19 0.42
2 -0.68
20 0.66
21 0.66
24 -0.29
25 -0.3
3 -0.65
37 0.15
4 -0.57
45 0.15
46 0.15
47 0.15
48 0.4
49 0.5
5 -0.57
8 0.42

>  <PUBCHEM_EFFECTIVE_ROTOR_COUNT>  (1) 
2.4

>  <PUBCHEM_PHARMACOPHORE_FEATURES>  (1) 
9
1 2 acceptor
1 2 donor
1 3 acceptor
1 4 acceptor
1 5 acceptor
3 3 5 21 anion
5 6 7 8 9 10 rings
8 1 8 9 13 18 19 20 24 rings
8 6 7 11 12 14 15 16 17 rings

>  <PUBCHEM_HEAVY_ATOM_COUNT>  (1) 
25

>  <PUBCHEM_ATOM_DEF_STEREO_COUNT>  (1) 
4

>  <PUBCHEM_ATOM_UDEF_STEREO_COUNT>  (1) 
4

>  <PUBCHEM_BOND_DEF_STEREO_COUNT>  (1) 
0

>  <PUBCHEM_BOND_UDEF_STEREO_COUNT>  (1) 
0

>  <PUBCHEM_ISOTOPIC_ATOM_COUNT>  (1) 
0

>  <PUBCHEM_COMPONENT_COUNT>  (1) 
1

>  <PUBCHEM_CACTVS_TAUTO_COUNT>  (1) 
1

>  <PUBCHEM_CONFORMER_ID>  (1) 
00007A6000000001

>  <PUBCHEM_MMFF94_ENERGY>  (1) 
104.4467

>  <PUBCHEM_FEATURE_SELFOVERLAP>  (1) 
45.898

>  <PUBCHEM_SHAPE_FINGERPRINT>  (1) 
10062212 137 18338505340178611954
10759866 29 18114190756740648244
10863032 1 18113057125201647824
10948715 1 18188207585677748037
10967382 1 18269270166719368116
11132069 177 17703789227809534086
11578080 2 17826195663267011636
121448 382 18131058338246219503
12173636 292 18260266339246258205
12236239 1 18261108548516246290
12403260 363 18340193146472631660
12403814 3 18343304786281251169
12553582 1 18272094932756423336
12592029 89 18341331081125796507
12596599 1 17346321539310179197
12788726 201 18201447934648842200
13140716 1 18126284387929123618
13224815 77 17703507787366849576
13464514 151 18048876291079716149
13538477 17 18337389448173355326
13583140 156 17458896154148704216
14223421 5 18409458006803958122
14787075 74 17534636106943443418
14790565 3 18200322017820781521
15309172 13 18343869913276851779
16752209 62 18341039761909879082
16945 1 18343584066197403166
17349148 13 18264194851310681488
18186145 218 17988927790280872768
192875 21 18340193107981566664
19862831 5 18272650134356877172
200 152 18411972563941988815
20028762 73 17630052796098509727
20691752 17 18264466508034689085
20905425 154 17695625147936329508
21524375 3 18335979761974872198
22907989 373 18190759710789599229
23227448 37 18124318461175973164
2334 1 18340492170865107272
23402539 116 18200861925178713732
23419403 2 13556848327558590049
23493267 7 17967532393426354657
23559900 14 18131070433770573100
25 1 18339079281180313893
2748010 2 18339931428298061772
296302 2 17531252768009944444
4340502 62 17896327913886737257
474 4 18189053088486519717
5104073 3 18187083957851122096
7364860 26 17981322283573169519
74978 22 18340484577637169540
90525 40 18410017619615068222

>  <PUBCHEM_SHAPE_MULTIPOLES>  (1) 
485.14
7.39
2.61
1.33
3.31
0.62
0.09
-1.52
0.75
-0.77
-0.1
-0.04
0.21
-0.32

>  <PUBCHEM_SHAPE_SELFOVERLAP>  (1) 
1096.078

>  <PUBCHEM_SHAPE_VOLUME>  (1) 
254.5

>  <PUBCHEM_COORDINATE_TYPE>  (1) 
2
5
10

$$$$
