31321
     RDKit          3D

 16 18  0  0  0  0  0  0  0  0999 V2000
    2.8961   -0.7349   -0.0534 S   0  0  0  0  0  0  0  0  0  0  0  0
   -1.3070   -0.2344    0.2239 P   0  0  0  0  0  0  0  0  0  0  0  0
   -2.4662   -1.1639    0.5204 O   0  0  0  0  0  0  0  0  0  0  0  0
   -1.2372    1.0599    1.2728 N   0  0  0  0  0  0  0  0  0  0  0  0
   -1.4712    0.4650   -1.2819 N   0  0  0  0  0  0  0  0  0  0  0  0
    0.2469   -0.8485    0.2541 N   0  0  0  0  0  0  0  0  0  0  0  0
    1.2364    1.1551   -0.5431 N   0  0  0  0  0  0  0  0  0  0  0  0
    2.4860    1.6667   -0.8466 N   0  0  0  0  0  0  0  0  0  0  0  0
   -1.0917    0.7355    2.6827 C   0  0  0  0  0  0  0  0  0  0  0  0
    0.0504    1.3134    1.8991 C   0  0  0  0  0  0  0  0  0  0  0  0
   -2.6468    1.2974   -1.4762 C   0  0  0  0  0  0  0  0  0  0  0  0
   -2.5396   -0.0543   -2.1196 C   0  0  0  0  0  0  0  0  0  0  0  0
    0.4594   -2.2190    0.7086 C   0  0  0  0  0  0  0  0  0  0  0  0
    1.3231   -0.0779   -0.1234 C   0  0  0  0  0  0  0  0  0  0  0  0
    0.6224   -3.1447   -0.4815 C   0  0  0  0  0  0  0  0  0  0  0  0
    3.4392    0.7844   -0.6358 C   0  0  0  0  0  0  0  0  0  0  0  0
  1 14  1  0
  1 16  1  0
  2  3  2  0
  2  4  1  0
  2  5  1  0
  2  6  1  0
  4  9  1  0
  4 10  1  0
  5 11  1  0
  5 12  1  0
  6 13  1  0
  6 14  1  0
  7  8  1  0
  7 14  2  0
  8 16  2  0
  9 10  1  0
 11 12  1  0
 13 15  1  0
M  END
>  <PUBCHEM_COMPOUND_CID>  (1) 
31321

>  <PUBCHEM_CONFORMER_RMSD>  (1) 
0.8

>  <PUBCHEM_CONFORMER_DIVERSEORDER>  (1) 
3
11
7
4
6
8
10
1
9
5
12
2

>  <PUBCHEM_MMFF94_PARTIAL_CHARGES>  (1) 
24
1 -0.08
10 -0.04
11 -0.04
12 -0.04
13 0.37
14 0.46
16 0.23
17 0.1
18 0.1
19 0.1
2 1.51
20 0.1
21 0.1
22 0.1
23 0.1
24 0.1
3 -0.7
30 0.15
4 -0.58
5 -0.58
6 -0.73
7 -0.34
8 -0.34
9 -0.04

>  <PUBCHEM_EFFECTIVE_ROTOR_COUNT>  (1) 
6.2

>  <PUBCHEM_PHARMACOPHORE_FEATURES>  (1) 
4
1 3 acceptor
1 8 acceptor
3 6 7 14 cation
5 1 7 8 14 16 rings

>  <PUBCHEM_HEAVY_ATOM_COUNT>  (1) 
16

>  <PUBCHEM_ATOM_DEF_STEREO_COUNT>  (1) 
0

>  <PUBCHEM_ATOM_UDEF_STEREO_COUNT>  (1) 
0

>  <PUBCHEM_BOND_DEF_STEREO_COUNT>  (1) 
0

>  <PUBCHEM_BOND_UDEF_STEREO_COUNT>  (1) 
0

>  <PUBCHEM_ISOTOPIC_ATOM_COUNT>  (1) 
0

>  <PUBCHEM_COMPONENT_COUNT>  (1) 
1

>  <PUBCHEM_CACTVS_TAUTO_COUNT>  (1) 
1

>  <PUBCHEM_CONFORMER_ID>  (1) 
00007A5900000003

>  <PUBCHEM_MMFF94_ENERGY>  (1) 
49.7279

>  <PUBCHEM_FEATURE_SELFOVERLAP>  (1) 
20.297

>  <PUBCHEM_SHAPE_FINGERPRINT>  (1) 
12592029 89 18040428863391724178
13024252 1 14635989170220587016
13839132 238 15864069840927852016
13898156 1 17487054444829991610
14617773 55 17845659136111615538
14761567 1 18200577155830477827
14817 1 9555506367596542635
16945 1 17387952219265860372
20361792 2 16486963050998136149
20600515 1 15623079956489585647
20653085 51 17821728325362199012
21524375 3 16805866425567561989
21947302 44 17678445381694264543
22112679 90 17345186692960065793
228727 97 17918272021828148755
23382010 3 18124571318363019372
23402539 116 17632301194165077140
23419403 2 16763659768996068442
25 1 17678448675908034516
2748010 2 18186525414502081756
298252 57 17896017962490701700
4175511 376 17056081341755045296
430814 3 17484000044593767280
535629 181 17489596683248899585
5845 1 8157960031775399782
68419 9 17415842383823764554
76951 1 17772154678944394731
81228 2 17614579454627314210
9999458 23 17257999870426819296

>  <PUBCHEM_SHAPE_MULTIPOLES>  (1) 
306.2
4.22
2.32
2.08
1.27
1.76
-0.5
-0.79
2.43
0.76
-0.55
-1.53
-0.92
-0.65

>  <PUBCHEM_SHAPE_SELFOVERLAP>  (1) 
603.079

>  <PUBCHEM_SHAPE_VOLUME>  (1) 
186.1

>  <PUBCHEM_COORDINATE_TYPE>  (1) 
2
5
10

$$$$
