3133
     RDKit          3D

 23 24  0  0  0  0  0  0  0  0999 V2000
    2.3420   -1.3677    0.5486 O   0  0  0  0  0  0  0  0  0  0  0  0
   -3.7003    2.2465    0.2501 O   0  0  0  0  0  0  0  0  0  0  0  0
   -6.0539    0.7813    0.0627 O   0  0  0  0  0  0  0  0  0  0  0  0
    1.4092   -3.2050   -0.4963 O   0  0  0  0  0  0  0  0  0  0  0  0
    4.6691   -1.0559    1.1295 C   0  0  0  0  0  0  0  0  0  0  0  0
    4.7891    0.2571    0.3947 C   0  0  0  0  0  0  0  0  0  0  0  0
    3.6346   -1.9811    0.4982 C   0  0  0  0  0  0  0  0  0  0  0  0
    3.9870    1.3228    0.7717 C   0  0  0  0  0  0  0  0  0  0  0  0
    5.6996    0.3740   -0.6439 C   0  0  0  0  0  0  0  0  0  0  0  0
   -2.3781   -1.1323   -0.1957 C   0  0  0  0  0  0  0  0  0  0  0  0
   -3.6622    0.8966    0.0724 C   0  0  0  0  0  0  0  0  0  0  0  0
   -2.4295    0.2499   -0.0152 C   0  0  0  0  0  0  0  0  0  0  0  0
   -4.8438    0.1611   -0.0202 C   0  0  0  0  0  0  0  0  0  0  0  0
   -3.5597   -1.8679   -0.2883 C   0  0  0  0  0  0  0  0  0  0  0  0
    4.0978    2.5362    0.0927 C   0  0  0  0  0  0  0  0  0  0  0  0
    5.8107    1.5875   -1.3227 C   0  0  0  0  0  0  0  0  0  0  0  0
   -4.7925   -1.2212   -0.2004 C   0  0  0  0  0  0  0  0  0  0  0  0
   -1.0927   -1.8065   -0.2876 C   0  0  0  0  0  0  0  0  0  0  0  0
    5.0096    2.6686   -0.9546 C   0  0  0  0  0  0  0  0  0  0  0  0
    0.0832   -1.3082    0.1548 C   0  0  0  0  0  0  0  0  0  0  0  0
    1.3271   -2.0986    0.0131 C   0  0  0  0  0  0  0  0  0  0  0  0
   -3.7139    2.7234    1.5943 C   0  0  0  0  0  0  0  0  0  0  0  0
   -6.6323    1.2393   -1.1580 C   0  0  0  0  0  0  0  0  0  0  0  0
  1  7  1  0
  1 21  1  0
  2 11  1  0
  2 22  1  0
  3 13  1  0
  3 23  1  0
  4 21  2  0
  5  6  1  0
  5  7  1  0
  6  8  2  0
  6  9  1  0
  8 15  1  0
  9 16  2  0
 10 12  1  0
 10 14  2  0
 10 18  1  0
 11 12  2  0
 11 13  1  0
 13 17  2  0
 14 17  1  0
 15 19  2  0
 16 19  1  0
 18 20  2  0
 20 21  1  0
M  END
>  <PUBCHEM_COMPOUND_CID>  (1) 
3133

>  <PUBCHEM_CONFORMER_RMSD>  (1) 
0.8

>  <PUBCHEM_CONFORMER_DIVERSEORDER>  (1) 
1
299
88
323
173
117
321
45
197
160
81
172
62
214
328
73
261
318
115
178
147
170
70
76
78
107
49
266
292
195
87
313
4
131
300
327
7
222
166
312
229
59
148
333
96
213
296
109
223
79
101
311
145
68
337
126
35
270
304
123
260
2
206
26
105
159
245
258
133
86
156
77
124
111
150
307
11
301
282
233
16
97
267
56
190
19
40
100
253
237
228
283
12
290
218
309
30
180
181
15
179
23
322
67
241
291
224
53
169
256
198
102
84
271
246
46
305
103
325
41
48
250
324
298
42
57
332
38
94
175
24
34
334
264
310
93
252
43
184
104
193
47
29
220
80
331
95
259
144
192
269
211
285
72
230
225
21
114
209
191
44
6
14
182
251
215
277
63
248
152
276
227
64
242
32
121
153
8
61
37
128
226
137
36
28
164
134
74
125
85
236
158
286
231
254
279
295
239
13
129
10
216
60
235
240
39
268
33
273
165
204
293
127
146
3
154
135
151
262
189
319
275
91
82
288
17
329
194
255
244
167
157
281
27
110
202
52
89
108
200
92
168
287
238
234
320
106
51
335
212
141
139
142
185
219
294
163
58
136
338
71
22
205
31
65
119
18
161
210
25
113
50
278
122
83
274
326
284
207
183
336
140
132
265
9
188
203
257
20
317
98
249
162
289
90
69
171
130
314
143
217
199
112
330
308
208
174
75
55
232
5
138
187
297
99
316
149
66
263
315
247
116
186
221
243
54
201
177
303
155
120
272
118
306
302
280
196
176

>  <PUBCHEM_MMFF94_PARTIAL_CHARGES>  (1) 
33
1 -0.43
10 0.03
11 0.08
12 -0.15
13 0.08
14 -0.15
15 -0.15
16 -0.15
17 -0.15
18 -0.18
19 -0.15
2 -0.36
20 -0.14
21 0.71
22 0.28
23 0.28
28 0.15
29 0.15
3 -0.36
30 0.15
31 0.15
32 0.15
33 0.15
34 0.15
35 0.15
36 0.15
37 0.15
4 -0.57
5 0.14
6 -0.14
7 0.28
8 -0.15
9 -0.15

>  <PUBCHEM_EFFECTIVE_ROTOR_COUNT>  (1) 
8

>  <PUBCHEM_PHARMACOPHORE_FEATURES>  (1) 
5
1 2 acceptor
1 3 acceptor
1 4 acceptor
6 10 11 12 13 14 17 rings
6 6 8 9 15 16 19 rings

>  <PUBCHEM_HEAVY_ATOM_COUNT>  (1) 
23

>  <PUBCHEM_ATOM_DEF_STEREO_COUNT>  (1) 
0

>  <PUBCHEM_ATOM_UDEF_STEREO_COUNT>  (1) 
0

>  <PUBCHEM_BOND_DEF_STEREO_COUNT>  (1) 
0

>  <PUBCHEM_BOND_UDEF_STEREO_COUNT>  (1) 
1

>  <PUBCHEM_ISOTOPIC_ATOM_COUNT>  (1) 
0

>  <PUBCHEM_COMPONENT_COUNT>  (1) 
1

>  <PUBCHEM_CACTVS_TAUTO_COUNT>  (1) 
1

>  <PUBCHEM_CONFORMER_ID>  (1) 
00000C3D00000001

>  <PUBCHEM_MMFF94_ENERGY>  (1) 
80.5515

>  <PUBCHEM_FEATURE_SELFOVERLAP>  (1) 
25.376

>  <PUBCHEM_SHAPE_FINGERPRINT>  (1) 
10670039 82 18272094872796017632
10906281 52 18059864905530915835
12107183 9 17978226058945098498
12596602 18 17676487254902229171
13878862 14 18043505305647817750
14251764 38 18410578361897433304
14251764 75 18043255850132898668
14429114 114 18340484581727181856
14528608 73 18411980303826743950
1454969 45 18270960275886804255
14840074 17 17822015345289616332
15142526 21 17968374671326662466
15183329 4 18343589546871357840
15961568 22 18333453140289596740
1768 23 18057907773974113121
17810953 82 18334856139044235828
17844677 252 18341056232994025418
18335252 114 18411130308672176054
20567600 9 18409456882149955788
21315764 268 18115861898097524455
21623110 236 18410858724889304657
22061861 79 14261354656584920770
245318 6 17751375090686182908
3472631 163 18412265051368230510
38570 142 17896331362877202102
397830 11 17894926143735065291
474 4 18334012791882155706
5104073 3 17967248723637395394
54583773 228 18335416916482814063
960060 61 12679184955383217242

>  <PUBCHEM_SHAPE_MULTIPOLES>  (1) 
449.85
17.44
3.4
1.06
2.03
0.29
-0.07
10.31
3.03
-1.3
-0.12
-0.37
0.53
-1.87

>  <PUBCHEM_SHAPE_SELFOVERLAP>  (1) 
943.928

>  <PUBCHEM_SHAPE_VOLUME>  (1) 
253.8

>  <PUBCHEM_COORDINATE_TYPE>  (1) 
2
5
10

$$$$
