31330
     RDKit          3D

 19 22  0  0  1  0  0  0  0  0999 V2000
   -4.3713   -0.2237    1.0725 O   0  0  0  0  0  0  0  0  0  0  0  0
    2.9052   -1.1218    0.1647 N   0  0  0  0  0  0  0  0  0  0  0  0
    0.4897    0.7697    0.7234 C   0  0  0  0  0  0  0  0  0  0  0  0
    1.4515    0.6658   -0.4539 C   0  0  0  0  0  0  0  0  0  0  0  0
    1.6330   -0.8737   -0.4945 C   0  0  0  0  0  0  0  0  0  0  0  0
    1.2900    0.0903    1.9385 C   0  0  0  0  0  0  0  0  0  0  0  0
    0.2182    2.2647    1.0148 C   0  0  0  0  0  0  0  0  0  0  0  0
    1.0092    1.4297   -1.7163 C   0  0  0  0  0  0  0  0  0  0  0  0
   -0.7958   -0.0415    0.2748 C   0  0  0  0  0  0  0  0  0  0  0  0
    0.6140   -1.4738   -1.4403 C   0  0  0  0  0  0  0  0  0  0  0  0
    2.7423   -0.5291    1.5601 C   0  0  0  0  0  0  0  0  0  0  0  0
   -0.2282    3.0511   -0.2225 C   0  0  0  0  0  0  0  0  0  0  0  0
    0.7576    2.9003   -1.3800 C   0  0  0  0  0  0  0  0  0  0  0  0
   -0.7414   -1.0329   -0.7948 C   0  0  0  0  0  0  0  0  0  0  0  0
   -2.0282    0.1907    0.8980 C   0  0  0  0  0  0  0  0  0  0  0  0
    3.2658   -2.5337    0.2054 C   0  0  0  0  0  0  0  0  0  0  0  0
   -1.9106   -1.6728   -1.2183 C   0  0  0  0  0  0  0  0  0  0  0  0
   -3.1783   -0.4732    0.4618 C   0  0  0  0  0  0  0  0  0  0  0  0
   -3.1226   -1.3862   -0.5934 C   0  0  0  0  0  0  0  0  0  0  0  0
  1 18  1  0
  2  5  1  0
  2 11  1  0
  2 16  1  0
  3  4  1  0
  3  6  1  0
  3  7  1  0
  3  9  1  0
  4  5  1  0
  4  8  1  0
  5 10  1  0
  6 11  1  0
  7 12  1  0
  8 13  1  0
  9 14  2  0
  9 15  1  0
 10 14  1  0
 12 13  1  0
 14 17  1  0
 15 18  2  0
 17 19  2  0
 18 19  1  0
M  END
>  <PUBCHEM_COMPOUND_CID>  (1) 
31330

>  <PUBCHEM_CONFORMER_RMSD>  (1) 
0.6

>  <PUBCHEM_CONFORMER_DIVERSEORDER>  (1) 
1

>  <PUBCHEM_MMFF94_PARTIAL_CHARGES>  (1) 
17
1 -0.53
10 0.14
11 0.27
14 -0.14
15 -0.15
16 0.27
17 -0.15
18 0.08
19 -0.15
2 -0.81
3 0.14
36 0.15
40 0.15
41 0.15
42 0.45
5 0.27
9 -0.14

>  <PUBCHEM_EFFECTIVE_ROTOR_COUNT>  (1) 
1.6

>  <PUBCHEM_PHARMACOPHORE_FEATURES>  (1) 
6
1 1 donor
1 2 cation
6 2 3 4 5 6 11 rings
6 3 4 5 9 10 14 rings
6 3 4 7 8 12 13 rings
6 9 14 15 17 18 19 rings

>  <PUBCHEM_HEAVY_ATOM_COUNT>  (1) 
19

>  <PUBCHEM_ATOM_DEF_STEREO_COUNT>  (1) 
3

>  <PUBCHEM_ATOM_UDEF_STEREO_COUNT>  (1) 
0

>  <PUBCHEM_BOND_DEF_STEREO_COUNT>  (1) 
0

>  <PUBCHEM_BOND_UDEF_STEREO_COUNT>  (1) 
0

>  <PUBCHEM_ISOTOPIC_ATOM_COUNT>  (1) 
0

>  <PUBCHEM_COMPONENT_COUNT>  (1) 
1

>  <PUBCHEM_CACTVS_TAUTO_COUNT>  (1) 
3

>  <PUBCHEM_CONFORMER_ID>  (1) 
00007A6200000001

>  <PUBCHEM_MMFF94_ENERGY>  (1) 
132.4774

>  <PUBCHEM_FEATURE_SELFOVERLAP>  (1) 
31.315

>  <PUBCHEM_SHAPE_FINGERPRINT>  (1) 
10382601 240 18117570741009906725
11086676 242 18412544297203757408
11578080 2 18269537391422573456
12326174 3 17751343204590247280
12423570 1 14806474053377239096
12633257 1 17131828716416880322
12644460 14 18122372278544776635
12716301 132 17837187304319402658
13132413 78 18201717418044784636
13134695 92 18337380617435940317
13172582 1 18202566172401976403
13681431 1 18114735036049403292
141345 1 9675116684411346716
14181834 199 18199460129209953029
14817 1 14519844565939570628
14955137 171 18194410111285409120
16945 1 17557394842455591106
17093844 170 17473555646699129809
17357779 13 18126545856752880493
17980427 23 16128074750663171777
1813 80 18261388923649318698
19765921 60 17691710173403172573
19930374 2 17689724060244857725
20361792 2 18260255343913689394
20511035 2 17844527905945104527
20559304 39 18127973211961522143
21330990 113 17846222099124349790
21524375 3 17033032404024607517
22112679 90 18118707442690654188
23419403 2 18195782155488774116
25 1 17753909507552874044
2748010 2 17337045797262380503
4175511 71 18334857216611567565
430814 3 17469041515231110037
5845 1 12651240415827241052
6992083 37 18201428199342253239
7364860 26 18193272129187098140
81228 2 17972861588900121648

>  <PUBCHEM_SHAPE_MULTIPOLES>  (1) 
380.16
4.71
2.91
1.67
3.27
1.89
-0.06
-3.43
-1.53
-1.26
0.98
-0.37
0.27
-0.67

>  <PUBCHEM_SHAPE_SELFOVERLAP>  (1) 
822.962

>  <PUBCHEM_SHAPE_VOLUME>  (1) 
207.9

>  <PUBCHEM_COORDINATE_TYPE>  (1) 
2
5
10

$$$$
