31341
     RDKit          3D

 15 17  0  0  1  0  0  0  0  0999 V2000
   -0.0538   -1.3141    0.9691 O   0  0  0  0  0  0  0  0  0  0  0  0
   -0.9469   -2.8237   -0.9292 O   0  0  0  0  0  0  0  0  0  0  0  0
   -0.2534    0.4874   -0.5738 C   0  0  0  0  0  0  0  0  0  0  0  0
    0.7245    0.8820    0.5347 C   0  0  0  0  0  0  0  0  0  0  0  0
   -1.0124   -0.6567    0.1128 C   0  0  0  0  0  0  0  0  0  0  0  0
    1.1314   -0.4966    1.0598 C   0  0  0  0  0  0  0  0  0  0  0  0
   -1.1472    1.6044   -1.1217 C   0  0  0  0  0  0  0  0  0  0  0  0
    1.9038    1.7702    0.1329 C   0  0  0  0  0  0  0  0  0  0  0  0
   -2.1960   -0.2349    1.0007 C   0  0  0  0  0  0  0  0  0  0  0  0
    2.2338   -1.1998    0.2520 C   0  0  0  0  0  0  0  0  0  0  0  0
   -1.4394   -1.7016   -0.8763 C   0  0  0  0  0  0  0  0  0  0  0  0
   -2.3868    1.8725   -0.3317 C   0  0  0  0  0  0  0  0  0  0  0  0
   -2.8539    1.0515    0.6141 C   0  0  0  0  0  0  0  0  0  0  0  0
    3.0747    1.0437   -0.4484 C   0  0  0  0  0  0  0  0  0  0  0  0
    3.2215   -0.2844   -0.3949 C   0  0  0  0  0  0  0  0  0  0  0  0
  1  5  1  0
  1  6  1  0
  2 11  2  0
  3  4  1  0
  3  5  1  0
  3  7  1  0
  4  6  1  0
  4  8  1  0
  5  9  1  0
  5 11  1  0
  6 10  1  0
  7 12  1  0
  8 14  1  0
  9 13  1  0
 10 15  1  0
 12 13  2  0
 14 15  2  0
M  END
>  <PUBCHEM_COMPOUND_CID>  (1) 
31341

>  <PUBCHEM_CONFORMER_RMSD>  (1) 
0.6

>  <PUBCHEM_CONFORMER_DIVERSEORDER>  (1) 
1
6
3
10
8
13
5
12
4
11
2
14
9
7

>  <PUBCHEM_MMFF94_PARTIAL_CHARGES>  (1) 
18
1 -0.56
10 0.14
11 0.45
12 -0.29
13 -0.29
14 -0.29
15 -0.29
2 -0.57
27 0.06
28 0.15
29 0.15
30 0.15
31 0.15
5 0.34
6 0.28
7 0.14
8 0.14
9 0.14

>  <PUBCHEM_EFFECTIVE_ROTOR_COUNT>  (1) 
2

>  <PUBCHEM_PHARMACOPHORE_FEATURES>  (1) 
5
1 1 acceptor
1 2 acceptor
5 1 3 4 5 6 rings
6 3 5 7 9 12 13 rings
6 4 6 8 10 14 15 rings

>  <PUBCHEM_HEAVY_ATOM_COUNT>  (1) 
15

>  <PUBCHEM_ATOM_DEF_STEREO_COUNT>  (1) 
0

>  <PUBCHEM_ATOM_UDEF_STEREO_COUNT>  (1) 
4

>  <PUBCHEM_BOND_DEF_STEREO_COUNT>  (1) 
0

>  <PUBCHEM_BOND_UDEF_STEREO_COUNT>  (1) 
0

>  <PUBCHEM_ISOTOPIC_ATOM_COUNT>  (1) 
0

>  <PUBCHEM_COMPONENT_COUNT>  (1) 
1

>  <PUBCHEM_CACTVS_TAUTO_COUNT>  (1) 
1

>  <PUBCHEM_CONFORMER_ID>  (1) 
00007A6D00000001

>  <PUBCHEM_MMFF94_ENERGY>  (1) 
28.0174

>  <PUBCHEM_FEATURE_SELFOVERLAP>  (1) 
25.725

>  <PUBCHEM_SHAPE_FINGERPRINT>  (1) 
1 1 18123748660480195439
10062212 137 18260818290373912522
10922523 26 18408891711350380140
12138202 78 17404583277634480383
12423570 1 10034210065287213333
12491281 212 18340498806294226120
12808571 1 18339927004545069953
13024252 1 16877941680611029537
13380535 21 18335711532893606152
13380535 239 18125423461549861516
14614273 12 18044071652641041660
14993402 34 18412823560509778333
15001771 113 17907856558900864047
15309172 13 18341899528558196505
15490181 7 18262503836634244184
15775835 57 18335146362241821072
16945 1 18340482395260916360
17844478 74 17895490175297597249
20511035 2 17321513043641221776
20525323 117 18189610712844024176
20871998 184 18338810004068849455
21296965 12 18115866309023630261
21501502 16 18338513166078543004
21524375 3 18263076622321138745
22802520 49 18335430109546076480
23388829 49 17617381018564935341
23419403 2 17113602034938033699
238 59 16814851454322915181
241688 4 18049435143375484665
2748010 2 18262796242397707764
353137 74 18044920505719151606
528886 8 18342737364997823480
53812653 217 18337382833443645687
69090 78 18413670214343281501
74978 22 18201434800691065440
81228 2 18122893489710583595

>  <PUBCHEM_SHAPE_MULTIPOLES>  (1) 
296.95
4.35
2.29
1.09
1.69
0.73
0
-1.3
0
-0.69
0.65
-0.29
0.16
-0.2

>  <PUBCHEM_SHAPE_SELFOVERLAP>  (1) 
636.89

>  <PUBCHEM_SHAPE_VOLUME>  (1) 
161.9

>  <PUBCHEM_COORDINATE_TYPE>  (1) 
2
5
10

$$$$
