31346
     RDKit          3D

  6  5  0  0  0  0  0  0  0  0999 V2000
    2.6501    0.0845    0.0066 I   0  0  0  0  0  0  0  0  0  0  0  0
   -0.5562    0.1545    0.0150 S   0  0  0  0  0  0  0  0  0  0  0  0
   -1.7269   -0.9627   -0.1856 O   0  0  0  0  0  0  0  0  0  0  0  0
   -0.5116    0.9891   -1.1684 O   0  0  0  0  0  0  0  0  0  0  0  0
   -0.6808    0.7140    1.3459 O   0  0  0  0  0  0  0  0  0  0  0  0
    0.8255   -0.9794   -0.0135 C   0  0  0  0  0  0  0  0  0  0  0  0
  1  6  1  0
  2  3  1  0
  2  4  2  0
  2  5  2  0
  2  6  1  0
M  END
>  <PUBCHEM_COMPOUND_CID>  (1) 
31346

>  <PUBCHEM_CONFORMER_RMSD>  (1) 
0.4

>  <PUBCHEM_CONFORMER_DIVERSEORDER>  (1) 
1

>  <PUBCHEM_MMFF94_PARTIAL_CHARGES>  (1) 
7
1 -0.19
2 1.38
3 -0.68
4 -0.65
5 -0.65
6 0.3
9 0.5

>  <PUBCHEM_EFFECTIVE_ROTOR_COUNT>  (1) 
1

>  <PUBCHEM_PHARMACOPHORE_FEATURES>  (1) 
5
1 1 hydrophobe
1 3 acceptor
1 4 acceptor
1 5 acceptor
4 2 3 4 5 anion

>  <PUBCHEM_HEAVY_ATOM_COUNT>  (1) 
6

>  <PUBCHEM_ATOM_DEF_STEREO_COUNT>  (1) 
0

>  <PUBCHEM_ATOM_UDEF_STEREO_COUNT>  (1) 
0

>  <PUBCHEM_BOND_DEF_STEREO_COUNT>  (1) 
0

>  <PUBCHEM_BOND_UDEF_STEREO_COUNT>  (1) 
0

>  <PUBCHEM_ISOTOPIC_ATOM_COUNT>  (1) 
0

>  <PUBCHEM_COMPONENT_COUNT>  (1) 
1

>  <PUBCHEM_CACTVS_TAUTO_COUNT>  (1) 
1

>  <PUBCHEM_CONFORMER_ID>  (1) 
00007A7200000001

>  <PUBCHEM_MMFF94_ENERGY>  (1) 
3.7083

>  <PUBCHEM_FEATURE_SELFOVERLAP>  (1) 
25.427

>  <PUBCHEM_SHAPE_FINGERPRINT>  (1) 
16714656 1 18335136544210248686
20096714 4 17630618812351409874
24536 1 17844801491293479150
29004967 10 17749679578946240907
5084963 1 18408884040681266146
5943 1 12057474158056480645

>  <PUBCHEM_SHAPE_MULTIPOLES>  (1) 
121.65
3
1.11
1.03
2.13
0.09
-0.09
0.16
0.02
-0.16
0.07
-0.21
-0.32
-0.04

>  <PUBCHEM_SHAPE_SELFOVERLAP>  (1) 
190.372

>  <PUBCHEM_SHAPE_VOLUME>  (1) 
89

>  <PUBCHEM_COORDINATE_TYPE>  (1) 
2
5
10

$$$$
