31343
     RDKit          3D

 17 16  0  0  1  0  0  0  0  0999 V2000
   -3.3541    1.3754    0.1541 Cl  0  0  0  0  0  0  0  0  0  0  0  0
   -1.2363    3.1692    1.0201 Cl  0  0  0  0  0  0  0  0  0  0  0  0
   -1.2652    2.1732   -1.6964 Cl  0  0  0  0  0  0  0  0  0  0  0  0
   -0.8691   -0.9800   -0.5206 P   0  0  0  0  0  0  0  0  0  0  0  0
    0.6614    0.8969    0.2979 O   0  0  0  0  0  0  0  0  0  0  0  0
    0.0384   -2.0481    0.2918 O   0  0  0  0  0  0  0  0  0  0  0  0
   -2.3756   -1.5022   -0.2282 O   0  0  0  0  0  0  0  0  0  0  0  0
   -0.5286   -0.8565   -1.9777 O   0  0  0  0  0  0  0  0  0  0  0  0
    1.7665   -0.5477    1.7246 O   0  0  0  0  0  0  0  0  0  0  0  0
   -0.7330    0.5429    0.4342 C   0  0  0  0  0  0  0  0  0  0  0  0
   -1.6085    1.7344    0.0137 C   0  0  0  0  0  0  0  0  0  0  0  0
    2.4621   -0.3315   -0.5743 C   0  0  0  0  0  0  0  0  0  0  0  0
    1.6074   -0.0249    0.6300 C   0  0  0  0  0  0  0  0  0  0  0  0
    3.9254    0.0367   -0.3529 C   0  0  0  0  0  0  0  0  0  0  0  0
    4.1233    1.5263   -0.1121 C   0  0  0  0  0  0  0  0  0  0  0  0
    0.1428   -3.3692   -0.2083 C   0  0  0  0  0  0  0  0  0  0  0  0
   -2.7570   -1.7949    1.1041 C   0  0  0  0  0  0  0  0  0  0  0  0
  1 11  1  0
  2 11  1  0
  3 11  1  0
  4  6  1  0
  4  7  1  0
  4  8  2  0
  4 10  1  0
  5 10  1  0
  5 13  1  0
  6 16  1  0
  7 17  1  0
  9 13  2  0
 10 11  1  0
 12 13  1  0
 12 14  1  0
 14 15  1  0
M  END
>  <PUBCHEM_COMPOUND_CID>  (1) 
31343

>  <PUBCHEM_CONFORMER_RMSD>  (1) 
0.8

>  <PUBCHEM_CONFORMER_DIVERSEORDER>  (1) 
1
18
29
43
23
10
49
27
24
50
26
32
47
45
37
46
15
33
14
21
28
44
20
12
25
40
16
6
19
39
41
35
42
48
31
36
11
17
30
9
3
34
38
13
5
22
4
7
8
2

>  <PUBCHEM_MMFF94_PARTIAL_CHARGES>  (1) 
15
1 -0.29
10 0.28
11 0.87
12 0.06
13 0.66
16 0.28
17 0.28
2 -0.29
3 -0.29
4 1.24
5 -0.43
6 -0.55
7 -0.55
8 -0.7
9 -0.57

>  <PUBCHEM_EFFECTIVE_ROTOR_COUNT>  (1) 
8

>  <PUBCHEM_PHARMACOPHORE_FEATURES>  (1) 
3
1 15 hydrophobe
1 8 acceptor
1 9 acceptor

>  <PUBCHEM_HEAVY_ATOM_COUNT>  (1) 
17

>  <PUBCHEM_ATOM_DEF_STEREO_COUNT>  (1) 
0

>  <PUBCHEM_ATOM_UDEF_STEREO_COUNT>  (1) 
1

>  <PUBCHEM_BOND_DEF_STEREO_COUNT>  (1) 
0

>  <PUBCHEM_BOND_UDEF_STEREO_COUNT>  (1) 
0

>  <PUBCHEM_ISOTOPIC_ATOM_COUNT>  (1) 
0

>  <PUBCHEM_COMPONENT_COUNT>  (1) 
1

>  <PUBCHEM_CACTVS_TAUTO_COUNT>  (1) 
1

>  <PUBCHEM_CONFORMER_ID>  (1) 
00007A6F00000001

>  <PUBCHEM_MMFF94_ENERGY>  (1) 
32.6671

>  <PUBCHEM_FEATURE_SELFOVERLAP>  (1) 
15.223

>  <PUBCHEM_SHAPE_FINGERPRINT>  (1) 
12173636 292 18413107234499649780
12716301 132 18271791428771113346
13538477 17 18260821566843031160
13764800 53 18411980234848693993
14251751 93 18337676287442977298
14614273 12 18261389992811222045
14817 1 15297100240673286909
15490181 8 18051122593044781081
15775835 57 18186803539383539956
16945 1 18268982103658581329
20510252 161 18342182193140608536
20511035 2 17625242127081943907
20600515 1 18193014813897339063
20645476 183 18118392960742379272
20671657 1 17978516329978134798
20871999 31 18271803579170361260
21041028 32 17611765791186136491
21501502 16 17694784021831484417
21524375 3 18188495657861317048
2334 1 18267297823559202297
23402539 116 18267579285709046454
23419403 2 15471902824171701331
23526113 38 17560243505563911712
23557571 272 18199481033443848412
23558518 356 17835232351655728779
23598294 1 18337381729658078616
2748010 2 18268695277063066073
3250762 1 17979938024383133139
353137 74 18188764080384974676
53812653 8 18335696182743995314
58051976 100 18335141947637835538
58051976 378 18341892940162773404
81228 2 18125420154319645946
9999458 23 17113839388090544521

>  <PUBCHEM_SHAPE_MULTIPOLES>  (1) 
329.96
5.3
3.43
1.35
4.6
0.84
0.3
-2.16
-0.28
-1.73
-0.2
-0.3
-0.21
0.17

>  <PUBCHEM_SHAPE_SELFOVERLAP>  (1) 
593.818

>  <PUBCHEM_SHAPE_VOLUME>  (1) 
213.1

>  <PUBCHEM_COORDINATE_TYPE>  (1) 
2
5
10

$$$$
