31360
     RDKit          3D

  9  8  0  0  1  0  0  0  0  0999 V2000
    3.1203   -0.9236    0.6385 Cl  0  0  0  0  0  0  0  0  0  0  0  0
   -1.6027   -0.0237    0.0280 S   0  0  0  0  0  0  0  0  0  0  0  0
    1.0359    1.3881    0.5564 O   0  0  0  0  0  0  0  0  0  0  0  0
   -2.3704   -1.4579    0.1408 O   0  0  0  0  0  0  0  0  0  0  0  0
   -2.0202    0.6363   -1.1942 O   0  0  0  0  0  0  0  0  0  0  0  0
   -1.6666    0.6433    1.3145 O   0  0  0  0  0  0  0  0  0  0  0  0
    0.0324   -0.6598   -0.1983 C   0  0  0  0  0  0  0  0  0  0  0  0
    1.0246    0.4520   -0.5205 C   0  0  0  0  0  0  0  0  0  0  0  0
    2.4468   -0.0547   -0.7651 C   0  0  0  0  0  0  0  0  0  0  0  0
  1  9  1  0
  2  4  1  0
  2  5  2  0
  2  6  2  0
  2  7  1  0
  3  8  1  0
  7  8  1  0
  8  9  1  0
M  END
>  <PUBCHEM_COMPOUND_CID>  (1) 
31360

>  <PUBCHEM_CONFORMER_RMSD>  (1) 
0.6

>  <PUBCHEM_CONFORMER_DIVERSEORDER>  (1) 
4
12
9
2
10
7
6
13
8
11
3
5
1

>  <PUBCHEM_MMFF94_PARTIAL_CHARGES>  (1) 
11
1 -0.29
15 0.4
16 0.5
2 1.38
3 -0.68
4 -0.68
5 -0.65
6 -0.65
7 0.11
8 0.28
9 0.29

>  <PUBCHEM_EFFECTIVE_ROTOR_COUNT>  (1) 
3

>  <PUBCHEM_PHARMACOPHORE_FEATURES>  (1) 
6
1 3 acceptor
1 3 donor
1 4 acceptor
1 5 acceptor
1 6 acceptor
4 2 4 5 6 anion

>  <PUBCHEM_HEAVY_ATOM_COUNT>  (1) 
9

>  <PUBCHEM_ATOM_DEF_STEREO_COUNT>  (1) 
0

>  <PUBCHEM_ATOM_UDEF_STEREO_COUNT>  (1) 
1

>  <PUBCHEM_BOND_DEF_STEREO_COUNT>  (1) 
0

>  <PUBCHEM_BOND_UDEF_STEREO_COUNT>  (1) 
0

>  <PUBCHEM_ISOTOPIC_ATOM_COUNT>  (1) 
0

>  <PUBCHEM_COMPONENT_COUNT>  (1) 
1

>  <PUBCHEM_CACTVS_TAUTO_COUNT>  (1) 
1

>  <PUBCHEM_CONFORMER_ID>  (1) 
00007A8000000004

>  <PUBCHEM_MMFF94_ENERGY>  (1) 
7.5301

>  <PUBCHEM_FEATURE_SELFOVERLAP>  (1) 
30.503

>  <PUBCHEM_SHAPE_FINGERPRINT>  (1) 
10857977 72 17847062185847180546
12932764 1 18113911458985276644
15310529 11 17313399932255337582
20653091 64 18340492278376387896
23552423 10 18116439330406185774
24536 1 17917717919560176173
29004967 10 17918281939208367670
3248919 1 18131354085652170086
5084963 1 18261115222151781775

>  <PUBCHEM_SHAPE_MULTIPOLES>  (1) 
167.46
4.3
1.21
1.05
1.56
0.16
-0.15
1.16
-0.07
-0.11
-0.07
-0.18
-0.2
-0.12

>  <PUBCHEM_SHAPE_SELFOVERLAP>  (1) 
292.204

>  <PUBCHEM_SHAPE_VOLUME>  (1) 
111.2

>  <PUBCHEM_COORDINATE_TYPE>  (1) 
2
5
10

$$$$
