31382
     RDKit          3D

 11 11  0  0  0  0  0  0  0  0999 V2000
    3.6104   -0.6541    1.1282 Cl  0  0  0  0  0  0  0  0  0  0  0  0
    1.3530    0.2543   -0.4674 S   0  0  0  0  0  0  0  0  0  0  0  0
    1.6249    1.6442   -0.8103 O   0  0  0  0  0  0  0  0  0  0  0  0
    1.7574   -0.8027   -1.3855 O   0  0  0  0  0  0  0  0  0  0  0  0
    2.0008   -0.0642    1.0809 N   0  0  0  0  0  0  0  0  0  0  0  0
   -0.3579    0.0781   -0.1659 C   0  0  0  0  0  0  0  0  0  0  0  0
   -1.1143    1.1823    0.2268 C   0  0  0  0  0  0  0  0  0  0  0  0
   -0.9679   -1.1671   -0.3168 C   0  0  0  0  0  0  0  0  0  0  0  0
   -2.4808    1.0413    0.4682 C   0  0  0  0  0  0  0  0  0  0  0  0
   -2.3345   -1.3081   -0.0754 C   0  0  0  0  0  0  0  0  0  0  0  0
   -3.0910   -0.2039    0.3171 C   0  0  0  0  0  0  0  0  0  0  0  0
  1  5  1  0
  2  3  2  0
  2  4  2  0
  2  5  1  0
  2  6  1  0
  6  7  2  0
  6  8  1  0
  7  9  1  0
  8 10  2  0
  9 11  2  0
 10 11  1  0
M  END
>  <PUBCHEM_COMPOUND_CID>  (1) 
31382

>  <PUBCHEM_CONFORMER_RMSD>  (1) 
0.4

>  <PUBCHEM_CONFORMER_DIVERSEORDER>  (1) 
1
4
2
3

>  <PUBCHEM_MMFF94_PARTIAL_CHARGES>  (1) 
17
1 0.02
10 -0.15
11 -0.15
12 0.15
13 0.15
14 0.15
15 0.15
16 0.15
17 0.42
2 1.45
3 -0.65
4 -0.65
5 -0.58
6 -0.01
7 -0.15
8 -0.15
9 -0.15

>  <PUBCHEM_EFFECTIVE_ROTOR_COUNT>  (1) 
2

>  <PUBCHEM_PHARMACOPHORE_FEATURES>  (1) 
4
1 3 acceptor
1 4 acceptor
1 5 donor
6 6 7 8 9 10 11 rings

>  <PUBCHEM_HEAVY_ATOM_COUNT>  (1) 
11

>  <PUBCHEM_ATOM_DEF_STEREO_COUNT>  (1) 
0

>  <PUBCHEM_ATOM_UDEF_STEREO_COUNT>  (1) 
0

>  <PUBCHEM_BOND_DEF_STEREO_COUNT>  (1) 
0

>  <PUBCHEM_BOND_UDEF_STEREO_COUNT>  (1) 
0

>  <PUBCHEM_ISOTOPIC_ATOM_COUNT>  (1) 
0

>  <PUBCHEM_COMPONENT_COUNT>  (1) 
1

>  <PUBCHEM_CACTVS_TAUTO_COUNT>  (1) 
1

>  <PUBCHEM_CONFORMER_ID>  (1) 
00007A9600000001

>  <PUBCHEM_MMFF94_ENERGY>  (1) 
10.9195

>  <PUBCHEM_FEATURE_SELFOVERLAP>  (1) 
20.315

>  <PUBCHEM_SHAPE_FINGERPRINT>  (1) 
10857977 72 18059578035347320163
12932764 1 17749118806794394341
15219456 202 17417812803413802534
16945 1 18337400348604998391
20645464 45 17489867133176326387
20671657 53 14924223747525813802
21040471 1 18271255910900385501
23402539 116 18130206195840020973
23552423 10 18337685182077550519
2748010 2 17690011037465090813
3248919 1 18272938232299544349
369184 2 17749390407767839809
5084963 1 18058748908979933277

>  <PUBCHEM_SHAPE_MULTIPOLES>  (1) 
215.37
5.09
1.42
1.07
1.9
0.16
-0.05
-0.84
1.71
-0.36
-0.16
0.84
-0.07
-0.46

>  <PUBCHEM_SHAPE_SELFOVERLAP>  (1) 
420.022

>  <PUBCHEM_SHAPE_VOLUME>  (1) 
130.9

>  <PUBCHEM_COORDINATE_TYPE>  (1) 
2
5
10

$$$$
