31398
     RDKit          3D

  8  8  0  0  0  0  0  0  0  0999 V2000
    0.0000   -2.3103    0.0000 Cl  0  0  0  0  0  0  0  0  0  0  0  0
   -2.3133   -0.2636    0.0017 O   0  0  0  0  0  0  0  0  0  0  0  0
    2.3134   -0.2635   -0.0010 O   0  0  0  0  0  0  0  0  0  0  0  0
    0.0001   -0.6023   -0.0005 N   0  0  0  0  0  0  0  0  0  0  0  0
   -0.7621    1.5849   -0.0043 C   0  0  0  0  0  0  0  0  0  0  0  0
    0.7619    1.5849    0.0042 C   0  0  0  0  0  0  0  0  0  0  0  0
   -1.1576    0.1350    0.0000 C   0  0  0  0  0  0  0  0  0  0  0  0
    1.1577    0.1349   -0.0002 C   0  0  0  0  0  0  0  0  0  0  0  0
  1  4  1  0
  2  7  2  0
  3  8  2  0
  4  7  1  0
  4  8  1  0
  5  6  1  0
  5  7  1  0
  6  8  1  0
M  END
>  <PUBCHEM_COMPOUND_CID>  (1) 
31398

>  <PUBCHEM_CONFORMER_RMSD>  (1) 
0.4

>  <PUBCHEM_CONFORMER_DIVERSEORDER>  (1) 
1

>  <PUBCHEM_MMFF94_PARTIAL_CHARGES>  (1) 
8
1 -0.06
2 -0.57
3 -0.57
4 -0.06
5 0.06
6 0.06
7 0.57
8 0.57

>  <PUBCHEM_EFFECTIVE_ROTOR_COUNT>  (1) 
0.6

>  <PUBCHEM_PHARMACOPHORE_FEATURES>  (1) 
3
1 2 acceptor
1 3 acceptor
5 4 5 6 7 8 rings

>  <PUBCHEM_HEAVY_ATOM_COUNT>  (1) 
8

>  <PUBCHEM_ATOM_DEF_STEREO_COUNT>  (1) 
0

>  <PUBCHEM_ATOM_UDEF_STEREO_COUNT>  (1) 
0

>  <PUBCHEM_BOND_DEF_STEREO_COUNT>  (1) 
0

>  <PUBCHEM_BOND_UDEF_STEREO_COUNT>  (1) 
0

>  <PUBCHEM_ISOTOPIC_ATOM_COUNT>  (1) 
0

>  <PUBCHEM_COMPONENT_COUNT>  (1) 
1

>  <PUBCHEM_CACTVS_TAUTO_COUNT>  (1) 
3

>  <PUBCHEM_CONFORMER_ID>  (1) 
00007AA600000001

>  <PUBCHEM_MMFF94_ENERGY>  (1) 
7.855

>  <PUBCHEM_FEATURE_SELFOVERLAP>  (1) 
15.223

>  <PUBCHEM_SHAPE_FINGERPRINT>  (1) 
16714656 1 18410298007986100028
18185500 45 18340201878177983183
21040471 1 18122343742265311201
23552423 10 17902243221291746926
29004967 10 18408610244610215273

>  <PUBCHEM_SHAPE_MULTIPOLES>  (1) 
149.79
2.17
2.13
0.59
0
0.83
0
-0.01
0
0
0
0
0
0

>  <PUBCHEM_SHAPE_SELFOVERLAP>  (1) 
296.089

>  <PUBCHEM_SHAPE_VOLUME>  (1) 
91.5

>  <PUBCHEM_COORDINATE_TYPE>  (1) 
2
5
10

$$$$
