31390
     RDKit          3D

 17 18  0  0  0  0  0  0  0  0999 V2000
    0.0181   -2.1670    0.1289 S   0  0  0  0  0  0  0  0  0  0  0  0
   -0.6023   -3.2756   -0.5870 O   0  0  0  0  0  0  0  0  0  0  0  0
    0.4735   -2.3816    1.4970 O   0  0  0  0  0  0  0  0  0  0  0  0
    1.3240   -1.5768   -0.8275 N   0  0  0  0  0  0  0  0  0  0  0  0
   -3.8058    2.3861    0.0859 N   0  0  0  0  0  0  0  0  0  0  0  0
   -1.1055   -0.8307    0.1169 C   0  0  0  0  0  0  0  0  0  0  0  0
    1.8900   -0.2996   -0.4858 C   0  0  0  0  0  0  0  0  0  0  0  0
   -2.0777   -0.7460   -0.8798 C   0  0  0  0  0  0  0  0  0  0  0  0
   -1.0302    0.1528    1.1030 C   0  0  0  0  0  0  0  0  0  0  0  0
   -2.8995    1.3057    0.0960 C   0  0  0  0  0  0  0  0  0  0  0  0
   -2.9747    0.3221   -0.8902 C   0  0  0  0  0  0  0  0  0  0  0  0
   -1.9272    1.2210    1.0927 C   0  0  0  0  0  0  0  0  0  0  0  0
    2.4492   -0.1106    0.7722 C   0  0  0  0  0  0  0  0  0  0  0  0
    1.8704    0.7319   -1.4169 C   0  0  0  0  0  0  0  0  0  0  0  0
    2.9973    1.1284    1.1041 C   0  0  0  0  0  0  0  0  0  0  0  0
    2.4185    1.9708   -1.0849 C   0  0  0  0  0  0  0  0  0  0  0  0
    2.9819    2.1692    0.1755 C   0  0  0  0  0  0  0  0  0  0  0  0
  1  2  2  0
  1  3  2  0
  1  4  1  0
  1  6  1  0
  4  7  1  0
  5 10  1  0
  6  8  2  0
  6  9  1  0
  7 13  2  0
  7 14  1  0
  8 11  1  0
  9 12  2  0
 10 11  2  0
 10 12  1  0
 13 15  1  0
 14 16  2  0
 15 17  2  0
 16 17  1  0
M  END
>  <PUBCHEM_COMPOUND_CID>  (1) 
31390

>  <PUBCHEM_CONFORMER_RMSD>  (1) 
0.6

>  <PUBCHEM_CONFORMER_DIVERSEORDER>  (1) 
1
6
2
7
8
5
3
4

>  <PUBCHEM_MMFF94_PARTIAL_CHARGES>  (1) 
29
1 1.45
10 0.1
11 -0.15
12 -0.15
13 -0.15
14 -0.15
15 -0.15
16 -0.15
17 -0.15
18 0.42
19 0.15
2 -0.65
20 0.15
21 0.15
22 0.15
23 0.15
24 0.15
25 0.15
26 0.15
27 0.15
28 0.4
29 0.4
3 -0.65
4 -0.76
5 -0.9
6 -0.01
7 0.2
8 -0.15
9 -0.15

>  <PUBCHEM_EFFECTIVE_ROTOR_COUNT>  (1) 
3

>  <PUBCHEM_PHARMACOPHORE_FEATURES>  (1) 
7
1 2 acceptor
1 3 acceptor
1 4 donor
1 5 cation
1 5 donor
6 6 8 9 10 11 12 rings
6 7 13 14 15 16 17 rings

>  <PUBCHEM_HEAVY_ATOM_COUNT>  (1) 
17

>  <PUBCHEM_ATOM_DEF_STEREO_COUNT>  (1) 
0

>  <PUBCHEM_ATOM_UDEF_STEREO_COUNT>  (1) 
0

>  <PUBCHEM_BOND_DEF_STEREO_COUNT>  (1) 
0

>  <PUBCHEM_BOND_UDEF_STEREO_COUNT>  (1) 
0

>  <PUBCHEM_ISOTOPIC_ATOM_COUNT>  (1) 
0

>  <PUBCHEM_COMPONENT_COUNT>  (1) 
1

>  <PUBCHEM_CACTVS_TAUTO_COUNT>  (1) 
1

>  <PUBCHEM_CONFORMER_ID>  (1) 
00007A9E00000001

>  <PUBCHEM_MMFF94_ENERGY>  (1) 
48.854

>  <PUBCHEM_FEATURE_SELFOVERLAP>  (1) 
35.538

>  <PUBCHEM_SHAPE_FINGERPRINT>  (1) 
11640471 11 18115016536801257136
128993 33 18191051016957168220
13134695 92 17609482839885047086
13693222 7 18262808496102699652
13764800 53 18123203547483762890
14713325 29 16887848396937638006
15276787 5 15719658901398933260
15775835 57 18410855460212954112
16945 1 18126848419850325855
18186145 218 18201730517700156301
18522851 12 9727362384370706764
18981168 100 18194146168138152286
192875 21 18194942244452959668
19765921 60 18342730819546759875
20510252 161 17978231891516220418
21524375 3 18407760347791612139
22802520 49 17557457493454670516
23419403 2 14820179199376461915
23557571 272 17769097083384597854
23558518 356 18335420222389670322
23559900 14 17987536909126985956
2748010 2 18266200416212083199
305870 269 18336260150393428714
3060560 45 18054506902810012319
350125 39 18338816583684940526
474 4 18334294232478054677
49207404 50 18117586001334281897
5262128 65 16415213285840812552
526903 126 18129941299052230345
568465 68 14057819695676075368
6333272 397 18334858346335548969
7364860 26 18054505799024437855
7832392 63 17694225461081367033
81228 2 17834696150104895602
9981440 41 18127962217119454186

>  <PUBCHEM_SHAPE_MULTIPOLES>  (1) 
332
5.39
2.98
1.32
0.52
1.38
0.05
-4.62
-0.2
0.65
0.04
-0.36
-0.01
-0.42

>  <PUBCHEM_SHAPE_SELFOVERLAP>  (1) 
696.975

>  <PUBCHEM_SHAPE_VOLUME>  (1) 
186.7

>  <PUBCHEM_COORDINATE_TYPE>  (1) 
2
5
10

$$$$
