3139
     RDKit          3D

 20 22  0  0  0  0  0  0  0  0999 V2000
   -1.6137   -2.4021    0.5274 O   0  0  0  0  0  0  0  0  0  0  0  0
   -4.9253    0.9498   -0.0535 O   0  0  0  0  0  0  0  0  0  0  0  0
   -0.3320    2.1696   -0.3329 N   0  0  0  0  0  0  0  0  0  0  0  0
    5.5408   -0.4169    0.0773 N   0  0  0  0  0  0  0  0  0  0  0  0
   -0.9205   -0.1271    0.0986 C   0  0  0  0  0  0  0  0  0  0  0  0
   -1.2665    1.2184   -0.1463 C   0  0  0  0  0  0  0  0  0  0  0  0
    1.4050    0.5175   -0.0469 C   0  0  0  0  0  0  0  0  0  0  0  0
    0.4399   -0.4605    0.1450 C   0  0  0  0  0  0  0  0  0  0  0  0
   -1.9223   -1.0939    0.2889 C   0  0  0  0  0  0  0  0  0  0  0  0
   -2.6180    1.5492   -0.1922 C   0  0  0  0  0  0  0  0  0  0  0  0
    2.8126    0.1993   -0.0043 C   0  0  0  0  0  0  0  0  0  0  0  0
   -3.6141    0.5881   -0.0030 C   0  0  0  0  0  0  0  0  0  0  0  0
   -3.2662   -0.7353    0.2379 C   0  0  0  0  0  0  0  0  0  0  0  0
    0.9699    1.8062   -0.2804 C   0  0  0  0  0  0  0  0  0  0  0  0
    3.2579   -1.0624   -0.3877 C   0  0  0  0  0  0  0  0  0  0  0  0
    3.7340    1.1524    0.4201 C   0  0  0  0  0  0  0  0  0  0  0  0
    4.6185   -1.3179   -0.3294 C   0  0  0  0  0  0  0  0  0  0  0  0
    5.0733    0.7979    0.4424 C   0  0  0  0  0  0  0  0  0  0  0  0
   -1.4821   -3.2517   -0.6091 C   0  0  0  0  0  0  0  0  0  0  0  0
   -5.8913   -0.0806    0.1481 C   0  0  0  0  0  0  0  0  0  0  0  0
  1  9  1  0
  1 19  1  0
  2 12  1  0
  2 20  1  0
  3  6  2  0
  3 14  1  0
  4 17  2  0
  4 18  1  0
  5  6  1  0
  5  8  2  0
  5  9  1  0
  6 10  1  0
  7  8  1  0
  7 11  1  0
  7 14  2  0
  9 13  2  0
 10 12  2  0
 11 15  2  0
 11 16  1  0
 12 13  1  0
 15 17  1  0
 16 18  2  0
M  END
>  <PUBCHEM_COMPOUND_CID>  (1) 
3139

>  <PUBCHEM_CONFORMER_RMSD>  (1) 
0.6

>  <PUBCHEM_CONFORMER_DIVERSEORDER>  (1) 
1
2
3

>  <PUBCHEM_MMFF94_PARTIAL_CHARGES>  (1) 
25
1 -0.36
10 -0.15
12 0.08
13 -0.15
14 0.16
15 -0.15
16 -0.15
17 0.16
18 0.16
19 0.28
2 -0.36
20 0.28
21 0.15
22 0.15
23 0.15
24 0.15
25 0.15
26 0.15
27 0.15
28 0.15
3 -0.62
4 -0.62
6 0.31
8 -0.15
9 0.08

>  <PUBCHEM_EFFECTIVE_ROTOR_COUNT>  (1) 
3

>  <PUBCHEM_PHARMACOPHORE_FEATURES>  (1) 
7
1 1 acceptor
1 2 acceptor
1 3 acceptor
1 4 acceptor
6 3 5 6 7 8 14 rings
6 4 11 15 16 17 18 rings
6 5 6 9 10 12 13 rings

>  <PUBCHEM_HEAVY_ATOM_COUNT>  (1) 
20

>  <PUBCHEM_ATOM_DEF_STEREO_COUNT>  (1) 
0

>  <PUBCHEM_ATOM_UDEF_STEREO_COUNT>  (1) 
0

>  <PUBCHEM_BOND_DEF_STEREO_COUNT>  (1) 
0

>  <PUBCHEM_BOND_UDEF_STEREO_COUNT>  (1) 
0

>  <PUBCHEM_ISOTOPIC_ATOM_COUNT>  (1) 
0

>  <PUBCHEM_COMPONENT_COUNT>  (1) 
1

>  <PUBCHEM_CACTVS_TAUTO_COUNT>  (1) 
1

>  <PUBCHEM_CONFORMER_ID>  (1) 
00000C4300000001

>  <PUBCHEM_MMFF94_ENERGY>  (1) 
86.4581

>  <PUBCHEM_FEATURE_SELFOVERLAP>  (1) 
35.555

>  <PUBCHEM_SHAPE_FINGERPRINT>  (1) 
10366900 7 17203895171377917514
10616163 171 18411420656919769390
10906281 52 18199488647782430645
11578080 2 17201345523782000939
12011746 2 18335417946356936845
12236239 1 17240202114594784088
12596602 18 14333113192345648646
12715332 25 18342740749822585679
12969540 114 18262498322333781349
13140716 1 18192434284336813441
13402501 40 18341334413967885166
13533116 47 17703792475142777218
13544592 145 18271817774274761918
13862211 1 18408037403695361683
14115302 16 18114190751923604172
14617045 38 18410019810365225126
14790565 3 18338241466305590385
15042514 8 18263649622951973379
15099037 51 18408041814584394815
15196674 1 18409730698392946875
15375358 24 18272090495981412158
17804303 29 18411140263752324440
17980427 23 17751355312789078476
1813 80 17167864162514281684
19141452 34 18341331175335586615
19591789 44 18265614273424837339
200 152 17703787007258863401
20028762 73 18201156659268996591
20510252 161 18270962323699747225
20645477 56 18409447007234379441
20645477 70 17845939529052298398
21029758 11 18342453738195602897
21033648 29 18341315726507587065
21065198 57 18413106186838515072
21267235 1 18335991899562909200
21279426 13 18193555562790221981
21478907 32 17907577279149002319
21859007 373 17751335362033460157
23175994 123 17561085799816160688
23366157 5 17679863992592864916
23402539 116 18343014498021138861
23558518 356 17682118025351083594
23559900 14 18341610456269908792
266924 87 18049715227252731773
26918003 58 18201718457911770976
283562 15 18340205164345475273
3004659 81 18187087226763987974
3178227 256 18335717052738815977
335352 9 18409167714396409141
34934 24 18408599288401987106
3545911 37 18411982464522276368
4214541 1 18411138047812638544
5104073 3 18410012182170700072
559249 180 17970057851919616690
6138700 20 18336829676111007447
69090 78 18411980256355152823
9709674 26 18342742901490658790

>  <PUBCHEM_SHAPE_MULTIPOLES>  (1) 
389.89
11.09
2.37
0.68
2.44
1.45
0
-0.11
-0.75
-0.88
0.33
0.06
0.06
0.4

>  <PUBCHEM_SHAPE_SELFOVERLAP>  (1) 
862.873

>  <PUBCHEM_SHAPE_VOLUME>  (1) 
208.8

>  <PUBCHEM_COORDINATE_TYPE>  (1) 
2
5
10

$$$$
