314
     RDKit          3D

 21 22  0  0  1  0  0  0  0  0999 V2000
    4.5912    1.2686   -0.2251 P   0  0  0  0  0  0  0  0  0  0  0  0
    0.4420    0.0114   -0.3834 O   0  0  0  0  0  0  0  0  0  0  0  0
    1.1633   -2.8724    1.6114 O   0  0  0  0  0  0  0  0  0  0  0  0
   -1.2804   -3.1018   -0.2892 O   0  0  0  0  0  0  0  0  0  0  0  0
    3.0877    0.8217    0.1738 O   0  0  0  0  0  0  0  0  0  0  0  0
   -3.2954   -0.9585   -1.8183 O   0  0  0  0  0  0  0  0  0  0  0  0
    4.7975    0.6459   -1.7034 O   0  0  0  0  0  0  0  0  0  0  0  0
    5.5086    0.3198    0.7093 O   0  0  0  0  0  0  0  0  0  0  0  0
    4.8696    2.7381   -0.1033 O   0  0  0  0  0  0  0  0  0  0  0  0
   -1.9257    0.0462   -0.2562 N   0  0  0  0  0  0  0  0  0  0  0  0
   -4.2378    0.6720   -0.5513 N   0  0  0  0  0  0  0  0  0  0  0  0
   -5.1969    2.3446    0.7489 N   0  0  0  0  0  0  0  0  0  0  0  0
    0.8175   -2.1622    0.4382 C   0  0  0  0  0  0  0  0  0  0  0  0
   -0.6770   -1.9696    0.3111 C   0  0  0  0  0  0  0  0  0  0  0  0
    1.2969   -0.7241    0.5059 C   0  0  0  0  0  0  0  0  0  0  0  0
   -0.7658   -0.7440   -0.5877 C   0  0  0  0  0  0  0  0  0  0  0  0
    2.7450   -0.5517    0.0853 C   0  0  0  0  0  0  0  0  0  0  0  0
   -1.8183    0.9991    0.7453 C   0  0  0  0  0  0  0  0  0  0  0  0
   -3.1661   -0.1221   -0.9226 C   0  0  0  0  0  0  0  0  0  0  0  0
   -2.8365    1.7732    1.1160 C   0  0  0  0  0  0  0  0  0  0  0  0
   -4.1195    1.5657    0.3953 C   0  0  0  0  0  0  0  0  0  0  0  0
  1  5  1  0
  1  7  1  0
  1  8  1  0
  1  9  2  0
  2 15  1  0
  2 16  1  0
  3 13  1  0
  4 14  1  0
  5 17  1  0
  6 19  2  0
 10 16  1  0
 10 18  1  0
 10 19  1  0
 11 19  1  0
 11 21  2  0
 12 21  1  0
 13 14  1  0
 13 15  1  0
 14 16  1  0
 15 17  1  0
 18 20  2  0
 20 21  1  0
M  END
>  <PUBCHEM_COMPOUND_CID>  (1) 
314

>  <PUBCHEM_CONFORMER_RMSD>  (1) 
0.8

>  <PUBCHEM_CONFORMER_DIVERSEORDER>  (1) 
1
32
118
120
116
131
53
75
100
11
109
157
39
106
138
25
84
170
176
156
7
72
160
10
122
71
171
41
161
61
97
142
83
60
36
167
57
152
155
18
79
133
137
94
164
54
132
163
174
119
143
51
27
91
93
175
144
178
153
90
67
95
12
52
117
108
68
134
48
114
35
43
59
47
177
46
74
9
17
148
165
28
121
78
169
49
159
150
162
82
158
29
166
86
96
110
139
5
26
34
179
31
66
126
38
30
173
151
15
99
107
33
149
87
6
140
44
19
14
147
77
103
92
172
2
112
101
115
69
73
80
111
104
105
8
136
64
58
45
89
128
37
146
21
130
63
98
40
145
88
135
55
20
13
81
23
24
154
123
42
127
50
125
113
4
124
22
168
62
3
102
16
85
56
141
129
70
65
76

>  <PUBCHEM_MMFF94_PARTIAL_CHARGES>  (1) 
29
1 1.51
10 -0.47
11 -0.66
12 -0.85
13 0.28
14 0.28
15 0.28
16 0.58
17 0.28
18 -0.04
19 0.84
2 -0.56
20 -0.14
21 0.49
28 0.4
29 0.4
3 -0.68
30 0.15
31 0.15
32 0.4
33 0.4
34 0.5
35 0.5
4 -0.68
5 -0.55
6 -0.57
7 -0.77
8 -0.77
9 -0.7

>  <PUBCHEM_EFFECTIVE_ROTOR_COUNT>  (1) 
5

>  <PUBCHEM_PHARMACOPHORE_FEATURES>  (1) 
14
1 11 donor
1 12 donor
1 2 acceptor
1 3 acceptor
1 3 donor
1 4 acceptor
1 4 donor
1 6 acceptor
1 7 acceptor
1 8 acceptor
1 9 acceptor
4 1 7 8 9 anion
5 2 13 14 15 16 rings
6 10 11 18 19 20 21 rings

>  <PUBCHEM_HEAVY_ATOM_COUNT>  (1) 
21

>  <PUBCHEM_ATOM_DEF_STEREO_COUNT>  (1) 
0

>  <PUBCHEM_ATOM_UDEF_STEREO_COUNT>  (1) 
4

>  <PUBCHEM_BOND_DEF_STEREO_COUNT>  (1) 
0

>  <PUBCHEM_BOND_UDEF_STEREO_COUNT>  (1) 
0

>  <PUBCHEM_ISOTOPIC_ATOM_COUNT>  (1) 
0

>  <PUBCHEM_COMPONENT_COUNT>  (1) 
1

>  <PUBCHEM_CACTVS_TAUTO_COUNT>  (1) 
3

>  <PUBCHEM_CONFORMER_ID>  (1) 
0000013A00000001

>  <PUBCHEM_MMFF94_ENERGY>  (1) 
22.2136

>  <PUBCHEM_FEATURE_SELFOVERLAP>  (1) 
71.133

>  <PUBCHEM_SHAPE_FINGERPRINT>  (1) 
11045977 3 14056999438357944468
12390115 104 18262815067413146978
12644460 14 17822846464706412338
12788726 201 17685513326132836350
12892183 10 13406791134012607356
13544653 18 11024110958215485394
13583140 156 15791718707276252028
13828863 39 14636872065874403686
14123255 52 18410014312400793920
1420 369 9223232931897637324
14251764 38 18055907951655586208
14790565 3 18411141311777546993
15342168 16 18334299729983251381
15534591 1 18343582945126692279
1741750 31 18410857689643768234
17834072 32 18335707190987917264
1813 80 17619346507343477498
18222031 100 9439398017281904884
19784866 240 9223220854507402689
19784866 34 18408040710487779376
200 152 12103847856096020780
20300324 65 17917426578980354653
204376 136 18114184137642300018
21524375 3 18409725162607617146
21756936 100 18341895211831097346
22079108 93 18334023795577428769
2255824 54 18121778327038131171
22620623 9 16199567183161177117
23175994 123 12823295727836910699
23402539 116 18201993339776299420
23558518 356 18046629185712368512
23559900 14 17130140884764415999
25147074 1 18268973333309352807
283562 15 17972878347863108650
3472631 163 18202004300580844477
38570 142 18127714659014299737
394222 165 18263358109861239163
474 4 18335420153569395168
5104073 3 17968649549602683400
59755656 520 18408325479746876982
6034566 193 17460613638793561484
633830 44 18411418384517806886

>  <PUBCHEM_SHAPE_MULTIPOLES>  (1) 
374.12
10.64
2.91
1.19
7.04
1.1
0.2
-9.9
1.09
-0.05
-0.8
-0.17
0.23
-1.66

>  <PUBCHEM_SHAPE_SELFOVERLAP>  (1) 
766.998

>  <PUBCHEM_SHAPE_VOLUME>  (1) 
217.3

>  <PUBCHEM_COORDINATE_TYPE>  (1) 
2
5
10

$$$$
