31401
     RDKit          3D

 28 31  0  0  1  0  0  0  0  0999 V2000
    1.6855   -3.3699    0.0247 O   0  0  0  0  0  0  0  0  0  0  0  0
    5.6807    1.4528    2.3679 O   0  0  0  0  0  0  0  0  0  0  0  0
   -7.3843    1.1684   -0.8260 O   0  0  0  0  0  0  0  0  0  0  0  0
   -6.4283   -0.8845   -0.6579 O   0  0  0  0  0  0  0  0  0  0  0  0
   -0.0620   -0.9320    0.4172 C   0  0  0  0  0  0  0  0  0  0  0  0
   -1.0600    0.0790   -0.1942 C   0  0  0  0  0  0  0  0  0  0  0  0
    1.2677   -1.0097   -0.3595 C   0  0  0  0  0  0  0  0  0  0  0  0
    1.9218    0.4148   -0.3529 C   0  0  0  0  0  0  0  0  0  0  0  0
    3.3176    0.4374   -1.0818 C   0  0  0  0  0  0  0  0  0  0  0  0
   -2.2512   -0.1226    0.7744 C   0  0  0  0  0  0  0  0  0  0  0  0
    4.2522   -0.6434   -0.4473 C   0  0  0  0  0  0  0  0  0  0  0  0
   -0.4237    1.4727   -0.1317 C   0  0  0  0  0  0  0  0  0  0  0  0
    0.9368    1.5082   -0.8461 C   0  0  0  0  0  0  0  0  0  0  0  0
    2.2272   -2.0647    0.2252 C   0  0  0  0  0  0  0  0  0  0  0  0
   -0.9115   -2.1869    0.6096 C   0  0  0  0  0  0  0  0  0  0  0  0
   -2.3109   -1.6536    0.9664 C   0  0  0  0  0  0  0  0  0  0  0  0
    3.6032   -2.0322   -0.4401 C   0  0  0  0  0  0  0  0  0  0  0  0
    4.0268    1.8194   -0.9738 C   0  0  0  0  0  0  0  0  0  0  0  0
   -1.4678   -0.2422   -1.6542 C   0  0  0  0  0  0  0  0  0  0  0  0
   -3.5855    0.4731    0.3487 C   0  0  0  0  0  0  0  0  0  0  0  0
    4.7255   -0.2665    0.9719 C   0  0  0  0  0  0  0  0  0  0  0  0
    3.1553    0.1534   -2.5976 C   0  0  0  0  0  0  0  0  0  0  0  0
    4.4630    2.1812    0.4405 C   0  0  0  0  0  0  0  0  0  0  0  0
    5.3791    1.1112    1.0193 C   0  0  0  0  0  0  0  0  0  0  0  0
   -4.6706    0.1483    1.3958 C   0  0  0  0  0  0  0  0  0  0  0  0
   -3.4387    1.9814    0.1220 C   0  0  0  0  0  0  0  0  0  0  0  0
   -6.0331    0.7706    1.0844 C   0  0  0  0  0  0  0  0  0  0  0  0
   -6.6151    0.2361   -0.2049 C   0  0  0  0  0  0  0  0  0  0  0  0
  1 14  1  0
  2 24  1  0
  3 28  1  0
  4 28  2  0
  5  6  1  0
  5  7  1  0
  5 15  1  0
  6 10  1  0
  6 12  1  0
  6 19  1  0
  7  8  1  0
  7 14  1  0
  8  9  1  0
  8 13  1  0
  9 11  1  0
  9 18  1  0
  9 22  1  0
 10 16  1  0
 10 20  1  0
 11 17  1  0
 11 21  1  0
 12 13  1  0
 14 17  1  0
 15 16  1  0
 18 23  1  0
 20 25  1  0
 20 26  1  0
 21 24  1  0
 23 24  1  0
 25 27  1  0
 27 28  1  0
M  END
>  <PUBCHEM_COMPOUND_CID>  (1) 
31401

>  <PUBCHEM_CONFORMER_RMSD>  (1) 
0.8

>  <PUBCHEM_CONFORMER_DIVERSEORDER>  (1) 
1
4
3
5
2

>  <PUBCHEM_MMFF94_PARTIAL_CHARGES>  (1) 
11
1 -0.68
14 0.28
2 -0.68
24 0.28
27 0.06
28 0.66
3 -0.65
4 -0.57
61 0.4
65 0.4
68 0.5

>  <PUBCHEM_EFFECTIVE_ROTOR_COUNT>  (1) 
6.2

>  <PUBCHEM_PHARMACOPHORE_FEATURES>  (1) 
12
1 1 acceptor
1 1 donor
1 2 acceptor
1 2 donor
1 26 hydrophobe
1 3 acceptor
1 4 acceptor
3 3 4 28 anion
5 5 6 10 15 16 rings
6 5 6 7 8 12 13 rings
6 7 8 9 11 14 17 rings
6 9 11 18 21 23 24 rings

>  <PUBCHEM_HEAVY_ATOM_COUNT>  (1) 
28

>  <PUBCHEM_ATOM_DEF_STEREO_COUNT>  (1) 
10

>  <PUBCHEM_ATOM_UDEF_STEREO_COUNT>  (1) 
0

>  <PUBCHEM_BOND_DEF_STEREO_COUNT>  (1) 
0

>  <PUBCHEM_BOND_UDEF_STEREO_COUNT>  (1) 
0

>  <PUBCHEM_ISOTOPIC_ATOM_COUNT>  (1) 
0

>  <PUBCHEM_COMPONENT_COUNT>  (1) 
1

>  <PUBCHEM_CACTVS_TAUTO_COUNT>  (1) 
1

>  <PUBCHEM_CONFORMER_ID>  (1) 
00007AA900000001

>  <PUBCHEM_MMFF94_ENERGY>  (1) 
96.9253

>  <PUBCHEM_FEATURE_SELFOVERLAP>  (1) 
61.082

>  <PUBCHEM_SHAPE_FINGERPRINT>  (1) 
10 15 18040436632824233504
10411042 1 17759243990458962754
11089746 13 18130515166590497674
11796584 16 14851900144186995584
11961588 58 15051732027681063728
12236239 1 17989207023748729199
12422481 6 17749387078762049094
12596602 18 17632580435626925491
12633257 1 17240766220147648378
13140716 1 18190184683620308064
13224815 77 18341053008026863518
13533116 47 18342183206853318258
13782708 43 16443925971775763953
14178342 30 18263647419401498906
14787075 74 18342178856372947777
15142383 8 15719384045035215884
15183329 4 16443067184396040909
17349148 13 18113622287147726564
1813 80 16153718638502919479
18335252 98 16056599898025121071
1979834 28 18334023778213111878
20157964 124 18410295792025717739
20511986 3 18342728620761231751
20715895 44 18333732428942921073
21033648 29 17676206849799623205
21150785 3 15410894085042178729
21792934 111 18261668161032548913
21859007 373 17241030017054942909
22149856 69 18265357074568258939
22182313 1 17823130138204984695
22224240 67 18341607149097338912
2303208 19 12751235892326980233
23559900 14 18188512206122804558
24771293 8 18272089422008213801
3004659 81 17458635509905862700
335352 9 18335991900402062942
3472631 163 17417808491556885376
34797466 226 16988569000306368537
350125 39 18334586715940865134
4072396 5 18113897173881871536
4093350 32 17417823807246648029
4112364 45 16486386864720497754
42630746 31 18411139121501831934
4340502 62 18411136939405133986
495365 180 18131637772890667286
5104073 3 18190470367986826921
513532 50 18060148604947453438
59755656 215 18187652362075301135
6004065 56 18339357582719654593
70251023 43 16772412620894215382

>  <PUBCHEM_SHAPE_MULTIPOLES>  (1) 
552.75
14.96
2.41
1.54
19.47
1.07
-0.18
-5.77
2.45
-1.83
0.21
-1.4
-0.38
0.7

>  <PUBCHEM_SHAPE_SELFOVERLAP>  (1) 
1158.071

>  <PUBCHEM_SHAPE_VOLUME>  (1) 
310.7

>  <PUBCHEM_COORDINATE_TYPE>  (1) 
2
5
10

$$$$
