31406
     RDKit          3D

 40 42  0  0  1  0  0  0  0  0999 V2000
    0.8970    0.1264   -0.2373 O   0  0  0  0  0  0  0  0  0  0  0  0
   -0.3414   -0.9003   -1.9564 O   0  0  0  0  0  0  0  0  0  0  0  0
   -2.6206    0.6593   -0.6046 O   0  0  0  0  0  0  0  0  0  0  0  0
   -2.1824    2.0581   -2.8418 O   0  0  0  0  0  0  0  0  0  0  0  0
   -2.6568   -0.1833    1.6072 O   0  0  0  0  0  0  0  0  0  0  0  0
    0.5966   -0.0252    2.5366 O   0  0  0  0  0  0  0  0  0  0  0  0
    5.0606   -0.6929   -0.7546 O   0  0  0  0  0  0  0  0  0  0  0  0
    3.1501    1.0565    3.2661 O   0  0  0  0  0  0  0  0  0  0  0  0
    0.0376    3.4046   -1.8369 O   0  0  0  0  0  0  0  0  0  0  0  0
   -6.7147    0.4043    1.0927 O   0  0  0  0  0  0  0  0  0  0  0  0
   -5.6668   -2.2501    1.1285 O   0  0  0  0  0  0  0  0  0  0  0  0
   -1.5131   -2.6391    2.0234 O   0  0  0  0  0  0  0  0  0  0  0  0
    2.4921   -1.7717   -1.5590 N   0  0  0  0  0  0  0  0  0  0  0  0
   -4.8141    2.3930    0.0115 N   0  0  0  0  0  0  0  0  0  0  0  0
    4.8535    1.6497    0.9625 N   0  0  0  0  0  0  0  0  0  0  0  0
    2.1499   -4.0126   -0.7645 N   0  0  0  0  0  0  0  0  0  0  0  0
    1.8930   -3.5013   -2.9708 N   0  0  0  0  0  0  0  0  0  0  0  0
    6.9256    2.6506    0.7679 N   0  0  0  0  0  0  0  0  0  0  0  0
    6.8960    0.3881    1.0423 N   0  0  0  0  0  0  0  0  0  0  0  0
   -1.2588    0.9993   -0.8580 C   0  0  0  0  0  0  0  0  0  0  0  0
   -1.0719    1.3347   -2.3341 C   0  0  0  0  0  0  0  0  0  0  0  0
   -0.4024   -0.2472   -0.6771 C   0  0  0  0  0  0  0  0  0  0  0  0
    1.5134   -0.9274    0.5087 C   0  0  0  0  0  0  0  0  0  0  0  0
   -0.9064   -0.0489   -2.9731 C   0  0  0  0  0  0  0  0  0  0  0  0
    2.8094   -1.3432   -0.1884 C   0  0  0  0  0  0  0  0  0  0  0  0
    1.8187   -0.4341    1.9238 C   0  0  0  0  0  0  0  0  0  0  0  0
    3.8205   -0.1911   -0.2494 C   0  0  0  0  0  0  0  0  0  0  0  0
    2.8067    0.7380    1.9144 C   0  0  0  0  0  0  0  0  0  0  0  0
    4.0882    0.4028    1.1405 C   0  0  0  0  0  0  0  0  0  0  0  0
   -2.9867    0.9140    0.7504 C   0  0  0  0  0  0  0  0  0  0  0  0
    0.1802    2.1932   -2.5590 C   0  0  0  0  0  0  0  0  0  0  0  0
   -4.4655    1.2954    0.9138 C   0  0  0  0  0  0  0  0  0  0  0  0
   -5.3823    0.0862    0.6850 C   0  0  0  0  0  0  0  0  0  0  0  0
   -2.1891   -0.7040   -3.4752 C   0  0  0  0  0  0  0  0  0  0  0  0
   -4.9127   -1.1067    1.5252 C   0  0  0  0  0  0  0  0  0  0  0  0
   -3.4137   -1.3662    1.3334 C   0  0  0  0  0  0  0  0  0  0  0  0
   -2.8947   -2.4537    2.2703 C   0  0  0  0  0  0  0  0  0  0  0  0
    2.2013   -3.0218   -1.7196 C   0  0  0  0  0  0  0  0  0  0  0  0
   -3.9362    3.5327    0.2247 C   0  0  0  0  0  0  0  0  0  0  0  0
    6.1401    1.5339    0.9308 C   0  0  0  0  0  0  0  0  0  0  0  0
  1 22  1  0
  1 23  1  0
  2 22  1  0
  2 24  1  0
  3 20  1  0
  3 30  1  0
  4 21  1  0
  5 30  1  0
  5 36  1  0
  6 26  1  0
  7 27  1  0
  8 28  1  0
  9 31  1  0
 10 33  1  0
 11 35  1  0
 12 37  1  0
 13 25  1  0
 13 38  2  3
 14 32  1  0
 14 39  1  0
 15 29  1  0
 15 40  2  3
 16 38  1  0
 17 38  1  0
 18 40  1  0
 19 40  1  0
 20 21  1  0
 20 22  1  0
 21 24  1  0
 21 31  1  0
 23 25  1  0
 23 26  1  0
 24 34  1  0
 25 27  1  0
 26 28  1  0
 27 29  1  0
 28 29  1  0
 30 32  1  0
 32 33  1  0
 33 35  1  0
 35 36  1  0
 36 37  1  0
M  END
>  <PUBCHEM_COMPOUND_CID>  (1) 
31406

>  <PUBCHEM_CONFORMER_RMSD>  (1) 
1.2

>  <PUBCHEM_CONFORMER_DIVERSEORDER>  (1) 
3
43
107
112
134
132
168
29
99
64
89
167
52
141
165
119
160
65
131
109
133
72
104
139
90
76
35
169
63
135
15
161
69
118
50
154
128
57
79
144
121
147
114
106
20
48
163
71
120
97
86
126
164
150
75
138
58
113
4
55
101
93
117
152
136
92
17
103
94
140
149
31
70
62
66
98
5
115
49
38
166
158
87
111
157
95
45
54
7
162
116
6
42
159
124
108
32
24
34
53
156
96
18
143
85
10
47
145
155
146
22
84
59
123
82
137
2
13
142
67
74
151
1
83
88
102
125
91
100
77
80
81
127
61
11
30
68
73
105
23
36
39
40
153
148
9
19
60
37
8
28
78
130
44
110
122
33
27
129
25
56
21
46
41
16
12
51
14
26

>  <PUBCHEM_MMFF94_PARTIAL_CHARGES>  (1) 
56
1 -0.56
10 -0.68
11 -0.68
12 -0.68
13 -0.7
14 -0.9
15 -0.7
16 -0.85
17 -0.85
18 -0.85
19 -0.85
2 -0.56
20 0.28
21 0.28
22 0.56
23 0.28
24 0.28
25 0.25
26 0.28
27 0.28
28 0.28
29 0.25
3 -0.56
30 0.56
31 0.28
32 0.27
33 0.28
35 0.28
36 0.28
37 0.28
38 0.55
39 0.27
4 -0.68
40 0.55
5 -0.56
6 -0.68
60 0.4
61 0.36
62 0.4
63 0.4
64 0.4
67 0.4
68 0.4
69 0.4
7 -0.68
73 0.4
74 0.4
75 0.4
76 0.4
77 0.4
78 0.4
79 0.4
8 -0.68
80 0.4
81 0.4
9 -0.68

>  <PUBCHEM_EFFECTIVE_ROTOR_COUNT>  (1) 
12.4

>  <PUBCHEM_PHARMACOPHORE_FEATURES>  (1) 
31
1 1 acceptor
1 10 acceptor
1 10 donor
1 11 acceptor
1 11 donor
1 12 acceptor
1 12 donor
1 14 cation
1 14 donor
1 16 donor
1 17 donor
1 18 donor
1 19 donor
1 2 acceptor
1 3 acceptor
1 4 acceptor
1 4 donor
1 5 acceptor
1 6 acceptor
1 6 donor
1 7 acceptor
1 7 donor
1 8 acceptor
1 8 donor
1 9 acceptor
1 9 donor
4 13 16 17 38 cation
4 15 18 19 40 cation
5 2 20 21 22 24 rings
6 23 25 26 27 28 29 rings
6 5 30 32 33 35 36 rings

>  <PUBCHEM_HEAVY_ATOM_COUNT>  (1) 
40

>  <PUBCHEM_ATOM_DEF_STEREO_COUNT>  (1) 
14

>  <PUBCHEM_ATOM_UDEF_STEREO_COUNT>  (1) 
1

>  <PUBCHEM_BOND_DEF_STEREO_COUNT>  (1) 
0

>  <PUBCHEM_BOND_UDEF_STEREO_COUNT>  (1) 
0

>  <PUBCHEM_ISOTOPIC_ATOM_COUNT>  (1) 
0

>  <PUBCHEM_COMPONENT_COUNT>  (1) 
1

>  <PUBCHEM_CACTVS_TAUTO_COUNT>  (1) 
4

>  <PUBCHEM_CONFORMER_ID>  (1) 
00007AAE00000003

>  <PUBCHEM_MMFF94_ENERGY>  (1) 
137.2581

>  <PUBCHEM_FEATURE_SELFOVERLAP>  (1) 
157.597

>  <PUBCHEM_SHAPE_FINGERPRINT>  (1) 
10165383 225 18130787884735670024
10190108 129 17487328498731670775
10369192 42 18339642343335907740
11578080 2 18271252608060031089
12128747 34 17984995795235102553
12156800 1 16980709901612976806
12166972 35 13840269238071544362
12422481 6 18116998982320842680
12553582 1 16878242865614576809
12655364 74 17615696567432827612
12788726 201 16732989686797974909
13583140 156 17846779577236487039
13636023 51 18268995288844345687
13782708 43 18339371759837610094
14068700 675 17896320397556767547
14705955 166 18340772529367262105
14840074 17 16515412854342663027
14910302 57 18041849389307219635
15264996 19 16701730670732779535
17349148 13 14056724521912267544
19319366 153 17418094304561412686
20600515 1 17822587082941030435
21033648 29 18263937561817275489
23559900 14 18119547456763077263
3493558 16 18263942066621465872
392239 28 16878217654231084320
469060 322 18198038447895643695
563151 40 17560521828013963990
59755656 520 16343424006978129463

>  <PUBCHEM_SHAPE_MULTIPOLES>  (1) 
717.88
13.08
3.59
3.42
5.8
0.37
2.12
-3.9
-9.09
-0.83
1.31
0.41
0.65
3.44

>  <PUBCHEM_SHAPE_SELFOVERLAP>  (1) 
1487.571

>  <PUBCHEM_SHAPE_VOLUME>  (1) 
402.2

>  <PUBCHEM_COORDINATE_TYPE>  (1) 
2
5
10

$$$$
