31418
     RDKit          3D

 19 21  0  0  0  0  0  0  0  0999 V2000
    1.5413   -3.8212    0.0407 Br  0  0  0  0  0  0  0  0  0  0  0  0
   -0.0115    2.5596   -0.1029 O   0  0  0  0  0  0  0  0  0  0  0  0
   -1.0694   -2.6721    0.0656 O   0  0  0  0  0  0  0  0  0  0  0  0
    2.5716    2.1908   -0.1444 N   0  0  0  0  0  0  0  0  0  0  0  0
    0.8967    0.3710   -0.0604 C   0  0  0  0  0  0  0  0  0  0  0  0
    0.6279   -0.9987   -0.0170 C   0  0  0  0  0  0  0  0  0  0  0  0
   -1.6013    0.8623   -0.0227 C   0  0  0  0  0  0  0  0  0  0  0  0
   -1.8700   -0.5074    0.0211 C   0  0  0  0  0  0  0  0  0  0  0  0
   -0.2082    1.3515   -0.0652 C   0  0  0  0  0  0  0  0  0  0  0  0
    2.2216    0.8216   -0.1000 C   0  0  0  0  0  0  0  0  0  0  0  0
   -0.7653   -1.4880    0.0256 C   0  0  0  0  0  0  0  0  0  0  0  0
    1.6841   -1.9177   -0.0137 C   0  0  0  0  0  0  0  0  0  0  0  0
    3.2711   -0.0975   -0.0963 C   0  0  0  0  0  0  0  0  0  0  0  0
   -2.6574    1.7813   -0.0267 C   0  0  0  0  0  0  0  0  0  0  0  0
   -3.1950   -0.9581    0.0608 C   0  0  0  0  0  0  0  0  0  0  0  0
    3.0029   -1.4643   -0.0534 C   0  0  0  0  0  0  0  0  0  0  0  0
   -3.9763    1.3278    0.0129 C   0  0  0  0  0  0  0  0  0  0  0  0
   -4.2445   -0.0389    0.0564 C   0  0  0  0  0  0  0  0  0  0  0  0
    3.7818    2.6983    0.4195 C   0  0  0  0  0  0  0  0  0  0  0  0
  1 12  1  0
  2  9  2  0
  3 11  2  0
  4 10  1  0
  4 19  1  0
  5  6  2  0
  5  9  1  0
  5 10  1  0
  6 11  1  0
  6 12  1  0
  7  8  2  0
  7  9  1  0
  7 14  1  0
  8 11  1  0
  8 15  1  0
 10 13  2  0
 12 16  2  0
 13 16  1  0
 14 17  2  0
 15 18  2  0
 17 18  1  0
M  END
>  <PUBCHEM_COMPOUND_CID>  (1) 
31418

>  <PUBCHEM_CONFORMER_RMSD>  (1) 
0.6

>  <PUBCHEM_CONFORMER_DIVERSEORDER>  (1) 
1

>  <PUBCHEM_MMFF94_PARTIAL_CHARGES>  (1) 
26
1 -0.11
10 0.1
11 0.4
12 0.11
13 -0.15
14 -0.15
15 -0.15
16 -0.15
17 -0.15
18 -0.15
19 0.37
2 -0.57
20 0.15
21 0.15
22 0.15
23 0.15
24 0.4
25 0.15
26 0.15
3 -0.57
4 -0.87
5 0.09
6 0.09
7 0.09
8 0.09
9 0.4

>  <PUBCHEM_EFFECTIVE_ROTOR_COUNT>  (1) 
1

>  <PUBCHEM_PHARMACOPHORE_FEATURES>  (1) 
8
1 1 hydrophobe
1 2 acceptor
1 3 acceptor
1 4 cation
1 4 donor
6 5 6 10 12 13 16 rings
6 5 6 7 8 9 11 rings
6 7 8 14 15 17 18 rings

>  <PUBCHEM_HEAVY_ATOM_COUNT>  (1) 
19

>  <PUBCHEM_ATOM_DEF_STEREO_COUNT>  (1) 
0

>  <PUBCHEM_ATOM_UDEF_STEREO_COUNT>  (1) 
0

>  <PUBCHEM_BOND_DEF_STEREO_COUNT>  (1) 
0

>  <PUBCHEM_BOND_UDEF_STEREO_COUNT>  (1) 
0

>  <PUBCHEM_ISOTOPIC_ATOM_COUNT>  (1) 
0

>  <PUBCHEM_COMPONENT_COUNT>  (1) 
1

>  <PUBCHEM_CACTVS_TAUTO_COUNT>  (1) 
3

>  <PUBCHEM_CONFORMER_ID>  (1) 
00007ABA00000001

>  <PUBCHEM_MMFF94_ENERGY>  (1) 
76.5485

>  <PUBCHEM_FEATURE_SELFOVERLAP>  (1) 
40.636

>  <PUBCHEM_SHAPE_FINGERPRINT>  (1) 
10319926 262 17623271077535590832
10411042 1 17690280409082322255
10493431 412 18268152152494079745
10608611 8 18409165489508572805
10616163 171 18193560188311678838
10967382 1 18338235951229439519
11471102 20 18338232669879518415
11680986 33 18336273421757983882
12390115 104 17981907520455248872
12403259 226 17973443196222826599
12553582 1 17690567385748160563
13140716 1 18409445920982297626
13583140 156 16734085990095990201
138480 1 18122624946907118986
13897977 150 18410009897274477989
14178342 30 18122331647848175216
14223421 5 18408324363171041075
14790565 3 18409740581783335708
15042514 8 17688590889475685514
15196674 1 18410856577294535853
15442244 35 17979356361103897571
15536298 74 18342458144763080436
16945 1 18338516326979313542
18186145 218 18342462487017240725
19591789 44 18410859896935269918
20510252 161 18126290971871102945
20559304 39 18264489481951924946
20645477 70 18336259055651509007
20739085 24 18191332423599751577
21267235 1 18339090306461686887
21501502 16 18412258475641054183
221490 88 18336555927600984395
2255824 54 18409451362753158758
2334 1 18338518646003015134
23366157 5 18113621149361220594
23463225 33 18337392621758450735
23559900 14 18268142072453567386
238 59 17684888520107443365
2748010 2 18265343974237854558
3091708 16 9331457869882703362
335352 9 17617659856637279471
350125 39 18337958878647273092
5104073 3 18408889525354653473
58807428 26 18265595724120105816
7364860 26 18340205198440956014
84936 182 18273493476849950792
9709674 26 18410579440119262823
9981440 41 18265607861202000658

>  <PUBCHEM_SHAPE_MULTIPOLES>  (1) 
380.23
6.56
3.73
0.62
3.48
1.31
0.01
-2.09
0.22
-3.31
0.18
-0.05
0.01
0.21

>  <PUBCHEM_SHAPE_SELFOVERLAP>  (1) 
838.186

>  <PUBCHEM_SHAPE_VOLUME>  (1) 
210.3

>  <PUBCHEM_COORDINATE_TYPE>  (1) 
2
5
10

$$$$
