31413
     RDKit          3D

 22 24  0  0  0  0  0  0  0  0999 V2000
   -0.5187    2.2573    0.0492 O   0  0  0  0  0  0  0  0  0  0  0  0
   -1.9655   -2.8852   -0.0735 O   0  0  0  0  0  0  0  0  0  0  0  0
    4.5886   -0.9303    1.0293 O   0  0  0  0  0  0  0  0  0  0  0  0
    2.2149    2.2717   -1.0608 O   0  0  0  0  0  0  0  0  0  0  0  0
    2.2284    2.2128    1.1336 O   0  0  0  0  0  0  0  0  0  0  0  0
    4.5425    0.2687   -0.9013 O   0  0  0  0  0  0  0  0  0  0  0  0
    2.0255    1.6753    0.0223 N   0  0  0  0  0  0  0  0  0  0  0  0
    0.1983   -0.0052   -0.0119 C   0  0  0  0  0  0  0  0  0  0  0  0
   -0.1918   -1.3456   -0.0448 C   0  0  0  0  0  0  0  0  0  0  0  0
   -2.2464    0.7056    0.0219 C   0  0  0  0  0  0  0  0  0  0  0  0
   -2.6365   -0.6349   -0.0107 C   0  0  0  0  0  0  0  0  0  0  0  0
   -0.8147    1.0694    0.0224 C   0  0  0  0  0  0  0  0  0  0  0  0
    1.5585    0.3264   -0.0110 C   0  0  0  0  0  0  0  0  0  0  0  0
   -1.6235   -1.7095   -0.0450 C   0  0  0  0  0  0  0  0  0  0  0  0
    0.7783   -2.3546   -0.0773 C   0  0  0  0  0  0  0  0  0  0  0  0
    2.5219   -0.6822   -0.0429 C   0  0  0  0  0  0  0  0  0  0  0  0
    2.1326   -2.0198   -0.0762 C   0  0  0  0  0  0  0  0  0  0  0  0
   -3.2165    1.7145    0.0542 C   0  0  0  0  0  0  0  0  0  0  0  0
   -3.9967   -0.9666   -0.0106 C   0  0  0  0  0  0  0  0  0  0  0  0
   -4.5708    1.3797    0.0543 C   0  0  0  0  0  0  0  0  0  0  0  0
   -4.9602    0.0420    0.0222 C   0  0  0  0  0  0  0  0  0  0  0  0
    3.9518   -0.3898   -0.0433 C   0  0  0  0  0  0  0  0  0  0  0  0
  1 12  2  0
  2 14  2  0
  3 22  1  0
  4  7  1  0
  5  7  2  0
  6 22  2  0
  7 13  1  0
  8  9  2  0
  8 12  1  0
  8 13  1  0
  9 14  1  0
  9 15  1  0
 10 11  2  0
 10 12  1  0
 10 18  1  0
 11 14  1  0
 11 19  1  0
 13 16  2  0
 15 17  2  0
 16 17  1  0
 16 22  1  0
 18 20  2  0
 19 21  2  0
 20 21  1  0
M  CHG  2   4  -1   7   1
M  END
>  <PUBCHEM_COMPOUND_CID>  (1) 
31413

>  <PUBCHEM_CONFORMER_RMSD>  (1) 
0.6

>  <PUBCHEM_CONFORMER_DIVERSEORDER>  (1) 
1

>  <PUBCHEM_MMFF94_PARTIAL_CHARGES>  (1) 
29
1 -0.57
10 0.09
11 0.09
12 0.4
13 0.13
14 0.4
15 -0.15
16 0.09
17 -0.15
18 -0.15
19 -0.15
2 -0.57
20 -0.15
21 -0.15
22 0.63
23 0.15
24 0.15
25 0.15
26 0.15
27 0.15
28 0.15
29 0.5
3 -0.65
4 -0.52
5 -0.52
6 -0.57
7 0.91
8 0.09
9 0.09

>  <PUBCHEM_EFFECTIVE_ROTOR_COUNT>  (1) 
2

>  <PUBCHEM_PHARMACOPHORE_FEATURES>  (1) 
11
1 1 acceptor
1 2 acceptor
1 3 acceptor
1 4 acceptor
1 4 anion
1 5 acceptor
1 6 acceptor
3 3 6 22 anion
6 10 11 18 19 20 21 rings
6 8 9 10 11 12 14 rings
6 8 9 13 15 16 17 rings

>  <PUBCHEM_HEAVY_ATOM_COUNT>  (1) 
22

>  <PUBCHEM_ATOM_DEF_STEREO_COUNT>  (1) 
0

>  <PUBCHEM_ATOM_UDEF_STEREO_COUNT>  (1) 
0

>  <PUBCHEM_BOND_DEF_STEREO_COUNT>  (1) 
0

>  <PUBCHEM_BOND_UDEF_STEREO_COUNT>  (1) 
0

>  <PUBCHEM_ISOTOPIC_ATOM_COUNT>  (1) 
0

>  <PUBCHEM_COMPONENT_COUNT>  (1) 
1

>  <PUBCHEM_CACTVS_TAUTO_COUNT>  (1) 
1

>  <PUBCHEM_CONFORMER_ID>  (1) 
00007AB500000001

>  <PUBCHEM_MMFF94_ENERGY>  (1) 
80.2295

>  <PUBCHEM_FEATURE_SELFOVERLAP>  (1) 
56.009

>  <PUBCHEM_SHAPE_FINGERPRINT>  (1) 
10062212 137 18409442596303128803
10411042 1 16609698962092052327
10608611 8 18411698803159090881
10616163 171 18339365261720422255
10967382 1 18339080389149916447
1100329 8 18410854386407514994
11132069 177 18341330002714504259
11471102 20 18338796715260765631
11578080 2 16986861583139318323
12011746 2 18339927017356028142
12236239 1 17967253088046425054
12403260 363 18411130355652915887
12403814 3 17603866672182158559
13140716 1 18339073903791504314
13221675 6 18411418375827651639
138480 1 17690281508636128607
13862211 1 18410849932505687079
14178342 30 17979340177535082275
14790565 3 18410020952700178724
15099037 51 18411702066965107239
15196674 1 18410575084663098414
15536298 74 18271524290105215713
1601671 61 18411419471371132382
16945 1 18411421678657456766
17349148 13 18341039774894981743
17804303 29 18412546513475577056
1813 80 16951690169689802810
19591789 44 18411139177494850675
200 152 18060133228790225919
20028762 73 18130503149884979615
20510252 161 18128535968662423609
20691752 17 17604696902039784922
21267235 1 18411146839827341503
21421861 104 17680142980329382850
21501502 16 18337953522785735558
23227448 37 18341611555317306591
2334 1 18122907791730269366
23402539 116 18343292652898588831
23558518 356 18118118306158157474
23559900 14 18271807977549532312
2748010 2 18267586999180049046
3004659 81 18262245422365756622
335352 9 18410855421494724478
34934 24 18411132511315373074
350125 39 18410296878863771529
3680242 22 18263927635504315018
474 4 17967819383093386031
5104073 3 18410012164779730352
69090 78 18412541003328065367
7364860 26 18342457019317910662
9709674 26 18412832378115157935
9981440 41 17468760045029914904

>  <PUBCHEM_SHAPE_MULTIPOLES>  (1) 
412.55
8.53
2.69
0.74
1.18
0.18
0.02
-0.91
0.17
-0.1
-0.02
-0.46
-0.17
-0.2

>  <PUBCHEM_SHAPE_SELFOVERLAP>  (1) 
934.652

>  <PUBCHEM_SHAPE_VOLUME>  (1) 
213.7

>  <PUBCHEM_COORDINATE_TYPE>  (1) 
2
5
10

$$$$
