31411
     RDKit          3D

 30 34  0  0  1  0  0  0  0  0999 V2000
   -0.4301    0.9685   -1.0266 O   0  0  0  0  0  0  0  0  0  0  0  0
    2.3978   -2.1978   -0.3700 O   0  0  0  0  0  0  0  0  0  0  0  0
    5.0275   -1.4189   -1.0941 O   0  0  0  0  0  0  0  0  0  0  0  0
    5.9256    0.7760   -0.6704 O   0  0  0  0  0  0  0  0  0  0  0  0
   -4.7211    1.1801   -0.8999 O   0  0  0  0  0  0  0  0  0  0  0  0
   -2.1478    2.4196   -1.5580 O   0  0  0  0  0  0  0  0  0  0  0  0
   -5.7850   -1.1598    0.1646 O   0  0  0  0  0  0  0  0  0  0  0  0
   -0.0463    0.6602    1.7627 N   0  0  0  0  0  0  0  0  0  0  0  0
    0.5822   -0.2760    0.8051 C   0  0  0  0  0  0  0  0  0  0  0  0
   -0.2825   -0.3627   -0.4629 C   0  0  0  0  0  0  0  0  0  0  0  0
    2.0219    0.0560    0.4430 C   0  0  0  0  0  0  0  0  0  0  0  0
    0.2360    2.0603    1.4248 C   0  0  0  0  0  0  0  0  0  0  0  0
    2.5524    1.3489    0.6853 C   0  0  0  0  0  0  0  0  0  0  0  0
    1.7283    2.3959    1.3891 C   0  0  0  0  0  0  0  0  0  0  0  0
   -1.6860   -0.7580   -0.2120 C   0  0  0  0  0  0  0  0  0  0  0  0
    2.8260   -0.9257   -0.1634 C   0  0  0  0  0  0  0  0  0  0  0  0
    0.3029    0.3460    3.1485 C   0  0  0  0  0  0  0  0  0  0  0  0
   -2.5333    0.2566   -0.6111 C   0  0  0  0  0  0  0  0  0  0  0  0
    3.8784    1.6477    0.3315 C   0  0  0  0  0  0  0  0  0  0  0  0
    4.1207   -0.5933   -0.5039 C   0  0  0  0  0  0  0  0  0  0  0  0
    4.6323    0.6584   -0.2637 C   0  0  0  0  0  0  0  0  0  0  0  0
   -1.7388    1.3605   -1.1258 C   0  0  0  0  0  0  0  0  0  0  0  0
   -2.1999   -1.9290    0.3169 C   0  0  0  0  0  0  0  0  0  0  0  0
   -3.9091    0.1684   -0.5034 C   0  0  0  0  0  0  0  0  0  0  0  0
   -3.5877   -2.0499    0.4391 C   0  0  0  0  0  0  0  0  0  0  0  0
   -4.4368   -1.0072    0.0316 C   0  0  0  0  0  0  0  0  0  0  0  0
    6.1694   -0.5442   -1.1972 C   0  0  0  0  0  0  0  0  0  0  0  0
    3.1410   -3.2440    0.2549 C   0  0  0  0  0  0  0  0  0  0  0  0
   -5.6714    0.8916   -1.9271 C   0  0  0  0  0  0  0  0  0  0  0  0
   -6.3669   -0.7280    1.3925 C   0  0  0  0  0  0  0  0  0  0  0  0
  1 10  1  0
  1 22  1  0
  2 16  1  0
  2 28  1  0
  3 20  1  0
  3 27  1  0
  4 21  1  0
  4 27  1  0
  5 24  1  0
  5 29  1  0
  6 22  2  0
  7 26  1  0
  7 30  1  0
  8  9  1  0
  8 12  1  0
  8 17  1  0
  9 10  1  0
  9 11  1  0
 10 15  1  0
 11 13  2  0
 11 16  1  0
 12 14  1  0
 13 14  1  0
 13 19  1  0
 15 18  2  0
 15 23  1  0
 16 20  2  0
 18 22  1  0
 18 24  1  0
 19 21  2  0
 20 21  1  0
 23 25  2  0
 24 26  2  0
 25 26  1  0
M  END
>  <PUBCHEM_COMPOUND_CID>  (1) 
31411

>  <PUBCHEM_CONFORMER_RMSD>  (1) 
0.8

>  <PUBCHEM_CONFORMER_DIVERSEORDER>  (1) 
1
3
2

>  <PUBCHEM_MMFF94_PARTIAL_CHARGES>  (1) 
33
1 -0.43
10 0.42
11 -0.14
12 0.27
13 -0.14
14 0.14
15 -0.14
16 0.08
17 0.27
18 0.09
19 -0.15
2 -0.36
20 0.08
21 0.08
22 0.63
23 -0.15
24 0.08
25 -0.15
26 0.08
27 0.56
28 0.28
29 0.28
3 -0.36
30 0.28
4 -0.36
40 0.15
41 0.15
42 0.15
5 -0.36
6 -0.57
7 -0.36
8 -0.81
9 0.41

>  <PUBCHEM_EFFECTIVE_ROTOR_COUNT>  (1) 
5.8

>  <PUBCHEM_PHARMACOPHORE_FEATURES>  (1) 
12
1 2 acceptor
1 3 acceptor
1 4 acceptor
1 5 acceptor
1 6 acceptor
1 7 acceptor
1 8 cation
5 1 10 15 18 22 rings
5 3 4 20 21 27 rings
6 11 13 16 19 20 21 rings
6 15 18 23 24 25 26 rings
6 8 9 11 12 13 14 rings

>  <PUBCHEM_HEAVY_ATOM_COUNT>  (1) 
30

>  <PUBCHEM_ATOM_DEF_STEREO_COUNT>  (1) 
2

>  <PUBCHEM_ATOM_UDEF_STEREO_COUNT>  (1) 
0

>  <PUBCHEM_BOND_DEF_STEREO_COUNT>  (1) 
0

>  <PUBCHEM_BOND_UDEF_STEREO_COUNT>  (1) 
0

>  <PUBCHEM_ISOTOPIC_ATOM_COUNT>  (1) 
0

>  <PUBCHEM_COMPONENT_COUNT>  (1) 
1

>  <PUBCHEM_CACTVS_TAUTO_COUNT>  (1) 
1

>  <PUBCHEM_CONFORMER_ID>  (1) 
00007AB300000001

>  <PUBCHEM_MMFF94_ENERGY>  (1) 
125.6371

>  <PUBCHEM_FEATURE_SELFOVERLAP>  (1) 
61.175

>  <PUBCHEM_SHAPE_FINGERPRINT>  (1) 
10369192 42 17765700709500637136
10673678 19 18118977025562728100
11135609 187 17913214441020923096
11552529 35 17772464836472896015
12236239 1 15410895184258218853
12553582 1 17131824340277384174
12596602 18 14333119797478056470
12623949 98 17554344878726255863
12730499 353 18408045121793920562
12760667 363 17274830116857456366
12788726 201 17560243500915692578
13134695 92 16845008030325745369
13402501 40 18410294730747075510
13782708 43 18270396217330497823
14341114 176 18271813466527981041
14617045 38 18408891749583592783
14955137 171 18042698363345871545
15183329 4 18342175544789586649
15849732 13 15410900669089776297
17349148 13 14692288499685788973
18222031 100 16415468342288640278
18608769 82 18114752654443712307
19784866 140 17917713470496232076
200 152 17847065476024133922
21033648 29 18339346557654676721
21033650 10 17532951402512538908
21267235 1 18060149730144332510
21521721 280 18341056336753280928
21792961 116 18412549782700109158
221357 26 18343299262494613060
23175994 123 17917997195550684601
23559900 14 18408597084804300005
3004659 81 18260829242509303666
3411729 13 13685433833643282074
345986 75 17346035563208165002
4098825 35 17895193247698319086
46194498 28 18187931724424176092
5104073 3 18262514788821643291
59755656 215 18334572438694327662
6086070 43 16916770865802533193
6287921 2 17905040709390482301

>  <PUBCHEM_SHAPE_MULTIPOLES>  (1) 
571.32
13.26
2.48
1.74
3.5
0.61
0.84
2.9
-4.28
-1.15
0.27
0.83
-0.77
1.88

>  <PUBCHEM_SHAPE_SELFOVERLAP>  (1) 
1274.076

>  <PUBCHEM_SHAPE_VOLUME>  (1) 
306.4

>  <PUBCHEM_COORDINATE_TYPE>  (1) 
2
5
10

$$$$
