3141
     RDKit          3D

 22 23  0  0  1  0  0  0  0  0999 V2000
   -3.9289   -3.2783    1.0473 O   0  0  0  0  0  0  0  0  0  0  0  0
    5.2672   -2.4226   -1.1277 O   0  0  0  0  0  0  0  0  0  0  0  0
    6.9097   -1.3422    0.8373 O   0  0  0  0  0  0  0  0  0  0  0  0
   -0.1302    1.7375   -0.4282 N   0  0  0  0  0  0  0  0  0  0  0  0
   -2.5784    2.0598   -0.1043 C   0  0  0  0  0  0  0  0  0  0  0  0
   -1.2888    1.3648    0.3783 C   0  0  0  0  0  0  0  0  0  0  0  0
   -3.8059    1.5954    0.7120 C   0  0  0  0  0  0  0  0  0  0  0  0
   -2.4606    3.5868   -0.0028 C   0  0  0  0  0  0  0  0  0  0  0  0
    1.0611    1.0316    0.0199 C   0  0  0  0  0  0  0  0  0  0  0  0
   -4.3611    0.2588    0.2826 C   0  0  0  0  0  0  0  0  0  0  0  0
    2.2782    1.4240   -0.8185 C   0  0  0  0  0  0  0  0  0  0  0  0
    3.5153    0.6824   -0.3789 C   0  0  0  0  0  0  0  0  0  0  0  0
   -3.8794   -0.8984    0.8735 C   0  0  0  0  0  0  0  0  0  0  0  0
   -5.3423    0.2138   -0.6950 C   0  0  0  0  0  0  0  0  0  0  0  0
   -4.3924   -2.1331    0.4765 C   0  0  0  0  0  0  0  0  0  0  0  0
    3.8211   -0.5380   -0.9620 C   0  0  0  0  0  0  0  0  0  0  0  0
    4.3263    1.2327    0.6021 C   0  0  0  0  0  0  0  0  0  0  0  0
   -5.8553   -1.0210   -1.0921 C   0  0  0  0  0  0  0  0  0  0  0  0
   -5.3804   -2.1944   -0.5062 C   0  0  0  0  0  0  0  0  0  0  0  0
    4.9651   -1.2242   -0.5547 C   0  0  0  0  0  0  0  0  0  0  0  0
    5.4702    0.5466    1.0096 C   0  0  0  0  0  0  0  0  0  0  0  0
    5.7896   -0.6819    0.4312 C   0  0  0  0  0  0  0  0  0  0  0  0
  1 15  1  0
  2 20  1  0
  3 22  1  0
  4  6  1  0
  4  9  1  0
  5  6  1  0
  5  7  1  0
  5  8  1  0
  7 10  1  0
  9 11  1  0
 10 13  2  0
 10 14  1  0
 11 12  1  0
 12 16  2  0
 12 17  1  0
 13 15  1  0
 14 18  2  0
 15 19  2  0
 16 20  1  0
 17 21  2  0
 18 19  1  0
 20 22  2  0
 21 22  1  0
M  END
>  <PUBCHEM_COMPOUND_CID>  (1) 
3141

>  <PUBCHEM_CONFORMER_RMSD>  (1) 
1

>  <PUBCHEM_CONFORMER_DIVERSEORDER>  (1) 
1
153
74
200
345
80
246
221
219
29
79
633
107
286
463
617
77
141
250
374
224
538
231
61
587
578
7
280
4
382
636
117
124
26
194
10
318
37
185
439
502
474
179
147
34
445
236
6
39
355
149
256
237
379
544
24
36
547
204
187
5
259
460
155
645
252
455
41
598
619
159
13
170
73
182
196
43
234
230
662
640
25
3
311
427
145
306
531
33
167
126
530
279
261
408
554
629
27
258
66
638
2
507
398
248
64
316
235
30
584
59
497
12
422
299
307
105
195
631
65
510
505
28
40
290
418
109
574
100
46
442
263
315
213
240
161
44
53
54
656
366
62
23
272
560
652
233
32
595
663
15
169
97
17
94
52
409
444
106
447
407
45
154
429
20
289
90
16
449
35
48
569
202
91
541
31
401
568
370
89
430
251
9
108
386
281
229
454
509
21
575
56
19
241
270
110
620
487
121
71
22
115
158
606
103
18
517
373
112
609
125
38
60
14
8
57
218

>  <PUBCHEM_MMFF94_PARTIAL_CHARGES>  (1) 
31
1 -0.53
10 -0.14
11 0.14
12 -0.14
13 -0.15
14 -0.15
15 0.08
16 -0.15
17 -0.15
18 -0.15
19 -0.15
2 -0.53
20 0.08
21 -0.15
22 0.08
3 -0.53
31 0.36
36 0.15
37 0.15
38 0.15
39 0.15
4 -0.9
40 0.15
41 0.15
42 0.15
43 0.45
44 0.45
45 0.45
6 0.27
7 0.14
9 0.27

>  <PUBCHEM_EFFECTIVE_ROTOR_COUNT>  (1) 
7

>  <PUBCHEM_PHARMACOPHORE_FEATURES>  (1) 
8
1 1 donor
1 2 donor
1 3 donor
1 4 cation
1 4 donor
1 8 hydrophobe
6 10 13 14 15 18 19 rings
6 12 16 17 20 21 22 rings

>  <PUBCHEM_HEAVY_ATOM_COUNT>  (1) 
22

>  <PUBCHEM_ATOM_DEF_STEREO_COUNT>  (1) 
0

>  <PUBCHEM_ATOM_UDEF_STEREO_COUNT>  (1) 
1

>  <PUBCHEM_BOND_DEF_STEREO_COUNT>  (1) 
0

>  <PUBCHEM_BOND_UDEF_STEREO_COUNT>  (1) 
0

>  <PUBCHEM_ISOTOPIC_ATOM_COUNT>  (1) 
0

>  <PUBCHEM_COMPONENT_COUNT>  (1) 
1

>  <PUBCHEM_CACTVS_TAUTO_COUNT>  (1) 
162

>  <PUBCHEM_CONFORMER_ID>  (1) 
00000C4500000001

>  <PUBCHEM_MMFF94_ENERGY>  (1) 
44.7295

>  <PUBCHEM_FEATURE_SELFOVERLAP>  (1) 
40.601

>  <PUBCHEM_SHAPE_FINGERPRINT>  (1) 
10378564 45 11530477810358254440
12616971 3 17894644651183274685
12760667 363 18412544323606674101
14211702 104 18412268341228769790
14251751 18 18412826897630854128
14347329 18 8286203824948325428
14461889 52 18343010130424573016
14848160 23 18412822507968600953
14848178 5 18410013273118766181
15183329 4 17095234830603138915
15188451 53 18410848858974742772
15250474 111 18334017172548161882
15348495 7 18201718427504823368
15880784 105 18201725041569492056
17627616 140 17823125744823407947
17857418 61 18408040701871438432
18222031 100 17821447958983260924
18927931 339 18335712624116083577
19377110 9 14549014368916712756
19958102 18 18040425594979757351
20028762 73 18412543202531169342
20281389 69 9727638297496430037
20645477 56 8718832002894274201
20691028 202 8646500613254936807
21315763 87 17703787058835543738
21623969 137 17489869328321235822
22061861 79 13767926797855738152
22289505 5 11891338643253867750
2303208 19 17489317343519821180
23428019 142 17241047712146434731
23559900 14 18337664347655966945
23572383 38 18411984684414090327
25122255 55 18410860953507521006
2838139 119 8646487380338696120
3004659 81 17967528012475303357
312425 54 18059301950222445456
4073 2 18341333288860526848
5104073 3 17917714561112386424
531348 171 17386558051686557509
559249 180 18409728453064203869
5718773 13 18198899409173253247
5924683 9 18413110541766905449
6431902 208 18412261757207409399
7495541 125 17846776338757780488
7970288 3 18196654223340223639
8863177 126 18271250409469558678

>  <PUBCHEM_SHAPE_MULTIPOLES>  (1) 
430.16
18.72
3.27
1.06
12.6
0.06
-0.02
-11.82
0.4
-3.5
0.15
0.14
-0.31
0.66

>  <PUBCHEM_SHAPE_SELFOVERLAP>  (1) 
896.677

>  <PUBCHEM_SHAPE_VOLUME>  (1) 
245

>  <PUBCHEM_COORDINATE_TYPE>  (1) 
2
5
10

$$$$
