31419
     RDKit          3D

 20 22  0  0  0  0  0  0  0  0999 V2000
   -0.0001   -2.6665   -0.0002 O   0  0  0  0  0  0  0  0  0  0  0  0
   -0.0003    2.6766   -0.0009 O   0  0  0  0  0  0  0  0  0  0  0  0
   -2.5608    2.7630    0.0002 O   0  0  0  0  0  0  0  0  0  0  0  0
    2.5606    2.7629    0.0008 O   0  0  0  0  0  0  0  0  0  0  0  0
   -2.5733   -2.8028    0.0010 N   0  0  0  0  0  0  0  0  0  0  0  0
    2.5731   -2.8029   -0.0005 N   0  0  0  0  0  0  0  0  0  0  0  0
   -1.2730   -0.6932   -0.0002 C   0  0  0  0  0  0  0  0  0  0  0  0
    1.2731   -0.6932   -0.0005 C   0  0  0  0  0  0  0  0  0  0  0  0
   -1.2730    0.7031   -0.0005 C   0  0  0  0  0  0  0  0  0  0  0  0
    1.2732    0.7032   -0.0002 C   0  0  0  0  0  0  0  0  0  0  0  0
    0.0001   -1.4425   -0.0008 C   0  0  0  0  0  0  0  0  0  0  0  0
    0.0000    1.4524   -0.0009 C   0  0  0  0  0  0  0  0  0  0  0  0
   -2.4865   -1.3915    0.0002 C   0  0  0  0  0  0  0  0  0  0  0  0
    2.4866   -1.3914   -0.0002 C   0  0  0  0  0  0  0  0  0  0  0  0
   -2.4865    1.4014   -0.0003 C   0  0  0  0  0  0  0  0  0  0  0  0
    2.4865    1.4015    0.0006 C   0  0  0  0  0  0  0  0  0  0  0  0
   -3.6936   -0.6917    0.0007 C   0  0  0  0  0  0  0  0  0  0  0  0
    3.6936   -0.6917    0.0004 C   0  0  0  0  0  0  0  0  0  0  0  0
   -3.6935    0.7017    0.0003 C   0  0  0  0  0  0  0  0  0  0  0  0
    3.6936    0.7018    0.0009 C   0  0  0  0  0  0  0  0  0  0  0  0
  1 11  2  0
  2 12  2  0
  3 15  1  0
  4 16  1  0
  5 13  1  0
  6 14  1  0
  7  9  2  0
  7 11  1  0
  7 13  1  0
  8 10  2  0
  8 11  1  0
  8 14  1  0
  9 12  1  0
  9 15  1  0
 10 12  1  0
 10 16  1  0
 13 17  2  0
 14 18  2  0
 15 19  2  0
 16 20  2  0
 17 19  1  0
 18 20  1  0
M  END
>  <PUBCHEM_COMPOUND_CID>  (1) 
31419

>  <PUBCHEM_CONFORMER_RMSD>  (1) 
0.6

>  <PUBCHEM_CONFORMER_DIVERSEORDER>  (1) 
1

>  <PUBCHEM_MMFF94_PARTIAL_CHARGES>  (1) 
30
1 -0.57
10 0.09
11 0.4
12 0.4
13 0.1
14 0.1
15 0.08
16 0.08
17 -0.15
18 -0.15
19 -0.15
2 -0.57
20 -0.15
21 0.15
22 0.15
23 0.15
24 0.15
25 0.4
26 0.4
27 0.4
28 0.4
29 0.45
3 -0.53
30 0.45
4 -0.53
5 -0.9
6 -0.9
7 0.09
8 0.09
9 0.09

>  <PUBCHEM_EFFECTIVE_ROTOR_COUNT>  (1) 
0

>  <PUBCHEM_PHARMACOPHORE_FEATURES>  (1) 
11
1 1 acceptor
1 2 acceptor
1 3 donor
1 4 donor
1 5 cation
1 5 donor
1 6 cation
1 6 donor
6 7 8 9 10 11 12 rings
6 7 9 13 15 17 19 rings
6 8 10 14 16 18 20 rings

>  <PUBCHEM_HEAVY_ATOM_COUNT>  (1) 
20

>  <PUBCHEM_ATOM_DEF_STEREO_COUNT>  (1) 
0

>  <PUBCHEM_ATOM_UDEF_STEREO_COUNT>  (1) 
0

>  <PUBCHEM_BOND_DEF_STEREO_COUNT>  (1) 
0

>  <PUBCHEM_BOND_UDEF_STEREO_COUNT>  (1) 
0

>  <PUBCHEM_ISOTOPIC_ATOM_COUNT>  (1) 
0

>  <PUBCHEM_COMPONENT_COUNT>  (1) 
1

>  <PUBCHEM_CACTVS_TAUTO_COUNT>  (1) 
82

>  <PUBCHEM_CONFORMER_ID>  (1) 
00007ABB00000001

>  <PUBCHEM_MMFF94_ENERGY>  (1) 
91.0069

>  <PUBCHEM_FEATURE_SELFOVERLAP>  (1) 
55.863

>  <PUBCHEM_SHAPE_FINGERPRINT>  (1) 
10411042 1 15744725194760180449
10608611 8 18410854364911702693
10616163 171 18411703226543155495
10863032 1 18412262835011721577
10967382 1 18410575037434288902
1100329 8 16465019706336608402
11132069 177 18411131459063859216
11578080 2 17202184408531375195
13140716 1 18338798918357221802
14178342 30 18338783577161457872
14223421 5 18410856602594743779
14790565 3 17399535896910001045
15196674 1 18410575084663078917
15442244 35 18266739082583975722
15536298 74 18343019991136506598
16945 1 18410856563934756870
17492 89 18410291410817178459
18186145 218 18272941483442100760
19591789 44 18410577283686704743
20510252 161 18198627833162125897
20905425 154 18341899622810074326
21267235 1 18410865360028181827
21501502 16 18410573985151451138
221490 88 18337117864253262754
2334 1 18410855494487900166
23366157 5 18113620088778449182
23402539 116 18342166804336181406
23463225 33 18409449163297230580
23559900 14 18341608201364293680
238 59 16888316419154962541
2748010 2 18410573989446418557
335352 9 17978228253420159415
34934 24 18410847763547001226
350125 39 18410016537093704337
5104073 3 18410575127612752858
7364860 26 18413107256137477158
7832392 63 18339642235428481554
8809292 202 18334016128839558091
9709674 26 18412548703782667958

>  <PUBCHEM_SHAPE_MULTIPOLES>  (1) 
378.15
6.31
3.25
0.59
0
0.07
0
0.03
0
0
0
0
0
0

>  <PUBCHEM_SHAPE_SELFOVERLAP>  (1) 
863.167

>  <PUBCHEM_SHAPE_VOLUME>  (1) 
193.2

>  <PUBCHEM_COORDINATE_TYPE>  (1) 
2
5
10

$$$$
