31425
     RDKit          3D

 34 40  0  0  0  0  0  0  0  0999 V2000
   -4.1425    0.9086    0.0009 S   0  0  0  0  0  0  0  0  0  0  0  0
    4.1423   -0.9093    0.0024 S   0  0  0  0  0  0  0  0  0  0  0  0
   -1.4627    2.2319    0.0109 O   0  0  0  0  0  0  0  0  0  0  0  0
    1.4624   -2.2327    0.0088 O   0  0  0  0  0  0  0  0  0  0  0  0
   -4.8591   -1.5573   -0.0017 N   0  0  0  0  0  0  0  0  0  0  0  0
    4.8588    1.5568   -0.0013 N   0  0  0  0  0  0  0  0  0  0  0  0
   -1.4591   -0.1259    0.0043 C   0  0  0  0  0  0  0  0  0  0  0  0
    1.4589    0.1252    0.0046 C   0  0  0  0  0  0  0  0  0  0  0  0
   -0.6739   -1.2867    0.0047 C   0  0  0  0  0  0  0  0  0  0  0  0
    0.6739    1.2860    0.0043 C   0  0  0  0  0  0  0  0  0  0  0  0
   -0.8035    1.2000    0.0062 C   0  0  0  0  0  0  0  0  0  0  0  0
    0.8034   -1.2007    0.0068 C   0  0  0  0  0  0  0  0  0  0  0  0
   -2.8701   -0.2723    0.0023 C   0  0  0  0  0  0  0  0  0  0  0  0
    2.8699    0.2717    0.0028 C   0  0  0  0  0  0  0  0  0  0  0  0
   -3.4716   -1.5412    0.0007 C   0  0  0  0  0  0  0  0  0  0  0  0
    3.4714    1.5407    0.0007 C   0  0  0  0  0  0  0  0  0  0  0  0
   -1.2649   -2.5515    0.0033 C   0  0  0  0  0  0  0  0  0  0  0  0
    1.2648    2.5510    0.0026 C   0  0  0  0  0  0  0  0  0  0  0  0
   -2.6523   -2.6874    0.0013 C   0  0  0  0  0  0  0  0  0  0  0  0
    2.6521    2.6869    0.0007 C   0  0  0  0  0  0  0  0  0  0  0  0
   -5.3130   -0.3291   -0.0017 C   0  0  0  0  0  0  0  0  0  0  0  0
    5.3129    0.3285   -0.0008 C   0  0  0  0  0  0  0  0  0  0  0  0
   -6.7097    0.0352   -0.0037 C   0  0  0  0  0  0  0  0  0  0  0  0
    6.7100   -0.0350   -0.0033 C   0  0  0  0  0  0  0  0  0  0  0  0
   -7.6699   -0.8871   -0.4189 C   0  0  0  0  0  0  0  0  0  0  0  0
    7.6692    0.8880   -0.4190 C   0  0  0  0  0  0  0  0  0  0  0  0
   -7.0982    1.3090    0.4100 C   0  0  0  0  0  0  0  0  0  0  0  0
    7.0992   -1.3085    0.4102 C   0  0  0  0  0  0  0  0  0  0  0  0
   -9.0195   -0.5352   -0.4204 C   0  0  0  0  0  0  0  0  0  0  0  0
    9.0191    0.5369   -0.4209 C   0  0  0  0  0  0  0  0  0  0  0  0
   -8.4480    1.6608    0.4086 C   0  0  0  0  0  0  0  0  0  0  0  0
    8.4492   -1.6595    0.4082 C   0  0  0  0  0  0  0  0  0  0  0  0
   -9.4087    0.7387   -0.0066 C   0  0  0  0  0  0  0  0  0  0  0  0
    9.4092   -0.7369   -0.0073 C   0  0  0  0  0  0  0  0  0  0  0  0
  1 13  1  0
  1 21  1  0
  2 14  1  0
  2 22  1  0
  3 11  2  0
  4 12  2  0
  5 15  1  0
  5 21  2  0
  6 16  1  0
  6 22  2  0
  7  9  1  0
  7 11  1  0
  7 13  2  0
  8 10  2  0
  8 12  1  0
  8 14  1  0
  9 12  1  0
  9 17  2  0
 10 11  1  0
 10 18  1  0
 13 15  1  0
 14 16  2  0
 15 19  2  0
 16 20  1  0
 17 19  1  0
 18 20  2  0
 21 23  1  0
 22 24  1  0
 23 25  2  0
 23 27  1  0
 24 26  2  0
 24 28  1  0
 25 29  1  0
 26 30  1  0
 27 31  2  0
 28 32  2  0
 29 33  2  0
 30 34  2  0
 31 33  1  0
 32 34  1  0
M  END
>  <PUBCHEM_COMPOUND_CID>  (1) 
31425

>  <PUBCHEM_CONFORMER_RMSD>  (1) 
0.8

>  <PUBCHEM_CONFORMER_DIVERSEORDER>  (1) 
1

>  <PUBCHEM_MMFF94_PARTIAL_CHARGES>  (1) 
48
1 -0.08
10 0.09
11 0.4
12 0.4
13 0.04
14 0.04
15 0.23
16 0.23
17 -0.15
18 -0.15
19 -0.15
2 -0.08
20 -0.15
21 0.33
22 0.33
23 0.05
24 0.05
25 -0.15
26 -0.15
27 -0.15
28 -0.15
29 -0.15
3 -0.57
30 -0.15
31 -0.15
32 -0.15
33 -0.15
34 -0.15
35 0.15
36 0.15
37 0.15
38 0.15
39 0.15
4 -0.57
40 0.15
41 0.15
42 0.15
43 0.15
44 0.15
45 0.15
46 0.15
47 0.15
48 0.15
5 -0.57
6 -0.57
7 0.09
8 0.09
9 0.09

>  <PUBCHEM_EFFECTIVE_ROTOR_COUNT>  (1) 
2

>  <PUBCHEM_PHARMACOPHORE_FEATURES>  (1) 
11
1 3 acceptor
1 4 acceptor
1 5 acceptor
1 6 acceptor
5 1 5 13 15 21 rings
5 2 6 14 16 22 rings
6 23 25 27 29 31 33 rings
6 24 26 28 30 32 34 rings
6 7 8 9 10 11 12 rings
6 7 9 13 15 17 19 rings
6 8 10 14 16 18 20 rings

>  <PUBCHEM_HEAVY_ATOM_COUNT>  (1) 
34

>  <PUBCHEM_ATOM_DEF_STEREO_COUNT>  (1) 
0

>  <PUBCHEM_ATOM_UDEF_STEREO_COUNT>  (1) 
0

>  <PUBCHEM_BOND_DEF_STEREO_COUNT>  (1) 
0

>  <PUBCHEM_BOND_UDEF_STEREO_COUNT>  (1) 
0

>  <PUBCHEM_ISOTOPIC_ATOM_COUNT>  (1) 
0

>  <PUBCHEM_COMPONENT_COUNT>  (1) 
1

>  <PUBCHEM_CACTVS_TAUTO_COUNT>  (1) 
1

>  <PUBCHEM_CONFORMER_ID>  (1) 
00007AC100000001

>  <PUBCHEM_MMFF94_ENERGY>  (1) 
103.3258

>  <PUBCHEM_FEATURE_SELFOVERLAP>  (1) 
56.004

>  <PUBCHEM_SHAPE_FINGERPRINT>  (1) 
10050765 1 18123469650767168288
10076449 9 17748826302136283893
10580692 12 18412263938818310235
10674148 151 18260826020987998024
11135926 11 18409157801733742087
11408170 108 16916796128836877958
11456790 92 18059868285369641497
11524674 6 16988843904315855422
11578080 2 16734648789736138823
12133447 93 18198919027708272180
12592606 108 18411134770599948655
12741549 16 16988839463625542360
12758862 56 18334852857230494248
12838862 33 18339065051731882241
13008946 267 17899986220832960052
13811026 1 18342462534077388294
14117953 113 18343588443138440934
14251764 46 18410856555344822279
14675019 173 17603589655128904501
15131766 46 15551883465003883392
15289351 153 18342732997443760897
15347591 1 18118971539981336586
15439362 3 17899702555564937052
15444296 9 18409730638258150564
15461852 350 17275100661200447119
15840311 113 17968098663917328620
15890870 6 18409728448774426783
16087824 20 18410012092509811533
16628084 112 17896026651827220578
16664035 1 18343300375445446656
19611394 137 17897739876217252699
19841028 212 17603861149414100402
20105231 36 15936408939917656618
20721686 56 18336552629625387379
21267235 1 18409732863953295336
21585482 111 18262798442460732917
21781055 127 17774727463540393563
21792934 111 18342731932539888848
21792961 116 17968089789849769092
22311459 1 18410573980861758592
232437 2 18411138034743289175
23522609 53 18121532187654397156
23559900 14 18267860761012928136
23569917 315 18263085578130616275
24771293 8 18201727202481373625
24893992 56 18336265730352797827
249057 3 18410574010921255045
3004659 81 18187080690029641136
3103668 31 18115583738709901812
335352 9 18410574006626287925
335507 130 18060137678925575591
350125 39 18409446985786033612
4017518 198 17346886658692312102
4073 2 18041564766673057659
4353968 344 18273206514207626901
4366758 6 15841554076126573870
439807 62 18333449834040016818
44389302 135 18341323402843617018
59521270 166 18261391113718714653
6009941 240 17603591854605489939
6081469 158 18040150704224477836
6201320 215 16056051121827871689
6691757 9 16988572333486612895
9663363 56 16917066660705896322
99344 41 18343865515705568879

>  <PUBCHEM_SHAPE_MULTIPOLES>  (1) 
685.7
30.36
2.52
0.65
0.01
0
0
-0.01
0.58
0
-0.08
0
0
-0.87

>  <PUBCHEM_SHAPE_SELFOVERLAP>  (1) 
1563.541

>  <PUBCHEM_SHAPE_VOLUME>  (1) 
358

>  <PUBCHEM_COORDINATE_TYPE>  (1) 
2
5
10

$$$$
