31434
     RDKit          3D

 12 14  0  0  1  0  0  0  0  0999 V2000
    2.9790   -0.1696    0.0001 O   0  0  0  0  0  0  0  0  0  0  0  0
    1.2086    1.2643   -0.0003 N   0  0  0  0  0  0  0  0  0  0  0  0
   -1.2781   -0.3469   -1.2506 C   0  0  0  0  0  0  0  0  0  0  0  0
   -1.2777   -0.3465    1.2510 C   0  0  0  0  0  0  0  0  0  0  0  0
   -2.1031   -0.6576    0.0003 C   0  0  0  0  0  0  0  0  0  0  0  0
   -0.2072    1.6149   -0.0002 C   0  0  0  0  0  0  0  0  0  0  0  0
    0.8066   -1.1788   -0.0001 C   0  0  0  0  0  0  0  0  0  0  0  0
   -0.9139    1.1436   -1.2755 C   0  0  0  0  0  0  0  0  0  0  0  0
   -0.9137    1.1439    1.2754 C   0  0  0  0  0  0  0  0  0  0  0  0
   -0.0295   -1.2371   -1.2831 C   0  0  0  0  0  0  0  0  0  0  0  0
   -0.0291   -1.2368    1.2832 C   0  0  0  0  0  0  0  0  0  0  0  0
    1.7582    0.0066   -0.0002 C   0  0  0  0  0  0  0  0  0  0  0  0
  1 12  2  0
  2  6  1  0
  2 12  1  0
  3  5  1  0
  3  8  1  0
  3 10  1  0
  4  5  1  0
  4  9  1  0
  4 11  1  0
  6  8  1  0
  6  9  1  0
  7 10  1  0
  7 11  1  0
  7 12  1  0
M  END
>  <PUBCHEM_COMPOUND_CID>  (1) 
31434

>  <PUBCHEM_CONFORMER_RMSD>  (1) 
0.4

>  <PUBCHEM_CONFORMER_DIVERSEORDER>  (1) 
1

>  <PUBCHEM_MMFF94_PARTIAL_CHARGES>  (1) 
6
1 -0.57
12 0.57
2 -0.73
27 0.37
6 0.3
7 0.06

>  <PUBCHEM_EFFECTIVE_ROTOR_COUNT>  (1) 
1.2

>  <PUBCHEM_PHARMACOPHORE_FEATURES>  (1) 
6
1 1 acceptor
1 2 donor
6 3 4 5 6 8 9 rings
6 3 4 5 7 10 11 rings
7 2 3 6 7 8 10 12 rings
7 2 4 6 7 9 11 12 rings

>  <PUBCHEM_HEAVY_ATOM_COUNT>  (1) 
12

>  <PUBCHEM_ATOM_DEF_STEREO_COUNT>  (1) 
1

>  <PUBCHEM_ATOM_UDEF_STEREO_COUNT>  (1) 
1

>  <PUBCHEM_BOND_DEF_STEREO_COUNT>  (1) 
0

>  <PUBCHEM_BOND_UDEF_STEREO_COUNT>  (1) 
0

>  <PUBCHEM_ISOTOPIC_ATOM_COUNT>  (1) 
0

>  <PUBCHEM_COMPONENT_COUNT>  (1) 
1

>  <PUBCHEM_CACTVS_TAUTO_COUNT>  (1) 
2

>  <PUBCHEM_CONFORMER_ID>  (1) 
00007ACA00000001

>  <PUBCHEM_MMFF94_ENERGY>  (1) 
26.7148

>  <PUBCHEM_FEATURE_SELFOVERLAP>  (1) 
40.445

>  <PUBCHEM_SHAPE_FINGERPRINT>  (1) 
10702982 57 16485856778891232952
12423570 1 11521964235156119649
13024252 1 17313103046893796686
137420 1 12439693231992105671
144361 1 18125419943781741885
15557651 10 18115288094603308519
16945 1 18410856585631204387
241688 4 17906144584772985711
369184 2 18040712554618765626
5084963 1 18335420175197010940
528886 8 18131057217386076407
68250623 7 17900805073093793527

>  <PUBCHEM_SHAPE_MULTIPOLES>  (1) 
236.1
2.39
1.61
1.45
1.42
0.29
0
-0.14
0
-0.09
0
-0.56
-0.13
0

>  <PUBCHEM_SHAPE_SELFOVERLAP>  (1) 
510.261

>  <PUBCHEM_SHAPE_VOLUME>  (1) 
125.9

>  <PUBCHEM_COORDINATE_TYPE>  (1) 
2
5
10

$$$$
