31432
     RDKit          3D

  9  8  0  0  0  0  0  0  0  0999 V2000
    2.3022    1.4611    0.1951 Cl  0  0  0  0  0  0  0  0  0  0  0  0
    2.3024   -1.4623    0.1919 Cl  0  0  0  0  0  0  0  0  0  0  0  0
    0.3393    0.0035   -1.6656 O   0  0  0  0  0  0  0  0  0  0  0  0
   -1.2531   -0.0003    0.1634 C   0  0  0  0  0  0  0  0  0  0  0  0
   -1.4481    1.2482    1.0333 C   0  0  0  0  0  0  0  0  0  0  0  0
   -1.4642   -1.2742    0.9920 C   0  0  0  0  0  0  0  0  0  0  0  0
   -2.2969    0.0243   -0.9682 C   0  0  0  0  0  0  0  0  0  0  0  0
    0.1662    0.0006   -0.4429 C   0  0  0  0  0  0  0  0  0  0  0  0
    1.3522   -0.0008    0.5010 C   0  0  0  0  0  0  0  0  0  0  0  0
  1  9  1  0
  2  9  1  0
  3  8  2  0
  4  5  1  0
  4  6  1  0
  4  7  1  0
  4  8  1  0
  8  9  1  0
M  END
>  <PUBCHEM_COMPOUND_CID>  (1) 
31432

>  <PUBCHEM_CONFORMER_RMSD>  (1) 
0.4

>  <PUBCHEM_CONFORMER_DIVERSEORDER>  (1) 
1
5
6
4
3
2

>  <PUBCHEM_MMFF94_PARTIAL_CHARGES>  (1) 
6
1 -0.29
2 -0.29
3 -0.57
4 0.06
8 0.45
9 0.64

>  <PUBCHEM_EFFECTIVE_ROTOR_COUNT>  (1) 
2

>  <PUBCHEM_PHARMACOPHORE_FEATURES>  (1) 
2
1 3 acceptor
4 4 5 6 7 hydrophobe

>  <PUBCHEM_HEAVY_ATOM_COUNT>  (1) 
9

>  <PUBCHEM_ATOM_DEF_STEREO_COUNT>  (1) 
0

>  <PUBCHEM_ATOM_UDEF_STEREO_COUNT>  (1) 
0

>  <PUBCHEM_BOND_DEF_STEREO_COUNT>  (1) 
0

>  <PUBCHEM_BOND_UDEF_STEREO_COUNT>  (1) 
0

>  <PUBCHEM_ISOTOPIC_ATOM_COUNT>  (1) 
0

>  <PUBCHEM_COMPONENT_COUNT>  (1) 
1

>  <PUBCHEM_CACTVS_TAUTO_COUNT>  (1) 
2

>  <PUBCHEM_CONFORMER_ID>  (1) 
00007AC800000001

>  <PUBCHEM_MMFF94_ENERGY>  (1) 
17.6047

>  <PUBCHEM_FEATURE_SELFOVERLAP>  (1) 
10.148

>  <PUBCHEM_SHAPE_FINGERPRINT>  (1) 
12932741 1 18186801387435892222
137420 1 10914482879677970959
16945 1 18189049807047038226
20645464 45 17676757734562077952
20653085 51 18116421562474966765
21040471 1 15503200186169049085
21922407 69 18272366520412509034
23552423 10 18272647913753172990
24536 1 18411423907650297625
29004967 10 18186517739263726160
369184 2 18411417315118123865
5084963 1 16415482644645611734

>  <PUBCHEM_SHAPE_MULTIPOLES>  (1) 
183.09
3.38
1.5
1.23
0.75
0.01
0.27
0
-0.11
0.68
-0.42
-0.46
-0.01
0

>  <PUBCHEM_SHAPE_SELFOVERLAP>  (1) 
327.631

>  <PUBCHEM_SHAPE_VOLUME>  (1) 
121.7

>  <PUBCHEM_COORDINATE_TYPE>  (1) 
2
5
10

$$$$
