31435
     RDKit          3D

  8  7  0  0  0  0  0  0  0  0999 V2000
    1.7200   -0.6209    1.0419 S   0  0  0  0  0  0  0  0  0  0  0  0
   -1.7226   -0.6180    1.0411 S   0  0  0  0  0  0  0  0  0  0  0  0
   -0.0010   -0.3005   -0.1321 P   0  0  0  0  0  0  0  0  0  0  0  0
    0.0032    1.2214   -0.7084 O   0  0  0  0  0  0  0  0  0  0  0  0
    0.0005   -1.2905   -1.2710 O   0  0  0  0  0  0  0  0  0  0  0  0
    3.1112   -0.3589   -0.0758 C   0  0  0  0  0  0  0  0  0  0  0  0
   -3.1139   -0.3566   -0.0769 C   0  0  0  0  0  0  0  0  0  0  0  0
    0.0026    2.3239    0.1812 C   0  0  0  0  0  0  0  0  0  0  0  0
  1  3  1  0
  1  6  1  0
  2  3  1  0
  2  7  1  0
  3  4  1  0
  3  5  2  0
  4  8  1  0
M  END
>  <PUBCHEM_COMPOUND_CID>  (1) 
31435

>  <PUBCHEM_CONFORMER_RMSD>  (1) 
0.6

>  <PUBCHEM_CONFORMER_DIVERSEORDER>  (1) 
1
10
4
5
9
2
3
8
7
11
6

>  <PUBCHEM_MMFF94_PARTIAL_CHARGES>  (1) 
8
1 -0.48
2 -0.48
3 1.47
4 -0.55
5 -0.7
6 0.23
7 0.23
8 0.28

>  <PUBCHEM_EFFECTIVE_ROTOR_COUNT>  (1) 
3

>  <PUBCHEM_PHARMACOPHORE_FEATURES>  (1) 
0

>  <PUBCHEM_HEAVY_ATOM_COUNT>  (1) 
8

>  <PUBCHEM_ATOM_DEF_STEREO_COUNT>  (1) 
0

>  <PUBCHEM_ATOM_UDEF_STEREO_COUNT>  (1) 
0

>  <PUBCHEM_BOND_DEF_STEREO_COUNT>  (1) 
0

>  <PUBCHEM_BOND_UDEF_STEREO_COUNT>  (1) 
0

>  <PUBCHEM_ISOTOPIC_ATOM_COUNT>  (1) 
0

>  <PUBCHEM_COMPONENT_COUNT>  (1) 
1

>  <PUBCHEM_CACTVS_TAUTO_COUNT>  (1) 
1

>  <PUBCHEM_CONFORMER_ID>  (1) 
00007ACB00000001

>  <PUBCHEM_MMFF94_ENERGY>  (1) 
1.3625

>  <PUBCHEM_FEATURE_SELFOVERLAP>  (1) 
0

>  <PUBCHEM_SHAPE_FINGERPRINT>  (1) 
10219947 1 18343587347541991203
14993402 34 18271806868893731407
16714656 1 18343299254152461710
18342897 14 18113625552013870753
23552333 60 16515957086833870434
23552449 11 18335988683033363763
3250762 1 17551239466893742110
5084963 1 15123791785908099915
5943 1 15035503102441722262
68250623 7 17903917751667820530

>  <PUBCHEM_SHAPE_MULTIPOLES>  (1) 
164.45
3.93
1.75
1.13
0.01
1.53
0.01
-1.35
-0.27
0
-0.05
0
-0.32
0

>  <PUBCHEM_SHAPE_SELFOVERLAP>  (1) 
249.881

>  <PUBCHEM_SHAPE_VOLUME>  (1) 
122.1

>  <PUBCHEM_COORDINATE_TYPE>  (1) 
2
5
10

$$$$
