31448
     RDKit          3D

 11 11  0  0  1  0  0  0  0  0999 V2000
    0.2387    1.0703   -0.3966 O   0  0  0  0  0  0  0  0  0  0  0  0
    0.6062   -1.2732   -0.1773 O   0  0  0  0  0  0  0  0  0  0  0  0
   -1.1385    0.9810   -0.0025 C   0  0  0  0  0  0  0  0  0  0  0  0
   -1.6577   -0.4477   -0.2524 C   0  0  0  0  0  0  0  0  0  0  0  0
   -0.7113   -1.5017    0.3272 C   0  0  0  0  0  0  0  0  0  0  0  0
    1.0623    0.0396    0.1494 C   0  0  0  0  0  0  0  0  0  0  0  0
   -1.9045    1.9686   -0.8921 C   0  0  0  0  0  0  0  0  0  0  0  0
   -1.3093    1.4138    1.4607 C   0  0  0  0  0  0  0  0  0  0  0  0
   -1.1329   -2.9077   -0.0765 C   0  0  0  0  0  0  0  0  0  0  0  0
    2.4246    0.2067   -0.4318 C   0  0  0  0  0  0  0  0  0  0  0  0
    3.5224    0.4502    0.2920 C   0  0  0  0  0  0  0  0  0  0  0  0
  1  3  1  0
  1  6  1  0
  2  5  1  0
  2  6  1  0
  3  4  1  0
  3  7  1  0
  3  8  1  0
  4  5  1  0
  5  9  1  0
  6 10  1  0
 10 11  2  0
M  END
>  <PUBCHEM_COMPOUND_CID>  (1) 
31448

>  <PUBCHEM_CONFORMER_RMSD>  (1) 
0.6

>  <PUBCHEM_CONFORMER_DIVERSEORDER>  (1) 
3
9
7
6
5
8
2
4
1

>  <PUBCHEM_MMFF94_PARTIAL_CHARGES>  (1) 
10
1 -0.56
10 -0.29
11 -0.3
2 -0.56
25 0.15
26 0.15
27 0.15
3 0.28
5 0.28
6 0.7

>  <PUBCHEM_EFFECTIVE_ROTOR_COUNT>  (1) 
2.2

>  <PUBCHEM_PHARMACOPHORE_FEATURES>  (1) 
5
1 1 acceptor
1 11 hydrophobe
1 2 acceptor
3 3 7 8 hydrophobe
6 1 2 3 4 5 6 rings

>  <PUBCHEM_HEAVY_ATOM_COUNT>  (1) 
11

>  <PUBCHEM_ATOM_DEF_STEREO_COUNT>  (1) 
0

>  <PUBCHEM_ATOM_UDEF_STEREO_COUNT>  (1) 
2

>  <PUBCHEM_BOND_DEF_STEREO_COUNT>  (1) 
0

>  <PUBCHEM_BOND_UDEF_STEREO_COUNT>  (1) 
0

>  <PUBCHEM_ISOTOPIC_ATOM_COUNT>  (1) 
0

>  <PUBCHEM_COMPONENT_COUNT>  (1) 
1

>  <PUBCHEM_CACTVS_TAUTO_COUNT>  (1) 
1

>  <PUBCHEM_CONFORMER_ID>  (1) 
00007AD800000003

>  <PUBCHEM_MMFF94_ENERGY>  (1) 
22.6499

>  <PUBCHEM_FEATURE_SELFOVERLAP>  (1) 
25.406

>  <PUBCHEM_SHAPE_FINGERPRINT>  (1) 
1 1 17903914461537943719
12716758 59 18412825763917684770
13024252 1 14995997761335429760
14128692 85 17902797705743152670
14817 1 11453656229367280821
16945 1 18336254751572058367
19837323 101 16845017788348990433
20871998 184 18199755910791480326
21040471 1 18336828580835831068
23211744 25 18055883607548200493
23419403 2 17483370295251315801
23552423 10 17826795042710225564
2748010 2 18192441774596201823
369184 2 18334292076383165232
5084963 1 18270396071005567596
6333449 129 18413387648640062900
81228 2 18266470969081815426

>  <PUBCHEM_SHAPE_MULTIPOLES>  (1) 
214.64
3.56
2.51
0.94
4.28
1.59
-0.22
-0.99
0.07
-2.02
0.11
-0.35
-0.44
0.08

>  <PUBCHEM_SHAPE_SELFOVERLAP>  (1) 
419.228

>  <PUBCHEM_SHAPE_VOLUME>  (1) 
129.2

>  <PUBCHEM_COORDINATE_TYPE>  (1) 
2
5
10

$$$$
