31446
     RDKit          3D

 13 14  0  0  1  0  0  0  0  0999 V2000
    4.0801    1.5781   -0.1710 N   0  0  0  0  0  0  0  0  0  0  0  0
    2.3031   -2.5075    0.1210 N   0  0  0  0  0  0  0  0  0  0  0  0
   -1.5130    0.1201   -1.0209 C   0  0  0  0  0  0  0  0  0  0  0  0
   -2.7253    0.6644    0.7759 C   0  0  0  0  0  0  0  0  0  0  0  0
   -0.5380   -0.1913    0.1460 C   0  0  0  0  0  0  0  0  0  0  0  0
   -2.2482    1.3623   -0.5002 C   0  0  0  0  0  0  0  0  0  0  0  0
   -1.3795    0.2243    1.3966 C   0  0  0  0  0  0  0  0  0  0  0  0
   -2.6513   -0.8719   -0.9306 C   0  0  0  0  0  0  0  0  0  0  0  0
   -3.3742   -0.5482    0.1519 C   0  0  0  0  0  0  0  0  0  0  0  0
    0.7480    0.5665    0.0443 C   0  0  0  0  0  0  0  0  0  0  0  0
    1.9939    0.0596    0.0079 C   0  0  0  0  0  0  0  0  0  0  0  0
    3.1417    0.9000   -0.0911 C   0  0  0  0  0  0  0  0  0  0  0  0
    2.1628   -1.3565    0.0703 C   0  0  0  0  0  0  0  0  0  0  0  0
  1 12  3  0
  2 13  3  0
  3  5  1  0
  3  6  1  0
  3  8  1  0
  4  6  1  0
  4  7  1  0
  4  9  1  0
  5  7  1  0
  5 10  1  0
  8  9  2  0
 10 11  2  3
 11 12  1  0
 11 13  1  0
M  END
>  <PUBCHEM_COMPOUND_CID>  (1) 
31446

>  <PUBCHEM_CONFORMER_RMSD>  (1) 
0.6

>  <PUBCHEM_CONFORMER_DIVERSEORDER>  (1) 
1
9
10
5
12
11
2
8
14
6
13
7
3
4

>  <PUBCHEM_MMFF94_PARTIAL_CHARGES>  (1) 
14
1 -0.56
10 -0.29
11 0.13
12 0.49
13 0.49
2 -0.56
21 0.15
22 0.15
23 0.15
3 0.14
4 0.14
5 0.14
8 -0.29
9 -0.29

>  <PUBCHEM_EFFECTIVE_ROTOR_COUNT>  (1) 
1.6

>  <PUBCHEM_PHARMACOPHORE_FEATURES>  (1) 
3
1 1 acceptor
1 2 acceptor
7 3 4 5 6 7 8 9 rings

>  <PUBCHEM_HEAVY_ATOM_COUNT>  (1) 
13

>  <PUBCHEM_ATOM_DEF_STEREO_COUNT>  (1) 
0

>  <PUBCHEM_ATOM_UDEF_STEREO_COUNT>  (1) 
3

>  <PUBCHEM_BOND_DEF_STEREO_COUNT>  (1) 
0

>  <PUBCHEM_BOND_UDEF_STEREO_COUNT>  (1) 
0

>  <PUBCHEM_ISOTOPIC_ATOM_COUNT>  (1) 
0

>  <PUBCHEM_COMPONENT_COUNT>  (1) 
1

>  <PUBCHEM_CACTVS_TAUTO_COUNT>  (1) 
1

>  <PUBCHEM_CONFORMER_ID>  (1) 
00007AD600000001

>  <PUBCHEM_MMFF94_ENERGY>  (1) 
39.8058

>  <PUBCHEM_FEATURE_SELFOVERLAP>  (1) 
15.223

>  <PUBCHEM_SHAPE_FINGERPRINT>  (1) 
107287 299 18187096056900191886
12932764 1 17703500056198791993
13024252 1 16877940560136346061
13296908 3 18335138639869277030
13380535 76 18260547878863749602
13760787 19 18202566189687243271
14144814 61 18342174457735599152
15219456 202 18187364290033851612
15279307 12 18272931648004351742
15310529 11 18413385423741463109
15375462 189 18059857293973466579
15669948 3 17418087732907729775
15775835 57 18272092703267470125
16945 1 18270665593351985541
18186145 218 18340773654452663220
18619055 16 18271799064996105149
19422 9 18131355180563096158
200 152 18341042016941698573
20201158 50 18040154041176747936
20279233 1 16877660166863562275
204376 136 18263646345854769172
20645464 45 17095242531468957641
20645477 70 18338791217729267111
20653085 51 18118118078878208017
21499 59 18337110197968618100
23402539 116 17023452170396309655
23493267 7 16845025549417944307
23557571 272 16950285100316730559
3248919 1 17240210923361601340
369184 2 18341050735809731225
7364860 26 18341613668768127102
74978 22 18196372520049114582
77492 1 17917710171407551674
8030462 33 17846489327172066233

>  <PUBCHEM_SHAPE_MULTIPOLES>  (1) 
257.57
6.27
1.65
0.99
3.19
0.72
-0.1
-0.94
0.3
1.44
0.06
-0.68
-0.05
-0.34

>  <PUBCHEM_SHAPE_SELFOVERLAP>  (1) 
551.298

>  <PUBCHEM_SHAPE_VOLUME>  (1) 
143.7

>  <PUBCHEM_COORDINATE_TYPE>  (1) 
2
5
10

$$$$
