31451
     RDKit          3D

 15 15  0  0  0  0  0  0  0  0999 V2000
   -1.4553   -1.2392   -0.2619 O   0  0  0  0  0  0  0  0  0  0  0  0
   -1.9445    1.0580    0.0969 O   0  0  0  0  0  0  0  0  0  0  0  0
    2.6670   -0.3710   -0.0157 O   0  0  0  0  0  0  0  0  0  0  0  0
    0.3849    0.3190    0.1365 C   0  0  0  0  0  0  0  0  0  0  0  0
   -0.0889   -0.9630   -0.5737 C   0  0  0  0  0  0  0  0  0  0  0  0
   -0.6034    1.4528   -0.1960 C   0  0  0  0  0  0  0  0  0  0  0  0
    1.7941    0.6933   -0.3373 C   0  0  0  0  0  0  0  0  0  0  0  0
   -2.2917   -0.1342   -0.6115 C   0  0  0  0  0  0  0  0  0  0  0  0
    0.4075    0.0857    1.6595 C   0  0  0  0  0  0  0  0  0  0  0  0
   -3.7191   -0.4964   -0.2381 C   0  0  0  0  0  0  0  0  0  0  0  0
   -3.8396   -0.7569    1.2646 C   0  0  0  0  0  0  0  0  0  0  0  0
   -4.6904    0.6058   -0.6650 C   0  0  0  0  0  0  0  0  0  0  0  0
    4.0041   -0.1013   -0.4247 C   0  0  0  0  0  0  0  0  0  0  0  0
    4.4986    1.1544    0.2769 C   0  0  0  0  0  0  0  0  0  0  0  0
    4.8767   -1.3070   -0.1106 C   0  0  0  0  0  0  0  0  0  0  0  0
  1  5  1  0
  1  8  1  0
  2  6  1  0
  2  8  1  0
  3  7  1  0
  3 13  1  0
  4  5  1  0
  4  6  1  0
  4  7  1  0
  4  9  1  0
  8 10  1  0
 10 11  1  0
 10 12  1  0
 13 14  1  0
 13 15  1  0
M  END
>  <PUBCHEM_COMPOUND_CID>  (1) 
31451

>  <PUBCHEM_CONFORMER_RMSD>  (1) 
0.6

>  <PUBCHEM_CONFORMER_DIVERSEORDER>  (1) 
1
9
22
26
14
21
20
8
16
19
2
17
18
12
10
24
5
4
27
23
25
6
13
11
15
7
3

>  <PUBCHEM_MMFF94_PARTIAL_CHARGES>  (1) 
8
1 -0.56
13 0.28
2 -0.56
3 -0.56
5 0.28
6 0.28
7 0.28
8 0.56

>  <PUBCHEM_EFFECTIVE_ROTOR_COUNT>  (1) 
5.2

>  <PUBCHEM_PHARMACOPHORE_FEATURES>  (1) 
6
1 1 acceptor
1 2 acceptor
1 3 acceptor
3 10 11 12 hydrophobe
3 13 14 15 hydrophobe
6 1 2 4 5 6 8 rings

>  <PUBCHEM_HEAVY_ATOM_COUNT>  (1) 
15

>  <PUBCHEM_ATOM_DEF_STEREO_COUNT>  (1) 
0

>  <PUBCHEM_ATOM_UDEF_STEREO_COUNT>  (1) 
0

>  <PUBCHEM_BOND_DEF_STEREO_COUNT>  (1) 
0

>  <PUBCHEM_BOND_UDEF_STEREO_COUNT>  (1) 
0

>  <PUBCHEM_ISOTOPIC_ATOM_COUNT>  (1) 
0

>  <PUBCHEM_COMPONENT_COUNT>  (1) 
1

>  <PUBCHEM_CACTVS_TAUTO_COUNT>  (1) 
1

>  <PUBCHEM_CONFORMER_ID>  (1) 
00007ADB00000001

>  <PUBCHEM_MMFF94_ENERGY>  (1) 
39.3621

>  <PUBCHEM_FEATURE_SELFOVERLAP>  (1) 
30.483

>  <PUBCHEM_SHAPE_FINGERPRINT>  (1) 
10130415 120 17346882273229248346
10465860 250 17203324498878138474
11062470 55 13542468665308559838
11401426 45 18272083907559485485
12032990 46 18334299789912157797
12186901 62 18041272171598574261
124424 183 17131833183525219819
13288520 33 18341615880465054294
13675066 3 18260830431523563660
13690532 89 18410573968298668726
13760787 19 17022615365128505587
13760787 5 18131071540906842724
14123238 8 18131351929536415300
14943859 89 18409447011502927490
15048467 5 17846501456212815256
15342168 16 11743249850173008762
16945 1 17988656206808913373
17834072 33 16414907655904322781
17834072 8 18334293141281749998
18186145 218 16877938373491525580
187816 3 17313106341202362424
200 152 17917989464535523316
20281475 54 17846493768363546270
20645477 56 18338791321108993300
20645477 70 18342737386763206854
21119208 17 18260265243881599284
22485316 2 18343016718097244054
23402539 116 18201712947099660125
23493267 7 18040710334484729017
23557571 272 18041279842278406900
23559900 14 18342453768861162928
265663 24 12829482671076297024
3286 77 16343409713511669233
42 15 18410013226037656246
4990 188 17458064859102511666
5104073 3 18411699851220990592
5374978 207 18202557385347106592
633830 44 17386002909593056460
69090 78 18272647965524928326

>  <PUBCHEM_SHAPE_MULTIPOLES>  (1) 
291.09
9.72
1.3
1.03
3.82
0.06
0.4
-1
-0.58
0.4
-0.05
-0.46
-0.08
0.49

>  <PUBCHEM_SHAPE_SELFOVERLAP>  (1) 
566.544

>  <PUBCHEM_SHAPE_VOLUME>  (1) 
176.5

>  <PUBCHEM_COORDINATE_TYPE>  (1) 
2
5
10

$$$$
