31452
     RDKit          3D

 13 13  0  0  1  0  0  0  0  0999 V2000
   -1.8571   -0.1202   -1.1065 O   0  0  0  0  0  0  0  0  0  0  0  0
   -1.7477    0.5039    1.1834 O   0  0  0  0  0  0  0  0  0  0  0  0
    1.9736    1.2710   -0.4818 O   0  0  0  0  0  0  0  0  0  0  0  0
    0.2705   -0.3215    0.0793 C   0  0  0  0  0  0  0  0  0  0  0  0
    1.7765   -0.0709   -0.0607 C   0  0  0  0  0  0  0  0  0  0  0  0
   -0.4389   -0.0423   -1.2590 C   0  0  0  0  0  0  0  0  0  0  0  0
   -0.3240    0.6137    1.1492 C   0  0  0  0  0  0  0  0  0  0  0  0
    0.0367   -1.7882    0.4900 C   0  0  0  0  0  0  0  0  0  0  0  0
   -2.3123    0.7861   -0.0992 C   0  0  0  0  0  0  0  0  0  0  0  0
    2.4768   -0.3062    1.2634 C   0  0  0  0  0  0  0  0  0  0  0  0
    0.6113   -2.7344   -0.5391 C   0  0  0  0  0  0  0  0  0  0  0  0
   -3.8196    0.6347    0.0140 C   0  0  0  0  0  0  0  0  0  0  0  0
    3.3542    1.5742   -0.6329 C   0  0  0  0  0  0  0  0  0  0  0  0
  1  6  1  0
  1  9  1  0
  2  7  1  0
  2  9  1  0
  3  5  1  0
  3 13  1  0
  4  5  1  0
  4  6  1  0
  4  7  1  0
  4  8  1  0
  5 10  1  0
  8 11  1  0
  9 12  1  0
M  END
>  <PUBCHEM_COMPOUND_CID>  (1) 
31452

>  <PUBCHEM_CONFORMER_RMSD>  (1) 
0.6

>  <PUBCHEM_CONFORMER_DIVERSEORDER>  (1) 
5
13
4
16
17
7
10
8
11
6
3
14
15
2
9
1
12

>  <PUBCHEM_MMFF94_PARTIAL_CHARGES>  (1) 
8
1 -0.56
13 0.28
2 -0.56
3 -0.56
5 0.28
6 0.28
7 0.28
9 0.56

>  <PUBCHEM_EFFECTIVE_ROTOR_COUNT>  (1) 
4.2

>  <PUBCHEM_PHARMACOPHORE_FEATURES>  (1) 
5
1 1 acceptor
1 11 hydrophobe
1 2 acceptor
1 3 acceptor
6 1 2 4 6 7 9 rings

>  <PUBCHEM_HEAVY_ATOM_COUNT>  (1) 
13

>  <PUBCHEM_ATOM_DEF_STEREO_COUNT>  (1) 
0

>  <PUBCHEM_ATOM_UDEF_STEREO_COUNT>  (1) 
1

>  <PUBCHEM_BOND_DEF_STEREO_COUNT>  (1) 
0

>  <PUBCHEM_BOND_UDEF_STEREO_COUNT>  (1) 
0

>  <PUBCHEM_ISOTOPIC_ATOM_COUNT>  (1) 
0

>  <PUBCHEM_COMPONENT_COUNT>  (1) 
1

>  <PUBCHEM_CACTVS_TAUTO_COUNT>  (1) 
1

>  <PUBCHEM_CONFORMER_ID>  (1) 
00007ADC00000005

>  <PUBCHEM_MMFF94_ENERGY>  (1) 
45.2445

>  <PUBCHEM_FEATURE_SELFOVERLAP>  (1) 
25.408

>  <PUBCHEM_SHAPE_FINGERPRINT>  (1) 
1 1 18336263457650329870
10219947 1 17968095304883247621
10857977 72 15140681379932971781
10922049 32 18338528515906595750
12119455 92 17967805072220346116
12138202 97 18199201761362945302
12326174 3 18042967575652869146
12423570 1 18119220914383201846
13024252 1 14563636890018349694
15775835 57 18187646950569449948
16945 1 18263922146583478983
18175812 5 17530687601863746467
18186145 218 18342171185113249940
19786989 88 18260541204326023821
19873495 37 17988925595589462767
20645476 183 18342174530908305548
20711985 344 17763736990043080398
21524375 3 18334858350541027312
22802520 49 15339125653608463381
228727 97 17704079468936003929
23211744 41 17458336403924812925
23235685 24 18411981373131032832
23419403 2 17469943948374975418
23552423 10 18056764230362398327
276578 36 18131352973192479699
369184 2 16732975444591540889
430814 3 18412823598906001694
5084963 1 18058734598075121392
528862 383 18268421331084988291
528886 8 18410007758175140160
7364860 26 17559106567143245262
81228 2 17689712382418982850

>  <PUBCHEM_SHAPE_MULTIPOLES>  (1) 
249.93
4.6
1.92
1.21
1.57
1.46
0.1
-2.76
-0.14
-1.07
-0.35
-0.1
-0.04
-0.45

>  <PUBCHEM_SHAPE_SELFOVERLAP>  (1) 
490.769

>  <PUBCHEM_SHAPE_VOLUME>  (1) 
149.8

>  <PUBCHEM_COORDINATE_TYPE>  (1) 
2
5
10

$$$$
