31456
     RDKit          3D

 16 16  0  0  1  0  0  0  0  0999 V2000
   -1.2060    0.3431    1.1828 O   0  0  0  0  0  0  0  0  0  0  0  0
   -1.3585   -0.7719   -0.9098 O   0  0  0  0  0  0  0  0  0  0  0  0
    2.4072   -1.5765    0.6554 O   0  0  0  0  0  0  0  0  0  0  0  0
    0.8195    0.0359   -0.1499 C   0  0  0  0  0  0  0  0  0  0  0  0
    2.3002   -0.3498   -0.0526 C   0  0  0  0  0  0  0  0  0  0  0  0
    0.2056    0.1377    1.2590 C   0  0  0  0  0  0  0  0  0  0  0  0
    0.0451   -1.0347   -0.9418 C   0  0  0  0  0  0  0  0  0  0  0  0
    0.6959    1.3953   -0.8650 C   0  0  0  0  0  0  0  0  0  0  0  0
   -1.8340   -0.7018    0.4366 C   0  0  0  0  0  0  0  0  0  0  0  0
   -3.3233   -0.4063    0.3876 C   0  0  0  0  0  0  0  0  0  0  0  0
    2.9267   -0.4965   -1.4260 C   0  0  0  0  0  0  0  0  0  0  0  0
    1.4127    2.4592   -0.1035 C   0  0  0  0  0  0  0  0  0  0  0  0
   -3.5908    0.9311   -0.3054 C   0  0  0  0  0  0  0  0  0  0  0  0
   -4.0791   -1.5317   -0.3215 C   0  0  0  0  0  0  0  0  0  0  0  0
    3.7611   -1.9912    0.7808 C   0  0  0  0  0  0  0  0  0  0  0  0
    0.8176    3.5582    0.3733 C   0  0  0  0  0  0  0  0  0  0  0  0
  1  6  1  0
  1  9  1  0
  2  7  1  0
  2  9  1  0
  3  5  1  0
  3 15  1  0
  4  5  1  0
  4  6  1  0
  4  7  1  0
  4  8  1  0
  5 11  1  0
  8 12  1  0
  9 10  1  0
 10 13  1  0
 10 14  1  0
 12 16  2  0
M  END
>  <PUBCHEM_COMPOUND_CID>  (1) 
31456

>  <PUBCHEM_CONFORMER_RMSD>  (1) 
0.8

>  <PUBCHEM_CONFORMER_DIVERSEORDER>  (1) 
1
12
6
4
19
17
18
15
11
13
8
9
5
7
14
2
16
10
3

>  <PUBCHEM_MMFF94_PARTIAL_CHARGES>  (1) 
14
1 -0.56
12 -0.29
15 0.28
16 -0.3
2 -0.56
29 0.15
3 -0.56
39 0.15
40 0.15
5 0.28
6 0.28
7 0.28
8 0.14
9 0.56

>  <PUBCHEM_EFFECTIVE_ROTOR_COUNT>  (1) 
6.2

>  <PUBCHEM_PHARMACOPHORE_FEATURES>  (1) 
6
1 1 acceptor
1 16 hydrophobe
1 2 acceptor
1 3 acceptor
3 10 13 14 hydrophobe
6 1 2 4 6 7 9 rings

>  <PUBCHEM_HEAVY_ATOM_COUNT>  (1) 
16

>  <PUBCHEM_ATOM_DEF_STEREO_COUNT>  (1) 
1

>  <PUBCHEM_ATOM_UDEF_STEREO_COUNT>  (1) 
0

>  <PUBCHEM_BOND_DEF_STEREO_COUNT>  (1) 
0

>  <PUBCHEM_BOND_UDEF_STEREO_COUNT>  (1) 
0

>  <PUBCHEM_ISOTOPIC_ATOM_COUNT>  (1) 
0

>  <PUBCHEM_COMPONENT_COUNT>  (1) 
1

>  <PUBCHEM_CACTVS_TAUTO_COUNT>  (1) 
1

>  <PUBCHEM_CONFORMER_ID>  (1) 
00007AE000000001

>  <PUBCHEM_MMFF94_ENERGY>  (1) 
51.1746

>  <PUBCHEM_FEATURE_SELFOVERLAP>  (1) 
30.483

>  <PUBCHEM_SHAPE_FINGERPRINT>  (1) 
10130415 120 18187083901757784810
116883 192 17907866106449477054
12119455 92 12319443360514775514
12423570 1 10903255616307576208
12507560 18 17750235794623018489
12932764 1 18261967339837897679
13134695 92 18408878533984885133
14115302 16 17632863044696508999
14181834 199 18341614879400363116
14617773 55 17753631056755015088
14993402 34 18271259265127432238
15375462 6 18192713569207010245
16945 1 18335988674053084411
17041 49 18411706448148325241
17041 50 18341339924294693189
17841504 4 18335420192339963395
18186145 218 18412549838149496827
18410436 195 18411417289353965064
19010151 120 18338237063868653538
19765921 60 17552360290159887905
200 152 17822859671825876962
20339313 130 18343310274695587036
20361792 2 18412542085469946046
20559304 39 18341334503935156465
20645477 70 18198628916084819047
20671657 53 18412831273938621955
20711985 327 18412825768017544762
21130352 189 18411133610942980477
21296965 67 18335977571894959570
21501502 16 18270686488742375067
21524375 3 17623011604604938212
21947302 44 18117841225059493517
22112679 90 18196674916064855296
2255824 54 18339645671270631582
23402539 116 18054493726256471285
23419403 2 18044626807709018284
23526113 38 17023191543069437176
23532345 88 18269545203888190381
23557571 272 18197775493266299202
23559900 14 18338227280059909675
23598291 2 18128558079138433705
305870 269 18050000296737286632
3286 77 18187640332146211663
7364860 26 18198627824603813476
74978 22 18410576231788865479
81228 2 17977114461422055256
81539 233 17974566106621837229

>  <PUBCHEM_SHAPE_MULTIPOLES>  (1) 
311.66
6.04
2.73
1.16
3.9
2.81
0.04
-3.61
0.13
-1.87
-0.34
-0.42
-0.17
-0.44

>  <PUBCHEM_SHAPE_SELFOVERLAP>  (1) 
614.863

>  <PUBCHEM_SHAPE_VOLUME>  (1) 
185.4

>  <PUBCHEM_COORDINATE_TYPE>  (1) 
2
5
10

$$$$
