31458
     RDKit          3D

 16 16  0  0  1  0  0  0  0  0999 V2000
   -2.1795    1.2184   -1.1617 O   0  0  0  0  0  0  0  0  0  0  0  0
   -2.2387    0.8482    1.1845 O   0  0  0  0  0  0  0  0  0  0  0  0
    1.7117    0.4330    0.0845 O   0  0  0  0  0  0  0  0  0  0  0  0
   -0.5588   -0.3118   -0.1593 C   0  0  0  0  0  0  0  0  0  0  0  0
    0.9202   -0.7151   -0.1854 C   0  0  0  0  0  0  0  0  0  0  0  0
   -0.8465    0.7164   -1.2694 C   0  0  0  0  0  0  0  0  0  0  0  0
   -0.9089    0.3269    1.1979 C   0  0  0  0  0  0  0  0  0  0  0  0
   -1.4295   -1.5641   -0.3791 C   0  0  0  0  0  0  0  0  0  0  0  0
   -2.4049    1.7952    0.1265 C   0  0  0  0  0  0  0  0  0  0  0  0
    1.3120   -1.3007   -1.5284 C   0  0  0  0  0  0  0  0  0  0  0  0
   -1.1715   -2.5792    0.6834 C   0  0  0  0  0  0  0  0  0  0  0  0
    3.0994    0.1252    0.0746 C   0  0  0  0  0  0  0  0  0  0  0  0
   -3.8405    2.2902    0.1685 C   0  0  0  0  0  0  0  0  0  0  0  0
    3.8864    1.3930    0.3692 C   0  0  0  0  0  0  0  0  0  0  0  0
   -0.7347   -3.8188    0.4339 C   0  0  0  0  0  0  0  0  0  0  0  0
    5.3838    1.1432    0.3602 C   0  0  0  0  0  0  0  0  0  0  0  0
  1  6  1  0
  1  9  1  0
  2  7  1  0
  2  9  1  0
  3  5  1  0
  3 12  1  0
  4  5  1  0
  4  6  1  0
  4  7  1  0
  4  8  1  0
  5 10  1  0
  8 11  1  0
  9 13  1  0
 11 15  2  0
 12 14  1  0
 14 16  1  0
M  END
>  <PUBCHEM_COMPOUND_CID>  (1) 
31458

>  <PUBCHEM_CONFORMER_RMSD>  (1) 
0.8

>  <PUBCHEM_CONFORMER_DIVERSEORDER>  (1) 
3
7
28
20
22
30
6
29
18
26
23
35
27
31
11
17
12
19
37
42
32
25
34
8
21
38
40
36
39
15
44
10
43
9
24
14
4
2
33
16
45
5
41
13
1

>  <PUBCHEM_MMFF94_PARTIAL_CHARGES>  (1) 
14
1 -0.56
11 -0.29
12 0.28
15 -0.3
2 -0.56
28 0.15
3 -0.56
36 0.15
37 0.15
5 0.28
6 0.28
7 0.28
8 0.14
9 0.56

>  <PUBCHEM_EFFECTIVE_ROTOR_COUNT>  (1) 
7.2

>  <PUBCHEM_PHARMACOPHORE_FEATURES>  (1) 
6
1 1 acceptor
1 15 hydrophobe
1 16 hydrophobe
1 2 acceptor
1 3 acceptor
6 1 2 4 6 7 9 rings

>  <PUBCHEM_HEAVY_ATOM_COUNT>  (1) 
16

>  <PUBCHEM_ATOM_DEF_STEREO_COUNT>  (1) 
0

>  <PUBCHEM_ATOM_UDEF_STEREO_COUNT>  (1) 
1

>  <PUBCHEM_BOND_DEF_STEREO_COUNT>  (1) 
0

>  <PUBCHEM_BOND_UDEF_STEREO_COUNT>  (1) 
0

>  <PUBCHEM_ISOTOPIC_ATOM_COUNT>  (1) 
0

>  <PUBCHEM_COMPONENT_COUNT>  (1) 
1

>  <PUBCHEM_CACTVS_TAUTO_COUNT>  (1) 
1

>  <PUBCHEM_CONFORMER_ID>  (1) 
00007AE200000003

>  <PUBCHEM_MMFF94_ENERGY>  (1) 
44.5225

>  <PUBCHEM_FEATURE_SELFOVERLAP>  (1) 
30.483

>  <PUBCHEM_SHAPE_FINGERPRINT>  (1) 
1 1 18047475517523921711
11265709 11 17831023794216582443
11357001 24 18193276514586305314
12119455 92 18041553629485235517
12423570 1 11248740861663782435
12500047 106 18410288121309072856
12532896 13 18410577249548473631
13024252 1 14490456608661780207
13134695 92 17258493873608374215
13296909 8 18115583884985578692
13380535 76 18272088275372400878
13955234 65 17832150416405294793
14178000 29 8862071953723005777
14787075 74 18202562895769249649
15490181 7 18193845838434691663
16945 1 18194418885634595207
1741750 31 18412260636410589272
17980427 26 18052248501494027677
19765921 60 18129369415540186769
204376 136 18336827494251556473
20510252 161 18341614857967705115
20600515 1 17765738083941601475
20645477 56 18408605859791750604
21524375 3 18129372713858830960
21650355 55 17976823412731483994
23402539 116 18267295616078153959
23419403 2 13966165471161699651
23493267 7 18412820313846760218
23500284 214 18413108346859113152
23557571 272 18270975651642272940
23559900 14 18129100027308783470
25 1 18059289855716086120
27216 239 18200026386610049448
2748010 2 18192458310473706735
305870 269 18120651331903409237
394222 165 17912081647305552027
474 4 18128533765128013608
5104073 3 18337095883370388856
59755656 520 18408880720244278702
633830 44 17985832523473310629
7364860 26 17760367686988663667
77188 2 17472983277539127875
81228 2 18191603032066460611
84936 182 17983854480232095224
9981440 41 17774420773026725066

>  <PUBCHEM_SHAPE_MULTIPOLES>  (1) 
311.66
6.65
3.24
1.16
10.03
3.13
0.22
-6.32
-1.21
-2.86
-0.56
-0.26
0.06
0.55

>  <PUBCHEM_SHAPE_SELFOVERLAP>  (1) 
609.442

>  <PUBCHEM_SHAPE_VOLUME>  (1) 
186.5

>  <PUBCHEM_COORDINATE_TYPE>  (1) 
2
5
10

$$$$
