31450
     RDKit          3D

 15 15  0  0  0  0  0  0  0  0999 V2000
    1.0570    0.6551    1.2670 O   0  0  0  0  0  0  0  0  0  0  0  0
    1.1976   -0.1382   -0.9682 O   0  0  0  0  0  0  0  0  0  0  0  0
   -1.8738   -1.8660   -0.5069 O   0  0  0  0  0  0  0  0  0  0  0  0
   -1.0030    0.3001    0.0007 C   0  0  0  0  0  0  0  0  0  0  0  0
   -2.3720    0.9189   -0.3053 C   0  0  0  0  0  0  0  0  0  0  0  0
   -0.2791    1.1250    1.0813 C   0  0  0  0  0  0  0  0  0  0  0  0
   -0.1313    0.2904   -1.2692 C   0  0  0  0  0  0  0  0  0  0  0  0
   -1.2000   -1.1440    0.5011 C   0  0  0  0  0  0  0  0  0  0  0  0
    1.7854    0.6901    0.0377 C   0  0  0  0  0  0  0  0  0  0  0  0
   -3.2483    0.9120    0.9426 C   0  0  0  0  0  0  0  0  0  0  0  0
   -2.2057    2.3361   -0.8430 C   0  0  0  0  0  0  0  0  0  0  0  0
    3.1841    0.1645    0.3122 C   0  0  0  0  0  0  0  0  0  0  0  0
    3.1340   -1.2774    0.8209 C   0  0  0  0  0  0  0  0  0  0  0  0
    4.0559    0.2545   -0.9417 C   0  0  0  0  0  0  0  0  0  0  0  0
   -2.1008   -3.2211   -0.1294 C   0  0  0  0  0  0  0  0  0  0  0  0
  1  6  1  0
  1  9  1  0
  2  7  1  0
  2  9  1  0
  3  8  1  0
  3 15  1  0
  4  5  1  0
  4  6  1  0
  4  7  1  0
  4  8  1  0
  5 10  1  0
  5 11  1  0
  9 12  1  0
 12 13  1  0
 12 14  1  0
M  END
>  <PUBCHEM_COMPOUND_CID>  (1) 
31450

>  <PUBCHEM_CONFORMER_RMSD>  (1) 
0.6

>  <PUBCHEM_CONFORMER_DIVERSEORDER>  (1) 
2
14
17
16
13
5
11
20
9
18
4
12
7
15
6
3
1
10
8
19

>  <PUBCHEM_MMFF94_PARTIAL_CHARGES>  (1) 
8
1 -0.56
15 0.28
2 -0.56
3 -0.56
6 0.28
7 0.28
8 0.28
9 0.56

>  <PUBCHEM_EFFECTIVE_ROTOR_COUNT>  (1) 
5.2

>  <PUBCHEM_PHARMACOPHORE_FEATURES>  (1) 
6
1 1 acceptor
1 2 acceptor
1 3 acceptor
3 12 13 14 hydrophobe
3 5 10 11 hydrophobe
6 1 2 4 6 7 9 rings

>  <PUBCHEM_HEAVY_ATOM_COUNT>  (1) 
15

>  <PUBCHEM_ATOM_DEF_STEREO_COUNT>  (1) 
0

>  <PUBCHEM_ATOM_UDEF_STEREO_COUNT>  (1) 
0

>  <PUBCHEM_BOND_DEF_STEREO_COUNT>  (1) 
0

>  <PUBCHEM_BOND_UDEF_STEREO_COUNT>  (1) 
0

>  <PUBCHEM_ISOTOPIC_ATOM_COUNT>  (1) 
0

>  <PUBCHEM_COMPONENT_COUNT>  (1) 
1

>  <PUBCHEM_CACTVS_TAUTO_COUNT>  (1) 
1

>  <PUBCHEM_CONFORMER_ID>  (1) 
00007ADA00000002

>  <PUBCHEM_MMFF94_ENERGY>  (1) 
49.3725

>  <PUBCHEM_FEATURE_SELFOVERLAP>  (1) 
30.483

>  <PUBCHEM_SHAPE_FINGERPRINT>  (1) 
10922523 26 17896035438876126908
12138202 97 18412542076695102949
12423570 1 18188790395501975765
12500047 106 18337945702019483124
12716758 59 18340757178699704993
12932764 1 18334576845673735960
13024252 1 16298391270737816833
13296908 3 17704069633803572736
13538477 17 18411980248197611584
13581323 91 18187369817656865425
13760787 19 18408611370361073662
14115302 16 18341623611184900652
14577589 140 18115306665878346634
15207287 21 17702650060680162020
15279307 12 18261111838029139866
15669948 3 18334858324750007678
15775835 57 18261117344092394880
15852999 172 18129659677793112414
16945 1 18411411791558351812
18186145 218 18055639416818687036
18534176 82 18272371974910237733
19422 9 17240770514861808096
20524608 308 18411417302149020847
20645476 183 18335988575453401054
20645477 56 18408321069005530276
20711985 344 18264755718426763603
20871998 184 18334868220518252843
21061003 4 17059506269014957858
21501502 16 18268149944759511673
21524375 3 17825376389290590997
22112679 90 18045523034139064637
22344851 262 17822302283443270564
23402539 116 18342728595002036157
23419403 2 17200488992014170899
23493267 7 18130519547868602588
23559900 14 18201997699890655034
23598291 2 17895186676256152082
23598294 1 18410576222914166051
2748010 2 17774144851052357336
305870 269 17979637831996793377
3250762 1 18055902445322513145
69090 78 18336262362538858979
74978 22 18412539912295634976
81228 2 18193824063082097043

>  <PUBCHEM_SHAPE_MULTIPOLES>  (1) 
291.09
5.69
2.38
1.19
4.52
2.08
-0.02
-0.25
0.06
-2.64
0.33
0.13
-0.24
-0.29

>  <PUBCHEM_SHAPE_SELFOVERLAP>  (1) 
570.826

>  <PUBCHEM_SHAPE_VOLUME>  (1) 
175

>  <PUBCHEM_COORDINATE_TYPE>  (1) 
2
5
10

$$$$
