31457
     RDKit          3D

 16 16  0  0  1  0  0  0  0  0999 V2000
   -2.1351   -0.7992    1.1433 O   0  0  0  0  0  0  0  0  0  0  0  0
   -1.9678   -1.4370   -1.1393 O   0  0  0  0  0  0  0  0  0  0  0  0
    1.8210   -0.2637    0.1041 O   0  0  0  0  0  0  0  0  0  0  0  0
   -0.4814    0.3024   -0.2796 C   0  0  0  0  0  0  0  0  0  0  0  0
    0.9701    0.7950   -0.3111 C   0  0  0  0  0  0  0  0  0  0  0  0
   -0.8409   -0.1947    1.1331 C   0  0  0  0  0  0  0  0  0  0  0  0
   -0.6652   -0.8652   -1.2674 C   0  0  0  0  0  0  0  0  0  0  0  0
   -1.4185    1.4611   -0.6719 C   0  0  0  0  0  0  0  0  0  0  0  0
   -2.2043   -1.8723    0.2017 C   0  0  0  0  0  0  0  0  0  0  0  0
    1.3693    1.2565   -1.6996 C   0  0  0  0  0  0  0  0  0  0  0  0
   -1.2835    2.5964    0.2865 C   0  0  0  0  0  0  0  0  0  0  0  0
    3.1869    0.1301    0.0970 C   0  0  0  0  0  0  0  0  0  0  0  0
   -3.6076   -2.4514    0.2606 C   0  0  0  0  0  0  0  0  0  0  0  0
    4.0398   -1.0450    0.5498 C   0  0  0  0  0  0  0  0  0  0  0  0
   -2.2988    3.0793    1.0113 C   0  0  0  0  0  0  0  0  0  0  0  0
    5.5161   -0.6923    0.5815 C   0  0  0  0  0  0  0  0  0  0  0  0
  1  6  1  0
  1  9  1  0
  2  7  1  0
  2  9  1  0
  3  5  1  0
  3 12  1  0
  4  5  1  0
  4  6  1  0
  4  7  1  0
  4  8  1  0
  5 10  1  0
  8 11  1  0
  9 13  1  0
 11 15  2  0
 12 14  1  0
 14 16  1  0
M  END
>  <PUBCHEM_COMPOUND_CID>  (1) 
31457

>  <PUBCHEM_CONFORMER_RMSD>  (1) 
0.8

>  <PUBCHEM_CONFORMER_DIVERSEORDER>  (1) 
1
23
18
6
26
9
19
2
21
25
10
27
30
29
14
22
7
11
8
16
17
24
12
20
15
4
28
3
5
13

>  <PUBCHEM_MMFF94_PARTIAL_CHARGES>  (1) 
14
1 -0.56
11 -0.29
12 0.28
15 -0.3
2 -0.56
28 0.15
3 -0.56
36 0.15
37 0.15
5 0.28
6 0.28
7 0.28
8 0.14
9 0.56

>  <PUBCHEM_EFFECTIVE_ROTOR_COUNT>  (1) 
7.2

>  <PUBCHEM_PHARMACOPHORE_FEATURES>  (1) 
6
1 1 acceptor
1 15 hydrophobe
1 16 hydrophobe
1 2 acceptor
1 3 acceptor
6 1 2 4 6 7 9 rings

>  <PUBCHEM_HEAVY_ATOM_COUNT>  (1) 
16

>  <PUBCHEM_ATOM_DEF_STEREO_COUNT>  (1) 
1

>  <PUBCHEM_ATOM_UDEF_STEREO_COUNT>  (1) 
0

>  <PUBCHEM_BOND_DEF_STEREO_COUNT>  (1) 
0

>  <PUBCHEM_BOND_UDEF_STEREO_COUNT>  (1) 
0

>  <PUBCHEM_ISOTOPIC_ATOM_COUNT>  (1) 
0

>  <PUBCHEM_COMPONENT_COUNT>  (1) 
1

>  <PUBCHEM_CACTVS_TAUTO_COUNT>  (1) 
1

>  <PUBCHEM_CONFORMER_ID>  (1) 
00007AE100000001

>  <PUBCHEM_MMFF94_ENERGY>  (1) 
44.8198

>  <PUBCHEM_FEATURE_SELFOVERLAP>  (1) 
30.483

>  <PUBCHEM_SHAPE_FINGERPRINT>  (1) 
11315181 36 18261664905985057810
11357001 24 18411699863699638401
12507560 14 18195814187602826543
12716301 132 17834156023828834917
12788726 201 18337972171533578787
13024252 1 13118286919124943285
13134695 92 18052535762561877317
13296909 8 18342735200440028576
13583140 156 17417514853549128202
14178342 30 18337110051902910578
14617773 55 18115606940001141557
15906896 17 18270396079927915661
16945 1 18268732566085057405
200 152 18114738338905835202
20671657 53 17096070511243509470
21296965 67 18264201590140885359
21339142 126 18201995551441961239
21339142 149 18200581489209957853
21524375 3 17981884146931883521
21731228 192 17980770337384242721
22112679 90 18126024855887385529
2306618 200 17561357370608433304
23402539 116 18270953566967968029
23419403 2 18121754369852797237
23559900 14 18337094753261226240
25147074 1 18041861574551237132
266924 1 18115890644255919988
3086196 2 18410569591758610114
312423 11 18260841418714681716
5104073 3 18339346476282192866
56616090 89 18115573963737764584
6992083 37 18042413443267521020
81228 2 18338811060625692025
90316 7 18270975629819205305

>  <PUBCHEM_SHAPE_MULTIPOLES>  (1) 
311.66
6.96
2.88
1.27
11.72
1.23
-0.28
-3.81
2.26
-4.03
0.53
-0.18
0.21
-0.84

>  <PUBCHEM_SHAPE_SELFOVERLAP>  (1) 
609.348

>  <PUBCHEM_SHAPE_VOLUME>  (1) 
186.5

>  <PUBCHEM_COORDINATE_TYPE>  (1) 
2
5
10

$$$$
