31455
     RDKit          3D

 14 14  0  0  1  0  0  0  0  0999 V2000
    1.9881    0.4303    1.1639 O   0  0  0  0  0  0  0  0  0  0  0  0
    1.9442   -0.2850   -1.1014 O   0  0  0  0  0  0  0  0  0  0  0  0
   -1.5434    1.8356   -0.5288 O   0  0  0  0  0  0  0  0  0  0  0  0
   -0.1661   -0.0277    0.1044 C   0  0  0  0  0  0  0  0  0  0  0  0
   -1.5971    0.5045   -0.0362 C   0  0  0  0  0  0  0  0  0  0  0  0
    0.6121    0.8127    1.1341 C   0  0  0  0  0  0  0  0  0  0  0  0
    0.5659    0.0602   -1.2481 C   0  0  0  0  0  0  0  0  0  0  0  0
   -0.2148   -1.4961    0.5692 C   0  0  0  0  0  0  0  0  0  0  0  0
    2.5794    0.5516   -0.1318 C   0  0  0  0  0  0  0  0  0  0  0  0
   -2.3307    0.4808    1.2910 C   0  0  0  0  0  0  0  0  0  0  0  0
   -0.9639   -2.3352   -0.4109 C   0  0  0  0  0  0  0  0  0  0  0  0
    4.0304    0.1153   -0.0222 C   0  0  0  0  0  0  0  0  0  0  0  0
   -2.8437    2.3890   -0.6821 C   0  0  0  0  0  0  0  0  0  0  0  0
   -2.0603   -3.0362   -0.1010 C   0  0  0  0  0  0  0  0  0  0  0  0
  1  6  1  0
  1  9  1  0
  2  7  1  0
  2  9  1  0
  3  5  1  0
  3 13  1  0
  4  5  1  0
  4  6  1  0
  4  7  1  0
  4  8  1  0
  5 10  1  0
  8 11  1  0
  9 12  1  0
 11 14  2  0
M  END
>  <PUBCHEM_COMPOUND_CID>  (1) 
31455

>  <PUBCHEM_CONFORMER_RMSD>  (1) 
0.6

>  <PUBCHEM_CONFORMER_DIVERSEORDER>  (1) 
3
8
32
33
14
24
22
19
11
21
12
9
23
30
6
10
7
16
26
4
18
28
31
29
2
27
5
17
1
15
20
25
13

>  <PUBCHEM_MMFF94_PARTIAL_CHARGES>  (1) 
14
1 -0.56
11 -0.29
13 0.28
14 -0.3
2 -0.56
26 0.15
3 -0.56
33 0.15
34 0.15
5 0.28
6 0.28
7 0.28
8 0.14
9 0.56

>  <PUBCHEM_EFFECTIVE_ROTOR_COUNT>  (1) 
5.2

>  <PUBCHEM_PHARMACOPHORE_FEATURES>  (1) 
5
1 1 acceptor
1 14 hydrophobe
1 2 acceptor
1 3 acceptor
6 1 2 4 6 7 9 rings

>  <PUBCHEM_HEAVY_ATOM_COUNT>  (1) 
14

>  <PUBCHEM_ATOM_DEF_STEREO_COUNT>  (1) 
0

>  <PUBCHEM_ATOM_UDEF_STEREO_COUNT>  (1) 
1

>  <PUBCHEM_BOND_DEF_STEREO_COUNT>  (1) 
0

>  <PUBCHEM_BOND_UDEF_STEREO_COUNT>  (1) 
0

>  <PUBCHEM_ISOTOPIC_ATOM_COUNT>  (1) 
0

>  <PUBCHEM_COMPONENT_COUNT>  (1) 
1

>  <PUBCHEM_CACTVS_TAUTO_COUNT>  (1) 
1

>  <PUBCHEM_CONFORMER_ID>  (1) 
00007ADF00000003

>  <PUBCHEM_MMFF94_ENERGY>  (1) 
46.3249

>  <PUBCHEM_FEATURE_SELFOVERLAP>  (1) 
25.407

>  <PUBCHEM_SHAPE_FINGERPRINT>  (1) 
1 1 17976538308564962759
12138202 97 18342739606923331302
12326174 3 17555731002216226693
12500047 106 18410849928801063316
12716758 59 18413670197268965802
12725867 57 17547564237883031615
13024252 1 16950281848931554707
13380537 58 18408888412398811052
13464514 151 17474676044235635428
13581323 91 18259993690548354594
14817 1 12849578642871220671
15490181 7 18408888399561531251
15775835 57 18337389335976704537
15848700 24 17911227648804334759
15852999 172 18129657500471475078
15906896 17 18040719168984556723
16945 1 18409728482210908142
18186145 218 18056493763344727892
18534176 82 18272369789009195900
20511035 2 17824827732829724499
20524608 308 18411419514141658774
20711985 344 18264757929997434419
20871998 184 18335153006846125123
21501502 16 18126013903652364888
21524375 3 18041558010220138597
21930827 45 18343299288243071026
22112679 90 17975155423674491519
23402539 116 18341039783574659021
23419403 2 17129563898963074011
23559900 14 18201718415463400714
241688 4 18121501516542908531
25 1 17844812481745745425
2748010 2 18047492040268111407
305870 269 18119808006337225052
3250762 1 18055339486441586032
5084963 1 18201995547110038001
7364860 26 17617935834008514605
81228 2 18194965364483395203

>  <PUBCHEM_SHAPE_MULTIPOLES>  (1) 
270.51
4.56
2.62
1.17
3.86
1.42
-0.11
-1.21
0.09
-3.37
0.5
-0.02
-0.22
0.34

>  <PUBCHEM_SHAPE_SELFOVERLAP>  (1) 
533.564

>  <PUBCHEM_SHAPE_VOLUME>  (1) 
160.7

>  <PUBCHEM_COORDINATE_TYPE>  (1) 
2
5
10

$$$$
