31459
     RDKit          3D

 18 18  0  0  1  0  0  0  0  0999 V2000
   -1.8770   -0.3666   -0.9875 O   0  0  0  0  0  0  0  0  0  0  0  0
   -1.7751   -0.5434    1.3797 O   0  0  0  0  0  0  0  0  0  0  0  0
    2.1298   -0.6186   -0.0547 O   0  0  0  0  0  0  0  0  0  0  0  0
    0.0523    0.5617    0.1913 C   0  0  0  0  0  0  0  0  0  0  0  0
    1.5800    0.6774    0.1339 C   0  0  0  0  0  0  0  0  0  0  0  0
   -0.4756   -0.1104   -1.0903 C   0  0  0  0  0  0  0  0  0  0  0  0
   -0.3683   -0.2965    1.3991 C   0  0  0  0  0  0  0  0  0  0  0  0
   -0.5581    1.9705    0.3229 C   0  0  0  0  0  0  0  0  0  0  0  0
   -2.1657   -1.1727    0.1572 C   0  0  0  0  0  0  0  0  0  0  0  0
   -3.6688   -1.3878    0.2058 C   0  0  0  0  0  0  0  0  0  0  0  0
    2.1383    1.2884    1.4049 C   0  0  0  0  0  0  0  0  0  0  0  0
   -0.1668    2.8254   -0.8354 C   0  0  0  0  0  0  0  0  0  0  0  0
   -4.1519   -2.1407   -1.0352 C   0  0  0  0  0  0  0  0  0  0  0  0
   -4.4060   -0.0537    0.3372 C   0  0  0  0  0  0  0  0  0  0  0  0
    3.5494   -0.5803   -0.1166 C   0  0  0  0  0  0  0  0  0  0  0  0
    4.0711   -1.9946   -0.3187 C   0  0  0  0  0  0  0  0  0  0  0  0
    0.5050    3.9759   -0.7141 C   0  0  0  0  0  0  0  0  0  0  0  0
    5.5875   -2.0339   -0.3796 C   0  0  0  0  0  0  0  0  0  0  0  0
  1  6  1  0
  1  9  1  0
  2  7  1  0
  2  9  1  0
  3  5  1  0
  3 15  1  0
  4  5  1  0
  4  6  1  0
  4  7  1  0
  4  8  1  0
  5 11  1  0
  8 12  1  0
  9 10  1  0
 10 13  1  0
 10 14  1  0
 12 17  2  0
 15 16  1  0
 16 18  1  0
M  END
>  <PUBCHEM_COMPOUND_CID>  (1) 
31459

>  <PUBCHEM_CONFORMER_RMSD>  (1) 
0.8

>  <PUBCHEM_CONFORMER_DIVERSEORDER>  (1) 
8
61
96
44
31
91
23
14
70
79
92
87
58
106
27
100
90
80
15
102
43
59
48
107
41
89
98
60
40
99
52
7
56
22
53
69
75
66
71
25
46
37
82
110
45
34
97
63
28
17
65
54
24
85
95
55
103
18
51
5
78
21
81
64
88
38
77
93
86
36
39
3
101
6
105
57
83
4
47
62
84
108
104
29
73
74
50
35
72
12
10
94
30
16
109
9
13
20
11
26
68
42
49
33
19
76
32
2
67
1

>  <PUBCHEM_MMFF94_PARTIAL_CHARGES>  (1) 
14
1 -0.56
12 -0.29
15 0.28
17 -0.3
2 -0.56
3 -0.56
31 0.15
42 0.15
43 0.15
5 0.28
6 0.28
7 0.28
8 0.14
9 0.56

>  <PUBCHEM_EFFECTIVE_ROTOR_COUNT>  (1) 
8.2

>  <PUBCHEM_PHARMACOPHORE_FEATURES>  (1) 
7
1 1 acceptor
1 17 hydrophobe
1 18 hydrophobe
1 2 acceptor
1 3 acceptor
3 10 13 14 hydrophobe
6 1 2 4 6 7 9 rings

>  <PUBCHEM_HEAVY_ATOM_COUNT>  (1) 
18

>  <PUBCHEM_ATOM_DEF_STEREO_COUNT>  (1) 
0

>  <PUBCHEM_ATOM_UDEF_STEREO_COUNT>  (1) 
1

>  <PUBCHEM_BOND_DEF_STEREO_COUNT>  (1) 
0

>  <PUBCHEM_BOND_UDEF_STEREO_COUNT>  (1) 
0

>  <PUBCHEM_ISOTOPIC_ATOM_COUNT>  (1) 
0

>  <PUBCHEM_COMPONENT_COUNT>  (1) 
1

>  <PUBCHEM_CACTVS_TAUTO_COUNT>  (1) 
1

>  <PUBCHEM_CONFORMER_ID>  (1) 
00007AE300000008

>  <PUBCHEM_MMFF94_ENERGY>  (1) 
49.172

>  <PUBCHEM_FEATURE_SELFOVERLAP>  (1) 
35.558

>  <PUBCHEM_SHAPE_FINGERPRINT>  (1) 
10610426 29 18060416927990478994
11045515 52 18186240615157770524
11578080 2 17702641329022797089
12553582 1 18334006172963227219
12788726 201 18043809779995024152
13009979 54 18130802186839434251
14178000 29 18339359768182671327
14251764 30 17822585970581814579
14508225 48 18334294236878549980
15848702 151 18338508767979290851
16945 1 18119534490251515977
17492 89 18195527232480123647
17539 30 18264762164877457964
1813 80 18335976553803198008
18186145 218 17168419480289633931
200 152 18113905931494702978
20374829 77 18410009914417813666
20645477 56 10231743488580394066
20645477 70 17901654188403000015
20671657 53 18411706512203524014
20871998 22 18411412951405276096
21069387 34 18270119144784773979
21296965 67 18410289228830282336
21426921 1 18192997011505608844
23175994 123 18260554432872819931
23402539 116 18410572851296234199
23419403 2 17916844877184382313
23526113 38 18041841842985734235
23557571 272 18187635904494008232
23559900 14 18340202006910983755
2748010 2 18266714983427805196
3286 77 17703789232378912346
5104073 3 17489030482633535571
57262259 84 18262797358973141092
7364860 26 18048035465163470725
76465 3 18273210915214956151
77188 2 18409732888942962220
81228 2 18261674774892152032
84936 31 17904481058008698836
9971528 1 18339635750170484337

>  <PUBCHEM_SHAPE_MULTIPOLES>  (1) 
352.82
8.25
3.35
1.19
4.24
3.58
0.2
-9.57
-1.07
1.09
-1.22
-0.27
0.13
0.17

>  <PUBCHEM_SHAPE_SELFOVERLAP>  (1) 
690.782

>  <PUBCHEM_SHAPE_VOLUME>  (1) 
211.2

>  <PUBCHEM_COORDINATE_TYPE>  (1) 
2
5
10

$$$$
