31463
     RDKit          3D

 11 11  0  0  0  0  0  0  0  0999 V2000
   -0.5218    1.2453   -0.2650 O   0  0  0  0  0  0  0  0  0  0  0  0
   -0.2826   -1.1176   -0.2250 O   0  0  0  0  0  0  0  0  0  0  0  0
    1.6998    0.2769   -0.2385 C   0  0  0  0  0  0  0  0  0  0  0  0
   -1.0422    0.0071    0.2245 C   0  0  0  0  0  0  0  0  0  0  0  0
    0.8160    1.4510    0.1894 C   0  0  0  0  0  0  0  0  0  0  0  0
    1.0679   -1.0354    0.2311 C   0  0  0  0  0  0  0  0  0  0  0  0
   -2.4572   -0.1454   -0.3073 C   0  0  0  0  0  0  0  0  0  0  0  0
    3.1232    0.4299    0.2793 C   0  0  0  0  0  0  0  0  0  0  0  0
   -3.0896   -1.4457    0.1924 C   0  0  0  0  0  0  0  0  0  0  0  0
   -3.3211    1.0524    0.0919 C   0  0  0  0  0  0  0  0  0  0  0  0
    4.0075   -0.7184   -0.1727 C   0  0  0  0  0  0  0  0  0  0  0  0
  1  4  1  0
  1  5  1  0
  2  4  1  0
  2  6  1  0
  3  5  1  0
  3  6  1  0
  3  8  1  0
  4  7  1  0
  7  9  1  0
  7 10  1  0
  8 11  1  0
M  END
>  <PUBCHEM_COMPOUND_CID>  (1) 
31463

>  <PUBCHEM_CONFORMER_RMSD>  (1) 
0.6

>  <PUBCHEM_CONFORMER_DIVERSEORDER>  (1) 
2
11
9
8
1
7
6
5
4
10
3

>  <PUBCHEM_MMFF94_PARTIAL_CHARGES>  (1) 
5
1 -0.56
2 -0.56
4 0.56
5 0.28
6 0.28

>  <PUBCHEM_EFFECTIVE_ROTOR_COUNT>  (1) 
3.2

>  <PUBCHEM_PHARMACOPHORE_FEATURES>  (1) 
5
1 1 acceptor
1 11 hydrophobe
1 2 acceptor
3 7 9 10 hydrophobe
6 1 2 3 4 5 6 rings

>  <PUBCHEM_HEAVY_ATOM_COUNT>  (1) 
11

>  <PUBCHEM_ATOM_DEF_STEREO_COUNT>  (1) 
0

>  <PUBCHEM_ATOM_UDEF_STEREO_COUNT>  (1) 
0

>  <PUBCHEM_BOND_DEF_STEREO_COUNT>  (1) 
0

>  <PUBCHEM_BOND_UDEF_STEREO_COUNT>  (1) 
0

>  <PUBCHEM_ISOTOPIC_ATOM_COUNT>  (1) 
0

>  <PUBCHEM_COMPONENT_COUNT>  (1) 
1

>  <PUBCHEM_CACTVS_TAUTO_COUNT>  (1) 
1

>  <PUBCHEM_CONFORMER_ID>  (1) 
00007AE700000002

>  <PUBCHEM_MMFF94_ENERGY>  (1) 
18.5345

>  <PUBCHEM_FEATURE_SELFOVERLAP>  (1) 
25.407

>  <PUBCHEM_SHAPE_FINGERPRINT>  (1) 
10219947 1 17846780719481380100
11062470 55 17489868228403555760
11132069 177 18411131424867657616
12032990 46 18411142454364941478
12932764 1 17022891363510282109
14325111 11 18410855490330212840
14577589 140 18060135440408343839
16945 1 18260538996417583637
18186145 218 17749104504563802588
193761 8 17618503177539289324
19422 9 18334863847961866836
20201158 50 18410011013802496535
22485316 2 18410570678469809874
23235685 24 18410005520528703972
23380061 330 18342172301693775607
23402539 116 18201710739628745222
23402655 69 18196917904509890613
23463225 33 18408039589743947062
23552423 10 18188208809637880357
2748010 2 18265890452680355405
3312278 4 18410576162905611729
5084963 1 17822567330270216333
528886 8 18411131416314568337
8809292 202 18115312309845727699

>  <PUBCHEM_SHAPE_MULTIPOLES>  (1) 
214.64
6.2
1.48
0.65
1.5
0.03
0.01
-0.91
0.01
-0.52
0.05
0.01
0
0.12

>  <PUBCHEM_SHAPE_SELFOVERLAP>  (1) 
412.232

>  <PUBCHEM_SHAPE_VOLUME>  (1) 
131.1

>  <PUBCHEM_COORDINATE_TYPE>  (1) 
2
5
10

$$$$
