31460
     RDKit          3D

 12 12  0  0  0  0  0  0  0  0999 V2000
   -1.7524    1.2751   -0.1818 O   0  0  0  0  0  0  0  0  0  0  0  0
   -2.3655   -1.0023    0.1059 O   0  0  0  0  0  0  0  0  0  0  0  0
    3.6949   -0.1281    0.4282 O   0  0  0  0  0  0  0  0  0  0  0  0
   -0.0011   -0.4287   -0.1276 C   0  0  0  0  0  0  0  0  0  0  0  0
    1.3918   -0.7327    0.4363 C   0  0  0  0  0  0  0  0  0  0  0  0
   -0.3990    1.0229    0.1991 C   0  0  0  0  0  0  0  0  0  0  0  0
   -1.0437   -1.3721    0.5014 C   0  0  0  0  0  0  0  0  0  0  0  0
    0.0166   -0.6264   -1.6558 C   0  0  0  0  0  0  0  0  0  0  0  0
   -2.6417    0.3559    0.4562 C   0  0  0  0  0  0  0  0  0  0  0  0
    2.4308    0.2204   -0.1192 C   0  0  0  0  0  0  0  0  0  0  0  0
   -4.0521    0.6769   -0.0079 C   0  0  0  0  0  0  0  0  0  0  0  0
    4.7214    0.7392   -0.0348 C   0  0  0  0  0  0  0  0  0  0  0  0
  1  6  1  0
  1  9  1  0
  2  7  1  0
  2  9  1  0
  3 10  1  0
  3 12  1  0
  4  5  1  0
  4  6  1  0
  4  7  1  0
  4  8  1  0
  5 10  1  0
  9 11  1  0
M  END
>  <PUBCHEM_COMPOUND_CID>  (1) 
31460

>  <PUBCHEM_CONFORMER_RMSD>  (1) 
0.6

>  <PUBCHEM_CONFORMER_DIVERSEORDER>  (1) 
2
11
17
14
10
13
6
18
4
12
8
15
5
1
9
7
3
16

>  <PUBCHEM_MMFF94_PARTIAL_CHARGES>  (1) 
8
1 -0.56
10 0.28
12 0.28
2 -0.56
3 -0.56
6 0.28
7 0.28
9 0.56

>  <PUBCHEM_EFFECTIVE_ROTOR_COUNT>  (1) 
4.2

>  <PUBCHEM_PHARMACOPHORE_FEATURES>  (1) 
4
1 1 acceptor
1 2 acceptor
1 3 acceptor
6 1 2 4 6 7 9 rings

>  <PUBCHEM_HEAVY_ATOM_COUNT>  (1) 
12

>  <PUBCHEM_ATOM_DEF_STEREO_COUNT>  (1) 
0

>  <PUBCHEM_ATOM_UDEF_STEREO_COUNT>  (1) 
0

>  <PUBCHEM_BOND_DEF_STEREO_COUNT>  (1) 
0

>  <PUBCHEM_BOND_UDEF_STEREO_COUNT>  (1) 
0

>  <PUBCHEM_ISOTOPIC_ATOM_COUNT>  (1) 
0

>  <PUBCHEM_COMPONENT_COUNT>  (1) 
1

>  <PUBCHEM_CACTVS_TAUTO_COUNT>  (1) 
1

>  <PUBCHEM_CONFORMER_ID>  (1) 
00007AE400000002

>  <PUBCHEM_MMFF94_ENERGY>  (1) 
33.4856

>  <PUBCHEM_FEATURE_SELFOVERLAP>  (1) 
20.333

>  <PUBCHEM_SHAPE_FINGERPRINT>  (1) 
11062470 55 17313104137762748865
11132069 177 18409731763639892224
12119455 92 17775281638500523462
12251169 10 17676207983222414268
12932764 1 17703780458172241370
13024252 1 17894907451425378191
13214271 11 18341047518784320054
13380535 76 18410294692092441163
14325111 11 18409448055543827938
14943859 89 18202562886762447114
14993402 34 17131827677018534621
15219456 202 18059305265905659622
15775835 57 18408886217680974848
16945 1 18335995202598475151
17846911 113 18343017770264108784
187816 3 14620794903219932854
200 152 11314025773333088208
20528008 55 18408037411852597760
20645477 56 17632288017479843224
20645477 70 17346044364250087414
21293036 1 16200430269164942762
23235685 24 17989202616584840825
23402539 116 18341324553060148519
23402655 69 18129089045003307781
366044 4 17775282763803177446
369184 2 18260827085633354738
449060 50 18186241723164022898
6333449 129 18342737442238792811
7364860 26 18267303119391392042
75552 356 18261396684280630771

>  <PUBCHEM_SHAPE_MULTIPOLES>  (1) 
229.35
6.94
1.23
0.92
5.08
0.05
0.36
-2.38
-0.66
-0.44
-0.04
0.01
0.2
0.03

>  <PUBCHEM_SHAPE_SELFOVERLAP>  (1) 
444.138

>  <PUBCHEM_SHAPE_VOLUME>  (1) 
139.2

>  <PUBCHEM_COORDINATE_TYPE>  (1) 
2
5
10

$$$$
