31467
     RDKit          3D

 13 13  0  0  0  0  0  0  0  0999 V2000
    1.9471   -0.4916    0.9208 O   0  0  0  0  0  0  0  0  0  0  0  0
    1.7640    0.8324   -1.0435 O   0  0  0  0  0  0  0  0  0  0  0  0
   -2.3831    1.2055   -0.3773 O   0  0  0  0  0  0  0  0  0  0  0  0
   -0.2599    0.2819    0.2112 C   0  0  0  0  0  0  0  0  0  0  0  0
   -0.5676   -0.9835   -0.6127 C   0  0  0  0  0  0  0  0  0  0  0  0
    0.6614   -0.0830    1.3903 C   0  0  0  0  0  0  0  0  0  0  0  0
    0.4688    1.3091   -0.6756 C   0  0  0  0  0  0  0  0  0  0  0  0
   -1.5736    0.8753    0.7334 C   0  0  0  0  0  0  0  0  0  0  0  0
   -1.2925   -1.9999    0.2402 C   0  0  0  0  0  0  0  0  0  0  0  0
    2.5436    0.5274    0.1153 C   0  0  0  0  0  0  0  0  0  0  0  0
   -1.5729   -3.2549   -0.5699 C   0  0  0  0  0  0  0  0  0  0  0  0
    3.8940    0.0152   -0.3559 C   0  0  0  0  0  0  0  0  0  0  0  0
   -3.6292    1.7661    0.0237 C   0  0  0  0  0  0  0  0  0  0  0  0
  1  6  1  0
  1 10  1  0
  2  7  1  0
  2 10  1  0
  3  8  1  0
  3 13  1  0
  4  5  1  0
  4  6  1  0
  4  7  1  0
  4  8  1  0
  5  9  1  0
  9 11  1  0
 10 12  1  0
M  END
>  <PUBCHEM_COMPOUND_CID>  (1) 
31467

>  <PUBCHEM_CONFORMER_RMSD>  (1) 
0.6

>  <PUBCHEM_CONFORMER_DIVERSEORDER>  (1) 
1
8
9
11
4
5
10
3
7
13
2
12
6

>  <PUBCHEM_MMFF94_PARTIAL_CHARGES>  (1) 
8
1 -0.56
10 0.56
13 0.28
2 -0.56
3 -0.56
6 0.28
7 0.28
8 0.28

>  <PUBCHEM_EFFECTIVE_ROTOR_COUNT>  (1) 
5.2

>  <PUBCHEM_PHARMACOPHORE_FEATURES>  (1) 
5
1 1 acceptor
1 11 hydrophobe
1 2 acceptor
1 3 acceptor
6 1 2 4 6 7 10 rings

>  <PUBCHEM_HEAVY_ATOM_COUNT>  (1) 
13

>  <PUBCHEM_ATOM_DEF_STEREO_COUNT>  (1) 
0

>  <PUBCHEM_ATOM_UDEF_STEREO_COUNT>  (1) 
0

>  <PUBCHEM_BOND_DEF_STEREO_COUNT>  (1) 
0

>  <PUBCHEM_BOND_UDEF_STEREO_COUNT>  (1) 
0

>  <PUBCHEM_ISOTOPIC_ATOM_COUNT>  (1) 
0

>  <PUBCHEM_COMPONENT_COUNT>  (1) 
1

>  <PUBCHEM_CACTVS_TAUTO_COUNT>  (1) 
1

>  <PUBCHEM_CONFORMER_ID>  (1) 
00007AEB00000001

>  <PUBCHEM_MMFF94_ENERGY>  (1) 
35.8702

>  <PUBCHEM_FEATURE_SELFOVERLAP>  (1) 
25.407

>  <PUBCHEM_SHAPE_FINGERPRINT>  (1) 
1 1 18123185702126743551
10219947 1 18189616029997894353
10702982 57 18333450936881371211
10922049 32 18337399231808012947
12138202 78 17471003688451992269
12138202 97 18342744013333047103
12500047 106 18341610412940083176
12716758 59 18343299292564444528
12725867 57 17334762571357684379
13380536 243 18335692785192716541
13380536 261 17612326546374112421
14128692 85 18048033266287680766
14713566 1 18411985753982013176
14817 1 12014032500988262883
14993402 34 18335414638921194381
15775835 57 18187367597095723205
15852999 172 18059863817849356846
15906896 17 18260837037515944907
16945 1 18411410739280574600
18534176 82 17988651817178341332
19873495 37 17894920602594113858
20645476 183 18408323263511876207
20711985 344 18195797681890351819
20871998 184 18339091483145504491
21524375 3 18260553277532262321
22112679 90 17896574306932050216
23402539 116 18201712912481854949
23419403 2 16700320057021846291
23557571 272 18129949021651289752
23559900 14 18202283594425590896
2748010 2 18195269748884305687
276578 36 18199468766615947577
298252 57 18261959548318836753
305870 269 17981052911967364209
3060560 45 18264486187738318229
3250762 1 17841418530122261961
366044 4 18338800018095832425
53812653 217 18118705410970331799
68250623 7 18191877935700659692
69090 78 18408322168173922404
7364860 26 17692812588908518237
81228 2 18122894585075106099
81539 233 18118962486812866445
9939556 21 18262241122422660372

>  <PUBCHEM_SHAPE_MULTIPOLES>  (1) 
249.93
4.83
2.51
1.03
1.95
2.41
-0.17
-1.86
0.49
-2.97
0.51
0.24
-0.02
-0.32

>  <PUBCHEM_SHAPE_SELFOVERLAP>  (1) 
484.775

>  <PUBCHEM_SHAPE_VOLUME>  (1) 
151

>  <PUBCHEM_COORDINATE_TYPE>  (1) 
2
5
10

$$$$
