31462
     RDKit          3D

 15 15  0  0  0  0  0  0  0  0999 V2000
   -1.5373   -1.1905   -0.3723 O   0  0  0  0  0  0  0  0  0  0  0  0
   -2.1505    1.0349    0.1905 O   0  0  0  0  0  0  0  0  0  0  0  0
    3.9226    0.2830   -0.1948 O   0  0  0  0  0  0  0  0  0  0  0  0
    0.2055    0.3914    0.2858 C   0  0  0  0  0  0  0  0  0  0  0  0
   -0.1709   -0.8278   -0.5768 C   0  0  0  0  0  0  0  0  0  0  0  0
   -0.8158    1.5124    0.0154 C   0  0  0  0  0  0  0  0  0  0  0  0
    1.6185    0.8702   -0.0672 C   0  0  0  0  0  0  0  0  0  0  0  0
   -2.4049   -0.0901   -0.6541 C   0  0  0  0  0  0  0  0  0  0  0  0
    0.1599    0.0017    1.7760 C   0  0  0  0  0  0  0  0  0  0  0  0
   -3.8313   -0.5472   -0.4006 C   0  0  0  0  0  0  0  0  0  0  0  0
    2.6392   -0.2322    0.1313 C   0  0  0  0  0  0  0  0  0  0  0  0
   -4.0174   -0.9676    1.0586 C   0  0  0  0  0  0  0  0  0  0  0  0
   -4.8293    0.5530   -0.7669 C   0  0  0  0  0  0  0  0  0  0  0  0
    4.9366   -0.6996   -0.0318 C   0  0  0  0  0  0  0  0  0  0  0  0
    6.2750   -0.0916   -0.3932 C   0  0  0  0  0  0  0  0  0  0  0  0
  1  5  1  0
  1  8  1  0
  2  6  1  0
  2  8  1  0
  3 11  1  0
  3 14  1  0
  4  5  1  0
  4  6  1  0
  4  7  1  0
  4  9  1  0
  7 11  1  0
  8 10  1  0
 10 12  1  0
 10 13  1  0
 14 15  1  0
M  END
>  <PUBCHEM_COMPOUND_CID>  (1) 
31462

>  <PUBCHEM_CONFORMER_RMSD>  (1) 
0.8

>  <PUBCHEM_CONFORMER_DIVERSEORDER>  (1) 
1
13
2
26
24
8
20
16
10
22
25
21
19
7
11
15
6
9
5
14
23
17
3
4
12
18

>  <PUBCHEM_MMFF94_PARTIAL_CHARGES>  (1) 
8
1 -0.56
11 0.28
14 0.28
2 -0.56
3 -0.56
5 0.28
6 0.28
8 0.56

>  <PUBCHEM_EFFECTIVE_ROTOR_COUNT>  (1) 
6.2

>  <PUBCHEM_PHARMACOPHORE_FEATURES>  (1) 
5
1 1 acceptor
1 2 acceptor
1 3 acceptor
3 10 12 13 hydrophobe
6 1 2 4 5 6 8 rings

>  <PUBCHEM_HEAVY_ATOM_COUNT>  (1) 
15

>  <PUBCHEM_ATOM_DEF_STEREO_COUNT>  (1) 
0

>  <PUBCHEM_ATOM_UDEF_STEREO_COUNT>  (1) 
0

>  <PUBCHEM_BOND_DEF_STEREO_COUNT>  (1) 
0

>  <PUBCHEM_BOND_UDEF_STEREO_COUNT>  (1) 
0

>  <PUBCHEM_ISOTOPIC_ATOM_COUNT>  (1) 
0

>  <PUBCHEM_COMPONENT_COUNT>  (1) 
1

>  <PUBCHEM_CACTVS_TAUTO_COUNT>  (1) 
1

>  <PUBCHEM_CONFORMER_ID>  (1) 
00007AE600000001

>  <PUBCHEM_MMFF94_ENERGY>  (1) 
35.9472

>  <PUBCHEM_FEATURE_SELFOVERLAP>  (1) 
25.407

>  <PUBCHEM_SHAPE_FINGERPRINT>  (1) 
10465860 250 16917347039199992952
10968037 39 18341613741766487236
11287383 113 17676491687471800380
11401426 45 15913327996227766535
12032990 46 18409731802516046585
12186901 62 18261383412984732125
12236239 1 17967531268577264110
12251169 10 11167936974738569376
124424 183 16988560229956724459
12815109 37 18273213101980498670
13288520 33 18273215287723323884
13533116 47 16917072110555769110
13690532 89 18412825781055278052
13760787 19 17313094246859293795
14123238 8 18272933821621267422
14251718 22 17385728019376249218
14251731 8 18412262843717882798
14350574 20 17822297919640368832
15048467 5 16153419520359784405
16945 1 17846508058057220085
17834072 33 17822299024043017582
17834072 8 18408879633665025693
17834076 25 11097855189730798654
18186145 218 17168133589611932460
187816 3 17603304851805233112
200 152 18334013891330122456
20767249 213 10809347741540083550
21119208 17 18334855021851565876
21267235 1 18412270553105038255
2297311 6 17918003758978209092
23175994 123 16989125365779623856
23402539 116 18060132137541751813
23402655 69 14418397885337668871
23493267 7 18186793661343569409
23557571 272 18336827481414374740
23559900 14 18130217268344870384
3286 77 15984528031636898753
366044 4 14562530678368348648
42788 4 18187364333410701620
4990 188 17530965778548407282

>  <PUBCHEM_SHAPE_MULTIPOLES>  (1) 
291.09
11.2
1.15
1.03
12.54
0.13
0.37
-1.55
-2.25
-0.6
0.04
-0.47
-0.12
0.3

>  <PUBCHEM_SHAPE_SELFOVERLAP>  (1) 
563.32

>  <PUBCHEM_SHAPE_VOLUME>  (1) 
176.8

>  <PUBCHEM_COORDINATE_TYPE>  (1) 
2
5
10

$$$$
