31476
     RDKit          3D

 18 19  0  0  1  0  0  0  0  0999 V2000
   -1.5586   -2.2955   -0.9026 O   0  0  0  0  0  0  0  0  0  0  0  0
    3.2165   -1.5545    0.4959 O   0  0  0  0  0  0  0  0  0  0  0  0
    0.8120   -0.7109   -0.2684 N   0  0  0  0  0  0  0  0  0  0  0  0
    4.3468    0.4007   -0.0277 N   0  0  0  0  0  0  0  0  0  0  0  0
   -2.5525    1.0069   -0.2243 C   0  0  0  0  0  0  0  0  0  0  0  0
   -2.7163   -0.4636    0.2561 C   0  0  0  0  0  0  0  0  0  0  0  0
   -1.0392    1.0271    0.1534 C   0  0  0  0  0  0  0  0  0  0  0  0
   -2.1931   -0.4384    1.7103 C   0  0  0  0  0  0  0  0  0  0  0  0
   -0.4463   -0.1332   -0.6972 C   0  0  0  0  0  0  0  0  0  0  0  0
   -1.0678    0.6172    1.6519 C   0  0  0  0  0  0  0  0  0  0  0  0
   -1.5716   -1.1361   -0.5172 C   0  0  0  0  0  0  0  0  0  0  0  0
   -2.8263    1.2360   -1.7246 C   0  0  0  0  0  0  0  0  0  0  0  0
   -3.4242    2.0292    0.5347 C   0  0  0  0  0  0  0  0  0  0  0  0
   -4.0649   -1.1180    0.0738 C   0  0  0  0  0  0  0  0  0  0  0  0
    1.9090    0.2390   -0.4215 C   0  0  0  0  0  0  0  0  0  0  0  0
    3.2012   -0.4003    0.0591 C   0  0  0  0  0  0  0  0  0  0  0  0
    5.6645   -0.0684    0.3950 C   0  0  0  0  0  0  0  0  0  0  0  0
    4.3107    1.7626   -0.5465 C   0  0  0  0  0  0  0  0  0  0  0  0
  1 11  2  0
  2 16  2  0
  3  9  1  0
  3 15  1  0
  4 16  1  0
  4 17  1  0
  4 18  1  0
  5  6  1  0
  5  7  1  0
  5 12  1  0
  5 13  1  0
  6  8  1  0
  6 11  1  0
  6 14  1  0
  7  9  1  0
  7 10  1  0
  8 10  1  0
  9 11  1  0
 15 16  1  0
M  END
>  <PUBCHEM_COMPOUND_CID>  (1) 
31476

>  <PUBCHEM_CONFORMER_RMSD>  (1) 
0.6

>  <PUBCHEM_CONFORMER_DIVERSEORDER>  (1) 
4
17
18
15
8
9
7
3
5
20
13
10
11
14
16
6
2
19
1
12

>  <PUBCHEM_MMFF94_PARTIAL_CHARGES>  (1) 
12
1 -0.57
11 0.45
15 0.33
16 0.57
17 0.3
18 0.3
2 -0.57
3 -0.9
34 0.36
4 -0.66
6 0.06
9 0.33

>  <PUBCHEM_EFFECTIVE_ROTOR_COUNT>  (1) 
4.8

>  <PUBCHEM_PHARMACOPHORE_FEATURES>  (1) 
6
1 1 acceptor
1 2 acceptor
1 3 cation
1 3 donor
3 5 12 13 hydrophobe
7 5 6 7 8 9 10 11 rings

>  <PUBCHEM_HEAVY_ATOM_COUNT>  (1) 
18

>  <PUBCHEM_ATOM_DEF_STEREO_COUNT>  (1) 
0

>  <PUBCHEM_ATOM_UDEF_STEREO_COUNT>  (1) 
3

>  <PUBCHEM_BOND_DEF_STEREO_COUNT>  (1) 
0

>  <PUBCHEM_BOND_UDEF_STEREO_COUNT>  (1) 
0

>  <PUBCHEM_ISOTOPIC_ATOM_COUNT>  (1) 
0

>  <PUBCHEM_COMPONENT_COUNT>  (1) 
1

>  <PUBCHEM_CACTVS_TAUTO_COUNT>  (1) 
2

>  <PUBCHEM_CONFORMER_ID>  (1) 
00007AF400000004

>  <PUBCHEM_MMFF94_ENERGY>  (1) 
64.0287

>  <PUBCHEM_FEATURE_SELFOVERLAP>  (1) 
30.446

>  <PUBCHEM_SHAPE_FINGERPRINT>  (1) 
10014705 185 17967809427459843165
10366900 7 17531251677599908616
11315181 36 18334574651188014688
11615757 297 18272096019541528328
12173636 292 18272371915055183957
12403814 3 18336267924711417893
12423570 1 7950231843061063649
12507557 5 18341608244324873552
13024252 1 16008751312384461869
13214271 11 17894351076940150222
13583140 156 18040433287060059706
14142880 1 18339647733377530257
14289901 80 18408322211561218114
16945 1 14332839341046495343
18186145 218 18335424513372481862
19050596 39 18187366528302721360
200 152 18334573572570903262
20279233 1 15936408944618883218
20325693 3 11096166344339692321
20510252 161 17988651769949493107
20645477 56 17604148125536631901
20645477 70 18339358544681767254
21339142 149 17676212377026751417
2306618 200 18272936007411805993
23402539 116 17704066300645233165
23419403 2 16913663804697679975
23559900 14 17916308238859810806
27216 239 18335426755155779057
2838139 119 17388234781318249485
3545911 37 18202285810285954206
4214541 1 18409165498293439404
5104073 3 18335700512244791850
9709674 26 18113341886234957274

>  <PUBCHEM_SHAPE_MULTIPOLES>  (1) 
348.73
9.34
1.8
1.26
14.48
0.06
0.2
1.29
0.41
-0.84
-0.28
-1.03
0.13
-0.32

>  <PUBCHEM_SHAPE_SELFOVERLAP>  (1) 
723.298

>  <PUBCHEM_SHAPE_VOLUME>  (1) 
206.5

>  <PUBCHEM_COORDINATE_TYPE>  (1) 
2
5
10

$$$$
