3147
     RDKit          3D

 27 30  0  0  0  0  0  0  0  0999 V2000
   -3.7930   -1.0701   -0.0325 O   0  0  0  0  0  0  0  0  0  0  0  0
    3.6999   -0.9384    0.0742 O   0  0  0  0  0  0  0  0  0  0  0  0
   -4.8217    0.9544   -0.1090 N   0  0  0  0  0  0  0  0  0  0  0  0
    4.9268    1.0082    0.0985 N   0  0  0  0  0  0  0  0  0  0  0  0
   -5.7973   -0.0185   -0.1302 C   0  0  0  0  0  0  0  0  0  0  0  0
    5.8030   -0.0669    0.1103 C   0  0  0  0  0  0  0  0  0  0  0  0
   -5.0229    2.3734   -0.1391 C   0  0  0  0  0  0  0  0  0  0  0  0
    5.3724    2.3790    0.1118 C   0  0  0  0  0  0  0  0  0  0  0  0
   -3.7037    0.2856   -0.0532 C   0  0  0  0  0  0  0  0  0  0  0  0
    3.6446    0.4769    0.0771 C   0  0  0  0  0  0  0  0  0  0  0  0
   -5.1635   -1.2620   -0.0831 C   0  0  0  0  0  0  0  0  0  0  0  0
    5.0482   -1.2487    0.0951 C   0  0  0  0  0  0  0  0  0  0  0  0
   -7.1856    0.0788   -0.1864 C   0  0  0  0  0  0  0  0  0  0  0  0
    7.1805   -0.1305    0.1328 C   0  0  0  0  0  0  0  0  0  0  0  0
   -5.8499   -2.4690   -0.0886 C   0  0  0  0  0  0  0  0  0  0  0  0
    5.6091   -2.5057    0.1013 C   0  0  0  0  0  0  0  0  0  0  0  0
   -5.1533    2.9425    1.2609 C   0  0  0  0  0  0  0  0  0  0  0  0
    5.5971    2.8908   -1.2740 C   0  0  0  0  0  0  0  0  0  0  0  0
   -2.4374    0.9555   -0.0150 C   0  0  0  0  0  0  0  0  0  0  0  0
    2.4590    1.0963    0.0608 C   0  0  0  0  0  0  0  0  0  0  0  0
   -7.8998   -1.1280   -0.1930 C   0  0  0  0  0  0  0  0  0  0  0  0
    7.7801   -1.3962    0.1394 C   0  0  0  0  0  0  0  0  0  0  0  0
   -7.2468   -2.3704   -0.1452 C   0  0  0  0  0  0  0  0  0  0  0  0
    7.0024   -2.5709    0.1238 C   0  0  0  0  0  0  0  0  0  0  0  0
   -1.2554    0.3182    0.0012 C   0  0  0  0  0  0  0  0  0  0  0  0
    1.1964    0.3939    0.0393 C   0  0  0  0  0  0  0  0  0  0  0  0
    0.0108    1.0219    0.0230 C   0  0  0  0  0  0  0  0  0  0  0  0
  1  9  1  0
  1 11  1  0
  2 10  1  0
  2 12  1  0
  3  5  1  0
  3  7  1  0
  3  9  2  0
  4  6  1  0
  4  8  1  0
  4 10  1  0
  5 11  2  0
  5 13  1  0
  6 12  2  0
  6 14  1  0
  7 17  1  0
  8 18  1  0
  9 19  1  0
 10 20  2  0
 11 15  1  0
 12 16  1  0
 13 21  2  0
 14 22  2  0
 15 23  2  0
 16 24  2  0
 19 25  2  0
 20 26  1  0
 21 23  1  0
 22 24  1  0
 25 27  1  0
 26 27  2  0
M  CHG  1   3   1
M  END
>  <PUBCHEM_COMPOUND_CID>  (1) 
3147

>  <PUBCHEM_CONFORMER_RMSD>  (1) 
0.8

>  <PUBCHEM_CONFORMER_DIVERSEORDER>  (1) 
1
8
7
5
2
10
9
6
4
3
11

>  <PUBCHEM_MMFF94_PARTIAL_CHARGES>  (1) 
38
1 -0.28
10 0.18
11 0.14
12 0.08
13 -0.15
14 -0.15
15 -0.15
16 -0.15
19 -0.11
2 -0.16
20 -0.15
21 -0.15
22 -0.15
23 -0.15
24 -0.15
25 -0.15
26 -0.15
27 -0.15
3 -0.18
32 0.15
33 0.15
34 0.15
35 0.15
4 -0.57
42 0.15
43 0.15
44 0.15
45 0.15
46 0.15
47 0.15
48 0.15
49 0.15
5 0.33
50 0.15
6 0.1
7 0.51
8 0.37
9 0.43

>  <PUBCHEM_EFFECTIVE_ROTOR_COUNT>  (1) 
5.4

>  <PUBCHEM_PHARMACOPHORE_FEATURES>  (1) 
6
1 2 acceptor
1 4 cation
5 1 3 5 9 11 rings
5 2 4 6 10 12 rings
6 5 11 13 15 21 23 rings
6 6 12 14 16 22 24 rings

>  <PUBCHEM_HEAVY_ATOM_COUNT>  (1) 
27

>  <PUBCHEM_ATOM_DEF_STEREO_COUNT>  (1) 
0

>  <PUBCHEM_ATOM_UDEF_STEREO_COUNT>  (1) 
0

>  <PUBCHEM_BOND_DEF_STEREO_COUNT>  (1) 
0

>  <PUBCHEM_BOND_UDEF_STEREO_COUNT>  (1) 
3

>  <PUBCHEM_ISOTOPIC_ATOM_COUNT>  (1) 
0

>  <PUBCHEM_COMPONENT_COUNT>  (1) 
1

>  <PUBCHEM_CACTVS_TAUTO_COUNT>  (1) 
1

>  <PUBCHEM_CONFORMER_ID>  (1) 
00000C4B00000001

>  <PUBCHEM_MMFF94_ENERGY>  (1) 
75.5379

>  <PUBCHEM_FEATURE_SELFOVERLAP>  (1) 
30.676

>  <PUBCHEM_SHAPE_FINGERPRINT>  (1) 
100830 39 18339923706585764713
10299344 5 18411702088381823855
10595046 47 18410014363835185632
10677351 14 18260268546690624220
11315181 36 18409731760104781665
11524674 6 16558751252414469383
11672396 167 18338790122280933070
11719270 70 17988924449102674950
11991303 11 14345804867511938099
12082328 90 18343017774923150837
13073987 5 18342175587296706528
13533116 47 18411418432274169264
1361 4 18338236088837769711
13668630 136 18334010588194686902
13885169 127 18411698751746298217
13947934 56 18409726249588141125
14178184 131 18058446676902302071
15152005 290 18193272993885066069
15183329 4 18040150699665967834
15352257 5 18410573989468076111
15419008 42 17770782312461039573
15419008 91 18265028332538542972
15716309 27 18343300396861630527
1577012 14 18411708681252367768
17844677 252 18412268341234310777
21130935 74 18342455903296710362
21315763 28 18410855460212824168
21623969 137 17847063268031512894
22956985 138 17128758794960100518
23081809 10 18410862061614799772
23522609 53 18125470641645367297
23559900 14 18267295608010380809
23569943 247 17606673630784217114
23576562 1 13768508521032523723
3004659 81 18261108565611797680
3663271 9 18343023293597488760
4073 2 18041564749250426450
439807 62 18342739632819761697
6441014 3 17262163524216930742
9555976 147 17988373576339080369
9831232 110 18268434547195347942
99344 41 18340485560731590810
999808 66 18114752620347445251

>  <PUBCHEM_SHAPE_MULTIPOLES>  (1) 
533.95
28.46
3.15
0.74
0.95
0.39
0
-11.81
0.53
-0.58
-0.01
-0.02
0.35
-1.84

>  <PUBCHEM_SHAPE_SELFOVERLAP>  (1) 
1164.114

>  <PUBCHEM_SHAPE_VOLUME>  (1) 
293.3

>  <PUBCHEM_COORDINATE_TYPE>  (1) 
2
5
10

$$$$
