31475
     RDKit          3D

 27 29  0  0  0  0  0  0  0  0999 V2000
    7.6448    2.1599    0.6724 I   0  0  0  0  0  0  0  0  0  0  0  0
    5.9214   -2.7066   -2.3788 I   0  0  0  0  0  0  0  0  0  0  0  0
   -2.5870   -3.5010    0.9356 Cl  0  0  0  0  0  0  0  0  0  0  0  0
   -7.4682    1.9624   -2.3771 Cl  0  0  0  0  0  0  0  0  0  0  0  0
   -3.8870   -0.8222    1.3509 O   0  0  0  0  0  0  0  0  0  0  0  0
    4.4229    2.2487    1.0926 O   0  0  0  0  0  0  0  0  0  0  0  0
    1.9785    1.7266    0.3425 O   0  0  0  0  0  0  0  0  0  0  0  0
    1.5531   -0.5803    0.2903 N   0  0  0  0  0  0  0  0  0  0  0  0
    0.1643   -0.6503    0.5606 C   0  0  0  0  0  0  0  0  0  0  0  0
    3.7653    0.3117   -0.1226 C   0  0  0  0  0  0  0  0  0  0  0  0
   -2.5497   -0.7856    1.0888 C   0  0  0  0  0  0  0  0  0  0  0  0
   -0.4539   -1.8879    0.6096 C   0  0  0  0  0  0  0  0  0  0  0  0
   -0.5431    0.5212    0.7696 C   0  0  0  0  0  0  0  0  0  0  0  0
    2.3653    0.5571    0.1970 C   0  0  0  0  0  0  0  0  0  0  0  0
   -1.8216   -1.9562    0.8757 C   0  0  0  0  0  0  0  0  0  0  0  0
   -1.9105    0.4530    1.0356 C   0  0  0  0  0  0  0  0  0  0  0  0
    4.7680    1.1672    0.3338 C   0  0  0  0  0  0  0  0  0  0  0  0
    4.0960   -0.7983   -0.8996 C   0  0  0  0  0  0  0  0  0  0  0  0
   -4.7311   -0.1661    0.4723 C   0  0  0  0  0  0  0  0  0  0  0  0
    6.1016    0.9125    0.0136 C   0  0  0  0  0  0  0  0  0  0  0  0
    5.4295   -1.0531   -1.2202 C   0  0  0  0  0  0  0  0  0  0  0  0
    6.4323   -0.1978   -0.7636 C   0  0  0  0  0  0  0  0  0  0  0  0
   -4.5410   -0.3219   -0.8892 C   0  0  0  0  0  0  0  0  0  0  0  0
   -5.7442    0.6297    0.9773 C   0  0  0  0  0  0  0  0  0  0  0  0
   -5.3917    0.3398   -1.7748 C   0  0  0  0  0  0  0  0  0  0  0  0
   -6.5951    1.2913    0.0917 C   0  0  0  0  0  0  0  0  0  0  0  0
   -6.4189    1.1462   -1.2844 C   0  0  0  0  0  0  0  0  0  0  0  0
  1 20  1  0
  2 21  1  0
  3 15  1  0
  4 27  1  0
  5 11  1  0
  5 19  1  0
  6 17  1  0
  7 14  2  0
  8  9  1  0
  8 14  1  0
  9 12  2  0
  9 13  1  0
 10 14  1  0
 10 17  2  0
 10 18  1  0
 11 15  2  0
 11 16  1  0
 12 15  1  0
 13 16  2  0
 17 20  1  0
 18 21  2  0
 19 23  2  0
 19 24  1  0
 20 22  2  0
 21 22  1  0
 23 25  1  0
 24 26  2  0
 25 27  2  0
 26 27  1  0
M  END
>  <PUBCHEM_COMPOUND_CID>  (1) 
31475

>  <PUBCHEM_CONFORMER_RMSD>  (1) 
0.8

>  <PUBCHEM_CONFORMER_DIVERSEORDER>  (1) 
12
7
43
30
58
44
27
49
11
21
14
38
46
32
34
48
37
15
42
47
51
26
16
29
59
39
52
23
36
10
55
31
2
56
35
53
3
4
33
18
57
13
24
9
45
19
25
22
5
17
54
28
50
40
8
41
1
6
20

>  <PUBCHEM_MMFF94_PARTIAL_CHARGES>  (1) 
38
1 -0.08
10 0.09
11 0.08
12 -0.15
13 -0.15
14 0.54
15 0.18
16 -0.15
17 0.08
18 -0.15
19 0.08
2 -0.08
20 0.08
21 0.08
22 -0.15
23 -0.15
24 -0.15
25 -0.15
26 -0.15
27 0.18
28 0.37
29 0.15
3 -0.18
30 0.15
31 0.15
32 0.15
33 0.15
34 0.15
35 0.15
36 0.15
37 0.15
38 0.45
4 -0.18
5 -0.17
6 -0.53
7 -0.57
8 -0.55
9 0.12

>  <PUBCHEM_EFFECTIVE_ROTOR_COUNT>  (1) 
5

>  <PUBCHEM_PHARMACOPHORE_FEATURES>  (1) 
9
1 1 hydrophobe
1 2 hydrophobe
1 5 acceptor
1 6 donor
1 7 acceptor
1 8 donor
6 10 17 18 20 21 22 rings
6 19 23 24 25 26 27 rings
6 9 11 12 13 15 16 rings

>  <PUBCHEM_HEAVY_ATOM_COUNT>  (1) 
27

>  <PUBCHEM_ATOM_DEF_STEREO_COUNT>  (1) 
0

>  <PUBCHEM_ATOM_UDEF_STEREO_COUNT>  (1) 
0

>  <PUBCHEM_BOND_DEF_STEREO_COUNT>  (1) 
0

>  <PUBCHEM_BOND_UDEF_STEREO_COUNT>  (1) 
0

>  <PUBCHEM_ISOTOPIC_ATOM_COUNT>  (1) 
0

>  <PUBCHEM_COMPONENT_COUNT>  (1) 
1

>  <PUBCHEM_CACTVS_TAUTO_COUNT>  (1) 
7

>  <PUBCHEM_CONFORMER_ID>  (1) 
00007AF30000000C

>  <PUBCHEM_MMFF94_ENERGY>  (1) 
92.1

>  <PUBCHEM_FEATURE_SELFOVERLAP>  (1) 
45.671

>  <PUBCHEM_SHAPE_FINGERPRINT>  (1) 
10 15 15213305193185776165
10280341 67 17459451296401053221
105312 117 18113896074740054511
10533779 1 17024568025230139205
10554248 39 18342746217257957660
10835480 77 18342740762723487464
11475781 23 18334010592948213718
11796584 16 18335706078823613682
12082328 90 17917714591878309165
12236239 1 16272215184725396616
12373685 5 17917137361016892662
12616971 3 14923941306149865050
12838862 33 17917141798203230864
13533116 47 17632583721714827994
14068700 675 14333120889074638835
14849402 71 13118588258489409791
14856354 85 15357986698068461259
15119646 104 16917074304302674215
15183329 4 17846776291480900413
15238133 3 16588024628032029164
17857418 61 16630529509630661158
19958102 18 18337116657151077454
21033648 29 17894914031452425731
21150785 3 16056881360053905336
21223535 225 18199192785214365665
21279426 13 18411145722719314642
21521239 73 17775562014034535647
21756936 100 16950277438759712955
21781055 127 16226049947645985112
21859007 373 18114453501154497924
2215653 11 18272098175646798366
23081809 10 16845582993313132218
23198884 109 17989204837832019125
23522609 53 14418436372270947094
23559900 14 18271247217839054264
23569914 152 17404572282412825495
3004659 81 14261346976993582728
3633792 109 18060144202442275490
4015057 19 17846217816751604753
4046055 4 17465394410141975907
4073 2 18339370772559089138
4169191 19 18200039576650379336
4403749 210 17699280277776428848
49967989 163 15338557279153812460
59682541 52 18131634461354623406
59755656 215 18335706001070804374
6009941 240 18334859463428213338
636775 8 11527671929277043168
6698420 124 18270137725182367747
9980921 52 16341449077910406582

>  <PUBCHEM_SHAPE_MULTIPOLES>  (1) 
560.67
23.21
2.84
1.83
1.09
1.67
-1.09
-10.65
-11.25
-3.6
-0.06
2.31
0.52
5.34

>  <PUBCHEM_SHAPE_SELFOVERLAP>  (1) 
1162.654

>  <PUBCHEM_SHAPE_VOLUME>  (1) 
328.4

>  <PUBCHEM_COORDINATE_TYPE>  (1) 
2
5
10

$$$$
