31473
     RDKit          3D

 30 31  0  0  1  0  0  0  0  0999 V2000
    5.4421   -3.1794    0.9336 O   0  0  0  0  0  0  0  0  0  0  0  0
   -0.1385   -0.2939   -0.6895 O   0  0  0  0  0  0  0  0  0  0  0  0
    2.3595    1.3299   -0.8879 O   0  0  0  0  0  0  0  0  0  0  0  0
   -0.9313   -2.4547   -0.7270 O   0  0  0  0  0  0  0  0  0  0  0  0
   -3.8755    2.6820    0.1562 O   0  0  0  0  0  0  0  0  0  0  0  0
   -5.8965   -1.6598    0.1536 O   0  0  0  0  0  0  0  0  0  0  0  0
   -6.1275    1.0889    0.4028 O   0  0  0  0  0  0  0  0  0  0  0  0
    3.2331   -1.5240    0.2397 N   0  0  0  0  0  0  0  0  0  0  0  0
    1.8532   -1.0701    0.4001 C   0  0  0  0  0  0  0  0  0  0  0  0
    1.1879   -0.7653   -0.9442 C   0  0  0  0  0  0  0  0  0  0  0  0
    4.0016   -1.3033    1.4726 C   0  0  0  0  0  0  0  0  0  0  0  0
    3.2750   -2.9451   -0.1321 C   0  0  0  0  0  0  0  0  0  0  0  0
    5.4339   -1.7952    1.2847 C   0  0  0  0  0  0  0  0  0  0  0  0
    4.7243   -3.3991   -0.2813 C   0  0  0  0  0  0  0  0  0  0  0  0
    1.9304    0.2897   -1.7611 C   0  0  0  0  0  0  0  0  0  0  0  0
    3.5009    3.4135   -0.6017 C   0  0  0  0  0  0  0  0  0  0  0  0
    4.4273    2.8985    0.5118 C   0  0  0  0  0  0  0  0  0  0  0  0
    3.0730    2.3363   -1.5912 C   0  0  0  0  0  0  0  0  0  0  0  0
    4.7883    3.9898    1.5205 C   0  0  0  0  0  0  0  0  0  0  0  0
    5.7040    2.3183   -0.1011 C   0  0  0  0  0  0  0  0  0  0  0  0
   -1.0981   -1.2510   -0.6061 C   0  0  0  0  0  0  0  0  0  0  0  0
   -2.4228   -0.6348   -0.3419 C   0  0  0  0  0  0  0  0  0  0  0  0
   -3.5547   -1.4406   -0.2173 C   0  0  0  0  0  0  0  0  0  0  0  0
   -2.5353    0.7498   -0.2158 C   0  0  0  0  0  0  0  0  0  0  0  0
   -3.7794    1.3285    0.0349 C   0  0  0  0  0  0  0  0  0  0  0  0
   -4.7988   -0.8618    0.0335 C   0  0  0  0  0  0  0  0  0  0  0  0
   -4.9110    0.5227    0.1597 C   0  0  0  0  0  0  0  0  0  0  0  0
   -2.6709    3.4325    0.0151 C   0  0  0  0  0  0  0  0  0  0  0  0
   -5.6952   -3.0645    0.0111 C   0  0  0  0  0  0  0  0  0  0  0  0
   -6.4989    1.2622    1.7683 C   0  0  0  0  0  0  0  0  0  0  0  0
  1 13  1  0
  1 14  1  0
  2 10  1  0
  2 21  1  0
  3 15  1  0
  3 18  1  0
  4 21  2  0
  5 25  1  0
  5 28  1  0
  6 26  1  0
  6 29  1  0
  7 27  1  0
  7 30  1  0
  8  9  1  0
  8 11  1  0
  8 12  1  0
  9 10  1  0
 10 15  1  0
 11 13  1  0
 12 14  1  0
 16 17  1  0
 16 18  1  0
 17 19  1  0
 17 20  1  0
 21 22  1  0
 22 23  2  0
 22 24  1  0
 23 26  1  0
 24 25  2  0
 25 27  1  0
 26 27  2  0
M  END
>  <PUBCHEM_COMPOUND_CID>  (1) 
31473

>  <PUBCHEM_CONFORMER_RMSD>  (1) 
1.2

>  <PUBCHEM_CONFORMER_DIVERSEORDER>  (1) 
3
14
36
45
29
30
20
47
37
43
25
16
12
9
33
38
40
5
18
35
24
13
39
11
19
15
21
31
8
7
26
42
46
34
23
32
2
22
28
1
41
27
4
17
44
10
6

>  <PUBCHEM_MMFF94_PARTIAL_CHARGES>  (1) 
28
1 -0.56
10 0.28
11 0.27
12 0.27
13 0.28
14 0.28
15 0.28
18 0.28
2 -0.43
21 0.63
22 0.09
23 -0.15
24 -0.15
25 0.08
26 0.08
27 0.08
28 0.28
29 0.28
3 -0.56
30 0.28
4 -0.57
5 -0.36
55 0.15
56 0.15
6 -0.36
7 -0.36
8 -0.81
9 0.27

>  <PUBCHEM_EFFECTIVE_ROTOR_COUNT>  (1) 
14.2

>  <PUBCHEM_PHARMACOPHORE_FEATURES>  (1) 
10
1 1 acceptor
1 3 acceptor
1 4 acceptor
1 5 acceptor
1 6 acceptor
1 7 acceptor
1 8 cation
3 17 19 20 hydrophobe
6 1 8 11 12 13 14 rings
6 22 23 24 25 26 27 rings

>  <PUBCHEM_HEAVY_ATOM_COUNT>  (1) 
30

>  <PUBCHEM_ATOM_DEF_STEREO_COUNT>  (1) 
0

>  <PUBCHEM_ATOM_UDEF_STEREO_COUNT>  (1) 
1

>  <PUBCHEM_BOND_DEF_STEREO_COUNT>  (1) 
0

>  <PUBCHEM_BOND_UDEF_STEREO_COUNT>  (1) 
0

>  <PUBCHEM_ISOTOPIC_ATOM_COUNT>  (1) 
0

>  <PUBCHEM_COMPONENT_COUNT>  (1) 
1

>  <PUBCHEM_CACTVS_TAUTO_COUNT>  (1) 
1

>  <PUBCHEM_CONFORMER_ID>  (1) 
00007AF100000003

>  <PUBCHEM_MMFF94_ENERGY>  (1) 
97.0674

>  <PUBCHEM_FEATURE_SELFOVERLAP>  (1) 
50.758

>  <PUBCHEM_SHAPE_FINGERPRINT>  (1) 
12107183 9 18120936109636072313
12166972 35 18199468770673499234
13073987 5 18337677516062151787
13533116 47 18260830427218417070
13785724 45 18125727782017490550
14466204 15 18120373146829507774
14739800 52 18200870798565875168
14849402 71 18333739030999095908
14955137 171 18264773160421146374
17492 89 18409167701353686623
17844677 252 18410577249390322002
19377110 9 18339923843776298023
21033648 29 17700105760883226226
21304253 13 18268142068723030966
21315764 268 18337667521066787589
21792934 111 18262239916270664305
21859007 373 17460297881498839661
23559900 14 18339637828971812699
3411729 13 18336547209708527420
3633792 109 17896300537591470551
3680242 22 18411146831111092449
4144715 1 18335708191208538082
5104073 3 18337402603784803483
513532 50 18341624732946552798
5385378 56 18409450327988118580
67856867 119 18410573993889228367
79837 15 17829605412128057818
9981440 41 18120936367640052394

>  <PUBCHEM_SHAPE_MULTIPOLES>  (1) 
571.32
16.78
5.14
1.29
10.57
1.47
-0.11
0.43
-6.13
-6.95
-0.76
-1.04
0.4
-1.38

>  <PUBCHEM_SHAPE_SELFOVERLAP>  (1) 
1158.426

>  <PUBCHEM_SHAPE_VOLUME>  (1) 
333.8

>  <PUBCHEM_COORDINATE_TYPE>  (1) 
2
5
10

$$$$
