31488
     RDKit          3D

 22 23  0  0  0  0  0  0  0  0999 V2000
    6.7934   -0.6070   -0.4927 O   0  0  0  0  0  0  0  0  0  0  0  0
    0.5516    0.6340    0.1740 O   0  0  0  0  0  0  0  0  0  0  0  0
   -2.9627   -1.4292    0.2694 O   0  0  0  0  0  0  0  0  0  0  0  0
   -0.5189   -1.0261    1.3561 O   0  0  0  0  0  0  0  0  0  0  0  0
   -5.2693   -0.1194   -0.5102 O   0  0  0  0  0  0  0  0  0  0  0  0
    4.2292    0.4069    0.2137 N   0  0  0  0  0  0  0  0  0  0  0  0
    4.3988   -0.9536   -0.3151 C   0  0  0  0  0  0  0  0  0  0  0  0
    5.2859    1.2852   -0.3077 C   0  0  0  0  0  0  0  0  0  0  0  0
    2.9067    0.9320   -0.1193 C   0  0  0  0  0  0  0  0  0  0  0  0
    5.7897   -1.4751    0.0347 C   0  0  0  0  0  0  0  0  0  0  0  0
    6.6560    0.7106    0.0407 C   0  0  0  0  0  0  0  0  0  0  0  0
    1.8165    0.0785    0.5087 C   0  0  0  0  0  0  0  0  0  0  0  0
   -0.5376   -0.0197    0.6645 C   0  0  0  0  0  0  0  0  0  0  0  0
   -1.7908    0.6566    0.2445 C   0  0  0  0  0  0  0  0  0  0  0  0
   -2.9450   -0.0803    0.0678 C   0  0  0  0  0  0  0  0  0  0  0  0
   -1.7560    2.0229    0.0435 C   0  0  0  0  0  0  0  0  0  0  0  0
   -4.1118    0.5749   -0.3260 C   0  0  0  0  0  0  0  0  0  0  0  0
   -2.9227    2.6779   -0.3503 C   0  0  0  0  0  0  0  0  0  0  0  0
   -4.1006    1.9540   -0.5350 C   0  0  0  0  0  0  0  0  0  0  0  0
   -2.6655   -2.2546   -0.8541 C   0  0  0  0  0  0  0  0  0  0  0  0
   -2.7206   -3.7061   -0.4279 C   0  0  0  0  0  0  0  0  0  0  0  0
   -6.1262   -0.2626    0.6209 C   0  0  0  0  0  0  0  0  0  0  0  0
  1 10  1  0
  1 11  1  0
  2 12  1  0
  2 13  1  0
  3 15  1  0
  3 20  1  0
  4 13  2  0
  5 17  1  0
  5 22  1  0
  6  7  1  0
  6  8  1  0
  6  9  1  0
  7 10  1  0
  8 11  1  0
  9 12  1  0
 13 14  1  0
 14 15  2  0
 14 16  1  0
 15 17  1  0
 16 18  2  0
 17 19  2  0
 18 19  1  0
 20 21  1  0
M  END
>  <PUBCHEM_COMPOUND_CID>  (1) 
31488

>  <PUBCHEM_CONFORMER_RMSD>  (1) 
1

>  <PUBCHEM_CONFORMER_DIVERSEORDER>  (1) 
1
16
12
13
62
59
67
33
38
24
35
29
46
60
31
27
34
6
30
56
40
39
21
23
37
9
11
72
57
20
15
3
7
74
65
63
54
51
17
22
18
19
68
26
70
66
47
55
14
75
42
61
58
64
2
4
44
45
10
52
25
43
36
28
71
48
32
5
8
73
53
69
50
41
49

>  <PUBCHEM_MMFF94_PARTIAL_CHARGES>  (1) 
24
1 -0.56
10 0.28
11 0.28
12 0.28
13 0.63
14 0.09
15 0.08
16 -0.15
17 0.08
18 -0.15
19 -0.15
2 -0.43
20 0.28
22 0.28
3 -0.36
35 0.15
36 0.15
37 0.15
4 -0.57
5 -0.36
6 -0.81
7 0.27
8 0.27
9 0.27

>  <PUBCHEM_EFFECTIVE_ROTOR_COUNT>  (1) 
9.2

>  <PUBCHEM_PHARMACOPHORE_FEATURES>  (1) 
7
1 1 acceptor
1 3 acceptor
1 4 acceptor
1 5 acceptor
1 6 cation
6 1 6 7 8 10 11 rings
6 14 15 16 17 18 19 rings

>  <PUBCHEM_HEAVY_ATOM_COUNT>  (1) 
22

>  <PUBCHEM_ATOM_DEF_STEREO_COUNT>  (1) 
0

>  <PUBCHEM_ATOM_UDEF_STEREO_COUNT>  (1) 
0

>  <PUBCHEM_BOND_DEF_STEREO_COUNT>  (1) 
0

>  <PUBCHEM_BOND_UDEF_STEREO_COUNT>  (1) 
0

>  <PUBCHEM_ISOTOPIC_ATOM_COUNT>  (1) 
0

>  <PUBCHEM_COMPONENT_COUNT>  (1) 
1

>  <PUBCHEM_CACTVS_TAUTO_COUNT>  (1) 
1

>  <PUBCHEM_CONFORMER_ID>  (1) 
00007B0000000001

>  <PUBCHEM_MMFF94_ENERGY>  (1) 
69.2879

>  <PUBCHEM_FEATURE_SELFOVERLAP>  (1) 
35.534

>  <PUBCHEM_SHAPE_FINGERPRINT>  (1) 
10411042 1 18049441745627149779
10595046 47 18335984255254514300
11315181 36 17060621117960314064
11524674 6 16989126469792129655
12107183 9 17614838514327735712
12166972 35 18334299764570551036
12236239 1 17676485025545254544
12916748 109 18186523193919937824
13167823 11 18408321086506841058
13288520 33 18413670210454781869
13533116 47 14907904817668749190
13668630 136 17418098702718349684
15042514 8 18337675342909089251
15183329 4 18335138657687378386
15250474 111 18335686240269810234
17834072 33 18409449194174508372
17844677 252 18411706474219263944
19489759 90 18334858303523389840
200 152 17704070672864203952
20645477 70 18200597987165610222
21267235 1 18334018311284233641
2297311 6 18411984650302193793
23198884 109 17917996074838507737
23402539 116 18260545662533751316
23557571 272 18202286887716551652
23559900 14 18271236231344807672
3004659 81 18334858278338771786
335352 9 18411416233540895421
34797466 226 17988651813490393052
3545911 37 18411982459916098736
4073 2 18113904905487902818
4214541 1 18410575063721382164
44062 13 18343301496062398766
5283173 99 18338233769977241224
531348 171 18336827498715406962
559249 180 18263640676102234770
59755656 215 18341615884855357038
59755656 520 16950280728166981443
633830 44 17312827082819069328

>  <PUBCHEM_SHAPE_MULTIPOLES>  (1) 
418.42
16.3
2.74
0.82
23.11
1.72
-0.06
0.32
1.5
-3.3
0.65
-0.3
0.13
0.06

>  <PUBCHEM_SHAPE_SELFOVERLAP>  (1) 
860.284

>  <PUBCHEM_SHAPE_VOLUME>  (1) 
240.5

>  <PUBCHEM_COORDINATE_TYPE>  (1) 
2
5
10

$$$$
