31482
     RDKit          3D

 17 19  0  0  0  0  0  0  0  0999 V2000
   -0.1281   -0.1726   -0.9685 N   0  0  0  0  0  0  0  0  0  0  0  0
   -3.1158   -1.1049   -0.1543 N   0  0  0  0  0  0  0  0  0  0  0  0
   -2.8025    1.1071    0.2791 N   0  0  0  0  0  0  0  0  0  0  0  0
    0.7547    0.7444   -0.4441 C   0  0  0  0  0  0  0  0  0  0  0  0
   -1.4377    0.1323   -1.5041 C   0  0  0  0  0  0  0  0  0  0  0  0
    1.6577   -1.3331   -0.3434 C   0  0  0  0  0  0  0  0  0  0  0  0
    1.8904    0.0380   -0.0421 C   0  0  0  0  0  0  0  0  0  0  0  0
    0.4086   -1.4307   -0.9119 C   0  0  0  0  0  0  0  0  0  0  0  0
   -2.4765    0.0631   -0.4400 C   0  0  0  0  0  0  0  0  0  0  0  0
    2.5840   -2.4565   -0.0950 C   0  0  0  0  0  0  0  0  0  0  0  0
   -4.0318   -0.9114    0.9288 C   0  0  0  0  0  0  0  0  0  0  0  0
   -3.8584    0.5900    1.2034 C   0  0  0  0  0  0  0  0  0  0  0  0
    0.6362    2.1310   -0.2966 C   0  0  0  0  0  0  0  0  0  0  0  0
    2.9615    0.7482    0.5358 C   0  0  0  0  0  0  0  0  0  0  0  0
    1.7113    2.8141    0.2791 C   0  0  0  0  0  0  0  0  0  0  0  0
    2.8569    2.1354    0.6897 C   0  0  0  0  0  0  0  0  0  0  0  0
    2.3895   -3.0942    1.2843 C   0  0  0  0  0  0  0  0  0  0  0  0
  1  4  1  0
  1  5  1  0
  1  8  1  0
  2  9  1  0
  2 11  1  0
  3  9  2  0
  3 12  1  0
  4  7  2  0
  4 13  1  0
  5  9  1  0
  6  7  1  0
  6  8  2  0
  6 10  1  0
  7 14  1  0
 10 17  1  0
 11 12  1  0
 13 15  2  0
 14 16  2  0
 15 16  1  0
M  END
>  <PUBCHEM_COMPOUND_CID>  (1) 
31482

>  <PUBCHEM_CONFORMER_RMSD>  (1) 
0.6

>  <PUBCHEM_CONFORMER_DIVERSEORDER>  (1) 
1
17
23
10
16
4
19
13
14
18
22
2
24
15
9
21
3
20
11
8
12
7
6
5

>  <PUBCHEM_MMFF94_PARTIAL_CHARGES>  (1) 
21
1 0.05
10 0.18
11 0.37
12 0.25
13 -0.15
14 -0.15
15 -0.15
16 -0.15
2 -0.82
20 0.15
25 0.4
28 0.15
29 0.15
3 -0.7
30 0.15
31 0.15
4 -0.15
5 0.32
6 -0.18
8 -0.3
9 0.44

>  <PUBCHEM_EFFECTIVE_ROTOR_COUNT>  (1) 
3.6

>  <PUBCHEM_PHARMACOPHORE_FEATURES>  (1) 
7
1 1 cation
1 17 hydrophobe
1 2 donor
3 2 3 9 cation
5 1 4 6 7 8 rings
5 2 3 9 11 12 rings
6 4 7 13 14 15 16 rings

>  <PUBCHEM_HEAVY_ATOM_COUNT>  (1) 
17

>  <PUBCHEM_ATOM_DEF_STEREO_COUNT>  (1) 
0

>  <PUBCHEM_ATOM_UDEF_STEREO_COUNT>  (1) 
0

>  <PUBCHEM_BOND_DEF_STEREO_COUNT>  (1) 
0

>  <PUBCHEM_BOND_UDEF_STEREO_COUNT>  (1) 
0

>  <PUBCHEM_ISOTOPIC_ATOM_COUNT>  (1) 
0

>  <PUBCHEM_COMPONENT_COUNT>  (1) 
1

>  <PUBCHEM_CACTVS_TAUTO_COUNT>  (1) 
1

>  <PUBCHEM_CONFORMER_ID>  (1) 
00007AFA00000001

>  <PUBCHEM_MMFF94_ENERGY>  (1) 
33.2969

>  <PUBCHEM_FEATURE_SELFOVERLAP>  (1) 
35.616

>  <PUBCHEM_SHAPE_FINGERPRINT>  (1) 
10366900 7 18261683678611888265
10382601 240 18341896294611456960
10465860 228 18202010940230628825
10498660 4 14260536581743653763
10980938 120 18342174492232578660
11086676 242 18199746934430819514
11357001 24 17401194582945432770
11471102 22 18409169926109348401
11578080 2 17604988113765508780
12202030 40 17385998412862823039
12251169 10 18341336673304915831
12553582 1 18123746457194218878
12633257 1 18187640349088412259
12824470 246 16954787420345105450
13140716 1 18195516224304240720
13275264 69 17760362197851589642
13533116 47 18335428963428514963
14022349 108 18268409331415491698
14223421 5 18408885157130137509
14787075 74 17480014641814443079
14790565 3 18339366378813274428
15309172 13 18120644983963124292
15375462 189 18188778214795811458
15501101 241 18333453135862383628
15775835 57 17560527329735135873
16945 1 18339343250033804660
17841504 4 18337674122515612143
19049666 15 18042675122750240949
201361 129 18271529792074424912
20681677 76 18409442575445276189
21041028 32 18197497320829405760
21524375 3 17913487114812474204
21731228 192 18050561052120318136
22445834 79 18412826910621133951
22854114 111 18271247226265763241
22907989 373 9794839400272134130
2748010 2 17981582902716094716
305870 269 18342453793792521548
31174 14 18408323276486474959
3797600 57 17558845115688989267
4175511 71 18127697032457876694
458136 41 18262810682346548500
474 4 18268709600652527433
58807428 26 18124011667609314568
5902787 121 18191302672070985714
6049 1 18113896014177547973
7097593 13 18412267211973896843
7364860 26 18343871025762935462
7615 1 17560220493029010839
81228 2 17189805758786164884

>  <PUBCHEM_SHAPE_MULTIPOLES>  (1) 
334.91
6.27
3.1
1.17
6.56
0.49
-0.01
0.74
2.63
-3.71
0.87
0.4
0.26
-0.07

>  <PUBCHEM_SHAPE_SELFOVERLAP>  (1) 
723.802

>  <PUBCHEM_SHAPE_VOLUME>  (1) 
183.1

>  <PUBCHEM_COORDINATE_TYPE>  (1) 
2
5
10

$$$$
