31480
     RDKit          3D

 19 21  0  0  0  0  0  0  0  0999 V2000
   -3.7065    1.2437    0.0972 N   0  0  0  0  0  0  0  0  0  0  0  0
   -0.1126    0.1019   -0.3714 C   0  0  0  0  0  0  0  0  0  0  0  0
   -1.5013    0.5463   -0.7455 C   0  0  0  0  0  0  0  0  0  0  0  0
    0.1454   -1.2669   -0.1883 C   0  0  0  0  0  0  0  0  0  0  0  0
    0.8982    1.0646   -0.2129 C   0  0  0  0  0  0  0  0  0  0  0  0
   -2.3603    0.8364    0.4854 C   0  0  0  0  0  0  0  0  0  0  0  0
    1.4483   -1.6839    0.1623 C   0  0  0  0  0  0  0  0  0  0  0  0
    2.2010    0.6477    0.1376 C   0  0  0  0  0  0  0  0  0  0  0  0
    2.4591   -0.7211    0.3206 C   0  0  0  0  0  0  0  0  0  0  0  0
   -0.8647   -2.2303   -0.3465 C   0  0  0  0  0  0  0  0  0  0  0  0
    0.6409    2.4335   -0.3956 C   0  0  0  0  0  0  0  0  0  0  0  0
    1.7054   -3.0528    0.3453 C   0  0  0  0  0  0  0  0  0  0  0  0
    3.2113    1.6110    0.2957 C   0  0  0  0  0  0  0  0  0  0  0  0
   -0.5926   -3.5859   -0.1612 C   0  0  0  0  0  0  0  0  0  0  0  0
    1.6555    3.3773   -0.2346 C   0  0  0  0  0  0  0  0  0  0  0  0
    0.6909   -3.9966    0.1844 C   0  0  0  0  0  0  0  0  0  0  0  0
    2.9391    2.9665    0.1107 C   0  0  0  0  0  0  0  0  0  0  0  0
   -4.5354    1.4755    1.2810 C   0  0  0  0  0  0  0  0  0  0  0  0
   -4.3217    0.2330   -0.7642 C   0  0  0  0  0  0  0  0  0  0  0  0
  1  6  1  0
  1 18  1  0
  1 19  1  0
  2  3  1  0
  2  4  2  0
  2  5  1  0
  3  6  1  0
  4  7  1  0
  4 10  1  0
  5  8  2  0
  5 11  1  0
  7  9  2  0
  7 12  1  0
  8  9  1  0
  8 13  1  0
 10 14  2  0
 11 15  2  0
 12 16  2  0
 13 17  2  0
 14 16  1  0
 15 17  1  0
M  END
>  <PUBCHEM_COMPOUND_CID>  (1) 
31480

>  <PUBCHEM_CONFORMER_RMSD>  (1) 
0.6

>  <PUBCHEM_CONFORMER_DIVERSEORDER>  (1) 
1

>  <PUBCHEM_MMFF94_PARTIAL_CHARGES>  (1) 
24
1 -0.81
10 -0.15
11 -0.15
12 -0.15
13 -0.15
14 -0.15
15 -0.15
16 -0.15
17 -0.15
18 0.27
19 0.27
2 -0.14
24 0.15
25 0.15
26 0.15
27 0.15
28 0.15
29 0.15
3 0.14
30 0.15
31 0.15
32 0.15
6 0.27
9 -0.15

>  <PUBCHEM_EFFECTIVE_ROTOR_COUNT>  (1) 
3

>  <PUBCHEM_PHARMACOPHORE_FEATURES>  (1) 
4
1 1 cation
6 2 4 5 7 8 9 rings
6 4 7 10 12 14 16 rings
6 5 8 11 13 15 17 rings

>  <PUBCHEM_HEAVY_ATOM_COUNT>  (1) 
19

>  <PUBCHEM_ATOM_DEF_STEREO_COUNT>  (1) 
0

>  <PUBCHEM_ATOM_UDEF_STEREO_COUNT>  (1) 
0

>  <PUBCHEM_BOND_DEF_STEREO_COUNT>  (1) 
0

>  <PUBCHEM_BOND_UDEF_STEREO_COUNT>  (1) 
0

>  <PUBCHEM_ISOTOPIC_ATOM_COUNT>  (1) 
0

>  <PUBCHEM_COMPONENT_COUNT>  (1) 
1

>  <PUBCHEM_CACTVS_TAUTO_COUNT>  (1) 
1

>  <PUBCHEM_CONFORMER_ID>  (1) 
00007AF800000001

>  <PUBCHEM_MMFF94_ENERGY>  (1) 
67.0593

>  <PUBCHEM_FEATURE_SELFOVERLAP>  (1) 
20.349

>  <PUBCHEM_SHAPE_FINGERPRINT>  (1) 
10064457 181 18267029533826511865
10411042 1 17762052134492112183
104564 63 17617663597406113860
10493431 412 18339640148153938912
10967382 1 18338230458272184118
1100329 8 18410852170710980714
11578080 2 13161177991836383481
11582403 64 16449198095307415821
116883 192 17114095569729964293
12390115 104 18051428545267679328
12553582 1 17907016171308841439
12788726 201 17618777398247860306
12954195 1 17328042356595355348
13140716 1 18409439315507128306
138480 1 18122342372075564399
14178342 30 17833815441903197672
14787075 74 17912640495839576887
14790565 3 18338528434967576308
14866123 147 18193836166389835242
15906896 17 17912081960331840326
16945 1 18265600005912524414
17138139 8 17555140887169925247
19591789 44 18338518509186547476
20157964 124 18338795608119786293
20510252 161 17475513253683753736
20645477 70 18189605065347054621
20739085 24 18263372399507777288
21041028 32 17689154513221923023
21197605 99 18191882321738566939
21524375 3 18201155563381955037
2255824 54 18340208488243408599
2334 1 18265041621646553670
23419403 2 16597381399122855226
23558518 356 17757552224473185832
25147074 1 17392183419927163444
2748010 2 18336826493809006734
3091708 16 9188468585771053121
350125 39 18192999445971343718
352729 6 17977942715494297679
3886686 26 17691927821583236952
458136 41 18336279971730952749
474 4 18412262831244586929
633830 44 18202292398465502493
6438718 38 17339582791700403879
6443956 14 17904202529690490669
7097593 13 18054234224427399145
7364860 26 18338518521670522597
81228 2 17396700260194161952
8272917 22 18340491050226958549
84936 182 18201996633921660073

>  <PUBCHEM_SHAPE_MULTIPOLES>  (1) 
386.03
5.83
5.02
0.83
6.57
3.94
0.07
-5.71
1.02
-2.1
0.22
0.54
-0.19
-0.72

>  <PUBCHEM_SHAPE_SELFOVERLAP>  (1) 
846.062

>  <PUBCHEM_SHAPE_VOLUME>  (1) 
209.4

>  <PUBCHEM_COORDINATE_TYPE>  (1) 
2
5
10

$$$$
