31486
     RDKit          3D

 23 23  0  0  0  0  0  0  0  0999 V2000
   -2.9001   -0.6593    0.6341 O   0  0  0  0  0  0  0  0  0  0  0  0
    0.9423    0.6936    0.2670 O   0  0  0  0  0  0  0  0  0  0  0  0
   -4.9614    0.9600   -0.2451 O   0  0  0  0  0  0  0  0  0  0  0  0
   -0.3652   -0.6126    1.6394 O   0  0  0  0  0  0  0  0  0  0  0  0
    4.5145   -0.1902    0.2697 N   0  0  0  0  0  0  0  0  0  0  0  0
    6.9407   -0.3877   -0.0169 C   0  0  0  0  0  0  0  0  0  0  0  0
    5.6771    0.3806   -0.4002 C   0  0  0  0  0  0  0  0  0  0  0  0
    8.1701    0.1817   -0.7259 C   0  0  0  0  0  0  0  0  0  0  0  0
    3.3008    0.5264   -0.0953 C   0  0  0  0  0  0  0  0  0  0  0  0
   -3.1312   -3.0031    0.1827 C   0  0  0  0  0  0  0  0  0  0  0  0
    2.0985   -0.0450    0.6393 C   0  0  0  0  0  0  0  0  0  0  0  0
   -2.7958   -1.6367   -0.3981 C   0  0  0  0  0  0  0  0  0  0  0  0
   -3.0236   -4.1042   -0.8683 C   0  0  0  0  0  0  0  0  0  0  0  0
    9.4374   -0.5550   -0.3224 C   0  0  0  0  0  0  0  0  0  0  0  0
   -2.6485    0.6357    0.2872 C   0  0  0  0  0  0  0  0  0  0  0  0
   -1.3542    1.1488    0.3729 C   0  0  0  0  0  0  0  0  0  0  0  0
   -3.6926    1.4477   -0.1562 C   0  0  0  0  0  0  0  0  0  0  0  0
   -3.3174   -5.4724   -0.2739 C   0  0  0  0  0  0  0  0  0  0  0  0
   -0.2281    0.3032    0.8433 C   0  0  0  0  0  0  0  0  0  0  0  0
   -1.1039    2.4737    0.0156 C   0  0  0  0  0  0  0  0  0  0  0  0
   -3.4422    2.7725   -0.5136 C   0  0  0  0  0  0  0  0  0  0  0  0
   -2.1478    3.2855   -0.4277 C   0  0  0  0  0  0  0  0  0  0  0  0
   -5.9695    1.8567   -0.7077 C   0  0  0  0  0  0  0  0  0  0  0  0
  1 12  1  0
  1 15  1  0
  2 11  1  0
  2 19  1  0
  3 17  1  0
  3 23  1  0
  4 19  2  0
  5  7  1  0
  5  9  1  0
  6  7  1  0
  6  8  1  0
  8 14  1  0
  9 11  1  0
 10 12  1  0
 10 13  1  0
 13 18  1  0
 15 16  2  0
 15 17  1  0
 16 19  1  0
 16 20  1  0
 17 21  2  0
 20 22  2  0
 21 22  1  0
M  END
>  <PUBCHEM_COMPOUND_CID>  (1) 
31486

>  <PUBCHEM_CONFORMER_RMSD>  (1) 
1

>  <PUBCHEM_CONFORMER_DIVERSEORDER>  (1) 
1
26
64
31
86
76
54
48
5
92
2
51
27
74
4
41
93
50
35
100
103
43
90
60
46
59
91
52
53
89
14
87
70
6
33
39
97
94
47
72
9
42
81
45
20
57
30
80
84
11
78
16
106
10
71
96
3
63
17
101
15
44
79
88
7
34
28
99
8
104
69
29
19
66
65
67
75
37
40
58
85
61
49
62
25
12
73
68
23
13
32
24
22
105
56
98
102
77
55
83
95
18
82
21
38
36

>  <PUBCHEM_MMFF94_PARTIAL_CHARGES>  (1) 
21
1 -0.36
11 0.28
12 0.28
15 0.08
16 0.09
17 0.08
19 0.63
2 -0.43
20 -0.15
21 -0.15
22 -0.15
23 0.28
3 -0.36
32 0.36
4 -0.57
47 0.15
48 0.15
49 0.15
5 -0.9
7 0.27
9 0.27

>  <PUBCHEM_EFFECTIVE_ROTOR_COUNT>  (1) 
13

>  <PUBCHEM_PHARMACOPHORE_FEATURES>  (1) 
8
1 1 acceptor
1 14 hydrophobe
1 18 hydrophobe
1 3 acceptor
1 4 acceptor
1 5 cation
1 5 donor
6 15 16 17 20 21 22 rings

>  <PUBCHEM_HEAVY_ATOM_COUNT>  (1) 
23

>  <PUBCHEM_ATOM_DEF_STEREO_COUNT>  (1) 
0

>  <PUBCHEM_ATOM_UDEF_STEREO_COUNT>  (1) 
0

>  <PUBCHEM_BOND_DEF_STEREO_COUNT>  (1) 
0

>  <PUBCHEM_BOND_UDEF_STEREO_COUNT>  (1) 
0

>  <PUBCHEM_ISOTOPIC_ATOM_COUNT>  (1) 
0

>  <PUBCHEM_COMPONENT_COUNT>  (1) 
1

>  <PUBCHEM_CACTVS_TAUTO_COUNT>  (1) 
1

>  <PUBCHEM_CONFORMER_ID>  (1) 
00007AFE00000001

>  <PUBCHEM_MMFF94_ENERGY>  (1) 
50.0709

>  <PUBCHEM_FEATURE_SELFOVERLAP>  (1) 
40.605

>  <PUBCHEM_SHAPE_FINGERPRINT>  (1) 
10299344 5 12103556477943200836
10411042 1 18121783000511123259
10730089 173 18261394416786194976
11315181 36 17275102829942861536
11315621 246 18409445912534651486
11524674 6 17203607081946141902
12091667 2 18040443179208668680
13540713 4 17914599786130426841
15183329 4 18114747037000619464
15250474 111 18261377933139784338
15461852 350 18339089281019116230
15716309 27 12463561869191305148
16989713 51 18129943511461756198
20505436 4 17822850866794429929
20721686 146 17169539702788360981
21307412 95 18197765799657904207
21781055 127 17913200962685100249
22849339 104 18340219539342370599
23402539 116 18113620092846777536
23559900 14 18341324570087797096
335352 9 18336260172654879077
397830 11 17987508377563948872
531348 171 18336830801861846754

>  <PUBCHEM_SHAPE_MULTIPOLES>  (1) 
444.87
19.33
4.9
0.9
65.06
8.26
-0.11
1.32
5.4
-12.75
1.33
-0.11
0.09
0.12

>  <PUBCHEM_SHAPE_SELFOVERLAP>  (1) 
880.188

>  <PUBCHEM_SHAPE_VOLUME>  (1) 
265.6

>  <PUBCHEM_COORDINATE_TYPE>  (1) 
2
5
10

$$$$
