31496
     RDKit          3D

 11 12  0  0  0  0  0  0  0  0999 V2000
   -1.1927    1.0578   -0.0001 N   0  0  0  0  0  0  0  0  0  0  0  0
   -1.2081   -1.0449    0.0003 N   0  0  0  0  0  0  0  0  0  0  0  0
   -2.0305    0.0353    0.0000 N   0  0  0  0  0  0  0  0  0  0  0  0
    0.1259    0.6781    0.0001 C   0  0  0  0  0  0  0  0  0  0  0  0
    0.1283   -0.7080    0.0001 C   0  0  0  0  0  0  0  0  0  0  0  0
    1.3041    1.4187    0.0003 C   0  0  0  0  0  0  0  0  0  0  0  0
    1.3050   -1.4519   -0.0002 C   0  0  0  0  0  0  0  0  0  0  0  0
   -1.6584    2.4179   -0.0003 C   0  0  0  0  0  0  0  0  0  0  0  0
   -1.7713   -2.3734    0.0000 C   0  0  0  0  0  0  0  0  0  0  0  0
    2.4992    0.6868    0.0002 C   0  0  0  0  0  0  0  0  0  0  0  0
    2.4985   -0.7163   -0.0004 C   0  0  0  0  0  0  0  0  0  0  0  0
  1  3  2  0
  1  4  1  0
  1  8  1  0
  2  3  1  0
  2  5  1  0
  2  9  1  0
  4  5  2  0
  4  6  1  0
  5  7  1  0
  6 10  2  0
  7 11  2  0
 10 11  1  0
M  CHG  1   1   1
M  END
>  <PUBCHEM_COMPOUND_CID>  (1) 
31496

>  <PUBCHEM_CONFORMER_RMSD>  (1) 
0.4

>  <PUBCHEM_CONFORMER_DIVERSEORDER>  (1) 
1

>  <PUBCHEM_MMFF94_PARTIAL_CHARGES>  (1) 
15
1 0.11
10 -0.15
11 -0.15
12 0.15
13 0.15
2 0.31
20 0.15
21 0.15
3 -0.38
4 0.33
5 -0.15
6 -0.15
7 -0.15
8 0.51
9 0.26

>  <PUBCHEM_EFFECTIVE_ROTOR_COUNT>  (1) 
0

>  <PUBCHEM_PHARMACOPHORE_FEATURES>  (1) 
2
5 1 2 3 4 5 rings
6 4 5 6 7 10 11 rings

>  <PUBCHEM_HEAVY_ATOM_COUNT>  (1) 
11

>  <PUBCHEM_ATOM_DEF_STEREO_COUNT>  (1) 
0

>  <PUBCHEM_ATOM_UDEF_STEREO_COUNT>  (1) 
0

>  <PUBCHEM_BOND_DEF_STEREO_COUNT>  (1) 
0

>  <PUBCHEM_BOND_UDEF_STEREO_COUNT>  (1) 
0

>  <PUBCHEM_ISOTOPIC_ATOM_COUNT>  (1) 
0

>  <PUBCHEM_COMPONENT_COUNT>  (1) 
1

>  <PUBCHEM_CACTVS_TAUTO_COUNT>  (1) 
1

>  <PUBCHEM_CONFORMER_ID>  (1) 
00007B0800000001

>  <PUBCHEM_MMFF94_ENERGY>  (1) 
24.0734

>  <PUBCHEM_FEATURE_SELFOVERLAP>  (1) 
10.25

>  <PUBCHEM_SHAPE_FINGERPRINT>  (1) 
1 1 17689432689853563653
12897270 3 18338797947895170142
16945 1 18410856555487240580
18185500 45 18051693544575132694
193761 8 18410573985330792710
19973954 147 18410576201660602468
20871998 184 18201159943979448262
21040471 1 18266459806619867072
23552423 10 18188773967236179318
23559900 14 18127418852881976110
241688 4 18266741478964503233
2748010 2 18123466356405900596
5084963 1 18201717301953761920

>  <PUBCHEM_SHAPE_MULTIPOLES>  (1) 
211.43
3.22
2.46
0.59
0.9
0.06
0
-0.1
0
-1.49
0
0.04
0
0

>  <PUBCHEM_SHAPE_SELFOVERLAP>  (1) 
453.637

>  <PUBCHEM_SHAPE_VOLUME>  (1) 
120.9

>  <PUBCHEM_COORDINATE_TYPE>  (1) 
2
5
10

$$$$
