31491
     RDKit          3D

 14 15  0  0  1  0  0  0  0  0999 V2000
    2.4902    1.5483    0.2875 O   0  0  0  0  0  0  0  0  0  0  0  0
    3.3744   -0.6934    0.2784 O   0  0  0  0  0  0  0  0  0  0  0  0
   -2.2998    1.2409   -1.4386 O   0  0  0  0  0  0  0  0  0  0  0  0
   -3.4291   -1.2173    0.9388 N   0  0  0  0  0  0  0  0  0  0  0  0
   -3.0667    1.1019    1.1578 N   0  0  0  0  0  0  0  0  0  0  0  0
   -0.6299   -0.2188   -0.4906 C   0  0  0  0  0  0  0  0  0  0  0  0
   -2.0797    0.0036   -0.7652 C   0  0  0  0  0  0  0  0  0  0  0  0
    1.5351    0.6170    0.0176 C   0  0  0  0  0  0  0  0  0  0  0  0
    2.0401   -0.6631    0.0123 C   0  0  0  0  0  0  0  0  0  0  0  0
    0.2021    0.8727   -0.2304 C   0  0  0  0  0  0  0  0  0  0  0  0
   -0.1138   -1.5267   -0.4960 C   0  0  0  0  0  0  0  0  0  0  0  0
    1.2401   -1.7581   -0.2414 C   0  0  0  0  0  0  0  0  0  0  0  0
    3.6527    0.7108    0.4522 C   0  0  0  0  0  0  0  0  0  0  0  0
   -2.9156   -0.0178    0.5176 C   0  0  0  0  0  0  0  0  0  0  0  0
  1  8  1  0
  1 13  1  0
  2  9  1  0
  2 13  1  0
  3  7  1  0
  4 14  1  0
  5 14  2  0
  6  7  1  0
  6 10  2  0
  6 11  1  0
  7 14  1  0
  8  9  2  0
  8 10  1  0
  9 12  1  0
 11 12  2  0
M  END
>  <PUBCHEM_COMPOUND_CID>  (1) 
31491

>  <PUBCHEM_CONFORMER_RMSD>  (1) 
0.6

>  <PUBCHEM_CONFORMER_DIVERSEORDER>  (1) 
1
8
5
4
7
6
3
2

>  <PUBCHEM_MMFF94_PARTIAL_CHARGES>  (1) 
21
1 -0.36
10 -0.15
11 -0.15
12 -0.15
13 0.56
14 0.44
16 0.15
17 0.15
18 0.15
2 -0.36
21 0.4
22 0.4
23 0.4
24 0.4
3 -0.68
4 -0.85
5 -0.85
6 -0.14
7 0.48
8 0.08
9 0.08

>  <PUBCHEM_EFFECTIVE_ROTOR_COUNT>  (1) 
2.6

>  <PUBCHEM_PHARMACOPHORE_FEATURES>  (1) 
9
1 1 acceptor
1 2 acceptor
1 3 acceptor
1 3 donor
1 4 donor
1 5 donor
3 4 5 14 cation
5 1 2 8 9 13 rings
6 6 8 9 10 11 12 rings

>  <PUBCHEM_HEAVY_ATOM_COUNT>  (1) 
14

>  <PUBCHEM_ATOM_DEF_STEREO_COUNT>  (1) 
0

>  <PUBCHEM_ATOM_UDEF_STEREO_COUNT>  (1) 
1

>  <PUBCHEM_BOND_DEF_STEREO_COUNT>  (1) 
0

>  <PUBCHEM_BOND_UDEF_STEREO_COUNT>  (1) 
0

>  <PUBCHEM_ISOTOPIC_ATOM_COUNT>  (1) 
0

>  <PUBCHEM_COMPONENT_COUNT>  (1) 
1

>  <PUBCHEM_CACTVS_TAUTO_COUNT>  (1) 
1

>  <PUBCHEM_CONFORMER_ID>  (1) 
00007B0300000001

>  <PUBCHEM_MMFF94_ENERGY>  (1) 
32.4246

>  <PUBCHEM_FEATURE_SELFOVERLAP>  (1) 
45.87

>  <PUBCHEM_SHAPE_FINGERPRINT>  (1) 
10219947 1 18408601465781432212
10465860 228 17844823498347000106
10857977 72 17676209069712074711
11471102 22 18335993011949032499
12032990 46 18337112272353568878
12251169 10 18337399326371295955
12382932 28 18411986823544628553
12491281 212 17846778537522065986
12696612 119 18408893948653918525
12932764 1 18040716922384409607
13380535 21 18339084916514945014
13693222 15 17967253113320220387
13705890 14 10809349961536931200
14144814 61 18343017791912908024
14289901 80 17022902358863962728
14325111 11 18341611533641684860
15219456 202 18261670372560547231
15309172 13 18413668028062684983
15653759 3 17676204641347617276
15775835 57 17418095399392743593
16945 1 18342449301615257246
17844478 74 18186521003285935877
18175812 5 18040428880365566157
18186145 218 18131348626912416444
19026448 5 15626214728564644230
19049666 15 17826508868918038727
200 152 18129930274361460807
20279233 1 18040711442317214039
20645477 70 18268696234550772559
20715346 28 18260542307874156012
22926399 65 12751250176718677411
2748010 2 17837198291215062790
63268167 104 18272077275802854676
77492 1 17274813636651080215
81228 2 17619613014411421934

>  <PUBCHEM_SHAPE_MULTIPOLES>  (1) 
260.54
5.88
1.59
0.97
0.13
0.28
-0.07
-0.96
1.74
-0.26
-0.02
0.82
-0.15
0.32

>  <PUBCHEM_SHAPE_SELFOVERLAP>  (1) 
563.344

>  <PUBCHEM_SHAPE_VOLUME>  (1) 
143.1

>  <PUBCHEM_COORDINATE_TYPE>  (1) 
2
5
10

$$$$
