31507
     RDKit          3D

 15 16  0  0  0  0  0  0  0  0999 V2000
    3.0160    1.3316   -1.1372 O   0  0  0  0  0  0  0  0  0  0  0  0
    1.3241    0.4930    0.8555 N   0  0  0  0  0  0  0  0  0  0  0  0
    0.5386   -1.6553    0.2800 N   0  0  0  0  0  0  0  0  0  0  0  0
    2.5980    0.0374    0.7476 N   0  0  0  0  0  0  0  0  0  0  0  0
   -0.4479   -2.5014   -0.1177 N   0  0  0  0  0  0  0  0  0  0  0  0
   -0.9985    0.2028    0.2152 C   0  0  0  0  0  0  0  0  0  0  0  0
   -2.0165   -0.6704   -0.1960 C   0  0  0  0  0  0  0  0  0  0  0  0
    0.2605   -0.3432    0.4391 C   0  0  0  0  0  0  0  0  0  0  0  0
   -1.2806    1.5689    0.3829 C   0  0  0  0  0  0  0  0  0  0  0  0
   -3.3069   -0.1693   -0.4363 C   0  0  0  0  0  0  0  0  0  0  0  0
   -2.5654    2.0567    0.1417 C   0  0  0  0  0  0  0  0  0  0  0  0
   -1.6859   -2.0126   -0.3467 C   0  0  0  0  0  0  0  0  0  0  0  0
   -3.5765    1.1893   -0.2671 C   0  0  0  0  0  0  0  0  0  0  0  0
    3.3724    0.5176   -0.2881 C   0  0  0  0  0  0  0  0  0  0  0  0
    4.7685   -0.0450   -0.2728 C   0  0  0  0  0  0  0  0  0  0  0  0
  1 14  2  0
  2  4  1  0
  2  8  1  0
  3  5  2  0
  3  8  1  0
  4 14  1  0
  5 12  1  0
  6  7  1  0
  6  8  2  0
  6  9  1  0
  7 10  1  0
  7 12  2  0
  9 11  2  0
 10 13  2  0
 11 13  1  0
 14 15  1  0
M  END
>  <PUBCHEM_COMPOUND_CID>  (1) 
31507

>  <PUBCHEM_CONFORMER_RMSD>  (1) 
0.6

>  <PUBCHEM_CONFORMER_DIVERSEORDER>  (1) 
1
8
12
2
9
11
4
10
5
3
6
7

>  <PUBCHEM_MMFF94_PARTIAL_CHARGES>  (1) 
20
1 -0.57
10 -0.15
11 -0.15
12 0.16
13 -0.15
14 0.57
15 0.06
16 0.15
17 0.15
18 0.4
19 0.15
2 -0.52
20 0.15
21 0.15
22 0.37
3 -0.31
4 -0.41
5 -0.31
8 0.41
9 -0.15

>  <PUBCHEM_EFFECTIVE_ROTOR_COUNT>  (1) 
3

>  <PUBCHEM_PHARMACOPHORE_FEATURES>  (1) 
7
1 1 acceptor
1 2 donor
1 4 donor
1 5 acceptor
3 2 3 8 cation
6 3 5 6 7 8 12 rings
6 6 7 9 10 11 13 rings

>  <PUBCHEM_HEAVY_ATOM_COUNT>  (1) 
15

>  <PUBCHEM_ATOM_DEF_STEREO_COUNT>  (1) 
0

>  <PUBCHEM_ATOM_UDEF_STEREO_COUNT>  (1) 
0

>  <PUBCHEM_BOND_DEF_STEREO_COUNT>  (1) 
0

>  <PUBCHEM_BOND_UDEF_STEREO_COUNT>  (1) 
0

>  <PUBCHEM_ISOTOPIC_ATOM_COUNT>  (1) 
0

>  <PUBCHEM_COMPONENT_COUNT>  (1) 
1

>  <PUBCHEM_CACTVS_TAUTO_COUNT>  (1) 
5

>  <PUBCHEM_CONFORMER_ID>  (1) 
00007B1300000001

>  <PUBCHEM_MMFF94_ENERGY>  (1) 
50.4991

>  <PUBCHEM_FEATURE_SELFOVERLAP>  (1) 
37.156

>  <PUBCHEM_SHAPE_FINGERPRINT>  (1) 
10726558 24 18341614763488739975
12173636 292 18410569621491273428
13380535 21 18270685255812604043
13380535 76 18340201899637300699
14993402 34 18333445452213590997
15669948 3 18339070588008257738
15775835 57 18186239515593245252
16945 1 18341879827722505867
17870717 6 17987537982314512854
200 152 15052017853485960424
20279233 1 17275387625145160364
20510252 161 18270400627965830059
20645476 183 18259700112011315226
20645477 56 18412261770313831352
20645477 70 16558757806476163548
21501502 16 18196925570593503115
21524375 3 18334012752842068176
21637258 2 15051435159821120317
22802520 49 18058449974802973850
23366157 5 17899981530121302483
23402539 116 18343293765179099956
23493267 7 18113615681783353459
23557571 272 18055635264170848288
23559900 14 18202561788036868040
2748010 2 18197210357084950879
53812653 8 18410570669774341371
57177213 63 18337105653597689859
58051976 100 18334297574131182254
7364860 26 17983292621342616111
81228 2 17980466077727079891
93112 12 18411984697783905628
9709674 26 18272939340691601686
9981440 41 17250339870081977560

>  <PUBCHEM_SHAPE_MULTIPOLES>  (1) 
282.9
6.93
2.14
0.8
7.09
0.78
0.03
-2.46
1.46
-1.41
0.1
0.29
-0.12
-0.41

>  <PUBCHEM_SHAPE_SELFOVERLAP>  (1) 
606.41

>  <PUBCHEM_SHAPE_VOLUME>  (1) 
155.9

>  <PUBCHEM_COORDINATE_TYPE>  (1) 
2
5
10

$$$$
