31509
     RDKit          3D

 20 22  0  0  1  0  0  0  0  0999 V2000
   -0.7543   -2.0643   -0.1999 O   0  0  0  0  0  0  0  0  0  0  0  0
    3.0547   -0.1665   -0.3445 N   0  0  0  0  0  0  0  0  0  0  0  0
   -3.0901    1.8526   -0.0156 N   0  0  0  0  0  0  0  0  0  0  0  0
    0.6411   -0.0902    0.0737 C   0  0  0  0  0  0  0  0  0  0  0  0
    1.7928   -0.8787   -0.5440 C   0  0  0  0  0  0  0  0  0  0  0  0
    0.5825    1.3323   -0.5309 C   0  0  0  0  0  0  0  0  0  0  0  0
   -0.5781    2.1638    0.0405 C   0  0  0  0  0  0  0  0  0  0  0  0
    3.3288    0.0016    1.0895 C   0  0  0  0  0  0  0  0  0  0  0  0
    4.1550   -0.8719   -1.0166 C   0  0  0  0  0  0  0  0  0  0  0  0
   -0.6942   -0.8418   -0.1053 C   0  0  0  0  0  0  0  0  0  0  0  0
   -1.8934   -0.0237   -0.0868 C   0  0  0  0  0  0  0  0  0  0  0  0
   -1.8183    1.3514   -0.0183 C   0  0  0  0  0  0  0  0  0  0  0  0
    4.6210    0.7879    1.3156 C   0  0  0  0  0  0  0  0  0  0  0  0
    5.4742   -0.1140   -0.8594 C   0  0  0  0  0  0  0  0  0  0  0  0
    5.8013    0.1306    0.6092 C   0  0  0  0  0  0  0  0  0  0  0  0
   -3.2655   -0.3668   -0.1376 C   0  0  0  0  0  0  0  0  0  0  0  0
   -3.9822    0.8116   -0.0901 C   0  0  0  0  0  0  0  0  0  0  0  0
   -3.8371   -1.7265   -0.2225 C   0  0  0  0  0  0  0  0  0  0  0  0
   -5.4371    1.0598   -0.1099 C   0  0  0  0  0  0  0  0  0  0  0  0
   -4.1011   -2.3474    1.1528 C   0  0  0  0  0  0  0  0  0  0  0  0
  1 10  2  0
  2  5  1  0
  2  8  1  0
  2  9  1  0
  3 12  1  0
  3 17  1  0
  4  5  1  0
  4  6  1  0
  4 10  1  0
  6  7  1  0
  7 12  1  0
  8 13  1  0
  9 14  1  0
 10 11  1  0
 11 12  2  0
 11 16  1  0
 13 15  1  0
 14 15  1  0
 16 17  2  0
 16 18  1  0
 17 19  1  0
 18 20  1  0
M  END
>  <PUBCHEM_COMPOUND_CID>  (1) 
31509

>  <PUBCHEM_CONFORMER_RMSD>  (1) 
0.6

>  <PUBCHEM_CONFORMER_DIVERSEORDER>  (1) 
1
9
20
3
22
4
25
2
15
24
12
21
8
10
7
26
13
23
5
28
14
19
18
27
6
11
16
17

>  <PUBCHEM_MMFF94_PARTIAL_CHARGES>  (1) 
16
1 -0.57
10 0.6
11 -0.09
12 -0.33
16 -0.18
17 -0.33
18 0.18
19 0.18
2 -0.81
3 0.03
38 0.27
4 0.06
5 0.27
7 0.18
8 0.27
9 0.27

>  <PUBCHEM_EFFECTIVE_ROTOR_COUNT>  (1) 
4.8

>  <PUBCHEM_PHARMACOPHORE_FEATURES>  (1) 
8
1 1 acceptor
1 2 cation
1 20 hydrophobe
1 3 cation
1 3 donor
5 3 11 12 16 17 rings
6 2 8 9 13 14 15 rings
6 4 6 7 10 11 12 rings

>  <PUBCHEM_HEAVY_ATOM_COUNT>  (1) 
20

>  <PUBCHEM_ATOM_DEF_STEREO_COUNT>  (1) 
0

>  <PUBCHEM_ATOM_UDEF_STEREO_COUNT>  (1) 
1

>  <PUBCHEM_BOND_DEF_STEREO_COUNT>  (1) 
0

>  <PUBCHEM_BOND_UDEF_STEREO_COUNT>  (1) 
0

>  <PUBCHEM_ISOTOPIC_ATOM_COUNT>  (1) 
0

>  <PUBCHEM_COMPONENT_COUNT>  (1) 
1

>  <PUBCHEM_CACTVS_TAUTO_COUNT>  (1) 
5

>  <PUBCHEM_CONFORMER_ID>  (1) 
00007B1500000001

>  <PUBCHEM_MMFF94_ENERGY>  (1) 
17.4671

>  <PUBCHEM_FEATURE_SELFOVERLAP>  (1) 
40.68

>  <PUBCHEM_SHAPE_FINGERPRINT>  (1) 
10319926 262 18268411500653694466
10906281 52 18268723727427646573
10912923 1 17385443241479978186
11045977 3 18201715176024286232
11132069 177 18410013213068332341
11315181 36 17821729476656007794
11370993 144 17417545609034546187
11552529 35 15410034330946636567
11578080 2 13325479994481429833
12236239 1 17603586335651381758
12390115 104 17985556550455630089
12403259 415 18060139860093208530
12596602 18 17749106734036944752
12616971 3 16950569878202406590
13140716 1 18338241569869771129
13214271 11 18342735221956861983
13533116 47 17022896806046178152
13675066 3 18272933842668888030
15196674 1 18338237166784422596
17138139 8 16879906602279602274
17349148 13 17748832925260352566
17804303 29 18412544344464449065
17844677 252 17346604066886550648
18785283 64 17843108462678502664
18927931 339 18412829105112474375
19489759 90 18259981578424224674
200 152 15140956249439709820
20645477 56 18060132172180921782
20681677 155 18335702707141982017
21033648 29 17846487149734359226
21065201 7 18337390448810967050
21267235 1 18337679702316537039
21792961 116 17846229843809928942
22182313 1 18200613418371571607
2297311 6 18341906198895452476
23175994 123 17203610388954973480
23366157 5 17679025051908676284
23402539 116 18411975875388336454
23557571 272 18342469139757993734
23559900 14 18341336587616813662
23622692 118 18128246990895026039
2748010 2 18266454490120384733
335352 9 18409449194380276109
34934 24 18337103467744270159
3545911 37 18412264999685794925
474 4 16951702479071082428
5104073 3 18337393841302745472
542803 24 17676209065601632766
59755656 215 18339082579520207143
67856867 119 18042410295209714476

>  <PUBCHEM_SHAPE_MULTIPOLES>  (1) 
395.76
12.43
2.02
0.98
8.65
0.22
-0.16
0.61
-1.08
-2.69
-0.17
0.92
0.15
1.02

>  <PUBCHEM_SHAPE_SELFOVERLAP>  (1) 
831.296

>  <PUBCHEM_SHAPE_VOLUME>  (1) 
223.4

>  <PUBCHEM_COORDINATE_TYPE>  (1) 
2
5
10

$$$$
