31503
     RDKit          3D

 16 18  0  0  0  0  0  0  0  0999 V2000
    0.0003    1.7597   -0.1298 N   0  0  0  0  0  0  0  0  0  0  0  0
    0.0000   -2.4036    0.3560 N   0  0  0  0  0  0  0  0  0  0  0  0
    0.0000   -0.9918    0.1911 C   0  0  0  0  0  0  0  0  0  0  0  0
   -1.2146   -0.3031    0.1109 C   0  0  0  0  0  0  0  0  0  0  0  0
    1.2147   -0.3034    0.1109 C   0  0  0  0  0  0  0  0  0  0  0  0
   -1.1669    1.0917   -0.0519 C   0  0  0  0  0  0  0  0  0  0  0  0
    1.1673    1.0914   -0.0518 C   0  0  0  0  0  0  0  0  0  0  0  0
   -2.4500   -0.9694    0.1888 C   0  0  0  0  0  0  0  0  0  0  0  0
    2.4500   -0.9699    0.1888 C   0  0  0  0  0  0  0  0  0  0  0  0
   -2.3729    1.7830   -0.1325 C   0  0  0  0  0  0  0  0  0  0  0  0
    2.3734    1.7825   -0.1325 C   0  0  0  0  0  0  0  0  0  0  0  0
   -3.6414   -0.2550    0.1056 C   0  0  0  0  0  0  0  0  0  0  0  0
    3.6416   -0.2558    0.1054 C   0  0  0  0  0  0  0  0  0  0  0  0
   -3.6024    1.1240   -0.0554 C   0  0  0  0  0  0  0  0  0  0  0  0
    3.6028    1.1233   -0.0556 C   0  0  0  0  0  0  0  0  0  0  0  0
   -0.0019   -3.3035   -0.7481 C   0  0  0  0  0  0  0  0  0  0  0  0
  1  6  2  0
  1  7  1  0
  2  3  1  0
  2 16  1  0
  3  4  2  0
  3  5  1  0
  4  6  1  0
  4  8  1  0
  5  7  2  0
  5  9  1  0
  6 10  1  0
  7 11  1  0
  8 12  2  0
  9 13  2  0
 10 14  2  0
 11 15  2  0
 12 14  1  0
 13 15  1  0
M  END
>  <PUBCHEM_COMPOUND_CID>  (1) 
31503

>  <PUBCHEM_CONFORMER_RMSD>  (1) 
0.6

>  <PUBCHEM_CONFORMER_DIVERSEORDER>  (1) 
1

>  <PUBCHEM_MMFF94_PARTIAL_CHARGES>  (1) 
23
1 -0.62
10 -0.15
11 -0.15
12 -0.15
13 -0.15
14 -0.15
15 -0.15
16 0.37
17 0.15
18 0.15
19 0.4
2 -0.87
20 0.15
21 0.15
22 0.15
23 0.15
24 0.15
25 0.15
3 0.1
6 0.31
7 0.31
8 -0.15
9 -0.15

>  <PUBCHEM_EFFECTIVE_ROTOR_COUNT>  (1) 
1

>  <PUBCHEM_PHARMACOPHORE_FEATURES>  (1) 
6
1 1 acceptor
1 2 cation
1 2 donor
6 1 3 4 5 6 7 rings
6 4 6 8 10 12 14 rings
6 5 7 9 11 13 15 rings

>  <PUBCHEM_HEAVY_ATOM_COUNT>  (1) 
16

>  <PUBCHEM_ATOM_DEF_STEREO_COUNT>  (1) 
0

>  <PUBCHEM_ATOM_UDEF_STEREO_COUNT>  (1) 
0

>  <PUBCHEM_BOND_DEF_STEREO_COUNT>  (1) 
0

>  <PUBCHEM_BOND_UDEF_STEREO_COUNT>  (1) 
0

>  <PUBCHEM_ISOTOPIC_ATOM_COUNT>  (1) 
0

>  <PUBCHEM_COMPONENT_COUNT>  (1) 
1

>  <PUBCHEM_CACTVS_TAUTO_COUNT>  (1) 
2

>  <PUBCHEM_CONFORMER_ID>  (1) 
00007B0F00000001

>  <PUBCHEM_MMFF94_ENERGY>  (1) 
72.5699

>  <PUBCHEM_FEATURE_SELFOVERLAP>  (1) 
30.507

>  <PUBCHEM_SHAPE_FINGERPRINT>  (1) 
10411042 1 16969421817390420939
10608611 8 18408318878287379189
10967382 1 18410011005149096042
11132069 177 18409442574801795288
11471102 20 18337384942420430493
12553582 1 17113261594587677774
13140716 1 18409729517271938993
13380535 76 18335701607345562923
13897977 150 18336825286622425141
14144814 61 18408603669004936928
14325111 11 18409167714090706976
14614273 12 18188485770809931901
15042514 8 18265053724353217242
15196674 1 18408885139586355928
15309172 13 18411990169208133595
15442244 35 18192992612947511792
15536298 74 18413388731072184720
15775835 57 18408889541954240544
16945 1 17894912927329163848
18186145 218 18271534121454154760
193761 8 17689997830092619128
19591789 44 18410857676347649958
200 152 18201427091725870757
20510252 161 18272092707589240313
20645476 183 17532673401716003502
20645477 70 18265044752703898031
21267235 1 18408895030895947738
21501502 16 18193271901917620577
21524375 3 18407758140199560114
2334 1 18409730694098226417
23402539 116 18343010121196282588
23402655 69 18267852918629531669
23463225 33 18334011653504572088
23559900 14 18271812380513593860
25 1 18336263427569578509
2748010 2 18409169913097956469
335352 9 18049158865235466261
43471831 8 18335980874392851763
5104073 3 18408604759842312857
528886 8 18410286999752902897
53812653 166 18412541011633235032
54173680 148 18048599518781042834
6138700 20 18123194498737516678
69090 78 18340201989746964522
7364860 26 18124877858874649919
81228 2 17761761163120663995
8272917 22 18197218049408307949
84936 31 16915089600073688614
8809292 202 18186526513966321243
9709674 26 18339647849135620190

>  <PUBCHEM_SHAPE_MULTIPOLES>  (1) 
319.31
5.85
2.67
0.66
0
1.9
0.02
-2.07
-0.15
0
0.46
0
0.12
0

>  <PUBCHEM_SHAPE_SELFOVERLAP>  (1) 
717.347

>  <PUBCHEM_SHAPE_VOLUME>  (1) 
167.8

>  <PUBCHEM_COORDINATE_TYPE>  (1) 
2
5
10

$$$$
