31519
     RDKit          3D

 14 15  0  0  0  0  0  0  0  0999 V2000
   -0.7406   -1.7418   -0.3859 O   0  0  0  0  0  0  0  0  0  0  0  0
   -2.9664   -1.1947    0.3584 O   0  0  0  0  0  0  0  0  0  0  0  0
    1.2661    0.2644   -0.9262 O   0  0  0  0  0  0  0  0  0  0  0  0
    1.9398    0.1617    1.2967 O   0  0  0  0  0  0  0  0  0  0  0  0
    3.4487   -0.2477   -0.4173 N   0  0  0  0  0  0  0  0  0  0  0  0
   -0.9269   -0.4000   -0.2557 C   0  0  0  0  0  0  0  0  0  0  0  0
   -2.1979   -0.0877    0.1692 C   0  0  0  0  0  0  0  0  0  0  0  0
    0.0148    0.5763   -0.5079 C   0  0  0  0  0  0  0  0  0  0  0  0
   -2.0367   -2.2391    0.0053 C   0  0  0  0  0  0  0  0  0  0  0  0
   -2.5975    1.2183    0.3651 C   0  0  0  0  0  0  0  0  0  0  0  0
   -0.3642    1.9072   -0.3174 C   0  0  0  0  0  0  0  0  0  0  0  0
   -1.6629    2.2264    0.1166 C   0  0  0  0  0  0  0  0  0  0  0  0
    2.2095    0.0639    0.1032 C   0  0  0  0  0  0  0  0  0  0  0  0
    4.6140   -0.5072    0.3957 C   0  0  0  0  0  0  0  0  0  0  0  0
  1  6  1  0
  1  9  1  0
  2  7  1  0
  2  9  1  0
  3  8  1  0
  3 13  1  0
  4 13  2  0
  5 13  1  0
  5 14  1  0
  6  7  2  0
  6  8  1  0
  7 10  1  0
  8 11  2  0
 10 12  2  0
 11 12  1  0
M  END
>  <PUBCHEM_COMPOUND_CID>  (1) 
31519

>  <PUBCHEM_CONFORMER_RMSD>  (1) 
0.6

>  <PUBCHEM_CONFORMER_DIVERSEORDER>  (1) 
2
11
17
5
18
12
25
6
1
10
16
19
15
9
20
23
7
21
8
4
22
13
24
14
3

>  <PUBCHEM_MMFF94_PARTIAL_CHARGES>  (1) 
18
1 -0.36
10 -0.15
11 -0.15
12 -0.15
13 0.78
14 0.3
17 0.15
18 0.15
19 0.15
2 -0.36
20 0.37
3 -0.23
4 -0.57
5 -0.73
6 0.08
7 0.08
8 0.08
9 0.56

>  <PUBCHEM_EFFECTIVE_ROTOR_COUNT>  (1) 
3.6

>  <PUBCHEM_PHARMACOPHORE_FEATURES>  (1) 
6
1 1 acceptor
1 2 acceptor
1 4 acceptor
1 5 donor
5 1 2 6 7 9 rings
6 6 7 8 10 11 12 rings

>  <PUBCHEM_HEAVY_ATOM_COUNT>  (1) 
14

>  <PUBCHEM_ATOM_DEF_STEREO_COUNT>  (1) 
0

>  <PUBCHEM_ATOM_UDEF_STEREO_COUNT>  (1) 
0

>  <PUBCHEM_BOND_DEF_STEREO_COUNT>  (1) 
0

>  <PUBCHEM_BOND_UDEF_STEREO_COUNT>  (1) 
0

>  <PUBCHEM_ISOTOPIC_ATOM_COUNT>  (1) 
0

>  <PUBCHEM_COMPONENT_COUNT>  (1) 
1

>  <PUBCHEM_CACTVS_TAUTO_COUNT>  (1) 
2

>  <PUBCHEM_CONFORMER_ID>  (1) 
00007B1F00000002

>  <PUBCHEM_MMFF94_ENERGY>  (1) 
34.6966

>  <PUBCHEM_FEATURE_SELFOVERLAP>  (1) 
30.601

>  <PUBCHEM_SHAPE_FINGERPRINT>  (1) 
124424 183 17703503295099894840
12500047 106 18338508617449856600
13024252 1 14923947816982539149
15219456 202 17845379855894997806
15653759 3 18131066035238745888
16945 1 18411147913474051181
17804303 29 18342463633920974446
19049666 15 17773324426531071318
19422 9 18113905957311583342
20510252 161 18200315398895908985
20645464 45 17989208114048060180
20871998 184 18272092707657435231
21650355 55 18410851075067091304
22445834 79 18040993990924966090
232386 152 18335709393878476310
23402539 116 18272079496912883325
23552423 10 17542514181256049613
23559900 14 18200316499303965262
257057 1 17910384323316901503
2748010 2 18267865180333659637
43471831 8 18262237703238919779
5706482 22 18267580213310933025
6333449 129 18341330007099142365
6338986 31 17768516541308637439
7364860 26 17836932574067419209
75552 356 18410575084668496628
77492 1 17676781911112361404

>  <PUBCHEM_SHAPE_MULTIPOLES>  (1) 
259.66
5.75
2.09
0.81
7.72
0.11
-0.07
1.21
-1.01
-2.14
0.05
0.26
-0.05
-0.09

>  <PUBCHEM_SHAPE_SELFOVERLAP>  (1) 
558.538

>  <PUBCHEM_SHAPE_VOLUME>  (1) 
142.3

>  <PUBCHEM_COORDINATE_TYPE>  (1) 
2
5
10

$$$$
