31514
     RDKit          3D

 17 18  0  0  1  0  0  0  0  0999 V2000
   -0.7312   -0.9572    0.7204 O   0  0  0  0  0  0  0  0  0  0  0  0
   -2.7221    0.1009   -0.1329 O   0  0  0  0  0  0  0  0  0  0  0  0
    1.7975    0.4207    0.9497 O   0  0  0  0  0  0  0  0  0  0  0  0
    2.3262   -0.2402   -1.2159 O   0  0  0  0  0  0  0  0  0  0  0  0
    3.7103   -0.7941    0.5617 N   0  0  0  0  0  0  0  0  0  0  0  0
   -2.1360   -1.1123    0.4004 C   0  0  0  0  0  0  0  0  0  0  0  0
   -2.2724   -2.2154   -0.6484 C   0  0  0  0  0  0  0  0  0  0  0  0
   -2.8831   -1.4871    1.6795 C   0  0  0  0  0  0  0  0  0  0  0  0
   -0.5168    0.3410    0.3688 C   0  0  0  0  0  0  0  0  0  0  0  0
   -1.6532    0.9450   -0.1185 C   0  0  0  0  0  0  0  0  0  0  0  0
   -1.5088   -1.8728   -1.9124 C   0  0  0  0  0  0  0  0  0  0  0  0
    0.6802    1.0195    0.4689 C   0  0  0  0  0  0  0  0  0  0  0  0
   -1.6557    2.2608   -0.5331 C   0  0  0  0  0  0  0  0  0  0  0  0
    0.7050    2.3536    0.0556 C   0  0  0  0  0  0  0  0  0  0  0  0
   -0.4562    2.9706   -0.4427 C   0  0  0  0  0  0  0  0  0  0  0  0
    2.6006   -0.2158   -0.0197 C   0  0  0  0  0  0  0  0  0  0  0  0
    4.7157   -1.5172   -0.1815 C   0  0  0  0  0  0  0  0  0  0  0  0
  1  6  1  0
  1  9  1  0
  2  6  1  0
  2 10  1  0
  3 12  1  0
  3 16  1  0
  4 16  2  0
  5 16  1  0
  5 17  1  0
  6  7  1  0
  6  8  1  0
  7 11  1  0
  9 10  2  0
  9 12  1  0
 10 13  1  0
 12 14  2  0
 13 15  2  0
 14 15  1  0
M  END
>  <PUBCHEM_COMPOUND_CID>  (1) 
31514

>  <PUBCHEM_CONFORMER_RMSD>  (1) 
0.6

>  <PUBCHEM_CONFORMER_DIVERSEORDER>  (1) 
1
41
76
59
66
63
84
58
45
86
93
28
67
91
33
2
92
72
88
94
54
26
73
69
10
75
57
48
8
50
77
80
61
79
9
6
35
49
20
64
68
30
87
29
90
5
27
42
3
24
78
43
71
46
4
82
38
25
83
15
39
32
51
70
65
13
40
34
53
56
36
81
7
74
17
89
14
52
85
12
55
23
60
47
11
18
62
22
19
37
44
16
31
21

>  <PUBCHEM_MMFF94_PARTIAL_CHARGES>  (1) 
18
1 -0.36
10 0.08
12 0.08
13 -0.15
14 -0.15
15 -0.15
16 0.78
17 0.3
2 -0.36
26 0.15
27 0.15
28 0.15
29 0.37
3 -0.23
4 -0.57
5 -0.73
6 0.56
9 0.08

>  <PUBCHEM_EFFECTIVE_ROTOR_COUNT>  (1) 
4.6

>  <PUBCHEM_PHARMACOPHORE_FEATURES>  (1) 
7
1 1 acceptor
1 11 hydrophobe
1 2 acceptor
1 4 acceptor
1 5 donor
5 1 2 6 9 10 rings
6 9 10 12 13 14 15 rings

>  <PUBCHEM_HEAVY_ATOM_COUNT>  (1) 
17

>  <PUBCHEM_ATOM_DEF_STEREO_COUNT>  (1) 
0

>  <PUBCHEM_ATOM_UDEF_STEREO_COUNT>  (1) 
1

>  <PUBCHEM_BOND_DEF_STEREO_COUNT>  (1) 
0

>  <PUBCHEM_BOND_UDEF_STEREO_COUNT>  (1) 
0

>  <PUBCHEM_ISOTOPIC_ATOM_COUNT>  (1) 
0

>  <PUBCHEM_COMPONENT_COUNT>  (1) 
1

>  <PUBCHEM_CACTVS_TAUTO_COUNT>  (1) 
2

>  <PUBCHEM_CONFORMER_ID>  (1) 
00007B1A00000001

>  <PUBCHEM_MMFF94_ENERGY>  (1) 
41.0977

>  <PUBCHEM_FEATURE_SELFOVERLAP>  (1) 
35.675

>  <PUBCHEM_SHAPE_FINGERPRINT>  (1) 
11578080 2 17701802483561137729
12553582 1 18337960111598188674
14817 1 9347469220141185397
15279308 51 18199467843134545391
15669948 3 18263074414929287002
16945 1 18261392196324870465
18927931 339 18410006607947006586
19141452 34 18131069346548150791
20361792 2 18338233889692590702
20524608 308 18195802973316115844
20645476 183 17387412337613746089
20645477 70 17686607357725402595
20871998 184 18341334392292289700
20871998 22 18263931114443681233
21061003 4 17489587840391129552
21296965 67 18335987557409066889
21731516 1 18339929336696383558
22889148 1 17827042196350391773
23114952 82 17608632140234348405
23402539 116 18269261370858773173
23419403 2 15981116246786975391
23557571 272 18340772546762966596
23559900 14 18195518200585237522
23598288 3 18261689081306362828
23598291 2 17983875641830932583
23728640 28 18122047711707972202
2748010 2 18190448544994322465
559249 180 17757546362070089674
6992083 37 18130237046400067667
7364860 26 17907864251008280929
81228 2 18335124376457558273
84936 182 8861292348175742619
9709674 26 18124596384457257958

>  <PUBCHEM_SHAPE_MULTIPOLES>  (1) 
321.39
5.61
2.96
1.25
7.34
1.57
-0.16
-4.42
0.45
-1.15
-0.71
-0.7
-0.71
0.24

>  <PUBCHEM_SHAPE_SELFOVERLAP>  (1) 
682.959

>  <PUBCHEM_SHAPE_VOLUME>  (1) 
179.1

>  <PUBCHEM_COORDINATE_TYPE>  (1) 
2
5
10

$$$$
