31516
     RDKit          3D

 19 20  0  0  1  0  0  0  0  0999 V2000
    0.5583    0.4868   -0.8192 O   0  0  0  0  0  0  0  0  0  0  0  0
    2.2553   -1.0090    0.0139 O   0  0  0  0  0  0  0  0  0  0  0  0
   -2.2422   -0.2158   -0.9039 O   0  0  0  0  0  0  0  0  0  0  0  0
   -2.4994    0.6280    1.2472 O   0  0  0  0  0  0  0  0  0  0  0  0
   -3.7714    1.4545   -0.5081 N   0  0  0  0  0  0  0  0  0  0  0  0
    2.4253    1.3625    0.4377 C   0  0  0  0  0  0  0  0  0  0  0  0
    1.9697    0.2931   -0.5543 C   0  0  0  0  0  0  0  0  0  0  0  0
    2.1642    2.7597   -0.1492 C   0  0  0  0  0  0  0  0  0  0  0  0
    1.6469    1.2134    1.7555 C   0  0  0  0  0  0  0  0  0  0  0  0
    3.9290    1.2040    0.7174 C   0  0  0  0  0  0  0  0  0  0  0  0
    2.7301    0.4207   -1.8736 C   0  0  0  0  0  0  0  0  0  0  0  0
    0.0407   -0.7025   -0.4034 C   0  0  0  0  0  0  0  0  0  0  0  0
    1.0094   -1.5563    0.0719 C   0  0  0  0  0  0  0  0  0  0  0  0
   -1.2913   -1.0600   -0.4337 C   0  0  0  0  0  0  0  0  0  0  0  0
    0.6998   -2.8152    0.5434 C   0  0  0  0  0  0  0  0  0  0  0  0
   -1.6320   -2.3298    0.0382 C   0  0  0  0  0  0  0  0  0  0  0  0
   -0.6423   -3.2025    0.5236 C   0  0  0  0  0  0  0  0  0  0  0  0
   -2.8186    0.6355    0.0620 C   0  0  0  0  0  0  0  0  0  0  0  0
   -4.5314    2.4327    0.2347 C   0  0  0  0  0  0  0  0  0  0  0  0
  1  7  1  0
  1 12  1  0
  2  7  1  0
  2 13  1  0
  3 14  1  0
  3 18  1  0
  4 18  2  0
  5 18  1  0
  5 19  1  0
  6  7  1  0
  6  8  1  0
  6  9  1  0
  6 10  1  0
  7 11  1  0
 12 13  2  0
 12 14  1  0
 13 15  1  0
 14 16  2  0
 15 17  2  0
 16 17  1  0
M  END
>  <PUBCHEM_COMPOUND_CID>  (1) 
31516

>  <PUBCHEM_CONFORMER_RMSD>  (1) 
0.6

>  <PUBCHEM_CONFORMER_DIVERSEORDER>  (1) 
2
34
20
17
35
31
14
30
12
16
37
5
36
19
32
23
33
18
8
11
9
26
1
13
21
25
15
28
29
10
6
22
27
4
24
3
7

>  <PUBCHEM_MMFF94_PARTIAL_CHARGES>  (1) 
18
1 -0.36
12 0.08
13 0.08
14 0.08
15 -0.15
16 -0.15
17 -0.15
18 0.78
19 0.3
2 -0.36
3 -0.23
32 0.15
33 0.15
34 0.15
35 0.37
4 -0.57
5 -0.73
7 0.56

>  <PUBCHEM_EFFECTIVE_ROTOR_COUNT>  (1) 
4.6

>  <PUBCHEM_PHARMACOPHORE_FEATURES>  (1) 
7
1 1 acceptor
1 2 acceptor
1 4 acceptor
1 5 donor
4 6 8 9 10 hydrophobe
5 1 2 7 12 13 rings
6 12 13 14 15 16 17 rings

>  <PUBCHEM_HEAVY_ATOM_COUNT>  (1) 
19

>  <PUBCHEM_ATOM_DEF_STEREO_COUNT>  (1) 
0

>  <PUBCHEM_ATOM_UDEF_STEREO_COUNT>  (1) 
1

>  <PUBCHEM_BOND_DEF_STEREO_COUNT>  (1) 
0

>  <PUBCHEM_BOND_UDEF_STEREO_COUNT>  (1) 
0

>  <PUBCHEM_ISOTOPIC_ATOM_COUNT>  (1) 
0

>  <PUBCHEM_COMPONENT_COUNT>  (1) 
1

>  <PUBCHEM_CACTVS_TAUTO_COUNT>  (1) 
2

>  <PUBCHEM_CONFORMER_ID>  (1) 
00007B1C00000002

>  <PUBCHEM_MMFF94_ENERGY>  (1) 
59.0644

>  <PUBCHEM_FEATURE_SELFOVERLAP>  (1) 
35.674

>  <PUBCHEM_SHAPE_FINGERPRINT>  (1) 
10165383 225 18119278158002793709
10382601 240 17969214551796000240
11221954 11 17915172648895039480
11725454 13 17344599712986682256
12403260 363 18266442386063742046
12491281 212 18043531827165828408
12788726 201 17829617510444190967
13132413 78 17765426557030617754
13134695 92 17688291401316049079
13140716 1 18334571300491480131
13294875 104 18270670974771986450
13464514 151 18272654536940760156
13764800 53 18193562396104392667
13965767 371 18040984142454790652
14178342 30 18262512714278832538
146900 427 18200322018442598337
14955137 171 18049726209120578363
15775835 57 18342454816274234813
16945 1 18411708672930861006
17134986 127 18410014321032829149
18186145 218 18202014208948504961
18219364 16 18340780307367859921
18981168 100 18340214092922632867
19049666 15 18200042883626951462
19765921 60 18273206491915034433
20291156 8 8574710217500478497
20510252 161 17905325487170345074
21041028 32 17400636030796020295
21524375 3 18342735226172792343
21639500 275 18192699052317763853
21731228 192 18334855038973627211
22854114 111 18339360752115245265
23402539 116 17909816979242996182
23419403 2 16380925995197419794
23557571 272 17545610414458153422
23558518 356 18334574693626679899
25 1 18342461404484833775
2748010 2 18198635508484857566
305870 269 18408595950874762026
350125 39 18336273426180045355
474 4 18410567367124195949
49207404 50 18188507795718457713
495365 180 18117833301372171349
5895379 119 16125562143271579553
6049 1 17842302516122355006
6333272 397 18409444825913154473
6442390 28 18337688498172410059
6992083 37 17750784635656306140
7226269 152 18131349705239638016
7364860 26 18196649584216056439
7808743 9 18191595356986510516
81228 2 17903365040943001283
84936 182 18198615549956494929

>  <PUBCHEM_SHAPE_MULTIPOLES>  (1) 
362.55
6.12
3.39
1.22
3.57
1.37
-0.03
-6.05
0.13
1.52
0.7
-0.72
-0.28
0.14

>  <PUBCHEM_SHAPE_SELFOVERLAP>  (1) 
771.538

>  <PUBCHEM_SHAPE_VOLUME>  (1) 
202.5

>  <PUBCHEM_COORDINATE_TYPE>  (1) 
2
5
10

$$$$
