31520
     RDKit          3D

 18 19  0  0  0  0  0  0  0  0999 V2000
   -0.9503   -1.1688    0.5068 O   0  0  0  0  0  0  0  0  0  0  0  0
   -3.1561   -0.8922   -0.4249 O   0  0  0  0  0  0  0  0  0  0  0  0
    0.8253    1.0531    1.0107 O   0  0  0  0  0  0  0  0  0  0  0  0
    1.6664    0.8397   -1.1463 O   0  0  0  0  0  0  0  0  0  0  0  0
    3.0761    0.7104    0.6917 N   0  0  0  0  0  0  0  0  0  0  0  0
   -2.1668   -1.8260    0.0736 C   0  0  0  0  0  0  0  0  0  0  0  0
   -1.2452    0.1366    0.2546 C   0  0  0  0  0  0  0  0  0  0  0  0
   -2.5045    0.2946   -0.2772 C   0  0  0  0  0  0  0  0  0  0  0  0
   -2.7642   -2.5695    1.2674 C   0  0  0  0  0  0  0  0  0  0  0  0
   -1.8144   -2.8006   -1.0496 C   0  0  0  0  0  0  0  0  0  0  0  0
   -0.4144    1.2133    0.4863 C   0  0  0  0  0  0  0  0  0  0  0  0
   -3.0030    1.5379   -0.6069 C   0  0  0  0  0  0  0  0  0  0  0  0
   -0.8949    2.4840    0.1610 C   0  0  0  0  0  0  0  0  0  0  0  0
   -2.1818    2.6454   -0.3823 C   0  0  0  0  0  0  0  0  0  0  0  0
    1.8559    0.8636    0.0662 C   0  0  0  0  0  0  0  0  0  0  0  0
    4.3163    0.4998   -0.0181 C   0  0  0  0  0  0  0  0  0  0  0  0
    4.5712   -0.9259   -0.2220 C   0  0  0  0  0  0  0  0  0  0  0  0
    4.7843   -2.0953   -0.3911 C   0  0  0  0  0  0  0  0  0  0  0  0
  1  6  1  0
  1  7  1  0
  2  6  1  0
  2  8  1  0
  3 11  1  0
  3 15  1  0
  4 15  2  0
  5 15  1  0
  5 16  1  0
  6  9  1  0
  6 10  1  0
  7  8  2  0
  7 11  1  0
  8 12  1  0
 11 13  2  0
 12 14  2  0
 13 14  1  0
 16 17  1  0
 17 18  3  0
M  END
>  <PUBCHEM_COMPOUND_CID>  (1) 
31520

>  <PUBCHEM_CONFORMER_RMSD>  (1) 
0.6

>  <PUBCHEM_CONFORMER_DIVERSEORDER>  (1) 
1
51
55
106
101
111
100
70
105
117
10
86
57
87
84
116
69
85
22
120
91
81
30
24
56
23
82
112
42
118
119
93
52
43
95
29
68
109
12
76
21
102
46
107
45
27
37
72
114
71
11
58
75
38
88
115
99
44
28
64
90
53
94
41
54
113
92
9
7
89
25
78
26
77
39
8
40
48
108
6
83
80
47
110
17
63
67
66
49
18
104
4
5
50
79
103
31
2
65
60
3
74
32
96
36
61
97
98
62
20
33
35
34
14
19
13
59
16
15
73

>  <PUBCHEM_MMFF94_PARTIAL_CHARGES>  (1) 
21
1 -0.36
11 0.08
12 -0.15
13 -0.15
14 -0.15
15 0.78
16 0.5
17 -0.2
18 -0.18
2 -0.36
25 0.15
26 0.15
27 0.15
28 0.37
3 -0.23
31 0.18
4 -0.57
5 -0.73
6 0.56
7 0.08
8 0.08

>  <PUBCHEM_EFFECTIVE_ROTOR_COUNT>  (1) 
4.6

>  <PUBCHEM_PHARMACOPHORE_FEATURES>  (1) 
8
1 1 acceptor
1 18 hydrophobe
1 2 acceptor
1 4 acceptor
1 5 donor
3 6 9 10 hydrophobe
5 1 2 6 7 8 rings
6 7 8 11 12 13 14 rings

>  <PUBCHEM_HEAVY_ATOM_COUNT>  (1) 
18

>  <PUBCHEM_ATOM_DEF_STEREO_COUNT>  (1) 
0

>  <PUBCHEM_ATOM_UDEF_STEREO_COUNT>  (1) 
0

>  <PUBCHEM_BOND_DEF_STEREO_COUNT>  (1) 
0

>  <PUBCHEM_BOND_UDEF_STEREO_COUNT>  (1) 
0

>  <PUBCHEM_ISOTOPIC_ATOM_COUNT>  (1) 
0

>  <PUBCHEM_COMPONENT_COUNT>  (1) 
1

>  <PUBCHEM_CACTVS_TAUTO_COUNT>  (1) 
2

>  <PUBCHEM_CONFORMER_ID>  (1) 
00007B2000000001

>  <PUBCHEM_MMFF94_ENERGY>  (1) 
41.5492

>  <PUBCHEM_FEATURE_SELFOVERLAP>  (1) 
40.749

>  <PUBCHEM_SHAPE_FINGERPRINT>  (1) 
10616163 171 18410857642557552414
10693767 8 17985801939412675487
107951 10 17895762772861945139
12500047 106 18338510816689455028
12553582 1 17977950416418287870
12555020 224 18195238919529635198
13583140 156 17988911302503024680
14115302 16 18333733519880925933
15042514 8 18335428971733274969
15163728 17 16664284375317870341
16945 1 18262783190567023673
17492 89 18334862757557658010
17870717 6 18270694047795152214
19141452 34 18059016223792821583
20645476 183 17676763185171086057
20871998 22 17905046207396507529
21665056 4 18265053531047358123
221490 88 18411704318303352432
23402539 116 18342448202214899717
23419403 2 14474101441970862911
23557571 272 18265599043613575296
23559900 14 18342167857241706288
2748010 2 17759784228914563497
4921388 177 17458356246774233498
559249 180 18119241771414538274
574716 61 17386875905321037846
58051976 100 18334580109848705628
633830 44 16588600721012735060
81228 2 18264197170925870041
8809292 202 18413106134861148456
9709674 26 18412543206735770598

>  <PUBCHEM_SHAPE_MULTIPOLES>  (1) 
341.97
7.9
3.26
0.96
12.79
1.08
-0.03
3.14
0.85
-2.61
0.13
-0.27
0.29
0.78

>  <PUBCHEM_SHAPE_SELFOVERLAP>  (1) 
725.779

>  <PUBCHEM_SHAPE_VOLUME>  (1) 
190.3

>  <PUBCHEM_COORDINATE_TYPE>  (1) 
2
5
10

$$$$
