31522
     RDKit          3D

 17 18  0  0  0  0  0  0  0  0999 V2000
   -0.9303   -1.2051    0.3174 O   0  0  0  0  0  0  0  0  0  0  0  0
   -3.0522   -0.2285   -0.2779 O   0  0  0  0  0  0  0  0  0  0  0  0
    1.4481    0.3723    0.7626 O   0  0  0  0  0  0  0  0  0  0  0  0
    1.9517    0.2038   -1.4894 O   0  0  0  0  0  0  0  0  0  0  0  0
    3.5079   -0.5497    0.0663 N   0  0  0  0  0  0  0  0  0  0  0  0
   -2.3228   -1.4493   -0.0005 C   0  0  0  0  0  0  0  0  0  0  0  0
   -0.8661    0.1518    0.2202 C   0  0  0  0  0  0  0  0  0  0  0  0
   -2.0774    0.7094   -0.1196 C   0  0  0  0  0  0  0  0  0  0  0  0
   -2.3849   -2.3404   -1.2404 C   0  0  0  0  0  0  0  0  0  0  0  0
   -2.9762   -2.1403    1.1957 C   0  0  0  0  0  0  0  0  0  0  0  0
    0.2569    0.9257    0.4276 C   0  0  0  0  0  0  0  0  0  0  0  0
   -2.2331    2.0717   -0.2708 C   0  0  0  0  0  0  0  0  0  0  0  0
    0.1266    2.3087    0.2807 C   0  0  0  0  0  0  0  0  0  0  0  0
   -1.1112    2.8784   -0.0665 C   0  0  0  0  0  0  0  0  0  0  0  0
    2.2889    0.0178   -0.3207 C   0  0  0  0  0  0  0  0  0  0  0  0
    4.4746   -0.9638   -0.9406 C   0  0  0  0  0  0  0  0  0  0  0  0
    3.8996   -0.7626    1.4559 C   0  0  0  0  0  0  0  0  0  0  0  0
  1  6  1  0
  1  7  1  0
  2  6  1  0
  2  8  1  0
  3 11  1  0
  3 15  1  0
  4 15  2  0
  5 15  1  0
  5 16  1  0
  5 17  1  0
  6  9  1  0
  6 10  1  0
  7  8  2  0
  7 11  1  0
  8 12  1  0
 11 13  2  0
 12 14  2  0
 13 14  1  0
M  END
>  <PUBCHEM_COMPOUND_CID>  (1) 
31522

>  <PUBCHEM_CONFORMER_RMSD>  (1) 
0.6

>  <PUBCHEM_CONFORMER_DIVERSEORDER>  (1) 
2
6
18
20
4
21
11
19
3
15
14
12
5
13
16
9
1
17
10
8
7

>  <PUBCHEM_MMFF94_PARTIAL_CHARGES>  (1) 
18
1 -0.36
11 0.08
12 -0.15
13 -0.15
14 -0.15
15 0.78
16 0.3
17 0.3
2 -0.36
24 0.15
25 0.15
26 0.15
3 -0.23
4 -0.57
5 -0.66
6 0.56
7 0.08
8 0.08

>  <PUBCHEM_EFFECTIVE_ROTOR_COUNT>  (1) 
3.6

>  <PUBCHEM_PHARMACOPHORE_FEATURES>  (1) 
6
1 1 acceptor
1 2 acceptor
1 4 acceptor
3 6 9 10 hydrophobe
5 1 2 6 7 8 rings
6 7 8 11 12 13 14 rings

>  <PUBCHEM_HEAVY_ATOM_COUNT>  (1) 
17

>  <PUBCHEM_ATOM_DEF_STEREO_COUNT>  (1) 
0

>  <PUBCHEM_ATOM_UDEF_STEREO_COUNT>  (1) 
0

>  <PUBCHEM_BOND_DEF_STEREO_COUNT>  (1) 
0

>  <PUBCHEM_BOND_UDEF_STEREO_COUNT>  (1) 
0

>  <PUBCHEM_ISOTOPIC_ATOM_COUNT>  (1) 
0

>  <PUBCHEM_COMPONENT_COUNT>  (1) 
1

>  <PUBCHEM_CACTVS_TAUTO_COUNT>  (1) 
1

>  <PUBCHEM_CONFORMER_ID>  (1) 
00007B2200000002

>  <PUBCHEM_MMFF94_ENERGY>  (1) 
47.7806

>  <PUBCHEM_FEATURE_SELFOVERLAP>  (1) 
30.6

>  <PUBCHEM_SHAPE_FINGERPRINT>  (1) 
10616163 171 18338520733837734110
12363563 72 18339358694441068023
12500047 106 18124029032067035892
12553582 1 18267307710336845990
13083527 12 17624665218647905680
13140716 1 18411138069282603465
13296908 3 17988641883235425298
13931106 250 18128795539026603335
14115302 16 18187083940444269181
15042514 8 18336270033466630889
15669948 3 18335983065200290152
16752209 62 18263348214630809913
16945 1 18338517443644638113
19141452 34 17917432064223635215
20361792 2 18268149936322460447
20524608 308 18269272361537405140
20645476 183 17677333797256531553
20645477 70 17689421012344466175
20871998 184 18343304742872616439
20871998 22 18194404626501304769
21061003 4 17203894058849603392
21296965 67 18338520858138000067
21452121 199 18193829568755611432
21731516 1 18268435813608981591
23114952 82 17610599183969561973
23184049 29 18337946887314548864
232386 152 18408885148466252566
2334 1 18194117653898000265
23402539 116 18270386188571033277
23419403 2 14328283114625795231
23557571 272 18272091569929198160
23559900 14 18199183993716198622
23728640 28 18265043635538011435
257057 1 18197483241768354085
2748010 2 18193825162546505049
559249 180 17974848372558436506
7364860 26 17765717206099989097
7615 1 17748828488896836916
77492 1 17604149216790445920
81228 2 18339930324544415881
84936 182 8283995975735952895
9709674 26 18199468762479515254

>  <PUBCHEM_SHAPE_MULTIPOLES>  (1) 
321.39
6.52
2.79
1.14
7.55
0.96
0
-3.91
-0.11
-2.79
-0.07
0.51
-0.53
0.16

>  <PUBCHEM_SHAPE_SELFOVERLAP>  (1) 
681.756

>  <PUBCHEM_SHAPE_VOLUME>  (1) 
181.6

>  <PUBCHEM_COORDINATE_TYPE>  (1) 
2
5
10

$$$$
