31529
     RDKit          3D

 10  9  0  0  0  0  0  0  0  0999 V2000
    2.0043   -0.0017    0.0089 C   0  0  0  0  0  0  0  0  0  0  0  0
   -2.0043    0.0020   -0.0090 C   0  0  0  0  0  0  0  0  0  0  0  0
    0.5339   -0.2661    0.3090 C   0  0  0  0  0  0  0  0  0  0  0  0
   -0.5341    0.2669   -0.3090 C   0  0  0  0  0  0  0  0  0  0  0  0
    2.6616   -1.3376   -0.3821 C   0  0  0  0  0  0  0  0  0  0  0  0
    2.0836    0.9661   -1.1855 C   0  0  0  0  0  0  0  0  0  0  0  0
    2.7960    0.6059    1.1816 C   0  0  0  0  0  0  0  0  0  0  0  0
   -2.8014   -0.5835   -1.1893 C   0  0  0  0  0  0  0  0  0  0  0  0
   -2.0831   -0.9852    1.1695 C   0  0  0  0  0  0  0  0  0  0  0  0
   -2.6567    1.3332    0.4059 C   0  0  0  0  0  0  0  0  0  0  0  0
  1  3  1  0
  1  5  1  0
  1  6  1  0
  1  7  1  0
  2  4  1  0
  2  8  1  0
  2  9  1  0
  2 10  1  0
  3  4  2  0
M  END
>  <PUBCHEM_COMPOUND_CID>  (1) 
31529

>  <PUBCHEM_CONFORMER_RMSD>  (1) 
0.4

>  <PUBCHEM_CONFORMER_DIVERSEORDER>  (1) 
1
2

>  <PUBCHEM_MMFF94_PARTIAL_CHARGES>  (1) 
6
1 0.14
11 0.15
12 0.15
2 0.14
3 -0.29
4 -0.29

>  <PUBCHEM_EFFECTIVE_ROTOR_COUNT>  (1) 
2

>  <PUBCHEM_PHARMACOPHORE_FEATURES>  (1) 
2
4 1 5 6 7 hydrophobe
4 2 8 9 10 hydrophobe

>  <PUBCHEM_HEAVY_ATOM_COUNT>  (1) 
10

>  <PUBCHEM_ATOM_DEF_STEREO_COUNT>  (1) 
0

>  <PUBCHEM_ATOM_UDEF_STEREO_COUNT>  (1) 
0

>  <PUBCHEM_BOND_DEF_STEREO_COUNT>  (1) 
0

>  <PUBCHEM_BOND_UDEF_STEREO_COUNT>  (1) 
1

>  <PUBCHEM_ISOTOPIC_ATOM_COUNT>  (1) 
0

>  <PUBCHEM_COMPONENT_COUNT>  (1) 
1

>  <PUBCHEM_CACTVS_TAUTO_COUNT>  (1) 
1

>  <PUBCHEM_CONFORMER_ID>  (1) 
00007B2900000001

>  <PUBCHEM_MMFF94_ENERGY>  (1) 
25.8079

>  <PUBCHEM_FEATURE_SELFOVERLAP>  (1) 
10.149

>  <PUBCHEM_SHAPE_FINGERPRINT>  (1) 
12897270 3 17458346350858145398
12932741 1 17530969102457403519
12932764 1 17846508040312848391
14325111 11 17917987274075828486
14390081 3 18202842149630702761
15310529 11 17561072627161623181
15775835 57 17846780710617203751
170605 34 16701731782865278672
19973954 147 18187093870234570988
20653085 51 17131281142926069129
21524375 3 17766852632608479793
23235687 12 17603588547005599276
23552423 10 18333736784008363950
3248919 1 18260547839749821926
369184 2 17775565334217977563
5084963 1 18408604734182920654
74978 22 17530684303181163458
8030462 33 18413674616537021469

>  <PUBCHEM_SHAPE_MULTIPOLES>  (1) 
205.8
5.33
1.25
1.22
0
0.01
-0.01
0
0
0
0.01
0
-0.01
0

>  <PUBCHEM_SHAPE_SELFOVERLAP>  (1) 
382.158

>  <PUBCHEM_SHAPE_VOLUME>  (1) 
133.6

>  <PUBCHEM_COORDINATE_TYPE>  (1) 
2
5
10

$$$$
