31537
     RDKit          3D

 18 19  0  0  1  0  0  0  0  0999 V2000
    1.1479    2.6362    1.0517 O   0  0  0  0  0  0  0  0  0  0  0  0
    3.0409   -0.4305    0.2088 N   0  0  0  0  0  0  0  0  0  0  0  0
    1.2888    1.2619    0.6826 C   0  0  0  0  0  0  0  0  0  0  0  0
    0.5202    1.0399   -0.6350 C   0  0  0  0  0  0  0  0  0  0  0  0
    2.7872    0.9597    0.5625 C   0  0  0  0  0  0  0  0  0  0  0  0
   -0.9606    0.9511   -0.4311 C   0  0  0  0  0  0  0  0  0  0  0  0
    4.4712   -0.6980    0.1423 C   0  0  0  0  0  0  0  0  0  0  0  0
   -1.6066   -0.2713   -0.1847 C   0  0  0  0  0  0  0  0  0  0  0  0
   -3.0099   -0.2880   -0.0013 C   0  0  0  0  0  0  0  0  0  0  0  0
   -1.6876    2.1401   -0.4957 C   0  0  0  0  0  0  0  0  0  0  0  0
    5.1291    0.1990   -0.9024 C   0  0  0  0  0  0  0  0  0  0  0  0
    4.6975   -2.1717   -0.1802 C   0  0  0  0  0  0  0  0  0  0  0  0
   -0.8908   -1.4775   -0.1163 C   0  0  0  0  0  0  0  0  0  0  0  0
   -3.7257    0.9183   -0.0698 C   0  0  0  0  0  0  0  0  0  0  0  0
   -3.0676    2.1236   -0.3155 C   0  0  0  0  0  0  0  0  0  0  0  0
   -3.6560   -1.5105    0.2449 C   0  0  0  0  0  0  0  0  0  0  0  0
   -1.5490   -2.6829    0.1294 C   0  0  0  0  0  0  0  0  0  0  0  0
   -2.9288   -2.6994    0.3097 C   0  0  0  0  0  0  0  0  0  0  0  0
  1  3  1  0
  2  5  1  0
  2  7  1  0
  3  4  1  0
  3  5  1  0
  4  6  1  0
  6  8  2  0
  6 10  1  0
  7 11  1  0
  7 12  1  0
  8  9  1  0
  8 13  1  0
  9 14  2  0
  9 16  1  0
 10 15  2  0
 13 17  2  0
 14 15  1  0
 16 18  2  0
 17 18  1  0
M  END
>  <PUBCHEM_COMPOUND_CID>  (1) 
31537

>  <PUBCHEM_CONFORMER_RMSD>  (1) 
0.6

>  <PUBCHEM_CONFORMER_DIVERSEORDER>  (1) 
1
63
52
27
15
59
94
54
25
95
74
71
85
53
38
56
84
45
10
79
90
51
29
78
24
57
76
66
86
81
69
32
83
23
88
40
2
37
93
67
82
77
92
18
64
13
72
47
61
22
80
73
6
43
41
20
30
65
44
33
28
39
55
21
91
17
46
42
89
4
49
14
19
34
75
35
31
68
16
87
5
60
8
12
48
70
58
11
7
3
9
26
50
62
36

>  <PUBCHEM_MMFF94_PARTIAL_CHARGES>  (1) 
23
1 -0.68
10 -0.15
13 -0.15
14 -0.15
15 -0.15
16 -0.15
17 -0.15
18 -0.15
2 -0.9
25 0.36
26 0.15
3 0.28
33 0.15
34 0.15
35 0.4
36 0.15
37 0.15
38 0.15
39 0.15
4 0.14
5 0.27
6 -0.14
7 0.27

>  <PUBCHEM_EFFECTIVE_ROTOR_COUNT>  (1) 
5

>  <PUBCHEM_PHARMACOPHORE_FEATURES>  (1) 
7
1 1 acceptor
1 1 donor
1 2 cation
1 2 donor
3 7 11 12 hydrophobe
6 6 8 9 10 14 15 rings
6 8 9 13 16 17 18 rings

>  <PUBCHEM_HEAVY_ATOM_COUNT>  (1) 
18

>  <PUBCHEM_ATOM_DEF_STEREO_COUNT>  (1) 
0

>  <PUBCHEM_ATOM_UDEF_STEREO_COUNT>  (1) 
1

>  <PUBCHEM_BOND_DEF_STEREO_COUNT>  (1) 
0

>  <PUBCHEM_BOND_UDEF_STEREO_COUNT>  (1) 
0

>  <PUBCHEM_ISOTOPIC_ATOM_COUNT>  (1) 
0

>  <PUBCHEM_COMPONENT_COUNT>  (1) 
1

>  <PUBCHEM_CACTVS_TAUTO_COUNT>  (1) 
1

>  <PUBCHEM_CONFORMER_ID>  (1) 
00007B3100000001

>  <PUBCHEM_MMFF94_ENERGY>  (1) 
39.501

>  <PUBCHEM_FEATURE_SELFOVERLAP>  (1) 
35.547

>  <PUBCHEM_SHAPE_FINGERPRINT>  (1) 
10616163 171 18409169930715967910
10693767 8 17912621778447065487
1100329 8 16541588613958381728
11458722 379 18335983060710475402
12011746 2 18336256856654581861
12555020 224 18337379449246761183
12633257 1 18059593411330220769
13140716 1 18339088202254376425
14115302 16 18336271137436944692
14251757 5 18410302401990831908
14790565 3 17907303152107039113
14866123 147 17552365375764754170
15042514 8 18334863848716318819
15196674 1 18409730638796544478
15295992 7 17489866059767130777
15415430 112 18408044005091529750
15422964 175 17759799638882694747
16945 1 17904485461067140645
17804303 29 18411702109988652605
17834074 16 18410571812283127768
17859628 97 18191020101761674330
1813 80 17313661663024821676
20281475 54 18335419080233636044
20871999 31 18335141999066439500
21521239 73 18057295432624333399
221490 88 18338519758964209816
23175994 123 17418376891412433376
23402539 116 18342450474710957071
23559900 14 18339354292141956452
238078 22 18340779186750718728
2748010 2 18335712594499465319
3004659 81 18261675862357381182
335352 9 18410572864713756405
350125 39 18409172091390238929
4214541 1 18408886213823928748
4921388 177 16805617987642796666
5104073 3 18413103970477109544
559249 180 18116144464275684986
59755656 215 18336822005889949079
8809292 202 18411980256286600600
9709674 26 18268421498382555760

>  <PUBCHEM_SHAPE_MULTIPOLES>  (1) 
359.58
9.18
3.12
0.81
11.77
0.84
-0.02
3.15
0.85
-1.81
-0.29
0.33
-0.24
0.7

>  <PUBCHEM_SHAPE_SELFOVERLAP>  (1) 
751.842

>  <PUBCHEM_SHAPE_VOLUME>  (1) 
205.4

>  <PUBCHEM_COORDINATE_TYPE>  (1) 
2
5
10

$$$$
