31535
     RDKit          3D

 18 18  0  0  0  0  0  0  0  0999 V2000
   -0.6124   -1.9282    0.7019 S   0  0  0  0  0  0  0  0  0  0  0  0
   -0.6233   -3.3352    0.3506 O   0  0  0  0  0  0  0  0  0  0  0  0
   -0.5968   -1.5178    2.0928 O   0  0  0  0  0  0  0  0  0  0  0  0
   -3.4645    0.4976   -0.5644 O   0  0  0  0  0  0  0  0  0  0  0  0
   -1.9621    0.8489    1.1368 O   0  0  0  0  0  0  0  0  0  0  0  0
    4.0030    2.2547   -0.1440 O   0  0  0  0  0  0  0  0  0  0  0  0
    2.4983    2.2362    1.4543 O   0  0  0  0  0  0  0  0  0  0  0  0
   -1.8908   -1.1324   -0.1057 N   0  0  0  0  0  0  0  0  0  0  0  0
    3.0076    1.7398    0.4206 N   0  0  0  0  0  0  0  0  0  0  0  0
    0.7917   -1.1805   -0.0687 C   0  0  0  0  0  0  0  0  0  0  0  0
    1.3323   -0.0309    0.4809 C   0  0  0  0  0  0  0  0  0  0  0  0
    1.3248   -1.7582   -1.2082 C   0  0  0  0  0  0  0  0  0  0  0  0
    2.4400    0.5593   -0.1276 C   0  0  0  0  0  0  0  0  0  0  0  0
    2.4324   -1.1680   -1.8167 C   0  0  0  0  0  0  0  0  0  0  0  0
    2.9901   -0.0092   -1.2765 C   0  0  0  0  0  0  0  0  0  0  0  0
   -2.4123    0.1529    0.2348 C   0  0  0  0  0  0  0  0  0  0  0  0
   -4.0576    1.7730   -0.2970 C   0  0  0  0  0  0  0  0  0  0  0  0
   -5.2004    1.9980   -1.2640 C   0  0  0  0  0  0  0  0  0  0  0  0
  1  2  2  0
  1  3  2  0
  1  8  1  0
  1 10  1  0
  4 16  1  0
  4 17  1  0
  5 16  2  0
  6  9  1  0
  7  9  2  0
  8 16  1  0
  9 13  1  0
 10 11  2  0
 10 12  1  0
 11 13  1  0
 12 14  2  0
 13 15  2  0
 14 15  1  0
 17 18  1  0
M  CHG  2   6  -1   9   1
M  END
>  <PUBCHEM_COMPOUND_CID>  (1) 
31535

>  <PUBCHEM_CONFORMER_RMSD>  (1) 
0.8

>  <PUBCHEM_CONFORMER_DIVERSEORDER>  (1) 
1
7
12
26
13
28
21
11
5
24
6
22
19
25
3
15
10
4
23
17
8
18
9
2
14
27
20
16

>  <PUBCHEM_MMFF94_PARTIAL_CHARGES>  (1) 
22
1 1.45
10 -0.01
11 -0.15
12 -0.15
13 0.13
14 -0.15
15 -0.15
16 0.96
17 0.28
19 0.15
2 -0.65
20 0.15
21 0.42
22 0.15
23 0.15
3 -0.65
4 -0.43
5 -0.57
6 -0.52
7 -0.52
8 -0.79
9 0.91

>  <PUBCHEM_EFFECTIVE_ROTOR_COUNT>  (1) 
6

>  <PUBCHEM_PHARMACOPHORE_FEATURES>  (1) 
8
1 2 acceptor
1 3 acceptor
1 5 acceptor
1 6 acceptor
1 6 anion
1 7 acceptor
1 8 donor
6 10 11 12 13 14 15 rings

>  <PUBCHEM_HEAVY_ATOM_COUNT>  (1) 
18

>  <PUBCHEM_ATOM_DEF_STEREO_COUNT>  (1) 
0

>  <PUBCHEM_ATOM_UDEF_STEREO_COUNT>  (1) 
0

>  <PUBCHEM_BOND_DEF_STEREO_COUNT>  (1) 
0

>  <PUBCHEM_BOND_UDEF_STEREO_COUNT>  (1) 
0

>  <PUBCHEM_ISOTOPIC_ATOM_COUNT>  (1) 
0

>  <PUBCHEM_COMPONENT_COUNT>  (1) 
1

>  <PUBCHEM_CACTVS_TAUTO_COUNT>  (1) 
2

>  <PUBCHEM_CONFORMER_ID>  (1) 
00007B2F00000001

>  <PUBCHEM_MMFF94_ENERGY>  (1) 
24.3451

>  <PUBCHEM_FEATURE_SELFOVERLAP>  (1) 
40.7

>  <PUBCHEM_SHAPE_FINGERPRINT>  (1) 
10498660 4 18334575703439431661
11221954 11 18265336298883649528
12077114 3 18197497535788728232
12730499 353 18263936458105371971
13134695 92 17684635542086338059
13294875 104 18261952938696847778
14250199 8 18059019371702811909
14614273 12 17770516535695374242
14957384 54 17313110786351291076
17134986 127 18337106761757527895
17868525 174 16017740636096626093
18186145 218 18340499876078472003
192875 21 17987796285410034498
19752476 56 18199181798302738329
21524375 3 18114747023387808115
21639500 275 17489041460432085426
21947302 44 18272937111302725366
23557571 272 17977394059139731434
238 59 17704072931969431364
25 1 18196394548936681030
2748010 2 17985568864184188142
3060560 45 18268424629683078071
4028521 119 18413111666831805797
43658 37 18409161078962034957
5262128 65 17488193582010708965
6049 1 17981357717343576686
633830 44 18129957658972804033
7808743 9 17895492421597213468
81228 2 17902255612272831539
84936 182 18192712233298296265

>  <PUBCHEM_SHAPE_MULTIPOLES>  (1) 
329.1
7.61
2.96
1.51
9.03
0.48
0.03
-7.53
-3.2
-0.8
0.62
-0.38
0.2
1.75

>  <PUBCHEM_SHAPE_SELFOVERLAP>  (1) 
664.516

>  <PUBCHEM_SHAPE_VOLUME>  (1) 
192.4

>  <PUBCHEM_COORDINATE_TYPE>  (1) 
2
5
10

$$$$
