31534
     RDKit          3D

 26 30  0  0  0  0  0  0  0  0999 V2000
   -5.5658    2.0060   -0.0977 O   0  0  0  0  0  0  0  0  0  0  0  0
    1.4596    2.8723   -0.0256 O   0  0  0  0  0  0  0  0  0  0  0  0
    2.5768   -2.3476    0.0292 O   0  0  0  0  0  0  0  0  0  0  0  0
   -3.0562    0.7460    0.0194 N   0  0  0  0  0  0  0  0  0  0  0  0
    0.0376   -2.9753    0.0459 N   0  0  0  0  0  0  0  0  0  0  0  0
   -1.7549    0.2333    0.0194 C   0  0  0  0  0  0  0  0  0  0  0  0
   -3.7075    0.9851   -1.2758 C   0  0  0  0  0  0  0  0  0  0  0  0
   -3.4980    1.6203    1.1115 C   0  0  0  0  0  0  0  0  0  0  0  0
   -1.5033   -1.1445    0.0333 C   0  0  0  0  0  0  0  0  0  0  0  0
    0.6100    0.6797    0.0021 C   0  0  0  0  0  0  0  0  0  0  0  0
    0.8729   -0.6981    0.0164 C   0  0  0  0  0  0  0  0  0  0  0  0
   -0.7054    1.1428    0.0039 C   0  0  0  0  0  0  0  0  0  0  0  0
   -5.2196    1.0396   -1.0895 C   0  0  0  0  0  0  0  0  0  0  0  0
   -5.0214    1.6414    1.1701 C   0  0  0  0  0  0  0  0  0  0  0  0
   -0.1798   -1.6395    0.0323 C   0  0  0  0  0  0  0  0  0  0  0  0
    1.7052    1.6720   -0.0152 C   0  0  0  0  0  0  0  0  0  0  0  0
    2.2918   -1.1562    0.0149 C   0  0  0  0  0  0  0  0  0  0  0  0
    3.1011    1.2032   -0.0213 C   0  0  0  0  0  0  0  0  0  0  0  0
    3.3834   -0.1611   -0.0072 C   0  0  0  0  0  0  0  0  0  0  0  0
   -2.5699   -2.0544    0.0482 C   0  0  0  0  0  0  0  0  0  0  0  0
   -2.3295   -3.4181    0.0615 C   0  0  0  0  0  0  0  0  0  0  0  0
    4.1461    2.1358   -0.0415 C   0  0  0  0  0  0  0  0  0  0  0  0
    4.7161   -0.5944   -0.0132 C   0  0  0  0  0  0  0  0  0  0  0  0
   -1.0150   -3.8243    0.0602 C   0  0  0  0  0  0  0  0  0  0  0  0
    5.4707    1.6996   -0.0477 C   0  0  0  0  0  0  0  0  0  0  0  0
    5.7554    0.3363   -0.0336 C   0  0  0  0  0  0  0  0  0  0  0  0
  1 13  1  0
  1 14  1  0
  2 16  2  0
  3 17  2  0
  4  6  1  0
  4  7  1  0
  4  8  1  0
  5 15  2  0
  5 24  1  0
  6  9  1  0
  6 12  2  0
  7 13  1  0
  8 14  1  0
  9 15  1  0
  9 20  2  0
 10 11  2  0
 10 12  1  0
 10 16  1  0
 11 15  1  0
 11 17  1  0
 16 18  1  0
 17 19  1  0
 18 19  2  0
 18 22  1  0
 19 23  1  0
 20 21  1  0
 21 24  2  0
 22 25  2  0
 23 26  2  0
 25 26  1  0
M  END
>  <PUBCHEM_COMPOUND_CID>  (1) 
31534

>  <PUBCHEM_CONFORMER_RMSD>  (1) 
0.6

>  <PUBCHEM_CONFORMER_DIVERSEORDER>  (1) 
1
2

>  <PUBCHEM_MMFF94_PARTIAL_CHARGES>  (1) 
33
1 -0.56
10 0.09
11 0.09
12 -0.15
13 0.28
14 0.28
15 0.31
16 0.4
17 0.4
18 0.09
19 0.09
2 -0.57
20 -0.15
21 -0.15
22 -0.15
23 -0.15
24 0.16
25 -0.15
26 -0.15
3 -0.57
31 0.15
36 0.15
37 0.15
38 0.15
39 0.15
4 -0.84
40 0.15
41 0.15
42 0.15
5 -0.62
6 0.1
7 0.37
8 0.37

>  <PUBCHEM_EFFECTIVE_ROTOR_COUNT>  (1) 
2.2

>  <PUBCHEM_PHARMACOPHORE_FEATURES>  (1) 
10
1 1 acceptor
1 2 acceptor
1 3 acceptor
1 4 cation
1 5 acceptor
6 1 4 7 8 13 14 rings
6 10 11 16 17 18 19 rings
6 18 19 22 23 25 26 rings
6 5 9 15 20 21 24 rings
6 6 9 10 11 12 15 rings

>  <PUBCHEM_HEAVY_ATOM_COUNT>  (1) 
26

>  <PUBCHEM_ATOM_DEF_STEREO_COUNT>  (1) 
0

>  <PUBCHEM_ATOM_UDEF_STEREO_COUNT>  (1) 
0

>  <PUBCHEM_BOND_DEF_STEREO_COUNT>  (1) 
0

>  <PUBCHEM_BOND_UDEF_STEREO_COUNT>  (1) 
0

>  <PUBCHEM_ISOTOPIC_ATOM_COUNT>  (1) 
0

>  <PUBCHEM_COMPONENT_COUNT>  (1) 
1

>  <PUBCHEM_CACTVS_TAUTO_COUNT>  (1) 
1

>  <PUBCHEM_CONFORMER_ID>  (1) 
00007B2E00000001

>  <PUBCHEM_MMFF94_ENERGY>  (1) 
100.4888

>  <PUBCHEM_FEATURE_SELFOVERLAP>  (1) 
50.83

>  <PUBCHEM_SHAPE_FINGERPRINT>  (1) 
10411042 1 17473826602974157778
10493431 412 18411424990282762609
10616163 171 18267025140639152182
10906281 52 18201453457992231948
10967382 1 18338516322631722122
1100329 8 18411419514326145296
11135609 187 18338505375345744701
12107183 9 18263636291489492610
12236239 1 17846495890162085109
12390115 104 18341066184422077139
12633257 1 18335690625282888162
12643181 29 18410859850719174142
12788726 201 17560526079614972808
13140716 1 18336268946465865363
13583140 156 16660351580812089341
138480 1 17473826126158395715
14790565 3 18267591208227517297
15196674 1 18338236076548148236
1601671 61 18408603656484057756
16728300 4 17028507476291402314
18608769 82 18339361985135051163
19141452 34 18408040736468833076
19591789 44 18122346774427579324
20739085 24 18047494234727939392
20775438 99 16115099646120714831
21033648 144 18338785827556211100
21033650 10 17130173964523811080
21236236 1 18339642343061445207
21267235 1 18049450536892454762
21279426 13 18412832378362603774
21307412 95 17986416433389584686
22182313 1 18269015174580141751
22311459 1 18338517440214437804
23227448 37 18410011073852872327
23558518 356 17972319782933256194
23559900 14 18343304743775105694
23569917 315 18412543180671750183
25147074 1 18337936948491609715
283562 15 18120086445041836531
335352 9 18410575055442463478
34934 24 18408037407990290050
350125 39 18338240491568943283
3680242 22 18262511499472975362
404807 14 14829694192646343326
4214541 1 18337953506048880476
474 4 18341048511116892265
484989 97 18266454503100485503
5104073 3 18336260245557884776
633830 44 18057610871780355541
9709674 26 18342182219348638982

>  <PUBCHEM_SHAPE_MULTIPOLES>  (1) 
507.5
11.38
3.74
0.82
2.49
3.26
0.02
-8.13
0.39
-2.06
-0.22
-0.94
-0.31
-0.18

>  <PUBCHEM_SHAPE_SELFOVERLAP>  (1) 
1152.902

>  <PUBCHEM_SHAPE_VOLUME>  (1) 
262.5

>  <PUBCHEM_COORDINATE_TYPE>  (1) 
2
5
10

$$$$
