31530
     RDKit          3D

 12 12  0  0  0  0  0  0  0  0999 V2000
   -2.6163    0.0797   -1.0719 N   0  0  0  0  0  0  0  0  0  0  0  0
   -2.5910    0.4000    1.1811 N   0  0  0  0  0  0  0  0  0  0  0  0
    0.7661   -0.7195    0.3296 C   0  0  0  0  0  0  0  0  0  0  0  0
   -0.2338   -1.7136   -0.2730 C   0  0  0  0  0  0  0  0  0  0  0  0
    2.1403   -0.7520   -0.3431 C   0  0  0  0  0  0  0  0  0  0  0  0
   -1.6229   -1.6961    0.3580 C   0  0  0  0  0  0  0  0  0  0  0  0
    3.0849    0.2804    0.2770 C   0  0  0  0  0  0  0  0  0  0  0  0
   -2.2833   -0.3712    0.1692 C   0  0  0  0  0  0  0  0  0  0  0  0
    4.4480    0.2729   -0.4145 C   0  0  0  0  0  0  0  0  0  0  0  0
   -3.2698    1.3497   -0.9741 C   0  0  0  0  0  0  0  0  0  0  0  0
   -3.2220    1.5956    0.5414 C   0  0  0  0  0  0  0  0  0  0  0  0
    5.3998    1.2742    0.2203 C   0  0  0  0  0  0  0  0  0  0  0  0
  1  8  1  0
  1 10  1  0
  2  8  2  0
  2 11  1  0
  3  4  1  0
  3  5  1  0
  4  6  1  0
  5  7  1  0
  6  8  1  0
  7  9  1  0
  9 12  1  0
 10 11  1  0
M  END
>  <PUBCHEM_COMPOUND_CID>  (1) 
31530

>  <PUBCHEM_CONFORMER_RMSD>  (1) 
0.6

>  <PUBCHEM_CONFORMER_DIVERSEORDER>  (1) 
2
89
144
47
140
28
68
146
26
135
123
61
22
147
12
45
145
98
32
27
58
149
30
132
41
83
15
63
5
142
129
56
6
1
20
74
130
4
148
105
117
67
109
77
35
64
91
53
25
143
137
13
31
44
97
3
19
72
125
96
8
48
21
136
102
73
43
38
46
51
14
141
124
33
78
131
75
104
9
34
66
18
37
17
54
11
29
115
24
107
42
71
112
82
133
62
134
55
80
120
70
110
16
36
121
106
127
7
10
93
114
40
49
76
50
39
100
108
57
122
118
88
84
116
128
113
85
65
119
94
90
60
79
101
95
52
126
59
99
139
87
23
103
138
81
86
69
92
111

>  <PUBCHEM_MMFF94_PARTIAL_CHARGES>  (1) 
7
1 -0.82
10 0.37
11 0.25
2 -0.7
27 0.4
6 0.06
8 0.44

>  <PUBCHEM_EFFECTIVE_ROTOR_COUNT>  (1) 
6.6

>  <PUBCHEM_PHARMACOPHORE_FEATURES>  (1) 
6
1 1 donor
1 12 hydrophobe
3 1 2 8 cation
3 3 4 6 hydrophobe
3 5 7 9 hydrophobe
5 1 2 8 10 11 rings

>  <PUBCHEM_HEAVY_ATOM_COUNT>  (1) 
12

>  <PUBCHEM_ATOM_DEF_STEREO_COUNT>  (1) 
0

>  <PUBCHEM_ATOM_UDEF_STEREO_COUNT>  (1) 
0

>  <PUBCHEM_BOND_DEF_STEREO_COUNT>  (1) 
0

>  <PUBCHEM_BOND_UDEF_STEREO_COUNT>  (1) 
0

>  <PUBCHEM_ISOTOPIC_ATOM_COUNT>  (1) 
0

>  <PUBCHEM_COMPONENT_COUNT>  (1) 
1

>  <PUBCHEM_CACTVS_TAUTO_COUNT>  (1) 
1

>  <PUBCHEM_CONFORMER_ID>  (1) 
00007B2A00000002

>  <PUBCHEM_MMFF94_ENERGY>  (1) 
12.9304

>  <PUBCHEM_FEATURE_SELFOVERLAP>  (1) 
30.458

>  <PUBCHEM_SHAPE_FINGERPRINT>  (1) 
10014705 185 18335979843858806220
11046707 91 8862944974476289796
11127187 94 13110954302318561685
11543360 7 15195561329927878312
14123255 352 18408320008375130284
14123260 362 18413113865854924772
14251710 61 9943803404714522468
15501527 16 18410578405211089896
15775835 57 18334856082682140107
1741750 31 18410857659441951122
17834072 32 18408886213449876060
17834072 8 18341901753958014966
18186145 218 18342187630875355078
20112054 13 17968097490747171358
20281475 54 8574418846708075762
20300324 65 17703785937922698621
20645477 56 18341057401419892978
20645477 70 17274558563703859254
20671657 53 12535621687368106650
20828058 44 7853586703398428958
20871999 31 15697994124627931453
21499 59 18342454803188983423
22926399 37 18272083851878131537
23402539 116 18265610060463282079
23402655 69 17418098680979963616
23403322 49 10231754478773924525
23500284 214 18409174289753903851
23557571 272 18129951194414157311
270888 7 18339079264001068353
27216 239 18186526505413400641
4028521 119 18343861100088460256
548570 60 18411416220154930740
6430166 295 18408602561478056034

>  <PUBCHEM_SHAPE_MULTIPOLES>  (1) 
236.99
9.52
1.76
0.94
12.33
0.15
0.03
-5.96
0.19
-0.94
-0.02
-0.67
-0.16
0.29

>  <PUBCHEM_SHAPE_SELFOVERLAP>  (1) 
448.386

>  <PUBCHEM_SHAPE_VOLUME>  (1) 
144

>  <PUBCHEM_COORDINATE_TYPE>  (1) 
2
5
10

$$$$
