31532
     RDKit          3D

 15 17  0  0  0  0  0  0  0  0999 V2000
    4.5862   -0.9193    0.0000 O   0  0  0  0  0  0  0  0  0  0  0  0
   -0.4209    1.4236    0.0000 N   0  0  0  0  0  0  0  0  0  0  0  0
    0.9333   -0.5651   -0.0001 C   0  0  0  0  0  0  0  0  0  0  0  0
   -1.4903   -0.7316    0.0000 C   0  0  0  0  0  0  0  0  0  0  0  0
    0.7895    0.8327   -0.0001 C   0  0  0  0  0  0  0  0  0  0  0  0
   -1.5392    0.6725    0.0000 C   0  0  0  0  0  0  0  0  0  0  0  0
   -0.2309   -1.3399    0.0000 C   0  0  0  0  0  0  0  0  0  0  0  0
    2.2117   -1.1497    0.0000 C   0  0  0  0  0  0  0  0  0  0  0  0
    1.9450    1.6096    0.0000 C   0  0  0  0  0  0  0  0  0  0  0  0
   -2.6767   -1.4858    0.0001 C   0  0  0  0  0  0  0  0  0  0  0  0
   -2.7901    1.2840    0.0000 C   0  0  0  0  0  0  0  0  0  0  0  0
    3.3511   -0.3505    0.0000 C   0  0  0  0  0  0  0  0  0  0  0  0
    3.2170    1.0320    0.0001 C   0  0  0  0  0  0  0  0  0  0  0  0
   -3.9147   -0.8502    0.0000 C   0  0  0  0  0  0  0  0  0  0  0  0
   -3.9711    0.5377    0.0000 C   0  0  0  0  0  0  0  0  0  0  0  0
  1 12  1  0
  2  5  2  0
  2  6  1  0
  3  5  1  0
  3  7  2  0
  3  8  1  0
  4  6  2  0
  4  7  1  0
  4 10  1  0
  5  9  1  0
  6 11  1  0
  8 12  2  0
  9 13  2  0
 10 14  2  0
 11 15  2  0
 12 13  1  0
 14 15  1  0
M  END
>  <PUBCHEM_COMPOUND_CID>  (1) 
31532

>  <PUBCHEM_CONFORMER_RMSD>  (1) 
0.4

>  <PUBCHEM_CONFORMER_DIVERSEORDER>  (1) 
1

>  <PUBCHEM_MMFF94_PARTIAL_CHARGES>  (1) 
22
1 -0.53
10 -0.15
11 -0.15
12 0.08
13 -0.15
14 -0.15
15 -0.15
16 0.15
17 0.15
18 0.15
19 0.15
2 -0.62
20 0.15
21 0.15
22 0.15
23 0.15
24 0.45
5 0.31
6 0.31
7 -0.15
8 -0.15
9 -0.15

>  <PUBCHEM_EFFECTIVE_ROTOR_COUNT>  (1) 
0

>  <PUBCHEM_PHARMACOPHORE_FEATURES>  (1) 
5
1 1 donor
1 2 acceptor
6 2 3 4 5 6 7 rings
6 3 5 8 9 12 13 rings
6 4 6 10 11 14 15 rings

>  <PUBCHEM_HEAVY_ATOM_COUNT>  (1) 
15

>  <PUBCHEM_ATOM_DEF_STEREO_COUNT>  (1) 
0

>  <PUBCHEM_ATOM_UDEF_STEREO_COUNT>  (1) 
0

>  <PUBCHEM_BOND_DEF_STEREO_COUNT>  (1) 
0

>  <PUBCHEM_BOND_UDEF_STEREO_COUNT>  (1) 
0

>  <PUBCHEM_ISOTOPIC_ATOM_COUNT>  (1) 
0

>  <PUBCHEM_COMPONENT_COUNT>  (1) 
1

>  <PUBCHEM_CACTVS_TAUTO_COUNT>  (1) 
3

>  <PUBCHEM_CONFORMER_ID>  (1) 
00007B2C00000001

>  <PUBCHEM_MMFF94_ENERGY>  (1) 
46.2957

>  <PUBCHEM_FEATURE_SELFOVERLAP>  (1) 
25.433

>  <PUBCHEM_SHAPE_FINGERPRINT>  (1) 
10062212 137 18412255134304554667
10608611 8 18410852183210968489
10967382 1 18410573955113164263
11132069 177 18411974771560492744
11471102 20 18410852183157863860
12032990 46 18410015454782778403
12251169 10 18411418397207237235
13221675 6 18410009935718219483
13288520 33 18340489976432257206
13296908 3 18410855490198227115
13380535 76 18411700976180869311
13690532 89 18409729539068346530
14115302 16 17894642464838809518
14144814 61 18410573989588869369
14325111 11 18410855485966758209
15196674 1 18410575106148523365
15219456 202 18412260670353609112
15309172 13 18272097097383257627
15442244 35 18267022747909494442
15536298 74 18342457075542992608
16945 1 18338517409110547077
17802600 8 18410569587157856485
17804303 29 18411985758118575276
18186145 218 17822284703983865871
18522853 276 18342455945850510392
19422 9 18409171038400337565
200 152 18060412530471312943
20201158 50 18412546491853151495
20510252 161 18272934916463784713
20645477 70 18413107264295272206
21267235 1 18410302414464686355
21501502 16 18338519741235610365
21501925 9 18410847785401386170
221490 88 18263651825710728178
2255824 54 17967534601551000506
2334 1 18338517559487169453
23402539 116 18201993314185713949
23402655 69 18412822469572442877
23463225 33 18408885139596723532
23559900 14 18342453751512729136
2748010 2 18410572924447613901
335352 9 18338516313841042069
474 4 16951698093529703900
5104073 3 18411138060386356952
528886 8 18411414012056210179
69090 78 18343860035194968951
7364860 26 18269836578902194448
77779 3 18410294730678133268
8809292 202 18260834833886511563
9709674 26 18411987978633004838
9981440 41 17398670589611610104

>  <PUBCHEM_SHAPE_MULTIPOLES>  (1) 
297.84
7.34
1.7
0.6
0.79
0.13
0
-0.77
0
-0.02
0
-0.03
0
0

>  <PUBCHEM_SHAPE_SELFOVERLAP>  (1) 
677.181

>  <PUBCHEM_SHAPE_VOLUME>  (1) 
155.4

>  <PUBCHEM_COORDINATE_TYPE>  (1) 
2
5
10

$$$$
