31548
     RDKit          3D

 10  9  0  0  0  0  0  0  0  0999 V2000
    0.4349   -0.0004    0.0537 Si  0  0  0  0  0  4  0  0  0  0  0  0
    0.6055   -1.3597    1.0216 O   0  0  0  0  0  0  0  0  0  0  0  0
    1.6205   -0.0029   -1.1324 O   0  0  0  0  0  0  0  0  0  0  0  0
    0.6106    1.3594    1.0200 O   0  0  0  0  0  0  0  0  0  0  0  0
   -2.3663    0.0129    0.1664 O   0  0  0  0  0  0  0  0  0  0  0  0
   -1.2843    0.0015   -0.7679 C   0  0  0  0  0  0  0  0  0  0  0  0
    0.5041   -2.6522    0.4413 C   0  0  0  0  0  0  0  0  0  0  0  0
    2.9890   -0.0046   -0.7513 C   0  0  0  0  0  0  0  0  0  0  0  0
    0.5133    2.6516    0.4383 C   0  0  0  0  0  0  0  0  0  0  0  0
   -3.6273   -0.0056   -0.4896 C   0  0  0  0  0  0  0  0  0  0  0  0
  1  2  1  0
  1  3  1  0
  1  4  1  0
  1  6  1  0
  2  7  1  0
  3  8  1  0
  4  9  1  0
  5  6  1  0
  5 10  1  0
M  END
>  <PUBCHEM_COMPOUND_CID>  (1) 
31548

>  <PUBCHEM_CONFORMER_RMSD>  (1) 
0.6

>  <PUBCHEM_CONFORMER_DIVERSEORDER>  (1) 
1
9
14
6
15
10
11
12
4
8
3
13
5
7
2

>  <PUBCHEM_MMFF94_PARTIAL_CHARGES>  (1) 
10
1 0.97
10 0.28
2 -0.58
3 -0.58
4 -0.58
5 -0.56
6 0.2
7 0.28
8 0.28
9 0.28

>  <PUBCHEM_EFFECTIVE_ROTOR_COUNT>  (1) 
5

>  <PUBCHEM_PHARMACOPHORE_FEATURES>  (1) 
1
1 5 acceptor

>  <PUBCHEM_HEAVY_ATOM_COUNT>  (1) 
10

>  <PUBCHEM_ATOM_DEF_STEREO_COUNT>  (1) 
0

>  <PUBCHEM_ATOM_UDEF_STEREO_COUNT>  (1) 
0

>  <PUBCHEM_BOND_DEF_STEREO_COUNT>  (1) 
0

>  <PUBCHEM_BOND_UDEF_STEREO_COUNT>  (1) 
0

>  <PUBCHEM_ISOTOPIC_ATOM_COUNT>  (1) 
0

>  <PUBCHEM_COMPONENT_COUNT>  (1) 
1

>  <PUBCHEM_CACTVS_TAUTO_COUNT>  (1) 
1

>  <PUBCHEM_CONFORMER_ID>  (1) 
00007B3C00000001

>  <PUBCHEM_MMFF94_ENERGY>  (1) 
17.2852

>  <PUBCHEM_FEATURE_SELFOVERLAP>  (1) 
5.074

>  <PUBCHEM_SHAPE_FINGERPRINT>  (1) 
12423570 1 16982700799169179832
12932764 1 18410561895662480175
13380536 167 17762624988391503104
13380536 261 18122643655694664990
137420 1 12417685381275333960
187816 3 18410868654847937758
21501502 16 17762339514984817204
21930827 45 17974285735646484608
23552423 10 17901950738176693443
23595355 12 18120650498627402693
3250762 1 17762906867290188430
4369600 1 18413108346700506770
68250623 7 17764322638771755310

>  <PUBCHEM_SHAPE_MULTIPOLES>  (1) 
200.53
3.83
2.36
1.07
3.19
0
-0.03
0
-1.43
-0.89
0.94
-0.31
0
0

>  <PUBCHEM_SHAPE_SELFOVERLAP>  (1) 
350.07

>  <PUBCHEM_SHAPE_VOLUME>  (1) 
133.8

>  <PUBCHEM_COORDINATE_TYPE>  (1) 
2
5
10

$$$$
