3154
     RDKit          3D

 19 20  0  0  1  0  0  0  0  0999 V2000
   -1.2518   -2.0157    0.3205 S   0  0  0  0  0  0  0  0  0  0  0  0
    1.6309   -1.3320    0.3738 S   0  0  0  0  0  0  0  0  0  0  0  0
    3.9877    0.3475   -0.0388 S   0  0  0  0  0  0  0  0  0  0  0  0
   -1.1150   -2.9861   -0.7448 O   0  0  0  0  0  0  0  0  0  0  0  0
   -1.1712   -2.3643    1.7230 O   0  0  0  0  0  0  0  0  0  0  0  0
    4.5239   -1.0067   -0.1143 O   0  0  0  0  0  0  0  0  0  0  0  0
    4.3364    1.3402   -1.0474 O   0  0  0  0  0  0  0  0  0  0  0  0
   -1.7715    1.9546    0.2545 N   0  0  0  0  0  0  0  0  0  0  0  0
    4.3863    0.9829    1.5066 N   0  0  0  0  0  0  0  0  0  0  0  0
   -2.7094   -0.9870    0.0412 C   0  0  0  0  0  0  0  0  0  0  0  0
   -1.3693    1.0611   -0.8332 C   0  0  0  0  0  0  0  0  0  0  0  0
   -2.4721    0.0107   -1.1127 C   0  0  0  0  0  0  0  0  0  0  0  0
   -0.0588    0.4287   -0.4602 C   0  0  0  0  0  0  0  0  0  0  0  0
    0.0393   -0.8517    0.0403 C   0  0  0  0  0  0  0  0  0  0  0  0
   -3.9226   -1.8695   -0.2315 C   0  0  0  0  0  0  0  0  0  0  0  0
    1.2368    1.0260   -0.5696 C   0  0  0  0  0  0  0  0  0  0  0  0
    2.2414    0.1817   -0.1455 C   0  0  0  0  0  0  0  0  0  0  0  0
   -3.0440    2.5901   -0.0468 C   0  0  0  0  0  0  0  0  0  0  0  0
   -3.4968    3.4895    1.0848 C   0  0  0  0  0  0  0  0  0  0  0  0
  1  4  2  0
  1  5  2  0
  1 10  1  0
  1 14  1  0
  2 14  1  0
  2 17  1  0
  3  6  2  0
  3  7  2  0
  3  9  1  0
  3 17  1  0
  8 11  1  0
  8 18  1  0
 10 12  1  0
 10 15  1  0
 11 12  1  0
 11 13  1  0
 13 14  2  0
 13 16  1  0
 16 17  2  0
 18 19  1  0
M  END
>  <PUBCHEM_COMPOUND_CID>  (1) 
3154

>  <PUBCHEM_CONFORMER_RMSD>  (1) 
0.6

>  <PUBCHEM_CONFORMER_DIVERSEORDER>  (1) 
5
10
12
1
16
19
2
18
9
6
11
17
15
4
3
14
8
13
7
21
20

>  <PUBCHEM_MMFF94_PARTIAL_CHARGES>  (1) 
20
1 1.26
10 0.11
11 0.45
13 -0.18
14 -0.02
16 -0.15
17 -0.02
18 0.27
2 -0.08
27 0.36
28 0.15
3 1.5
34 0.42
35 0.42
4 -0.65
5 -0.65
6 -0.65
7 -0.65
8 -0.9
9 -0.98

>  <PUBCHEM_EFFECTIVE_ROTOR_COUNT>  (1) 
3.6

>  <PUBCHEM_PHARMACOPHORE_FEATURES>  (1) 
9
1 4 acceptor
1 5 acceptor
1 6 acceptor
1 7 acceptor
1 8 cation
1 8 donor
1 9 donor
5 2 13 14 16 17 rings
6 1 10 11 12 13 14 rings

>  <PUBCHEM_HEAVY_ATOM_COUNT>  (1) 
19

>  <PUBCHEM_ATOM_DEF_STEREO_COUNT>  (1) 
0

>  <PUBCHEM_ATOM_UDEF_STEREO_COUNT>  (1) 
2

>  <PUBCHEM_BOND_DEF_STEREO_COUNT>  (1) 
0

>  <PUBCHEM_BOND_UDEF_STEREO_COUNT>  (1) 
0

>  <PUBCHEM_ISOTOPIC_ATOM_COUNT>  (1) 
0

>  <PUBCHEM_COMPONENT_COUNT>  (1) 
1

>  <PUBCHEM_CACTVS_TAUTO_COUNT>  (1) 
1

>  <PUBCHEM_CONFORMER_ID>  (1) 
00000C5200000005

>  <PUBCHEM_MMFF94_ENERGY>  (1) 
15.7121

>  <PUBCHEM_FEATURE_SELFOVERLAP>  (1) 
45.744

>  <PUBCHEM_SHAPE_FINGERPRINT>  (1) 
10382601 240 17756153280293910745
10493431 412 18266464209093714537
11132069 177 18262507195731043446
12173636 292 18341607084039865701
12390115 104 18270698479637548400
12788726 201 18336269062392519872
13027679 85 18192431003303377261
13140716 1 17975976780071708147
14081887 123 18197199546383137960
14115302 16 17313668285901808926
14123255 52 18123189000583051149
14142880 1 18334289843137522981
14178342 30 18336255774133055472
15309172 13 18041843883084987957
15534591 1 18271521975534626581
16752209 62 18409724075564114359
16945 1 18340474672967935415
1741750 31 18341047415436274472
18186145 218 18264203609070933484
18915476 22 16772970090042021469
204376 136 18265057920931852109
20510252 161 18341893008745035225
21029758 11 18194394722591634767
21041028 32 17901406780885108003
21501502 16 18335416816517086042
21524375 3 18266455404268014725
21731228 192 18263650567280068137
22182937 141 18272371927913965777
2334 1 18335414617314268223
23402539 116 18271801389111833735
23557571 272 18271818946996025604
23558518 356 18335708204336409607
23559900 14 18340200792316310862
2748010 2 18263365785057311423
283562 15 18409442609805163723
298252 57 17201909341466762013
5104073 3 18337101286069579216
559249 180 18263359205958899206
58807428 26 18116428137826849282
81228 2 18188489184886730881
8809292 202 17896319301559683842
9709674 26 18409733967428074998

>  <PUBCHEM_SHAPE_MULTIPOLES>  (1) 
369.12
7.82
3.36
1.11
7.58
0.74
0.25
3.17
0.57
-4.46
0.87
0.04
0.06
-0.67

>  <PUBCHEM_SHAPE_SELFOVERLAP>  (1) 
727.084

>  <PUBCHEM_SHAPE_VOLUME>  (1) 
221.5

>  <PUBCHEM_COORDINATE_TYPE>  (1) 
2
5
10

$$$$
