31562
     RDKit          3D

 12 11  0  0  0  0  0  0  0  0999 V2000
    1.4946   -1.2539   -0.3930 S   0  0  0  0  0  0  0  0  0  0  0  0
   -1.4949   -1.2540   -0.3928 S   0  0  0  0  0  0  0  0  0  0  0  0
    0.0016    1.9114    0.6921 O   0  0  0  0  0  0  0  0  0  0  0  0
   -0.0002    1.3390   -1.5087 O   0  0  0  0  0  0  0  0  0  0  0  0
    5.1636    0.1856    0.5608 N   0  0  0  0  0  0  0  0  0  0  0  0
   -5.1638    0.1862    0.5605 N   0  0  0  0  0  0  0  0  0  0  0  0
   -0.0002   -0.3954    0.2044 C   0  0  0  0  0  0  0  0  0  0  0  0
    2.7603   -0.1800    0.3296 C   0  0  0  0  0  0  0  0  0  0  0  0
   -2.7605   -0.1800    0.3299 C   0  0  0  0  0  0  0  0  0  0  0  0
    4.1519   -0.6873   -0.0272 C   0  0  0  0  0  0  0  0  0  0  0  0
   -4.1522   -0.6872   -0.0268 C   0  0  0  0  0  0  0  0  0  0  0  0
   -0.0002    1.0156   -0.3289 C   0  0  0  0  0  0  0  0  0  0  0  0
  1  7  1  0
  1  8  1  0
  2  7  1  0
  2  9  1  0
  3 12  1  0
  4 12  2  0
  5 10  1  0
  6 11  1  0
  7 12  1  0
  8 10  1  0
  9 11  1  0
M  END
>  <PUBCHEM_COMPOUND_CID>  (1) 
31562

>  <PUBCHEM_CONFORMER_RMSD>  (1) 
0.8

>  <PUBCHEM_CONFORMER_DIVERSEORDER>  (1) 
1
37
42
49
20
21
41
18
5
33
43
35
2
11
3
19
22
51
13
46
10
44
36
8
12
23
28
34
7
31
4
45
9
47
50
26
39
48
27
24
17
40
38
16
25
30
32
29
14
6
15

>  <PUBCHEM_MMFF94_PARTIAL_CHARGES>  (1) 
17
1 -0.46
10 0.27
11 0.27
12 0.66
2 -0.46
22 0.36
23 0.36
24 0.36
25 0.36
26 0.5
3 -0.65
4 -0.57
5 -0.99
6 -0.99
7 0.52
8 0.23
9 0.23

>  <PUBCHEM_EFFECTIVE_ROTOR_COUNT>  (1) 
7

>  <PUBCHEM_PHARMACOPHORE_FEATURES>  (1) 
8
1 3 acceptor
1 4 acceptor
1 5 cation
1 5 donor
1 6 cation
1 6 donor
3 3 4 12 anion
5 1 2 7 8 9 hydrophobe

>  <PUBCHEM_HEAVY_ATOM_COUNT>  (1) 
12

>  <PUBCHEM_ATOM_DEF_STEREO_COUNT>  (1) 
0

>  <PUBCHEM_ATOM_UDEF_STEREO_COUNT>  (1) 
0

>  <PUBCHEM_BOND_DEF_STEREO_COUNT>  (1) 
0

>  <PUBCHEM_BOND_UDEF_STEREO_COUNT>  (1) 
0

>  <PUBCHEM_ISOTOPIC_ATOM_COUNT>  (1) 
0

>  <PUBCHEM_COMPONENT_COUNT>  (1) 
1

>  <PUBCHEM_CACTVS_TAUTO_COUNT>  (1) 
1

>  <PUBCHEM_CONFORMER_ID>  (1) 
00007B4A00000001

>  <PUBCHEM_MMFF94_ENERGY>  (1) 
8.615

>  <PUBCHEM_FEATURE_SELFOVERLAP>  (1) 
40.652

>  <PUBCHEM_SHAPE_FINGERPRINT>  (1) 
10922049 32 9871747996482664733
11062470 55 17775568636990117651
11401426 45 18412824685870447895
12119455 92 15267341803569085893
12815109 37 18408322181412148267
14123238 8 14345796049870575866
14252887 29 18340217309874691155
15048467 5 17704071802392954866
15501527 24 8790879683530134499
17834072 33 17060049406157596550
17834076 25 17561365080259638067
18186145 218 8646481865184391947
18342897 14 18410576176133502323
18511873 20 18335143128516465111
187816 3 14851606570340119712
200 152 15719389517060927610
20671657 1 18118973731011055677
21119208 17 12685092592198117131
21293036 1 9295290542840874466
22713019 99 10881400924319524802
23402539 116 18201994434787458927
449060 50 17917993875535774358

>  <PUBCHEM_SHAPE_MULTIPOLES>  (1) 
232.95
9.03
1.46
0.88
0
0.38
0.22
-1.09
-2.36
0
0.15
0
0.22
0

>  <PUBCHEM_SHAPE_SELFOVERLAP>  (1) 
405.044

>  <PUBCHEM_SHAPE_VOLUME>  (1) 
154.4

>  <PUBCHEM_COORDINATE_TYPE>  (1) 
2
5
10

$$$$
