31574
     RDKit          3D

 23 23  0  0  0  0  0  0  0  0999 V2000
   -3.5389   -0.3391    2.4759 S   0  0  0  0  0  0  0  0  0  0  0  0
   -3.8375   -0.1852    0.5547 P   0  0  0  0  0  0  0  0  0  0  0  0
   -2.6416   -0.7014   -0.4183 O   0  0  0  0  0  0  0  0  0  0  0  0
   -5.1084   -1.0148   -0.0360 O   0  0  0  0  0  0  0  0  0  0  0  0
   -4.1364    1.3004   -0.0376 O   0  0  0  0  0  0  0  0  0  0  0  0
    4.9664    0.4984   -0.0445 O   0  0  0  0  0  0  0  0  0  0  0  0
    5.5899   -1.6864    0.3324 O   0  0  0  0  0  0  0  0  0  0  0  0
    3.6768   -0.0477   -0.0353 N   0  0  0  0  0  0  0  0  0  0  0  0
    7.1487    0.0209    0.1587 N   0  0  0  0  0  0  0  0  0  0  0  0
   -1.3347   -0.3238   -0.3715 C   0  0  0  0  0  0  0  0  0  0  0  0
    1.3435    0.4513   -0.2796 C   0  0  0  0  0  0  0  0  0  0  0  0
   -0.9929    0.9521    0.0769 C   0  0  0  0  0  0  0  0  0  0  0  0
   -0.3374   -1.2122   -0.7740 C   0  0  0  0  0  0  0  0  0  0  0  0
    0.3461    1.3395    0.1229 C   0  0  0  0  0  0  0  0  0  0  0  0
    1.0016   -0.8245   -0.7281 C   0  0  0  0  0  0  0  0  0  0  0  0
    2.7722    0.8653   -0.2311 C   0  0  0  0  0  0  0  0  0  0  0  0
   -5.0875   -2.4324   -0.0357 C   0  0  0  0  0  0  0  0  0  0  0  0
   -5.3746    1.9327    0.2385 C   0  0  0  0  0  0  0  0  0  0  0  0
    3.1019    2.3323   -0.4253 C   0  0  0  0  0  0  0  0  0  0  0  0
   -6.3802   -2.9447   -0.6343 C   0  0  0  0  0  0  0  0  0  0  0  0
   -5.3925    3.2931   -0.4255 C   0  0  0  0  0  0  0  0  0  0  0  0
    5.8730   -0.5041    0.1654 C   0  0  0  0  0  0  0  0  0  0  0  0
    8.3425   -0.7697    0.3515 C   0  0  0  0  0  0  0  0  0  0  0  0
  1  2  2  0
  2  3  1  0
  2  4  1  0
  2  5  1  0
  3 10  1  0
  4 17  1  0
  5 18  1  0
  6  8  1  0
  6 22  1  0
  7 22  2  0
  8 16  2  0
  9 22  1  0
  9 23  1  0
 10 12  2  0
 10 13  1  0
 11 14  2  0
 11 15  1  0
 11 16  1  0
 12 14  1  0
 13 15  2  0
 16 19  1  0
 17 20  1  0
 18 21  1  0
M  END
>  <PUBCHEM_COMPOUND_CID>  (1) 
31574

>  <PUBCHEM_CONFORMER_RMSD>  (1) 
1

>  <PUBCHEM_CONFORMER_DIVERSEORDER>  (1) 
1
19
17
25
2
14
15
21
23
8
24
26
11
18
22
3
13
9
20
4
12
7
10
16
5
6

>  <PUBCHEM_MMFF94_PARTIAL_CHARGES>  (1) 
26
1 -0.68
10 0.08
11 0.09
12 -0.15
13 -0.15
14 -0.15
15 -0.15
16 0.3
17 0.28
18 0.28
19 0.06
2 1.49
22 0.78
23 0.3
24 0.15
25 0.15
26 0.15
27 0.15
3 -0.35
4 -0.55
41 0.37
5 -0.55
6 -0.09
7 -0.57
8 -0.51
9 -0.73

>  <PUBCHEM_EFFECTIVE_ROTOR_COUNT>  (1) 
10

>  <PUBCHEM_PHARMACOPHORE_FEATURES>  (1) 
4
1 7 acceptor
1 8 acceptor
1 9 donor
6 10 11 12 13 14 15 rings

>  <PUBCHEM_HEAVY_ATOM_COUNT>  (1) 
23

>  <PUBCHEM_ATOM_DEF_STEREO_COUNT>  (1) 
0

>  <PUBCHEM_ATOM_UDEF_STEREO_COUNT>  (1) 
0

>  <PUBCHEM_BOND_DEF_STEREO_COUNT>  (1) 
0

>  <PUBCHEM_BOND_UDEF_STEREO_COUNT>  (1) 
1

>  <PUBCHEM_ISOTOPIC_ATOM_COUNT>  (1) 
0

>  <PUBCHEM_COMPONENT_COUNT>  (1) 
1

>  <PUBCHEM_CACTVS_TAUTO_COUNT>  (1) 
2

>  <PUBCHEM_CONFORMER_ID>  (1) 
00007B5600000001

>  <PUBCHEM_MMFF94_ENERGY>  (1) 
40.1072

>  <PUBCHEM_FEATURE_SELFOVERLAP>  (1) 
20.313

>  <PUBCHEM_SHAPE_FINGERPRINT>  (1) 
11315181 36 17822013137860651967
12091667 2 18260551121199794761
12166972 35 18341333404429167465
12236239 1 18335422374700522348
12403260 363 18337676433630095189
12596602 18 18202845474273072034
13073987 5 18340204205955760324
13862211 1 18340207487326416990
13885169 127 18408601444158896117
14251764 18 18272372027124967998
15183329 4 16660358186698371528
15537594 2 14201399386791779152
17093844 174 18410008823379874809
17844677 252 18336553805929429173
21130935 74 18413386523839218706
21267235 1 18410858806029414118
21315763 129 18411419539959110765
23081809 10 17968103035977354996
23402539 116 18410291406510869261
23522609 53 17896625945556784036
23559900 14 18128541470447178791
32027 91 17556881129855057367
5104073 3 18272656787329836481
559249 180 18411698781404880943
59755656 520 17022624174591700777

>  <PUBCHEM_SHAPE_MULTIPOLES>  (1) 
441.72
19.62
2.74
1.07
26.96
0.66
0.76
-5.9
1.78
-6
-0.66
-1.3
-0.2
-0.65

>  <PUBCHEM_SHAPE_SELFOVERLAP>  (1) 
857.449

>  <PUBCHEM_SHAPE_VOLUME>  (1) 
269.3

>  <PUBCHEM_COORDINATE_TYPE>  (1) 
2
5
10

$$$$
