31575
     RDKit          3D

 15 16  0  0  0  0  0  0  0  0999 V2000
   -2.4135   -0.2968   -0.4477 O   0  0  0  0  0  0  0  0  0  0  0  0
    0.4149   -0.0699   -1.0503 N   0  0  0  0  0  0  0  0  0  0  0  0
   -0.4413   -1.1207   -1.5570 C   0  0  0  0  0  0  0  0  0  0  0  0
    1.5258   -0.2547   -0.2582 C   0  0  0  0  0  0  0  0  0  0  0  0
    2.0587    1.0092    0.0037 C   0  0  0  0  0  0  0  0  0  0  0  0
   -1.5900   -1.4442   -0.6110 C   0  0  0  0  0  0  0  0  0  0  0  0
    0.2277    1.2637   -1.2972 C   0  0  0  0  0  0  0  0  0  0  0  0
    1.2292    1.9575   -0.6580 C   0  0  0  0  0  0  0  0  0  0  0  0
    2.0938   -1.4321    0.2411 C   0  0  0  0  0  0  0  0  0  0  0  0
    3.2152    1.1053    0.8029 C   0  0  0  0  0  0  0  0  0  0  0  0
   -3.5005   -0.5561    0.4301 C   0  0  0  0  0  0  0  0  0  0  0  0
   -4.3388    0.7064    0.5609 C   0  0  0  0  0  0  0  0  0  0  0  0
    3.2403   -1.3122    1.0317 C   0  0  0  0  0  0  0  0  0  0  0  0
    3.7940   -0.0640    1.3095 C   0  0  0  0  0  0  0  0  0  0  0  0
   -5.5153    0.5084    1.4996 C   0  0  0  0  0  0  0  0  0  0  0  0
  1  6  1  0
  1 11  1  0
  2  3  1  0
  2  4  1  0
  2  7  1  0
  3  6  1  0
  4  5  2  0
  4  9  1  0
  5  8  1  0
  5 10  1  0
  7  8  2  0
  9 13  2  0
 10 14  2  0
 11 12  1  0
 12 15  1  0
 13 14  1  0
M  END
>  <PUBCHEM_COMPOUND_CID>  (1) 
31575

>  <PUBCHEM_CONFORMER_RMSD>  (1) 
0.6

>  <PUBCHEM_CONFORMER_DIVERSEORDER>  (1) 
2
42
36
14
40
16
62
47
44
63
37
18
31
41
10
25
56
5
19
50
27
4
13
46
59
55
54
6
53
1
11
49
34
24
61
58
39
12
15
28
20
9
7
60
45
48
51
21
23
8
57
29
3
26
43
52
33
38
32
17
22
35
30

>  <PUBCHEM_MMFF94_PARTIAL_CHARGES>  (1) 
18
1 -0.56
10 -0.15
11 0.28
13 -0.15
14 -0.15
2 0.05
20 0.15
21 0.15
22 0.15
25 0.15
28 0.15
29 0.15
3 0.26
4 -0.15
6 0.28
7 -0.3
8 -0.15
9 -0.15

>  <PUBCHEM_EFFECTIVE_ROTOR_COUNT>  (1) 
5

>  <PUBCHEM_PHARMACOPHORE_FEATURES>  (1) 
5
1 1 acceptor
1 15 hydrophobe
1 2 cation
5 2 4 5 7 8 rings
6 4 5 9 10 13 14 rings

>  <PUBCHEM_HEAVY_ATOM_COUNT>  (1) 
15

>  <PUBCHEM_ATOM_DEF_STEREO_COUNT>  (1) 
0

>  <PUBCHEM_ATOM_UDEF_STEREO_COUNT>  (1) 
0

>  <PUBCHEM_BOND_DEF_STEREO_COUNT>  (1) 
0

>  <PUBCHEM_BOND_UDEF_STEREO_COUNT>  (1) 
0

>  <PUBCHEM_ISOTOPIC_ATOM_COUNT>  (1) 
0

>  <PUBCHEM_COMPONENT_COUNT>  (1) 
1

>  <PUBCHEM_CACTVS_TAUTO_COUNT>  (1) 
1

>  <PUBCHEM_CONFORMER_ID>  (1) 
00007B5700000002

>  <PUBCHEM_MMFF94_ENERGY>  (1) 
20.4067

>  <PUBCHEM_FEATURE_SELFOVERLAP>  (1) 
25.463

>  <PUBCHEM_SHAPE_FINGERPRINT>  (1) 
10498660 4 13183016298808692673
11086676 242 18335414656180100252
11140007 195 17417816076527308406
11543360 7 11239998945448333881
12119455 92 14045738231781712172
12251169 10 18410007754048796143
12633257 1 17968097555578103291
12644460 14 17822583801343579444
12824470 246 15720218484198182696
12892183 10 18409728499712602491
13103583 49 17967818198046565633
13464513 79 15213307442909648635
14252887 29 17748820817626122202
15061688 2 15410604895876936339
15209294 21 17915443090654187024
15375462 189 17604134970204713610
15475509 84 18127402368011705784
15527383 91 18187081750037152816
15885798 251 17385725773024191437
16945 1 17972849683830714188
18186145 218 15267080163194512007
18915474 69 11386368144998242673
20388580 30 12973896917936242751
20871999 31 7997976769449917547
21634736 98 10665239145679708482
21665062 11 18410300228516366689
21713013 43 9079115532160998729
23016692 55 12829212179011210625
231179 274 15051732005937286426
23382010 3 10303804402073881303
23402655 69 9727371159046947115
23557571 272 15697720423774096415
23590187 173 15984828099563814355
23590187 302 8430314615331071419
2748010 2 17975940282241187772
2871803 45 9583518703063605899
328317 168 15841547466731002025
465052 167 13768224795919582065
94968 8 11819283286466665313
960060 61 8574428661430741923

>  <PUBCHEM_SHAPE_MULTIPOLES>  (1) 
297.84
8.64
1.71
1.45
12.13
0.18
0.04
0.79
-6.35
-0.85
0.28
0.22
-0.02
-0.79

>  <PUBCHEM_SHAPE_SELFOVERLAP>  (1) 
620.494

>  <PUBCHEM_SHAPE_VOLUME>  (1) 
171.5

>  <PUBCHEM_COORDINATE_TYPE>  (1) 
2
5
10

$$$$
