3159
     RDKit          3D

 17 18  0  0  1  0  0  0  0  0999 V2000
    2.6188    2.4418   -0.6428 F   0  0  0  0  0  0  0  0  0  0  0  0
   -1.4735    0.7174    1.1374 O   0  0  0  0  0  0  0  0  0  0  0  0
   -1.8761   -2.1978   -0.8641 O   0  0  0  0  0  0  0  0  0  0  0  0
   -3.7177    0.1933   -1.6030 O   0  0  0  0  0  0  0  0  0  0  0  0
    1.0587   -2.5302    0.8031 O   0  0  0  0  0  0  0  0  0  0  0  0
    4.4068    0.4075   -0.4055 O   0  0  0  0  0  0  0  0  0  0  0  0
    0.4687   -0.3148    0.3449 N   0  0  0  0  0  0  0  0  0  0  0  0
    2.7245   -1.0678    0.2006 N   0  0  0  0  0  0  0  0  0  0  0  0
   -1.7071   -0.8041   -0.6783 C   0  0  0  0  0  0  0  0  0  0  0  0
   -3.0344   -0.1317   -0.4081 C   0  0  0  0  0  0  0  0  0  0  0  0
   -0.9329   -0.4980    0.5942 C   0  0  0  0  0  0  0  0  0  0  0  0
   -2.5895    1.1197    0.3274 C   0  0  0  0  0  0  0  0  0  0  0  0
   -3.6722    1.7183    1.2067 C   0  0  0  0  0  0  0  0  0  0  0  0
    1.3853   -1.3875    0.4745 C   0  0  0  0  0  0  0  0  0  0  0  0
    0.9179    0.9466   -0.0294 C   0  0  0  0  0  0  0  0  0  0  0  0
    2.1969    1.2164   -0.2818 C   0  0  0  0  0  0  0  0  0  0  0  0
    3.2258    0.1708   -0.1758 C   0  0  0  0  0  0  0  0  0  0  0  0
  1 16  1  0
  2 11  1  0
  2 12  1  0
  3  9  1  0
  4 10  1  0
  5 14  2  0
  6 17  2  0
  7 11  1  0
  7 14  1  0
  7 15  1  0
  8 14  1  0
  8 17  1  0
  9 10  1  0
  9 11  1  0
 10 12  1  0
 12 13  1  0
 15 16  2  0
 16 17  1  0
M  END
>  <PUBCHEM_COMPOUND_CID>  (1) 
3159

>  <PUBCHEM_CONFORMER_RMSD>  (1) 
0.6

>  <PUBCHEM_CONFORMER_DIVERSEORDER>  (1) 
1
38
43
54
40
47
28
31
49
51
45
25
21
11
52
53
6
50
9
30
19
2
20
41
27
22
32
23
36
37
33
34
12
46
48
44
10
13
3
42
7
16
17
35
5
29
15
39
18
4
26
14
8
24

>  <PUBCHEM_MMFF94_PARTIAL_CHARGES>  (1) 
20
1 -0.15
10 0.28
11 0.58
12 0.28
14 0.69
15 -0.04
16 0.16
17 0.62
2 -0.56
25 0.4
26 0.4
27 0.15
28 0.37
3 -0.68
4 -0.68
5 -0.57
6 -0.57
7 -0.47
8 -0.49
9 0.28

>  <PUBCHEM_EFFECTIVE_ROTOR_COUNT>  (1) 
2

>  <PUBCHEM_PHARMACOPHORE_FEATURES>  (1) 
10
1 2 acceptor
1 3 acceptor
1 3 donor
1 4 acceptor
1 4 donor
1 5 acceptor
1 6 acceptor
1 8 donor
5 2 9 10 11 12 rings
6 7 8 14 15 16 17 rings

>  <PUBCHEM_HEAVY_ATOM_COUNT>  (1) 
17

>  <PUBCHEM_ATOM_DEF_STEREO_COUNT>  (1) 
0

>  <PUBCHEM_ATOM_UDEF_STEREO_COUNT>  (1) 
4

>  <PUBCHEM_BOND_DEF_STEREO_COUNT>  (1) 
0

>  <PUBCHEM_BOND_UDEF_STEREO_COUNT>  (1) 
0

>  <PUBCHEM_ISOTOPIC_ATOM_COUNT>  (1) 
0

>  <PUBCHEM_COMPONENT_COUNT>  (1) 
1

>  <PUBCHEM_CACTVS_TAUTO_COUNT>  (1) 
3

>  <PUBCHEM_CONFORMER_ID>  (1) 
00000C5700000001

>  <PUBCHEM_MMFF94_ENERGY>  (1) 
40.6979

>  <PUBCHEM_FEATURE_SELFOVERLAP>  (1) 
50.749

>  <PUBCHEM_SHAPE_FINGERPRINT>  (1) 
10980938 120 18262518083188198346
11031198 65 17968105187413143542
11471102 20 18260545585145199180
12202030 40 14692284122745037839
12491281 212 18410862061498170705
12553582 1 17686335369820071138
13296908 3 14620785003467963177
14144814 61 18411417280594881169
15279307 12 18413390921289377323
15775835 57 18340494382572895641
16752209 62 17703777107997543383
16945 1 18261955145913911587
18186145 218 18408326609539352188
20645476 183 18343300340984961631
21639500 275 18261104179833120252
231179 274 17603858992696217524
23402539 116 17775565308147915637
23402655 69 18338230475425855157
23557571 272 16917339359698208680
23559900 14 17131832020053442722
23598291 2 18198337347454771663
25 1 18187369800650952778
2748010 2 18117289261811425776
474 4 18333454261175749184
528886 8 18334293180205428874
63268167 104 18334572412866306490
633830 44 18339377309066543604
74978 22 18413389860289757532
77492 1 18272365322211488115
7832392 63 18341898467664416016
8030462 33 18201425983207420875
81228 2 17175755584825848586
84936 182 18199748210126518128
90525 40 18131633374427464087
9981440 41 17620182570404405392

>  <PUBCHEM_SHAPE_MULTIPOLES>  (1) 
303.27
6.68
2.11
1.05
0.76
0.37
0.08
-2.41
0.94
0.31
-0.11
-0.87
-0.01
-1.32

>  <PUBCHEM_SHAPE_SELFOVERLAP>  (1) 
641.809

>  <PUBCHEM_SHAPE_VOLUME>  (1) 
170.7

>  <PUBCHEM_COORDINATE_TYPE>  (1) 
2
5
10

$$$$
