31599
     RDKit          3D

 21 22  0  0  0  0  0  0  0  0999 V2000
   -2.5250    0.6532   -0.2427 O   0  0  0  0  0  0  0  0  0  0  0  0
   -1.3332   -3.3149   -0.3691 O   0  0  0  0  0  0  0  0  0  0  0  0
    1.7892    0.1118   -0.2538 O   0  0  0  0  0  0  0  0  0  0  0  0
   -0.6178    0.9531    0.9936 O   0  0  0  0  0  0  0  0  0  0  0  0
    4.8185    1.8429   -0.0555 O   0  0  0  0  0  0  0  0  0  0  0  0
    2.8148    2.4687   -0.7124 O   0  0  0  0  0  0  0  0  0  0  0  0
    0.0395   -3.1042   -0.3201 N   0  0  0  0  0  0  0  0  0  0  0  0
    3.5979    1.5809   -0.2646 N   0  0  0  0  0  0  0  0  0  0  0  0
   -2.8790    2.0177   -0.0144 C   0  0  0  0  0  0  0  0  0  0  0  0
   -1.7759    2.9082   -0.5846 C   0  0  0  0  0  0  0  0  0  0  0  0
   -4.2024    2.2759   -0.7315 C   0  0  0  0  0  0  0  0  0  0  0  0
   -3.0318    2.2356    1.4902 C   0  0  0  0  0  0  0  0  0  0  0  0
   -1.0498   -1.1756    0.0497 C   0  0  0  0  0  0  0  0  0  0  0  0
   -1.3501    0.2322    0.3236 C   0  0  0  0  0  0  0  0  0  0  0  0
    0.1802   -1.8003   -0.0651 C   0  0  0  0  0  0  0  0  0  0  0  0
   -1.9752   -2.1401   -0.1437 C   0  0  0  0  0  0  0  0  0  0  0  0
    1.5115   -1.1802    0.0639 C   0  0  0  0  0  0  0  0  0  0  0  0
   -3.4437   -2.1871   -0.1610 C   0  0  0  0  0  0  0  0  0  0  0  0
    2.6416   -1.8190    0.5188 C   0  0  0  0  0  0  0  0  0  0  0  0
    3.6799   -0.8582    0.4778 C   0  0  0  0  0  0  0  0  0  0  0  0
    3.1105    0.2996    0.0008 C   0  0  0  0  0  0  0  0  0  0  0  0
  1  9  1  0
  1 14  1  0
  2  7  1  0
  2 16  1  0
  3 17  1  0
  3 21  1  0
  4 14  2  0
  5  8  1  0
  6  8  2  0
  7 15  2  0
  8 21  1  0
  9 10  1  0
  9 11  1  0
  9 12  1  0
 13 14  1  0
 13 15  1  0
 13 16  2  0
 15 17  1  0
 16 18  1  0
 17 19  2  0
 19 20  1  0
 20 21  2  0
M  CHG  2   5  -1   8   1
M  END
>  <PUBCHEM_COMPOUND_CID>  (1) 
31599

>  <PUBCHEM_CONFORMER_RMSD>  (1) 
0.8

>  <PUBCHEM_CONFORMER_DIVERSEORDER>  (1) 
4
5
14
15
2
8
3
9
6
13
16
11
7
12
17
10
1

>  <PUBCHEM_MMFF94_PARTIAL_CHARGES>  (1) 
20
1 -0.43
13 -0.09
14 0.81
15 0.29
16 -0.04
17 0.14
18 0.18
19 -0.15
2 -0.02
20 -0.15
21 0.22
3 -0.28
34 0.15
35 0.15
4 -0.57
5 -0.52
6 -0.52
7 -0.41
8 0.96
9 0.28

>  <PUBCHEM_EFFECTIVE_ROTOR_COUNT>  (1) 
5

>  <PUBCHEM_PHARMACOPHORE_FEATURES>  (1) 
9
1 3 acceptor
1 4 acceptor
1 5 acceptor
1 5 anion
1 6 acceptor
1 7 acceptor
4 9 10 11 12 hydrophobe
5 2 7 13 15 16 rings
5 3 17 19 20 21 rings

>  <PUBCHEM_HEAVY_ATOM_COUNT>  (1) 
21

>  <PUBCHEM_ATOM_DEF_STEREO_COUNT>  (1) 
0

>  <PUBCHEM_ATOM_UDEF_STEREO_COUNT>  (1) 
0

>  <PUBCHEM_BOND_DEF_STEREO_COUNT>  (1) 
0

>  <PUBCHEM_BOND_UDEF_STEREO_COUNT>  (1) 
0

>  <PUBCHEM_ISOTOPIC_ATOM_COUNT>  (1) 
0

>  <PUBCHEM_COMPONENT_COUNT>  (1) 
1

>  <PUBCHEM_CACTVS_TAUTO_COUNT>  (1) 
1

>  <PUBCHEM_CONFORMER_ID>  (1) 
00007B6F00000004

>  <PUBCHEM_MMFF94_ENERGY>  (1) 
40.0928

>  <PUBCHEM_FEATURE_SELFOVERLAP>  (1) 
45.767

>  <PUBCHEM_SHAPE_FINGERPRINT>  (1) 
10411042 1 17546444943673541022
10670039 82 18045233871646323972
10871710 139 17901966449257038812
10967382 1 17978508633217379275
11370993 70 18265606594113002509
11582403 64 16808115919637800365
11725454 13 16952802853670500637
12173636 292 18411976974957817605
12403260 363 18121485869934948321
12553582 1 17979909733206811515
12788726 201 18263915717107562955
13140716 1 18337397032468389442
13583140 156 17531815615116025897
138480 1 17113818488441441847
14026960 21 18263093119327504577
14142880 1 18187638158602434381
14178342 30 18264747949068737690
14787075 74 17319017521671971427
14790565 3 18413113866503979329
15342168 16 18126298445547429265
15442244 35 18408598137662202450
17134986 127 18266742372349621966
1741750 31 18342175557505690016
17492 89 18409165515347708602
17834072 32 18410576136946144060
18186145 218 17983580701989207141
19930381 70 18048592625749143845
20510252 161 18342460386741446307
20715895 44 18120078495225890797
21049683 271 17396982830941791767
21524375 3 18191587454224995619
22182937 141 18413116056066745377
23227448 37 18410290285687818541
23557571 272 18128827502573945020
23558518 356 18261115200835714114
23559900 14 18059010571985229074
238 59 17467596362063323437
2748010 2 18198074585793364791
3060560 45 18051971411800556862
350125 39 18411142428531912290
352729 6 18270683056567938867
474 4 18124313809694431025
5048184 11 18409735053785781796
6333272 397 18266740173658441819
633830 44 17843975732275670733
7097593 13 17825093814691710658
7164475 11 18339917207788354662
7832392 63 18408884006326847974
81228 2 18339086011483906667

>  <PUBCHEM_SHAPE_MULTIPOLES>  (1) 
386.99
7.51
4.11
0.85
2.93
0.97
-0.19
-5.48
0.11
-1.52
0.66
-0.46
-0.36
-0.64

>  <PUBCHEM_SHAPE_SELFOVERLAP>  (1) 
828.602

>  <PUBCHEM_SHAPE_VOLUME>  (1) 
215.6

>  <PUBCHEM_COORDINATE_TYPE>  (1) 
2
5
10

$$$$
