31594
     RDKit          3D

 12 12  0  0  0  0  0  0  0  0999 V2000
    1.9712    2.6452    0.0001 O   0  0  0  0  0  0  0  0  0  0  0  0
    0.8803   -2.7963    0.0002 O   0  0  0  0  0  0  0  0  0  0  0  0
    2.4136   -1.2254   -0.0004 O   0  0  0  0  0  0  0  0  0  0  0  0
    1.2135   -1.5878    0.0000 N   0  0  0  0  0  0  0  0  0  0  0  0
   -3.5064   -0.4397    0.0000 N   0  0  0  0  0  0  0  0  0  0  0  0
    0.5178    0.7627    0.0001 C   0  0  0  0  0  0  0  0  0  0  0  0
    0.1956   -0.5944    0.0000 C   0  0  0  0  0  0  0  0  0  0  0  0
   -0.4964    1.7204   -0.0001 C   0  0  0  0  0  0  0  0  0  0  0  0
   -1.1408   -0.9939    0.0001 C   0  0  0  0  0  0  0  0  0  0  0  0
   -2.1550   -0.0362    0.0000 C   0  0  0  0  0  0  0  0  0  0  0  0
    1.9394    1.2244    0.0002 C   0  0  0  0  0  0  0  0  0  0  0  0
   -1.8329    1.3209   -0.0001 C   0  0  0  0  0  0  0  0  0  0  0  0
  1 11  1  0
  2  4  1  0
  3  4  2  0
  4  7  1  0
  5 10  1  0
  6  7  2  0
  6  8  1  0
  6 11  1  0
  7  9  1  0
  8 12  2  0
  9 10  2  0
 10 12  1  0
M  CHG  2   2  -1   4   1
M  END
>  <PUBCHEM_COMPOUND_CID>  (1) 
31594

>  <PUBCHEM_CONFORMER_RMSD>  (1) 
0.6

>  <PUBCHEM_CONFORMER_DIVERSEORDER>  (1) 
1
2

>  <PUBCHEM_MMFF94_PARTIAL_CHARGES>  (1) 
18
1 -0.68
10 0.1
11 0.42
12 -0.15
13 0.15
14 0.15
17 0.15
18 0.4
19 0.4
2 -0.52
20 0.4
3 -0.52
4 0.91
5 -0.9
6 -0.14
7 0.13
8 -0.15
9 -0.15

>  <PUBCHEM_EFFECTIVE_ROTOR_COUNT>  (1) 
2

>  <PUBCHEM_PHARMACOPHORE_FEATURES>  (1) 
8
1 1 acceptor
1 1 donor
1 2 acceptor
1 2 anion
1 3 acceptor
1 5 cation
1 5 donor
6 6 7 8 9 10 12 rings

>  <PUBCHEM_HEAVY_ATOM_COUNT>  (1) 
12

>  <PUBCHEM_ATOM_DEF_STEREO_COUNT>  (1) 
0

>  <PUBCHEM_ATOM_UDEF_STEREO_COUNT>  (1) 
0

>  <PUBCHEM_BOND_DEF_STEREO_COUNT>  (1) 
0

>  <PUBCHEM_BOND_UDEF_STEREO_COUNT>  (1) 
0

>  <PUBCHEM_ISOTOPIC_ATOM_COUNT>  (1) 
0

>  <PUBCHEM_COMPONENT_COUNT>  (1) 
1

>  <PUBCHEM_CACTVS_TAUTO_COUNT>  (1) 
1

>  <PUBCHEM_CONFORMER_ID>  (1) 
00007B6A00000001

>  <PUBCHEM_MMFF94_ENERGY>  (1) 
52.9703

>  <PUBCHEM_FEATURE_SELFOVERLAP>  (1) 
40.676

>  <PUBCHEM_SHAPE_FINGERPRINT>  (1) 
1 1 18338233876833926372
12423570 1 9324561178780984097
13380535 76 18265046027729046539
14128692 85 18269559346867336399
161256 15 18408887313013894117
16945 1 18338516344027132007
17990270 104 18338233743716378811
193761 8 18338517409242825125
20645476 183 17463138181815237012
20645477 70 18413102871393035047
21040471 1 18050568748506650464
21501502 16 18338520742258623225
2334 1 18122625225768717895
23552423 10 18409731725132860189
241688 4 17833830469381174072
2748010 2 18193001636452338903
5084963 1 18201999910801786817
528862 383 18335129942602687768
528886 8 18194959875362164401
7364860 26 18342176652537863820

>  <PUBCHEM_SHAPE_MULTIPOLES>  (1) 
219.38
3.53
2.62
0.58
1.7
0.38
0
-0.19
0
-1.7
0
0.03
-0.03
0

>  <PUBCHEM_SHAPE_SELFOVERLAP>  (1) 
461.576

>  <PUBCHEM_SHAPE_VOLUME>  (1) 
123.9

>  <PUBCHEM_COORDINATE_TYPE>  (1) 
2
5
10

$$$$
