31597
     RDKit          3D

 20 21  0  0  0  0  0  0  0  0999 V2000
   -0.1631    1.5008   -0.3487 O   0  0  0  0  0  0  0  0  0  0  0  0
   -3.6611   -1.3464   -0.1034 O   0  0  0  0  0  0  0  0  0  0  0  0
    0.9142   -0.8172    0.4336 O   0  0  0  0  0  0  0  0  0  0  0  0
   -1.8288    2.3187    0.9976 O   0  0  0  0  0  0  0  0  0  0  0  0
    4.3599   -1.4135    0.3982 O   0  0  0  0  0  0  0  0  0  0  0  0
    3.1496    0.0858    1.4500 O   0  0  0  0  0  0  0  0  0  0  0  0
   -2.4673   -2.0413   -0.2548 N   0  0  0  0  0  0  0  0  0  0  0  0
    3.2315   -0.9035    0.6635 N   0  0  0  0  0  0  0  0  0  0  0  0
   -2.0513    0.1357    0.1067 C   0  0  0  0  0  0  0  0  0  0  0  0
   -1.5108   -1.1179   -0.1226 C   0  0  0  0  0  0  0  0  0  0  0  0
   -3.3912   -0.0338    0.1140 C   0  0  0  0  0  0  0  0  0  0  0  0
   -0.0823   -1.4693   -0.2210 C   0  0  0  0  0  0  0  0  0  0  0  0
    0.5544    2.7176   -0.1958 C   0  0  0  0  0  0  0  0  0  0  0  0
    1.8497    2.6275   -0.9879 C   0  0  0  0  0  0  0  0  0  0  0  0
   -1.3665    1.4154    0.3083 C   0  0  0  0  0  0  0  0  0  0  0  0
    0.4300   -2.4949   -0.9816 C   0  0  0  0  0  0  0  0  0  0  0  0
   -4.5523    0.8479    0.2967 C   0  0  0  0  0  0  0  0  0  0  0  0
    2.6797    3.8920   -0.8591 C   0  0  0  0  0  0  0  0  0  0  0  0
    1.8308   -2.4709   -0.7812 C   0  0  0  0  0  0  0  0  0  0  0  0
    2.0750   -1.4327    0.0874 C   0  0  0  0  0  0  0  0  0  0  0  0
  1 13  1  0
  1 15  1  0
  2  7  1  0
  2 11  1  0
  3 12  1  0
  3 20  1  0
  4 15  2  0
  5  8  1  0
  6  8  2  0
  7 10  2  0
  8 20  1  0
  9 10  1  0
  9 11  2  0
  9 15  1  0
 10 12  1  0
 11 17  1  0
 12 16  2  0
 13 14  1  0
 14 18  1  0
 16 19  1  0
 19 20  2  0
M  CHG  2   5  -1   8   1
M  END
>  <PUBCHEM_COMPOUND_CID>  (1) 
31597

>  <PUBCHEM_CONFORMER_RMSD>  (1) 
0.8

>  <PUBCHEM_CONFORMER_DIVERSEORDER>  (1) 
2
46
24
44
1
35
32
33
28
30
31
4
17
20
45
38
34
25
36
8
14
41
19
9
12
22
37
18
10
26
21
40
3
7
15
16
13
39
27
5
42
11
47
29
23
6
43

>  <PUBCHEM_MMFF94_PARTIAL_CHARGES>  (1) 
20
1 -0.43
10 0.29
11 -0.04
12 0.14
13 0.28
15 0.81
16 -0.15
17 0.18
19 -0.15
2 -0.02
20 0.22
25 0.15
3 -0.28
32 0.15
4 -0.57
5 -0.52
6 -0.52
7 -0.41
8 0.96
9 -0.09

>  <PUBCHEM_EFFECTIVE_ROTOR_COUNT>  (1) 
6

>  <PUBCHEM_PHARMACOPHORE_FEATURES>  (1) 
9
1 18 hydrophobe
1 3 acceptor
1 4 acceptor
1 5 acceptor
1 5 anion
1 6 acceptor
1 7 acceptor
5 2 7 9 10 11 rings
5 3 12 16 19 20 rings

>  <PUBCHEM_HEAVY_ATOM_COUNT>  (1) 
20

>  <PUBCHEM_ATOM_DEF_STEREO_COUNT>  (1) 
0

>  <PUBCHEM_ATOM_UDEF_STEREO_COUNT>  (1) 
0

>  <PUBCHEM_BOND_DEF_STEREO_COUNT>  (1) 
0

>  <PUBCHEM_BOND_UDEF_STEREO_COUNT>  (1) 
0

>  <PUBCHEM_ISOTOPIC_ATOM_COUNT>  (1) 
0

>  <PUBCHEM_COMPONENT_COUNT>  (1) 
1

>  <PUBCHEM_CACTVS_TAUTO_COUNT>  (1) 
1

>  <PUBCHEM_CONFORMER_ID>  (1) 
00007B6D00000002

>  <PUBCHEM_MMFF94_ENERGY>  (1) 
23.4272

>  <PUBCHEM_FEATURE_SELFOVERLAP>  (1) 
45.765

>  <PUBCHEM_SHAPE_FINGERPRINT>  (1) 
10498660 4 17976263439258405604
10608611 8 17985544442583730011
10967382 1 18340488842254974807
10989021 7 18335420175002020517
11458722 379 17906183102240617788
11578080 2 17313926632801046935
12403259 226 17621880885707983255
12592029 89 17901958756986130465
12644460 14 18190764066297893801
13140716 1 18339646741081368435
14022349 108 18265064693973458601
14181834 199 18260830448903828407
15463212 79 16962101826770122892
167882 2 18263080066758621709
16945 1 18340781359735047807
18785283 64 18261971712362914629
19591789 44 16680916073214831099
20642791 178 18336552702012077200
20905425 154 17908715272923484951
21304253 335 18057328271749657505
2334 1 18124596650438911279
23366157 5 17968659444289519308
23388829 49 18342449357323108079
23402539 116 18268697347068815919
23557571 272 18126854789645645622
25147074 1 18200317740570605959
2748010 2 17908146477893866535
3524813 1 17987221262572693298
43471831 8 17904484347995462061
5282940 2 18118687853650746436
6287921 2 18272657826912141104
7064713 232 18199734998901879464
7364860 26 18411707616205421437
81228 2 17978241465061341097
90316 7 17972864874723923352
9925002 15 17555709338459662974

>  <PUBCHEM_SHAPE_MULTIPOLES>  (1) 
366.41
6.48
4.08
0.94
2
2.9
-0.05
0
-1.12
-3.47
1.27
-0.58
0.09
-1.14

>  <PUBCHEM_SHAPE_SELFOVERLAP>  (1) 
778.551

>  <PUBCHEM_SHAPE_VOLUME>  (1) 
205.6

>  <PUBCHEM_COORDINATE_TYPE>  (1) 
2
5
10

$$$$
