31602
     RDKit          3D

 20 21  0  0  0  0  0  0  0  0999 V2000
    1.6268    3.0766    0.4233 O   0  0  0  0  0  0  0  0  0  0  0  0
   -1.7086   -0.1391    0.2297 O   0  0  0  0  0  0  0  0  0  0  0  0
    0.6177   -1.0587   -1.0885 O   0  0  0  0  0  0  0  0  0  0  0  0
   -4.8433   -1.6673    0.0057 O   0  0  0  0  0  0  0  0  0  0  0  0
   -2.8786   -2.4399    0.6228 O   0  0  0  0  0  0  0  0  0  0  0  0
    2.5662   -1.0040    0.1480 N   0  0  0  0  0  0  0  0  0  0  0  0
    2.8491   -2.3400   -0.1331 N   0  0  0  0  0  0  0  0  0  0  0  0
    0.2430    2.9553    0.3803 N   0  0  0  0  0  0  0  0  0  0  0  0
   -3.6072   -1.4900    0.2114 N   0  0  0  0  0  0  0  0  0  0  0  0
    1.2036    0.9791   -0.0597 C   0  0  0  0  0  0  0  0  0  0  0  0
    0.0176    1.6720    0.0852 C   0  0  0  0  0  0  0  0  0  0  0  0
    2.1908    1.8712    0.1547 C   0  0  0  0  0  0  0  0  0  0  0  0
   -1.3515    1.1420   -0.0505 C   0  0  0  0  0  0  0  0  0  0  0  0
    1.4123   -0.4406   -0.3801 C   0  0  0  0  0  0  0  0  0  0  0  0
   -2.4419    1.8655   -0.4746 C   0  0  0  0  0  0  0  0  0  0  0  0
    3.6593    1.8241    0.1604 C   0  0  0  0  0  0  0  0  0  0  0  0
   -3.5390    0.9715   -0.4539 C   0  0  0  0  0  0  0  0  0  0  0  0
   -3.0411   -0.2346   -0.0185 C   0  0  0  0  0  0  0  0  0  0  0  0
    2.9188   -3.1049    1.1103 C   0  0  0  0  0  0  0  0  0  0  0  0
    4.1059   -2.4382   -0.8727 C   0  0  0  0  0  0  0  0  0  0  0  0
  1  8  1  0
  1 12  1  0
  2 13  1  0
  2 18  1  0
  3 14  2  0
  4  9  1  0
  5  9  2  0
  6  7  1  0
  6 14  1  0
  7 19  1  0
  7 20  1  0
  8 11  2  0
  9 18  1  0
 10 11  1  0
 10 12  2  0
 10 14  1  0
 11 13  1  0
 12 16  1  0
 13 15  2  0
 15 17  1  0
 17 18  2  0
M  CHG  2   4  -1   9   1
M  END
>  <PUBCHEM_COMPOUND_CID>  (1) 
31602

>  <PUBCHEM_CONFORMER_RMSD>  (1) 
0.8

>  <PUBCHEM_CONFORMER_DIVERSEORDER>  (1) 
9
5
6
4
8
3
7
15
12
11
10
1
14
13
2

>  <PUBCHEM_MMFF94_PARTIAL_CHARGES>  (1) 
23
1 -0.02
10 -0.09
11 0.29
12 -0.04
13 0.14
14 0.72
15 -0.15
16 0.18
17 -0.15
18 0.22
19 0.27
2 -0.28
20 0.27
21 0.37
22 0.15
26 0.15
3 -0.57
4 -0.52
5 -0.52
6 -0.42
7 -0.55
8 -0.41
9 0.96

>  <PUBCHEM_EFFECTIVE_ROTOR_COUNT>  (1) 
5

>  <PUBCHEM_PHARMACOPHORE_FEATURES>  (1) 
9
1 2 acceptor
1 3 acceptor
1 4 acceptor
1 4 anion
1 5 acceptor
1 6 donor
1 8 acceptor
5 1 8 10 11 12 rings
5 2 13 15 17 18 rings

>  <PUBCHEM_HEAVY_ATOM_COUNT>  (1) 
20

>  <PUBCHEM_ATOM_DEF_STEREO_COUNT>  (1) 
0

>  <PUBCHEM_ATOM_UDEF_STEREO_COUNT>  (1) 
0

>  <PUBCHEM_BOND_DEF_STEREO_COUNT>  (1) 
0

>  <PUBCHEM_BOND_UDEF_STEREO_COUNT>  (1) 
0

>  <PUBCHEM_ISOTOPIC_ATOM_COUNT>  (1) 
0

>  <PUBCHEM_COMPONENT_COUNT>  (1) 
1

>  <PUBCHEM_CACTVS_TAUTO_COUNT>  (1) 
2

>  <PUBCHEM_CONFORMER_ID>  (1) 
00007B7200000009

>  <PUBCHEM_MMFF94_ENERGY>  (1) 
30.0479

>  <PUBCHEM_FEATURE_SELFOVERLAP>  (1) 
45.767

>  <PUBCHEM_SHAPE_FINGERPRINT>  (1) 
10906281 52 17840878373307163684
10967382 1 18267584787192685852
1100329 8 18052258393163140081
114674 6 18189055459324785627
11578080 2 17386830734880927860
11680986 33 18341043051876141176
12107183 9 18199203789236245513
12553582 1 18123192298996232010
12633257 1 18198636445125052241
12839892 36 18194100031826416424
13140716 1 18270683047798701649
13533116 47 18270964661121629771
14115302 16 18044105552854728653
14787075 74 18334022679361049054
14790565 3 17259066186527489368
19591789 44 18123753320852196356
20028762 73 17552919937679305630
20600515 1 17983013341284065176
20645477 70 18338227263111973631
21279426 13 18334566929358939495
21452121 71 18266187132347611724
21501502 16 18412268333066096397
21650355 55 17761764075435245928
221490 88 18409736166086937150
23184049 29 18337389335871033961
23366157 5 18186804669128776436
23557571 272 17603853555700560173
23559900 14 18266731390603269840
238078 22 18194976149367723966
2748010 2 18341888576170344572
2871803 45 18265330788730298037
3084891 72 17618214014745556029
314173 41 18266746787644619422
33824 294 18195527219156592339
474229 33 18048877687023358104
5104073 3 18341615897887679577
5493415 88 18340204085712091020
5902787 121 18265894662012056022
7364860 26 18412545448429124226
81228 2 17338166203964177384
8809292 202 18265337209511083783
9709674 26 18336264634687594747

>  <PUBCHEM_SHAPE_MULTIPOLES>  (1) 
362.32
7.66
3.91
0.81
2.57
0.21
-0.03
5.64
-0.33
-2.35
0.77
-0.37
0.3
0.6

>  <PUBCHEM_SHAPE_SELFOVERLAP>  (1) 
771.583

>  <PUBCHEM_SHAPE_VOLUME>  (1) 
203.9

>  <PUBCHEM_COORDINATE_TYPE>  (1) 
2
5
10

$$$$
