31619
     RDKit          3D

 30 32  0  0  1  0  0  0  0  0999 V2000
    5.3142    0.7446    0.2033 O   0  0  0  0  0  0  0  0  0  0  0  0
   -3.3891    0.5107    1.1092 O   0  0  0  0  0  0  0  0  0  0  0  0
    5.4094   -1.5813    1.7224 O   0  0  0  0  0  0  0  0  0  0  0  0
   -5.8255    1.7778    1.5355 O   0  0  0  0  0  0  0  0  0  0  0  0
   -9.2199   -1.1655   -0.7627 O   0  0  0  0  0  0  0  0  0  0  0  0
    2.2841    2.0894   -0.7485 N   0  0  0  0  0  0  0  0  0  0  0  0
    4.4088    1.0663   -0.8433 C   0  0  0  0  0  0  0  0  0  0  0  0
    2.9759    0.8596   -0.3558 C   0  0  0  0  0  0  0  0  0  0  0  0
    4.5095    2.5486   -1.1945 C   0  0  0  0  0  0  0  0  0  0  0  0
    3.2631    3.1611   -0.5758 C   0  0  0  0  0  0  0  0  0  0  0  0
    1.0682    2.3150    0.0181 C   0  0  0  0  0  0  0  0  0  0  0  0
    0.0730    1.1804   -0.2191 C   0  0  0  0  0  0  0  0  0  0  0  0
   -1.2159    1.4023    0.5705 C   0  0  0  0  0  0  0  0  0  0  0  0
    6.2479   -0.2231   -0.0623 C   0  0  0  0  0  0  0  0  0  0  0  0
   -2.1994    0.2559    0.3745 C   0  0  0  0  0  0  0  0  0  0  0  0
    6.2901   -1.3840    0.7022 C   0  0  0  0  0  0  0  0  0  0  0  0
    7.1495   -0.0273   -1.1029 C   0  0  0  0  0  0  0  0  0  0  0  0
    7.2458   -2.3610    0.4226 C   0  0  0  0  0  0  0  0  0  0  0  0
    8.1051   -1.0044   -1.3823 C   0  0  0  0  0  0  0  0  0  0  0  0
   -4.5489   -0.0247    0.6127 C   0  0  0  0  0  0  0  0  0  0  0  0
    8.1532   -2.1711   -0.6196 C   0  0  0  0  0  0  0  0  0  0  0  0
   -5.7648    0.6143    0.8299 C   0  0  0  0  0  0  0  0  0  0  0  0
   -4.4923   -1.2124   -0.1089 C   0  0  0  0  0  0  0  0  0  0  0  0
    5.5262   -2.8006    2.4529 C   0  0  0  0  0  0  0  0  0  0  0  0
   -6.9383    0.0590    0.3197 C   0  0  0  0  0  0  0  0  0  0  0  0
   -5.6656   -1.7676   -0.6190 C   0  0  0  0  0  0  0  0  0  0  0  0
   -6.8887   -1.1321   -0.4048 C   0  0  0  0  0  0  0  0  0  0  0  0
   -8.1118   -1.7103   -0.9383 C   0  0  0  0  0  0  0  0  0  0  0  0
   -5.6995    2.9914    0.7968 C   0  0  0  0  0  0  0  0  0  0  0  0
   -8.0643   -3.0111   -1.7325 C   0  0  0  0  0  0  0  0  0  0  0  0
  1  7  1  0
  1 14  1  0
  2 15  1  0
  2 20  1  0
  3 16  1  0
  3 24  1  0
  4 22  1  0
  4 29  1  0
  5 28  2  0
  6  8  1  0
  6 10  1  0
  6 11  1  0
  7  8  1  0
  7  9  1  0
  9 10  1  0
 11 12  1  0
 12 13  1  0
 13 15  1  0
 14 16  2  0
 14 17  1  0
 16 18  1  0
 17 19  2  0
 18 21  2  0
 19 21  1  0
 20 22  2  0
 20 23  1  0
 22 25  1  0
 23 26  2  0
 25 27  2  0
 26 27  1  0
 27 28  1  0
 28 30  1  0
M  END
>  <PUBCHEM_COMPOUND_CID>  (1) 
31619

>  <PUBCHEM_CONFORMER_RMSD>  (1) 
1.4

>  <PUBCHEM_CONFORMER_DIVERSEORDER>  (1) 
2
70
24
132
188
13
63
156
5
20
46
52
35
14
79
121
54
134
33
86
161
105
150
135
7
116
41
87
173
21
29
90
147
72
155
3
96
32
97
112
68
78
106
113
55
118
65
60
103
130
37
80
170
152
22
38
143
69
83
85
190
137
176
136
64
154
76
101
122
110
34
94
58
145
100
128
171
141
104
67
75
50
119
77
186
124
43
184
123
158
6
127
16
42
129
120
175
4
93
111
61
74
151
56
57
91
49
140
92
53
45
180
107
126
172
25
10
169
144
146
47
66
44
114
142
73
166
165
148
159
164
131
17
102
19
153
157
162
185
18
117
15
48
1
174
28
62
163
168
84
30
189
23
88
81
133
98
138
149
12
177
179
108
95
36
115
27
181
26
89
160
182
39
9
51
99
178
8
59
187
139
11
109
183
167
82
31
40
71
125

>  <PUBCHEM_MMFF94_PARTIAL_CHARGES>  (1) 
34
1 -0.36
10 0.27
11 0.27
14 0.08
15 0.28
16 0.08
17 -0.15
18 -0.15
19 -0.15
2 -0.36
20 0.08
21 -0.15
22 0.08
23 -0.15
24 0.28
25 -0.15
26 -0.15
27 0.09
28 0.42
29 0.28
3 -0.36
30 0.06
4 -0.36
46 0.15
47 0.15
48 0.15
49 0.15
5 -0.57
50 0.15
54 0.15
55 0.15
6 -0.81
7 0.28
8 0.27

>  <PUBCHEM_EFFECTIVE_ROTOR_COUNT>  (1) 
12

>  <PUBCHEM_PHARMACOPHORE_FEATURES>  (1) 
9
1 1 acceptor
1 2 acceptor
1 3 acceptor
1 4 acceptor
1 5 acceptor
1 6 cation
5 6 7 8 9 10 rings
6 14 16 17 18 19 21 rings
6 20 22 23 25 26 27 rings

>  <PUBCHEM_HEAVY_ATOM_COUNT>  (1) 
30

>  <PUBCHEM_ATOM_DEF_STEREO_COUNT>  (1) 
0

>  <PUBCHEM_ATOM_UDEF_STEREO_COUNT>  (1) 
1

>  <PUBCHEM_BOND_DEF_STEREO_COUNT>  (1) 
0

>  <PUBCHEM_BOND_UDEF_STEREO_COUNT>  (1) 
0

>  <PUBCHEM_ISOTOPIC_ATOM_COUNT>  (1) 
0

>  <PUBCHEM_COMPONENT_COUNT>  (1) 
1

>  <PUBCHEM_CACTVS_TAUTO_COUNT>  (1) 
2

>  <PUBCHEM_CONFORMER_ID>  (1) 
00007B8300000002

>  <PUBCHEM_MMFF94_ENERGY>  (1) 
108.1985

>  <PUBCHEM_FEATURE_SELFOVERLAP>  (1) 
45.682

>  <PUBCHEM_SHAPE_FINGERPRINT>  (1) 
10066227 49 18408885174579350391
11386260 185 16950848123380101036
11719270 70 17988929972061105758
12522641 33 18042693978786221124
12539765 74 11314303941111895232
12592606 108 18412546509217500798
12645989 146 18336269020123913605
13008946 170 18190746543053989884
13248334 5 18121784091396607932
13533116 47 18335143120333147784
14068700 675 18342179951226430000
14251757 52 11025793197815184128
15183329 4 18040152924474688697
15198563 99 16515678905743941381
15320294 125 17917706933345103167
16126227 98 9295286140752896197
1754908 1 15339123463665973943
1768 124 18202005400466732950
20028762 73 18343025467674068134
2026 5 18413108338127176359
21315763 28 18343304790529122509
21585481 151 18130514029168411294
21585483 132 18336537287469612010
22864921 47 17846490483183070343
23081809 10 18337402620522145197
23522609 53 18120689943623718100
25025965 108 17703218638118012719
397830 11 13829840370107983420
406291 66 18413388722477092342
42767 46 18342173371489454442
5085150 59 17704074014697128303
5372103 7 14563680833037070846
54076057 255 11819271183000997268
59682541 52 17603865615826029136
68570916 9 9943805564735705220
96874 4 18412261722958252386
99344 41 18272375230754190447
9962374 69 18412262861599274620

>  <PUBCHEM_SHAPE_MULTIPOLES>  (1) 
583.06
32.89
3.58
1.48
14.55
0.55
-0.41
-24.77
6.46
-0.91
0.09
-0.87
-0.82
-5.93

>  <PUBCHEM_SHAPE_SELFOVERLAP>  (1) 
1220.679

>  <PUBCHEM_SHAPE_VOLUME>  (1) 
333.1

>  <PUBCHEM_COORDINATE_TYPE>  (1) 
2
5
10

$$$$
