31613
     RDKit          3D

  7  6  0  0  1  0  0  0  0  0999 V2000
   -1.0690    1.1338   -1.3762 Cl  0  0  0  0  0  0  0  0  0  0  0  0
    2.4338    0.9632    0.4439 Cl  0  0  0  0  0  0  0  0  0  0  0  0
    0.2098   -0.6747    0.3083 C   0  0  0  0  0  0  0  0  0  0  0  0
   -0.7212    0.5669    0.2877 C   0  0  0  0  0  0  0  0  0  0  0  0
    1.6000   -0.4204   -0.3052 C   0  0  0  0  0  0  0  0  0  0  0  0
   -0.4087   -1.9052   -0.3719 C   0  0  0  0  0  0  0  0  0  0  0  0
   -2.0447    0.3363    1.0134 C   0  0  0  0  0  0  0  0  0  0  0  0
  1  4  1  0
  2  5  1  0
  3  4  1  0
  3  5  1  0
  3  6  1  0
  4  7  1  0
M  END
>  <PUBCHEM_COMPOUND_CID>  (1) 
31613

>  <PUBCHEM_CONFORMER_RMSD>  (1) 
0.4

>  <PUBCHEM_CONFORMER_DIVERSEORDER>  (1) 
1
9
32
28
15
18
30
21
16
23
10
29
24
2
22
3
13
25
27
31
33
26
20
17
14
19
12
6
11
4
5
8
7

>  <PUBCHEM_MMFF94_PARTIAL_CHARGES>  (1) 
4
1 -0.29
2 -0.29
4 0.29
5 0.29

>  <PUBCHEM_EFFECTIVE_ROTOR_COUNT>  (1) 
2

>  <PUBCHEM_PHARMACOPHORE_FEATURES>  (1) 
1
1 6 hydrophobe

>  <PUBCHEM_HEAVY_ATOM_COUNT>  (1) 
7

>  <PUBCHEM_ATOM_DEF_STEREO_COUNT>  (1) 
0

>  <PUBCHEM_ATOM_UDEF_STEREO_COUNT>  (1) 
2

>  <PUBCHEM_BOND_DEF_STEREO_COUNT>  (1) 
0

>  <PUBCHEM_BOND_UDEF_STEREO_COUNT>  (1) 
0

>  <PUBCHEM_ISOTOPIC_ATOM_COUNT>  (1) 
0

>  <PUBCHEM_COMPONENT_COUNT>  (1) 
1

>  <PUBCHEM_CACTVS_TAUTO_COUNT>  (1) 
1

>  <PUBCHEM_CONFORMER_ID>  (1) 
00007B7D00000001

>  <PUBCHEM_MMFF94_ENERGY>  (1) 
8.1732

>  <PUBCHEM_FEATURE_SELFOVERLAP>  (1) 
5.074

>  <PUBCHEM_SHAPE_FINGERPRINT>  (1) 
10857977 72 17749689461819008953
137420 1 13719711803716855570
16714656 1 18334870440747215654
20096714 4 18272657805236786234
20711978 78 17910119005938307079
21040471 1 18343030994679234282
24536 1 17761770667909403817
29004967 10 17548987658564053171
5084963 1 17968956175158655946
5943 1 16480191987737342679

>  <PUBCHEM_SHAPE_MULTIPOLES>  (1) 
147.8
2.74
1.62
1.14
1.31
0.63
0.17
-1.03
-0.66
-0.15
0.39
-0.53
-0.33
0.27

>  <PUBCHEM_SHAPE_SELFOVERLAP>  (1) 
244.96

>  <PUBCHEM_SHAPE_VOLUME>  (1) 
102.5

>  <PUBCHEM_COORDINATE_TYPE>  (1) 
2
5
10

$$$$
