31617
     RDKit          3D

 29 31  0  0  1  0  0  0  0  0999 V2000
   -3.3663   -0.6583    0.3383 O   0  0  0  0  0  0  0  0  0  0  0  0
    3.0899   -2.3159    0.5642 O   0  0  0  0  0  0  0  0  0  0  0  0
   -5.8608   -0.3685   -0.8635 O   0  0  0  0  0  0  0  0  0  0  0  0
    2.1394   -0.0305    1.8381 O   0  0  0  0  0  0  0  0  0  0  0  0
    6.2496    2.8878   -1.2529 O   0  0  0  0  0  0  0  0  0  0  0  0
   -0.3372   -2.2731    0.0018 N   0  0  0  0  0  0  0  0  0  0  0  0
   -2.0963   -0.7275   -0.2946 C   0  0  0  0  0  0  0  0  0  0  0  0
   -1.0537   -1.2110    0.7119 C   0  0  0  0  0  0  0  0  0  0  0  0
   -2.1120   -1.7793   -1.4012 C   0  0  0  0  0  0  0  0  0  0  0  0
   -1.3469   -2.9518   -0.8086 C   0  0  0  0  0  0  0  0  0  0  0  0
    0.3556   -3.1792    0.9049 C   0  0  0  0  0  0  0  0  0  0  0  0
    1.4136   -3.9752    0.1475 C   0  0  0  0  0  0  0  0  0  0  0  0
    2.4639   -3.0621   -0.4703 C   0  0  0  0  0  0  0  0  0  0  0  0
   -3.9990    0.5575    0.3238 C   0  0  0  0  0  0  0  0  0  0  0  0
   -5.2486    0.6993   -0.2798 C   0  0  0  0  0  0  0  0  0  0  0  0
   -3.3825    1.6585    0.9181 C   0  0  0  0  0  0  0  0  0  0  0  0
    3.5707   -1.0767    0.2291 C   0  0  0  0  0  0  0  0  0  0  0  0
   -5.8815    1.9423   -0.2893 C   0  0  0  0  0  0  0  0  0  0  0  0
   -4.0154    2.9016    0.9087 C   0  0  0  0  0  0  0  0  0  0  0  0
   -5.2648    3.0434    0.3049 C   0  0  0  0  0  0  0  0  0  0  0  0
    3.0918    0.0664    0.8689 C   0  0  0  0  0  0  0  0  0  0  0  0
    4.5463   -0.9645   -0.7615 C   0  0  0  0  0  0  0  0  0  0  0  0
    3.5885    1.3218    0.5182 C   0  0  0  0  0  0  0  0  0  0  0  0
    5.0429    0.2910   -1.1125 C   0  0  0  0  0  0  0  0  0  0  0  0
    4.5639    1.4341   -0.4725 C   0  0  0  0  0  0  0  0  0  0  0  0
   -7.1366   -0.1388   -1.4583 C   0  0  0  0  0  0  0  0  0  0  0  0
    5.0826    2.7428   -0.8377 C   0  0  0  0  0  0  0  0  0  0  0  0
    1.7038    1.1856    2.4426 C   0  0  0  0  0  0  0  0  0  0  0  0
    4.1995    3.9802   -0.7184 C   0  0  0  0  0  0  0  0  0  0  0  0
  1  7  1  0
  1 14  1  0
  2 13  1  0
  2 17  1  0
  3 15  1  0
  3 26  1  0
  4 21  1  0
  4 28  1  0
  5 27  2  0
  6  8  1  0
  6 10  1  0
  6 11  1  0
  7  8  1  0
  7  9  1  0
  9 10  1  0
 11 12  1  0
 12 13  1  0
 14 15  2  0
 14 16  1  0
 15 18  1  0
 16 19  2  0
 17 21  2  0
 17 22  1  0
 18 20  2  0
 19 20  1  0
 21 23  1  0
 22 24  2  0
 23 25  2  0
 24 25  1  0
 25 27  1  0
 27 29  1  0
M  END
>  <PUBCHEM_COMPOUND_CID>  (1) 
31617

>  <PUBCHEM_CONFORMER_RMSD>  (1) 
1.2

>  <PUBCHEM_CONFORMER_DIVERSEORDER>  (1) 
2
62
131
34
118
93
121
133
135
110
68
143
73
3
136
26
33
98
61
115
66
87
7
60
82
149
52
116
94
54
1
107
150
96
31
24
130
43
45
6
48
10
90
22
4
88
75
153
125
12
157
146
9
108
14
152
53
70
113
92
148
29
19
156
40
109
42
99
71
13
124
154
147
100
104
57
120
129
80
44
67
36
79
38
41
91
30
11
74
101
126
50
97
151
69
65
55
27
78
20
46
106
15
134
49
18
114
103
105
119
123
138
139
127
81
21
122
142
83
5
155
59
32
76
28
89
64
86
47
35
95
37
132
39
140
137
144
102
63
23
128
51
16
112
84
25
56
17
145
85
58
111
72
117
141
77
8

>  <PUBCHEM_MMFF94_PARTIAL_CHARGES>  (1) 
34
1 -0.36
10 0.27
11 0.27
13 0.28
14 0.08
15 0.08
16 -0.15
17 0.08
18 -0.15
19 -0.15
2 -0.36
20 -0.15
21 0.08
22 -0.15
23 -0.15
24 -0.15
25 0.09
26 0.28
27 0.42
28 0.28
29 0.06
3 -0.36
4 -0.36
43 0.15
44 0.15
45 0.15
46 0.15
47 0.15
48 0.15
49 0.15
5 -0.57
6 -0.81
7 0.28
8 0.27

>  <PUBCHEM_EFFECTIVE_ROTOR_COUNT>  (1) 
11

>  <PUBCHEM_PHARMACOPHORE_FEATURES>  (1) 
9
1 1 acceptor
1 2 acceptor
1 3 acceptor
1 4 acceptor
1 5 acceptor
1 6 cation
5 6 7 8 9 10 rings
6 14 15 16 18 19 20 rings
6 17 21 22 23 24 25 rings

>  <PUBCHEM_HEAVY_ATOM_COUNT>  (1) 
29

>  <PUBCHEM_ATOM_DEF_STEREO_COUNT>  (1) 
0

>  <PUBCHEM_ATOM_UDEF_STEREO_COUNT>  (1) 
1

>  <PUBCHEM_BOND_DEF_STEREO_COUNT>  (1) 
0

>  <PUBCHEM_BOND_UDEF_STEREO_COUNT>  (1) 
0

>  <PUBCHEM_ISOTOPIC_ATOM_COUNT>  (1) 
0

>  <PUBCHEM_COMPONENT_COUNT>  (1) 
1

>  <PUBCHEM_CACTVS_TAUTO_COUNT>  (1) 
2

>  <PUBCHEM_CONFORMER_ID>  (1) 
00007B8100000002

>  <PUBCHEM_MMFF94_ENERGY>  (1) 
107.418

>  <PUBCHEM_FEATURE_SELFOVERLAP>  (1) 
45.682

>  <PUBCHEM_SHAPE_FINGERPRINT>  (1) 
10483366 6 18266475222233809382
10675989 125 18340494348719819664
10937287 8 18410014372789032714
11101153 10 18411698747873343829
11477941 20 16830382563540596774
11720765 8 17845382047035310998
1200032 147 18113344128587329872
12655364 74 16092393609931037668
12788726 201 17974560609185524851
1361 2 18408044017571029265
13617811 41 17978781634693003039
13782708 43 13470104355805247845
13944108 23 18193844743360592476
14251764 75 18411992355225577241
14528608 73 18341046307830701199
14664723 55 18115323301046918444
14790565 3 18410015424828926653
14840074 17 17822014215750303109
14848178 96 18410573942317959331
14849402 71 18190743033817262498
14931854 50 18059862753061535348
15082195 135 18339066091831607077
15142526 21 18187087234758473723
151778 21 18337952294678172960
15322687 12 18412825798340675026
15685185 35 18118684554741492693
18608769 82 18268715089953333707
20567600 9 18339088064361924022
20715895 44 18410294740228150824
23559900 14 17269463246385041631
245318 6 18187944888024002957
2838139 119 18337112272163535007
474 4 18335417941698622211
513532 50 17274249553349077674
5776283 40 18126568049108134712
6036956 94 17180253721070806572
6086070 43 17464232951857477951
7288768 16 17895477037103538722
7808743 9 18337109089587441898
9849439 229 18339068402265335490

>  <PUBCHEM_SHAPE_MULTIPOLES>  (1) 
562.48
16.1
4.95
1.44
12.45
0.33
0.41
-14.23
-6.3
-3.67
-0.46
-0.45
-0.32
-2.42

>  <PUBCHEM_SHAPE_SELFOVERLAP>  (1) 
1183.522

>  <PUBCHEM_SHAPE_VOLUME>  (1) 
319.5

>  <PUBCHEM_COORDINATE_TYPE>  (1) 
2
5
10

$$$$
