31625
     RDKit          3D

 16 18  0  0  0  0  0  0  0  0999 V2000
    0.0000    1.5291    0.0000 N   0  0  0  0  0  0  0  0  0  0  0  0
   -4.8778   -1.1754    0.0002 N   0  0  0  0  0  0  0  0  0  0  0  0
    4.8778   -1.1754   -0.0005 N   0  0  0  0  0  0  0  0  0  0  0  0
   -1.2146   -0.5477   -0.0001 C   0  0  0  0  0  0  0  0  0  0  0  0
    1.2146   -0.5478    0.0000 C   0  0  0  0  0  0  0  0  0  0  0  0
   -1.1671    0.8565   -0.0001 C   0  0  0  0  0  0  0  0  0  0  0  0
    1.1671    0.8565    0.0000 C   0  0  0  0  0  0  0  0  0  0  0  0
    0.0000   -1.2410    0.0000 C   0  0  0  0  0  0  0  0  0  0  0  0
   -2.4500   -1.2188    0.0000 C   0  0  0  0  0  0  0  0  0  0  0  0
    2.4500   -1.2188    0.0002 C   0  0  0  0  0  0  0  0  0  0  0  0
   -2.3731    1.5523   -0.0002 C   0  0  0  0  0  0  0  0  0  0  0  0
    2.3732    1.5523    0.0001 C   0  0  0  0  0  0  0  0  0  0  0  0
   -3.6415   -0.4997   -0.0001 C   0  0  0  0  0  0  0  0  0  0  0  0
    3.6415   -0.4996    0.0002 C   0  0  0  0  0  0  0  0  0  0  0  0
   -3.6026    0.8888   -0.0001 C   0  0  0  0  0  0  0  0  0  0  0  0
    3.6025    0.8888    0.0002 C   0  0  0  0  0  0  0  0  0  0  0  0
  1  6  2  0
  1  7  1  0
  2 13  1  0
  3 14  1  0
  4  6  1  0
  4  8  2  0
  4  9  1  0
  5  7  2  0
  5  8  1  0
  5 10  1  0
  6 11  1  0
  7 12  1  0
  9 13  2  0
 10 14  2  0
 11 15  2  0
 12 16  2  0
 13 15  1  0
 14 16  1  0
M  END
>  <PUBCHEM_COMPOUND_CID>  (1) 
31625

>  <PUBCHEM_CONFORMER_RMSD>  (1) 
0.4

>  <PUBCHEM_CONFORMER_DIVERSEORDER>  (1) 
1

>  <PUBCHEM_MMFF94_PARTIAL_CHARGES>  (1) 
25
1 -0.62
10 -0.15
11 -0.15
12 -0.15
13 0.1
14 0.1
15 -0.15
16 -0.15
17 0.15
18 0.15
19 0.15
2 -0.9
20 0.15
21 0.15
22 0.15
23 0.15
24 0.4
25 0.4
26 0.4
27 0.4
3 -0.9
6 0.31
7 0.31
8 -0.15
9 -0.15

>  <PUBCHEM_EFFECTIVE_ROTOR_COUNT>  (1) 
0

>  <PUBCHEM_PHARMACOPHORE_FEATURES>  (1) 
8
1 1 acceptor
1 2 cation
1 2 donor
1 3 cation
1 3 donor
6 1 4 5 6 7 8 rings
6 4 6 9 11 13 15 rings
6 5 7 10 12 14 16 rings

>  <PUBCHEM_HEAVY_ATOM_COUNT>  (1) 
16

>  <PUBCHEM_ATOM_DEF_STEREO_COUNT>  (1) 
0

>  <PUBCHEM_ATOM_UDEF_STEREO_COUNT>  (1) 
0

>  <PUBCHEM_BOND_DEF_STEREO_COUNT>  (1) 
0

>  <PUBCHEM_BOND_UDEF_STEREO_COUNT>  (1) 
0

>  <PUBCHEM_ISOTOPIC_ATOM_COUNT>  (1) 
0

>  <PUBCHEM_COMPONENT_COUNT>  (1) 
1

>  <PUBCHEM_CACTVS_TAUTO_COUNT>  (1) 
1

>  <PUBCHEM_CONFORMER_ID>  (1) 
00007B8900000001

>  <PUBCHEM_MMFF94_ENERGY>  (1) 
69.9203

>  <PUBCHEM_FEATURE_SELFOVERLAP>  (1) 
40.656

>  <PUBCHEM_SHAPE_FINGERPRINT>  (1) 
10062212 137 18340478993741997227
10608611 8 18410570686617048512
10967382 1 18338516442663693254
11132069 177 18411974763023370640
11471102 20 18410008862229440764
11806522 49 18337107964295415287
12032990 46 18410577287981334241
12403259 226 18410567392377327364
13221675 6 18410572885645228034
13288520 33 18340208501291970766
13675066 3 18131344202990424642
13690532 89 18409729560221332162
13862211 1 18410569591405812199
14115302 16 17749117732746894471
14144814 61 18410855451564672553
14325111 11 18410855464428702657
15196674 1 18410575084663286789
15442244 35 18194683670420920338
15536298 74 18342175587739408832
16945 1 18410856555344919712
17802600 8 18410570686616697728
17804303 29 18412829074989414316
18186145 218 17894624855335472862
18522853 276 18413669119079232792
19422 9 18410579487004778181
200 152 18130783464945121735
20510252 161 18272653428628532905
20645477 70 18412263934956282046
21267235 1 18410583880756490883
21501502 16 18410859858185482249
21501925 9 18410568496494496344
221490 88 18263651812883803098
23402539 116 18272081700141461295
23402655 69 18412823568904742053
23463225 33 18409167705690423148
23559900 14 18413102858212590840
2748010 2 18410572885645247692
2871803 45 18261104188750134847
296302 2 9151172060414040467
335352 9 18266740181905693277
42 15 18410294704908303499
4214541 1 18410575050424900193
474 4 17096657693682425284
5104073 3 18411700984575327193
69090 78 18343579668124726247
7364860 26 18269555099651641472
77779 3 18410576188469751940
8809292 202 18260553363257554715
9709674 26 18411425002915028470
9981440 41 17398108743559755328

>  <PUBCHEM_SHAPE_MULTIPOLES>  (1) 
314.33
8.29
1.74
0.6
0
0.25
0
-1.99
0
0
0
0
0
0

>  <PUBCHEM_SHAPE_SELFOVERLAP>  (1) 
711.915

>  <PUBCHEM_SHAPE_VOLUME>  (1) 
164.1

>  <PUBCHEM_COORDINATE_TYPE>  (1) 
2
5
10

$$$$
