31629
     RDKit          3D

 16 18  0  0  0  0  0  0  0  0999 V2000
    5.1461   -1.2654    0.0015 Cl  0  0  0  0  0  0  0  0  0  0  0  0
   -0.0318    1.5381    0.0002 N   0  0  0  0  0  0  0  0  0  0  0  0
   -4.8837   -1.2128    0.0005 N   0  0  0  0  0  0  0  0  0  0  0  0
   -1.2264   -0.5503   -0.0002 C   0  0  0  0  0  0  0  0  0  0  0  0
    1.2027   -0.5270   -0.0004 C   0  0  0  0  0  0  0  0  0  0  0  0
   -1.1924    0.8543    0.0000 C   0  0  0  0  0  0  0  0  0  0  0  0
    1.1417    0.8768   -0.0001 C   0  0  0  0  0  0  0  0  0  0  0  0
   -0.0052   -1.2318   -0.0005 C   0  0  0  0  0  0  0  0  0  0  0  0
   -2.4553   -1.2332   -0.0002 C   0  0  0  0  0  0  0  0  0  0  0  0
   -2.4051    1.5385    0.0002 C   0  0  0  0  0  0  0  0  0  0  0  0
    2.4445   -1.1860   -0.0006 C   0  0  0  0  0  0  0  0  0  0  0  0
   -3.6536   -0.5256    0.0000 C   0  0  0  0  0  0  0  0  0  0  0  0
    2.3410    1.5842    0.0000 C   0  0  0  0  0  0  0  0  0  0  0  0
   -3.6281    0.8632    0.0003 C   0  0  0  0  0  0  0  0  0  0  0  0
    3.6290   -0.4554   -0.0005 C   0  0  0  0  0  0  0  0  0  0  0  0
    3.5767    0.9325   -0.0002 C   0  0  0  0  0  0  0  0  0  0  0  0
  1 15  1  0
  2  6  2  0
  2  7  1  0
  3 12  1  0
  4  6  1  0
  4  8  2  0
  4  9  1  0
  5  7  2  0
  5  8  1  0
  5 11  1  0
  6 10  1  0
  7 13  1  0
  9 12  2  0
 10 14  2  0
 11 15  2  0
 12 14  1  0
 13 16  2  0
 15 16  1  0
M  END
>  <PUBCHEM_COMPOUND_CID>  (1) 
31629

>  <PUBCHEM_CONFORMER_RMSD>  (1) 
0.4

>  <PUBCHEM_CONFORMER_DIVERSEORDER>  (1) 
1

>  <PUBCHEM_MMFF94_PARTIAL_CHARGES>  (1) 
23
1 -0.18
10 -0.15
11 -0.15
12 0.1
13 -0.15
14 -0.15
15 0.18
16 -0.15
17 0.15
18 0.15
19 0.15
2 -0.62
20 0.15
21 0.15
22 0.15
23 0.15
24 0.4
25 0.4
3 -0.9
6 0.31
7 0.31
8 -0.15
9 -0.15

>  <PUBCHEM_EFFECTIVE_ROTOR_COUNT>  (1) 
0

>  <PUBCHEM_PHARMACOPHORE_FEATURES>  (1) 
6
1 2 acceptor
1 3 cation
1 3 donor
6 2 4 5 6 7 8 rings
6 4 6 9 10 12 14 rings
6 5 7 11 13 15 16 rings

>  <PUBCHEM_HEAVY_ATOM_COUNT>  (1) 
16

>  <PUBCHEM_ATOM_DEF_STEREO_COUNT>  (1) 
0

>  <PUBCHEM_ATOM_UDEF_STEREO_COUNT>  (1) 
0

>  <PUBCHEM_BOND_DEF_STEREO_COUNT>  (1) 
0

>  <PUBCHEM_BOND_UDEF_STEREO_COUNT>  (1) 
0

>  <PUBCHEM_ISOTOPIC_ATOM_COUNT>  (1) 
0

>  <PUBCHEM_COMPONENT_COUNT>  (1) 
1

>  <PUBCHEM_CACTVS_TAUTO_COUNT>  (1) 
1

>  <PUBCHEM_CONFORMER_ID>  (1) 
00007B8D00000001

>  <PUBCHEM_MMFF94_ENERGY>  (1) 
57.8558

>  <PUBCHEM_FEATURE_SELFOVERLAP>  (1) 
30.507

>  <PUBCHEM_SHAPE_FINGERPRINT>  (1) 
10062212 137 18340761572477823703
10608611 8 18410852165909831969
10967382 1 18338517542170046278
11132069 177 18411975862540286168
11471102 20 18410008866550781820
11806522 49 18337389439287937207
12032990 46 18410577287997164992
12403259 226 18411130346646834497
13221675 6 18410572889934907590
13288520 33 18411984620342632030
13675066 3 18131344203064284162
13690532 89 18409729551942672914
13862211 1 18410851062140303102
14115302 16 17749117728531054942
14144814 61 18410855455880758353
14325111 11 18410856568240540001
15196674 1 18410573989478281316
15442244 35 18266741273038207370
15536298 74 18342174488264704320
16945 1 18194682566350671941
17802600 8 18410852161603899428
17804303 29 18412546496348494404
18186145 218 17822285790652737806
18522853 276 18342174466631566944
19422 9 18410579487020589444
200 152 18130785659346446787
20510252 161 18272934907916041609
20645477 70 18411983559565032686
21267235 1 18410582785539836914
21501502 16 18410859858180213993
21501925 9 18410567397009242336
221490 88 18263651812957656122
23402539 116 18343012268458300063
23402655 69 18412259519576823549
23463225 33 18409167709959036180
23559900 14 18412820292282583968
2748010 2 18410572889934946733
2871803 45 18260822718031468223
296302 2 9079114466323371504
3286 77 18412260649163836724
335352 9 18338797793134059381
42 15 18410576184174713195
4214541 1 18410855425874171809
474 4 17096657693687713028
5104073 3 18411982463852279888
69090 78 18343861147385848199
7364860 26 18269836570386099880
77779 3 18410576192769948516
8809292 202 18260834833781036019
9709674 26 18411425011562952830
9981440 41 17398390214283683720

>  <PUBCHEM_SHAPE_MULTIPOLES>  (1) 
321.18
8.83
1.77
0.61
1.22
0.26
0
-2.7
0
0.03
0
0.04
0
0

>  <PUBCHEM_SHAPE_SELFOVERLAP>  (1) 
716.774

>  <PUBCHEM_SHAPE_VOLUME>  (1) 
171.9

>  <PUBCHEM_COORDINATE_TYPE>  (1) 
2
5
10

$$$$
