31622
     RDKit          3D

 21 22  0  0  1  0  0  0  0  0999 V2000
   -0.3655   -1.0435   -0.1165 O   0  0  0  0  0  0  0  0  0  0  0  0
    1.1953   -2.2417    1.0939 O   0  0  0  0  0  0  0  0  0  0  0  0
   -3.3550   -0.4114    0.6556 O   0  0  0  0  0  0  0  0  0  0  0  0
    2.2058    0.8550    0.1932 C   0  0  0  0  0  0  0  0  0  0  0  0
    3.1869   -0.2634    0.2841 C   0  0  0  0  0  0  0  0  0  0  0  0
    1.8711   -0.4912   -0.3792 C   0  0  0  0  0  0  0  0  0  0  0  0
    1.5560    1.2841    1.4657 C   0  0  0  0  0  0  0  0  0  0  0  0
    2.4238    1.9737   -0.7706 C   0  0  0  0  0  0  0  0  0  0  0  0
    4.3940   -0.2488   -0.5641 C   0  0  0  0  0  0  0  0  0  0  0  0
    0.8940   -1.3665    0.2937 C   0  0  0  0  0  0  0  0  0  0  0  0
    5.5763    0.3419   -0.3047 C   0  0  0  0  0  0  0  0  0  0  0  0
    6.7163    0.2628   -1.2815 C   0  0  0  0  0  0  0  0  0  0  0  0
    5.8660    1.1161    0.9500 C   0  0  0  0  0  0  0  0  0  0  0  0
   -1.4188   -1.8209    0.4619 C   0  0  0  0  0  0  0  0  0  0  0  0
   -2.7451   -1.3846   -0.0547 C   0  0  0  0  0  0  0  0  0  0  0  0
   -3.4915   -1.7750   -1.1257 C   0  0  0  0  0  0  0  0  0  0  0  0
   -4.5316   -0.1687    0.0203 C   0  0  0  0  0  0  0  0  0  0  0  0
   -4.6627   -0.9819   -1.0812 C   0  0  0  0  0  0  0  0  0  0  0  0
   -5.3884    0.8680    0.6126 C   0  0  0  0  0  0  0  0  0  0  0  0
   -5.0913    2.2092    0.0555 C   0  0  0  0  0  0  0  0  0  0  0  0
   -4.8357    3.2869   -0.4081 C   0  0  0  0  0  0  0  0  0  0  0  0
  1 10  1  0
  1 14  1  0
  2 10  2  0
  3 15  1  0
  3 17  1  0
  4  5  1  0
  4  6  1  0
  4  7  1  0
  4  8  1  0
  5  6  1  0
  5  9  1  0
  6 10  1  0
  9 11  2  3
 11 12  1  0
 11 13  1  0
 14 15  1  0
 15 16  2  0
 16 18  1  0
 17 18  2  0
 17 19  1  0
 19 20  1  0
 20 21  3  0
M  END
>  <PUBCHEM_COMPOUND_CID>  (1) 
31622

>  <PUBCHEM_CONFORMER_RMSD>  (1) 
1.2

>  <PUBCHEM_CONFORMER_DIVERSEORDER>  (1) 
1
117
177
133
6
95
118
112
163
152
187
126
37
62
123
11
129
82
150
134
159
72
96
40
29
106
145
55
130
3
84
160
151
104
26
80
111
135
85
12
146
89
39
124
97
183
166
69
71
76
43
23
157
38
170
41
132
18
27
125
94
45
54
188
149
178
107
121
138
9
181
44
48
4
191
91
137
2
102
99
98
156
66
90
35
136
83
49
15
141
47
7
109
78
58
100
5
147
164
176
116
31
51
17
173
75
46
28
179
63
186
34
101
120
119
128
22
158
70
127
174
190
79
21
8
81
50
73
184
64
139
114
53
182
24
154
10
56
115
77
25
172
14
92
110
33
153
143
32
68
13
59
57
42
131
148
171
192
16
30
144
161
162
60
19
103
61
122
87
142
180
105
168
165
65
185
86
93
108
74
169
140
88
52
20
155
175
189
167
36
67
113

>  <PUBCHEM_MMFF94_PARTIAL_CHARGES>  (1) 
27
1 -0.43
10 0.72
11 -0.28
12 0.14
13 0.14
14 0.46
15 -0.04
16 -0.15
17 -0.04
18 -0.15
19 0.38
2 -0.57
20 -0.2
21 -0.18
22 0.1
23 0.1
3 -0.28
30 0.15
39 0.15
4 -0.19
40 0.15
43 0.18
5 -0.06
6 -0.1
7 0.09
8 0.09
9 -0.19

>  <PUBCHEM_EFFECTIVE_ROTOR_COUNT>  (1) 
6.6

>  <PUBCHEM_PHARMACOPHORE_FEATURES>  (1) 
6
1 2 acceptor
1 21 hydrophobe
1 3 acceptor
3 11 12 13 hydrophobe
3 4 7 8 hydrophobe
5 3 15 16 17 18 rings

>  <PUBCHEM_HEAVY_ATOM_COUNT>  (1) 
21

>  <PUBCHEM_ATOM_DEF_STEREO_COUNT>  (1) 
0

>  <PUBCHEM_ATOM_UDEF_STEREO_COUNT>  (1) 
2

>  <PUBCHEM_BOND_DEF_STEREO_COUNT>  (1) 
0

>  <PUBCHEM_BOND_UDEF_STEREO_COUNT>  (1) 
0

>  <PUBCHEM_ISOTOPIC_ATOM_COUNT>  (1) 
0

>  <PUBCHEM_COMPONENT_COUNT>  (1) 
1

>  <PUBCHEM_CACTVS_TAUTO_COUNT>  (1) 
1

>  <PUBCHEM_CONFORMER_ID>  (1) 
00007B8600000001

>  <PUBCHEM_MMFF94_ENERGY>  (1) 
27.5948

>  <PUBCHEM_FEATURE_SELFOVERLAP>  (1) 
30.446

>  <PUBCHEM_SHAPE_FINGERPRINT>  (1) 
10670039 82 18410289212204574165
10906281 52 18041010578779636182
11552529 35 17314241140619417299
12670543 26 18271814510315907646
13177829 73 18408885144113425252
14251752 14 18412545371335912788
14251764 75 17981049609728935713
14790565 3 18261117408680896092
14931854 50 18058159541221569397
14955137 171 11891330942003505130
15183329 4 18412544305957443030
15415430 10 9799688195174555027
15475509 8 18261686896043501508
1601671 61 18334010593032674430
16079462 125 17704061924384847088
17349148 13 12823024157276570998
17780758 139 10953457427894793247
18222031 100 11815898946837961506
20281389 69 18409729547362875721
20621476 66 18409454678072610148
21279426 13 18270122310048674574
21424621 283 18260830419208471688
21709351 56 17775000219432286301
221357 26 18201714102735804749
22393880 68 18131623508924397771
23402539 116 18060700615170732950
23402655 69 18341611499276886119
23559900 14 17203602722395937938
2838139 119 18411979186966318460
439807 62 11887370518748797717
5283173 99 18344144795769225568
54446538 1 18409166653724044669
59682541 35 7925623368403505110
59755656 215 18272094855552390468
6327066 14 18265891351357727501
6328613 192 18114751546341831644
7062679 6 18334862705416345637

>  <PUBCHEM_SHAPE_MULTIPOLES>  (1) 
414.56
15.94
2.6
1.12
5.53
1.33
0.01
7.2
-3.02
-3.98
-0.09
0.54
0
-0.19

>  <PUBCHEM_SHAPE_SELFOVERLAP>  (1) 
854.788

>  <PUBCHEM_SHAPE_VOLUME>  (1) 
241.4

>  <PUBCHEM_COORDINATE_TYPE>  (1) 
2
5
10

$$$$
