31626
     RDKit          3D

 16 18  0  0  0  0  0  0  0  0999 V2000
   -0.3482    1.6897    0.0001 N   0  0  0  0  0  0  0  0  0  0  0  0
    0.0700   -2.4798    0.0024 N   0  0  0  0  0  0  0  0  0  0  0  0
    1.0866   -0.2417   -0.0001 C   0  0  0  0  0  0  0  0  0  0  0  0
   -0.0448   -1.0637   -0.0002 C   0  0  0  0  0  0  0  0  0  0  0  0
   -1.3281   -0.5077   -0.0002 C   0  0  0  0  0  0  0  0  0  0  0  0
    0.8855    1.1490    0.0000 C   0  0  0  0  0  0  0  0  0  0  0  0
    2.3880   -0.7733    0.0000 C   0  0  0  0  0  0  0  0  0  0  0  0
   -1.4346    0.8933   -0.0001 C   0  0  0  0  0  0  0  0  0  0  0  0
    2.0081    1.9727    0.0003 C   0  0  0  0  0  0  0  0  0  0  0  0
    3.4935    0.0721    0.0001 C   0  0  0  0  0  0  0  0  0  0  0  0
   -2.4825   -1.3100   -0.0003 C   0  0  0  0  0  0  0  0  0  0  0  0
    2.7183   -2.2343   -0.0018 C   0  0  0  0  0  0  0  0  0  0  0  0
   -2.7096    1.4529   -0.0001 C   0  0  0  0  0  0  0  0  0  0  0  0
    3.3027    1.4479    0.0003 C   0  0  0  0  0  0  0  0  0  0  0  0
   -3.7456   -0.7257   -0.0003 C   0  0  0  0  0  0  0  0  0  0  0  0
   -3.8590    0.6587   -0.0001 C   0  0  0  0  0  0  0  0  0  0  0  0
  1  6  2  0
  1  8  1  0
  2  4  1  0
  3  4  2  0
  3  6  1  0
  3  7  1  0
  4  5  1  0
  5  8  2  0
  5 11  1  0
  6  9  1  0
  7 10  2  0
  7 12  1  0
  8 13  1  0
  9 14  2  0
 10 14  1  0
 11 15  2  0
 13 16  2  0
 15 16  1  0
M  END
>  <PUBCHEM_COMPOUND_CID>  (1) 
31626

>  <PUBCHEM_CONFORMER_RMSD>  (1) 
0.4

>  <PUBCHEM_CONFORMER_DIVERSEORDER>  (1) 
1

>  <PUBCHEM_MMFF94_PARTIAL_CHARGES>  (1) 
23
1 -0.62
10 -0.15
11 -0.15
12 0.14
13 -0.15
14 -0.15
15 -0.15
16 -0.15
17 0.15
18 0.15
19 0.15
2 -0.9
23 0.15
24 0.15
25 0.4
26 0.4
27 0.15
28 0.15
4 0.1
6 0.31
7 -0.14
8 0.31
9 -0.15

>  <PUBCHEM_EFFECTIVE_ROTOR_COUNT>  (1) 
0

>  <PUBCHEM_PHARMACOPHORE_FEATURES>  (1) 
6
1 1 acceptor
1 2 cation
1 2 donor
6 1 3 4 5 6 8 rings
6 3 6 7 9 10 14 rings
6 5 8 11 13 15 16 rings

>  <PUBCHEM_HEAVY_ATOM_COUNT>  (1) 
16

>  <PUBCHEM_ATOM_DEF_STEREO_COUNT>  (1) 
0

>  <PUBCHEM_ATOM_UDEF_STEREO_COUNT>  (1) 
0

>  <PUBCHEM_BOND_DEF_STEREO_COUNT>  (1) 
0

>  <PUBCHEM_BOND_UDEF_STEREO_COUNT>  (1) 
0

>  <PUBCHEM_ISOTOPIC_ATOM_COUNT>  (1) 
0

>  <PUBCHEM_COMPONENT_COUNT>  (1) 
1

>  <PUBCHEM_CACTVS_TAUTO_COUNT>  (1) 
2

>  <PUBCHEM_CONFORMER_ID>  (1) 
00007B8A00000001

>  <PUBCHEM_MMFF94_ENERGY>  (1) 
78.9592

>  <PUBCHEM_FEATURE_SELFOVERLAP>  (1) 
30.507

>  <PUBCHEM_SHAPE_FINGERPRINT>  (1) 
10411042 1 15960897989816953391
10608611 8 18409444774041490957
10616163 171 18339645662670452799
10967382 1 18410575097569092806
10980938 120 18410293631435537362
11132069 177 18411412912555209833
11471102 20 18410569574251745309
13140716 1 18338798905488170169
13221675 6 18411418435851412895
13380535 76 18337670927123266938
13897977 150 18410290311283503221
14144814 61 18410575093332251865
14325111 11 18410573998179044161
14576447 43 17913192433365463567
14790565 3 15821587675849247984
15196674 1 18410855464454816581
15219456 202 18408886226539992989
15309172 13 18340214067400742435
15442244 35 18267868276619776248
15536298 74 18343021082005452276
15775835 57 18412549833406208101
16945 1 18194402418576761092
18186145 218 18341619187178590821
193761 8 17834395614094700644
200 152 18130777980720342885
20510252 161 18272654579669335673
20559304 39 18410854343927255858
20645477 70 18411695457422038439
21267235 1 18411146830730985231
21501502 16 18411700967548398873
221490 88 18408895026743808026
2334 1 18410855481613567269
23402539 116 18270671073466524476
23402655 69 18341608209653808005
23463225 33 18409448059501198012
23559900 14 18341609266458245210
238 59 15948191027659968469
2748010 2 18409730659743542085
335352 9 18050285869138762589
5104073 3 18410294692508699265
528886 8 18411414024930562569
53812653 166 18342453781160794896
69090 78 18342172306252473999
7364860 26 18341894074171270006
8809292 202 18261118443551619603
9709674 26 18410298037808765119

>  <PUBCHEM_SHAPE_MULTIPOLES>  (1) 
319.31
6.31
2.33
0.61
1.88
0.52
0
-0.44
0
-0.98
0
0
0
0

>  <PUBCHEM_SHAPE_SELFOVERLAP>  (1) 
723.839

>  <PUBCHEM_SHAPE_VOLUME>  (1) 
165.5

>  <PUBCHEM_COORDINATE_TYPE>  (1) 
2
5
10

$$$$
