31621
     RDKit          3D

 22 23  0  0  1  0  0  0  0  0999 V2000
   -0.3642   -0.7855   -0.1054 O   0  0  0  0  0  0  0  0  0  0  0  0
    0.8011   -0.2333   -2.0222 O   0  0  0  0  0  0  0  0  0  0  0  0
   -3.4612    2.3127   -0.3988 O   0  0  0  0  0  0  0  0  0  0  0  0
    2.4459    0.4661    0.8470 C   0  0  0  0  0  0  0  0  0  0  0  0
    3.2141    0.0423   -0.3703 C   0  0  0  0  0  0  0  0  0  0  0  0
    1.9780   -0.6859    0.0288 C   0  0  0  0  0  0  0  0  0  0  0  0
    3.0811    0.2258    2.1753 C   0  0  0  0  0  0  0  0  0  0  0  0
    1.6110    1.7027    0.8015 C   0  0  0  0  0  0  0  0  0  0  0  0
    4.4881   -0.6481   -0.2365 C   0  0  0  0  0  0  0  0  0  0  0  0
    0.7642   -0.5358   -0.8372 C   0  0  0  0  0  0  0  0  0  0  0  0
    5.7111   -0.1012   -0.0994 C   0  0  0  0  0  0  0  0  0  0  0  0
   -1.5944   -0.6772   -0.8079 C   0  0  0  0  0  0  0  0  0  0  0  0
    6.9379   -0.9609    0.0281 C   0  0  0  0  0  0  0  0  0  0  0  0
    5.9649    1.3792   -0.0608 C   0  0  0  0  0  0  0  0  0  0  0  0
   -1.8272    0.7601   -1.2579 C   0  0  0  0  0  0  0  0  0  0  0  0
   -2.7306   -0.9798    0.1312 C   0  0  0  0  0  0  0  0  0  0  0  0
   -3.5371    0.0617    0.3777 C   0  0  0  0  0  0  0  0  0  0  0  0
   -2.9941    1.1830   -0.4148 C   0  0  0  0  0  0  0  0  0  0  0  0
   -2.8510   -2.3607    0.6870 C   0  0  0  0  0  0  0  0  0  0  0  0
   -4.7361    0.2122    1.2343 C   0  0  0  0  0  0  0  0  0  0  0  0
   -5.9523   -0.0727    0.4641 C   0  0  0  0  0  0  0  0  0  0  0  0
   -6.9491   -0.3049   -0.1639 C   0  0  0  0  0  0  0  0  0  0  0  0
  1 10  1  0
  1 12  1  0
  2 10  2  0
  3 18  2  0
  4  5  1  0
  4  6  1  0
  4  7  1  0
  4  8  1  0
  5  6  1  0
  5  9  1  0
  6 10  1  0
  9 11  2  3
 11 13  1  0
 11 14  1  0
 12 15  1  0
 12 16  1  0
 15 18  1  0
 16 17  2  0
 16 19  1  0
 17 18  1  0
 17 20  1  0
 20 21  1  0
 21 22  3  0
M  END
>  <PUBCHEM_COMPOUND_CID>  (1) 
31621

>  <PUBCHEM_CONFORMER_RMSD>  (1) 
0.8

>  <PUBCHEM_CONFORMER_DIVERSEORDER>  (1) 
9
130
122
168
118
81
141
31
87
172
32
154
173
54
82
85
117
176
175
62
163
161
29
162
167
110
158
129
127
103
183
101
108
180
121
24
23
88
137
170
159
124
116
133
152
2
22
126
182
166
55
40
64
84
106
113
179
76
184
53
169
46
115
38
149
128
155
95
99
145
19
140
151
148
131
147
78
89
91
178
157
143
37
86
144
107
138
156
10
136
146
164
96
92
100
39
58
160
109
30
112
49
150
7
74
120
177
94
65
125
123
60
20
174
111
43
135
80
61
72
1
33
18
27
44
171
93
77
119
51
56
132
41
52
90
36
105
6
181
11
97
50
153
66
17
114
102
25
45
98
28
79
16
69
21
34
73
35
75
165
15
5
134
26
14
8
139
71
83
142
12
59
3
13
68
42
48
4
57
63
104
67
70
47

>  <PUBCHEM_MMFF94_PARTIAL_CHARGES>  (1) 
26
1 -0.43
10 0.72
11 -0.28
12 0.42
13 0.14
14 0.14
15 0.06
16 -0.28
17 -0.12
18 0.49
19 0.14
2 -0.57
20 0.34
21 -0.2
22 -0.18
23 0.1
24 0.1
3 -0.57
31 0.15
4 -0.19
46 0.18
5 -0.06
6 -0.1
7 0.09
8 0.09
9 -0.19

>  <PUBCHEM_EFFECTIVE_ROTOR_COUNT>  (1) 
6

>  <PUBCHEM_PHARMACOPHORE_FEATURES>  (1) 
6
1 2 acceptor
1 22 hydrophobe
1 3 acceptor
3 11 13 14 hydrophobe
3 4 7 8 hydrophobe
5 12 15 16 17 18 rings

>  <PUBCHEM_HEAVY_ATOM_COUNT>  (1) 
22

>  <PUBCHEM_ATOM_DEF_STEREO_COUNT>  (1) 
2

>  <PUBCHEM_ATOM_UDEF_STEREO_COUNT>  (1) 
1

>  <PUBCHEM_BOND_DEF_STEREO_COUNT>  (1) 
0

>  <PUBCHEM_BOND_UDEF_STEREO_COUNT>  (1) 
0

>  <PUBCHEM_ISOTOPIC_ATOM_COUNT>  (1) 
0

>  <PUBCHEM_COMPONENT_COUNT>  (1) 
1

>  <PUBCHEM_CACTVS_TAUTO_COUNT>  (1) 
5

>  <PUBCHEM_CONFORMER_ID>  (1) 
00007B8500000009

>  <PUBCHEM_MMFF94_ENERGY>  (1) 
30.9366

>  <PUBCHEM_FEATURE_SELFOVERLAP>  (1) 
30.446

>  <PUBCHEM_SHAPE_FINGERPRINT>  (1) 
10 15 18187643643908933696
10354089 29 17489588956776696974
10366900 7 18335975454391933683
106641 1 17749394805550678337
10968037 39 8574709092355969771
11045977 3 18341050821904340803
11315181 36 17167870763704922389
11646440 116 14333413367241077827
12166972 35 16773792632108550865
12236239 1 17022626381292377855
12403259 415 17846205649056831905
12507557 5 17060338547724933154
12516196 113 15719391741500500887
12553582 1 16153980348056197922
12596602 18 17748826297941608080
12633257 1 18410005568089784409
12788726 201 9295021128702297087
14123256 10 13045945707591530282
14170010 4 15985109604573640862
14251764 18 17917990590296950732
14341114 176 18334580156945789044
15527383 91 17418092126881008088
15537594 2 16732978747511309770
15788980 27 12103844583810995548
1601671 61 17275386491569245276
17844677 252 18334863805613885964
1813 80 16009037129336356238
20281389 69 18343863316655582120
21033648 29 18130493163499856097
21065198 48 17023176068281443497
21267235 1 16226054378928634558
21521721 280 15357990005414643036
21792961 116 18272940384732358910
22224240 67 17676767651736731050
23402539 116 12823289092154500000
23536379 177 18260830376517189850
23559900 14 18337106886348320873
23569943 247 14475309655442730156
23622692 88 17676490561974370631
339767 52 16370727045638906265
34797466 226 18339092553172487236
3545911 37 17632859724264919479
5486654 2 13840270282180873512
57724786 102 17346027982918019872
59755656 215 18408325458177432583
59755656 520 16415473853206234191
9996256 80 18060698394741303847

>  <PUBCHEM_SHAPE_MULTIPOLES>  (1) 
435.14
16.1
1.58
1.3
3.13
0.16
0.17
-0.4
1.77
-0.58
0.11
0.22
0.09
0.63

>  <PUBCHEM_SHAPE_SELFOVERLAP>  (1) 
900.179

>  <PUBCHEM_SHAPE_VOLUME>  (1) 
253

>  <PUBCHEM_COORDINATE_TYPE>  (1) 
2
5
10

$$$$
