31624
     RDKit          3D

 16 18  0  0  0  0  0  0  0  0999 V2000
   -0.4110    1.5983   -0.0001 N   0  0  0  0  0  0  0  0  0  0  0  0
   -0.1356   -2.5839   -0.0009 N   0  0  0  0  0  0  0  0  0  0  0  0
    4.6350   -0.7781   -0.0001 N   0  0  0  0  0  0  0  0  0  0  0  0
    0.9378   -0.3941    0.0001 C   0  0  0  0  0  0  0  0  0  0  0  0
   -1.4863   -0.5539    0.0002 C   0  0  0  0  0  0  0  0  0  0  0  0
   -0.2286   -1.1657    0.0003 C   0  0  0  0  0  0  0  0  0  0  0  0
    0.7978    1.0041   -0.0001 C   0  0  0  0  0  0  0  0  0  0  0  0
   -1.5313    0.8504   -0.0001 C   0  0  0  0  0  0  0  0  0  0  0  0
    2.2146   -0.9822    0.0003 C   0  0  0  0  0  0  0  0  0  0  0  0
    1.9555    1.7778   -0.0001 C   0  0  0  0  0  0  0  0  0  0  0  0
   -2.6748   -1.3049    0.0003 C   0  0  0  0  0  0  0  0  0  0  0  0
    3.3562   -0.1862    0.0002 C   0  0  0  0  0  0  0  0  0  0  0  0
   -2.7805    1.4653   -0.0002 C   0  0  0  0  0  0  0  0  0  0  0  0
    3.2258    1.1967    0.0000 C   0  0  0  0  0  0  0  0  0  0  0  0
   -3.9110   -0.6658    0.0002 C   0  0  0  0  0  0  0  0  0  0  0  0
   -3.9636    0.7223    0.0000 C   0  0  0  0  0  0  0  0  0  0  0  0
  1  7  2  0
  1  8  1  0
  2  6  1  0
  3 12  1  0
  4  6  2  0
  4  7  1  0
  4  9  1  0
  5  6  1  0
  5  8  2  0
  5 11  1  0
  7 10  1  0
  8 13  1  0
  9 12  2  0
 10 14  2  0
 11 15  2  0
 12 14  1  0
 13 16  2  0
 15 16  1  0
M  END
>  <PUBCHEM_COMPOUND_CID>  (1) 
31624

>  <PUBCHEM_CONFORMER_RMSD>  (1) 
0.4

>  <PUBCHEM_CONFORMER_DIVERSEORDER>  (1) 
1

>  <PUBCHEM_MMFF94_PARTIAL_CHARGES>  (1) 
25
1 -0.62
10 -0.15
11 -0.15
12 0.1
13 -0.15
14 -0.15
15 -0.15
16 -0.15
17 0.15
18 0.15
19 0.15
2 -0.9
20 0.15
21 0.15
22 0.15
23 0.15
24 0.4
25 0.4
26 0.4
27 0.4
3 -0.9
6 0.1
7 0.31
8 0.31
9 -0.15

>  <PUBCHEM_EFFECTIVE_ROTOR_COUNT>  (1) 
0

>  <PUBCHEM_PHARMACOPHORE_FEATURES>  (1) 
8
1 1 acceptor
1 2 cation
1 2 donor
1 3 cation
1 3 donor
6 1 4 5 6 7 8 rings
6 4 7 9 10 12 14 rings
6 5 8 11 13 15 16 rings

>  <PUBCHEM_HEAVY_ATOM_COUNT>  (1) 
16

>  <PUBCHEM_ATOM_DEF_STEREO_COUNT>  (1) 
0

>  <PUBCHEM_ATOM_UDEF_STEREO_COUNT>  (1) 
0

>  <PUBCHEM_BOND_DEF_STEREO_COUNT>  (1) 
0

>  <PUBCHEM_BOND_UDEF_STEREO_COUNT>  (1) 
0

>  <PUBCHEM_ISOTOPIC_ATOM_COUNT>  (1) 
0

>  <PUBCHEM_COMPONENT_COUNT>  (1) 
1

>  <PUBCHEM_CACTVS_TAUTO_COUNT>  (1) 
2

>  <PUBCHEM_CONFORMER_ID>  (1) 
00007B8800000001

>  <PUBCHEM_MMFF94_ENERGY>  (1) 
77.5417

>  <PUBCHEM_FEATURE_SELFOVERLAP>  (1) 
40.656

>  <PUBCHEM_SHAPE_FINGERPRINT>  (1) 
10062212 137 18411691076275899307
10411042 1 15744724868316298710
10608611 8 18411133666698531457
10967382 1 18410575058909131879
11132069 177 18412538816725312760
11471102 20 18410569604327156812
12032990 46 18410015454745757699
13140716 1 18411142450138552873
13221675 6 18410009939981401835
13288520 33 18340771451445800182
13380535 76 18411138026142993479
13690532 89 18409448064170692202
13862211 1 18410568474877754598
14144814 61 18410292527370557497
14325111 11 18410855490282902465
15196674 1 18410856589715194597
15309172 13 18411990160734418923
15442244 35 18266740182058498410
15536298 74 18342457071248103264
16945 1 18410855464423129094
17802600 8 18410569591442326245
17804303 29 18411704287526561148
18186145 218 18409446977159052501
18522853 276 18342174470905539184
193761 8 17689998929556676673
200 152 18060412526176423597
20510252 161 18272653462882860713
20645476 183 17824562965249441270
21267235 1 18410583889425488307
21501502 16 18267585882467336220
221490 88 18263651821415617962
2334 1 18338799021621254181
23402539 116 18271798021297882086
23402655 69 18341609300485823877
23463225 33 18408040706140044924
23559900 14 18272087215159245304
2748010 2 18410012164996130789
335352 9 18338798892671885533
43471831 8 18335416803458455378
474 4 16951978477653371084
5104073 3 18411138064702462232
528886 8 18411132528515906217
53812653 166 18413386523031583928
54173680 148 18120657087212846707
69090 78 18343015627143999751
7364860 26 18197216940753325287
8809292 202 18261116308942239571
9709674 26 18340493351923422830
9981440 41 17325488199621153608

>  <PUBCHEM_SHAPE_MULTIPOLES>  (1) 
314.33
7.07
2
0.6
0.99
0.29
0
-0.08
0
-0.04
0
-0.02
-0.01
0

>  <PUBCHEM_SHAPE_SELFOVERLAP>  (1) 
713.513

>  <PUBCHEM_SHAPE_VOLUME>  (1) 
163.7

>  <PUBCHEM_COORDINATE_TYPE>  (1) 
2
5
10

$$$$
