31637
     RDKit          3D

 10 10  0  0  1  0  0  0  0  0999 V2000
    0.0534   -2.6556    0.1951 Cl  0  0  0  0  0  0  0  0  0  0  0  0
   -2.7925   -0.8232   -0.3994 Cl  0  0  0  0  0  0  0  0  0  0  0  0
    0.4374    1.2362    0.3832 O   0  0  0  0  0  0  0  0  0  0  0  0
    2.0371   -0.2508   -0.5095 O   0  0  0  0  0  0  0  0  0  0  0  0
   -1.6550    2.0780   -0.0719 O   0  0  0  0  0  0  0  0  0  0  0  0
    1.0178   -0.0751    0.4609 C   0  0  0  0  0  0  0  0  0  0  0  0
   -0.1235   -0.9651    0.1761 C   0  0  0  0  0  0  0  0  0  0  0  0
   -1.2348   -0.2799   -0.0483 C   0  0  0  0  0  0  0  0  0  0  0  0
   -0.8917    1.1392    0.0729 C   0  0  0  0  0  0  0  0  0  0  0  0
    3.1517    0.5964   -0.2590 C   0  0  0  0  0  0  0  0  0  0  0  0
  1  7  1  0
  2  8  1  0
  3  6  1  0
  3  9  1  0
  4  6  1  0
  4 10  1  0
  5  9  2  0
  6  7  1  0
  7  8  2  0
  8  9  1  0
M  END
>  <PUBCHEM_COMPOUND_CID>  (1) 
31637

>  <PUBCHEM_CONFORMER_RMSD>  (1) 
0.4

>  <PUBCHEM_CONFORMER_DIVERSEORDER>  (1) 
2
1
3

>  <PUBCHEM_MMFF94_PARTIAL_CHARGES>  (1) 
9
1 -0.14
10 0.28
2 -0.14
3 -0.43
4 -0.56
5 -0.57
6 0.7
8 0.15
9 0.71

>  <PUBCHEM_EFFECTIVE_ROTOR_COUNT>  (1) 
1.4

>  <PUBCHEM_PHARMACOPHORE_FEATURES>  (1) 
3
1 4 acceptor
1 5 acceptor
5 3 6 7 8 9 rings

>  <PUBCHEM_HEAVY_ATOM_COUNT>  (1) 
10

>  <PUBCHEM_ATOM_DEF_STEREO_COUNT>  (1) 
0

>  <PUBCHEM_ATOM_UDEF_STEREO_COUNT>  (1) 
1

>  <PUBCHEM_BOND_DEF_STEREO_COUNT>  (1) 
0

>  <PUBCHEM_BOND_UDEF_STEREO_COUNT>  (1) 
0

>  <PUBCHEM_ISOTOPIC_ATOM_COUNT>  (1) 
0

>  <PUBCHEM_COMPONENT_COUNT>  (1) 
1

>  <PUBCHEM_CACTVS_TAUTO_COUNT>  (1) 
1

>  <PUBCHEM_CONFORMER_ID>  (1) 
00007B9500000002

>  <PUBCHEM_MMFF94_ENERGY>  (1) 
12.603

>  <PUBCHEM_FEATURE_SELFOVERLAP>  (1) 
15.223

>  <PUBCHEM_SHAPE_FINGERPRINT>  (1) 
11206711 2 18410852161772893301
12716758 59 18411984667740162098
12897270 3 18410852157435487431
16945 1 18337953501405773106
193761 8 18050284773974979155
21040471 1 17980189795202273545
23402539 116 18340473569377481958
23552423 10 18120373159672413007
241688 4 17978508959613756186
2748010 2 18338799992225782438
29004967 10 16128658548224089586
5084963 1 18202846564798820370
68250623 7 18123191203964187819

>  <PUBCHEM_SHAPE_MULTIPOLES>  (1) 
191.93
3.49
2.21
0.68
1.45
0.67
0
-0.38
0.79
-0.76
-0.17
0.03
0.05
-0.04

>  <PUBCHEM_SHAPE_SELFOVERLAP>  (1) 
377.297

>  <PUBCHEM_SHAPE_VOLUME>  (1) 
117.7

>  <PUBCHEM_COORDINATE_TYPE>  (1) 
2
5
10

$$$$
