31639
     RDKit          3D

 14 15  0  0  1  0  0  0  0  0999 V2000
   -0.2385   -2.3627    0.3190 F   0  0  0  0  0  0  0  0  0  0  0  0
   -0.8560    2.2139    0.1368 N   0  0  0  0  0  0  0  0  0  0  0  0
    3.9839   -1.1306    0.0131 N   0  0  0  0  0  0  0  0  0  0  0  0
    1.8856   -0.0955    0.8312 C   0  0  0  0  0  0  0  0  0  0  0  0
    0.6228    0.6021    0.5140 C   0  0  0  0  0  0  0  0  0  0  0  0
    2.7758   -0.4098   -0.3993 C   0  0  0  0  0  0  0  0  0  0  0  0
   -0.6278   -0.0042    0.2085 C   0  0  0  0  0  0  0  0  0  0  0  0
   -1.5382    1.0290   -0.0237 C   0  0  0  0  0  0  0  0  0  0  0  0
    0.4506    1.9662    0.4618 C   0  0  0  0  0  0  0  0  0  0  0  0
    3.2025    0.8545   -1.1450 C   0  0  0  0  0  0  0  0  0  0  0  0
   -1.0739   -1.3369    0.1070 C   0  0  0  0  0  0  0  0  0  0  0  0
   -2.8779    0.7950   -0.3534 C   0  0  0  0  0  0  0  0  0  0  0  0
   -2.4112   -1.5860   -0.2220 C   0  0  0  0  0  0  0  0  0  0  0  0
   -3.2977   -0.5349   -0.4480 C   0  0  0  0  0  0  0  0  0  0  0  0
  1 11  1  0
  2  8  1  0
  2  9  1  0
  3  6  1  0
  4  5  1  0
  4  6  1  0
  5  7  1  0
  5  9  2  0
  6 10  1  0
  7  8  2  0
  7 11  1  0
  8 12  1  0
 11 13  2  0
 12 14  2  0
 13 14  1  0
M  END
>  <PUBCHEM_COMPOUND_CID>  (1) 
31639

>  <PUBCHEM_CONFORMER_RMSD>  (1) 
0.6

>  <PUBCHEM_CONFORMER_DIVERSEORDER>  (1) 
1
10
4
9
5
6
2
3
7
8

>  <PUBCHEM_MMFF94_PARTIAL_CHARGES>  (1) 
19
1 -0.19
11 0.19
12 -0.15
13 -0.15
14 -0.15
18 0.15
19 0.27
2 0.03
23 0.15
24 0.36
25 0.36
26 0.15
27 0.15
3 -0.99
4 0.18
5 -0.18
6 0.27
8 -0.15
9 -0.3

>  <PUBCHEM_EFFECTIVE_ROTOR_COUNT>  (1) 
2

>  <PUBCHEM_PHARMACOPHORE_FEATURES>  (1) 
6
1 2 cation
1 2 donor
1 3 cation
1 3 donor
5 2 5 7 8 9 rings
6 7 8 11 12 13 14 rings

>  <PUBCHEM_HEAVY_ATOM_COUNT>  (1) 
14

>  <PUBCHEM_ATOM_DEF_STEREO_COUNT>  (1) 
0

>  <PUBCHEM_ATOM_UDEF_STEREO_COUNT>  (1) 
1

>  <PUBCHEM_BOND_DEF_STEREO_COUNT>  (1) 
0

>  <PUBCHEM_BOND_UDEF_STEREO_COUNT>  (1) 
0

>  <PUBCHEM_ISOTOPIC_ATOM_COUNT>  (1) 
0

>  <PUBCHEM_COMPONENT_COUNT>  (1) 
1

>  <PUBCHEM_CACTVS_TAUTO_COUNT>  (1) 
1

>  <PUBCHEM_CONFORMER_ID>  (1) 
00007B9700000001

>  <PUBCHEM_MMFF94_ENERGY>  (1) 
13.1723

>  <PUBCHEM_FEATURE_SELFOVERLAP>  (1) 
30.538

>  <PUBCHEM_SHAPE_FINGERPRINT>  (1) 
10062212 137 18337379436135414803
10465860 71 18341345473492750900
11206711 2 18336815455684871573
12032990 46 18411418457817080699
12524768 44 17906158913021229499
14115302 16 18261112980468938774
14911166 2 18339068329330084013
16945 1 18339630171055413697
18186145 218 17022901263626047284
18619055 16 18335140920860836740
20201158 50 18131071515416834798
20645476 183 17821443556124668227
20871999 31 18409450323128356917
22721475 48 18272376394463058270
22802520 49 18343586260825562114
2334 1 18194672903091006977
23402539 116 18340477881682805156
23463225 33 18263639580769672642
23552423 10 18117835736085845597
23557571 272 18131354081864020656
23559900 14 18343013355992322154
238 59 13881872902910249366
2748010 2 18193822967812727713
7364860 26 17911797186884088737
81228 2 18129113242253013152

>  <PUBCHEM_SHAPE_MULTIPOLES>  (1) 
270.88
5.43
2.09
0.84
2.83
0.05
-0.07
-1.4
-1.49
-0.46
0.18
0.38
0.09
-0.16

>  <PUBCHEM_SHAPE_SELFOVERLAP>  (1) 
581.521

>  <PUBCHEM_SHAPE_VOLUME>  (1) 
151.6

>  <PUBCHEM_COORDINATE_TYPE>  (1) 
2
5
10

$$$$
