31636
     RDKit          3D

 17 19  0  0  0  0  0  0  0  0999 V2000
   -6.0684    0.5512    0.0042 I   0  0  0  0  0  0  0  0  0  0  0  0
    5.0239   -0.7675    0.0018 O   0  0  0  0  0  0  0  0  0  0  0  0
    4.6432    1.3945    0.0003 O   0  0  0  0  0  0  0  0  0  0  0  0
    4.2354    0.2081    0.0008 N   0  0  0  0  0  0  0  0  0  0  0  0
   -0.5644    1.7362   -0.0008 C   0  0  0  0  0  0  0  0  0  0  0  0
    0.5905    0.7564   -0.0007 C   0  0  0  0  0  0  0  0  0  0  0  0
    0.1114   -0.5729   -0.0006 C   0  0  0  0  0  0  0  0  0  0  0  0
   -1.7589    0.8052   -0.0009 C   0  0  0  0  0  0  0  0  0  0  0  0
   -1.3354   -0.5429   -0.0008 C   0  0  0  0  0  0  0  0  0  0  0  0
    1.9456    1.0367   -0.0005 C   0  0  0  0  0  0  0  0  0  0  0  0
    0.9952   -1.6392   -0.0002 C   0  0  0  0  0  0  0  0  0  0  0  0
   -3.1013    1.1414   -0.0008 C   0  0  0  0  0  0  0  0  0  0  0  0
   -2.2626   -1.5715   -0.0005 C   0  0  0  0  0  0  0  0  0  0  0  0
    2.8362   -0.0383    0.0000 C   0  0  0  0  0  0  0  0  0  0  0  0
    2.3658   -1.3628    0.0002 C   0  0  0  0  0  0  0  0  0  0  0  0
   -4.0357    0.1042   -0.0008 C   0  0  0  0  0  0  0  0  0  0  0  0
   -3.6206   -1.2387   -0.0007 C   0  0  0  0  0  0  0  0  0  0  0  0
  1 16  1  0
  2  4  1  0
  3  4  2  0
  4 14  1  0
  5  6  1  0
  5  8  1  0
  6  7  2  0
  6 10  1  0
  7  9  1  0
  7 11  1  0
  8  9  2  0
  8 12  1  0
  9 13  1  0
 10 14  2  0
 11 15  2  0
 12 16  2  0
 13 17  2  0
 14 15  1  0
 16 17  1  0
M  CHG  2   2  -1   4   1
M  END
>  <PUBCHEM_COMPOUND_CID>  (1) 
31636

>  <PUBCHEM_CONFORMER_RMSD>  (1) 
0.6

>  <PUBCHEM_CONFORMER_DIVERSEORDER>  (1) 
1

>  <PUBCHEM_MMFF94_PARTIAL_CHARGES>  (1) 
21
1 -0.08
10 -0.15
11 -0.15
12 -0.15
13 -0.15
14 0.13
15 -0.15
16 0.08
17 -0.15
2 -0.52
20 0.15
21 0.15
22 0.15
23 0.15
24 0.15
25 0.15
3 -0.52
4 0.91
5 0.29
6 -0.14
8 -0.14

>  <PUBCHEM_EFFECTIVE_ROTOR_COUNT>  (1) 
1.2

>  <PUBCHEM_PHARMACOPHORE_FEATURES>  (1) 
7
1 1 hydrophobe
1 2 acceptor
1 2 anion
1 3 acceptor
5 5 6 7 8 9 rings
6 6 7 10 11 14 15 rings
6 8 9 12 13 16 17 rings

>  <PUBCHEM_HEAVY_ATOM_COUNT>  (1) 
17

>  <PUBCHEM_ATOM_DEF_STEREO_COUNT>  (1) 
0

>  <PUBCHEM_ATOM_UDEF_STEREO_COUNT>  (1) 
0

>  <PUBCHEM_BOND_DEF_STEREO_COUNT>  (1) 
0

>  <PUBCHEM_BOND_UDEF_STEREO_COUNT>  (1) 
0

>  <PUBCHEM_ISOTOPIC_ATOM_COUNT>  (1) 
0

>  <PUBCHEM_COMPONENT_COUNT>  (1) 
1

>  <PUBCHEM_CACTVS_TAUTO_COUNT>  (1) 
1

>  <PUBCHEM_CONFORMER_ID>  (1) 
00007B9400000001

>  <PUBCHEM_MMFF94_ENERGY>  (1) 
58.0744

>  <PUBCHEM_FEATURE_SELFOVERLAP>  (1) 
35.766

>  <PUBCHEM_SHAPE_FINGERPRINT>  (1) 
10906281 52 18340225032715895549
10967382 1 18410855434485198919
11132069 177 18410290328500204776
11401426 45 18411416224333600101
11471102 20 18411416198447745351
12236239 1 17967251996607533321
12251169 10 18411702084540524205
13140716 1 18266181810735666425
13214271 11 18411980290894349911
13288520 33 18412829070910601534
13862211 1 18410851053544781927
14115302 16 18114473330643508919
15048467 5 18202284693346628553
15196674 1 18410855494493304839
15375358 24 18410576180080478807
15536298 74 18342459214415691494
16945 1 18338516326768187013
17834072 33 18060133271671366253
18522853 276 18412827980115593297
19141452 34 18343584062298263335
200 152 17988921185043008807
20510252 161 18200595774714348321
20645477 70 18271807852515511151
21029758 11 18343579651293179137
21267235 1 18410582759849043971
21421861 104 17823972334073684891
23402539 116 18273208703955099773
23402655 69 18342732980305810229
23463225 33 18408322189632739726
23557571 272 18339647732823467340
23559900 14 18341610456074697472
26918003 58 17967818249680962443
2748010 2 18122621914538687333
2871803 45 18335981986910427710
296302 2 18411420613763867807
3312278 4 18411983563595911523
335352 9 18410575080394498823
34934 24 18410569591816944055
3545911 37 18410013221642390623
4072396 5 18337096900391251666
4214541 1 18410855434501094629
4340502 62 16732707125727250075
4463277 17 18410575080980242713
474 4 17169276038761308172
4990 188 18060146418687591830
5104073 3 18410011065268135090
59755656 215 18338804412006080422
69090 78 18341609309471247743
8809292 202 18188494686966976491
9709674 26 18411143536544096166
9981440 41 17179972246067974817

>  <PUBCHEM_SHAPE_MULTIPOLES>  (1) 
345.07
10.77
1.7
0.62
2.31
0.13
0
-1.4
0.01
-0.15
0
0.19
0
0

>  <PUBCHEM_SHAPE_SELFOVERLAP>  (1) 
749.572

>  <PUBCHEM_SHAPE_VOLUME>  (1) 
193.6

>  <PUBCHEM_COORDINATE_TYPE>  (1) 
2
5
10

$$$$
