31644
     RDKit          3D

 11 10  0  0  0  0  0  0  0  0999 V2000
    2.1990    1.5357    0.4735 O   0  0  0  0  0  0  0  0  0  0  0  0
    1.5926    0.9041   -1.5483 O   0  0  0  0  0  0  0  0  0  0  0  0
   -3.4309    1.0499    0.3838 O   0  0  0  0  0  0  0  0  0  0  0  0
   -3.0457   -0.9580   -0.6000 O   0  0  0  0  0  0  0  0  0  0  0  0
    1.7215    0.7295   -0.3319 N   0  0  0  0  0  0  0  0  0  0  0  0
    1.2785   -0.5862    0.2088 C   0  0  0  0  0  0  0  0  0  0  0  0
   -0.2064   -0.7738   -0.1690 C   0  0  0  0  0  0  0  0  0  0  0  0
    1.5566   -0.5716    1.7095 C   0  0  0  0  0  0  0  0  0  0  0  0
    2.1459   -1.6361   -0.4904 C   0  0  0  0  0  0  0  0  0  0  0  0
   -1.1832    0.2823    0.3674 C   0  0  0  0  0  0  0  0  0  0  0  0
   -2.6279    0.0243   -0.0035 C   0  0  0  0  0  0  0  0  0  0  0  0
  1  5  1  0
  2  5  2  0
  3 11  1  0
  4 11  2  0
  5  6  1  0
  6  7  1  0
  6  8  1  0
  6  9  1  0
  7 10  1  0
 10 11  1  0
M  CHG  2   1  -1   5   1
M  END
>  <PUBCHEM_COMPOUND_CID>  (1) 
31644

>  <PUBCHEM_CONFORMER_RMSD>  (1) 
0.6

>  <PUBCHEM_CONFORMER_DIVERSEORDER>  (1) 
1
12
2
11
5
18
10
6
9
4
21
7
15
17
13
16
19
14
20
3
8

>  <PUBCHEM_MMFF94_PARTIAL_CHARGES>  (1) 
9
1 -0.52
10 0.06
11 0.66
2 -0.52
22 0.5
3 -0.65
4 -0.57
5 0.8
6 0.24

>  <PUBCHEM_EFFECTIVE_ROTOR_COUNT>  (1) 
4

>  <PUBCHEM_PHARMACOPHORE_FEATURES>  (1) 
7
1 1 acceptor
1 1 anion
1 2 acceptor
1 3 acceptor
1 4 acceptor
3 3 4 11 anion
3 6 8 9 hydrophobe

>  <PUBCHEM_HEAVY_ATOM_COUNT>  (1) 
11

>  <PUBCHEM_ATOM_DEF_STEREO_COUNT>  (1) 
0

>  <PUBCHEM_ATOM_UDEF_STEREO_COUNT>  (1) 
0

>  <PUBCHEM_BOND_DEF_STEREO_COUNT>  (1) 
0

>  <PUBCHEM_BOND_UDEF_STEREO_COUNT>  (1) 
0

>  <PUBCHEM_ISOTOPIC_ATOM_COUNT>  (1) 
0

>  <PUBCHEM_COMPONENT_COUNT>  (1) 
1

>  <PUBCHEM_CACTVS_TAUTO_COUNT>  (1) 
1

>  <PUBCHEM_CONFORMER_ID>  (1) 
00007B9C00000001

>  <PUBCHEM_MMFF94_ENERGY>  (1) 
22.5888

>  <PUBCHEM_FEATURE_SELFOVERLAP>  (1) 
35.66

>  <PUBCHEM_SHAPE_FINGERPRINT>  (1) 
12897270 3 18201443613926799661
12932764 1 17313384496375179043
14128692 85 18058179331966184638
14390081 3 18340769329468257233
15775835 57 18411986870710465589
170605 34 18188772867640161984
18186145 218 17894910694647828663
20653091 64 17967814899353315832
21524375 3 17753335567094549460
230 275 17676204692887244265
23552423 10 18341048528133672807
3248919 1 18411971464942284731
5084963 1 18200875071841777339

>  <PUBCHEM_SHAPE_MULTIPOLES>  (1) 
197.92
4.69
1.4
1.16
4.5
0.06
-0.17
0.26
0.08
-0.72
0.17
-0.73
0.03
-0.32

>  <PUBCHEM_SHAPE_SELFOVERLAP>  (1) 
378.904

>  <PUBCHEM_SHAPE_VOLUME>  (1) 
122.2

>  <PUBCHEM_COORDINATE_TYPE>  (1) 
2
5
10

$$$$
