31640
     RDKit          3D

 24 26  0  0  0  0  0  0  0  0999 V2000
   -1.4214   -4.6312   -0.0696 Cl  0  0  0  0  0  0  0  0  0  0  0  0
    4.1737    0.8457    2.1299 F   0  0  0  0  0  0  0  0  0  0  0  0
    2.4820    2.0568    1.4770 F   0  0  0  0  0  0  0  0  0  0  0  0
    2.1645   -0.0011    2.1421 F   0  0  0  0  0  0  0  0  0  0  0  0
    2.3597    2.3383   -1.6949 O   0  0  0  0  0  0  0  0  0  0  0  0
    1.9574    0.2702   -0.6992 N   0  0  0  0  0  0  0  0  0  0  0  0
   -0.6787    1.3470   -1.7543 N   0  0  0  0  0  0  0  0  0  0  0  0
    1.1067   -0.8740   -0.5143 C   0  0  0  0  0  0  0  0  0  0  0  0
   -0.2949   -0.8243   -0.6638 C   0  0  0  0  0  0  0  0  0  0  0  0
    3.2132    0.3215    0.0494 C   0  0  0  0  0  0  0  0  0  0  0  0
   -1.0336    0.4528   -0.8946 C   0  0  0  0  0  0  0  0  0  0  0  0
    1.6858    1.3093   -1.5968 C   0  0  0  0  0  0  0  0  0  0  0  0
    0.5191    1.0982   -2.5286 C   0  0  0  0  0  0  0  0  0  0  0  0
    1.6800   -2.1096   -0.1536 C   0  0  0  0  0  0  0  0  0  0  0  0
   -1.0681   -1.9923   -0.5326 C   0  0  0  0  0  0  0  0  0  0  0  0
   -2.2499    0.7396   -0.0803 C   0  0  0  0  0  0  0  0  0  0  0  0
    3.0005    0.8103    1.4600 C   0  0  0  0  0  0  0  0  0  0  0  0
    0.9029   -3.2613   -0.0055 C   0  0  0  0  0  0  0  0  0  0  0  0
   -0.4691   -3.2052   -0.2071 C   0  0  0  0  0  0  0  0  0  0  0  0
   -2.3484    0.2347    1.2105 C   0  0  0  0  0  0  0  0  0  0  0  0
   -3.2715    1.5106   -0.6216 C   0  0  0  0  0  0  0  0  0  0  0  0
   -3.4855    0.5050    1.9717 C   0  0  0  0  0  0  0  0  0  0  0  0
   -4.4086    1.7809    0.1397 C   0  0  0  0  0  0  0  0  0  0  0  0
   -4.5157    1.2781    1.4364 C   0  0  0  0  0  0  0  0  0  0  0  0
  1 19  1  0
  2 17  1  0
  3 17  1  0
  4 17  1  0
  5 12  2  0
  6  8  1  0
  6 10  1  0
  6 12  1  0
  7 11  2  0
  7 13  1  0
  8  9  2  0
  8 14  1  0
  9 11  1  0
  9 15  1  0
 10 17  1  0
 11 16  1  0
 12 13  1  0
 14 18  2  0
 15 19  2  0
 16 20  2  0
 16 21  1  0
 18 19  1  0
 20 22  1  0
 21 23  2  0
 22 24  2  0
 23 24  1  0
M  END
>  <PUBCHEM_COMPOUND_CID>  (1) 
31640

>  <PUBCHEM_CONFORMER_RMSD>  (1) 
0.6

>  <PUBCHEM_CONFORMER_DIVERSEORDER>  (1) 
1
5
4
6
2
3

>  <PUBCHEM_MMFF94_PARTIAL_CHARGES>  (1) 
32
1 -0.18
10 0.3
11 0.28
12 0.57
13 0.31
14 -0.15
15 -0.15
16 0.09
17 1.02
18 -0.15
19 0.18
2 -0.34
20 -0.15
21 -0.15
22 -0.15
23 -0.15
24 -0.15
29 0.15
3 -0.34
30 0.15
31 0.15
32 0.15
33 0.15
34 0.15
35 0.15
36 0.15
4 -0.34
5 -0.57
6 -0.48
7 -0.7
8 0.12
9 0.09

>  <PUBCHEM_EFFECTIVE_ROTOR_COUNT>  (1) 
3.4

>  <PUBCHEM_PHARMACOPHORE_FEATURES>  (1) 
5
1 5 acceptor
1 7 acceptor
6 16 20 21 22 23 24 rings
6 8 9 14 15 18 19 rings
7 6 7 8 9 11 12 13 rings

>  <PUBCHEM_HEAVY_ATOM_COUNT>  (1) 
24

>  <PUBCHEM_ATOM_DEF_STEREO_COUNT>  (1) 
0

>  <PUBCHEM_ATOM_UDEF_STEREO_COUNT>  (1) 
0

>  <PUBCHEM_BOND_DEF_STEREO_COUNT>  (1) 
0

>  <PUBCHEM_BOND_UDEF_STEREO_COUNT>  (1) 
0

>  <PUBCHEM_ISOTOPIC_ATOM_COUNT>  (1) 
0

>  <PUBCHEM_COMPONENT_COUNT>  (1) 
1

>  <PUBCHEM_CACTVS_TAUTO_COUNT>  (1) 
1

>  <PUBCHEM_CONFORMER_ID>  (1) 
00007B9800000001

>  <PUBCHEM_MMFF94_ENERGY>  (1) 
88.3321

>  <PUBCHEM_FEATURE_SELFOVERLAP>  (1) 
25.384

>  <PUBCHEM_SHAPE_FINGERPRINT>  (1) 
10064457 181 18341621407835009898
10165383 225 18339938034274176732
11221954 11 17202197628288140536
11578080 2 16910920522595314344
12633257 1 18268966796680079448
12788726 201 17689163721737456823
12839892 36 18262531381003292787
13533116 47 17981054020875989849
13583140 156 18129941162209414657
13965767 371 18263066760939038456
14178342 30 18336824290053271679
14787075 74 17700671116519083607
14955137 171 17967545553876205628
15338160 23 17980469389447870592
16945 1 18261396628372040982
17349148 13 18040719195192099741
1813 80 11025800903181880293
20600515 1 16905250487007417570
20691752 17 18130792235179273913
21033648 29 18340477864229382880
21731228 192 18412537712929553010
23419403 2 17687446980280139461
23559900 14 17972614194995079453
25222932 49 16087607362984734731
2748010 2 17755003221164295670
2838139 119 16271631356904795512
35225 105 17982195570783686331
394222 165 17388288828643662108
427121 178 18201451263158032915
4340502 62 18272366460957972667
474 4 17774993600772106385
495365 180 18194396685360001381
57527573 199 17632573881628768824
5845 1 9336671204228834895
81228 2 17981897641893032223
84936 31 18195529190815814527

>  <PUBCHEM_SHAPE_MULTIPOLES>  (1) 
458.13
6.46
3.91
2.05
4.77
6.29
0.35
-5.14
3.89
-0.4
-0.64
-1
-1.52
0.14

>  <PUBCHEM_SHAPE_SELFOVERLAP>  (1) 
994.76

>  <PUBCHEM_SHAPE_VOLUME>  (1) 
250.6

>  <PUBCHEM_COORDINATE_TYPE>  (1) 
2
5
10

$$$$
