3165
     RDKit          3D

 20 22  0  0  1  0  0  0  0  0999 V2000
    4.2014   -2.3332    0.8323 Cl  0  0  0  0  0  0  0  0  0  0  0  0
    5.6929    0.3000   -0.2770 Cl  0  0  0  0  0  0  0  0  0  0  0  0
   -2.2544    0.4031    1.1214 O   0  0  0  0  0  0  0  0  0  0  0  0
   -1.1555   -2.4024   -0.8218 O   0  0  0  0  0  0  0  0  0  0  0  0
   -4.1359   -1.7215   -1.0891 O   0  0  0  0  0  0  0  0  0  0  0  0
   -4.4510    2.0882    0.6554 O   0  0  0  0  0  0  0  0  0  0  0  0
   -0.1093    0.4900    0.1199 N   0  0  0  0  0  0  0  0  0  0  0  0
    0.9135    2.3102   -0.6451 N   0  0  0  0  0  0  0  0  0  0  0  0
   -1.2023   -0.3854    0.5357 C   0  0  0  0  0  0  0  0  0  0  0  0
   -1.8304   -1.1769   -0.6012 C   0  0  0  0  0  0  0  0  0  0  0  0
   -3.2205   -1.4207   -0.0553 C   0  0  0  0  0  0  0  0  0  0  0  0
   -3.5248   -0.1192    0.6803 C   0  0  0  0  0  0  0  0  0  0  0  0
   -4.2233    0.9464   -0.1550 C   0  0  0  0  0  0  0  0  0  0  0  0
    1.2292    0.1888    0.1251 C   0  0  0  0  0  0  0  0  0  0  0  0
   -0.2462    1.7678   -0.3485 C   0  0  0  0  0  0  0  0  0  0  0  0
    1.8458    1.3403   -0.3563 C   0  0  0  0  0  0  0  0  0  0  0  0
    1.9313   -0.9576    0.4986 C   0  0  0  0  0  0  0  0  0  0  0  0
    3.2452    1.3675   -0.4791 C   0  0  0  0  0  0  0  0  0  0  0  0
    3.3235   -0.9131    0.3698 C   0  0  0  0  0  0  0  0  0  0  0  0
    3.9707    0.2278   -0.1100 C   0  0  0  0  0  0  0  0  0  0  0  0
  1 19  1  0
  2 20  1  0
  3  9  1  0
  3 12  1  0
  4 10  1  0
  5 11  1  0
  6 13  1  0
  7  9  1  0
  7 14  1  0
  7 15  1  0
  8 15  2  0
  8 16  1  0
  9 10  1  0
 10 11  1  0
 11 12  1  0
 12 13  1  0
 14 16  2  0
 14 17  1  0
 16 18  1  0
 17 19  2  0
 18 20  2  0
 19 20  1  0
M  END
>  <PUBCHEM_COMPOUND_CID>  (1) 
3165

>  <PUBCHEM_CONFORMER_RMSD>  (1) 
0.6

>  <PUBCHEM_CONFORMER_DIVERSEORDER>  (1) 
1
105
116
49
5
101
111
109
65
34
2
113
70
99
100
51
57
72
82
108
77
18
25
14
47
73
9
43
88
24
13
85
96
12
6
10
37
46
8
71
94
79
114
117
103
31
15
44
60
56
3
39
38
50
7
58
42
90
66
55
89
97
48
32
86
35
93
28
62
30
76
22
41
16
98
45
27
92
4
61
102
75
26
29
104
87
95
68
19
23
74
83
40
11
67
64
17
63
115
36
112
20
54
110
21
69
52
59
53
84
91
80
106
81
107
33
78

>  <PUBCHEM_MMFF94_PARTIAL_CHARGES>  (1) 
26
1 -0.18
10 0.28
11 0.28
12 0.28
13 0.28
14 -0.15
15 0.04
16 0.23
17 -0.15
18 -0.15
19 0.18
2 -0.18
20 0.18
27 0.4
28 0.15
29 0.4
3 -0.56
30 0.15
31 0.4
32 0.15
4 -0.68
5 -0.68
6 -0.68
7 0.05
8 -0.57
9 0.54

>  <PUBCHEM_EFFECTIVE_ROTOR_COUNT>  (1) 
3

>  <PUBCHEM_PHARMACOPHORE_FEATURES>  (1) 
11
1 3 acceptor
1 4 acceptor
1 4 donor
1 5 acceptor
1 5 donor
1 6 acceptor
1 6 donor
3 7 8 15 cation
5 3 9 10 11 12 rings
5 7 8 14 15 16 rings
6 14 16 17 18 19 20 rings

>  <PUBCHEM_HEAVY_ATOM_COUNT>  (1) 
20

>  <PUBCHEM_ATOM_DEF_STEREO_COUNT>  (1) 
0

>  <PUBCHEM_ATOM_UDEF_STEREO_COUNT>  (1) 
4

>  <PUBCHEM_BOND_DEF_STEREO_COUNT>  (1) 
0

>  <PUBCHEM_BOND_UDEF_STEREO_COUNT>  (1) 
0

>  <PUBCHEM_ISOTOPIC_ATOM_COUNT>  (1) 
0

>  <PUBCHEM_COMPONENT_COUNT>  (1) 
1

>  <PUBCHEM_CACTVS_TAUTO_COUNT>  (1) 
1

>  <PUBCHEM_CONFORMER_ID>  (1) 
00000C5D00000001

>  <PUBCHEM_MMFF94_ENERGY>  (1) 
44.1684

>  <PUBCHEM_FEATURE_SELFOVERLAP>  (1) 
55.933

>  <PUBCHEM_SHAPE_FINGERPRINT>  (1) 
10062212 137 18342735222078499283
10616163 171 18341615979054863766
10906281 52 17968674799715552136
11578080 2 18129073745560101721
12107183 9 18050569534422102955
12236239 1 18343024410415300202
12346177 29 17489300923606478351
12500047 106 18131348622269101121
12553582 1 18335977632256727178
13167823 11 18340769329130679566
14178342 30 18051116288417964626
14576447 43 18338230591527186998
14790565 3 18118693347178064980
15042514 8 17541088772021358170
15196674 1 18409729547568831242
15375462 189 18409171034485094168
15442244 35 18409729560421987137
16752209 62 18131059476924398759
17349148 13 17917708015650493479
17492 89 18338518654799574611
17818456 19 18198911318136324617
1813 80 17240770557953730924
18186145 218 16732701657606101880
19141452 34 18340768156593980270
19422 9 18408604785738605819
200 152 18411980290683171280
20281475 54 18409724062974481666
20645477 70 18114178635995201674
21267235 1 18338244863291983370
21421861 104 17750789944510242986
221490 88 17899704749596340698
2255824 54 18118126003224764148
23402539 116 18342737420827305516
23402655 69 18408606954934363116
23463225 33 18410294713693631334
23557571 272 15698011751273999731
23559900 14 17417819430891121208
335352 9 18264769861342418007
34797466 226 16843898666618244772
34934 24 18335420162544282720
4214541 1 18411983576512669633
5104073 3 18410011039540470880
543358 83 18334862701585575716
559249 180 18413106147688138566
58051976 100 18409168852694520197
633830 44 17458348537012277985
84936 182 17981048831648758448
90525 40 18272092729343495551
9981440 41 17327737808484618353

>  <PUBCHEM_SHAPE_MULTIPOLES>  (1) 
381.89
10.12
2.37
0.9
1.89
0.21
0
0.84
-0.24
-0.07
0.25
-0.38
0.18
-1.48

>  <PUBCHEM_SHAPE_SELFOVERLAP>  (1) 
811.519

>  <PUBCHEM_SHAPE_VOLUME>  (1) 
217.8

>  <PUBCHEM_COORDINATE_TYPE>  (1) 
2
5
10

$$$$
