31659
     RDKit          3D

 16 16  0  0  0  0  0  0  0  0999 V2000
   -1.4655   -2.4864   -1.1709 Cl  0  0  0  0  0  0  0  0  0  0  0  0
   -2.8696   -0.4120    0.4916 O   0  0  0  0  0  0  0  0  0  0  0  0
    3.2390    1.7546   -0.0842 O   0  0  0  0  0  0  0  0  0  0  0  0
    5.0156    0.6186   -1.7749 O   0  0  0  0  0  0  0  0  0  0  0  0
    4.3271   -0.1441   -0.8223 N   0  0  0  0  0  0  0  0  0  0  0  0
    1.2677   -0.3829    0.8455 C   0  0  0  0  0  0  0  0  0  0  0  0
   -3.4780    0.7881    0.0194 C   0  0  0  0  0  0  0  0  0  0  0  0
   -1.5104   -0.4176    0.5943 C   0  0  0  0  0  0  0  0  0  0  0  0
   -4.7724    0.4343   -0.6967 C   0  0  0  0  0  0  0  0  0  0  0  0
    2.7528   -0.3642    0.9804 C   0  0  0  0  0  0  0  0  0  0  0  0
    0.6551   -1.3107    0.0031 C   0  0  0  0  0  0  0  0  0  0  0  0
    0.4913    0.5276    1.5623 C   0  0  0  0  0  0  0  0  0  0  0  0
   -0.7340   -1.3282   -0.1223 C   0  0  0  0  0  0  0  0  0  0  0  0
   -0.8977    0.5102    1.4366 C   0  0  0  0  0  0  0  0  0  0  0  0
   -5.4712    1.6667   -1.2421 C   0  0  0  0  0  0  0  0  0  0  0  0
    3.4501    0.5461   -0.0197 C   0  0  0  0  0  0  0  0  0  0  0  0
  1 13  1  0
  2  7  1  0
  2  8  1  0
  3 16  2  0
  4  5  1  0
  5 16  1  0
  6 10  1  0
  6 11  2  0
  6 12  1  0
  7  9  1  0
  8 13  2  0
  8 14  1  0
  9 15  1  0
 10 16  1  0
 11 13  1  0
 12 14  2  0
M  END
>  <PUBCHEM_COMPOUND_CID>  (1) 
31659

>  <PUBCHEM_CONFORMER_RMSD>  (1) 
0.8

>  <PUBCHEM_CONFORMER_DIVERSEORDER>  (1) 
1
24
44
8
52
36
40
56
39
26
51
42
60
28
38
61
35
4
23
53
47
49
7
57
12
62
27
50
54
58
16
19
9
6
20
59
2
32
45
25
29
46
10
41
48
5
34
55
33
17
3
37
15
43
22
13
14
18
30
31
11
21

>  <PUBCHEM_MMFF94_PARTIAL_CHARGES>  (1) 
19
1 -0.18
10 0.2
11 -0.15
12 -0.15
13 0.18
14 -0.15
16 0.57
2 -0.36
23 0.15
24 0.15
25 0.15
29 0.37
3 -0.57
30 0.4
4 -0.44
5 -0.39
6 -0.14
7 0.28
8 0.08

>  <PUBCHEM_EFFECTIVE_ROTOR_COUNT>  (1) 
6

>  <PUBCHEM_PHARMACOPHORE_FEATURES>  (1) 
5
1 15 hydrophobe
1 2 acceptor
1 3 acceptor
1 5 donor
6 6 8 11 12 13 14 rings

>  <PUBCHEM_HEAVY_ATOM_COUNT>  (1) 
16

>  <PUBCHEM_ATOM_DEF_STEREO_COUNT>  (1) 
0

>  <PUBCHEM_ATOM_UDEF_STEREO_COUNT>  (1) 
0

>  <PUBCHEM_BOND_DEF_STEREO_COUNT>  (1) 
0

>  <PUBCHEM_BOND_UDEF_STEREO_COUNT>  (1) 
0

>  <PUBCHEM_ISOTOPIC_ATOM_COUNT>  (1) 
0

>  <PUBCHEM_COMPONENT_COUNT>  (1) 
1

>  <PUBCHEM_CACTVS_TAUTO_COUNT>  (1) 
3

>  <PUBCHEM_CONFORMER_ID>  (1) 
00007BAB00000001

>  <PUBCHEM_MMFF94_ENERGY>  (1) 
38.2053

>  <PUBCHEM_FEATURE_SELFOVERLAP>  (1) 
25.371

>  <PUBCHEM_SHAPE_FINGERPRINT>  (1) 
10756046 5 17984700279583117624
11796584 16 12391511975781786957
12186901 62 18342180024324944815
12251169 10 12035732054604942330
12555020 224 17775576312133677478
12596602 18 13551197662842930221
12633257 1 14274017809433183276
12670543 26 17774724156235791501
1420 369 11455896866376574812
14252887 29 12180124216315583057
14911166 2 17846776317034484755
14993402 34 18272651246705765249
15209294 21 15502374513324633109
15342168 16 16370733655414324222
16752209 62 17774723056476147034
16945 1 17775284975606009163
18186145 218 18273219728582306296
193927 3 13038906681020862381
19784866 240 13039196904803607292
19868273 293 18343298197326951362
200 152 14117520934743022658
20645476 183 18410013273034863802
20645477 70 15410896262759331220
20671657 53 14261346972904246579
20871999 31 18129657646437345295
21069387 34 15195289754307478914
212847 35 17603581907334618152
21637258 2 13038895600073758381
22218785 32 17989484117442255103
22713019 99 16630524029294563343
231179 274 18187363212007648889
23379529 103 15839838941672970471
23402539 116 17060349486985394328
23526113 38 16128362818029813466
23557571 272 17895207614226689771
23559900 14 17560804385796874880
26918003 58 10375874061007213809
2838139 119 17968087616712901453
3060560 45 17489006202903023759
3071541 37 18271518677063261059
316301 35 11022378153966655973
3286 77 13614519645392348914
33382 64 13254789179411944885
3759504 43 18335136518630823203
4990 188 16773788199855281521
56616090 284 17060340729700058391
58779409 8 18129933589871004791
633830 44 17385443258728601106
69474 34 13045950122522830367
76465 3 14764353695715740332
81539 233 18265604408454878531

>  <PUBCHEM_SHAPE_MULTIPOLES>  (1) 
308.55
9.79
1.78
1.45
2.76
1.03
-0.2
-5.08
-6.65
0.87
-0.52
-0.6
-0.32
0.17

>  <PUBCHEM_SHAPE_SELFOVERLAP>  (1) 
616.659

>  <PUBCHEM_SHAPE_VOLUME>  (1) 
183

>  <PUBCHEM_COORDINATE_TYPE>  (1) 
2
5
10

$$$$
