31668
     RDKit          3D

 26 29  0  0  1  0  0  0  0  0999 V2000
   -3.8585   -2.2093   -0.9993 O   0  0  0  0  0  0  0  0  0  0  0  0
   -0.5399   -0.9599   -0.7624 O   0  0  0  0  0  0  0  0  0  0  0  0
    4.3916    2.2082   -0.1402 O   0  0  0  0  0  0  0  0  0  0  0  0
    0.2266    1.6706   -0.5347 N   0  0  0  0  0  0  0  0  0  0  0  0
   -2.4771   -0.0078    0.1224 N   0  0  0  0  0  0  0  0  0  0  0  0
   -1.8326    1.2192    0.5180 C   0  0  0  0  0  0  0  0  0  0  0  0
   -2.0059    2.3138   -0.5377 C   0  0  0  0  0  0  0  0  0  0  0  0
   -0.3203    1.0526    0.6765 C   0  0  0  0  0  0  0  0  0  0  0  0
   -0.6026    2.8506   -0.7722 C   0  0  0  0  0  0  0  0  0  0  0  0
    1.6381    1.9997   -0.4029 C   0  0  0  0  0  0  0  0  0  0  0  0
   -3.8796   -0.1667    0.3128 C   0  0  0  0  0  0  0  0  0  0  0  0
    2.4802    0.7401   -0.2002 C   0  0  0  0  0  0  0  0  0  0  0  0
   -1.7335   -1.0260   -0.4695 C   0  0  0  0  0  0  0  0  0  0  0  0
   -4.5223   -1.2720   -0.2568 C   0  0  0  0  0  0  0  0  0  0  0  0
   -2.4976   -2.3228   -0.6451 C   0  0  0  0  0  0  0  0  0  0  0  0
   -4.6553    0.7690    1.0132 C   0  0  0  0  0  0  0  0  0  0  0  0
    3.9641    1.0574   -0.0846 C   0  0  0  0  0  0  0  0  0  0  0  0
   -5.9065   -1.4333   -0.1489 C   0  0  0  0  0  0  0  0  0  0  0  0
   -6.0369    0.5978    1.1381 C   0  0  0  0  0  0  0  0  0  0  0  0
   -6.6624   -0.5010    0.5558 C   0  0  0  0  0  0  0  0  0  0  0  0
    4.9259   -0.0690    0.1015 C   0  0  0  0  0  0  0  0  0  0  0  0
    4.4350   -1.3531    0.1614 C   0  0  0  0  0  0  0  0  0  0  0  0
    6.2671    0.2212    0.2041 C   0  0  0  0  0  0  0  0  0  0  0  0
    5.3348   -2.4049    0.3335 C   0  0  0  0  0  0  0  0  0  0  0  0
    7.1669   -0.8308    0.3762 C   0  0  0  0  0  0  0  0  0  0  0  0
    6.7008   -2.1438    0.4409 C   0  0  0  0  0  0  0  0  0  0  0  0
  1 14  1  0
  1 15  1  0
  2 13  2  0
  3 17  2  0
  4  8  1  0
  4  9  1  0
  4 10  1  0
  5  6  1  0
  5 11  1  0
  5 13  1  0
  6  7  1  0
  6  8  1  0
  7  9  1  0
 10 12  1  0
 11 14  2  0
 11 16  1  0
 12 17  1  0
 13 15  1  0
 14 18  1  0
 16 19  2  0
 17 21  1  0
 18 20  2  0
 19 20  1  0
 21 22  2  0
 21 23  1  0
 22 24  1  0
 23 25  2  0
 24 26  2  0
 25 26  1  0
M  END
>  <PUBCHEM_COMPOUND_CID>  (1) 
31668

>  <PUBCHEM_CONFORMER_RMSD>  (1) 
0.8

>  <PUBCHEM_CONFORMER_DIVERSEORDER>  (1) 
1
183
99
37
139
97
122
194
4
123
116
177
135
233
142
238
206
71
207
2
127
98
195
156
217
31
131
193
234
13
166
147
35
189
196
136
138
17
118
94
76
54
205
160
211
110
198
91
174
28
38
245
153
96
90
173
15
117
179
192
88
169
216
44
140
33
42
3
46
170
40
49
150
132
79
241
188
6
66
143
41
93
105
113
18
119
9
226
162
120
43
22
167
225
95
74
51
202
175
246
12
36
29
32
39
180
232
75
159
212
50
227
146
111
133
87
186
102
67
20
182
197
34
85
30
158
126
62
16
10
56
52
164
231
65
137
101
145
172
237
81
103
23
187
115
178
204
154
59
236
203
114
214
25
215
72
80
165
210
63
208
45
107
149
5
83
134
247
26
219
70
184
78
100
55
7
11
244
21
129
48
239
69
109
60
230
53
14
199
152
191
73
240
141
176
218
128
130
64
19
157
92
82
144
209
8
228
200
222
61
221
163
242
57
27
106
235
148
190
229
243
47
224
155
68
121
58
104
201
181
171
24
84
151
86
185
161
223
89
168
112
77
108
125
124
213
220

>  <PUBCHEM_MMFF94_PARTIAL_CHARGES>  (1) 
34
1 -0.36
10 0.27
11 0.12
12 0.06
13 0.57
14 0.08
15 0.34
16 -0.15
17 0.42
18 -0.15
19 -0.15
2 -0.57
20 -0.15
21 0.09
22 -0.15
23 -0.15
24 -0.15
25 -0.15
26 -0.15
3 -0.57
4 -0.81
40 0.15
41 0.15
42 0.15
43 0.15
44 0.15
45 0.15
46 0.15
47 0.15
48 0.15
5 -0.48
6 0.3
8 0.27
9 0.27

>  <PUBCHEM_EFFECTIVE_ROTOR_COUNT>  (1) 
6.6

>  <PUBCHEM_PHARMACOPHORE_FEATURES>  (1) 
8
1 1 acceptor
1 2 acceptor
1 3 acceptor
1 4 cation
5 4 6 7 8 9 rings
6 1 5 11 13 14 15 rings
6 11 14 16 18 19 20 rings
6 21 22 23 24 25 26 rings

>  <PUBCHEM_HEAVY_ATOM_COUNT>  (1) 
26

>  <PUBCHEM_ATOM_DEF_STEREO_COUNT>  (1) 
0

>  <PUBCHEM_ATOM_UDEF_STEREO_COUNT>  (1) 
1

>  <PUBCHEM_BOND_DEF_STEREO_COUNT>  (1) 
0

>  <PUBCHEM_BOND_UDEF_STEREO_COUNT>  (1) 
0

>  <PUBCHEM_ISOTOPIC_ATOM_COUNT>  (1) 
0

>  <PUBCHEM_COMPONENT_COUNT>  (1) 
1

>  <PUBCHEM_CACTVS_TAUTO_COUNT>  (1) 
2

>  <PUBCHEM_CONFORMER_ID>  (1) 
00007BB400000001

>  <PUBCHEM_MMFF94_ENERGY>  (1) 
88.2775

>  <PUBCHEM_FEATURE_SELFOVERLAP>  (1) 
40.63

>  <PUBCHEM_SHAPE_FINGERPRINT>  (1) 
10 15 16128653072483958384
10299344 5 18412268337571651066
10622 236 17841697801807429383
10939801 23 18270680982779034884
11456790 92 17917164870624659819
11524674 6 16917065559891645687
11578080 2 11310963578027114843
117089 54 18045230576620865987
12107183 9 18341902866001448105
12166972 35 17458067071042214324
12236239 1 18411704326529478585
12422481 6 18201444640376627863
12592606 108 18410008871373776439
12633257 1 16630241515220441348
12760667 363 18407760326517125409
13533116 47 18408324415101409056
13551218 46 18411139125569965414
13685833 64 18334014982515579272
13862211 1 18410857685443473653
14216079 64 18408040701945362899
14251764 18 18272652367750212566
14347332 77 18261671481000122292
14394314 77 18411984645796353785
14420673 8 18411421708891253843
14565420 104 17843110670750934088
15001296 14 18261106426649934906
15021287 119 17968105209220906693
15042514 8 18337107865227045605
15119646 104 18408044026682456356
15183329 4 18410007749616847607
16110190 28 18343020008237475590
16120349 21 18270407083328062344
17492 89 17977947118495555147
17857418 61 18411699889896631994
1813 80 17675925421265966292
19141452 34 18343022228756523653
20028762 73 18341894078604102070
21267235 1 18408609141404850764
21365058 113 16443353108674015173
229767 44 18272931639335510463
23424784 1240 18199470966183113494
23522609 53 18121533269348001772
23559900 14 18200304562593317968
23569943 247 18261672571700621355
3004659 81 18114178653464922208
335352 9 18411699903040133597
34797466 226 15719399481184620692
350125 39 18413670197559051184
351380 3 18260546723453983602
3680242 22 18411710897428332759
46194498 28 16950564424211236668
463206 1 18335703896605570154
5104073 3 18130511945359809937
513202 73 18114180792100439205
559249 180 18412545414528230889
56633871 153 18411701002061306623
6138700 20 18335139778431463907
9965369 4 18343867723434166723
999808 66 17967825980891523923

>  <PUBCHEM_SHAPE_MULTIPOLES>  (1) 
507.5
18.92
2.86
0.89
13.58
0.34
0.05
-10.29
4.46
0.88
-0.65
-0.72
0.02
-1.29

>  <PUBCHEM_SHAPE_SELFOVERLAP>  (1) 
1106.232

>  <PUBCHEM_SHAPE_VOLUME>  (1) 
273.8

>  <PUBCHEM_COORDINATE_TYPE>  (1) 
2
5
10

$$$$
