31662
     RDKit          3D

 21 25  0  0  1  0  0  0  0  0999 V2000
    0.8204    1.0870    0.7208 C   0  0  0  0  0  0  0  0  0  0  0  0
   -0.4800    1.6851    0.1652 C   0  0  0  0  0  0  0  0  0  0  0  0
   -1.4083    0.5034    0.1179 C   0  0  0  0  0  0  0  0  0  0  0  0
    0.6656   -0.3925    0.4452 C   0  0  0  0  0  0  0  0  0  0  0  0
   -0.6115   -0.7184    0.2061 C   0  0  0  0  0  0  0  0  0  0  0  0
   -2.7462    0.4456   -0.0260 C   0  0  0  0  0  0  0  0  0  0  0  0
    2.1111    1.6365    0.1814 C   0  0  0  0  0  0  0  0  0  0  0  0
    1.8537   -1.2084    0.4138 C   0  0  0  0  0  0  0  0  0  0  0  0
   -3.3700   -0.8972   -0.1333 C   0  0  0  0  0  0  0  0  0  0  0  0
    3.1693    0.8293   -0.0403 C   0  0  0  0  0  0  0  0  0  0  0  0
   -1.1972   -2.0201   -0.0364 C   0  0  0  0  0  0  0  0  0  0  0  0
    3.0537   -0.6386    0.1773 C   0  0  0  0  0  0  0  0  0  0  0  0
   -3.6164    1.6780   -0.1146 C   0  0  0  0  0  0  0  0  0  0  0  0
   -2.5321   -2.1064   -0.1845 C   0  0  0  0  0  0  0  0  0  0  0  0
   -4.7093   -1.0062   -0.2259 C   0  0  0  0  0  0  0  0  0  0  0  0
   -5.0906    1.3882   -0.1690 C   0  0  0  0  0  0  0  0  0  0  0  0
    4.4595    1.3681   -0.4664 C   0  0  0  0  0  0  0  0  0  0  0  0
    4.2644   -1.4509    0.0622 C   0  0  0  0  0  0  0  0  0  0  0  0
   -5.5821    0.1432   -0.2137 C   0  0  0  0  0  0  0  0  0  0  0  0
    5.5202    0.5488   -0.5828 C   0  0  0  0  0  0  0  0  0  0  0  0
    5.4258   -0.8744   -0.2968 C   0  0  0  0  0  0  0  0  0  0  0  0
  1  2  1  0
  1  4  1  0
  1  7  1  0
  2  3  1  0
  3  5  1  0
  3  6  2  0
  4  5  2  0
  4  8  1  0
  5 11  1  0
  6  9  1  0
  6 13  1  0
  7 10  2  0
  8 12  2  0
  9 14  1  0
  9 15  2  0
 10 12  1  0
 10 17  1  0
 11 14  2  0
 12 18  1  0
 13 16  1  0
 15 19  1  0
 16 19  2  0
 17 20  2  0
 18 21  2  0
 20 21  1  0
M  END
>  <PUBCHEM_COMPOUND_CID>  (1) 
31662

>  <PUBCHEM_CONFORMER_RMSD>  (1) 
0.6

>  <PUBCHEM_CONFORMER_DIVERSEORDER>  (1) 
1

>  <PUBCHEM_MMFF94_PARTIAL_CHARGES>  (1) 
28
1 0.28
11 -0.15
13 0.28
14 -0.15
15 -0.15
16 -0.29
17 -0.15
18 -0.15
19 -0.15
2 0.14
20 -0.15
21 -0.15
25 0.15
26 0.15
27 0.15
3 -0.14
30 0.15
31 0.15
32 0.15
33 0.15
34 0.15
35 0.15
36 0.15
37 0.15
4 -0.14
6 -0.14
7 -0.29
8 -0.15

>  <PUBCHEM_EFFECTIVE_ROTOR_COUNT>  (1) 
0.4

>  <PUBCHEM_PHARMACOPHORE_FEATURES>  (1) 
5
5 1 2 3 4 5 rings
6 1 4 7 8 10 12 rings
6 10 12 17 18 20 21 rings
6 3 5 6 9 11 14 rings
6 6 9 13 15 16 19 rings

>  <PUBCHEM_HEAVY_ATOM_COUNT>  (1) 
21

>  <PUBCHEM_ATOM_DEF_STEREO_COUNT>  (1) 
0

>  <PUBCHEM_ATOM_UDEF_STEREO_COUNT>  (1) 
1

>  <PUBCHEM_BOND_DEF_STEREO_COUNT>  (1) 
0

>  <PUBCHEM_BOND_UDEF_STEREO_COUNT>  (1) 
0

>  <PUBCHEM_ISOTOPIC_ATOM_COUNT>  (1) 
0

>  <PUBCHEM_COMPONENT_COUNT>  (1) 
1

>  <PUBCHEM_CACTVS_TAUTO_COUNT>  (1) 
1

>  <PUBCHEM_CONFORMER_ID>  (1) 
00007BAE00000001

>  <PUBCHEM_MMFF94_ENERGY>  (1) 
66.3068

>  <PUBCHEM_FEATURE_SELFOVERLAP>  (1) 
25.605

>  <PUBCHEM_SHAPE_FINGERPRINT>  (1) 
10595046 47 18409167731386276524
10906281 52 18199769010251562435
11315181 36 17704077308894365184
11578080 2 17058071449216537322
12011746 2 18409722963900671581
12107183 9 17688588256138149824
12236239 1 18040997336509420942
12403259 415 18340476820926720353
12788726 201 17916870101527052121
13288520 33 18343866606194088967
14528608 73 18408042926917666516
14790565 3 18338521841744000785
15099037 51 18413670201495445759
15183329 4 18411982442377319142
15196674 1 18410573998041647298
15788980 27 18335422369735401706
1601671 61 18341612598709191264
17349148 13 17418099818681949905
17959699 21 18260831509855922980
18186145 218 17894620474548088602
18681886 176 18343016723093694952
19489759 90 14620518913280579691
200 152 17988924474333875376
20645477 70 18340770356202993342
21267235 1 18411143554082304163
21279426 13 18340206267486815053
221357 26 18341608231139148245
221490 88 18265337402863837490
2215653 11 18131067125706797461
23175994 123 16988844994725364609
23402539 116 18272365369498384949
23402655 69 18410291410684231228
23559900 14 18200588206860724960
29717793 49 17988931050625105572
3004659 81 18335703815491561438
335352 9 18411699855009360308
34797466 226 17560527299891982324
34934 24 18411977001239285058
350125 39 18411138018223030441
3545911 37 18410576197138859784
3680242 22 18263078825760934890
3759504 43 17749111105923664915
4073 2 17968100880225766314
4214541 1 18411136939637327021
4340502 62 16371012871100996705
474 4 17386292098668816188
4921388 177 16733273459550755539
495365 180 17346022472495538488
5104073 3 18410291427901011658
542803 24 17603305955442880236
543358 83 18408604743210776690
559249 180 18410570644026000298
59755656 520 16877662370366830802
6138700 20 18339645517021489766
633830 44 17531246205526561560
77779 3 18410012156184494082
9709674 26 18266738180503771539
9996256 80 18412547647980309811

>  <PUBCHEM_SHAPE_MULTIPOLES>  (1) 
432.17
12.43
2.07
0.71
1.59
0.2
-0.01
-0.75
2.41
-0.49
0.02
0.17
-0.03
-0.21

>  <PUBCHEM_SHAPE_SELFOVERLAP>  (1) 
986.827

>  <PUBCHEM_SHAPE_VOLUME>  (1) 
210.8

>  <PUBCHEM_COORDINATE_TYPE>  (1) 
2
5
10

$$$$
