31660
     RDKit          3D

 18 18  0  0  0  0  0  0  0  0999 V2000
   -0.6743    2.4246   -1.7577 Cl  0  0  0  0  0  0  0  0  0  0  0  0
   -1.8812    1.1323    0.6724 O   0  0  0  0  0  0  0  0  0  0  0  0
    3.8924   -0.8517   -1.6083 O   0  0  0  0  0  0  0  0  0  0  0  0
    5.4166   -2.6266   -0.2549 O   0  0  0  0  0  0  0  0  0  0  0  0
    4.9506   -1.4540    0.3542 N   0  0  0  0  0  0  0  0  0  0  0  0
   -4.8579   -1.0892    0.1062 C   0  0  0  0  0  0  0  0  0  0  0  0
   -4.0052    0.1776    0.1148 C   0  0  0  0  0  0  0  0  0  0  0  0
   -6.2249   -0.8351   -0.5283 C   0  0  0  0  0  0  0  0  0  0  0  0
   -2.6263   -0.0770    0.7070 C   0  0  0  0  0  0  0  0  0  0  0  0
   -7.0642   -2.1022   -0.5695 C   0  0  0  0  0  0  0  0  0  0  0  0
   -0.5196    1.0171    0.5646 C   0  0  0  0  0  0  0  0  0  0  0  0
    2.2452    0.7546    0.3982 C   0  0  0  0  0  0  0  0  0  0  0  0
    0.1625    1.5721   -0.5133 C   0  0  0  0  0  0  0  0  0  0  0  0
    0.1696    0.3319    1.5602 C   0  0  0  0  0  0  0  0  0  0  0  0
    3.7274    0.6146    0.3105 C   0  0  0  0  0  0  0  0  0  0  0  0
    1.5487    1.4406   -0.5967 C   0  0  0  0  0  0  0  0  0  0  0  0
    1.5558    0.2003    1.4766 C   0  0  0  0  0  0  0  0  0  0  0  0
    4.1848   -0.6299   -0.4360 C   0  0  0  0  0  0  0  0  0  0  0  0
  1 13  1  0
  2  9  1  0
  2 11  1  0
  3 18  2  0
  4  5  1  0
  5 18  1  0
  6  7  1  0
  6  8  1  0
  7  9  1  0
  8 10  1  0
 11 13  2  0
 11 14  1  0
 12 15  1  0
 12 16  2  0
 12 17  1  0
 13 16  1  0
 14 17  2  0
 15 18  1  0
M  END
>  <PUBCHEM_COMPOUND_CID>  (1) 
31660

>  <PUBCHEM_CONFORMER_RMSD>  (1) 
0.8

>  <PUBCHEM_CONFORMER_DIVERSEORDER>  (1) 
1
88
356
317
168
355
253
24
363
312
325
54
269
273
252
9
258
65
333
296
259
25
203
57
218
2
100
141
319
12
347
151
267
307
361
314
303
10
3
234
204
192
109
213
340
106
330
93
334
249
280
105
215
240
67
205
161
310
354
294
194
184
285
5
343
134
185
277
281
292
18
142
348
145
350
111
17
284
349
336
282
19
112
337
321
4
174
304
15
94
362
359
244
344
346
260
56
42
160
178
335
261
157
193
115
257
90
250
6
230
121
68
83
266
138
187
136
300
156
326
128
183
208
233
327
216
315
352
53
103
40
143
175
214
101
286
279
153
199
231
255
169
248
181
298
357
365
27
162
268
74
73
217
329
245
182
167
11
297
291
242
39
14
331
342
30
295
247
177
200
66
75
135
179
77
172
306
131
197
290
8
150
339
188
49
323
302
364
34
228
358
81
76
338
99
293
137
144
225
165
33
102
311
95
287
322
87
63
190
351
117
29
320
262
20
104
119
211
107
241
110
189
198
133
140
263
324
82
147
345
209
232
91
59
116
64
148
122
52
46
171
195
123
70
222
108
78
120
219
360
31
37
313
159
16
149
60
271
210
289
80
47
152
118
301
139
170
158
84
201
221
97
86
166
71
278
38
48
92
58
237
224
113
61
223
220
226
32
254
328
270
256
206
238
288
129
191
96
35
318
163
251
164
229
45
202
41
353
265
239
69
43
173
132
274
26
125
212
130
98
227
305
196
283
308
44
22
299
127
50
62
21
155
341
79
176
23
72
154
85
7
243
272
114
186
124
246
180
126
235
51
89
316
309
28
146
55
36
207
332
13
276
264
236
275

>  <PUBCHEM_MMFF94_PARTIAL_CHARGES>  (1) 
19
1 -0.18
11 0.08
12 -0.14
13 0.18
14 -0.15
15 0.2
16 -0.15
17 -0.15
18 0.57
2 -0.36
3 -0.57
30 0.15
33 0.15
34 0.15
35 0.37
36 0.4
4 -0.44
5 -0.39
9 0.28

>  <PUBCHEM_EFFECTIVE_ROTOR_COUNT>  (1) 
8

>  <PUBCHEM_PHARMACOPHORE_FEATURES>  (1) 
5
1 10 hydrophobe
1 2 acceptor
1 3 acceptor
1 5 donor
6 11 12 13 14 16 17 rings

>  <PUBCHEM_HEAVY_ATOM_COUNT>  (1) 
18

>  <PUBCHEM_ATOM_DEF_STEREO_COUNT>  (1) 
0

>  <PUBCHEM_ATOM_UDEF_STEREO_COUNT>  (1) 
0

>  <PUBCHEM_BOND_DEF_STEREO_COUNT>  (1) 
0

>  <PUBCHEM_BOND_UDEF_STEREO_COUNT>  (1) 
0

>  <PUBCHEM_ISOTOPIC_ATOM_COUNT>  (1) 
0

>  <PUBCHEM_COMPONENT_COUNT>  (1) 
1

>  <PUBCHEM_CACTVS_TAUTO_COUNT>  (1) 
3

>  <PUBCHEM_CONFORMER_ID>  (1) 
00007BAC00000001

>  <PUBCHEM_MMFF94_ENERGY>  (1) 
37.7912

>  <PUBCHEM_FEATURE_SELFOVERLAP>  (1) 
25.371

>  <PUBCHEM_SHAPE_FINGERPRINT>  (1) 
10693767 8 18187074044745258675
10753850 27 18408318882713981667
11796584 16 18060140886574613339
12596602 18 12967127216122274855
12633257 1 15697998591483479815
12670543 26 17313099727005344257
12892183 10 15625669293250427258
13533116 47 18272651293955686841
13583140 156 16558177194889571592
13668630 136 18261950860644852103
14178000 29 18334579057291899053
14251764 30 18335413578396698919
14251764 75 11958286866571702298
14576447 43 18040708191121975225
15209294 21 10952044541919436921
15475509 35 17775278361662685410
15510800 12 18129679542234063262
16752209 62 17168143386912642424
18222031 100 18260544550116376137
193927 3 18341626922725875331
19784866 140 17748824094712666121
19784866 240 18341054094896137027
20388580 30 18334581273410725237
20526848 3 7853856096389919655
20645477 70 18188489198204337781
21637258 2 18272927215634583475
21641784 216 15792007831916700557
221357 26 17313370267617974397
22224240 67 12319736973506758749
22620623 9 18042406820164330045
23379529 103 18044105772368046459
23402655 69 16226034614275057065
270888 7 8213846077638283350
2748010 2 16953406734509700720
2838139 119 12035730963335440414
2871803 45 17822289072123861736
2916195 48 9151168757969344191
29717793 49 18409165550181330077
3060560 45 17822568408085494339
3286 77 18201721734734973712
33382 64 18202849846169964147
3472631 163 10881400937404971587
4259306 186 18333734585148593298
427121 178 11527955551246518708
465052 167 16702027508100463069
5104073 3 13253982069237028687
56616090 13 10953754334182505182
5718773 13 18265612088057260282
58807428 26 13542464245782496717
76465 3 18338238155169972762
77188 2 18272087223169763233
960060 61 17603588546947609551

>  <PUBCHEM_SHAPE_MULTIPOLES>  (1) 
349.71
14.12
2.22
1.35
17.66
0.21
-0.04
14.11
-4.13
-1.05
-1.05
-0.49
-0.29
0.1

>  <PUBCHEM_SHAPE_SELFOVERLAP>  (1) 
692.681

>  <PUBCHEM_SHAPE_VOLUME>  (1) 
208.3

>  <PUBCHEM_COORDINATE_TYPE>  (1) 
2
5
10

$$$$
