3166
     RDKit          3D

 23 24  0  0  1  0  0  0  0  0999 V2000
    1.0490   -0.2103   -0.1629 O   0  0  0  0  0  0  0  0  0  0  0  0
   -0.0459   -0.2865    1.8620 O   0  0  0  0  0  0  0  0  0  0  0  0
    4.7093   -0.5649    0.1171 N   0  0  0  0  0  0  0  0  0  0  0  0
   -2.0259    1.2940    0.1230 C   0  0  0  0  0  0  0  0  0  0  0  0
   -3.2257    1.5075   -0.8095 C   0  0  0  0  0  0  0  0  0  0  0  0
   -1.0583    2.4831    0.0497 C   0  0  0  0  0  0  0  0  0  0  0  0
   -1.3049   -0.0096   -0.2153 C   0  0  0  0  0  0  0  0  0  0  0  0
   -3.9317    2.8314   -0.5258 C   0  0  0  0  0  0  0  0  0  0  0  0
   -1.7680    3.8054    0.3321 C   0  0  0  0  0  0  0  0  0  0  0  0
   -2.9652    4.0099   -0.5909 C   0  0  0  0  0  0  0  0  0  0  0  0
   -2.2204   -1.2205   -0.1150 C   0  0  0  0  0  0  0  0  0  0  0  0
   -0.0556   -0.1772    0.6426 C   0  0  0  0  0  0  0  0  0  0  0  0
   -2.0672   -2.2860   -1.0023 C   0  0  0  0  0  0  0  0  0  0  0  0
   -3.2127   -1.2658    0.8643 C   0  0  0  0  0  0  0  0  0  0  0  0
    2.2997   -0.3888    0.5099 C   0  0  0  0  0  0  0  0  0  0  0  0
    3.4134   -0.4025   -0.5248 C   0  0  0  0  0  0  0  0  0  0  0  0
   -2.9063   -3.3964   -0.9104 C   0  0  0  0  0  0  0  0  0  0  0  0
   -4.0517   -2.3763    0.9562 C   0  0  0  0  0  0  0  0  0  0  0  0
   -3.8985   -3.4416    0.0688 C   0  0  0  0  0  0  0  0  0  0  0  0
    5.1604    0.7005    0.7013 C   0  0  0  0  0  0  0  0  0  0  0  0
    5.7022   -1.0627   -0.8380 C   0  0  0  0  0  0  0  0  0  0  0  0
    6.4800    0.5274    1.4342 C   0  0  0  0  0  0  0  0  0  0  0  0
    5.9241   -0.0702   -1.9666 C   0  0  0  0  0  0  0  0  0  0  0  0
  1 12  1  0
  1 15  1  0
  2 12  2  0
  3 16  1  0
  3 20  1  0
  3 21  1  0
  4  5  1  0
  4  6  1  0
  4  7  1  0
  5  8  1  0
  6  9  1  0
  7 11  1  0
  7 12  1  0
  8 10  1  0
  9 10  1  0
 11 13  2  0
 11 14  1  0
 13 17  1  0
 14 18  2  0
 15 16  1  0
 17 19  2  0
 18 19  1  0
 20 22  1  0
 21 23  1  0
M  END
>  <PUBCHEM_COMPOUND_CID>  (1) 
3166

>  <PUBCHEM_CONFORMER_RMSD>  (1) 
1

>  <PUBCHEM_CONFORMER_DIVERSEORDER>  (1) 
1
155
142
50
62
61
127
158
102
60
55
71
124
168
146
123
59
28
87
96
119
81
103
173
26
8
166
24
36
16
104
101
43
53
174
152
82
67
92
88
160
172
6
49
167
32
151
117
25
45
129
109
143
33
15
111
113
18
22
48
110
54
65
66
112
27
17
57
114
135
128
13
42
47
69
118
145
133
93
9
74
73
171
23
68
95
83
35
144
14
84
72
70
176
164
156
136
98
37
19
7
116
76
134
40
131
39
162
126
75
108
153
52
105
64
44
4
141
99
21
58
63
10
90
31
51
46
147
29
2
56
107
30
159
175
80
115
140
34
78
161
132
157
94
137
85
120
77
12
79
20
97
165
148
100
91
11
121
139
86
3
163
38
5
149
122
125
138
89
106
41
130
154
150
169
170

>  <PUBCHEM_MMFF94_PARTIAL_CHARGES>  (1) 
20
1 -0.43
11 -0.14
12 0.66
13 -0.15
14 -0.15
15 0.28
16 0.27
17 -0.15
18 -0.15
19 -0.15
2 -0.57
20 0.27
21 0.27
3 -0.81
36 0.15
37 0.15
42 0.15
43 0.15
44 0.15
7 0.2

>  <PUBCHEM_EFFECTIVE_ROTOR_COUNT>  (1) 
10.2

>  <PUBCHEM_PHARMACOPHORE_FEATURES>  (1) 
4
1 2 acceptor
1 3 cation
6 11 13 14 17 18 19 rings
6 4 5 6 8 9 10 rings

>  <PUBCHEM_HEAVY_ATOM_COUNT>  (1) 
23

>  <PUBCHEM_ATOM_DEF_STEREO_COUNT>  (1) 
0

>  <PUBCHEM_ATOM_UDEF_STEREO_COUNT>  (1) 
1

>  <PUBCHEM_BOND_DEF_STEREO_COUNT>  (1) 
0

>  <PUBCHEM_BOND_UDEF_STEREO_COUNT>  (1) 
0

>  <PUBCHEM_ISOTOPIC_ATOM_COUNT>  (1) 
0

>  <PUBCHEM_COMPONENT_COUNT>  (1) 
1

>  <PUBCHEM_CACTVS_TAUTO_COUNT>  (1) 
1

>  <PUBCHEM_CONFORMER_ID>  (1) 
00000C5E00000001

>  <PUBCHEM_MMFF94_ENERGY>  (1) 
43.5086

>  <PUBCHEM_FEATURE_SELFOVERLAP>  (1) 
20.297

>  <PUBCHEM_SHAPE_FINGERPRINT>  (1) 
10411042 1 18193553604797272731
105312 117 18265895752770310485
10912923 1 17458065967662827910
11056379 131 18410019835865984166
11069576 57 16473726279889288711
11101153 10 18117561945418109708
12035758 1 18340785792747679843
12553582 1 18264477559186489379
12616971 3 16732981986633763144
12788726 201 18260822700994375291
13583140 156 17989197141087022974
14251757 5 18340204098708003073
14508225 48 18197481030408868671
14713325 29 18410582747333459291
14844126 61 18408878555696975155
15042514 8 18410299125094341317
15131766 46 15142970606191824430
15463212 79 18115582643376130891
15842332 3 17678159539010361426
16087824 20 18336825309374031165
17539 30 18340195371735053239
17844677 252 18410577310273900248
1813 80 18126300859065621039
20101258 96 18337116777673814993
21033650 10 18190206541246720486
2132832 1 18042127712083631044
21426921 1 18409449184766863799
22224240 67 18198630930904853929
22393880 68 18341055117130651718
23402539 116 18114456855318104138
23557571 272 18340498802294463302
23598288 3 18262252078894626157
255183 451 17908986857303325583
268830 7 16660652851883755452
44062 13 18340771451419543366
4409770 3 18409445861285064191
497634 4 17774460363818683064
5219985 13 17901380091763847221
531348 171 18265342720503393782
5969126 39 18270385213634315743
633830 44 17313397673725278914
9981440 41 18048318838922018905

>  <PUBCHEM_SHAPE_MULTIPOLES>  (1) 
456.61
13
4.6
1.3
29.06
2.36
-0.02
-2.45
-0.88
-10.14
-0.77
1.33
-0.24
1.25

>  <PUBCHEM_SHAPE_SELFOVERLAP>  (1) 
925.273

>  <PUBCHEM_SHAPE_VOLUME>  (1) 
265.3

>  <PUBCHEM_COORDINATE_TYPE>  (1) 
2
5
10

$$$$
