31663
     RDKit          3D

 13 14  0  0  0  0  0  0  0  0999 V2000
   -1.6539   -1.1761   -0.0008 O   0  0  0  0  0  0  0  0  0  0  0  0
    3.5976    0.3148   -0.0011 O   0  0  0  0  0  0  0  0  0  0  0  0
   -4.3729    1.1124    0.0004 O   0  0  0  0  0  0  0  0  0  0  0  0
   -0.0614    0.4260    0.0004 C   0  0  0  0  0  0  0  0  0  0  0  0
   -0.3113   -0.9424   -0.0002 C   0  0  0  0  0  0  0  0  0  0  0  0
    1.2743    0.8647    0.0008 C   0  0  0  0  0  0  0  0  0  0  0  0
   -1.3362    1.0511    0.0004 C   0  0  0  0  0  0  0  0  0  0  0  0
    2.2968   -0.0940    0.0009 C   0  0  0  0  0  0  0  0  0  0  0  0
    0.6832   -1.9187    0.0000 C   0  0  0  0  0  0  0  0  0  0  0  0
   -2.2654    0.0369   -0.0003 C   0  0  0  0  0  0  0  0  0  0  0  0
    2.0039   -1.4602    0.0007 C   0  0  0  0  0  0  0  0  0  0  0  0
   -3.6884    0.0647   -0.0005 C   0  0  0  0  0  0  0  0  0  0  0  0
    3.8337    1.7208   -0.0007 C   0  0  0  0  0  0  0  0  0  0  0  0
  1  5  1  0
  1 10  1  0
  2  8  1  0
  2 13  1  0
  3 12  2  0
  4  5  2  0
  4  6  1  0
  4  7  1  0
  5  9  1  0
  6  8  2  0
  7 10  2  0
  8 11  1  0
  9 11  2  0
 10 12  1  0
M  END
>  <PUBCHEM_COMPOUND_CID>  (1) 
31663

>  <PUBCHEM_CONFORMER_RMSD>  (1) 
0.6

>  <PUBCHEM_CONFORMER_DIVERSEORDER>  (1) 
1
2

>  <PUBCHEM_MMFF94_PARTIAL_CHARGES>  (1) 
17
1 -0.28
10 0.05
11 -0.15
12 0.59
13 0.28
14 0.15
15 0.15
16 0.15
17 0.15
18 0.06
2 -0.36
3 -0.57
5 0.14
6 -0.15
7 -0.15
8 0.08
9 -0.15

>  <PUBCHEM_EFFECTIVE_ROTOR_COUNT>  (1) 
2

>  <PUBCHEM_PHARMACOPHORE_FEATURES>  (1) 
5
1 1 acceptor
1 2 acceptor
1 3 acceptor
5 1 4 5 7 10 rings
6 4 5 6 8 9 11 rings

>  <PUBCHEM_HEAVY_ATOM_COUNT>  (1) 
13

>  <PUBCHEM_ATOM_DEF_STEREO_COUNT>  (1) 
0

>  <PUBCHEM_ATOM_UDEF_STEREO_COUNT>  (1) 
0

>  <PUBCHEM_BOND_DEF_STEREO_COUNT>  (1) 
0

>  <PUBCHEM_BOND_UDEF_STEREO_COUNT>  (1) 
0

>  <PUBCHEM_ISOTOPIC_ATOM_COUNT>  (1) 
0

>  <PUBCHEM_COMPONENT_COUNT>  (1) 
1

>  <PUBCHEM_CACTVS_TAUTO_COUNT>  (1) 
1

>  <PUBCHEM_CONFORMER_ID>  (1) 
00007BAF00000001

>  <PUBCHEM_MMFF94_ENERGY>  (1) 
30.1463

>  <PUBCHEM_FEATURE_SELFOVERLAP>  (1) 
25.474

>  <PUBCHEM_SHAPE_FINGERPRINT>  (1) 
10219947 1 18333170557036924965
10608611 8 18263077734665096421
10980938 120 18412543176238476403
11471102 20 18411132494388289373
11543360 7 16630233818180318997
12346645 44 18413390929763079041
13214271 11 18261956348810806919
13380535 76 18409729577485987218
14325111 11 18410855473044731681
14415576 193 18409451362357701956
14897335 6 18411979173933736479
14993402 34 16487253279123470533
15219456 202 18334864909045856755
15536298 74 18343584001899611206
15775835 57 18342176682570830540
16945 1 18410855434369082918
170605 34 18335420157964602234
17846911 113 18412538842880361936
18186145 218 18340491071079127597
20645477 70 18269270171494721463
23235685 24 18409442604961336328
23402539 116 18201148936495064340
23402655 69 18270670984032003021
23463225 33 18334852788795710450
23559900 14 18201159957956353380
25 1 18411416224164866508
2748010 2 18051130598911241420
3071541 37 18335145258920509870
366044 4 18410292544924979482
449060 50 18409172116838139893
449060 62 18413109441795828456
4990 188 17846226552773022204
5104073 3 18408605834021648931
528886 8 18411414029257275802
53812653 166 18342172301910079568
7364860 26 18269837523858257606

>  <PUBCHEM_SHAPE_MULTIPOLES>  (1) 
249.93
6.49
1.72
0.59
2.11
0.36
0
-3.2
0
-0.89
0
-0.02
0
0

>  <PUBCHEM_SHAPE_SELFOVERLAP>  (1) 
545.893

>  <PUBCHEM_SHAPE_VOLUME>  (1) 
138

>  <PUBCHEM_COORDINATE_TYPE>  (1) 
2
5
10

$$$$
