31669
     RDKit          3D

  8  8  0  0  1  0  0  0  0  0999 V2000
   -1.2348    0.1814    0.0322 P   0  0  0  0  0  0  0  0  0  0  0  0
    1.1757   -1.1800   -0.0339 O   0  0  0  0  0  0  0  0  0  0  0  0
   -1.4094   -0.9321    1.1821 O   0  0  0  0  0  0  0  0  0  0  0  0
   -2.2118   -0.2735   -1.1643 O   0  0  0  0  0  0  0  0  0  0  0  0
   -1.2717    1.6184    0.4480 O   0  0  0  0  0  0  0  0  0  0  0  0
    0.4391   -0.0931   -0.6171 C   0  0  0  0  0  0  0  0  0  0  0  0
    1.5869    0.1453    0.3260 C   0  0  0  0  0  0  0  0  0  0  0  0
    2.9259    0.5336   -0.1730 C   0  0  0  0  0  0  0  0  0  0  0  0
  1  3  1  0
  1  4  1  0
  1  5  2  0
  1  6  1  0
  2  6  1  0
  2  7  1  0
  6  7  1  0
  7  8  1  0
M  END
>  <PUBCHEM_COMPOUND_CID>  (1) 
31669

>  <PUBCHEM_CONFORMER_RMSD>  (1) 
0.4

>  <PUBCHEM_CONFORMER_DIVERSEORDER>  (1) 
1
2

>  <PUBCHEM_MMFF94_PARTIAL_CHARGES>  (1) 
12
1 1.35
10 0.1
14 0.5
15 0.5
2 -0.3
3 -0.77
4 -0.77
5 -0.7
6 -0.06
7 -0.05
8 0.09
9 0.1

>  <PUBCHEM_EFFECTIVE_ROTOR_COUNT>  (1) 
1.6

>  <PUBCHEM_PHARMACOPHORE_FEATURES>  (1) 
5
1 2 acceptor
1 3 acceptor
1 4 acceptor
1 5 acceptor
4 1 3 4 5 anion

>  <PUBCHEM_HEAVY_ATOM_COUNT>  (1) 
8

>  <PUBCHEM_ATOM_DEF_STEREO_COUNT>  (1) 
1

>  <PUBCHEM_ATOM_UDEF_STEREO_COUNT>  (1) 
1

>  <PUBCHEM_BOND_DEF_STEREO_COUNT>  (1) 
0

>  <PUBCHEM_BOND_UDEF_STEREO_COUNT>  (1) 
0

>  <PUBCHEM_ISOTOPIC_ATOM_COUNT>  (1) 
0

>  <PUBCHEM_COMPONENT_COUNT>  (1) 
1

>  <PUBCHEM_CACTVS_TAUTO_COUNT>  (1) 
1

>  <PUBCHEM_CONFORMER_ID>  (1) 
00007BB500000001

>  <PUBCHEM_MMFF94_ENERGY>  (1) 
-17.768

>  <PUBCHEM_FEATURE_SELFOVERLAP>  (1) 
25.406

>  <PUBCHEM_SHAPE_FINGERPRINT>  (1) 
12897270 3 17988349442663921773
12932741 1 18040438793472007334
14390081 3 18343580737745669176
16714656 1 17346312747480508300
21040471 1 18043544810424709192
24536 1 18187937148450372998
29004967 10 18409174336956307010
3248919 1 18260830393343553142

>  <PUBCHEM_SHAPE_MULTIPOLES>  (1) 
145.01
3.42
1.13
0.95
1.52
0.2
-0.01
0.37
-0.32
-0.24
0.2
-0.48
-0.13
-0.01

>  <PUBCHEM_SHAPE_SELFOVERLAP>  (1) 
261.313

>  <PUBCHEM_SHAPE_VOLUME>  (1) 
93.9

>  <PUBCHEM_COORDINATE_TYPE>  (1) 
2
5
10

$$$$
