31672
     RDKit          3D

 19 20  0  0  1  0  0  0  0  0999 V2000
   -5.6541   -1.6004   -0.2908 O   0  0  0  0  0  0  0  0  0  0  0  0
   -2.1962   -0.5835    0.4319 N   0  0  0  0  0  0  0  0  0  0  0  0
    0.2624   -0.2414    0.5729 C   0  0  0  0  0  0  0  0  0  0  0  0
   -0.8951   -1.1486    0.0462 C   0  0  0  0  0  0  0  0  0  0  0  0
    1.6621   -0.7284    0.1959 C   0  0  0  0  0  0  0  0  0  0  0  0
    0.1007    1.2335    0.2098 C   0  0  0  0  0  0  0  0  0  0  0  0
   -0.8114   -2.5755    0.6035 C   0  0  0  0  0  0  0  0  0  0  0  0
   -3.2787   -1.3787   -0.1196 C   0  0  0  0  0  0  0  0  0  0  0  0
    2.7090   -0.4482    1.0447 C   0  0  0  0  0  0  0  0  0  0  0  0
    0.6206    2.1846    1.0594 C   0  0  0  0  0  0  0  0  0  0  0  0
    1.8230   -1.4291   -0.9778 C   0  0  0  0  0  0  0  0  0  0  0  0
   -0.5588    1.5596   -0.9545 C   0  0  0  0  0  0  0  0  0  0  0  0
   -4.6268   -0.8031    0.2836 C   0  0  0  0  0  0  0  0  0  0  0  0
    3.9857   -0.8926    0.7010 C   0  0  0  0  0  0  0  0  0  0  0  0
    0.4730    3.5315    0.7278 C   0  0  0  0  0  0  0  0  0  0  0  0
    3.0999   -1.8736   -1.3213 C   0  0  0  0  0  0  0  0  0  0  0  0
   -0.7061    2.9066   -1.2861 C   0  0  0  0  0  0  0  0  0  0  0  0
    4.1811   -1.6052   -0.4818 C   0  0  0  0  0  0  0  0  0  0  0  0
   -0.1902    3.8925   -0.4448 C   0  0  0  0  0  0  0  0  0  0  0  0
  1 13  1  0
  2  4  1  0
  2  8  1  0
  3  4  1  0
  3  5  1  0
  3  6  1  0
  4  7  1  0
  5  9  2  0
  5 11  1  0
  6 10  2  0
  6 12  1  0
  8 13  1  0
  9 14  1  0
 10 15  1  0
 11 16  2  0
 12 17  2  0
 14 18  2  0
 15 19  2  0
 16 18  1  0
 17 19  1  0
M  END
>  <PUBCHEM_COMPOUND_CID>  (1) 
31672

>  <PUBCHEM_CONFORMER_RMSD>  (1) 
0.8

>  <PUBCHEM_CONFORMER_DIVERSEORDER>  (1) 
1
12
5
3
11
9
4
10
8
2
6
7

>  <PUBCHEM_MMFF94_PARTIAL_CHARGES>  (1) 
30
1 -0.68
10 -0.15
11 -0.15
12 -0.15
13 0.28
14 -0.15
15 -0.15
16 -0.15
17 -0.15
18 -0.15
19 -0.15
2 -0.9
22 0.36
28 0.15
29 0.15
3 0.29
30 0.15
31 0.15
34 0.15
35 0.15
36 0.15
37 0.15
38 0.15
39 0.15
4 0.27
40 0.4
5 -0.14
6 -0.14
8 0.27
9 -0.15

>  <PUBCHEM_EFFECTIVE_ROTOR_COUNT>  (1) 
6

>  <PUBCHEM_PHARMACOPHORE_FEATURES>  (1) 
6
1 1 acceptor
1 1 donor
1 2 cation
1 2 donor
6 5 9 11 14 16 18 rings
6 6 10 12 15 17 19 rings

>  <PUBCHEM_HEAVY_ATOM_COUNT>  (1) 
19

>  <PUBCHEM_ATOM_DEF_STEREO_COUNT>  (1) 
0

>  <PUBCHEM_ATOM_UDEF_STEREO_COUNT>  (1) 
1

>  <PUBCHEM_BOND_DEF_STEREO_COUNT>  (1) 
0

>  <PUBCHEM_BOND_UDEF_STEREO_COUNT>  (1) 
0

>  <PUBCHEM_ISOTOPIC_ATOM_COUNT>  (1) 
0

>  <PUBCHEM_COMPONENT_COUNT>  (1) 
1

>  <PUBCHEM_CACTVS_TAUTO_COUNT>  (1) 
1

>  <PUBCHEM_CONFORMER_ID>  (1) 
00007BB800000001

>  <PUBCHEM_MMFF94_ENERGY>  (1) 
52.9492

>  <PUBCHEM_FEATURE_SELFOVERLAP>  (1) 
30.446

>  <PUBCHEM_SHAPE_FINGERPRINT>  (1) 
11680986 33 18120376716232323675
12617007 42 18408887377512133011
12788726 201 18261398793526545018
13134695 92 18338233872834338853
13149001 5 18043258035680447403
13681431 1 18265630950819550176
14022347 108 18334014990773744042
14170010 4 18269272525315790291
14181834 199 18196936797326752415
14347329 18 16155086341807593479
15420108 30 17624114402235896544
15848700 24 18412544310141809391
1601671 61 18194964273614514296
16752209 62 18042406837623650314
17357779 13 18341035342557356405
1813 80 18412271631337105871
18785283 64 18048324628432048803
20097449 115 18408320007963485177
20510252 161 18337953368636339922
20600515 1 18261119581712639350
20671657 1 18120941861124756639
21041028 32 18413671318630275169
21285901 2 18272095941768257526
21304303 282 17180200498120469252
21524375 3 17107076309168309544
22182313 1 18190153820112134085
22907989 373 18195820565723733108
23352939 185 18271536372349438048
23402539 116 18340763758542642726
23419403 2 17773571906446346585
23557571 272 18411421666410709030
23558518 356 17755867415818938938
2748010 2 18266996454019864744
283562 15 18263649463568711050
298252 57 13984665870890508962
3250762 1 17612042868053344403
350125 39 17328033070310785435
57262259 84 18197506125237984790
5845 1 18197522673820965728
621550 34 18131061624560910546
6442390 28 17333948447221879209
6443956 14 18412545439939559353
68521 5 18335986354739050564
7164475 11 18190464848853747422
7364860 26 18124880315727630177
7495541 125 17968669344870041107
81228 2 18265068941643308530
9971528 1 18272088322833552835

>  <PUBCHEM_SHAPE_MULTIPOLES>  (1) 
380.16
6.99
4.23
1.15
4.86
5.16
0.15
-7.96
0.4
1.48
0.37
-0.56
0.25
0.87

>  <PUBCHEM_SHAPE_SELFOVERLAP>  (1) 
796.422

>  <PUBCHEM_SHAPE_VOLUME>  (1) 
214.3

>  <PUBCHEM_COORDINATE_TYPE>  (1) 
2
5
10

$$$$
