31676
     RDKit          3D

  9  8  0  0  0  0  0  0  0  0999 V2000
    5.0065   -0.1560   -0.0582 N   0  0  0  0  0  0  0  0  0  0  0  0
   -4.8025    0.5790   -0.0188 N   0  0  0  0  0  0  0  0  0  0  0  0
    1.1804    0.3982    0.0645 C   0  0  0  0  0  0  0  0  0  0  0  0
   -0.0128   -0.5593    0.0332 C   0  0  0  0  0  0  0  0  0  0  0  0
    2.5362   -0.3168    0.0209 C   0  0  0  0  0  0  0  0  0  0  0  0
   -1.3372    0.2067   -0.0108 C   0  0  0  0  0  0  0  0  0  0  0  0
    3.7613    0.5996   -0.0063 C   0  0  0  0  0  0  0  0  0  0  0  0
   -2.5320   -0.7465   -0.0097 C   0  0  0  0  0  0  0  0  0  0  0  0
   -3.7998   -0.0049   -0.0149 C   0  0  0  0  0  0  0  0  0  0  0  0
  1  7  1  0
  2  9  3  0
  3  4  1  0
  3  5  1  0
  4  6  1  0
  5  7  1  0
  6  8  1  0
  8  9  1  0
M  END
>  <PUBCHEM_COMPOUND_CID>  (1) 
31676

>  <PUBCHEM_CONFORMER_RMSD>  (1) 
0.6

>  <PUBCHEM_CONFORMER_DIVERSEORDER>  (1) 
1
29
33
9
25
17
39
27
26
24
18
11
3
19
31
38
2
37
7
34
21
5
30
10
16
12
35
32
8
36
13
28
15
22
23
14
20
6
4

>  <PUBCHEM_MMFF94_PARTIAL_CHARGES>  (1) 
7
1 -0.99
2 -0.56
22 0.36
23 0.36
7 0.27
8 0.2
9 0.36

>  <PUBCHEM_EFFECTIVE_ROTOR_COUNT>  (1) 
5

>  <PUBCHEM_PHARMACOPHORE_FEATURES>  (1) 
4
1 1 cation
1 1 donor
1 2 acceptor
5 3 4 5 6 8 hydrophobe

>  <PUBCHEM_HEAVY_ATOM_COUNT>  (1) 
9

>  <PUBCHEM_ATOM_DEF_STEREO_COUNT>  (1) 
0

>  <PUBCHEM_ATOM_UDEF_STEREO_COUNT>  (1) 
0

>  <PUBCHEM_BOND_DEF_STEREO_COUNT>  (1) 
0

>  <PUBCHEM_BOND_UDEF_STEREO_COUNT>  (1) 
0

>  <PUBCHEM_ISOTOPIC_ATOM_COUNT>  (1) 
0

>  <PUBCHEM_COMPONENT_COUNT>  (1) 
1

>  <PUBCHEM_CACTVS_TAUTO_COUNT>  (1) 
1

>  <PUBCHEM_CONFORMER_ID>  (1) 
00007BBC00000001

>  <PUBCHEM_MMFF94_ENERGY>  (1) 
-3.356

>  <PUBCHEM_FEATURE_SELFOVERLAP>  (1) 
20.297

>  <PUBCHEM_SHAPE_FINGERPRINT>  (1) 
11062470 55 18410575093258301259
12932764 1 15719657874954263131
14123238 8 8070026670715874818
17834076 25 18410012139009906159
18342897 14 18334012795807701636
20645477 70 18130509621994103382
20719005 15 18410856572524717450
20767249 13 14620795994289260734
20828058 44 14923950063197499329
21119208 17 17846499239951239172
22485316 2 17988922284138158670
23402539 116 17846491530632844037
366044 4 18410011048099269274
42788 4 18410573989451719172

>  <PUBCHEM_SHAPE_MULTIPOLES>  (1) 
175.25
10.12
0.81
0.6
1.24
0.02
0
-1.23
0.21
-0.12
0
0
0
0.01

>  <PUBCHEM_SHAPE_SELFOVERLAP>  (1) 
310.557

>  <PUBCHEM_SHAPE_VOLUME>  (1) 
111.1

>  <PUBCHEM_COORDINATE_TYPE>  (1) 
2
5
10

$$$$
