31684
     RDKit          3D

 25 26  0  0  1  0  0  0  0  0999 V2000
    1.3938    2.0254    1.3872 I   0  0  0  0  0  0  0  0  0  0  0  0
   -1.9632   -2.8964    0.1568 I   0  0  0  0  0  0  0  0  0  0  0  0
    3.9654   -3.2433   -0.4014 I   0  0  0  0  0  0  0  0  0  0  0  0
   -1.1271    0.1053    1.0032 O   0  0  0  0  0  0  0  0  0  0  0  0
   -1.5530    3.0469   -0.9208 O   0  0  0  0  0  0  0  0  0  0  0  0
   -1.7443    2.8049    1.3242 O   0  0  0  0  0  0  0  0  0  0  0  0
    3.9921    0.7592   -1.5885 O   0  0  0  0  0  0  0  0  0  0  0  0
    3.6671   -0.1347    0.5626 N   0  0  0  0  0  0  0  0  0  0  0  0
   -1.7497    0.8052   -0.0712 C   0  0  0  0  0  0  0  0  0  0  0  0
   -3.1432    0.3095   -0.2635 C   0  0  0  0  0  0  0  0  0  0  0  0
    0.0025   -0.6055    0.7001 C   0  0  0  0  0  0  0  0  0  0  0  0
    2.4026   -0.7340    0.4772 C   0  0  0  0  0  0  0  0  0  0  0  0
    1.2558   -0.0025    0.7864 C   0  0  0  0  0  0  0  0  0  0  0  0
   -0.1083   -1.9377    0.3059 C   0  0  0  0  0  0  0  0  0  0  0  0
   -3.8806   -0.1405    0.8317 C   0  0  0  0  0  0  0  0  0  0  0  0
   -3.7091    0.2957   -1.5383 C   0  0  0  0  0  0  0  0  0  0  0  0
    2.2938   -2.0673    0.0824 C   0  0  0  0  0  0  0  0  0  0  0  0
    1.0385   -2.6693   -0.0033 C   0  0  0  0  0  0  0  0  0  0  0  0
   -1.6755    2.3033    0.2097 C   0  0  0  0  0  0  0  0  0  0  0  0
    4.3645    0.5524   -0.4383 C   0  0  0  0  0  0  0  0  0  0  0  0
    5.7089    1.0455    0.0756 C   0  0  0  0  0  0  0  0  0  0  0  0
   -5.1838   -0.6041    0.6520 C   0  0  0  0  0  0  0  0  0  0  0  0
   -5.0123   -0.1680   -1.7179 C   0  0  0  0  0  0  0  0  0  0  0  0
   -5.7498   -0.6179   -0.6228 C   0  0  0  0  0  0  0  0  0  0  0  0
    6.5151    1.7679   -0.9889 C   0  0  0  0  0  0  0  0  0  0  0  0
  1 13  1  0
  2 14  1  0
  3 17  1  0
  4  9  1  0
  4 11  1  0
  5 19  1  0
  6 19  2  0
  7 20  2  0
  8 12  1  0
  8 20  1  0
  9 10  1  0
  9 19  1  0
 10 15  2  0
 10 16  1  0
 11 13  1  0
 11 14  2  0
 12 13  2  0
 12 17  1  0
 14 18  1  0
 15 22  1  0
 16 23  2  0
 17 18  2  0
 20 21  1  0
 21 25  1  0
 22 24  2  0
 23 24  1  0
M  END
>  <PUBCHEM_COMPOUND_CID>  (1) 
31684

>  <PUBCHEM_CONFORMER_RMSD>  (1) 
0.8

>  <PUBCHEM_CONFORMER_DIVERSEORDER>  (1) 
1
36
53
20
38
49
27
15
29
46
41
44
33
54
4
13
35
24
43
31
37
7
52
45
39
32
40
3
8
10
34
23
50
21
30
47
17
22
14
12
5
6
26
16
48
18
51
28
25
11
9
19
42
2

>  <PUBCHEM_MMFF94_PARTIAL_CHARGES>  (1) 
32
1 -0.08
10 -0.14
11 0.08
12 0.12
13 0.08
14 0.08
15 -0.15
16 -0.15
17 0.08
18 -0.15
19 0.66
2 -0.08
20 0.57
21 0.06
22 -0.15
23 -0.15
24 -0.15
27 0.15
28 0.15
29 0.37
3 -0.08
30 0.15
33 0.15
34 0.15
35 0.15
39 0.5
4 -0.36
5 -0.65
6 -0.57
7 -0.57
8 -0.55
9 0.48

>  <PUBCHEM_EFFECTIVE_ROTOR_COUNT>  (1) 
7

>  <PUBCHEM_PHARMACOPHORE_FEATURES>  (1) 
12
1 1 hydrophobe
1 2 hydrophobe
1 25 hydrophobe
1 3 hydrophobe
1 4 acceptor
1 5 acceptor
1 6 acceptor
1 7 acceptor
1 8 donor
3 5 6 19 anion
6 10 15 16 22 23 24 rings
6 11 12 13 14 17 18 rings

>  <PUBCHEM_HEAVY_ATOM_COUNT>  (1) 
25

>  <PUBCHEM_ATOM_DEF_STEREO_COUNT>  (1) 
0

>  <PUBCHEM_ATOM_UDEF_STEREO_COUNT>  (1) 
1

>  <PUBCHEM_BOND_DEF_STEREO_COUNT>  (1) 
0

>  <PUBCHEM_BOND_UDEF_STEREO_COUNT>  (1) 
0

>  <PUBCHEM_ISOTOPIC_ATOM_COUNT>  (1) 
0

>  <PUBCHEM_COMPONENT_COUNT>  (1) 
1

>  <PUBCHEM_CACTVS_TAUTO_COUNT>  (1) 
2

>  <PUBCHEM_CONFORMER_ID>  (1) 
00007BC400000001

>  <PUBCHEM_MMFF94_ENERGY>  (1) 
104.1214

>  <PUBCHEM_FEATURE_SELFOVERLAP>  (1) 
60.96

>  <PUBCHEM_SHAPE_FINGERPRINT>  (1) 
10090160 65 18259982669472804251
10366900 7 18272364295513773057
10498660 4 18336829792185543462
10670039 82 18262249833096592916
11796584 16 13614530666067570236
12403260 363 18265889147332492770
12553582 1 18272922830662826561
12788726 201 17989209205138669257
13140716 1 18196921386794301411
13911987 19 18335411388079234047
14705955 166 13118543200398431750
14767858 380 18340764931110432180
14787075 74 18411978057268678387
14790565 3 18269282270422901609
14840074 17 18202563982290299015
14931854 50 18341891883300249124
15537594 2 18060413629893556079
173720 79 18041827498602119776
17492 54 18411409631595938471
19319366 153 18409721864062866518
21049683 271 18262236746399995365
21403212 168 9078848372294720877
21709351 56 18122624947002181734
23559900 14 18269269243644726432
23622692 88 8862946082477839904
2748010 2 18053091015242970331
312423 11 18269559329714087890
3380486 145 18191608512803609123
350125 39 18195252117684840091
5486654 2 18410855486320166631
58051976 378 18411984667603109478
59755656 215 18342174496838769240
6669772 16 18058152007885362168

>  <PUBCHEM_SHAPE_MULTIPOLES>  (1) 
521.84
12.38
3.64
1.33
3.66
1.02
0.25
-1.76
4.92
2.31
-0.23
-0.44
-0.52
-0.22

>  <PUBCHEM_SHAPE_SELFOVERLAP>  (1) 
1041.804

>  <PUBCHEM_SHAPE_VOLUME>  (1) 
314.8

>  <PUBCHEM_COORDINATE_TYPE>  (1) 
2
5
10

$$$$
