31683
     RDKit          3D

 26 27  0  0  1  0  0  0  0  0999 V2000
    1.2684   -2.0025   -1.4460 I   0  0  0  0  0  0  0  0  0  0  0  0
    3.8585    3.1763    0.5645 I   0  0  0  0  0  0  0  0  0  0  0  0
   -2.0695    2.8819   -0.0288 I   0  0  0  0  0  0  0  0  0  0  0  0
   -1.2447   -0.0870   -0.9934 O   0  0  0  0  0  0  0  0  0  0  0  0
    3.4928   -0.7145    1.6712 O   0  0  0  0  0  0  0  0  0  0  0  0
   -1.8041   -3.0916    0.8036 O   0  0  0  0  0  0  0  0  0  0  0  0
   -1.9312   -2.7658   -1.4354 O   0  0  0  0  0  0  0  0  0  0  0  0
    3.5488    0.1110   -0.5260 N   0  0  0  0  0  0  0  0  0  0  0  0
    2.2444    0.7328   -0.4174 C   0  0  0  0  0  0  0  0  0  0  0  0
   -1.8784   -0.8282    0.0449 C   0  0  0  0  0  0  0  0  0  0  0  0
   -0.1149    0.6040   -0.6583 C   0  0  0  0  0  0  0  0  0  0  0  0
    1.1379   -0.0001   -0.7638 C   0  0  0  0  0  0  0  0  0  0  0  0
   -3.2771   -0.2931    0.2559 C   0  0  0  0  0  0  0  0  0  0  0  0
    2.1831    2.0293    0.0273 C   0  0  0  0  0  0  0  0  0  0  0  0
    4.0682   -0.5863    0.5875 C   0  0  0  0  0  0  0  0  0  0  0  0
   -0.2186    1.9209   -0.2099 C   0  0  0  0  0  0  0  0  0  0  0  0
    5.4641   -1.1771    0.4108 C   0  0  0  0  0  0  0  0  0  0  0  0
    0.9304    2.6335    0.1329 C   0  0  0  0  0  0  0  0  0  0  0  0
    4.2888    0.2264   -1.7925 C   0  0  0  0  0  0  0  0  0  0  0  0
   -3.9742    0.2224   -0.8236 C   0  0  0  0  0  0  0  0  0  0  0  0
   -3.8315   -0.3295    1.5241 C   0  0  0  0  0  0  0  0  0  0  0  0
   -1.8662   -2.3055   -0.3029 C   0  0  0  0  0  0  0  0  0  0  0  0
    5.9486   -1.9242    1.6442 C   0  0  0  0  0  0  0  0  0  0  0  0
   -5.2642    0.7159   -0.6292 C   0  0  0  0  0  0  0  0  0  0  0  0
   -5.1215    0.1641    1.7185 C   0  0  0  0  0  0  0  0  0  0  0  0
   -5.8380    0.6868    0.6418 C   0  0  0  0  0  0  0  0  0  0  0  0
  1 12  1  0
  2 14  1  0
  3 16  1  0
  4 10  1  0
  4 11  1  0
  5 15  2  0
  6 22  1  0
  7 22  2  0
  8  9  1  0
  8 15  1  0
  8 19  1  0
  9 12  2  0
  9 14  1  0
 10 13  1  0
 10 22  1  0
 11 12  1  0
 11 16  2  0
 13 20  2  0
 13 21  1  0
 14 18  2  0
 15 17  1  0
 16 18  1  0
 17 23  1  0
 20 24  1  0
 21 25  2  0
 24 26  2  0
 25 26  1  0
M  END
>  <PUBCHEM_COMPOUND_CID>  (1) 
31683

>  <PUBCHEM_CONFORMER_RMSD>  (1) 
0.8

>  <PUBCHEM_CONFORMER_DIVERSEORDER>  (1) 
4
73
70
85
31
62
21
36
61
76
65
81
11
66
79
77
69
71
78
5
91
72
25
22
15
42
87
7
82
23
12
75
74
89
29
13
33
90
84
32
86
19
8
39
80
51
53
20
45
88
43
10
16
58
54
64
37
44
34
9
63
83
14
18
67
1
17
59
38
57
68
27
28
47
6
30
60
40
3
24
26
49
2
41
50
48
35
46
52
55
56

>  <PUBCHEM_MMFF94_PARTIAL_CHARGES>  (1) 
32
1 -0.08
10 0.48
11 0.08
12 0.08
13 -0.14
14 0.08
15 0.57
16 0.08
17 0.06
18 -0.15
19 0.3
2 -0.08
20 -0.15
21 -0.15
22 0.66
24 -0.15
25 -0.15
26 -0.15
3 -0.08
30 0.15
34 0.15
35 0.15
39 0.15
4 -0.36
40 0.15
41 0.15
42 0.5
5 -0.57
6 -0.65
7 -0.57
8 -0.48
9 0.12

>  <PUBCHEM_EFFECTIVE_ROTOR_COUNT>  (1) 
7

>  <PUBCHEM_PHARMACOPHORE_FEATURES>  (1) 
11
1 1 hydrophobe
1 2 hydrophobe
1 23 hydrophobe
1 3 hydrophobe
1 4 acceptor
1 5 acceptor
1 6 acceptor
1 7 acceptor
3 6 7 22 anion
6 13 20 21 24 25 26 rings
6 9 11 12 14 16 18 rings

>  <PUBCHEM_HEAVY_ATOM_COUNT>  (1) 
26

>  <PUBCHEM_ATOM_DEF_STEREO_COUNT>  (1) 
0

>  <PUBCHEM_ATOM_UDEF_STEREO_COUNT>  (1) 
1

>  <PUBCHEM_BOND_DEF_STEREO_COUNT>  (1) 
0

>  <PUBCHEM_BOND_UDEF_STEREO_COUNT>  (1) 
0

>  <PUBCHEM_ISOTOPIC_ATOM_COUNT>  (1) 
0

>  <PUBCHEM_COMPONENT_COUNT>  (1) 
1

>  <PUBCHEM_CACTVS_TAUTO_COUNT>  (1) 
1

>  <PUBCHEM_CONFORMER_ID>  (1) 
00007BC300000004

>  <PUBCHEM_MMFF94_ENERGY>  (1) 
113.1528

>  <PUBCHEM_FEATURE_SELFOVERLAP>  (1) 
55.885

>  <PUBCHEM_SHAPE_FINGERPRINT>  (1) 
10906281 52 18271544038370241157
1100329 8 18410288133745815602
11405975 8 18340205301361837776
11796584 16 17385724660105377115
12107183 9 18412826858923277721
12553582 1 18412550907227153724
12633257 1 18341896298473751518
12788726 201 18338529551231500088
13140716 1 18341051937973384222
13782708 43 17822580499162497579
14022347 108 18268169616073367462
14466204 15 18268431226985278033
14739800 52 17059484296384863312
14790565 3 17617099548200716548
15475509 84 18201721713334530056
15537594 2 18187937213312829774
16112460 7 18272377481269691488
16728300 4 17753315492169761227
16752209 62 18337666417318143205
17349148 13 18202849863713745565
20511986 3 16773512141254525557
20739085 24 18339933700563153996
21033648 144 18268984448573822237
21421861 104 18261946445080901224
22182313 1 18056484937039131668
23559900 14 17917161588626365380
23569943 247 17271467711257936623
335352 9 18412263930312889181
3383291 50 18334854978892188459
3411729 13 18199185269190409464
34797466 226 12175622888815576257
34934 24 18267865162800654812
350125 39 18412547613404599028
3680242 22 18411140216771330978
465052 167 18333457529798549866
474 4 18059305296724603127
5104073 3 18270123538419767155
5171179 24 17411349719273379087
9896288 288 17689984654003153528

>  <PUBCHEM_SHAPE_MULTIPOLES>  (1) 
542.42
12.23
3.52
1.52
0.57
0.84
-0.22
-1.23
-4.83
-1.73
-0.01
-0.51
-0.68
-0.55

>  <PUBCHEM_SHAPE_SELFOVERLAP>  (1) 
1085.563

>  <PUBCHEM_SHAPE_VOLUME>  (1) 
327.7

>  <PUBCHEM_COORDINATE_TYPE>  (1) 
2
5
10

$$$$
