31691
     RDKit          3D

 27 28  0  0  1  0  0  0  0  0999 V2000
   -0.1180   -1.7848   -0.8885 I   0  0  0  0  0  0  0  0  0  0  0  0
   -4.9221    1.5434    0.9596 I   0  0  0  0  0  0  0  0  0  0  0  0
    0.2833    4.2393   -0.1431 I   0  0  0  0  0  0  0  0  0  0  0  0
    1.0683    1.1773   -0.8013 O   0  0  0  0  0  0  0  0  0  0  0  0
    3.3298    2.4760    1.5935 O   0  0  0  0  0  0  0  0  0  0  0  0
   -4.5083   -2.5871   -1.0363 O   0  0  0  0  0  0  0  0  0  0  0  0
    3.2534    2.9001   -0.6313 O   0  0  0  0  0  0  0  0  0  0  0  0
   -3.1217   -1.0379    0.0783 N   0  0  0  0  0  0  0  0  0  0  0  0
    2.0271    0.9785    0.2346 C   0  0  0  0  0  0  0  0  0  0  0  0
   -2.3467    0.1292    0.0224 C   0  0  0  0  0  0  0  0  0  0  0  0
    2.7906   -0.2788   -0.0113 C   0  0  0  0  0  0  0  0  0  0  0  0
   -0.2452    1.2309   -0.4201 C   0  0  0  0  0  0  0  0  0  0  0  0
   -3.0756   -1.8560    1.3261 C   0  0  0  0  0  0  0  0  0  0  0  0
   -1.0092    0.0665   -0.3681 C   0  0  0  0  0  0  0  0  0  0  0  0
   -2.9178    1.3559    0.3606 C   0  0  0  0  0  0  0  0  0  0  0  0
    2.7232   -1.3266    0.9069 C   0  0  0  0  0  0  0  0  0  0  0  0
   -0.8140    2.4576   -0.0826 C   0  0  0  0  0  0  0  0  0  0  0  0
    3.4363   -2.5031    0.6762 C   0  0  0  0  0  0  0  0  0  0  0  0
    3.5708   -0.4076   -1.1604 C   0  0  0  0  0  0  0  0  0  0  0  0
   -2.1515    2.5203    0.3081 C   0  0  0  0  0  0  0  0  0  0  0  0
   -3.8813   -1.5247   -1.0363 C   0  0  0  0  0  0  0  0  0  0  0  0
   -4.2048   -1.4804    2.2706 C   0  0  0  0  0  0  0  0  0  0  0  0
    2.9154    2.2160    0.3260 C   0  0  0  0  0  0  0  0  0  0  0  0
    4.2166   -2.6319   -0.4729 C   0  0  0  0  0  0  0  0  0  0  0  0
    4.2838   -1.5840   -1.3911 C   0  0  0  0  0  0  0  0  0  0  0  0
    3.3658   -3.6232    1.6583 C   0  0  0  0  0  0  0  0  0  0  0  0
   -3.9481   -0.6652   -2.2779 C   0  0  0  0  0  0  0  0  0  0  0  0
  1 14  1  0
  2 15  1  0
  3 17  1  0
  4  9  1  0
  4 12  1  0
  5 23  1  0
  6 21  2  0
  7 23  2  0
  8 10  1  0
  8 13  1  0
  8 21  1  0
  9 11  1  0
  9 23  1  0
 10 14  2  0
 10 15  1  0
 11 16  2  0
 11 19  1  0
 12 14  1  0
 12 17  2  0
 13 22  1  0
 15 20  2  0
 16 18  1  0
 17 20  1  0
 18 24  2  0
 18 26  1  0
 19 25  2  0
 21 27  1  0
 24 25  1  0
M  END
>  <PUBCHEM_COMPOUND_CID>  (1) 
31691

>  <PUBCHEM_CONFORMER_RMSD>  (1) 
0.8

>  <PUBCHEM_CONFORMER_DIVERSEORDER>  (1) 
1
152
91
74
145
95
34
36
140
169
128
123
138
118
29
55
151
14
115
160
75
113
139
157
165
27
144
150
134
121
155
120
180
112
94
177
154
97
173
146
100
122
77
131
64
184
162
137
119
156
88
89
182
2
171
92
143
166
116
80
109
170
33
96
45
141
38
20
25
167
117
147
108
181
58
126
107
71
26
136
84
87
28
76
111
124
90
135
43
32
22
79
19
153
72
132
164
142
101
15
83
103
17
86
179
31
85
174
18
42
130
110
56
161
24
172
4
21
51
30
66
178
65
7
61
99
23
47
175
6
62
125
159
163
102
93
10
67
11
105
40
5
129
183
114
50
70
69
16
53
48
59
82
133
3
98
39
78
104
8
52
44
12
63
81
149
46
13
41
127
49
9
148
73
35
60
68
176
168
54
158
37
106
57

>  <PUBCHEM_MMFF94_PARTIAL_CHARGES>  (1) 
32
1 -0.08
10 0.12
11 -0.14
12 0.08
13 0.3
14 0.08
15 0.08
16 -0.15
17 0.08
18 -0.14
19 -0.15
2 -0.08
20 -0.15
21 0.57
23 0.66
24 -0.15
25 -0.15
26 0.14
27 0.06
3 -0.08
31 0.15
32 0.15
33 0.15
37 0.15
38 0.15
4 -0.36
45 0.5
5 -0.65
6 -0.57
7 -0.57
8 -0.48
9 0.48

>  <PUBCHEM_EFFECTIVE_ROTOR_COUNT>  (1) 
7

>  <PUBCHEM_PHARMACOPHORE_FEATURES>  (1) 
10
1 1 hydrophobe
1 2 hydrophobe
1 3 hydrophobe
1 4 acceptor
1 5 acceptor
1 6 acceptor
1 7 acceptor
3 5 7 23 anion
6 10 12 14 15 17 20 rings
6 11 16 18 19 24 25 rings

>  <PUBCHEM_HEAVY_ATOM_COUNT>  (1) 
27

>  <PUBCHEM_ATOM_DEF_STEREO_COUNT>  (1) 
0

>  <PUBCHEM_ATOM_UDEF_STEREO_COUNT>  (1) 
1

>  <PUBCHEM_BOND_DEF_STEREO_COUNT>  (1) 
0

>  <PUBCHEM_BOND_UDEF_STEREO_COUNT>  (1) 
0

>  <PUBCHEM_ISOTOPIC_ATOM_COUNT>  (1) 
0

>  <PUBCHEM_COMPONENT_COUNT>  (1) 
1

>  <PUBCHEM_CACTVS_TAUTO_COUNT>  (1) 
1

>  <PUBCHEM_CONFORMER_ID>  (1) 
00007BCB00000001

>  <PUBCHEM_MMFF94_ENERGY>  (1) 
117.1405

>  <PUBCHEM_FEATURE_SELFOVERLAP>  (1) 
50.81

>  <PUBCHEM_SHAPE_FINGERPRINT>  (1) 
10928967 22 18409740538216665991
1100329 8 18267583512057137769
11405975 8 18271811198489882105
11578080 2 17678440984481827660
12422481 6 17916599648269937095
12553582 1 18263924341338076042
12633257 1 18129386994830753753
12788726 201 18049167669987111728
13140716 1 18342738477257592793
13224815 77 18333732450523252533
13533116 47 18341330093568252435
13911987 19 17757552228357132397
14178342 30 17911789490650425040
14251757 5 17979085885918292044
14790565 3 17761506080797926900
15537594 2 18190473674716096050
17492 89 18343018943165097503
17804303 29 18195532489060813748
17818456 19 17988089885385773441
20645477 70 18339071700331012735
20691752 17 17967811656526568972
20775530 9 18411142415667875648
21703447 108 18270100401283425536
23559900 14 18342731893083303416
25222932 49 17696185181755345807
312423 11 18343865532441650711
44880168 125 17413024292794343486
5104073 3 18343871017674115865
5486654 36 18264500481183601506
7097593 13 18339929315369545297
9709674 26 18409729590323065545

>  <PUBCHEM_SHAPE_MULTIPOLES>  (1) 
563
9.98
4.8
1.64
0.97
3.02
-0.08
-6.08
-0.9
-1.76
-0.71
0.85
-1.13
-0.8

>  <PUBCHEM_SHAPE_SELFOVERLAP>  (1) 
1125.877

>  <PUBCHEM_SHAPE_VOLUME>  (1) 
340.3

>  <PUBCHEM_COORDINATE_TYPE>  (1) 
2
5
10

$$$$
