3169
     RDKit          3D

 17 18  0  0  1  0  0  0  0  0999 V2000
   -5.2874   -0.6267   -0.7134 O   0  0  0  0  0  0  0  0  0  0  0  0
   -5.1605    1.9408    0.4043 O   0  0  0  0  0  0  0  0  0  0  0  0
   -1.6980   -0.5879    0.2168 N   0  0  0  0  0  0  0  0  0  0  0  0
    1.1248   -0.2259   -0.0289 N   0  0  0  0  0  0  0  0  0  0  0  0
   -1.1431    0.1972   -0.8925 C   0  0  0  0  0  0  0  0  0  0  0  0
   -0.7767   -1.6756    0.5686 C   0  0  0  0  0  0  0  0  0  0  0  0
    0.2068    0.8103   -0.5116 C   0  0  0  0  0  0  0  0  0  0  0  0
    0.5845   -1.1244    0.9991 C   0  0  0  0  0  0  0  0  0  0  0  0
   -3.0112   -1.1234   -0.1400 C   0  0  0  0  0  0  0  0  0  0  0  0
   -4.0303   -0.0143   -0.4118 C   0  0  0  0  0  0  0  0  0  0  0  0
    2.5040    0.0104   -0.0367 C   0  0  0  0  0  0  0  0  0  0  0  0
   -4.2223    0.9335    0.7701 C   0  0  0  0  0  0  0  0  0  0  0  0
    3.0184    1.3133    0.1172 C   0  0  0  0  0  0  0  0  0  0  0  0
    3.4205   -1.0480   -0.1976 C   0  0  0  0  0  0  0  0  0  0  0  0
    4.3933    1.5483    0.1106 C   0  0  0  0  0  0  0  0  0  0  0  0
    4.7954   -0.8129   -0.2042 C   0  0  0  0  0  0  0  0  0  0  0  0
    5.2818    0.4852   -0.0500 C   0  0  0  0  0  0  0  0  0  0  0  0
  1 10  1  0
  2 12  1  0
  3  5  1  0
  3  6  1  0
  3  9  1  0
  4  7  1  0
  4  8  1  0
  4 11  1  0
  5  7  1  0
  6  8  1  0
  9 10  1  0
 10 12  1  0
 11 13  2  0
 11 14  1  0
 13 15  1  0
 14 16  2  0
 15 17  2  0
 16 17  1  0
M  END
>  <PUBCHEM_COMPOUND_CID>  (1) 
3169

>  <PUBCHEM_CONFORMER_RMSD>  (1) 
0.6

>  <PUBCHEM_CONFORMER_DIVERSEORDER>  (1) 
2
93
11
75
76
83
54
97
26
67
78
87
73
5
89
13
85
74
58
24
56
69
6
57
72
84
12
52
37
20
88
7
80
79
86
98
96
77
35
68
36
27
44
4
64
95
70
30
10
49
9
45
19
28
60
71
82
38
43
1
47
62
91
21
94
34
18
46
39
8
29
33
3
31
48
25
16
22
51
66
55
65
17
59
53
90
23
63
41
61
81
50
40
92
42
32
14
15

>  <PUBCHEM_MMFF94_PARTIAL_CHARGES>  (1) 
24
1 -0.68
10 0.28
11 0.1
12 0.28
13 -0.15
14 -0.15
15 -0.15
16 -0.15
17 -0.15
2 -0.68
3 -0.81
31 0.15
32 0.15
33 0.4
34 0.15
35 0.15
36 0.15
37 0.4
4 -0.84
5 0.27
6 0.27
7 0.37
8 0.37
9 0.27

>  <PUBCHEM_EFFECTIVE_ROTOR_COUNT>  (1) 
5.2

>  <PUBCHEM_PHARMACOPHORE_FEATURES>  (1) 
8
1 1 acceptor
1 1 donor
1 2 acceptor
1 2 donor
1 3 cation
1 4 cation
6 11 13 14 15 16 17 rings
6 3 4 5 6 7 8 rings

>  <PUBCHEM_HEAVY_ATOM_COUNT>  (1) 
17

>  <PUBCHEM_ATOM_DEF_STEREO_COUNT>  (1) 
0

>  <PUBCHEM_ATOM_UDEF_STEREO_COUNT>  (1) 
1

>  <PUBCHEM_BOND_DEF_STEREO_COUNT>  (1) 
0

>  <PUBCHEM_BOND_UDEF_STEREO_COUNT>  (1) 
0

>  <PUBCHEM_ISOTOPIC_ATOM_COUNT>  (1) 
0

>  <PUBCHEM_COMPONENT_COUNT>  (1) 
1

>  <PUBCHEM_CACTVS_TAUTO_COUNT>  (1) 
1

>  <PUBCHEM_CONFORMER_ID>  (1) 
00000C6100000002

>  <PUBCHEM_MMFF94_ENERGY>  (1) 
50.7628

>  <PUBCHEM_FEATURE_SELFOVERLAP>  (1) 
40.605

>  <PUBCHEM_SHAPE_FINGERPRINT>  (1) 
11132069 177 17676203602118616463
11401426 45 18187642535158394807
11471102 20 18411418432236914590
117890 112 18344146990465566184
12107183 9 17623297073969494691
12236239 1 18341892991950209855
12596602 18 13695592156757189980
12644460 14 17603858954004823042
12916748 109 18410579504617131723
13167823 11 18201715188761709559
13544592 145 18336274466073749606
13675066 3 18041005063144972067
15048467 5 18342176661069938640
15196674 1 18410012147594579009
15209294 21 18408041793099262145
15375358 24 18410859888640721454
17349148 13 12391515290836831374
17834072 33 18130503119291738935
17959699 21 18342176682676741656
18186145 218 18259696809429053150
19489759 90 16271930393706937947
200 152 17846498145035382458
20300324 65 18060700606976333289
20645477 56 17822005445579441406
20645477 70 18272371945494644678
23402539 116 18202560666122021253
23402655 69 18341894121447474470
23536379 177 17989207031700509695
23559900 14 18334858346958216522
2916195 48 18412258471341091744
293599 30 18335985289908992417
34797466 226 17131277981397719780
351380 180 18272369775934571792
4047638 21 18260829315454539370
4214541 1 18342176674213075965
42788 4 18341894099476791766
495365 180 17988352789218788626
4990 188 18343304760110826246
5104073 3 18187643656672153184
542803 24 18343584053180535012
633830 44 18407755954240690998
69090 78 18409726296426417686
7495541 125 16486686000038258627
77779 3 18341613741312942806
8272917 22 18130231458716570822

>  <PUBCHEM_SHAPE_MULTIPOLES>  (1) 
328.15
12.15
1.62
0.83
3.39
0.2
-0.03
3.42
0.34
0.23
-0.26
0.37
-0.04
-0.3

>  <PUBCHEM_SHAPE_SELFOVERLAP>  (1) 
670.013

>  <PUBCHEM_SHAPE_VOLUME>  (1) 
190.1

>  <PUBCHEM_COORDINATE_TYPE>  (1) 
2
5
10

$$$$
