31694
     RDKit          3D

 31 34  0  0  0  0  0  0  0  0999 V2000
    1.6940    2.7461    0.1995 O   0  0  0  0  0  0  0  0  0  0  0  0
   -1.0311    0.6833   -2.7406 O   0  0  0  0  0  0  0  0  0  0  0  0
    0.7501   -1.7773    0.7621 O   0  0  0  0  0  0  0  0  0  0  0  0
    3.4113   -0.5245    0.8457 N   0  0  0  0  0  0  0  0  0  0  0  0
   -1.7245   -2.4478   -0.5066 N   0  0  0  0  0  0  0  0  0  0  0  0
    1.2787    0.4728    0.4932 N   0  0  0  0  0  0  0  0  0  0  0  0
   -0.3039   -0.5866   -0.9306 N   0  0  0  0  0  0  0  0  0  0  0  0
   -0.3577    1.8567   -0.7258 C   0  0  0  0  0  0  0  0  0  0  0  0
    2.3974    0.3573    1.4233 C   0  0  0  0  0  0  0  0  0  0  0  0
   -0.8401   -1.8222   -1.4892 C   0  0  0  0  0  0  0  0  0  0  0  0
    0.9848    1.7571    0.0046 C   0  0  0  0  0  0  0  0  0  0  0  0
   -0.5913    0.6139   -1.5925 C   0  0  0  0  0  0  0  0  0  0  0  0
    4.5073   -0.7423    1.8002 C   0  0  0  0  0  0  0  0  0  0  0  0
    3.9118    0.0280   -0.4208 C   0  0  0  0  0  0  0  0  0  0  0  0
   -2.2038   -3.7467   -0.9997 C   0  0  0  0  0  0  0  0  0  0  0  0
   -2.8467   -1.5555   -0.1833 C   0  0  0  0  0  0  0  0  0  0  0  0
   -0.3082    3.1033   -1.6396 C   0  0  0  0  0  0  0  0  0  0  0  0
    5.5529   -1.7023    1.2305 C   0  0  0  0  0  0  0  0  0  0  0  0
    4.9380   -0.9065   -1.0631 C   0  0  0  0  0  0  0  0  0  0  0  0
   -3.0912   -4.4374    0.0371 C   0  0  0  0  0  0  0  0  0  0  0  0
   -3.7552   -2.1746    0.8800 C   0  0  0  0  0  0  0  0  0  0  0  0
    6.0878   -1.2080   -0.1086 C   0  0  0  0  0  0  0  0  0  0  0  0
   -4.2582   -3.5475    0.4488 C   0  0  0  0  0  0  0  0  0  0  0  0
    0.5769   -0.7094    0.1660 C   0  0  0  0  0  0  0  0  0  0  0  0
   -1.5393    2.0447    0.2517 C   0  0  0  0  0  0  0  0  0  0  0  0
    0.8065    2.9885   -2.6563 C   0  0  0  0  0  0  0  0  0  0  0  0
   -1.2952    2.1031    1.6174 C   0  0  0  0  0  0  0  0  0  0  0  0
   -2.8304    2.1535   -0.2476 C   0  0  0  0  0  0  0  0  0  0  0  0
   -2.3617    2.2731    2.5000 C   0  0  0  0  0  0  0  0  0  0  0  0
   -3.8969    2.3237    0.6352 C   0  0  0  0  0  0  0  0  0  0  0  0
   -3.6625    2.3835    2.0090 C   0  0  0  0  0  0  0  0  0  0  0  0
  1 11  2  0
  2 12  2  0
  3 24  2  0
  4  9  1  0
  4 13  1  0
  4 14  1  0
  5 10  1  0
  5 15  1  0
  5 16  1  0
  6  9  1  0
  6 11  1  0
  6 24  1  0
  7 10  1  0
  7 12  1  0
  7 24  1  0
  8 11  1  0
  8 12  1  0
  8 17  1  0
  8 25  1  0
 13 18  1  0
 14 19  1  0
 15 20  1  0
 16 21  1  0
 17 26  1  0
 18 22  1  0
 19 22  1  0
 20 23  1  0
 21 23  1  0
 25 27  2  0
 25 28  1  0
 27 29  1  0
 28 30  2  0
 29 31  2  0
 30 31  1  0
M  END
>  <PUBCHEM_COMPOUND_CID>  (1) 
31694

>  <PUBCHEM_CONFORMER_RMSD>  (1) 
1

>  <PUBCHEM_CONFORMER_DIVERSEORDER>  (1) 
1
23
29
8
21
28
32
17
33
3
30
31
34
12
35
2
24
22
15
5
16
14
13
36
25
26
4
27
10
19
7
37
18
20
11
9
6

>  <PUBCHEM_MMFF94_PARTIAL_CHARGES>  (1) 
28
1 -0.57
10 0.57
11 0.57
12 0.57
13 0.27
14 0.27
15 0.27
16 0.27
2 -0.57
24 0.69
25 -0.14
27 -0.15
28 -0.15
29 -0.15
3 -0.57
30 -0.15
31 -0.15
4 -0.81
5 -0.81
6 -0.42
61 0.15
62 0.15
63 0.15
64 0.15
65 0.15
7 -0.42
8 0.27
9 0.57

>  <PUBCHEM_EFFECTIVE_ROTOR_COUNT>  (1) 
9

>  <PUBCHEM_PHARMACOPHORE_FEATURES>  (1) 
10
1 1 acceptor
1 2 acceptor
1 26 hydrophobe
1 3 acceptor
1 4 cation
1 5 cation
6 25 27 28 29 30 31 rings
6 4 13 14 18 19 22 rings
6 5 15 16 20 21 23 rings
6 6 7 8 11 12 24 rings

>  <PUBCHEM_HEAVY_ATOM_COUNT>  (1) 
31

>  <PUBCHEM_ATOM_DEF_STEREO_COUNT>  (1) 
0

>  <PUBCHEM_ATOM_UDEF_STEREO_COUNT>  (1) 
0

>  <PUBCHEM_BOND_DEF_STEREO_COUNT>  (1) 
0

>  <PUBCHEM_BOND_UDEF_STEREO_COUNT>  (1) 
0

>  <PUBCHEM_ISOTOPIC_ATOM_COUNT>  (1) 
0

>  <PUBCHEM_COMPONENT_COUNT>  (1) 
1

>  <PUBCHEM_CACTVS_TAUTO_COUNT>  (1) 
1

>  <PUBCHEM_CONFORMER_ID>  (1) 
00007BCE00000001

>  <PUBCHEM_MMFF94_ENERGY>  (1) 
64.7351

>  <PUBCHEM_FEATURE_SELFOVERLAP>  (1) 
50.747

>  <PUBCHEM_SHAPE_FINGERPRINT>  (1) 
10190108 129 18261973880773072731
10764073 3 16699244528243745070
10906281 52 17391644280745060597
11421498 54 17617105041183488233
11578080 2 12460703155706206962
12156800 1 18055949603714952118
12160290 23 18054190346598553870
12422481 6 18057350394973050243
12788726 201 18197796593971372990
13009979 54 18267593579228280291
131258 43 18051708921064481150
13135754 10 18343871017220856678
13140716 1 18411410718201851352
13533116 47 17472413735270745943
14068700 675 18341042012947671279
14866123 147 18339640040500487042
17980427 26 17048520705035140673
1813 80 18189047775749371702
20771845 38 17761757482212703898
21041028 32 18197214960973712415
21304304 249 18412830170949645985
21344244 78 17839454832652174275
244849 19 16629145181451752878
2818148 4 18333736844697257516
345986 75 18196653127548127955
4058900 60 17695353572870351169
469060 322 17894622652428732904
484985 159 18335970987404750315
5080951 261 18194373677405125194
5104073 3 18270100359256938970
57527573 199 16771847445515291201
59444896 2 17901989452975158724
59755656 520 18056195778845937026

>  <PUBCHEM_SHAPE_MULTIPOLES>  (1) 
600.43
9.28
5.09
2.17
13.72
3.09
0.37
6.39
-3.99
-7.21
0.63
-0.18
-1.63
-1.83

>  <PUBCHEM_SHAPE_SELFOVERLAP>  (1) 
1271.724

>  <PUBCHEM_SHAPE_VOLUME>  (1) 
333.2

>  <PUBCHEM_COORDINATE_TYPE>  (1) 
2
5
10

$$$$
