31695
     RDKit          3D

 22 25  0  0  1  0  0  0  0  0999 V2000
   -1.1044   -3.4098    0.9138 O   0  0  0  0  0  0  0  0  0  0  0  0
    1.2949   -2.7753   -2.1883 O   0  0  0  0  0  0  0  0  0  0  0  0
   -2.2955   -1.6744    1.7888 O   0  0  0  0  0  0  0  0  0  0  0  0
    2.3760   -2.2405   -0.2541 O   0  0  0  0  0  0  0  0  0  0  0  0
   -0.2907    0.2024    1.2941 C   0  0  0  0  0  0  0  0  0  0  0  0
    0.2823    0.0800   -1.2782 C   0  0  0  0  0  0  0  0  0  0  0  0
   -0.0934   -1.2856    0.8595 C   0  0  0  0  0  0  0  0  0  0  0  0
    0.1614   -1.3616   -0.6870 C   0  0  0  0  0  0  0  0  0  0  0  0
    1.0207    0.8934    0.9323 C   0  0  0  0  0  0  0  0  0  0  0  0
   -1.3728    0.8020    0.3958 C   0  0  0  0  0  0  0  0  0  0  0  0
    1.3294    0.8273   -0.4519 C   0  0  0  0  0  0  0  0  0  0  0  0
   -1.0641    0.7366   -0.9883 C   0  0  0  0  0  0  0  0  0  0  0  0
   -1.2903   -2.1090    1.2465 C   0  0  0  0  0  0  0  0  0  0  0  0
    1.4011   -2.1577   -0.9864 C   0  0  0  0  0  0  0  0  0  0  0  0
    1.8693    1.5425    1.8169 C   0  0  0  0  0  0  0  0  0  0  0  0
   -2.5591    1.3766    0.8289 C   0  0  0  0  0  0  0  0  0  0  0  0
    2.4851    1.4135   -0.9472 C   0  0  0  0  0  0  0  0  0  0  0  0
   -1.9423    1.2435   -1.9347 C   0  0  0  0  0  0  0  0  0  0  0  0
    3.0331    2.1285    1.3150 C   0  0  0  0  0  0  0  0  0  0  0  0
   -3.4420    1.8843   -0.1265 C   0  0  0  0  0  0  0  0  0  0  0  0
    3.3379    2.0650   -0.0538 C   0  0  0  0  0  0  0  0  0  0  0  0
   -3.1365    1.8183   -1.4950 C   0  0  0  0  0  0  0  0  0  0  0  0
  1 13  1  0
  2 14  1  0
  3 13  2  0
  4 14  2  0
  5  7  1  0
  5  9  1  0
  5 10  1  0
  6  8  1  0
  6 11  1  0
  6 12  1  0
  7  8  1  0
  7 13  1  0
  8 14  1  0
  9 11  2  0
  9 15  1  0
 10 12  2  0
 10 16  1  0
 11 17  1  0
 12 18  1  0
 15 19  2  0
 16 20  2  0
 17 21  2  0
 18 22  2  0
 19 21  1  0
 20 22  1  0
M  END
>  <PUBCHEM_COMPOUND_CID>  (1) 
31695

>  <PUBCHEM_CONFORMER_RMSD>  (1) 
0.6

>  <PUBCHEM_CONFORMER_DIVERSEORDER>  (1) 
1
2
3

>  <PUBCHEM_MMFF94_PARTIAL_CHARGES>  (1) 
32
1 -0.65
10 -0.14
11 -0.14
12 -0.14
13 0.66
14 0.66
15 -0.15
16 -0.15
17 -0.15
18 -0.15
19 -0.15
2 -0.65
20 -0.15
21 -0.15
22 -0.15
27 0.15
28 0.15
29 0.15
3 -0.57
30 0.15
31 0.15
32 0.15
33 0.15
34 0.15
35 0.5
36 0.5
4 -0.57
5 0.29
6 0.29
7 0.06
8 0.06
9 -0.14

>  <PUBCHEM_EFFECTIVE_ROTOR_COUNT>  (1) 
2.4

>  <PUBCHEM_PHARMACOPHORE_FEATURES>  (1) 
9
1 1 acceptor
1 2 acceptor
1 3 acceptor
1 4 acceptor
3 1 3 13 anion
3 2 4 14 anion
6 10 12 16 18 20 22 rings
6 9 11 15 17 19 21 rings
8 5 6 7 8 9 10 11 12 rings

>  <PUBCHEM_HEAVY_ATOM_COUNT>  (1) 
22

>  <PUBCHEM_ATOM_DEF_STEREO_COUNT>  (1) 
0

>  <PUBCHEM_ATOM_UDEF_STEREO_COUNT>  (1) 
2

>  <PUBCHEM_BOND_DEF_STEREO_COUNT>  (1) 
0

>  <PUBCHEM_BOND_UDEF_STEREO_COUNT>  (1) 
0

>  <PUBCHEM_ISOTOPIC_ATOM_COUNT>  (1) 
0

>  <PUBCHEM_COMPONENT_COUNT>  (1) 
1

>  <PUBCHEM_CACTVS_TAUTO_COUNT>  (1) 
1

>  <PUBCHEM_CONFORMER_ID>  (1) 
00007BCF00000001

>  <PUBCHEM_MMFF94_ENERGY>  (1) 
75.0811

>  <PUBCHEM_FEATURE_SELFOVERLAP>  (1) 
45.806

>  <PUBCHEM_SHAPE_FINGERPRINT>  (1) 
10165383 225 17977707269624485008
10863032 1 18342172258970968933
10948715 1 18337376201887851789
11578080 2 17831063170428999868
12035758 1 18189333468420455450
12326174 3 17907269101726784629
12403814 3 17618786198910474760
12423570 1 17320754629778932841
13132413 78 17259911719268630696
13149001 5 18193569877821605023
13681431 1 17838323091262202340
14181834 199 18126830621795858836
15852999 172 18337093631667964028
15906896 17 17973976712601798990
16945 1 18046633574847159361
1813 80 17198546940387867062
20511035 2 18338219549281995218
20600515 1 17758417183684353318
20691752 17 17532114798448983595
21330990 113 17910700952352854082
21524375 3 18194370433918839276
22112679 90 17317909179823003833
22182313 1 18114764684672871283
22907989 373 18048033266071663380
23419403 2 18197241207355198043
23526113 38 18122634842153112030
23598288 3 17974834375164897904
238 59 18201994426112920565
25 1 18272089366162790328
2748010 2 18115892753242682139
3250762 1 18337121119516862610
34934 24 17046831846257543721
427121 178 18335431140634049209
4340502 62 18408318870567713721
5845 1 10185056540604829357
70251023 43 16904118531312745367
7364860 26 17914878873121209580
81228 2 17898297344737245561
9981440 41 17698972349252682392

>  <PUBCHEM_SHAPE_MULTIPOLES>  (1) 
429.27
4.51
3.37
1.95
0.13
2.7
-0.17
-3.82
-0.02
-0.3
-0.04
0.2
0.33
1.84

>  <PUBCHEM_SHAPE_SELFOVERLAP>  (1) 
972.416

>  <PUBCHEM_SHAPE_VOLUME>  (1) 
223.4

>  <PUBCHEM_COORDINATE_TYPE>  (1) 
2
5
10

$$$$
