31707
     RDKit          3D

 21 23  0  0  1  0  0  0  0  0999 V2000
   -1.1426   -0.1178   -0.0050 N   0  0  0  0  0  0  0  0  0  0  0  0
    5.4004   -1.9710   -0.0011 N   0  0  0  0  0  0  0  0  0  0  0  0
    1.1465    0.5341   -0.5646 C   0  0  0  0  0  0  0  0  0  0  0  0
    0.2314   -0.6452   -0.1250 C   0  0  0  0  0  0  0  0  0  0  0  0
    2.4993    0.4747    0.1494 C   0  0  0  0  0  0  0  0  0  0  0  0
    0.3057    1.7085   -0.1401 C   0  0  0  0  0  0  0  0  0  0  0  0
   -0.9985    1.2807    0.1506 C   0  0  0  0  0  0  0  0  0  0  0  0
    1.3438    0.5408   -2.0863 C   0  0  0  0  0  0  0  0  0  0  0  0
    3.2941   -0.7506   -0.2865 C   0  0  0  0  0  0  0  0  0  0  0  0
    0.6729    3.0453   -0.0513 C   0  0  0  0  0  0  0  0  0  0  0  0
   -2.2516   -0.9691    0.0206 C   0  0  0  0  0  0  0  0  0  0  0  0
   -1.9443    2.2074    0.5701 C   0  0  0  0  0  0  0  0  0  0  0  0
    4.6554   -0.7854    0.4058 C   0  0  0  0  0  0  0  0  0  0  0  0
   -0.2841    3.9722    0.3558 C   0  0  0  0  0  0  0  0  0  0  0  0
   -1.5831    3.5551    0.6685 C   0  0  0  0  0  0  0  0  0  0  0  0
   -3.5279   -0.5215   -0.3866 C   0  0  0  0  0  0  0  0  0  0  0  0
   -2.1363   -2.3082    0.4549 C   0  0  0  0  0  0  0  0  0  0  0  0
   -4.6341   -1.3705   -0.3605 C   0  0  0  0  0  0  0  0  0  0  0  0
   -3.2427   -3.1574    0.4809 C   0  0  0  0  0  0  0  0  0  0  0  0
   -4.4916   -2.6885    0.0731 C   0  0  0  0  0  0  0  0  0  0  0  0
    6.6874   -2.0337    0.6772 C   0  0  0  0  0  0  0  0  0  0  0  0
  1  4  1  0
  1  7  1  0
  1 11  1  0
  2 13  1  0
  2 21  1  0
  3  4  1  0
  3  5  1  0
  3  6  1  0
  3  8  1  0
  5  9  1  0
  6  7  2  0
  6 10  1  0
  7 12  1  0
  9 13  1  0
 10 14  2  0
 11 16  2  0
 11 17  1  0
 12 15  2  0
 14 15  1  0
 16 18  1  0
 17 19  2  0
 18 20  2  0
 19 20  1  0
M  END
>  <PUBCHEM_COMPOUND_CID>  (1) 
31707

>  <PUBCHEM_CONFORMER_RMSD>  (1) 
0.8

>  <PUBCHEM_CONFORMER_DIVERSEORDER>  (1) 
1
8
7
5
4
9
11
15
12
16
3
18
19
13
14
17
10
6
2

>  <PUBCHEM_MMFF94_PARTIAL_CHARGES>  (1) 
28
1 -0.57
10 -0.15
11 0.1
12 -0.15
13 0.27
14 -0.15
15 -0.15
16 -0.15
17 -0.15
18 -0.15
19 -0.15
2 -0.9
20 -0.15
21 0.27
3 0.14
31 0.15
32 0.15
35 0.15
36 0.15
37 0.15
38 0.15
39 0.36
4 0.37
40 0.15
41 0.15
45 0.15
6 -0.14
7 0.1

>  <PUBCHEM_EFFECTIVE_ROTOR_COUNT>  (1) 
5.6

>  <PUBCHEM_PHARMACOPHORE_FEATURES>  (1) 
6
1 1 cation
1 2 cation
1 2 donor
5 1 3 4 6 7 rings
6 11 16 17 18 19 20 rings
6 6 7 10 12 14 15 rings

>  <PUBCHEM_HEAVY_ATOM_COUNT>  (1) 
21

>  <PUBCHEM_ATOM_DEF_STEREO_COUNT>  (1) 
0

>  <PUBCHEM_ATOM_UDEF_STEREO_COUNT>  (1) 
1

>  <PUBCHEM_BOND_DEF_STEREO_COUNT>  (1) 
0

>  <PUBCHEM_BOND_UDEF_STEREO_COUNT>  (1) 
0

>  <PUBCHEM_ISOTOPIC_ATOM_COUNT>  (1) 
0

>  <PUBCHEM_COMPONENT_COUNT>  (1) 
1

>  <PUBCHEM_CACTVS_TAUTO_COUNT>  (1) 
1

>  <PUBCHEM_CONFORMER_ID>  (1) 
00007BDB00000001

>  <PUBCHEM_MMFF94_ENERGY>  (1) 
71.3242

>  <PUBCHEM_FEATURE_SELFOVERLAP>  (1) 
30.532

>  <PUBCHEM_SHAPE_FINGERPRINT>  (1) 
10319926 262 18125985089635051290
10411042 1 18411418448873750683
1100329 8 18411705348843004081
11056379 131 18267878181420931542
11265709 11 18410578409010035586
12107183 9 18269855249652610051
12363563 72 18340780341521928135
12403259 226 18191582167616171959
12553582 1 18196399058879045831
12760667 363 18410570686669919551
12788726 201 18337126617560194350
12895836 83 9151168753669563678
13004483 165 18340760520479855014
13009979 54 18260563211801810460
13052359 8 18265899042884336549
13134695 92 18197774612450143173
13140716 1 18343026596575324697
13540713 5 18263101988651736036
13583140 156 17559658565710536546
138480 1 15384439405464783697
13955234 65 17621043492134479411
14844126 61 18337110064360649146
14866123 147 18267586810549550619
15042514 8 18339646629000878768
15230672 131 17400372148908239990
15250474 111 18044369432205697498
15352361 1 18410011061274379906
15442244 35 18269283537738661225
15842332 3 17970375675236260788
15927050 60 17764589815876353055
16087824 20 18266458690862930197
17492 89 17978507864930696331
20600515 1 18130237037599038931
20645477 70 17625273279228536119
20832881 197 18334579096437208787
21478907 32 18410293605417800851
21650355 55 18411702041327483984
221490 88 17903643226222514291
23175994 123 18410570734378439335
23402539 116 18271237240598383309
23419403 2 18119221069102693788
23557571 272 18058743394458372212
23559900 14 18337663238862684401
25147074 1 18188228528239243476
255183 313 18054244137096264081
266924 1 18115891705524149428
3004659 81 17967809475089708798
3091708 16 8846734891506766241
335352 9 18410011031725969759
3421961 26 18196090168877885794
4409770 3 18190173491268117133
463206 1 18263364853071364554
5104073 3 18272939357296120497
56616090 89 18259974982092832424
5924683 9 18338514119719603442
7364860 26 17907580585835307657
7471813 234 18341889757407332565
77188 2 18339078301854300552
7970288 3 18410853308567006626
81228 2 18128561313401801465
9709674 26 17831297568865505555
9981440 41 17472988302619794464

>  <PUBCHEM_SHAPE_MULTIPOLES>  (1) 
422.21
9.96
4.61
0.95
13.66
3.42
-0.4
-14
1.55
-2.35
1.26
0.33
0.13
-0.67

>  <PUBCHEM_SHAPE_SELFOVERLAP>  (1) 
898.131

>  <PUBCHEM_SHAPE_VOLUME>  (1) 
234.4

>  <PUBCHEM_COORDINATE_TYPE>  (1) 
2
5
10

$$$$
