31708
     RDKit          3D

 12 13  0  0  0  0  0  0  0  0999 V2000
   -2.2288    0.0044   -1.5230 S   0  0  0  0  0  0  0  0  0  0  0  0
   -2.2360    0.4470    1.4351 S   0  0  0  0  0  0  0  0  0  0  0  0
   -1.3626    0.7998   -0.1269 C   0  0  0  0  0  0  0  0  0  0  0  0
    0.1020    0.4292   -0.0653 C   0  0  0  0  0  0  0  0  0  0  0  0
   -3.3771   -0.9863   -0.5315 C   0  0  0  0  0  0  0  0  0  0  0  0
   -3.7637   -0.1693    0.6842 C   0  0  0  0  0  0  0  0  0  0  0  0
    1.0777    1.4152   -0.2118 C   0  0  0  0  0  0  0  0  0  0  0  0
    0.4776   -0.8986    0.1384 C   0  0  0  0  0  0  0  0  0  0  0  0
    2.8043   -0.2545    0.0490 C   0  0  0  0  0  0  0  0  0  0  0  0
    2.4289    1.0733   -0.1545 C   0  0  0  0  0  0  0  0  0  0  0  0
    1.8287   -1.2404    0.1956 C   0  0  0  0  0  0  0  0  0  0  0  0
    4.2488   -0.6198    0.1107 C   0  0  0  0  0  0  0  0  0  0  0  0
  1  3  1  0
  1  5  1  0
  2  3  1  0
  2  6  1  0
  3  4  1  0
  4  7  2  0
  4  8  1  0
  5  6  1  0
  7 10  1  0
  8 11  2  0
  9 10  2  0
  9 11  1  0
  9 12  1  0
M  END
>  <PUBCHEM_COMPOUND_CID>  (1) 
31708

>  <PUBCHEM_CONFORMER_RMSD>  (1) 
0.6

>  <PUBCHEM_CONFORMER_DIVERSEORDER>  (1) 
1
2

>  <PUBCHEM_MMFF94_PARTIAL_CHARGES>  (1) 
16
1 -0.46
10 -0.15
11 -0.15
12 0.14
18 0.15
19 0.15
2 -0.46
20 0.15
21 0.15
3 0.6
4 -0.14
5 0.23
6 0.23
7 -0.15
8 -0.15
9 -0.14

>  <PUBCHEM_EFFECTIVE_ROTOR_COUNT>  (1) 
2

>  <PUBCHEM_PHARMACOPHORE_FEATURES>  (1) 
2
5 1 2 3 5 6 rings
6 4 7 8 9 10 11 rings

>  <PUBCHEM_HEAVY_ATOM_COUNT>  (1) 
12

>  <PUBCHEM_ATOM_DEF_STEREO_COUNT>  (1) 
0

>  <PUBCHEM_ATOM_UDEF_STEREO_COUNT>  (1) 
0

>  <PUBCHEM_BOND_DEF_STEREO_COUNT>  (1) 
0

>  <PUBCHEM_BOND_UDEF_STEREO_COUNT>  (1) 
0

>  <PUBCHEM_ISOTOPIC_ATOM_COUNT>  (1) 
0

>  <PUBCHEM_COMPONENT_COUNT>  (1) 
1

>  <PUBCHEM_CACTVS_TAUTO_COUNT>  (1) 
1

>  <PUBCHEM_CONFORMER_ID>  (1) 
00007BDC00000001

>  <PUBCHEM_MMFF94_ENERGY>  (1) 
24.8909

>  <PUBCHEM_FEATURE_SELFOVERLAP>  (1) 
10.149

>  <PUBCHEM_SHAPE_FINGERPRINT>  (1) 
10219947 1 18334017206971125764
11062470 55 10953458539679223978
11543360 7 15141258619601347846
12032990 46 18335704893206560318
12251169 10 18130795538140473377
124424 183 17167855349119888722
12500047 106 15482669052888448559
12932764 1 18411133628006623325
13581323 91 16774078474935086605
13764800 53 15410348671598398419
14144814 61 18343865510961578179
15219456 202 17748825249869133565
15775835 57 17988649605243849289
16945 1 18335419058674338508
17844478 74 17749392568041496381
18175812 5 17458349671047128807
18534176 82 16008752402936967985
190213 19 17847063276652718687
19422 9 18059578035247151999
200 152 18413100671936801239
20201158 50 17894632543464206459
20279233 1 17385723612286084115
20645477 70 18334847295084458039
21061003 4 18113624495077655141
22445834 79 18201722812592111355
23402539 116 17988917856205964652
23402655 69 18335979792245501717
23557571 272 16443066062665570782
23559900 14 15719106968669537952
2748010 2 17977377244848565950
3248919 1 17274824649084539677
57812782 119 17313098665800288425
581208 293 18335419114329701784
77492 1 17988927794607488589
8809292 202 17822297928251812083

>  <PUBCHEM_SHAPE_MULTIPOLES>  (1) 
254.65
6.75
1.28
1.12
1.14
0.07
-0.05
-1.55
0.5
0.37
-0.03
-1.09
0.06
-0.45

>  <PUBCHEM_SHAPE_SELFOVERLAP>  (1) 
502.698

>  <PUBCHEM_SHAPE_VOLUME>  (1) 
152.2

>  <PUBCHEM_COORDINATE_TYPE>  (1) 
2
5
10

$$$$
