31709
     RDKit          3D

 14 15  0  0  0  0  0  0  0  0999 V2000
   -2.5582   -0.0078    1.5105 S   0  0  0  0  0  0  0  0  0  0  0  0
   -2.5706   -0.0525   -1.4803 S   0  0  0  0  0  0  0  0  0  0  0  0
    3.7994    1.1828   -0.0360 O   0  0  0  0  0  0  0  0  0  0  0  0
    1.9767    2.4063   -0.0487 O   0  0  0  0  0  0  0  0  0  0  0  0
    2.5492    1.2896   -0.0329 N   0  0  0  0  0  0  0  0  0  0  0  0
   -1.9194   -0.8529    0.0239 C   0  0  0  0  0  0  0  0  0  0  0  0
   -0.4107   -0.9538    0.0165 C   0  0  0  0  0  0  0  0  0  0  0  0
   -3.2985    1.4078    0.6555 C   0  0  0  0  0  0  0  0  0  0  0  0
   -3.8645    0.9112   -0.6591 C   0  0  0  0  0  0  0  0  0  0  0  0
    0.3661    0.2045   -0.0062 C   0  0  0  0  0  0  0  0  0  0  0  0
    0.2041   -2.2057    0.0340 C   0  0  0  0  0  0  0  0  0  0  0  0
    1.7578    0.1109   -0.0115 C   0  0  0  0  0  0  0  0  0  0  0  0
    1.5958   -2.2993    0.0286 C   0  0  0  0  0  0  0  0  0  0  0  0
    2.3727   -1.1410    0.0058 C   0  0  0  0  0  0  0  0  0  0  0  0
  1  6  1  0
  1  8  1  0
  2  6  1  0
  2  9  1  0
  3  5  1  0
  4  5  2  0
  5 12  1  0
  6  7  1  0
  7 10  2  0
  7 11  1  0
  8  9  1  0
 10 12  1  0
 11 13  2  0
 12 14  2  0
 13 14  1  0
M  CHG  2   3  -1   5   1
M  END
>  <PUBCHEM_COMPOUND_CID>  (1) 
31709

>  <PUBCHEM_CONFORMER_RMSD>  (1) 
0.6

>  <PUBCHEM_CONFORMER_DIVERSEORDER>  (1) 
1
2
3
5
4
6

>  <PUBCHEM_MMFF94_PARTIAL_CHARGES>  (1) 
18
1 -0.46
10 -0.15
11 -0.15
12 0.13
13 -0.15
14 -0.15
2 -0.46
20 0.15
21 0.15
22 0.15
23 0.15
3 -0.52
4 -0.52
5 0.91
6 0.6
7 -0.14
8 0.23
9 0.23

>  <PUBCHEM_EFFECTIVE_ROTOR_COUNT>  (1) 
3

>  <PUBCHEM_PHARMACOPHORE_FEATURES>  (1) 
5
1 3 acceptor
1 3 anion
1 4 acceptor
5 1 2 6 8 9 rings
6 7 10 11 12 13 14 rings

>  <PUBCHEM_HEAVY_ATOM_COUNT>  (1) 
14

>  <PUBCHEM_ATOM_DEF_STEREO_COUNT>  (1) 
0

>  <PUBCHEM_ATOM_UDEF_STEREO_COUNT>  (1) 
0

>  <PUBCHEM_BOND_DEF_STEREO_COUNT>  (1) 
0

>  <PUBCHEM_BOND_UDEF_STEREO_COUNT>  (1) 
0

>  <PUBCHEM_ISOTOPIC_ATOM_COUNT>  (1) 
0

>  <PUBCHEM_COMPONENT_COUNT>  (1) 
1

>  <PUBCHEM_CACTVS_TAUTO_COUNT>  (1) 
1

>  <PUBCHEM_CONFORMER_ID>  (1) 
00007BDD00000001

>  <PUBCHEM_MMFF94_ENERGY>  (1) 
34.4768

>  <PUBCHEM_FEATURE_SELFOVERLAP>  (1) 
25.453

>  <PUBCHEM_SHAPE_FINGERPRINT>  (1) 
10465860 228 18341055107680334784
10608611 8 18261392205041061205
10980938 120 18410856525280051216
11471102 20 18337387132589896967
11543360 7 15482671333658741192
12932764 1 17530966830762894203
13618510 140 18411139142839713265
14897335 6 18413384349788785379
15219456 202 18187088334332871843
15342168 16 18261401082728289741
15442244 35 18053383193283333555
15775835 57 18202002118721146237
16945 1 18338237037877524250
17357990 137 17487635030293598907
18186145 218 18272101503845331198
18219364 16 18335144236428156057
19049666 15 17388533809630592727
20510252 161 17764308744520807010
20645464 45 17458062655884307753
20645476 183 17918266550583315143
20653085 51 18339358557539755959
20715346 28 17895204276868431947
21486144 27 18186803535241254815
21499 59 18411979195413691903
21524375 3 18336543944758195034
21639500 275 18338505374791454005
22096605 113 18409722955068052671
22854114 111 18410578353433878097
22892500 29 18189331265091812655
23402655 69 18270672070437195765
23598291 2 17916301641531133007
25 1 18408887325998944838
27216 239 17969223515519685113
2748010 2 18337121158250676534
305870 269 18408886252193856282
3071541 12 18411984637617505142
474 4 18410008840749608777
63268167 104 18342175544552203291
7364860 26 18341614755009835086
74978 22 18340489967557726263
77492 1 17702940336503940747
8030462 33 17703784821373769379
81228 2 17257091996240456418
84936 182 18130777975729420400

>  <PUBCHEM_SHAPE_MULTIPOLES>  (1) 
279.09
6.09
2.23
1.07
1.48
0.05
-0.02
2.89
0.24
-1.89
-0.04
1.21
-0.01
-0.14

>  <PUBCHEM_SHAPE_SELFOVERLAP>  (1) 
559.864

>  <PUBCHEM_SHAPE_VOLUME>  (1) 
165.4

>  <PUBCHEM_COORDINATE_TYPE>  (1) 
2
5
10

$$$$
