31713
     RDKit          3D

 15 16  0  0  1  0  0  0  0  0999 V2000
    3.9878   -0.1714    0.6339 O   0  0  0  0  0  0  0  0  0  0  0  0
   -2.3011   -1.0532   -0.6159 N   0  0  0  0  0  0  0  0  0  0  0  0
   -2.2331    1.0887    0.3773 N   0  0  0  0  0  0  0  0  0  0  0  0
   -1.5354    0.2102   -0.5892 C   0  0  0  0  0  0  0  0  0  0  0  0
   -3.1606   -1.0307    0.5627 C   0  0  0  0  0  0  0  0  0  0  0  0
   -3.5205    0.4425    0.6388 C   0  0  0  0  0  0  0  0  0  0  0  0
   -0.0525    0.1072   -0.2605 C   0  0  0  0  0  0  0  0  0  0  0  0
   -1.5839   -2.2989   -0.7992 C   0  0  0  0  0  0  0  0  0  0  0  0
   -2.3808    2.4626   -0.0812 C   0  0  0  0  0  0  0  0  0  0  0  0
    0.8954    0.5192   -1.1947 C   0  0  0  0  0  0  0  0  0  0  0  0
    0.3520   -0.3978    0.9733 C   0  0  0  0  0  0  0  0  0  0  0  0
    2.2542    0.4257   -0.8937 C   0  0  0  0  0  0  0  0  0  0  0  0
    1.7108   -0.4913    1.2743 C   0  0  0  0  0  0  0  0  0  0  0  0
    2.6619   -0.0796    0.3408 C   0  0  0  0  0  0  0  0  0  0  0  0
    4.9059    0.2668   -0.3666 C   0  0  0  0  0  0  0  0  0  0  0  0
  1 14  1  0
  1 15  1  0
  2  4  1  0
  2  5  1  0
  2  8  1  0
  3  4  1  0
  3  6  1  0
  3  9  1  0
  4  7  1  0
  5  6  1  0
  7 10  2  0
  7 11  1  0
 10 12  1  0
 11 13  2  0
 12 14  2  0
 13 14  1  0
M  END
>  <PUBCHEM_COMPOUND_CID>  (1) 
31713

>  <PUBCHEM_CONFORMER_RMSD>  (1) 
0.6

>  <PUBCHEM_CONFORMER_DIVERSEORDER>  (1) 
2
5
1
7
3
4
6

>  <PUBCHEM_MMFF94_PARTIAL_CHARGES>  (1) 
19
1 -0.36
10 -0.15
11 -0.15
12 -0.15
13 -0.15
14 0.08
15 0.28
2 -0.81
27 0.15
28 0.15
29 0.15
3 -0.81
30 0.15
4 0.68
5 0.27
6 0.27
7 -0.14
8 0.27
9 0.27

>  <PUBCHEM_EFFECTIVE_ROTOR_COUNT>  (1) 
3

>  <PUBCHEM_PHARMACOPHORE_FEATURES>  (1) 
5
1 1 acceptor
1 2 cation
1 3 cation
5 2 3 4 5 6 rings
6 7 10 11 12 13 14 rings

>  <PUBCHEM_HEAVY_ATOM_COUNT>  (1) 
15

>  <PUBCHEM_ATOM_DEF_STEREO_COUNT>  (1) 
0

>  <PUBCHEM_ATOM_UDEF_STEREO_COUNT>  (1) 
0

>  <PUBCHEM_BOND_DEF_STEREO_COUNT>  (1) 
0

>  <PUBCHEM_BOND_UDEF_STEREO_COUNT>  (1) 
0

>  <PUBCHEM_ISOTOPIC_ATOM_COUNT>  (1) 
0

>  <PUBCHEM_COMPONENT_COUNT>  (1) 
1

>  <PUBCHEM_CACTVS_TAUTO_COUNT>  (1) 
1

>  <PUBCHEM_CONFORMER_ID>  (1) 
00007BE100000002

>  <PUBCHEM_MMFF94_ENERGY>  (1) 
53.3597

>  <PUBCHEM_FEATURE_SELFOVERLAP>  (1) 
25.41

>  <PUBCHEM_SHAPE_FINGERPRINT>  (1) 
11578080 2 17826483812311625285
12138202 97 17703217438823993445
12186901 62 18272937094027858732
12236239 1 18113618988865901257
12251169 10 18410013238558639252
124424 183 16845572002576139410
12500047 106 18201714025062559086
12932764 1 18202272606997278258
13024252 1 16298102082305479287
13214271 11 17168142317085561725
13581323 91 18412262847933696182
14289901 80 18340760537881010880
15219456 202 17417821603664564422
15309172 13 16877664552041028490
15375462 478 18041003929584881237
15653759 3 17632573877021986082
15775835 57 18409731720816839633
16945 1 18341325664966230023
19026448 4 17988922276038580976
19026448 5 18409726266698801922
19049666 15 17273432585574650359
19422 9 18113618954527411458
200 152 17603863442525098099
20279233 1 16988850483456256695
20510252 161 18201723899356182481
20645464 45 17418379099273296095
20645477 56 18272654527950197752
20645477 70 15430579685549509482
22094290 60 18342458162090460804
22112679 90 18267311022156934551
22445834 79 17967529034767034939
23175994 123 16487264265765787064
23236772 104 18040150704203430561
23402539 116 18202274819327396597
23493267 7 17703793578859467946
23557571 272 18060426810937333344
23559900 14 17775287132739796822
2748010 2 18053117133440081759
3286 77 16009326399593805845
474 4 17606125232544036316
77492 1 18113339721222832021
81228 2 17915166035225528839

>  <PUBCHEM_SHAPE_MULTIPOLES>  (1) 
292.86
7.08
1.68
1.13
6.05
0.17
0.02
0.56
0.67
-2.03
-0.3
0.22
-0.16
-0.53

>  <PUBCHEM_SHAPE_SELFOVERLAP>  (1) 
608.003

>  <PUBCHEM_SHAPE_VOLUME>  (1) 
170.3

>  <PUBCHEM_COORDINATE_TYPE>  (1) 
2
5
10

$$$$
