31718
     RDKit          3D

 21 23  0  0  1  0  0  0  0  0999 V2000
    0.6074   -0.3723   -2.0331 O   0  0  0  0  0  0  0  0  0  0  0  0
   -0.8931    1.3163   -0.1058 N   0  0  0  0  0  0  0  0  0  0  0  0
   -1.4080    4.0812    0.5944 N   0  0  0  0  0  0  0  0  0  0  0  0
   -0.3629   -0.0192    0.1614 C   0  0  0  0  0  0  0  0  0  0  0  0
   -1.9270    1.6732    0.8742 C   0  0  0  0  0  0  0  0  0  0  0  0
    0.1837    2.3148   -0.1076 C   0  0  0  0  0  0  0  0  0  0  0  0
   -2.4734    3.0763    0.5987 C   0  0  0  0  0  0  0  0  0  0  0  0
   -0.3752    3.7141   -0.3771 C   0  0  0  0  0  0  0  0  0  0  0  0
   -1.4630   -1.0583    0.0858 C   0  0  0  0  0  0  0  0  0  0  0  0
    0.7824   -0.2851   -0.8183 C   0  0  0  0  0  0  0  0  0  0  0  0
    2.1704   -0.4404   -0.2944 C   0  0  0  0  0  0  0  0  0  0  0  0
   -2.5175   -0.8609   -0.7872 C   0  0  0  0  0  0  0  0  0  0  0  0
   -1.3870   -2.1797    0.8919 C   0  0  0  0  0  0  0  0  0  0  0  0
   -3.5303   -1.8175   -0.8566 C   0  0  0  0  0  0  0  0  0  0  0  0
   -2.3998   -3.1363    0.8225 C   0  0  0  0  0  0  0  0  0  0  0  0
    2.3446   -0.9563    0.9697 C   0  0  0  0  0  0  0  0  0  0  0  0
    3.2241   -0.0614   -1.0948 C   0  0  0  0  0  0  0  0  0  0  0  0
   -3.4714   -2.9552   -0.0518 C   0  0  0  0  0  0  0  0  0  0  0  0
    3.6425   -1.1011    1.4599 C   0  0  0  0  0  0  0  0  0  0  0  0
    4.5220   -0.2062   -0.6046 C   0  0  0  0  0  0  0  0  0  0  0  0
    4.7312   -0.7261    0.6727 C   0  0  0  0  0  0  0  0  0  0  0  0
  1 10  2  0
  2  4  1  0
  2  5  1  0
  2  6  1  0
  3  7  1  0
  3  8  1  0
  4  9  1  0
  4 10  1  0
  5  7  1  0
  6  8  1  0
  9 12  2  0
  9 13  1  0
 10 11  1  0
 11 16  2  0
 11 17  1  0
 12 14  1  0
 13 15  2  0
 14 18  2  0
 15 18  1  0
 16 19  1  0
 17 20  2  0
 19 21  2  0
 20 21  1  0
M  END
>  <PUBCHEM_COMPOUND_CID>  (1) 
31718

>  <PUBCHEM_CONFORMER_RMSD>  (1) 
0.8

>  <PUBCHEM_CONFORMER_DIVERSEORDER>  (1) 
1
20
8
9
19
16
5
10
13
6
18
12
4
11
7
17
14
2
15
3

>  <PUBCHEM_MMFF94_PARTIAL_CHARGES>  (1) 
32
1 -0.57
10 0.42
11 0.09
12 -0.15
13 -0.15
14 -0.15
15 -0.15
16 -0.15
17 -0.15
18 -0.15
19 -0.15
2 -0.81
20 -0.15
21 -0.15
3 -0.9
31 0.36
32 0.15
33 0.15
34 0.15
35 0.15
36 0.15
37 0.15
38 0.15
39 0.15
4 0.47
40 0.15
41 0.15
5 0.27
6 0.27
7 0.27
8 0.27
9 -0.14

>  <PUBCHEM_EFFECTIVE_ROTOR_COUNT>  (1) 
5.2

>  <PUBCHEM_PHARMACOPHORE_FEATURES>  (1) 
7
1 1 acceptor
1 2 cation
1 3 cation
1 3 donor
6 11 16 17 19 20 21 rings
6 2 3 5 6 7 8 rings
6 9 12 13 14 15 18 rings

>  <PUBCHEM_HEAVY_ATOM_COUNT>  (1) 
21

>  <PUBCHEM_ATOM_DEF_STEREO_COUNT>  (1) 
0

>  <PUBCHEM_ATOM_UDEF_STEREO_COUNT>  (1) 
1

>  <PUBCHEM_BOND_DEF_STEREO_COUNT>  (1) 
0

>  <PUBCHEM_BOND_UDEF_STEREO_COUNT>  (1) 
0

>  <PUBCHEM_ISOTOPIC_ATOM_COUNT>  (1) 
0

>  <PUBCHEM_COMPONENT_COUNT>  (1) 
1

>  <PUBCHEM_CACTVS_TAUTO_COUNT>  (1) 
2

>  <PUBCHEM_CONFORMER_ID>  (1) 
00007BE600000001

>  <PUBCHEM_MMFF94_ENERGY>  (1) 
64.3532

>  <PUBCHEM_FEATURE_SELFOVERLAP>  (1) 
35.522

>  <PUBCHEM_SHAPE_FINGERPRINT>  (1) 
10319926 262 18198039432356109242
1100329 8 18410295813669827177
11265709 11 18338801225034455155
11578080 2 17678153079142405476
121448 382 17980175527447848413
12363563 72 18268433601595751399
12532896 13 17981612567706957365
12549972 3 17535467351436868771
12553582 1 18337684116730826555
12707595 3 18192714676829278207
12788726 201 18408889520611227587
13004483 165 18339066177087693194
13052359 8 18336825269738039493
13134695 92 18124588945293904559
13140716 1 18341053003336536777
13583140 156 17702643481582075130
136203 1 18411420570513521257
13681431 1 17982168121694948993
13955234 65 17402899320122047979
14178342 30 18263631880436857522
14787075 74 17612321053596094540
14790565 3 18194970643257444009
14866123 147 17904473009414455874
15042514 8 18338243665333360843
15230672 131 16533418796332169412
15842332 3 17968104067133522030
1813 80 18057618743981110031
18222031 100 17986954244018447327
19591789 44 17618510882789889047
19765921 60 17410195219173965873
200 152 17967807288946073882
20097449 115 18269274732401427107
20369508 70 18047748492903207079
20600515 1 18057059096873343879
20832881 197 18189894391598407123
20905425 154 18198073670944277372
21041028 32 18268156533845667379
21250096 35 18262513826770807978
21304303 282 17832954218959988101
21452121 199 18124591139842798841
21524375 3 17695060003122906781
21650355 55 18410008840485591963
22112679 90 18195554633816947501
23175994 123 18337955722289467863
23402539 116 18342729703013680879
23419403 2 17975100404869435661
23557571 272 18129954390286297188
23558518 356 18121777235963346599
23559900 14 18261945371117101862
266924 78 16083093751276822118
3091708 16 9061223208953322977
3187 122 18195499671463787880
392239 28 18191300692686804680
59755656 520 18051691036440943052
6438718 38 18131070390193159197
6442390 28 17767423287432523817
7097593 13 17972311807859690626
7226269 152 18410284788424890215
7364860 26 17762058044276836479
7471813 234 18268142248214898030
7615 1 18040722446281908908
7808743 9 18339649911142266208
81228 2 18270695185713571875

>  <PUBCHEM_SHAPE_MULTIPOLES>  (1) 
416.34
7.06
4.4
1.26
6.97
4.75
-0.17
-5.15
0.29
-5.39
1.09
0.47
-0.3
-0.86

>  <PUBCHEM_SHAPE_SELFOVERLAP>  (1) 
894.628

>  <PUBCHEM_SHAPE_VOLUME>  (1) 
228.5

>  <PUBCHEM_COORDINATE_TYPE>  (1) 
2
5
10

$$$$
