31711
     RDKit          3D

 13 14  0  0  1  0  0  0  0  0999 V2000
    1.4644    1.1811   -0.1836 N   0  0  0  0  0  0  0  0  0  0  0  0
    1.4473   -1.1003    0.4746 N   0  0  0  0  0  0  0  0  0  0  0  0
    0.7953   -0.1234   -0.4198 C   0  0  0  0  0  0  0  0  0  0  0  0
    2.5888    0.8886    0.7182 C   0  0  0  0  0  0  0  0  0  0  0  0
    2.8176   -0.6065    0.5926 C   0  0  0  0  0  0  0  0  0  0  0  0
   -0.6992   -0.0214   -0.1772 C   0  0  0  0  0  0  0  0  0  0  0  0
    1.9130    1.7968   -1.4303 C   0  0  0  0  0  0  0  0  0  0  0  0
    1.3973   -2.4691   -0.0225 C   0  0  0  0  0  0  0  0  0  0  0  0
   -1.5756   -0.8385   -0.8886 C   0  0  0  0  0  0  0  0  0  0  0  0
   -1.1910    0.8890    0.7559 C   0  0  0  0  0  0  0  0  0  0  0  0
   -2.9492   -0.7448   -0.6658 C   0  0  0  0  0  0  0  0  0  0  0  0
   -2.5648    0.9827    0.9787 C   0  0  0  0  0  0  0  0  0  0  0  0
   -3.4439    0.1657    0.2679 C   0  0  0  0  0  0  0  0  0  0  0  0
  1  3  1  0
  1  4  1  0
  1  7  1  0
  2  3  1  0
  2  5  1  0
  2  8  1  0
  3  6  1  0
  4  5  1  0
  6  9  2  0
  6 10  1  0
  9 11  1  0
 10 12  2  0
 11 13  2  0
 12 13  1  0
M  END
>  <PUBCHEM_COMPOUND_CID>  (1) 
31711

>  <PUBCHEM_CONFORMER_RMSD>  (1) 
0.6

>  <PUBCHEM_CONFORMER_DIVERSEORDER>  (1) 
2
5
1
4
3

>  <PUBCHEM_MMFF94_PARTIAL_CHARGES>  (1) 
18
1 -0.81
10 -0.15
11 -0.15
12 -0.15
13 -0.15
2 -0.81
25 0.15
26 0.15
27 0.15
28 0.15
29 0.15
3 0.68
4 0.27
5 0.27
6 -0.14
7 0.27
8 0.27
9 -0.15

>  <PUBCHEM_EFFECTIVE_ROTOR_COUNT>  (1) 
2

>  <PUBCHEM_PHARMACOPHORE_FEATURES>  (1) 
4
1 1 cation
1 2 cation
5 1 2 3 4 5 rings
6 6 9 10 11 12 13 rings

>  <PUBCHEM_HEAVY_ATOM_COUNT>  (1) 
13

>  <PUBCHEM_ATOM_DEF_STEREO_COUNT>  (1) 
0

>  <PUBCHEM_ATOM_UDEF_STEREO_COUNT>  (1) 
0

>  <PUBCHEM_BOND_DEF_STEREO_COUNT>  (1) 
0

>  <PUBCHEM_BOND_UDEF_STEREO_COUNT>  (1) 
0

>  <PUBCHEM_ISOTOPIC_ATOM_COUNT>  (1) 
0

>  <PUBCHEM_COMPONENT_COUNT>  (1) 
1

>  <PUBCHEM_CACTVS_TAUTO_COUNT>  (1) 
1

>  <PUBCHEM_CONFORMER_ID>  (1) 
00007BDF00000002

>  <PUBCHEM_MMFF94_ENERGY>  (1) 
37.3491

>  <PUBCHEM_FEATURE_SELFOVERLAP>  (1) 
20.333

>  <PUBCHEM_SHAPE_FINGERPRINT>  (1) 
10219947 1 18186513311363356048
12202030 40 16588886571980846251
12326174 3 17749105582616392224
12423570 1 15839293643476101860
12696612 119 18336549326230598902
12932764 1 18202008724375598857
13538477 17 18202559618334578479
14144814 61 18342736295508781723
15279307 12 18342460365314186519
15775835 57 18130791178311026065
16945 1 18333450932486112159
20559304 39 18343867697152744473
20645464 45 15769773550687333583
20871998 22 18051410665513823042
21524375 3 17608099985307488164
22445834 79 18270397183502584035
22802520 49 14188758254335801953
23552423 10 18412266112383232279
2748010 2 17903626394002802462
3248919 1 18259985998267221761
369184 2 18412259519798090113
5084963 1 18336537291758674164
7364860 26 17988927717319345302
77492 1 18341895216258024485
8030462 33 18343867735986759157
81228 2 17247508184841506740

>  <PUBCHEM_SHAPE_MULTIPOLES>  (1) 
257.57
5.04
1.84
1.09
2.08
0.64
-0.17
-0.35
0.57
-1.17
-0.22
-0.1
-0.34
-0.9

>  <PUBCHEM_SHAPE_SELFOVERLAP>  (1) 
535.264

>  <PUBCHEM_SHAPE_VOLUME>  (1) 
149

>  <PUBCHEM_COORDINATE_TYPE>  (1) 
2
5
10

$$$$
