31715
     RDKit          3D

 30 33  0  0  1  0  0  0  0  0999 V2000
   -1.9155    0.8790   -2.6664 Cl  0  0  0  0  0  0  0  0  0  0  0  0
   -4.3233    0.6257    2.2530 Cl  0  0  0  0  0  0  0  0  0  0  0  0
    3.4348   -1.4791    1.4093 S   0  0  0  0  0  0  0  0  0  0  0  0
    1.5995    2.3764    0.4139 O   0  0  0  0  0  0  0  0  0  0  0  0
    5.5412    0.6402   -2.1189 O   0  0  0  0  0  0  0  0  0  0  0  0
    3.9570   -0.9988   -2.1318 O   0  0  0  0  0  0  0  0  0  0  0  0
   -0.6313   -2.3468    1.4122 O   0  0  0  0  0  0  0  0  0  0  0  0
   -4.1669   -2.4570   -0.8837 O   0  0  0  0  0  0  0  0  0  0  0  0
    2.6287    0.3672   -0.2714 N   0  0  0  0  0  0  0  0  0  0  0  0
   -0.3371   -0.2963    0.4006 N   0  0  0  0  0  0  0  0  0  0  0  0
   -4.3561   -1.0804   -0.9057 N   0  0  0  0  0  0  0  0  0  0  0  0
    2.1122   -0.8816    0.2904 C   0  0  0  0  0  0  0  0  0  0  0  0
    4.6197   -0.1130    0.9680 C   0  0  0  0  0  0  0  0  0  0  0  0
    4.0587    0.5728   -0.2980 C   0  0  0  0  0  0  0  0  0  0  0  0
    0.9998   -0.0469    0.9462 C   0  0  0  0  0  0  0  0  0  0  0  0
    1.7059    1.1743    0.3259 C   0  0  0  0  0  0  0  0  0  0  0  0
    4.6467    0.8697    2.1509 C   0  0  0  0  0  0  0  0  0  0  0  0
    6.0207   -0.7050    0.7834 C   0  0  0  0  0  0  0  0  0  0  0  0
    4.4838   -0.0318   -1.6018 C   0  0  0  0  0  0  0  0  0  0  0  0
   -1.0680   -1.4567    0.6831 C   0  0  0  0  0  0  0  0  0  0  0  0
   -2.3811   -1.5718    0.0348 C   0  0  0  0  0  0  0  0  0  0  0  0
   -3.2568   -0.5715   -0.3421 C   0  0  0  0  0  0  0  0  0  0  0  0
   -2.9676   -2.7354   -0.3116 C   0  0  0  0  0  0  0  0  0  0  0  0
   -3.1087    0.8531   -0.1963 C   0  0  0  0  0  0  0  0  0  0  0  0
   -2.6107   -4.1572   -0.2097 C   0  0  0  0  0  0  0  0  0  0  0  0
   -2.5062    1.6037   -1.2090 C   0  0  0  0  0  0  0  0  0  0  0  0
   -3.5679    1.4921    0.9582 C   0  0  0  0  0  0  0  0  0  0  0  0
   -2.3635    2.9840   -1.0682 C   0  0  0  0  0  0  0  0  0  0  0  0
   -3.4251    2.8725    1.0992 C   0  0  0  0  0  0  0  0  0  0  0  0
   -2.8230    3.6184    0.0859 C   0  0  0  0  0  0  0  0  0  0  0  0
  1 26  1  0
  2 27  1  0
  3 12  1  0
  3 13  1  0
  4 16  2  0
  5 19  1  0
  6 19  2  0
  7 20  2  0
  8 11  1  0
  8 23  1  0
  9 12  1  0
  9 14  1  0
  9 16  1  0
 10 15  1  0
 10 20  1  0
 11 22  2  0
 12 15  1  0
 13 14  1  0
 13 17  1  0
 13 18  1  0
 14 19  1  0
 15 16  1  0
 20 21  1  0
 21 22  1  0
 21 23  2  0
 22 24  1  0
 23 25  1  0
 24 26  2  0
 24 27  1  0
 26 28  1  0
 27 29  2  0
 28 30  2  0
 29 30  1  0
M  END
>  <PUBCHEM_COMPOUND_CID>  (1) 
31715

>  <PUBCHEM_CONFORMER_RMSD>  (1) 
0.8

>  <PUBCHEM_CONFORMER_DIVERSEORDER>  (1) 
6
1
3
16
15
9
22
19
25
27
26
11
5
17
2
4
13
20
8
24
10
23
28
7
14
12
21
18

>  <PUBCHEM_MMFF94_PARTIAL_CHARGES>  (1) 
33
1 -0.18
10 -0.65
11 -0.41
12 0.44
13 0.23
14 0.36
15 0.28
16 0.58
19 0.66
2 -0.18
20 0.72
21 -0.09
22 0.23
23 -0.04
24 0.05
25 0.18
26 0.18
27 0.18
28 -0.15
29 -0.15
3 -0.45
30 -0.15
4 -0.57
40 0.37
41 0.5
45 0.15
46 0.15
47 0.15
5 -0.65
6 -0.57
7 -0.57
8 -0.02
9 -0.59

>  <PUBCHEM_EFFECTIVE_ROTOR_COUNT>  (1) 
5.8

>  <PUBCHEM_PHARMACOPHORE_FEATURES>  (1) 
11
1 10 donor
1 11 acceptor
1 4 acceptor
1 5 acceptor
1 6 acceptor
1 7 acceptor
3 13 17 18 hydrophobe
3 5 6 19 anion
5 8 11 21 22 23 rings
6 24 26 27 28 29 30 rings
7 3 9 12 13 14 15 16 rings

>  <PUBCHEM_HEAVY_ATOM_COUNT>  (1) 
30

>  <PUBCHEM_ATOM_DEF_STEREO_COUNT>  (1) 
3

>  <PUBCHEM_ATOM_UDEF_STEREO_COUNT>  (1) 
0

>  <PUBCHEM_BOND_DEF_STEREO_COUNT>  (1) 
0

>  <PUBCHEM_BOND_UDEF_STEREO_COUNT>  (1) 
0

>  <PUBCHEM_ISOTOPIC_ATOM_COUNT>  (1) 
0

>  <PUBCHEM_COMPONENT_COUNT>  (1) 
1

>  <PUBCHEM_CACTVS_TAUTO_COUNT>  (1) 
2

>  <PUBCHEM_CONFORMER_ID>  (1) 
00007BE300000006

>  <PUBCHEM_MMFF94_ENERGY>  (1) 
77.8705

>  <PUBCHEM_FEATURE_SELFOVERLAP>  (1) 
55.878

>  <PUBCHEM_SHAPE_FINGERPRINT>  (1) 
10165383 225 18127990628465624537
10670039 82 18260839189457817718
107951 10 17986122816276141805
12173636 292 18268138769797744709
12633257 1 18412267237606706497
12788726 201 18334297603916495279
13583140 156 15698278919350728650
13761468 95 17606972685283538340
14251757 5 18341347616591650124
14347332 77 18411691110678115071
14910302 57 18273219689838352214
15021287 119 17022900096022644776
15183329 4 17603589617502684134
15961568 22 18049714415488569000
17349148 13 17748818606076738896
17818456 19 18119795916558097354
19958102 18 18272088258240498431
20775530 9 18121216751806164047
21033650 10 18263944188919982022
22393880 68 18273219673217586870
23557571 272 18059849593049372490
23559900 14 18195510704907281665
32027 91 17771348570283472998
350125 39 18338226082101280497
460360 51 17969777480206344466
469060 322 18040720277434207345
508706 21 18272377468184186654
7399639 24 17843674710833880010

>  <PUBCHEM_SHAPE_MULTIPOLES>  (1) 
580.69
11.84
3.69
2.03
13.81
1.06
0.53
-0.56
-0.24
-6.02
0.09
0.75
-0.5
-0.81

>  <PUBCHEM_SHAPE_SELFOVERLAP>  (1) 
1235.577

>  <PUBCHEM_SHAPE_VOLUME>  (1) 
329

>  <PUBCHEM_COORDINATE_TYPE>  (1) 
2
5
10

$$$$
