31712
     RDKit          3D

 14 15  0  0  1  0  0  0  0  0999 V2000
   -1.9423    1.2349    0.1609 N   0  0  0  0  0  0  0  0  0  0  0  0
   -1.9169   -1.1202   -0.0161 N   0  0  0  0  0  0  0  0  0  0  0  0
   -1.2197    0.0267    0.6094 C   0  0  0  0  0  0  0  0  0  0  0  0
   -2.7651    0.8184   -0.9695 C   0  0  0  0  0  0  0  0  0  0  0  0
   -3.1727   -0.5798   -0.5398 C   0  0  0  0  0  0  0  0  0  0  0  0
    0.2752   -0.0238    0.3266 C   0  0  0  0  0  0  0  0  0  0  0  0
   -1.1889    2.4502   -0.0742 C   0  0  0  0  0  0  0  0  0  0  0  0
   -2.1256   -2.2423    0.8878 C   0  0  0  0  0  0  0  0  0  0  0  0
    1.1745    0.5087    1.2480 C   0  0  0  0  0  0  0  0  0  0  0  0
    0.7396   -0.6026   -0.8525 C   0  0  0  0  0  0  0  0  0  0  0  0
    2.5442    0.4623    0.9890 C   0  0  0  0  0  0  0  0  0  0  0  0
    2.1095   -0.6492   -1.1115 C   0  0  0  0  0  0  0  0  0  0  0  0
    3.0118   -0.1167   -0.1907 C   0  0  0  0  0  0  0  0  0  0  0  0
    4.4764   -0.1668   -0.4673 C   0  0  0  0  0  0  0  0  0  0  0  0
  1  3  1  0
  1  4  1  0
  1  7  1  0
  2  3  1  0
  2  5  1  0
  2  8  1  0
  3  6  1  0
  4  5  1  0
  6  9  2  0
  6 10  1  0
  9 11  1  0
 10 12  2  0
 11 13  2  0
 12 13  1  0
 13 14  1  0
M  END
>  <PUBCHEM_COMPOUND_CID>  (1) 
31712

>  <PUBCHEM_CONFORMER_RMSD>  (1) 
0.6

>  <PUBCHEM_CONFORMER_DIVERSEORDER>  (1) 
1
3
4
2

>  <PUBCHEM_MMFF94_PARTIAL_CHARGES>  (1) 
18
1 -0.81
10 -0.15
11 -0.15
12 -0.15
13 -0.14
14 0.14
2 -0.81
26 0.15
27 0.15
28 0.15
29 0.15
3 0.68
4 0.27
5 0.27
6 -0.14
7 0.27
8 0.27
9 -0.15

>  <PUBCHEM_EFFECTIVE_ROTOR_COUNT>  (1) 
2

>  <PUBCHEM_PHARMACOPHORE_FEATURES>  (1) 
4
1 1 cation
1 2 cation
5 1 2 3 4 5 rings
6 6 9 10 11 12 13 rings

>  <PUBCHEM_HEAVY_ATOM_COUNT>  (1) 
14

>  <PUBCHEM_ATOM_DEF_STEREO_COUNT>  (1) 
0

>  <PUBCHEM_ATOM_UDEF_STEREO_COUNT>  (1) 
0

>  <PUBCHEM_BOND_DEF_STEREO_COUNT>  (1) 
0

>  <PUBCHEM_BOND_UDEF_STEREO_COUNT>  (1) 
0

>  <PUBCHEM_ISOTOPIC_ATOM_COUNT>  (1) 
0

>  <PUBCHEM_COMPONENT_COUNT>  (1) 
1

>  <PUBCHEM_CACTVS_TAUTO_COUNT>  (1) 
1

>  <PUBCHEM_CONFORMER_ID>  (1) 
00007BE000000001

>  <PUBCHEM_MMFF94_ENERGY>  (1) 
42.0298

>  <PUBCHEM_FEATURE_SELFOVERLAP>  (1) 
20.335

>  <PUBCHEM_SHAPE_FINGERPRINT>  (1) 
11543360 7 18115041800305138886
12138202 97 18336538339794108543
124424 183 18272928281113702390
12500047 106 18260821575401459942
12532896 13 18051704243629038297
12716758 59 18337954476310640851
13024252 1 16153432753132826497
15219456 202 18060132176117264616
15309172 13 16343708746072138590
15375462 6 18339924921881505276
15653759 3 18413389860479739658
15775835 57 17022900116632558621
16945 1 18408319964845085256
17134986 127 17399513425187473589
17844478 74 18130513014811895314
18175812 5 18130785702301414084
18534176 82 18410576175605884111
19026448 5 17967254196190023010
200 152 16200143288082363301
20201158 50 17917429808838004710
20279233 1 18131630097372652578
20645476 183 17603299350063104635
20871999 31 18335693953982763229
21061003 4 17346887774976840176
21501502 16 18126000473126008918
22094290 60 18410863157126346204
22802520 49 18271812276267937427
23402539 116 18410002222278599213
23557571 272 18411708698600516020
23559900 14 18411133616013161010
25 1 17771347461500941041
2748010 2 18196359549427378249
3286 77 16701731765205277003
57812782 119 18202277000922810694
6333449 129 18413107234404242869
77492 1 16950555588751299554
81228 2 18411422787091530233
8809292 202 18413110558598296650

>  <PUBCHEM_SHAPE_MULTIPOLES>  (1) 
278.15
5.99
1.75
1.14
3.97
0.29
0.05
-0.71
-1.18
-1.74
0.23
0.21
-0.08
0.7

>  <PUBCHEM_SHAPE_SELFOVERLAP>  (1) 
577.769

>  <PUBCHEM_SHAPE_VOLUME>  (1) 
161.8

>  <PUBCHEM_COORDINATE_TYPE>  (1) 
2
5
10

$$$$
