31729
     RDKit          3D

 21 22  0  0  1  0  0  0  0  0999 V2000
    2.3027    2.0930   -1.0801 O   0  0  0  0  0  0  0  0  0  0  0  0
    7.0589   -1.7781   -0.1188 O   0  0  0  0  0  0  0  0  0  0  0  0
   -7.4093   -1.6279   -0.0744 O   0  0  0  0  0  0  0  0  0  0  0  0
   -0.1661    1.2521    0.0801 N   0  0  0  0  0  0  0  0  0  0  0  0
    1.0149    0.3797    0.0828 C   0  0  0  0  0  0  0  0  0  0  0  0
    2.2972    1.2420    0.0693 C   0  0  0  0  0  0  0  0  0  0  0  0
   -1.3833    0.4609    0.0321 C   0  0  0  0  0  0  0  0  0  0  0  0
    0.9294   -0.5268    1.3123 C   0  0  0  0  0  0  0  0  0  0  0  0
    3.5746    0.4315    0.0189 C   0  0  0  0  0  0  0  0  0  0  0  0
   -2.6235    1.3582    0.0220 C   0  0  0  0  0  0  0  0  0  0  0  0
   -3.8961    0.5639   -0.0035 C   0  0  0  0  0  0  0  0  0  0  0  0
    4.5248    0.6072    1.0092 C   0  0  0  0  0  0  0  0  0  0  0  0
    3.7634   -0.4668   -1.0166 C   0  0  0  0  0  0  0  0  0  0  0  0
   -4.4622    0.2104   -1.2229 C   0  0  0  0  0  0  0  0  0  0  0  0
   -4.4973    0.1890    1.1926 C   0  0  0  0  0  0  0  0  0  0  0  0
    5.7021   -0.1394    0.9624 C   0  0  0  0  0  0  0  0  0  0  0  0
    4.9406   -1.2136   -1.0633 C   0  0  0  0  0  0  0  0  0  0  0  0
    5.9101   -1.0500   -0.0737 C   0  0  0  0  0  0  0  0  0  0  0  0
   -5.6454   -0.5278   -1.2466 C   0  0  0  0  0  0  0  0  0  0  0  0
   -5.6806   -0.5494    1.1690 C   0  0  0  0  0  0  0  0  0  0  0  0
   -6.2547   -0.9079   -0.0507 C   0  0  0  0  0  0  0  0  0  0  0  0
  1  6  1  0
  2 18  1  0
  3 21  1  0
  4  5  1  0
  4  7  1  0
  5  6  1  0
  5  8  1  0
  6  9  1  0
  7 10  1  0
  9 12  2  0
  9 13  1  0
 10 11  1  0
 11 14  2  0
 11 15  1  0
 12 16  1  0
 13 17  2  0
 14 19  1  0
 15 20  2  0
 16 18  2  0
 17 18  1  0
 19 21  2  0
 20 21  1  0
M  END
>  <PUBCHEM_COMPOUND_CID>  (1) 
31729

>  <PUBCHEM_CONFORMER_RMSD>  (1) 
0.8

>  <PUBCHEM_CONFORMER_DIVERSEORDER>  (1) 
1
28
43
3
37
20
57
38
50
17
14
39
25
55
53
11
35
59
54
29
32
5
36
60
13
52
58
18
34
16
24
33
27
26
42
22
46
56
30
15
47
12
41
10
21
44
48
40
45
23
49
61
8
6
51
2
19
9
7
31
4

>  <PUBCHEM_MMFF94_PARTIAL_CHARGES>  (1) 
32
1 -0.68
10 0.14
11 -0.14
12 -0.15
13 -0.15
14 -0.15
15 -0.15
16 -0.15
17 -0.15
18 0.08
19 -0.15
2 -0.53
20 -0.15
21 0.08
24 0.36
3 -0.53
32 0.15
33 0.15
34 0.4
35 0.15
36 0.15
37 0.15
38 0.15
39 0.15
4 -0.9
40 0.15
41 0.45
42 0.45
5 0.27
6 0.42
7 0.27
9 -0.14

>  <PUBCHEM_EFFECTIVE_ROTOR_COUNT>  (1) 
6

>  <PUBCHEM_PHARMACOPHORE_FEATURES>  (1) 
8
1 1 acceptor
1 1 donor
1 2 donor
1 3 donor
1 4 cation
1 4 donor
6 11 14 15 19 20 21 rings
6 9 12 13 16 17 18 rings

>  <PUBCHEM_HEAVY_ATOM_COUNT>  (1) 
21

>  <PUBCHEM_ATOM_DEF_STEREO_COUNT>  (1) 
0

>  <PUBCHEM_ATOM_UDEF_STEREO_COUNT>  (1) 
2

>  <PUBCHEM_BOND_DEF_STEREO_COUNT>  (1) 
0

>  <PUBCHEM_BOND_UDEF_STEREO_COUNT>  (1) 
0

>  <PUBCHEM_ISOTOPIC_ATOM_COUNT>  (1) 
0

>  <PUBCHEM_COMPONENT_COUNT>  (1) 
1

>  <PUBCHEM_CACTVS_TAUTO_COUNT>  (1) 
4

>  <PUBCHEM_CONFORMER_ID>  (1) 
00007BF100000001

>  <PUBCHEM_MMFF94_ENERGY>  (1) 
48.6438

>  <PUBCHEM_FEATURE_SELFOVERLAP>  (1) 
40.6

>  <PUBCHEM_SHAPE_FINGERPRINT>  (1) 
10 15 14189571957496727643
10670039 82 15140955132468619303
11089746 13 11818995192634212748
117890 112 9007056863848515824
11991303 11 16371014052460519051
12166972 35 18413672417957572936
12236239 1 18273217504127129665
12596602 18 16415481545192415555
12616971 3 18341899623343142493
13073987 5 16988567870318442027
13533116 47 18273496793123768320
13668630 136 18334011709724392251
13685833 64 18343584044527335826
13862211 1 18260546702000187664
13885169 127 18342457007477948993
1420 363 18408041814478880345
14251752 14 16225763017084862738
14251764 18 17131829888947648244
14528608 73 13767930138823225312
14849402 71 16558174047095301808
15142383 8 16271931467290669249
15183329 4 14996280301495555012
15348495 7 14476949121173229671
15716309 27 17846497041386893593
16988056 13 14346092953055838302
17844677 252 18341615905924362137
18222031 100 17603586331061398764
18643901 69 17240770627570435291
20028762 73 18411983567838839246
20281389 69 10591768675242822051
20567600 247 18341609287316396954
21150785 3 16877667872409424726
21267235 1 18410577279391380165
21623969 137 17561086894948373166
220451 1 16773795922037869764
22061861 79 17821446872086898813
221357 26 13551469255252503358
22224240 67 12607395585894204636
23035841 295 18409731777284481995
23081809 10 18340778086532430128
23198884 109 13334733531912051161
23402539 116 18343864394597609609
23522609 53 18056231091572244608
23536379 177 17203329996299205291
23559900 14 17023751259625206261
23569943 247 18049162168588511722
29717793 49 18334295374818023373
300161 21 9367348128521086833
3004659 81 17821446871855101924
3663271 9 16702303455391077331
4340502 62 15698000730377303988
465052 167 18059856122233209502
5104073 3 14548154615227234519
542803 24 14117796920672511720
5718773 13 18192428581406812410
59682541 52 13118275929168738272
59755656 215 17748542632383896619
6328613 192 11530491016654897246
7495541 125 16630235991650100760

>  <PUBCHEM_SHAPE_MULTIPOLES>  (1) 
409.58
20.32
1.49
1.23
7.44
0.01
-0.03
-10.93
-0.56
-0.75
0.26
0.39
-0.03
0.25

>  <PUBCHEM_SHAPE_SELFOVERLAP>  (1) 
859.314

>  <PUBCHEM_SHAPE_VOLUME>  (1) 
232.1

>  <PUBCHEM_COORDINATE_TYPE>  (1) 
2
5
10

$$$$
