31744
     RDKit          3D

 15 16  0  0  0  0  0  0  0  0999 V2000
   -3.9188    0.4302    0.0009 O   0  0  0  0  0  0  0  0  0  0  0  0
   -2.9137   -1.5215   -0.0003 O   0  0  0  0  0  0  0  0  0  0  0  0
   -2.8811   -0.2701    0.0002 N   0  0  0  0  0  0  0  0  0  0  0  0
    4.3363    0.8357    0.0001 N   0  0  0  0  0  0  0  0  0  0  0  0
   -0.4051   -0.3330   -0.0004 C   0  0  0  0  0  0  0  0  0  0  0  0
    0.8196    0.3760   -0.0001 C   0  0  0  0  0  0  0  0  0  0  0  0
   -1.6132    0.3829   -0.0003 C   0  0  0  0  0  0  0  0  0  0  0  0
    2.0277   -0.3401    0.0002 C   0  0  0  0  0  0  0  0  0  0  0  0
    0.7998    1.7803   -0.0002 C   0  0  0  0  0  0  0  0  0  0  0  0
   -0.3858   -1.7372   -0.0005 C   0  0  0  0  0  0  0  0  0  0  0  0
   -1.6143    1.7780   -0.0001 C   0  0  0  0  0  0  0  0  0  0  0  0
   -0.4099    2.4754   -0.0002 C   0  0  0  0  0  0  0  0  0  0  0  0
    2.0281   -1.7354    0.0004 C   0  0  0  0  0  0  0  0  0  0  0  0
    0.8238   -2.4325    0.0000 C   0  0  0  0  0  0  0  0  0  0  0  0
    3.3067    0.3113    0.0002 C   0  0  0  0  0  0  0  0  0  0  0  0
  1  3  1  0
  2  3  2  0
  3  7  1  0
  4 15  3  0
  5  6  1  0
  5  7  2  0
  5 10  1  0
  6  8  1  0
  6  9  2  0
  7 11  1  0
  8 13  2  0
  8 15  1  0
  9 12  1  0
 10 14  2  0
 11 12  2  0
 13 14  1  0
M  CHG  2   1  -1   3   1
M  END
>  <PUBCHEM_COMPOUND_CID>  (1) 
31744

>  <PUBCHEM_CONFORMER_RMSD>  (1) 
0.4

>  <PUBCHEM_CONFORMER_DIVERSEORDER>  (1) 
1

>  <PUBCHEM_MMFF94_PARTIAL_CHARGES>  (1) 
19
1 -0.52
10 -0.15
11 -0.15
12 -0.15
13 -0.15
14 -0.15
15 0.48
16 0.15
17 0.15
18 0.15
19 0.15
2 -0.52
20 0.15
21 0.15
3 0.91
4 -0.56
7 0.13
8 0.07
9 -0.15

>  <PUBCHEM_EFFECTIVE_ROTOR_COUNT>  (1) 
1

>  <PUBCHEM_PHARMACOPHORE_FEATURES>  (1) 
6
1 1 acceptor
1 1 anion
1 2 acceptor
1 4 acceptor
6 5 6 7 9 11 12 rings
6 5 6 8 10 13 14 rings

>  <PUBCHEM_HEAVY_ATOM_COUNT>  (1) 
15

>  <PUBCHEM_ATOM_DEF_STEREO_COUNT>  (1) 
0

>  <PUBCHEM_ATOM_UDEF_STEREO_COUNT>  (1) 
0

>  <PUBCHEM_BOND_DEF_STEREO_COUNT>  (1) 
0

>  <PUBCHEM_BOND_UDEF_STEREO_COUNT>  (1) 
0

>  <PUBCHEM_ISOTOPIC_ATOM_COUNT>  (1) 
0

>  <PUBCHEM_COMPONENT_COUNT>  (1) 
1

>  <PUBCHEM_CACTVS_TAUTO_COUNT>  (1) 
1

>  <PUBCHEM_CONFORMER_ID>  (1) 
00007C0000000001

>  <PUBCHEM_MMFF94_ENERGY>  (1) 
60.3425

>  <PUBCHEM_FEATURE_SELFOVERLAP>  (1) 
30.554

>  <PUBCHEM_SHAPE_FINGERPRINT>  (1) 
108231 29 18271526502298378912
10967382 1 18410575071788739527
11132069 177 18412260653411025896
11471102 20 18410286978752748589
12382932 28 18411420587846455667
13140716 1 18122348140200838584
13380535 76 18409449198058252914
14576447 43 18128797803086376095
14614273 12 18188203183035803981
14790565 3 18338813315093892257
15042514 8 18337670953210101618
15196674 1 18410575058909170855
15536298 74 18271244907289294118
16945 1 18410573980882922565
17846911 113 18410849980224736880
193761 8 17978228257852341284
20510252 161 18343865502836315880
20588541 1 18409732880273328002
21501502 16 18123750859366235960
21650355 55 16602920498048928738
2334 1 17762337320029662604
23388829 49 18410294713582894101
23402539 116 18342166804605076870
23402655 69 18341036425427269813
23419403 2 15810223333468943900
23463225 33 18335135354614960522
23552423 10 18046912575986108206
23559900 14 18197492914631128262
2748010 2 18194402195233154654
3312278 4 18410576184496531617
34934 24 18411411791969516239
43471831 8 18335417920592830082
528886 8 18411695504223404466
537710 114 18336271218677404244
53812653 166 18342453768286234640
589210 1 17978790099719966050
7364860 26 18126003767814642750

>  <PUBCHEM_SHAPE_MULTIPOLES>  (1) 
286.99
5.21
2.55
0.59
0.53
0.09
0
-0.44
0
0
0
0.04
-0.01
0

>  <PUBCHEM_SHAPE_SELFOVERLAP>  (1) 
635.587

>  <PUBCHEM_SHAPE_VOLUME>  (1) 
152.6

>  <PUBCHEM_COORDINATE_TYPE>  (1) 
2
5
10

$$$$
