31741
     RDKit          3D

 23 26  0  0  1  0  0  0  0  0999 V2000
    4.6569    3.2335   -0.1147 Cl  0  0  0  0  0  0  0  0  0  0  0  0
    1.7867   -1.0894    1.5660 S   0  0  0  0  0  0  0  0  0  0  0  0
    3.1514   -1.7124    1.5887 O   0  0  0  0  0  0  0  0  0  0  0  0
   -4.0130    1.6324    0.3843 N   0  0  0  0  0  0  0  0  0  0  0  0
   -1.5434    0.4517   -0.5325 C   0  0  0  0  0  0  0  0  0  0  0  0
   -1.7601    1.9380   -0.6153 C   0  0  0  0  0  0  0  0  0  0  0  0
   -2.8142   -0.3531   -0.5033 C   0  0  0  0  0  0  0  0  0  0  0  0
   -2.7551    2.3949    0.4576 C   0  0  0  0  0  0  0  0  0  0  0  0
   -3.7685    0.1914    0.5656 C   0  0  0  0  0  0  0  0  0  0  0  0
   -0.3267   -0.1048   -0.4584 C   0  0  0  0  0  0  0  0  0  0  0  0
    0.8737    0.7573   -0.3569 C   0  0  0  0  0  0  0  0  0  0  0  0
   -0.1926   -1.5779   -0.3794 C   0  0  0  0  0  0  0  0  0  0  0  0
    1.9262    0.3569    0.4853 C   0  0  0  0  0  0  0  0  0  0  0  0
    0.7937   -2.1245    0.4608 C   0  0  0  0  0  0  0  0  0  0  0  0
   -4.9643    2.1190    1.3832 C   0  0  0  0  0  0  0  0  0  0  0  0
    1.0256    1.9138   -1.1397 C   0  0  0  0  0  0  0  0  0  0  0  0
   -0.9615   -2.4375   -1.1815 C   0  0  0  0  0  0  0  0  0  0  0  0
    3.0899    1.1364    0.5602 C   0  0  0  0  0  0  0  0  0  0  0  0
    0.9674   -3.5153    0.5135 C   0  0  0  0  0  0  0  0  0  0  0  0
    2.1914    2.6762   -1.0636 C   0  0  0  0  0  0  0  0  0  0  0  0
   -0.7735   -3.8188   -1.1275 C   0  0  0  0  0  0  0  0  0  0  0  0
    3.2213    2.2892   -0.2129 C   0  0  0  0  0  0  0  0  0  0  0  0
    0.1885   -4.3571   -0.2795 C   0  0  0  0  0  0  0  0  0  0  0  0
  1 22  1  0
  2  3  2  0
  2 13  1  0
  2 14  1  0
  4  8  1  0
  4  9  1  0
  4 15  1  0
  5  6  1  0
  5  7  1  0
  5 10  2  3
  6  8  1  0
  7  9  1  0
 10 11  1  0
 10 12  1  0
 11 13  2  0
 11 16  1  0
 12 14  2  0
 12 17  1  0
 13 18  1  0
 14 19  1  0
 16 20  2  0
 17 21  2  0
 18 22  2  0
 19 23  2  0
 20 22  1  0
 21 23  1  0
M  END
>  <PUBCHEM_COMPOUND_CID>  (1) 
31741

>  <PUBCHEM_CONFORMER_RMSD>  (1) 
0.6

>  <PUBCHEM_CONFORMER_DIVERSEORDER>  (1) 
1
4
2
3

>  <PUBCHEM_MMFF94_PARTIAL_CHARGES>  (1) 
30
1 -0.18
10 -0.06
11 0.03
12 0.03
13 0.06
14 0.06
15 0.27
16 -0.15
17 -0.15
18 -0.15
19 -0.15
2 0.37
20 -0.15
21 -0.15
22 0.18
23 -0.15
3 -0.5
35 0.15
36 0.15
37 0.15
38 0.15
39 0.15
4 -0.81
40 0.15
41 0.15
5 -0.28
6 0.14
7 0.14
8 0.27
9 0.27

>  <PUBCHEM_EFFECTIVE_ROTOR_COUNT>  (1) 
1

>  <PUBCHEM_PHARMACOPHORE_FEATURES>  (1) 
6
1 3 acceptor
1 4 cation
6 11 13 16 18 20 22 rings
6 12 14 17 19 21 23 rings
6 2 10 11 12 13 14 rings
6 4 5 6 7 8 9 rings

>  <PUBCHEM_HEAVY_ATOM_COUNT>  (1) 
23

>  <PUBCHEM_ATOM_DEF_STEREO_COUNT>  (1) 
0

>  <PUBCHEM_ATOM_UDEF_STEREO_COUNT>  (1) 
1

>  <PUBCHEM_BOND_DEF_STEREO_COUNT>  (1) 
0

>  <PUBCHEM_BOND_UDEF_STEREO_COUNT>  (1) 
0

>  <PUBCHEM_ISOTOPIC_ATOM_COUNT>  (1) 
0

>  <PUBCHEM_COMPONENT_COUNT>  (1) 
1

>  <PUBCHEM_CACTVS_TAUTO_COUNT>  (1) 
1

>  <PUBCHEM_CONFORMER_ID>  (1) 
00007BFD00000001

>  <PUBCHEM_MMFF94_ENERGY>  (1) 
88.3121

>  <PUBCHEM_FEATURE_SELFOVERLAP>  (1) 
30.48

>  <PUBCHEM_SHAPE_FINGERPRINT>  (1) 
10006869 2 18266455606501295091
10382601 240 18113897148175735208
1100329 8 18410567401720947626
11578080 2 16260737532745379692
12293681 160 17109866298174518030
12422481 6 17619036475287089066
12553582 1 17833544596479726199
12633257 1 17968936371244004339
12788726 201 17398689272465418860
12954195 1 18051134997532798236
13140716 1 18409732837518736459
138480 1 17906455420056435029
14223421 5 18262523568241568105
14363568 33 18121787132005164342
14790565 3 18338803295678417556
14866123 147 18265894842764698898
14955137 171 18193562164529671018
15042514 8 17833840738875072279
15420108 30 18410567383845135797
15664445 248 17696211213630832078
1601671 61 18122628249715714762
16945 1 18122047715833744439
18785283 64 18266747870081717235
19591789 44 18409730621526868318
20157964 124 18265893567634711469
20739085 24 18189058611920210684
21049683 271 17903945273659900702
21756936 100 18271526528047310700
23419403 2 15805042481981720934
23557571 272 17696199475574979812
23558518 356 17974573795240680836
23559900 14 18122631544377526505
25147074 1 17753316858839720816
2748010 2 17186408280762727518
283562 15 17615399699044069840
3091708 16 8902770393609311461
3380486 145 17473514990079198735
3610482 184 17608391339300168260
3729539 64 17979952365737793470
57527585 103 16590550344001816138
59755656 520 18339366378433161412
6287921 2 18270677541866944835
633830 44 18201442458523017021
6438718 38 17697050492852545919
7097593 13 17981322296895680953
7364860 26 18195816167460865589
81228 2 17688875658148752860
9896288 288 18266192805709350689

>  <PUBCHEM_SHAPE_MULTIPOLES>  (1) 
468.2
6.79
5.35
1.27
0.32
4.94
-0.21
-9.08
-1.89
-0.81
0.35
0.04
0.23
-2.34

>  <PUBCHEM_SHAPE_SELFOVERLAP>  (1) 
1005.795

>  <PUBCHEM_SHAPE_VOLUME>  (1) 
259.5

>  <PUBCHEM_COORDINATE_TYPE>  (1) 
2
5
10

$$$$
