31743
     RDKit          3D

 18 20  0  0  1  0  0  0  0  0999 V2000
   -1.2092   -0.6562   -1.0999 O   0  0  0  0  0  0  0  0  0  0  0  0
   -4.8106   -2.1137    0.2993 O   0  0  0  0  0  0  0  0  0  0  0  0
   -0.7436    1.5390   -0.4809 N   0  0  0  0  0  0  0  0  0  0  0  0
   -3.7631   -0.3834   -0.8800 N   0  0  0  0  0  0  0  0  0  0  0  0
    0.6974    1.4656   -0.5609 C   0  0  0  0  0  0  0  0  0  0  0  0
    1.4926    0.9754    0.5998 C   0  0  0  0  0  0  0  0  0  0  0  0
    1.5449    2.4221    0.2047 C   0  0  0  0  0  0  0  0  0  0  0  0
    2.6680    0.1070    0.3488 C   0  0  0  0  0  0  0  0  0  0  0  0
   -3.0178    0.8050   -0.5748 C   0  0  0  0  0  0  0  0  0  0  0  0
   -1.5732    0.4662   -0.7589 C   0  0  0  0  0  0  0  0  0  0  0  0
   -3.3740    1.0937    0.8711 C   0  0  0  0  0  0  0  0  0  0  0  0
    2.4958   -1.2588    0.1017 C   0  0  0  0  0  0  0  0  0  0  0  0
    3.9577    0.6477    0.3575 C   0  0  0  0  0  0  0  0  0  0  0  0
   -3.7214   -0.2755    1.4550 C   0  0  0  0  0  0  0  0  0  0  0  0
   -4.1948   -1.0599    0.2558 C   0  0  0  0  0  0  0  0  0  0  0  0
    3.6019   -2.0752   -0.1345 C   0  0  0  0  0  0  0  0  0  0  0  0
    5.0637   -0.1688    0.1212 C   0  0  0  0  0  0  0  0  0  0  0  0
    4.8858   -1.5302   -0.1248 C   0  0  0  0  0  0  0  0  0  0  0  0
  1 10  2  0
  2 15  2  0
  3  5  1  0
  3 10  1  0
  4  9  1  0
  4 15  1  0
  5  6  1  0
  5  7  1  0
  6  7  1  0
  6  8  1  0
  8 12  2  0
  8 13  1  0
  9 10  1  0
  9 11  1  0
 11 14  1  0
 12 16  1  0
 13 17  2  0
 14 15  1  0
 16 18  2  0
 17 18  1  0
M  END
>  <PUBCHEM_COMPOUND_CID>  (1) 
31743

>  <PUBCHEM_CONFORMER_RMSD>  (1) 
0.8

>  <PUBCHEM_CONFORMER_DIVERSEORDER>  (1) 
1
27
4
33
31
45
12
23
32
39
19
9
48
44
5
15
17
21
14
13
38
18
22
25
3
40
30
35
46
29
20
42
16
34
6
2
26
7
10
43
47
36
11
8
28
41
37
24

>  <PUBCHEM_MMFF94_PARTIAL_CHARGES>  (1) 
28
1 -0.57
10 0.57
12 -0.15
13 -0.15
14 0.06
15 0.57
16 -0.15
17 -0.15
18 -0.15
19 0.1
2 -0.57
20 0.1
21 0.1
22 0.1
23 0.37
27 0.15
28 0.15
3 -0.58
31 0.37
32 0.15
33 0.15
34 0.15
4 -0.73
5 0.05
6 -0.07
7 -0.2
8 -0.03
9 0.36

>  <PUBCHEM_EFFECTIVE_ROTOR_COUNT>  (1) 
5.4

>  <PUBCHEM_PHARMACOPHORE_FEATURES>  (1) 
6
1 1 acceptor
1 2 acceptor
1 3 donor
1 4 donor
5 4 9 11 14 15 rings
6 8 12 13 16 17 18 rings

>  <PUBCHEM_HEAVY_ATOM_COUNT>  (1) 
18

>  <PUBCHEM_ATOM_DEF_STEREO_COUNT>  (1) 
1

>  <PUBCHEM_ATOM_UDEF_STEREO_COUNT>  (1) 
2

>  <PUBCHEM_BOND_DEF_STEREO_COUNT>  (1) 
0

>  <PUBCHEM_BOND_UDEF_STEREO_COUNT>  (1) 
0

>  <PUBCHEM_ISOTOPIC_ATOM_COUNT>  (1) 
0

>  <PUBCHEM_COMPONENT_COUNT>  (1) 
1

>  <PUBCHEM_CACTVS_TAUTO_COUNT>  (1) 
6

>  <PUBCHEM_CONFORMER_ID>  (1) 
00007BFF00000001

>  <PUBCHEM_MMFF94_ENERGY>  (1) 
43.0964

>  <PUBCHEM_FEATURE_SELFOVERLAP>  (1) 
30.447

>  <PUBCHEM_SHAPE_FINGERPRINT>  (1) 
10646746 165 10952046762659927192
11543360 7 15213027037495806260
12006461 19 18407760352323865409
12553582 1 18342725313609676412
12596602 18 17275105063146449170
12633257 1 15410889678115446371
12670546 56 17203598302843123224
12892183 10 17989484130153187720
12916754 54 18337390547727259021
13103583 49 17988375792530837185
13464513 79 18333730251869327130
13533116 47 18269837687224854803
13544653 18 18335702711146935196
13675066 3 17989202633696339640
13740256 8 18408605864065255058
14123255 352 11239995637754024722
14251757 5 12614191748954828881
14251764 30 18200326420241082598
14252887 29 17917713474896642598
14341114 176 18342464746354609419
14386348 63 18186238420165419299
15196674 1 18410854335142239822
15352361 1 18408603669025970883
15375462 189 18201714055364778368
15527383 91 18413111632308699665
17959699 21 8862673395057100807
1813 80 17821732732077883348
18186145 218 8718540662076698920
18785283 64 18191300684108101008
193927 3 17822301227287419915
20261772 1 18130783482041043470
20281475 54 18408609153731018852
20432913 95 18411139138444207544
20645477 70 18189042243630858933
20871999 31 15357693094077595893
21065198 48 18130513019518676769
21673915 165 18411698832870953786
221490 88 18409164390371556300
2215653 11 18334282159656918711
22950370 63 18411426077078332404
23402539 116 11530484437044113178
23503958 8 18342741819068865849
23557571 272 17168413875236325492
23559900 14 18262509407808350145
2871803 45 18187639159730701510
3737641 26 18196945374572290390
4325135 7 17603590772442269668
4921388 177 16153720799214490537
5104073 3 18270674277913190872
5352402 22 18272093772967625462
83771 10 18341045234025463204
9709674 26 18115309019942476667

>  <PUBCHEM_SHAPE_MULTIPOLES>  (1) 
348.73
11.18
2.15
0.98
0.01
0.04
-0.08
5.98
-1.47
0.49
-0.01
-0.84
-0.04
0.36

>  <PUBCHEM_SHAPE_SELFOVERLAP>  (1) 
743.829

>  <PUBCHEM_SHAPE_VOLUME>  (1) 
194.3

>  <PUBCHEM_COORDINATE_TYPE>  (1) 
2
5
10

$$$$
