3174
     RDKit          3D

  9  8  0  0  0  0  0  0  0  0999 V2000
    1.0613    2.1019   -0.1167 S   0  0  0  0  0  0  0  0  0  0  0  0
    3.0400    0.0327    0.6247 S   0  0  0  0  0  0  0  0  0  0  0  0
   -2.6876    0.9194   -0.0984 O   0  0  0  0  0  0  0  0  0  0  0  0
   -1.7263   -0.6981    1.1760 O   0  0  0  0  0  0  0  0  0  0  0  0
    0.5439   -0.5457   -0.4093 N   0  0  0  0  0  0  0  0  0  0  0  0
   -0.7589   -0.1723   -0.9681 C   0  0  0  0  0  0  0  0  0  0  0  0
    0.7759   -1.9922   -0.3736 C   0  0  0  0  0  0  0  0  0  0  0  0
    1.5066    0.3892    0.0181 C   0  0  0  0  0  0  0  0  0  0  0  0
   -1.7549   -0.0349    0.1475 C   0  0  0  0  0  0  0  0  0  0  0  0
  1  8  1  0
  2  8  2  0
  3  9  1  0
  4  9  2  0
  5  6  1  0
  5  7  1  0
  5  8  1  0
  6  9  1  0
M  END
>  <PUBCHEM_COMPOUND_CID>  (1) 
3174

>  <PUBCHEM_CONFORMER_RMSD>  (1) 
0.6

>  <PUBCHEM_CONFORMER_DIVERSEORDER>  (1) 
2
12
1
13
15
8
14
6
16
9
5
3
10
4
11
7

>  <PUBCHEM_MMFF94_PARTIAL_CHARGES>  (1) 
11
1 -0.32
15 0.18
16 0.5
2 -0.38
3 -0.65
4 -0.57
5 -0.66
6 0.36
7 0.3
8 0.58
9 0.66

>  <PUBCHEM_EFFECTIVE_ROTOR_COUNT>  (1) 
3

>  <PUBCHEM_PHARMACOPHORE_FEATURES>  (1) 
5
1 2 acceptor
1 3 acceptor
1 4 acceptor
3 1 2 8 anion
3 3 4 9 anion

>  <PUBCHEM_HEAVY_ATOM_COUNT>  (1) 
9

>  <PUBCHEM_ATOM_DEF_STEREO_COUNT>  (1) 
0

>  <PUBCHEM_ATOM_UDEF_STEREO_COUNT>  (1) 
0

>  <PUBCHEM_BOND_DEF_STEREO_COUNT>  (1) 
0

>  <PUBCHEM_BOND_UDEF_STEREO_COUNT>  (1) 
0

>  <PUBCHEM_ISOTOPIC_ATOM_COUNT>  (1) 
0

>  <PUBCHEM_COMPONENT_COUNT>  (1) 
1

>  <PUBCHEM_CACTVS_TAUTO_COUNT>  (1) 
1

>  <PUBCHEM_CONFORMER_ID>  (1) 
00000C6600000002

>  <PUBCHEM_MMFF94_ENERGY>  (1) 
22.935

>  <PUBCHEM_FEATURE_SELFOVERLAP>  (1) 
25.431

>  <PUBCHEM_SHAPE_FINGERPRINT>  (1) 
15775835 57 17632856442667305912
161256 15 17984706610818404494
20653085 51 14979135702873205306
21040471 1 18198624526300785468
29004967 10 18408889503520912122
5084963 1 17916585482660335518

>  <PUBCHEM_SHAPE_MULTIPOLES>  (1) 
176.2
3.64
1.84
0.92
0.22
0.17
0.08
0.57
0.95
0.54
-0.25
-0.17
-0.12
0.07

>  <PUBCHEM_SHAPE_SELFOVERLAP>  (1) 
311.478

>  <PUBCHEM_SHAPE_VOLUME>  (1) 
117.5

>  <PUBCHEM_COORDINATE_TYPE>  (1) 
2
5
10

$$$$
