31742
     RDKit          3D

 24 26  0  0  0  0  0  0  0  0999 V2000
    7.0539    1.6133   -0.4230 F   0  0  0  0  0  0  0  0  0  0  0  0
    6.9823    0.8303    1.5983 F   0  0  0  0  0  0  0  0  0  0  0  0
    7.3823   -0.5070   -0.0692 F   0  0  0  0  0  0  0  0  0  0  0  0
   -3.0535   -1.2199   -0.7130 O   0  0  0  0  0  0  0  0  0  0  0  0
   -6.1874    0.2507    0.5333 N   0  0  0  0  0  0  0  0  0  0  0  0
   -6.5647    1.1296   -0.5734 C   0  0  0  0  0  0  0  0  0  0  0  0
   -7.4489   -0.2991    1.0285 C   0  0  0  0  0  0  0  0  0  0  0  0
   -7.7946    1.8465   -0.0359 C   0  0  0  0  0  0  0  0  0  0  0  0
   -8.3736    0.9092    1.0194 C   0  0  0  0  0  0  0  0  0  0  0  0
   -5.2516   -0.7864    0.1249 C   0  0  0  0  0  0  0  0  0  0  0  0
   -3.9407   -0.1733   -0.3412 C   0  0  0  0  0  0  0  0  0  0  0  0
   -1.7130   -0.9740   -0.5692 C   0  0  0  0  0  0  0  0  0  0  0  0
    1.0070   -0.4752   -0.2800 C   0  0  0  0  0  0  0  0  0  0  0  0
   -1.2340    0.3247   -0.6981 C   0  0  0  0  0  0  0  0  0  0  0  0
   -0.8456   -2.0258   -0.2972 C   0  0  0  0  0  0  0  0  0  0  0  0
    2.4222   -0.2158   -0.1301 C   0  0  0  0  0  0  0  0  0  0  0  0
    0.1305    0.5750   -0.5529 C   0  0  0  0  0  0  0  0  0  0  0  0
    0.5189   -1.7756   -0.1521 C   0  0  0  0  0  0  0  0  0  0  0  0
    3.0155    0.8388   -0.8239 C   0  0  0  0  0  0  0  0  0  0  0  0
    3.1939   -1.0204    0.7084 C   0  0  0  0  0  0  0  0  0  0  0  0
    5.1517    0.2842    0.1590 C   0  0  0  0  0  0  0  0  0  0  0  0
    4.3802    1.0888   -0.6794 C   0  0  0  0  0  0  0  0  0  0  0  0
    4.5586   -0.7703    0.8529 C   0  0  0  0  0  0  0  0  0  0  0  0
    6.6106    0.5518    0.3137 C   0  0  0  0  0  0  0  0  0  0  0  0
  1 24  1  0
  2 24  1  0
  3 24  1  0
  4 11  1  0
  4 12  1  0
  5  6  1  0
  5  7  1  0
  5 10  1  0
  6  8  1  0
  7  9  1  0
  8  9  1  0
 10 11  1  0
 12 14  2  0
 12 15  1  0
 13 16  1  0
 13 17  2  0
 13 18  1  0
 14 17  1  0
 15 18  2  0
 16 19  2  0
 16 20  1  0
 19 22  1  0
 20 23  2  0
 21 22  2  0
 21 23  1  0
 21 24  1  0
M  END
>  <PUBCHEM_COMPOUND_CID>  (1) 
31742

>  <PUBCHEM_CONFORMER_RMSD>  (1) 
0.8

>  <PUBCHEM_CONFORMER_DIVERSEORDER>  (1) 
1
14
4
21
20
11
15
2
16
7
10
6
9
13
8
5
18
12
19
17
3

>  <PUBCHEM_MMFF94_PARTIAL_CHARGES>  (1) 
28
1 -0.34
10 0.27
11 0.28
12 0.08
14 -0.15
15 -0.15
17 -0.15
18 -0.15
19 -0.15
2 -0.34
20 -0.15
21 -0.14
22 -0.15
23 -0.15
24 1.16
3 -0.34
37 0.15
38 0.15
39 0.15
4 -0.36
40 0.15
41 0.15
42 0.15
43 0.15
44 0.15
5 -0.81
6 0.27
7 0.27

>  <PUBCHEM_EFFECTIVE_ROTOR_COUNT>  (1) 
7

>  <PUBCHEM_PHARMACOPHORE_FEATURES>  (1) 
5
1 4 acceptor
1 5 cation
5 5 6 7 8 9 rings
6 12 13 14 15 17 18 rings
6 16 19 20 21 22 23 rings

>  <PUBCHEM_HEAVY_ATOM_COUNT>  (1) 
24

>  <PUBCHEM_ATOM_DEF_STEREO_COUNT>  (1) 
0

>  <PUBCHEM_ATOM_UDEF_STEREO_COUNT>  (1) 
0

>  <PUBCHEM_BOND_DEF_STEREO_COUNT>  (1) 
0

>  <PUBCHEM_BOND_UDEF_STEREO_COUNT>  (1) 
0

>  <PUBCHEM_ISOTOPIC_ATOM_COUNT>  (1) 
0

>  <PUBCHEM_COMPONENT_COUNT>  (1) 
1

>  <PUBCHEM_CACTVS_TAUTO_COUNT>  (1) 
1

>  <PUBCHEM_CONFORMER_ID>  (1) 
00007BFE00000001

>  <PUBCHEM_MMFF94_ENERGY>  (1) 
63.012

>  <PUBCHEM_FEATURE_SELFOVERLAP>  (1) 
25.373

>  <PUBCHEM_SHAPE_FINGERPRINT>  (1) 
10 15 18333452028493998451
10066227 49 9511195044202500600
10299344 5 15502378928408562737
106641 1 17967818271324655851
11315181 36 8646768903172120023
11409948 35 17917437463915548126
11524674 6 14490479690718324241
11963148 33 8214142928545770865
12166972 35 10519982677620408099
12236239 1 18336261336427011638
125118 31 18201719595904719840
12539765 74 18201727275353432518
12838862 33 18342161255734579673
13073987 5 16226314920234555997
13533116 47 17274825697294450134
13540713 4 17606671419197741095
13668630 136 8286204958856478081
13673619 4 12612753527811022079
13685833 64 12324242767245167471
13968360 50 13758081774582250332
14178184 131 11675466045106327609
14251764 18 18260547840208874863
14251764 46 13542463163872107070
14729087 3 18131632279674897025
14849402 71 18187651370202132805
15048467 5 18202282507065752315
15461852 350 17703783752728617103
155225 1 17846502496929575841
15690457 1 12685095904103088857
15706992 2 18202014243619428081
15716309 27 14996285829756820279
1577012 14 18343294869038754263
16989713 51 17273969328793595791
1818759 1 11241972551661863417
18335252 114 15051728698944266496
18335252 98 13190337964186862928
18681886 176 9295282816632513911
20281389 69 18412262826954751361
20554085 129 17203317902009689226
20621476 66 18412545435312269871
21033648 29 17702927254460669810
21150785 3 12967129414849708642
21267235 1 17894629232793455382
21304253 13 18411980286473373221
21344244 181 14996275874249840176
22224240 67 18259703406784085283
22288116 15 16486679356425303725
23035841 295 12035451636474912569
23569943 247 7851649424241277192
23576562 1 14548153524632712961
246663 6 13406794419556970321
3009799 131 16271928224732635827
3178227 256 17313104159385336888
3633792 109 12823302298810001330
4073 2 17458915940847071515
4093350 32 18342175527394290658
4340502 62 16732983119751048186
465052 167 11241973672294678939
5104073 3 17386835119662747641
5385378 56 18410292467278607555
54039377 194 8358247156465700601
5758199 1 18413671305761100235
59682541 35 17313108583085847737
636775 8 8934993807076924353
9953998 17 17603308151210372737
9962374 69 13262973961164893611

>  <PUBCHEM_SHAPE_MULTIPOLES>  (1) 
461.24
25.04
1.6
0.98
18.62
0.16
0.18
-11.91
7.97
0.48
-0.16
-0.04
-0.07
-0.34

>  <PUBCHEM_SHAPE_SELFOVERLAP>  (1) 
990.619

>  <PUBCHEM_SHAPE_VOLUME>  (1) 
257.8

>  <PUBCHEM_COORDINATE_TYPE>  (1) 
2
5
10

$$$$
