31752
     RDKit          3D

 29 33  0  0  1  0  0  0  0  0999 V2000
   -2.2362    1.4016   -0.9851 N   0  0  0  0  0  0  0  0  0  0  0  0
    2.1184   -1.2983   -1.6458 N   0  0  0  0  0  0  0  0  0  0  0  0
   -1.1602    0.8707   -1.8089 C   0  0  0  0  0  0  0  0  0  0  0  0
    0.5423   -0.7147    0.1379 C   0  0  0  0  0  0  0  0  0  0  0  0
   -0.7398   -1.3461   -0.5056 C   0  0  0  0  0  0  0  0  0  0  0  0
    0.6047    0.8451    0.0417 C   0  0  0  0  0  0  0  0  0  0  0  0
   -1.1798   -0.6605   -1.8220 C   0  0  0  0  0  0  0  0  0  0  0  0
    0.2007    1.3943   -1.3392 C   0  0  0  0  0  0  0  0  0  0  0  0
   -2.2446    2.8639   -0.9520 C   0  0  0  0  0  0  0  0  0  0  0  0
   -3.5586    1.0255   -1.4837 C   0  0  0  0  0  0  0  0  0  0  0  0
   -1.9361   -1.5417    0.4324 C   0  0  0  0  0  0  0  0  0  0  0  0
    1.8992    1.4211    0.6078 C   0  0  0  0  0  0  0  0  0  0  0  0
   -3.6230    3.1846   -0.3928 C   0  0  0  0  0  0  0  0  0  0  0  0
   -4.4857    1.9749   -0.7392 C   0  0  0  0  0  0  0  0  0  0  0  0
    1.8185   -1.4221   -0.3373 C   0  0  0  0  0  0  0  0  0  0  0  0
   -2.2643   -0.5469    1.3476 C   0  0  0  0  0  0  0  0  0  0  0  0
    2.0589    1.5271    1.9837 C   0  0  0  0  0  0  0  0  0  0  0  0
   -2.6844   -2.7120    0.3610 C   0  0  0  0  0  0  0  0  0  0  0  0
    2.9037    1.8326   -0.2590 C   0  0  0  0  0  0  0  0  0  0  0  0
    2.5733   -2.1297    0.5783 C   0  0  0  0  0  0  0  0  0  0  0  0
   -3.3531   -0.7246    2.2012 C   0  0  0  0  0  0  0  0  0  0  0  0
    3.2424    2.0533    2.5014 C   0  0  0  0  0  0  0  0  0  0  0  0
   -3.7733   -2.8895    1.2146 C   0  0  0  0  0  0  0  0  0  0  0  0
    4.0874    2.3588    0.2587 C   0  0  0  0  0  0  0  0  0  0  0  0
    3.7239   -2.7588    0.1160 C   0  0  0  0  0  0  0  0  0  0  0  0
    3.2440   -1.9231   -2.0586 C   0  0  0  0  0  0  0  0  0  0  0  0
   -4.1076   -1.8958    2.1346 C   0  0  0  0  0  0  0  0  0  0  0  0
    4.2566    2.4691    1.6388 C   0  0  0  0  0  0  0  0  0  0  0  0
    4.0728   -2.6585   -1.2263 C   0  0  0  0  0  0  0  0  0  0  0  0
  1  3  1  0
  1  9  1  0
  1 10  1  0
  2 15  2  0
  2 26  1  0
  3  7  1  0
  3  8  1  0
  4  5  1  0
  4  6  1  0
  4 15  1  0
  5  7  1  0
  5 11  1  0
  6  8  1  0
  6 12  1  0
  9 13  1  0
 10 14  1  0
 11 16  2  0
 11 18  1  0
 12 17  2  0
 12 19  1  0
 13 14  1  0
 15 20  1  0
 16 21  1  0
 17 22  1  0
 18 23  2  0
 19 24  2  0
 20 25  2  0
 21 27  2  0
 22 28  2  0
 23 27  1  0
 24 28  1  0
 25 29  1  0
 26 29  2  0
M  END
>  <PUBCHEM_COMPOUND_CID>  (1) 
31752

>  <PUBCHEM_CONFORMER_RMSD>  (1) 
0.8

>  <PUBCHEM_CONFORMER_DIVERSEORDER>  (1) 
1
15
2
9
16
5
6
17
12
11
14
10
8
4
13
3
7

>  <PUBCHEM_MMFF94_PARTIAL_CHARGES>  (1) 
39
1 -0.81
10 0.27
11 -0.14
12 -0.14
15 0.17
16 -0.15
17 -0.15
18 -0.15
19 -0.15
2 -0.62
20 -0.15
21 -0.15
22 -0.15
23 -0.15
24 -0.15
25 -0.15
26 0.16
27 -0.15
28 -0.15
29 -0.15
3 0.27
4 0.14
46 0.15
47 0.15
48 0.15
49 0.15
5 0.14
50 0.15
51 0.15
52 0.15
53 0.15
54 0.15
55 0.15
56 0.15
57 0.15
58 0.15
59 0.15
6 0.14
9 0.27

>  <PUBCHEM_EFFECTIVE_ROTOR_COUNT>  (1) 
6.2

>  <PUBCHEM_PHARMACOPHORE_FEATURES>  (1) 
7
1 1 cation
1 2 acceptor
5 1 9 10 13 14 rings
6 11 16 18 21 23 27 rings
6 12 17 19 22 24 28 rings
6 2 15 20 25 26 29 rings
6 3 4 5 6 7 8 rings

>  <PUBCHEM_HEAVY_ATOM_COUNT>  (1) 
29

>  <PUBCHEM_ATOM_DEF_STEREO_COUNT>  (1) 
0

>  <PUBCHEM_ATOM_UDEF_STEREO_COUNT>  (1) 
2

>  <PUBCHEM_BOND_DEF_STEREO_COUNT>  (1) 
0

>  <PUBCHEM_BOND_UDEF_STEREO_COUNT>  (1) 
0

>  <PUBCHEM_ISOTOPIC_ATOM_COUNT>  (1) 
0

>  <PUBCHEM_COMPONENT_COUNT>  (1) 
1

>  <PUBCHEM_CACTVS_TAUTO_COUNT>  (1) 
1

>  <PUBCHEM_CONFORMER_ID>  (1) 
00007C0800000001

>  <PUBCHEM_MMFF94_ENERGY>  (1) 
87.609

>  <PUBCHEM_FEATURE_SELFOVERLAP>  (1) 
35.524

>  <PUBCHEM_SHAPE_FINGERPRINT>  (1) 
10165383 225 17912100631156309208
10369192 42 18122914389407288932
11578080 2 18337122206127718760
11680986 33 18408881819613585596
12160290 23 17603580816750242839
12293681 4 18051700949019701057
12422481 6 18268407149841098730
12549972 3 18409448046600498451
12633257 1 17913520989641505491
12714826 92 18117861935196928006
12788726 201 17678466483264566433
12930653 34 18337101379947117668
12988421 55 17414415506211470568
13140716 1 18261948561792538658
13149001 5 18195238923871990636
133893 2 18058145333305684846
13540713 4 18409450288610447191
13583140 156 18059852925764938168
13965767 371 17981929390670826571
14020679 6 17908716029307623777
14081887 123 18261111919796782265
14223421 5 18410858801702674714
15219462 58 16414625120071255023
15295992 7 18268430144531667121
15420108 30 16969999636282854445
15775530 1 18410290311320374574
17913733 40 17988072417784994016
18915476 22 18131069355027029838
20600515 1 17836394569695179126
20691752 17 17896332474282526682
21344244 78 17829915448774268763
22182313 1 18335702766807358967
229495 10 18130787918778890827
23419403 2 18342750584632847316
23557571 272 18114181985816211963
23559900 14 18259989232029475348
25222932 49 16086726709335865986
3052486 1 17385726906404693754
3380486 145 18192715764273272363
376196 1 17401703879999243748
460360 51 18412548682634365896
469060 322 17910658093253911359
5081480 168 17631474309997518132
552612 73 18339377321772194568
56638632 33 16883833718527451714
613672 6 17825395339119077979
9709674 26 18409441484149140581
9981440 41 17625777838389847216

>  <PUBCHEM_SHAPE_MULTIPOLES>  (1) 
586.84
8.79
4.23
2.29
0.06
0.02
-0.59
0.43
-2.1
-0.43
-0.21
0.01
0.08
4.69

>  <PUBCHEM_SHAPE_SELFOVERLAP>  (1) 
1277.081

>  <PUBCHEM_SHAPE_VOLUME>  (1) 
314.9

>  <PUBCHEM_COORDINATE_TYPE>  (1) 
2
5
10

$$$$
