31757
     RDKit          3D

 16 18  0  0  0  0  0  0  0  0999 V2000
    2.6423    2.7685   -0.0006 Cl  0  0  0  0  0  0  0  0  0  0  0  0
    0.0324    1.3512    0.0002 N   0  0  0  0  0  0  0  0  0  0  0  0
   -0.5314   -2.8022   -0.0002 N   0  0  0  0  0  0  0  0  0  0  0  0
    0.9565   -0.8703   -0.0001 C   0  0  0  0  0  0  0  0  0  0  0  0
   -1.4507   -0.5433    0.0000 C   0  0  0  0  0  0  0  0  0  0  0  0
   -0.3403   -1.3937   -0.0001 C   0  0  0  0  0  0  0  0  0  0  0  0
    1.0984    0.5277    0.0001 C   0  0  0  0  0  0  0  0  0  0  0  0
   -1.2146    0.8417    0.0000 C   0  0  0  0  0  0  0  0  0  0  0  0
    2.0904   -1.7013    0.0000 C   0  0  0  0  0  0  0  0  0  0  0  0
   -2.7651   -1.0421    0.0000 C   0  0  0  0  0  0  0  0  0  0  0  0
    2.3871    1.0549    0.0002 C   0  0  0  0  0  0  0  0  0  0  0  0
   -2.3160    1.6935    0.0001 C   0  0  0  0  0  0  0  0  0  0  0  0
    3.3678   -1.1490    0.0001 C   0  0  0  0  0  0  0  0  0  0  0  0
   -3.8490   -0.1692    0.0000 C   0  0  0  0  0  0  0  0  0  0  0  0
    3.5160    0.2320    0.0002 C   0  0  0  0  0  0  0  0  0  0  0  0
   -3.6236    1.2015    0.0001 C   0  0  0  0  0  0  0  0  0  0  0  0
  1 11  1  0
  2  7  2  0
  2  8  1  0
  3  6  1  0
  4  6  2  0
  4  7  1  0
  4  9  1  0
  5  6  1  0
  5  8  2  0
  5 10  1  0
  7 11  1  0
  8 12  1  0
  9 13  2  0
 10 14  2  0
 11 15  2  0
 12 16  2  0
 13 15  1  0
 14 16  1  0
M  END
>  <PUBCHEM_COMPOUND_CID>  (1) 
31757

>  <PUBCHEM_CONFORMER_RMSD>  (1) 
0.4

>  <PUBCHEM_CONFORMER_DIVERSEORDER>  (1) 
1

>  <PUBCHEM_MMFF94_PARTIAL_CHARGES>  (1) 
23
1 -0.18
10 -0.15
11 0.18
12 -0.15
13 -0.15
14 -0.15
15 -0.15
16 -0.15
17 0.15
18 0.15
19 0.15
2 -0.62
20 0.15
21 0.15
22 0.15
23 0.15
24 0.4
25 0.4
3 -0.9
6 0.1
7 0.31
8 0.31
9 -0.15

>  <PUBCHEM_EFFECTIVE_ROTOR_COUNT>  (1) 
0

>  <PUBCHEM_PHARMACOPHORE_FEATURES>  (1) 
6
1 2 acceptor
1 3 cation
1 3 donor
6 2 4 5 6 7 8 rings
6 4 7 9 11 13 15 rings
6 5 8 10 12 14 16 rings

>  <PUBCHEM_HEAVY_ATOM_COUNT>  (1) 
16

>  <PUBCHEM_ATOM_DEF_STEREO_COUNT>  (1) 
0

>  <PUBCHEM_ATOM_UDEF_STEREO_COUNT>  (1) 
0

>  <PUBCHEM_BOND_DEF_STEREO_COUNT>  (1) 
0

>  <PUBCHEM_BOND_UDEF_STEREO_COUNT>  (1) 
0

>  <PUBCHEM_ISOTOPIC_ATOM_COUNT>  (1) 
0

>  <PUBCHEM_COMPONENT_COUNT>  (1) 
1

>  <PUBCHEM_CACTVS_TAUTO_COUNT>  (1) 
2

>  <PUBCHEM_CONFORMER_ID>  (1) 
00007C0D00000001

>  <PUBCHEM_MMFF94_ENERGY>  (1) 
66.2102

>  <PUBCHEM_FEATURE_SELFOVERLAP>  (1) 
30.507

>  <PUBCHEM_SHAPE_FINGERPRINT>  (1) 
10411042 1 16969704387662932807
10608611 8 18409164411371632661
10967382 1 18410574011069097380
11132069 177 18412256207919414491
11471102 20 18410569552761039092
12251169 10 18336538395992517792
12403259 226 18335697196055642236
13140716 1 18410295783203778921
13221675 6 18410292497337493262
13380535 76 18411980273540504654
13583140 156 16951104288140655625
13897977 150 18410290311320497933
14144814 61 18410292484420780608
14325111 11 18410573976693586721
15196674 1 18410856542465208135
15309172 13 18411708672941352179
15442244 35 18267304231570994248
15536298 74 18343019986799425728
15775835 57 18336270063093486836
16945 1 18338797947784335238
17804303 29 18337397045548391974
18186145 218 18343025453976444885
193761 8 18122344845950359623
200 152 18131057222219185525
20510252 161 18272371966478669401
20645477 70 18339919316949236255
21267235 1 18411146822204386639
21501502 16 18268143330694316814
22094290 62 18410009944571800728
221490 88 18336836363374840562
22854114 111 18409449193483561304
2334 1 18410856585546892805
23402539 116 18270951363238256046
23463225 33 18336546027711520238
23559900 14 18272088293227412210
2748010 2 18409168800864788245
335352 9 18050567339772929245
350125 39 18409735045074436917
474 4 17459475635705964068
5104073 3 18410293605433632441
528886 8 18339074900134213571
53812653 166 18341889675839857568
69090 78 18341608230928073735
7364860 26 18341895216696043156
74978 22 18411140259741914430
7832392 63 17980764831188481937
8809292 202 18260836985802237939
9709674 26 18412268362745960134
9981440 41 17759235589744986272

>  <PUBCHEM_SHAPE_MULTIPOLES>  (1) 
321.18
6.27
2.56
0.61
1.4
0.17
0
1.29
0
-1
0
-0.01
0.01
0

>  <PUBCHEM_SHAPE_SELFOVERLAP>  (1) 
718.981

>  <PUBCHEM_SHAPE_VOLUME>  (1) 
170.3

>  <PUBCHEM_COORDINATE_TYPE>  (1) 
2
5
10

$$$$
