31751
     RDKit          3D

 19 21  0  0  1  0  0  0  0  0999 V2000
    1.1226    0.9454   -1.7646 S   0  0  0  0  0  0  0  0  0  0  0  0
   -2.6179   -2.3517   -0.0589 N   0  0  0  0  0  0  0  0  0  0  0  0
   -1.1764   -0.3918   -0.1908 C   0  0  0  0  0  0  0  0  0  0  0  0
   -0.1108   -1.1429    0.6290 C   0  0  0  0  0  0  0  0  0  0  0  0
   -2.5706   -0.9421    0.1539 C   0  0  0  0  0  0  0  0  0  0  0  0
   -1.0295    1.1109    0.0020 C   0  0  0  0  0  0  0  0  0  0  0  0
    1.3727   -0.9617    0.3502 C   0  0  0  0  0  0  0  0  0  0  0  0
   -0.0014    1.7991   -0.6720 C   0  0  0  0  0  0  0  0  0  0  0  0
    1.9751   -0.1273   -0.6120 C   0  0  0  0  0  0  0  0  0  0  0  0
   -1.8644    1.8439    0.8623 C   0  0  0  0  0  0  0  0  0  0  0  0
    2.2194   -1.7420    1.1726 C   0  0  0  0  0  0  0  0  0  0  0  0
    0.1543    3.1829   -0.5079 C   0  0  0  0  0  0  0  0  0  0  0  0
   -2.3299   -2.7031   -1.4627 C   0  0  0  0  0  0  0  0  0  0  0  0
   -3.9263   -2.9187    0.3197 C   0  0  0  0  0  0  0  0  0  0  0  0
    3.3805   -0.1112   -0.7301 C   0  0  0  0  0  0  0  0  0  0  0  0
   -1.6998    3.2210    1.0269 C   0  0  0  0  0  0  0  0  0  0  0  0
   -0.6940    3.8905    0.3397 C   0  0  0  0  0  0  0  0  0  0  0  0
    3.6073   -1.7091    1.0493 C   0  0  0  0  0  0  0  0  0  0  0  0
    4.1891   -0.8922    0.0935 C   0  0  0  0  0  0  0  0  0  0  0  0
  1  8  1  0
  1  9  1  0
  2  5  1  0
  2 13  1  0
  2 14  1  0
  3  4  1  0
  3  5  1  0
  3  6  1  0
  4  7  1  0
  6  8  2  0
  6 10  1  0
  7  9  2  0
  7 11  1  0
  8 12  1  0
  9 15  1  0
 10 16  2  0
 11 18  2  0
 12 17  2  0
 15 19  2  0
 16 17  1  0
 18 19  1  0
M  END
>  <PUBCHEM_COMPOUND_CID>  (1) 
31751

>  <PUBCHEM_CONFORMER_RMSD>  (1) 
0.6

>  <PUBCHEM_CONFORMER_DIVERSEORDER>  (1) 
1
11
8
10
9
5
6
4
2
3
7

>  <PUBCHEM_MMFF94_PARTIAL_CHARGES>  (1) 
27
1 -0.2
10 -0.15
11 -0.15
12 -0.15
13 0.27
14 0.27
15 -0.15
16 -0.15
17 -0.15
18 -0.15
19 -0.15
2 -0.81
25 0.15
26 0.15
27 0.15
3 0.14
34 0.15
35 0.15
36 0.15
37 0.15
38 0.15
4 0.14
5 0.27
6 -0.14
7 -0.14
8 0.1
9 0.1

>  <PUBCHEM_EFFECTIVE_ROTOR_COUNT>  (1) 
2.6

>  <PUBCHEM_PHARMACOPHORE_FEATURES>  (1) 
4
1 2 cation
6 6 8 10 12 16 17 rings
6 7 9 11 15 18 19 rings
7 1 3 4 6 7 8 9 rings

>  <PUBCHEM_HEAVY_ATOM_COUNT>  (1) 
19

>  <PUBCHEM_ATOM_DEF_STEREO_COUNT>  (1) 
0

>  <PUBCHEM_ATOM_UDEF_STEREO_COUNT>  (1) 
1

>  <PUBCHEM_BOND_DEF_STEREO_COUNT>  (1) 
0

>  <PUBCHEM_BOND_UDEF_STEREO_COUNT>  (1) 
0

>  <PUBCHEM_ISOTOPIC_ATOM_COUNT>  (1) 
0

>  <PUBCHEM_COMPONENT_COUNT>  (1) 
1

>  <PUBCHEM_CACTVS_TAUTO_COUNT>  (1) 
1

>  <PUBCHEM_CONFORMER_ID>  (1) 
00007C0700000001

>  <PUBCHEM_MMFF94_ENERGY>  (1) 
69.2257

>  <PUBCHEM_FEATURE_SELFOVERLAP>  (1) 
20.311

>  <PUBCHEM_SHAPE_FINGERPRINT>  (1) 
1100329 8 18409737257425550393
11265709 11 18339364166281871287
11578080 2 18042386071309348197
12173636 292 17836637535679069760
12553582 1 18340205309757327607
12788726 201 18337967734938097407
12839892 36 17832997048843725945
13004483 165 18339907269154780379
13009979 54 18260547793070100186
13134695 92 18194951066458184663
13140716 1 18410854364948535305
13149001 5 17977060761709568149
13583140 156 17416094250172208450
14081887 123 18339906165706492128
14178342 30 18192135007111505994
14617773 55 18261115145174653862
14787075 74 18048318048700556532
15042514 8 18338241449125214659
15309172 13 17616250282530432408
15375462 189 18189910870960270547
15906896 17 18054776304622721151
16945 1 18121220879121795652
17980427 26 17263558207244212085
1813 80 18129389361352952847
20510252 161 17911800176149639441
20600515 1 18060147569575276977
20905425 154 18199757014630048500
21041028 32 18338244880951712307
21421861 104 18121504815262629289
21452121 199 18125994099468323243
21524375 3 17832423094502999464
21731228 192 17690841159821902120
22112679 90 18268448947618764767
23388829 49 18261399961567277612
23402539 116 18199452286963550573
23419403 2 16889701030490040092
23557571 272 18341889675987790734
23598288 3 18190202138467398491
257057 1 18338513148508433261
266924 78 16446764948625341909
3071541 250 18194406821161098967
3091708 16 9279081551013856153
5845 1 12428230024356103587
6438718 38 18269569259699542819
6442390 28 17767136302007296201
6992083 37 17898574172554112302
7097593 13 17755576049943722930
7364860 26 17835521896454053743
7471813 234 18268141140124060423
81228 2 18341040814314081739
84936 182 17476083900487282993

>  <PUBCHEM_SHAPE_MULTIPOLES>  (1) 
389.88
5.7
4.55
1.28
3.74
2.44
-0.3
-5.14
0.88
-4.96
0.36
0.25
-0.04
-1.55

>  <PUBCHEM_SHAPE_SELFOVERLAP>  (1) 
820.905

>  <PUBCHEM_SHAPE_VOLUME>  (1) 
219.5

>  <PUBCHEM_COORDINATE_TYPE>  (1) 
2
5
10

$$$$
