31753
     RDKit          3D

 25 28  0  0  1  0  0  0  0  0999 V2000
    2.8023    2.6323    0.3939 S   0  0  0  0  0  0  0  0  0  0  0  0
    2.7818   -3.7234    0.0540 S   0  0  0  0  0  0  0  0  0  0  0  0
    4.1620   -4.1614    0.4576 O   0  0  0  0  0  0  0  0  0  0  0  0
   -3.7897   -0.4314    0.7781 N   0  0  0  0  0  0  0  0  0  0  0  0
    0.2543    0.8519    0.4361 N   0  0  0  0  0  0  0  0  0  0  0  0
   -2.8501   -1.3436    0.1140 C   0  0  0  0  0  0  0  0  0  0  0  0
   -3.5095   -2.0174   -1.0972 C   0  0  0  0  0  0  0  0  0  0  0  0
   -1.6128   -0.5586   -0.3177 C   0  0  0  0  0  0  0  0  0  0  0  0
   -4.7935   -2.7392   -0.6975 C   0  0  0  0  0  0  0  0  0  0  0  0
   -5.7203   -1.7998    0.0666 C   0  0  0  0  0  0  0  0  0  0  0  0
   -4.9927   -1.1308    1.2301 C   0  0  0  0  0  0  0  0  0  0  0  0
   -0.9186    0.0869    0.8789 C   0  0  0  0  0  0  0  0  0  0  0  0
    1.4873    0.1586    0.3387 C   0  0  0  0  0  0  0  0  0  0  0  0
    0.0510    2.2078    0.0746 C   0  0  0  0  0  0  0  0  0  0  0  0
    2.7104    0.8562    0.2868 C   0  0  0  0  0  0  0  0  0  0  0  0
    1.1319    3.1084   -0.0031 C   0  0  0  0  0  0  0  0  0  0  0  0
    1.5486   -1.2496    0.2528 C   0  0  0  0  0  0  0  0  0  0  0  0
   -1.2265    2.7098   -0.2574 C   0  0  0  0  0  0  0  0  0  0  0  0
    3.9299    0.1639    0.1816 C   0  0  0  0  0  0  0  0  0  0  0  0
    2.7632   -1.9323    0.1433 C   0  0  0  0  0  0  0  0  0  0  0  0
    0.9257    4.4503   -0.3698 C   0  0  0  0  0  0  0  0  0  0  0  0
    3.9553   -1.2250    0.1107 C   0  0  0  0  0  0  0  0  0  0  0  0
   -1.4249    4.0431   -0.6260 C   0  0  0  0  0  0  0  0  0  0  0  0
   -0.3481    4.9150   -0.6792 C   0  0  0  0  0  0  0  0  0  0  0  0
    2.6830   -3.8719   -1.7497 C   0  0  0  0  0  0  0  0  0  0  0  0
  1 15  1  0
  1 16  1  0
  2  3  2  0
  2 20  1  0
  2 25  1  0
  4  6  1  0
  4 11  1  0
  5 12  1  0
  5 13  1  0
  5 14  1  0
  6  7  1  0
  6  8  1  0
  7  9  1  0
  8 12  1  0
  9 10  1  0
 10 11  1  0
 13 15  2  0
 13 17  1  0
 14 16  2  0
 14 18  1  0
 15 19  1  0
 16 21  1  0
 17 20  2  0
 18 23  2  0
 19 22  2  0
 20 22  1  0
 21 24  2  0
 23 24  1  0
M  END
>  <PUBCHEM_COMPOUND_CID>  (1) 
31753

>  <PUBCHEM_CONFORMER_RMSD>  (1) 
0.8

>  <PUBCHEM_CONFORMER_DIVERSEORDER>  (1) 
2
92
30
32
65
62
72
20
88
60
51
56
57
49
39
28
85
9
58
48
84
91
19
5
74
63
54
64
31
36
15
71
12
21
26
35
55
33
25
24
86
4
50
81
14
70
78
69
29
22
68
17
61
13
46
6
38
83
7
47
10
66
77
18
90
89
3
75
34
43
59
16
1
42
40
53
76
23
82
44
52
41
27
11
73
67
80
8
79
87
37
45

>  <PUBCHEM_MMFF94_PARTIAL_CHARGES>  (1) 
29
1 -0.2
11 0.27
12 0.37
13 0.1
14 0.1
15 0.1
16 0.1
17 -0.15
18 -0.15
19 -0.15
2 0.24
20 0.06
21 -0.15
22 -0.15
23 -0.15
24 -0.15
25 0.19
3 -0.5
35 0.36
4 -0.9
40 0.15
41 0.15
42 0.15
43 0.15
44 0.15
45 0.15
46 0.15
5 -0.57
6 0.27

>  <PUBCHEM_EFFECTIVE_ROTOR_COUNT>  (1) 
5.6

>  <PUBCHEM_PHARMACOPHORE_FEATURES>  (1) 
8
1 3 acceptor
1 4 cation
1 4 donor
1 5 cation
6 1 5 13 14 15 16 rings
6 13 15 17 19 20 22 rings
6 14 16 18 21 23 24 rings
6 4 6 7 9 10 11 rings

>  <PUBCHEM_HEAVY_ATOM_COUNT>  (1) 
25

>  <PUBCHEM_ATOM_DEF_STEREO_COUNT>  (1) 
0

>  <PUBCHEM_ATOM_UDEF_STEREO_COUNT>  (1) 
2

>  <PUBCHEM_BOND_DEF_STEREO_COUNT>  (1) 
0

>  <PUBCHEM_BOND_UDEF_STEREO_COUNT>  (1) 
0

>  <PUBCHEM_ISOTOPIC_ATOM_COUNT>  (1) 
0

>  <PUBCHEM_COMPONENT_COUNT>  (1) 
1

>  <PUBCHEM_CACTVS_TAUTO_COUNT>  (1) 
1

>  <PUBCHEM_CONFORMER_ID>  (1) 
00007C0900000002

>  <PUBCHEM_MMFF94_ENERGY>  (1) 
65.9738

>  <PUBCHEM_FEATURE_SELFOVERLAP>  (1) 
40.627

>  <PUBCHEM_SHAPE_FINGERPRINT>  (1) 
10411042 1 18409164402997826658
10693767 8 18056772142082425132
12107183 9 18270692952868752731
12553582 1 18410569608706766834
12788726 201 18188491250908646482
13004483 165 18339354154855756627
13009979 54 17987534743761647489
13140716 1 18124308578519008954
1361 2 18122623026697820874
13690498 29 18052278206016211854
13785724 45 18269292196292931743
138480 1 14591517760335609961
13911987 19 17971773304854882644
14251757 5 17547586881198783318
14844126 61 17831855751025524714
14863182 85 18192150614937971004
15042514 8 18120938295917097601
15250474 111 17914608604479734671
15420108 30 17402598049425175400
15484559 13 18123193669343981646
15664445 248 18269293398508689740
16719943 64 16752965339221644174
16728300 4 17536548016822068272
1813 80 18341344331084275447
18681886 176 17835795670607410576
19591789 44 17545598950821538936
20028762 73 17983013650204829486
20645477 70 18046054128378073635
20739085 24 18268146629197545128
20775438 99 17762567985907961101
21344244 181 17692238652561077845
21478907 32 18337670802416104731
21641784 216 17968392194724879636
22033318 11 17982488999598322993
2255824 54 18123189271096730443
22849339 104 17404600882848170414
23558518 356 18044662992766002954
23559900 14 18193832880718748419
3084891 72 16898203141880707416
3380486 145 18194418705473102104
3383291 50 16897360911252317266
3421961 26 18411417349414818715
38695281 34 17761493994616868389
4144715 1 18115599270381528595
4409770 3 17831580869113113373
46194498 28 17972582558366223975
474 4 17905324388133399529
5309563 4 18410853282675078254
59025328 239 17840826872728578599
6443956 14 18335700615039585413
70251023 43 18335704914307019938
7164475 11 18263647281893596862
7399639 24 18270384058599291032
8272917 22 18122345950247688645
9709674 26 17908134387793062804

>  <PUBCHEM_SHAPE_MULTIPOLES>  (1) 
506.36
9.16
7.13
1
13.24
3.75
0.17
-10.35
-0.92
-5.54
2.36
0.34
-0.49
0.17

>  <PUBCHEM_SHAPE_SELFOVERLAP>  (1) 
1053.741

>  <PUBCHEM_SHAPE_VOLUME>  (1) 
288

>  <PUBCHEM_COORDINATE_TYPE>  (1) 
2
5
10

$$$$
