3175
     RDKit          3D

 37 41  0  0  1  0  0  0  0  0999 V2000
    4.3820   -2.4971    0.1712 O   0  0  0  0  0  0  0  0  0  0  0  0
    4.3182    3.3406    0.3279 O   0  0  0  0  0  0  0  0  0  0  0  0
    8.1388   -0.3561   -0.4457 O   0  0  0  0  0  0  0  0  0  0  0  0
   -0.6053    2.8765    0.0477 O   0  0  0  0  0  0  0  0  0  0  0  0
    6.6656   -1.6750   -1.6403 O   0  0  0  0  0  0  0  0  0  0  0  0
   -5.3419   -0.1766    2.3100 O   0  0  0  0  0  0  0  0  0  0  0  0
   -7.5732   -0.8694    0.8235 O   0  0  0  0  0  0  0  0  0  0  0  0
   -7.5493   -0.6401   -1.9233 O   0  0  0  0  0  0  0  0  0  0  0  0
    0.1904    0.7042   -0.1565 N   0  0  0  0  0  0  0  0  0  0  0  0
    5.7028    0.7694    0.4039 N   0  0  0  0  0  0  0  0  0  0  0  0
   -2.9801    0.8148    0.7355 N   0  0  0  0  0  0  0  0  0  0  0  0
    1.3213   -1.4445    0.0262 C   0  0  0  0  0  0  0  0  0  0  0  0
    2.2574   -0.2786    0.0772 C   0  0  0  0  0  0  0  0  0  0  0  0
    0.0039   -0.7515   -0.3702 C   0  0  0  0  0  0  0  0  0  0  0  0
    3.6252   -0.2480    0.2047 C   0  0  0  0  0  0  0  0  0  0  0  0
    1.5730    0.9395    0.0195 C   0  0  0  0  0  0  0  0  0  0  0  0
    5.9956   -0.6599    0.4347 C   0  0  0  0  0  0  0  0  0  0  0  0
    4.3292    0.9493    0.3026 C   0  0  0  0  0  0  0  0  0  0  0  0
    4.6236   -1.3083    0.2631 C   0  0  0  0  0  0  0  0  0  0  0  0
    1.1974   -2.1417    1.3779 C   0  0  0  0  0  0  0  0  0  0  0  0
    2.2523    2.1579    0.1096 C   0  0  0  0  0  0  0  0  0  0  0  0
    3.6482    2.1590    0.2510 C   0  0  0  0  0  0  0  0  0  0  0  0
   -0.8127    1.6777   -0.1340 C   0  0  0  0  0  0  0  0  0  0  0  0
    6.6126   -1.0469    1.7705 C   0  0  0  0  0  0  0  0  0  0  0  0
    6.9447   -0.9715   -0.6788 C   0  0  0  0  0  0  0  0  0  0  0  0
   -2.1801    1.1912   -0.3046 C   0  0  0  0  0  0  0  0  0  0  0  0
   -2.8813    1.0278   -1.4716 C   0  0  0  0  0  0  0  0  0  0  0  0
   -4.2056    0.4050    0.2604 C   0  0  0  0  0  0  0  0  0  0  0  0
   -4.1699    0.5298   -1.1301 C   0  0  0  0  0  0  0  0  0  0  0  0
   -5.3313   -0.0617    0.9481 C   0  0  0  0  0  0  0  0  0  0  0  0
   -5.3127    0.1721   -1.8728 C   0  0  0  0  0  0  0  0  0  0  0  0
    9.1459   -0.5716   -1.4394 C   0  0  0  0  0  0  0  0  0  0  0  0
   -6.4531   -0.4107    0.1905 C   0  0  0  0  0  0  0  0  0  0  0  0
   -6.4461   -0.2961   -1.1983 C   0  0  0  0  0  0  0  0  0  0  0  0
   -4.9128   -1.4208    2.8543 C   0  0  0  0  0  0  0  0  0  0  0  0
   -8.5349    0.1045    1.2183 C   0  0  0  0  0  0  0  0  0  0  0  0
   -7.6378   -1.9931   -2.3627 C   0  0  0  0  0  0  0  0  0  0  0  0
  1 19  2  0
  2 22  1  0
  3 25  1  0
  3 32  1  0
  4 23  2  0
  5 25  2  0
  6 30  1  0
  6 35  1  0
  7 33  1  0
  7 36  1  0
  8 34  1  0
  8 37  1  0
  9 14  1  0
  9 16  1  0
  9 23  1  0
 10 17  1  0
 10 18  1  0
 11 26  1  0
 11 28  1  0
 12 13  1  0
 12 14  1  0
 12 20  1  0
 13 15  2  0
 13 16  1  0
 15 18  1  0
 15 19  1  0
 16 21  2  0
 17 19  1  0
 17 24  1  0
 17 25  1  0
 18 22  2  0
 21 22  1  0
 23 26  1  0
 26 27  2  0
 27 29  1  0
 28 29  2  0
 28 30  1  0
 29 31  1  0
 30 33  2  0
 31 34  2  0
 33 34  1  0
M  END
>  <PUBCHEM_COMPOUND_CID>  (1) 
3175

>  <PUBCHEM_CONFORMER_RMSD>  (1) 
1

>  <PUBCHEM_CONFORMER_DIVERSEORDER>  (1) 
5
61
69
48
56
67
42
51
28
34
1
54
7
12
11
38
29
62
39
10
22
65
16
58
44
47
60
8
33
9
32
20
21
2
35
68
71
49
23
27
15
41
43
59
14
25
37
63
26
57
13
66
31
18
24
52
50
30
64
19
40
4
53
55
36
45
46
70
3
6
17

>  <PUBCHEM_MMFF94_PARTIAL_CHARGES>  (1) 
40
1 -0.57
10 -0.87
11 0.03
12 0.14
13 -0.14
14 0.3
15 0.09
16 0.12
17 0.49
18 0.1
19 0.42
2 -0.53
21 -0.15
22 0.08
23 0.71
25 0.66
26 -0.24
27 -0.15
28 -0.15
3 -0.43
30 0.08
31 -0.15
32 0.28
33 0.08
34 0.08
35 0.28
36 0.28
37 0.28
4 -0.57
41 0.4
45 0.15
49 0.45
5 -0.57
50 0.27
51 0.15
52 0.15
6 -0.36
7 -0.36
8 -0.36
9 -0.48

>  <PUBCHEM_EFFECTIVE_ROTOR_COUNT>  (1) 
8

>  <PUBCHEM_PHARMACOPHORE_FEATURES>  (1) 
16
1 1 acceptor
1 10 cation
1 10 donor
1 11 cation
1 11 donor
1 2 donor
1 4 acceptor
1 5 acceptor
1 6 acceptor
1 7 acceptor
1 8 acceptor
5 10 15 17 18 19 rings
5 11 26 27 28 29 rings
5 9 12 13 14 16 rings
6 13 15 16 18 21 22 rings
6 28 29 30 31 33 34 rings

>  <PUBCHEM_HEAVY_ATOM_COUNT>  (1) 
37

>  <PUBCHEM_ATOM_DEF_STEREO_COUNT>  (1) 
0

>  <PUBCHEM_ATOM_UDEF_STEREO_COUNT>  (1) 
2

>  <PUBCHEM_BOND_DEF_STEREO_COUNT>  (1) 
0

>  <PUBCHEM_BOND_UDEF_STEREO_COUNT>  (1) 
0

>  <PUBCHEM_ISOTOPIC_ATOM_COUNT>  (1) 
0

>  <PUBCHEM_COMPONENT_COUNT>  (1) 
1

>  <PUBCHEM_CACTVS_TAUTO_COUNT>  (1) 
28

>  <PUBCHEM_CONFORMER_ID>  (1) 
00000C6700000005

>  <PUBCHEM_MMFF94_ENERGY>  (1) 
148.9565

>  <PUBCHEM_FEATURE_SELFOVERLAP>  (1) 
81.472

>  <PUBCHEM_SHAPE_FINGERPRINT>  (1) 
10299344 5 17489587861370171655
11135926 11 18411412900525383183
11315181 36 16515406249057586293
12082328 90 13045942400524663601
12166972 35 17846778499537670288
12236239 1 17775566477217699301
13673619 4 18408601452765395700
13782708 43 18114175315679091264
13811026 1 18260540130405345209
14040222 275 18271825531170497004
14849402 71 16987987427486003552
14856354 85 16774075189728282141
150020 25 17748543749117169133
15064986 266 18113339700624410117
15142383 8 13254795733305035418
15183329 4 18342735213272475422
15320294 125 17274528937161558637
15419008 47 17749383767612056589
16067689 68 16772680888578205670
16728433 281 16445011030912865005
18608769 82 18114189661519077058
20028762 73 18201714046669765006
20105231 36 18342463621226685198
21150785 3 16081092580153337332
21267235 1 18413392021122836460
21315759 40 17418094329956390655
21792961 116 18188214205003371730
23522609 53 17773053032239185657
23559900 14 17240198837872458061
23569917 315 17917713538800017935
23569943 247 17628927729404720918
23576562 1 17677338341363450350
3178227 256 18409167705917218298
335352 9 18410574003470712582
4073 2 17750235811839687283
44802255 64 14707196709834721979
44880568 143 16805599227062195973
484989 97 18188217610126330962
50009960 94 17609199166497927410
504579 68 13984379989493422033
504843 32 8934706804404152625
54039377 194 18202566164044073052
58083652 198 18341885316976274369
59755656 215 18113614569133914586
9962374 69 18272643589396339564

>  <PUBCHEM_SHAPE_MULTIPOLES>  (1) 
699.55
26.41
2.29
1.84
2.38
0.9
0
-10.33
5.66
-2.2
-0.35
3.47
-0.96
0.59

>  <PUBCHEM_SHAPE_SELFOVERLAP>  (1) 
1553.725

>  <PUBCHEM_SHAPE_VOLUME>  (1) 
380.7

>  <PUBCHEM_COORDINATE_TYPE>  (1) 
2
5
10

$$$$
