31756
     RDKit          3D

 16 18  0  0  0  0  0  0  0  0999 V2000
    4.9090   -0.8489    0.0006 Cl  0  0  0  0  0  0  0  0  0  0  0  0
   -0.4452    1.6019   -0.0002 N   0  0  0  0  0  0  0  0  0  0  0  0
   -0.1269   -2.5775   -0.0015 N   0  0  0  0  0  0  0  0  0  0  0  0
    0.9240   -0.3765    0.0001 C   0  0  0  0  0  0  0  0  0  0  0  0
   -1.4982   -0.5613    0.0002 C   0  0  0  0  0  0  0  0  0  0  0  0
   -0.2343   -1.1601    0.0003 C   0  0  0  0  0  0  0  0  0  0  0  0
    0.7697    1.0202   -0.0002 C   0  0  0  0  0  0  0  0  0  0  0  0
   -1.5577    0.8425   -0.0001 C   0  0  0  0  0  0  0  0  0  0  0  0
    2.2069   -0.9514    0.0003 C   0  0  0  0  0  0  0  0  0  0  0  0
   -2.6789   -1.3245    0.0005 C   0  0  0  0  0  0  0  0  0  0  0  0
    1.9193    1.8058   -0.0003 C   0  0  0  0  0  0  0  0  0  0  0  0
   -2.8132    1.4445   -0.0002 C   0  0  0  0  0  0  0  0  0  0  0  0
    3.3402   -0.1436    0.0001 C   0  0  0  0  0  0  0  0  0  0  0  0
    3.1956    1.2378   -0.0002 C   0  0  0  0  0  0  0  0  0  0  0  0
   -3.9217   -0.6982    0.0004 C   0  0  0  0  0  0  0  0  0  0  0  0
   -3.9886    0.6893    0.0001 C   0  0  0  0  0  0  0  0  0  0  0  0
  1 13  1  0
  2  7  2  0
  2  8  1  0
  3  6  1  0
  4  6  2  0
  4  7  1  0
  4  9  1  0
  5  6  1  0
  5  8  2  0
  5 10  1  0
  7 11  1  0
  8 12  1  0
  9 13  2  0
 10 15  2  0
 11 14  2  0
 12 16  2  0
 13 14  1  0
 15 16  1  0
M  END
>  <PUBCHEM_COMPOUND_CID>  (1) 
31756

>  <PUBCHEM_CONFORMER_RMSD>  (1) 
0.4

>  <PUBCHEM_CONFORMER_DIVERSEORDER>  (1) 
1

>  <PUBCHEM_MMFF94_PARTIAL_CHARGES>  (1) 
23
1 -0.18
10 -0.15
11 -0.15
12 -0.15
13 0.18
14 -0.15
15 -0.15
16 -0.15
17 0.15
18 0.15
19 0.15
2 -0.62
20 0.15
21 0.15
22 0.15
23 0.15
24 0.4
25 0.4
3 -0.9
6 0.1
7 0.31
8 0.31
9 -0.15

>  <PUBCHEM_EFFECTIVE_ROTOR_COUNT>  (1) 
0

>  <PUBCHEM_PHARMACOPHORE_FEATURES>  (1) 
6
1 2 acceptor
1 3 cation
1 3 donor
6 2 4 5 6 7 8 rings
6 4 7 9 11 13 14 rings
6 5 8 10 12 15 16 rings

>  <PUBCHEM_HEAVY_ATOM_COUNT>  (1) 
16

>  <PUBCHEM_ATOM_DEF_STEREO_COUNT>  (1) 
0

>  <PUBCHEM_ATOM_UDEF_STEREO_COUNT>  (1) 
0

>  <PUBCHEM_BOND_DEF_STEREO_COUNT>  (1) 
0

>  <PUBCHEM_BOND_UDEF_STEREO_COUNT>  (1) 
0

>  <PUBCHEM_ISOTOPIC_ATOM_COUNT>  (1) 
0

>  <PUBCHEM_COMPONENT_COUNT>  (1) 
1

>  <PUBCHEM_CACTVS_TAUTO_COUNT>  (1) 
2

>  <PUBCHEM_CONFORMER_ID>  (1) 
00007C0C00000001

>  <PUBCHEM_MMFF94_ENERGY>  (1) 
65.4794

>  <PUBCHEM_FEATURE_SELFOVERLAP>  (1) 
30.507

>  <PUBCHEM_SHAPE_FINGERPRINT>  (1) 
10062212 137 18411973655022268743
10608611 8 18411133671009329505
10967382 1 18410573959402785351
11132069 177 18412538816735855752
11471102 20 18410569604342987564
12032990 46 18410015459030169001
12403259 226 18411412951421360177
12715332 25 18131349730286728886
13140716 1 18411143549639631145
13221675 6 18410009939981401834
13288520 33 18412547574791402774
13380535 76 18411419505372453935
13675066 3 18201715171945336754
13690532 89 18409729543489829922
13862211 1 18410849949817535502
14115302 16 18041009461666334542
14144814 61 18410292527386388257
14325111 11 18410856589789216513
15196674 1 18410856594004893636
15309172 13 18411990160729144171
15442244 35 18410574002700663424
15536298 74 18342455976068359560
16945 1 18266740169210643041
17802600 8 18410569591400115245
17804303 29 18411703188178424684
18186145 218 18335697239015630877
18522853 276 18342174466673842920
193761 8 17690280408838897637
19591789 44 18410293644062522083
200 152 17988918977129183869
20510252 161 18272653462877592457
20645476 183 17824561865779998510
21267235 1 18410582789929691291
21501502 16 18267584787382551036
221490 88 18263651821463097234
23175994 123 17275108314768774144
2334 1 18338517546670943269
23402539 116 18272079492000743942
23402655 69 18341607088735922029
23463225 33 18407759235458327532
23559900 14 18343863334246751920
2748010 2 18410011065484509509
3004659 81 18189061915683913638
335352 9 18338516339600348317
43471831 8 18263078825534334522
474 4 16879639408654556748
5104073 3 18411138069050254992
528886 8 18411414007829795177
53812653 166 18413386527326570720
54173680 148 18120657087160092691
69090 78 18343016726602886495
7364860 26 18196935470066294167
8809292 202 18261397779492101115
9709674 26 18339646762340180158
9981440 41 17325488203847614064

>  <PUBCHEM_SHAPE_MULTIPOLES>  (1) 
321.18
7.59
2.01
0.61
2.18
0.23
0
0.44
0
-0.02
0
0.02
0
0

>  <PUBCHEM_SHAPE_SELFOVERLAP>  (1) 
718.331

>  <PUBCHEM_SHAPE_VOLUME>  (1) 
171.6

>  <PUBCHEM_COORDINATE_TYPE>  (1) 
2
5
10

$$$$
