31762
     RDKit          3D

 20 23  0  0  1  0  0  0  0  0999 V2000
    3.5106   -0.7980   -1.4156 O   0  0  0  0  0  0  0  0  0  0  0  0
   -3.1603   -1.7482   -0.1093 O   0  0  0  0  0  0  0  0  0  0  0  0
   -2.1347   -3.1083    1.3623 O   0  0  0  0  0  0  0  0  0  0  0  0
   -0.0577    2.2412   -0.1784 N   0  0  0  0  0  0  0  0  0  0  0  0
    0.3445    0.8130   -0.0454 C   0  0  0  0  0  0  0  0  0  0  0  0
    0.8306    0.8190    1.3844 C   0  0  0  0  0  0  0  0  0  0  0  0
    1.5278    0.5172   -1.0004 C   0  0  0  0  0  0  0  0  0  0  0  0
   -0.8336   -0.1544   -0.2757 C   0  0  0  0  0  0  0  0  0  0  0  0
   -0.6738    2.6299    1.1018 C   0  0  0  0  0  0  0  0  0  0  0  0
    0.0491    1.8184    2.1785 C   0  0  0  0  0  0  0  0  0  0  0  0
   -0.8916    2.5082   -1.3453 C   0  0  0  0  0  0  0  0  0  0  0  0
    2.3843   -0.6747   -0.5476 C   0  0  0  0  0  0  0  0  0  0  0  0
   -1.9584    0.2471   -0.8956 C   0  0  0  0  0  0  0  0  0  0  0  0
   -2.1514    1.6437   -1.4195 C   0  0  0  0  0  0  0  0  0  0  0  0
    2.8699   -0.5453    0.9033 C   0  0  0  0  0  0  0  0  0  0  0  0
    1.9563    0.2261    1.8082 C   0  0  0  0  0  0  0  0  0  0  0  0
   -0.7378   -1.5902    0.1508 C   0  0  0  0  0  0  0  0  0  0  0  0
   -3.0967   -0.7013   -1.0981 C   0  0  0  0  0  0  0  0  0  0  0  0
   -2.0630   -2.2011    0.5365 C   0  0  0  0  0  0  0  0  0  0  0  0
    4.2859   -1.9422   -1.0947 C   0  0  0  0  0  0  0  0  0  0  0  0
  1 12  1  0
  1 20  1  0
  2 18  1  0
  2 19  1  0
  3 19  2  0
  4  5  1  0
  4  9  1  0
  4 11  1  0
  5  6  1  0
  5  7  1  0
  5  8  1  0
  6 10  1  0
  6 16  2  0
  7 12  1  0
  8 13  2  0
  8 17  1  0
  9 10  1  0
 11 14  1  0
 12 15  1  0
 13 14  1  0
 13 18  1  0
 15 16  1  0
 17 19  1  0
M  END
>  <PUBCHEM_COMPOUND_CID>  (1) 
31762

>  <PUBCHEM_CONFORMER_RMSD>  (1) 
0.6

>  <PUBCHEM_CONFORMER_DIVERSEORDER>  (1) 
1
2
3

>  <PUBCHEM_MMFF94_PARTIAL_CHARGES>  (1) 
20
1 -0.56
10 0.14
11 0.27
12 0.28
13 -0.28
14 0.14
15 0.14
16 -0.29
17 0.2
18 0.42
19 0.66
2 -0.43
20 0.28
3 -0.57
34 0.15
4 -0.81
5 0.55
6 -0.28
8 -0.28
9 0.27

>  <PUBCHEM_EFFECTIVE_ROTOR_COUNT>  (1) 
3

>  <PUBCHEM_PHARMACOPHORE_FEATURES>  (1) 
7
1 1 acceptor
1 3 acceptor
1 4 cation
5 4 5 6 9 10 rings
6 2 8 13 17 18 19 rings
6 4 5 8 11 13 14 rings
6 5 6 7 12 15 16 rings

>  <PUBCHEM_HEAVY_ATOM_COUNT>  (1) 
20

>  <PUBCHEM_ATOM_DEF_STEREO_COUNT>  (1) 
2

>  <PUBCHEM_ATOM_UDEF_STEREO_COUNT>  (1) 
0

>  <PUBCHEM_BOND_DEF_STEREO_COUNT>  (1) 
0

>  <PUBCHEM_BOND_UDEF_STEREO_COUNT>  (1) 
0

>  <PUBCHEM_ISOTOPIC_ATOM_COUNT>  (1) 
0

>  <PUBCHEM_COMPONENT_COUNT>  (1) 
1

>  <PUBCHEM_CACTVS_TAUTO_COUNT>  (1) 
1

>  <PUBCHEM_CONFORMER_ID>  (1) 
00007C1200000001

>  <PUBCHEM_MMFF94_ENERGY>  (1) 
46.2325

>  <PUBCHEM_FEATURE_SELFOVERLAP>  (1) 
35.863

>  <PUBCHEM_SHAPE_FINGERPRINT>  (1) 
10948715 1 10737278065210389365
11140007 195 18199485409862483931
11315181 36 17914614944241457406
11582403 64 15606987486756880952
12423570 1 16452607401333772924
12592029 89 17251747854043089485
12714826 92 18260833704373299099
12716301 132 17973408132394996449
14022347 108 18041264561306739971
14251740 79 18123197796802667710
14817 1 15292176365331662184
15375462 175 18041821949066568403
15415430 2 18338792325682882751
15664445 248 15434250100261077479
16752209 62 18042388167463767431
16945 1 18187634774147040741
20600515 1 18189875630458207560
20645476 183 17751075808331573934
22721475 48 18267011928939532267
23419403 2 17988630913477767760
23526113 38 18057579062835985584
23557571 272 18409720781888720296
23558518 356 17987233327225706488
23559900 14 18269261375849838410
2748010 2 17901367211398863095
298252 57 17461438014399792772
394222 165 15756005139572311576
4921388 177 18196107546964665294
576247 118 18270408298729960554
5845 1 14236840597961483749
7364860 26 17762619890355019489
77492 1 16806152251393550876
81228 2 18342455885536520984

>  <PUBCHEM_SHAPE_MULTIPOLES>  (1) 
389
5.02
3.06
1.83
4.04
0.37
-0.45
3.73
2.16
-2.05
-0.8
0.37
-0.53
1.4

>  <PUBCHEM_SHAPE_SELFOVERLAP>  (1) 
842.414

>  <PUBCHEM_SHAPE_VOLUME>  (1) 
212.2

>  <PUBCHEM_COORDINATE_TYPE>  (1) 
2
5
10

$$$$
