31760
     RDKit          3D

 27 30  0  0  1  0  0  0  0  0999 V2000
   -2.8098    2.5036   -0.4028 S   0  0  0  0  0  0  0  0  0  0  0  0
    1.7015   -2.1782   -1.4734 S   0  0  0  0  0  0  0  0  0  0  0  0
   -1.3029   -0.6913    2.2163 O   0  0  0  0  0  0  0  0  0  0  0  0
   -3.3726   -2.1228   -0.5078 O   0  0  0  0  0  0  0  0  0  0  0  0
   -5.4985   -1.5192    0.0507 O   0  0  0  0  0  0  0  0  0  0  0  0
    1.9657    2.3830    1.2698 O   0  0  0  0  0  0  0  0  0  0  0  0
    5.3225    0.7792   -0.7273 O   0  0  0  0  0  0  0  0  0  0  0  0
   -2.2310    0.0423    0.1738 N   0  0  0  0  0  0  0  0  0  0  0  0
    0.8257    0.7256    0.1438 N   0  0  0  0  0  0  0  0  0  0  0  0
    4.8361   -0.5219   -0.7660 N   0  0  0  0  0  0  0  0  0  0  0  0
   -1.5699    1.1627   -0.5025 C   0  0  0  0  0  0  0  0  0  0  0  0
   -4.2020    1.2699   -0.4756 C   0  0  0  0  0  0  0  0  0  0  0  0
   -3.6746    0.0640    0.3335 C   0  0  0  0  0  0  0  0  0  0  0  0
   -0.5083    1.1215    0.6050 C   0  0  0  0  0  0  0  0  0  0  0  0
   -1.3301   -0.0404    1.1963 C   0  0  0  0  0  0  0  0  0  0  0  0
   -5.4453    1.8828    0.1720 C   0  0  0  0  0  0  0  0  0  0  0  0
   -4.4784    0.9586   -1.9537 C   0  0  0  0  0  0  0  0  0  0  0  0
   -4.3086   -1.2582   -0.0456 C   0  0  0  0  0  0  0  0  0  0  0  0
    1.9896    1.4056    0.5223 C   0  0  0  0  0  0  0  0  0  0  0  0
    3.2542    0.8695    0.0015 C   0  0  0  0  0  0  0  0  0  0  0  0
    3.5803   -0.4349   -0.3183 C   0  0  0  0  0  0  0  0  0  0  0  0
    4.3525    1.6066   -0.2609 C   0  0  0  0  0  0  0  0  0  0  0  0
    2.7173   -1.6252   -0.2097 C   0  0  0  0  0  0  0  0  0  0  0  0
    4.7050    3.0292   -0.1570 C   0  0  0  0  0  0  0  0  0  0  0  0
    2.6276   -2.4233    0.9105 C   0  0  0  0  0  0  0  0  0  0  0  0
    1.7142   -3.5015    0.7285 C   0  0  0  0  0  0  0  0  0  0  0  0
    1.1398   -3.4874   -0.5234 C   0  0  0  0  0  0  0  0  0  0  0  0
  1 11  1  0
  1 12  1  0
  2 23  1  0
  2 27  1  0
  3 15  2  0
  4 18  1  0
  5 18  2  0
  6 19  2  0
  7 10  1  0
  7 22  1  0
  8 11  1  0
  8 13  1  0
  8 15  1  0
  9 14  1  0
  9 19  1  0
 10 21  2  0
 11 14  1  0
 12 13  1  0
 12 16  1  0
 12 17  1  0
 13 18  1  0
 14 15  1  0
 19 20  1  0
 20 21  1  0
 20 22  2  0
 21 23  1  0
 22 24  1  0
 23 25  2  0
 25 26  1  0
 26 27  2  0
M  END
>  <PUBCHEM_COMPOUND_CID>  (1) 
31760

>  <PUBCHEM_CONFORMER_RMSD>  (1) 
0.8

>  <PUBCHEM_CONFORMER_DIVERSEORDER>  (1) 
22
204
159
95
195
144
256
282
203
111
138
65
71
89
154
262
202
162
263
272
152
261
205
193
245
243
121
140
132
59
155
216
271
255
158
215
10
208
117
265
52
51
174
153
275
281
72
214
124
217
133
210
264
93
19
274
108
224
129
28
76
192
269
254
3
253
273
169
110
61
119
191
1
161
250
8
211
160
201
32
25
196
252
70
280
146
247
270
178
116
251
127
35
106
101
222
98
147
27
136
165
238
141
163
212
79
56
73
200
190
29
181
99
33
142
9
118
151
145
4
96
236
227
15
179
55
135
235
45
218
23
149
226
143
120
115
157
91
148
232
83
48
231
237
21
2
279
278
199
220
258
103
58
39
66
20
50
62
105
234
134
177
276
46
68
5
44
233
139
7
130
54
180
30
183
228
74
166
167
184
126
81
82
131
94
88
87
17
47
213
150
16
182
6
241
92
42
49
257
229
207
18
113
84
123
40
104
137
230
100
36
171
221
31
185
86
63
109
164
172
206
13
114
128
122
219
41
85
107
57
90
198
97
248
80
26
11
240
14
67
188
259
38
125
246
242
78
77
64
75
209
43
266
37
267
69
53
102
34
175
60
156
12
277
239
24
168
170
244
189
173
186
112
268
225
223
260
187
197
249
176
194

>  <PUBCHEM_MMFF94_PARTIAL_CHARGES>  (1) 
30
1 -0.45
10 -0.41
11 0.44
12 0.23
13 0.36
14 0.28
15 0.58
18 0.66
19 0.72
2 -0.08
20 -0.09
21 0.29
22 -0.04
23 0.04
24 0.18
25 -0.15
26 -0.15
27 -0.11
3 -0.57
37 0.37
38 0.5
4 -0.65
42 0.15
43 0.15
44 0.15
5 -0.57
6 -0.57
7 -0.02
8 -0.59
9 -0.65

>  <PUBCHEM_EFFECTIVE_ROTOR_COUNT>  (1) 
5.8

>  <PUBCHEM_PHARMACOPHORE_FEATURES>  (1) 
12
1 10 acceptor
1 3 acceptor
1 4 acceptor
1 5 acceptor
1 6 acceptor
1 9 donor
3 12 16 17 hydrophobe
3 4 5 18 anion
4 8 11 14 15 rings
5 2 23 25 26 27 rings
5 7 10 20 21 22 rings
7 1 8 11 12 13 14 15 rings

>  <PUBCHEM_HEAVY_ATOM_COUNT>  (1) 
27

>  <PUBCHEM_ATOM_DEF_STEREO_COUNT>  (1) 
0

>  <PUBCHEM_ATOM_UDEF_STEREO_COUNT>  (1) 
3

>  <PUBCHEM_BOND_DEF_STEREO_COUNT>  (1) 
0

>  <PUBCHEM_BOND_UDEF_STEREO_COUNT>  (1) 
0

>  <PUBCHEM_ISOTOPIC_ATOM_COUNT>  (1) 
0

>  <PUBCHEM_COMPONENT_COUNT>  (1) 
1

>  <PUBCHEM_CACTVS_TAUTO_COUNT>  (1) 
2

>  <PUBCHEM_CONFORMER_ID>  (1) 
00007C1000000016

>  <PUBCHEM_MMFF94_ENERGY>  (1) 
58.8386

>  <PUBCHEM_FEATURE_SELFOVERLAP>  (1) 
64.695

>  <PUBCHEM_SHAPE_FINGERPRINT>  (1) 
10616163 171 18411419518452482775
11370993 70 18334296487419871886
12107183 9 17548139931078553097
12730499 353 18335710424581183937
12788726 201 17345196593319093745
13402501 40 18337961219562750659
13583140 156 18201431502425441637
1361 2 18192428799584727853
14117953 113 17982445992973176278
14251757 17 17972592191477046413
14617045 38 18411706517068476271
17138139 8 17558242561520430711
17818456 19 16983220773653893097
17980427 23 17241053226936845748
18681886 176 18408884071126352264
20567600 347 18186519921318564274
20645477 70 18341335513558276812
21133410 32 16307743617844731658
21857420 4 13498780275306940893
21860390 5 16371583612621095396
22393880 68 18413110550203554086
23559900 14 18337947866493115834
238 59 18411423916699402250
239999 70 18272376339203613782
3298306 158 18411697694973119438
3472631 163 16298676052718026644
4280585 95 17622735211234370590
463206 1 18272081695340163111
495365 180 18412252939929746736
543358 83 18196657293544877936
59682541 52 18124287469097946317
59755656 215 18335135427982936303
6823239 73 17986682463078335966
7399639 24 18266726043005704073
8272917 22 18340772529155543876
9709674 26 18261401013591905986

>  <PUBCHEM_SHAPE_MULTIPOLES>  (1) 
519.06
11.7
3.8
1.26
5.08
1.79
0.04
-4.18
-2.6
-2.84
0
0.4
0.22
0.36

>  <PUBCHEM_SHAPE_SELFOVERLAP>  (1) 
1099.836

>  <PUBCHEM_SHAPE_VOLUME>  (1) 
295.2

>  <PUBCHEM_COORDINATE_TYPE>  (1) 
2
5
10

$$$$
