3176
     RDKit          3D

 35 39  0  0  1  0  0  0  0  0999 V2000
   -4.6079   -3.2355    0.2595 O   0  0  0  0  0  0  0  0  0  0  0  0
    0.3077   -2.8110    0.1430 O   0  0  0  0  0  0  0  0  0  0  0  0
   -8.4551    0.4917    0.1069 O   0  0  0  0  0  0  0  0  0  0  0  0
    4.9731    0.3894    2.3459 O   0  0  0  0  0  0  0  0  0  0  0  0
   -7.6826    2.6361   -0.1476 O   0  0  0  0  0  0  0  0  0  0  0  0
    7.2756    0.9347    0.9072 O   0  0  0  0  0  0  0  0  0  0  0  0
    7.3702    0.4700   -1.8082 O   0  0  0  0  0  0  0  0  0  0  0  0
   -0.4558   -0.6575   -0.2820 N   0  0  0  0  0  0  0  0  0  0  0  0
   -5.9469   -0.5431    0.0654 N   0  0  0  0  0  0  0  0  0  0  0  0
    2.6719   -0.7157    0.7576 N   0  0  0  0  0  0  0  0  0  0  0  0
   -1.5565    1.5097   -0.3402 C   0  0  0  0  0  0  0  0  0  0  0  0
   -2.5287    0.3612   -0.2171 C   0  0  0  0  0  0  0  0  0  0  0  0
   -0.2372    0.7699   -0.6108 C   0  0  0  0  0  0  0  0  0  0  0  0
   -1.8486   -0.8662   -0.1453 C   0  0  0  0  0  0  0  0  0  0  0  0
   -3.9313    0.3894   -0.1430 C   0  0  0  0  0  0  0  0  0  0  0  0
   -1.4920    2.3351    0.9405 C   0  0  0  0  0  0  0  0  0  0  0  0
   -4.6006   -0.8268    0.0168 C   0  0  0  0  0  0  0  0  0  0  0  0
   -2.5324   -2.0627    0.0178 C   0  0  0  0  0  0  0  0  0  0  0  0
    0.5351   -1.6336   -0.1313 C   0  0  0  0  0  0  0  0  0  0  0  0
   -3.9307   -2.0573    0.1032 C   0  0  0  0  0  0  0  0  0  0  0  0
   -4.9209    1.4098   -0.1858 C   0  0  0  0  0  0  0  0  0  0  0  0
   -6.1500    0.8055   -0.0558 C   0  0  0  0  0  0  0  0  0  0  0  0
    1.9143   -1.1741   -0.2812 C   0  0  0  0  0  0  0  0  0  0  0  0
    2.6680   -1.1170   -1.4254 C   0  0  0  0  0  0  0  0  0  0  0  0
    3.9216   -0.3577    0.3047 C   0  0  0  0  0  0  0  0  0  0  0  0
    3.9459   -0.6014   -1.0702 C   0  0  0  0  0  0  0  0  0  0  0  0
   -7.4412    1.4172   -0.0416 C   0  0  0  0  0  0  0  0  0  0  0  0
    5.0214    0.1579    0.9997 C   0  0  0  0  0  0  0  0  0  0  0  0
    5.1243   -0.3177   -1.7888 C   0  0  0  0  0  0  0  0  0  0  0  0
    6.1793    0.4317    0.2661 C   0  0  0  0  0  0  0  0  0  0  0  0
    6.2322    0.1981   -1.1067 C   0  0  0  0  0  0  0  0  0  0  0  0
   -9.7983    0.9879    0.1344 C   0  0  0  0  0  0  0  0  0  0  0  0
    5.3662   -0.6821    3.1977 C   0  0  0  0  0  0  0  0  0  0  0  0
    7.1163    2.1844    1.5722 C   0  0  0  0  0  0  0  0  0  0  0  0
    7.4934    1.7796   -2.3575 C   0  0  0  0  0  0  0  0  0  0  0  0
  1 20  1  0
  2 19  2  0
  3 27  1  0
  3 32  1  0
  4 28  1  0
  4 33  1  0
  5 27  2  0
  6 30  1  0
  6 34  1  0
  7 31  1  0
  7 35  1  0
  8 13  1  0
  8 14  1  0
  8 19  1  0
  9 17  1  0
  9 22  1  0
 10 23  1  0
 10 25  1  0
 11 12  1  0
 11 13  1  0
 11 16  1  0
 12 14  2  0
 12 15  1  0
 14 18  1  0
 15 17  2  0
 15 21  1  0
 17 20  1  0
 18 20  2  0
 19 23  1  0
 21 22  2  0
 22 27  1  0
 23 24  2  0
 24 26  1  0
 25 26  2  0
 25 28  1  0
 26 29  1  0
 28 30  2  0
 29 31  2  0
 30 31  1  0
M  END
>  <PUBCHEM_COMPOUND_CID>  (1) 
3176

>  <PUBCHEM_CONFORMER_RMSD>  (1) 
1

>  <PUBCHEM_CONFORMER_DIVERSEORDER>  (1) 
3
2
9
29
11
27
33
7
28
18
30
17
14
5
13
31
36
35
8
32
23
22
25
24
1
6
4
16
21
20
34
10
19
12
15
26

>  <PUBCHEM_MMFF94_PARTIAL_CHARGES>  (1) 
39
1 -0.53
10 0.03
11 0.14
12 -0.14
13 0.3
14 0.12
17 -0.15
18 -0.15
19 0.71
2 -0.57
20 0.08
21 -0.15
22 -0.24
23 -0.24
24 -0.15
25 -0.15
27 0.81
28 0.08
29 -0.15
3 -0.43
30 0.08
31 0.08
32 0.28
33 0.28
34 0.28
35 0.28
4 -0.36
42 0.15
43 0.15
44 0.27
45 0.27
46 0.15
47 0.45
48 0.15
5 -0.57
6 -0.36
7 -0.36
8 -0.48
9 0.03

>  <PUBCHEM_EFFECTIVE_ROTOR_COUNT>  (1) 
7.6

>  <PUBCHEM_PHARMACOPHORE_FEATURES>  (1) 
15
1 1 donor
1 10 cation
1 10 donor
1 2 acceptor
1 4 acceptor
1 5 acceptor
1 6 acceptor
1 7 acceptor
1 9 cation
1 9 donor
5 10 23 24 25 26 rings
5 8 11 12 13 14 rings
5 9 15 17 21 22 rings
6 12 14 15 17 18 20 rings
6 25 26 28 29 30 31 rings

>  <PUBCHEM_HEAVY_ATOM_COUNT>  (1) 
35

>  <PUBCHEM_ATOM_DEF_STEREO_COUNT>  (1) 
0

>  <PUBCHEM_ATOM_UDEF_STEREO_COUNT>  (1) 
1

>  <PUBCHEM_BOND_DEF_STEREO_COUNT>  (1) 
0

>  <PUBCHEM_BOND_UDEF_STEREO_COUNT>  (1) 
0

>  <PUBCHEM_ISOTOPIC_ATOM_COUNT>  (1) 
0

>  <PUBCHEM_COMPONENT_COUNT>  (1) 
1

>  <PUBCHEM_CACTVS_TAUTO_COUNT>  (1) 
30

>  <PUBCHEM_CONFORMER_ID>  (1) 
00000C6800000003

>  <PUBCHEM_MMFF94_ENERGY>  (1) 
121.1675

>  <PUBCHEM_FEATURE_SELFOVERLAP>  (1) 
76.396

>  <PUBCHEM_SHAPE_FINGERPRINT>  (1) 
10 15 18186239520230824683
10050765 1 18192716876674998933
10290309 65 18264201414490896831
10816530 90 18411703223034691388
11386260 185 15985103029322044448
11578080 2 13756976710484491145
11578821 258 17894911807150959117
11607047 74 9943225071138514826
12133447 93 18269847432316440845
12236239 1 17676205801727603422
12838862 33 18334564734435439837
13383665 225 18197520474914411236
14040222 383 18408605894578815867
150020 25 17918000485780359854
15131766 46 14978518881197927144
15392192 104 17240491307406589578
15461852 350 17988924505432849247
1577012 14 17821731667464024958
16989713 51 17844247539661430975
19301679 30 15358248282967091166
20554085 129 18341607101278218506
21033648 29 17988348365302461210
21779490 71 15768908291097931128
21792934 111 18265042540927706827
21792961 116 17489042474782976126
221357 26 16774081748412407416
23559900 14 18343017822268167297
23569943 247 10738100431237105157
23576562 1 17059758032247048525
24771293 8 18342447167106591077
335352 9 18410857673212719341
34797466 226 17275388676911228661
3918712 181 18343295985936077360
4073 2 18113627797575729331
4093350 32 16845290506356701133
44249763 50 17846200190116449287
504579 68 14836124355683568325
5758199 1 18412266104405058467
5937810 71 17560245713758143953
59682541 52 16487263149559444132

>  <PUBCHEM_SHAPE_MULTIPOLES>  (1) 
664.26
26.23
2.41
1.71
17.23
0.53
0.68
-14.92
-0.38
2.43
0.2
-5.97
-0.3
0.07

>  <PUBCHEM_SHAPE_SELFOVERLAP>  (1) 
1476.45

>  <PUBCHEM_SHAPE_VOLUME>  (1) 
361.1

>  <PUBCHEM_COORDINATE_TYPE>  (1) 
2
5
10

$$$$
