31781
     RDKit          3D

 29 32  0  0  1  0  0  0  0  0999 V2000
    6.4757   -0.6018    0.2117 S   0  0  0  0  0  0  0  0  0  0  0  0
    4.9213   -0.7072   -0.2930 O   0  0  0  0  0  0  0  0  0  0  0  0
    7.1021   -2.0571   -0.1766 O   0  0  0  0  0  0  0  0  0  0  0  0
   -4.6333    2.0816   -0.0323 O   0  0  0  0  0  0  0  0  0  0  0  0
    7.1402    0.3931   -0.6094 O   0  0  0  0  0  0  0  0  0  0  0  0
    6.4904   -0.4812    1.6578 O   0  0  0  0  0  0  0  0  0  0  0  0
   -4.3817   -2.6614    0.3610 O   0  0  0  0  0  0  0  0  0  0  0  0
   -5.8817   -0.3401    0.2633 O   0  0  0  0  0  0  0  0  0  0  0  0
    2.6440    0.1253   -0.7012 C   0  0  0  0  0  0  0  0  0  0  0  0
    1.8737    1.3259   -0.1105 C   0  0  0  0  0  0  0  0  0  0  0  0
    4.0831    0.4322   -0.2429 C   0  0  0  0  0  0  0  0  0  0  0  0
    2.5466    1.5946    1.2494 C   0  0  0  0  0  0  0  0  0  0  0  0
    2.0939   -1.1901   -0.1177 C   0  0  0  0  0  0  0  0  0  0  0  0
    3.9361    0.9603    1.1810 C   0  0  0  0  0  0  0  0  0  0  0  0
    0.3781    1.1331    0.0127 C   0  0  0  0  0  0  0  0  0  0  0  0
    0.5816   -1.3416   -0.3213 C   0  0  0  0  0  0  0  0  0  0  0  0
    2.5728    0.0879   -2.2371 C   0  0  0  0  0  0  0  0  0  0  0  0
   -0.2185   -0.0745   -0.1090 C   0  0  0  0  0  0  0  0  0  0  0  0
   -0.4117    2.3904    0.2888 C   0  0  0  0  0  0  0  0  0  0  0  0
   -1.7037   -0.1686   -0.0014 C   0  0  0  0  0  0  0  0  0  0  0  0
   -1.8235    2.3415   -0.2839 C   0  0  0  0  0  0  0  0  0  0  0  0
   -2.4815    1.0082   -0.0534 C   0  0  0  0  0  0  0  0  0  0  0  0
   -2.3775   -1.3946    0.1302 C   0  0  0  0  0  0  0  0  0  0  0  0
   -3.8819    0.9425    0.0238 C   0  0  0  0  0  0  0  0  0  0  0  0
   -3.7718   -1.4503    0.2199 C   0  0  0  0  0  0  0  0  0  0  0  0
   -4.5237   -0.2830    0.1682 C   0  0  0  0  0  0  0  0  0  0  0  0
   -5.5741    2.1829   -1.0977 C   0  0  0  0  0  0  0  0  0  0  0  0
   -4.7509   -3.3437   -0.8354 C   0  0  0  0  0  0  0  0  0  0  0  0
   -6.4240   -0.9044    1.4552 C   0  0  0  0  0  0  0  0  0  0  0  0
  1  2  1  0
  1  3  1  0
  1  5  2  0
  1  6  2  0
  2 11  1  0
  4 24  1  0
  4 27  1  0
  7 25  1  0
  7 28  1  0
  8 26  1  0
  8 29  1  0
  9 10  1  0
  9 11  1  0
  9 13  1  0
  9 17  1  0
 10 12  1  0
 10 15  1  0
 11 14  1  0
 12 14  1  0
 13 16  1  0
 15 18  2  0
 15 19  1  0
 16 18  1  0
 18 20  1  0
 19 21  1  0
 20 22  2  0
 20 23  1  0
 21 22  1  0
 22 24  1  0
 23 25  2  0
 24 26  2  0
 25 26  1  0
M  END
>  <PUBCHEM_COMPOUND_CID>  (1) 
31781

>  <PUBCHEM_CONFORMER_RMSD>  (1) 
0.8

>  <PUBCHEM_CONFORMER_DIVERSEORDER>  (1) 
2
14
15
41
49
25
40
26
43
19
36
38
6
23
7
8
42
44
22
20
30
32
11
3
46
28
9
34
33
5
24
35
13
29
16
45
4
39
12
18
37
48
1
27
47
21
31
17
10

>  <PUBCHEM_MMFF94_PARTIAL_CHARGES>  (1) 
26
1 1.67
10 0.14
11 0.28
15 -0.28
16 0.14
18 -0.17
19 0.14
2 -0.46
20 0.03
21 0.14
22 -0.14
23 -0.15
24 0.08
25 0.08
26 0.08
27 0.28
28 0.28
29 0.28
3 -0.68
4 -0.36
47 0.15
48 0.5
5 -0.65
6 -0.65
7 -0.36
8 -0.36

>  <PUBCHEM_EFFECTIVE_ROTOR_COUNT>  (1) 
6.4

>  <PUBCHEM_PHARMACOPHORE_FEATURES>  (1) 
11
1 3 acceptor
1 4 acceptor
1 5 acceptor
1 6 acceptor
1 7 acceptor
1 8 acceptor
4 1 3 5 6 anion
5 9 10 11 12 14 rings
6 15 18 19 20 21 22 rings
6 20 22 23 24 25 26 rings
6 9 10 13 15 16 18 rings

>  <PUBCHEM_HEAVY_ATOM_COUNT>  (1) 
29

>  <PUBCHEM_ATOM_DEF_STEREO_COUNT>  (1) 
0

>  <PUBCHEM_ATOM_UDEF_STEREO_COUNT>  (1) 
3

>  <PUBCHEM_BOND_DEF_STEREO_COUNT>  (1) 
0

>  <PUBCHEM_BOND_UDEF_STEREO_COUNT>  (1) 
0

>  <PUBCHEM_ISOTOPIC_ATOM_COUNT>  (1) 
0

>  <PUBCHEM_COMPONENT_COUNT>  (1) 
1

>  <PUBCHEM_CACTVS_TAUTO_COUNT>  (1) 
1

>  <PUBCHEM_CONFORMER_ID>  (1) 
00007C2500000002

>  <PUBCHEM_MMFF94_ENERGY>  (1) 
107.3894

>  <PUBCHEM_FEATURE_SELFOVERLAP>  (1) 
56.076

>  <PUBCHEM_SHAPE_FINGERPRINT>  (1) 
10319926 262 18341319046616832216
10411042 1 18121782992322037263
11524674 6 17346596374336451351
11545043 162 18342172297388142208
11578080 2 16880460485530310655
11646440 116 17704075092554279168
11719270 70 18271805688463917150
11796584 16 18410010997092190698
11963148 33 18413384350512511854
12035758 1 17846767513121616000
12166972 35 17821732762358958236
12236239 1 17603305938616763700
12403259 415 18342733044176795456
13402501 40 18343582936615755544
13668630 136 15936412255753858235
13782708 43 18059573633053808326
14294032 229 17314498237731397965
15021287 119 17095250206765576093
15196674 1 18411699932387667844
15788980 27 18113901580312627817
17349148 13 17822009838967170011
17492 89 18050005790496219971
18681886 176 18187083983768657064
18927931 339 18408887356338236887
20028762 73 18130504253522724102
21033648 29 17846202376191331072
21130935 74 18131351955370198346
21150785 3 13118002223017777899
21267235 1 18335146409960890395
21792934 111 18412545410397249073
23402539 116 18334855017503896644
23522609 53 18121533307649104069
23559900 14 18412820279002257568
23569914 152 13339456960503049690
23569943 247 14763243133622559244
3004659 81 18186804673740014412
32027 91 17700148607477471758
335352 9 18410573994527661965
350125 39 18411419505926374356
3545911 37 18412546500827954609
397830 11 17774147050444696482
4340502 62 15051738603218011188
465052 167 18130791166470349550
5104073 3 18200878486235153457
559249 180 18259983747794042361
59755656 215 18338515236121060526
67856867 119 18187653552340730020
7226269 152 18409729526057318521
7495541 125 18272370906175641384

>  <PUBCHEM_SHAPE_MULTIPOLES>  (1) 
559.57
17.03
2.66
1.16
12.34
0.62
0.13
6.14
-2.2
-3.69
0.28
0.54
-0.05
0.77

>  <PUBCHEM_SHAPE_SELFOVERLAP>  (1) 
1195.361

>  <PUBCHEM_SHAPE_VOLUME>  (1) 
315.6

>  <PUBCHEM_COORDINATE_TYPE>  (1) 
2
5
10

$$$$
