31789
     RDKit          3D

 10 11  0  0  1  0  0  0  0  0999 V2000
   -2.9675    0.4862   -0.4615 O   0  0  0  0  0  0  0  0  0  0  0  0
    2.9629    0.4998    0.4500 O   0  0  0  0  0  0  0  0  0  0  0  0
   -0.5310   -1.3224   -1.3110 O   0  0  0  0  0  0  0  0  0  0  0  0
    0.5381   -1.2674    1.3601 O   0  0  0  0  0  0  0  0  0  0  0  0
   -1.9121   -0.1545    0.2498 C   0  0  0  0  0  0  0  0  0  0  0  0
    1.9118   -0.1619   -0.2483 C   0  0  0  0  0  0  0  0  0  0  0  0
   -0.6015   -0.1620   -0.4837 C   0  0  0  0  0  0  0  0  0  0  0  0
    0.5968   -0.1477    0.4776 C   0  0  0  0  0  0  0  0  0  0  0  0
   -2.5016    1.1261    0.7336 C   0  0  0  0  0  0  0  0  0  0  0  0
    2.5041    1.1038   -0.7664 C   0  0  0  0  0  0  0  0  0  0  0  0
  1  5  1  0
  1  9  1  0
  2  6  1  0
  2 10  1  0
  3  7  1  0
  4  8  1  0
  5  7  1  0
  5  9  1  0
  6  8  1  0
  6 10  1  0
  7  8  1  0
M  END
>  <PUBCHEM_COMPOUND_CID>  (1) 
31789

>  <PUBCHEM_CONFORMER_RMSD>  (1) 
0.6

>  <PUBCHEM_CONFORMER_DIVERSEORDER>  (1) 
1
75
4
43
126
84
24
58
40
114
51
101
63
130
67
36
33
38
7
92
122
120
56
44
3
54
30
93
47
95
124
87
32
123
98
118
22
60
71
66
17
14
52
25
121
65
70
12
49
86
106
102
42
55
88
31
10
91
83
104
116
27
53
85
109
119
13
128
23
94
61
50
72
15
135
11
103
117
29
89
108
96
82
35
134
77
132
73
26
39
131
9
8
100
20
125
45
21
81
127
97
76
107
115
69
99
105
59
6
111
129
74
46
16
79
133
57
90
2
113
64
68
19
112
80
18
78
28
41
110
62
34
48
37
5

>  <PUBCHEM_MMFF94_PARTIAL_CHARGES>  (1) 
18
1 -0.3
10 -0.05
11 0.1
12 0.1
15 0.1
16 0.1
17 0.1
18 0.1
19 0.4
2 -0.3
20 0.4
3 -0.68
4 -0.68
5 -0.05
6 -0.05
7 0.38
8 0.38
9 -0.05

>  <PUBCHEM_EFFECTIVE_ROTOR_COUNT>  (1) 
4.2

>  <PUBCHEM_PHARMACOPHORE_FEATURES>  (1) 
6
1 1 acceptor
1 2 acceptor
1 3 acceptor
1 3 donor
1 4 acceptor
1 4 donor

>  <PUBCHEM_HEAVY_ATOM_COUNT>  (1) 
10

>  <PUBCHEM_ATOM_DEF_STEREO_COUNT>  (1) 
0

>  <PUBCHEM_ATOM_UDEF_STEREO_COUNT>  (1) 
4

>  <PUBCHEM_BOND_DEF_STEREO_COUNT>  (1) 
0

>  <PUBCHEM_BOND_UDEF_STEREO_COUNT>  (1) 
0

>  <PUBCHEM_ISOTOPIC_ATOM_COUNT>  (1) 
0

>  <PUBCHEM_COMPONENT_COUNT>  (1) 
1

>  <PUBCHEM_CACTVS_TAUTO_COUNT>  (1) 
1

>  <PUBCHEM_CONFORMER_ID>  (1) 
00007C2D00000001

>  <PUBCHEM_MMFF94_ENERGY>  (1) 
14.7388

>  <PUBCHEM_FEATURE_SELFOVERLAP>  (1) 
30.453

>  <PUBCHEM_SHAPE_FINGERPRINT>  (1) 
10219947 1 15647059269576708111
10857977 72 14201402711175197093
11062470 55 9799692588598778265
12897270 3 17275389785028660353
14128692 85 9727338139327468785
14325111 11 17917996057394764157
14390081 3 18272370862650935993
15775835 57 18410578387493397260
20653085 51 18200613478368861112
21028194 46 18272093777093683561
21040471 1 17632286852847412607
21293036 1 16415477168493834793
23235685 24 17846216631572758281
23552423 10 17487066557001867359
29004967 10 14201404863032855629
3248919 1 18410573985151535591
5084963 1 18335422365398431173

>  <PUBCHEM_SHAPE_MULTIPOLES>  (1) 
182.32
4.37
1.18
1.09
0
0.06
0.01
-1.93
-0.02
0.01
-0.01
-0.01
0.27
-0.41

>  <PUBCHEM_SHAPE_SELFOVERLAP>  (1) 
359.756

>  <PUBCHEM_SHAPE_VOLUME>  (1) 
110

>  <PUBCHEM_COORDINATE_TYPE>  (1) 
2
5
10

$$$$
