31796
     RDKit          3D

 25 27  0  0  1  0  0  0  0  0999 V2000
   -4.8037    1.4637   -1.3027 O   0  0  0  0  0  0  0  0  0  0  0  0
   -0.5029    0.9805    0.1999 O   0  0  0  0  0  0  0  0  0  0  0  0
    6.4580   -0.1888   -0.2475 O   0  0  0  0  0  0  0  0  0  0  0  0
   -2.2392    1.6227    1.5819 O   0  0  0  0  0  0  0  0  0  0  0  0
    3.6613    0.3380   -0.3011 N   0  0  0  0  0  0  0  0  0  0  0  0
   -2.5889   -0.0592   -0.1273 C   0  0  0  0  0  0  0  0  0  0  0  0
   -4.0431   -0.0902    0.4106 C   0  0  0  0  0  0  0  0  0  0  0  0
   -2.6295    0.4311   -1.5979 C   0  0  0  0  0  0  0  0  0  0  0  0
   -1.9147   -1.4283    0.0596 C   0  0  0  0  0  0  0  0  0  0  0  0
   -4.8226    1.1843    0.0928 C   0  0  0  0  0  0  0  0  0  0  0  0
   -3.4803    1.6854   -1.7790 C   0  0  0  0  0  0  0  0  0  0  0  0
   -1.7837    0.9504    0.6667 C   0  0  0  0  0  0  0  0  0  0  0  0
    0.3722    1.8975    0.8643 C   0  0  0  0  0  0  0  0  0  0  0  0
    1.7673    1.8048    0.2380 C   0  0  0  0  0  0  0  0  0  0  0  0
    2.3400    0.3876    0.3213 C   0  0  0  0  0  0  0  0  0  0  0  0
    4.5988    1.2319    0.3928 C   0  0  0  0  0  0  0  0  0  0  0  0
    4.1849   -1.0352   -0.3053 C   0  0  0  0  0  0  0  0  0  0  0  0
   -1.7926   -1.9714    1.3359 C   0  0  0  0  0  0  0  0  0  0  0  0
   -1.4300   -2.1187   -1.0482 C   0  0  0  0  0  0  0  0  0  0  0  0
    5.9726    1.1540   -0.2669 C   0  0  0  0  0  0  0  0  0  0  0  0
    5.5690   -1.0601   -0.9476 C   0  0  0  0  0  0  0  0  0  0  0  0
   -0.1987    3.3031    0.7337 C   0  0  0  0  0  0  0  0  0  0  0  0
   -1.1812   -3.2137    1.5057 C   0  0  0  0  0  0  0  0  0  0  0  0
   -0.8187   -3.3610   -0.8784 C   0  0  0  0  0  0  0  0  0  0  0  0
   -0.6943   -3.9084    0.3986 C   0  0  0  0  0  0  0  0  0  0  0  0
  1 10  1  0
  1 11  1  0
  2 12  1  0
  2 13  1  0
  3 20  1  0
  3 21  1  0
  4 12  2  0
  5 15  1  0
  5 16  1  0
  5 17  1  0
  6  7  1  0
  6  8  1  0
  6  9  1  0
  6 12  1  0
  7 10  1  0
  8 11  1  0
  9 18  2  0
  9 19  1  0
 13 14  1  0
 13 22  1  0
 14 15  1  0
 16 20  1  0
 17 21  1  0
 18 23  1  0
 19 24  2  0
 23 25  2  0
 24 25  1  0
M  END
>  <PUBCHEM_COMPOUND_CID>  (1) 
31796

>  <PUBCHEM_CONFORMER_RMSD>  (1) 
1

>  <PUBCHEM_CONFORMER_DIVERSEORDER>  (1) 
1
94
51
188
19
37
163
17
104
164
180
43
136
83
169
121
52
30
87
199
128
90
41
98
161
189
92
78
111
122
24
181
160
72
63
113
44
45
201
101
171
13
175
70
198
191
130
79
129
173
165
138
57
77
159
23
76
157
39
177
118
131
152
126
47
86
106
202
26
33
60
64
71
68
66
54
56
155
88
193
48
196
21
80
119
112
178
172
132
170
59
89
5
125
141
133
187
116
82
197
29
176
50
105
65
151
117
35
27
20
49
8
144
150
31
123
109
4
18
108
149
124
84
85
93
34
69
97
146
142
184
194
168
174
7
96
200
195
102
127
61
139
135
15
53
42
28
145
95
110
3
167
38
32
16
62
25
74
182
143
154
114
115
147
22
103
99
100
14
46
6
148
12
183
10
158
55
134
190
36
166
75
179
73
11
2
67
137
58
81
185
107
153
40
162
140
9
120
91
186
192
156

>  <PUBCHEM_MMFF94_PARTIAL_CHARGES>  (1) 
26
1 -0.56
10 0.28
11 0.28
12 0.66
13 0.28
15 0.27
16 0.27
17 0.27
18 -0.15
19 -0.15
2 -0.43
20 0.28
21 0.28
23 -0.15
24 -0.15
25 -0.15
3 -0.56
4 -0.57
43 0.15
44 0.15
5 -0.81
52 0.15
53 0.15
54 0.15
6 0.2
9 -0.14

>  <PUBCHEM_EFFECTIVE_ROTOR_COUNT>  (1) 
9.4

>  <PUBCHEM_PHARMACOPHORE_FEATURES>  (1) 
7
1 1 acceptor
1 3 acceptor
1 4 acceptor
1 5 cation
6 1 6 7 8 10 11 rings
6 3 5 16 17 20 21 rings
6 9 18 19 23 24 25 rings

>  <PUBCHEM_HEAVY_ATOM_COUNT>  (1) 
25

>  <PUBCHEM_ATOM_DEF_STEREO_COUNT>  (1) 
0

>  <PUBCHEM_ATOM_UDEF_STEREO_COUNT>  (1) 
1

>  <PUBCHEM_BOND_DEF_STEREO_COUNT>  (1) 
0

>  <PUBCHEM_BOND_UDEF_STEREO_COUNT>  (1) 
0

>  <PUBCHEM_ISOTOPIC_ATOM_COUNT>  (1) 
0

>  <PUBCHEM_COMPONENT_COUNT>  (1) 
1

>  <PUBCHEM_CACTVS_TAUTO_COUNT>  (1) 
1

>  <PUBCHEM_CONFORMER_ID>  (1) 
00007C3400000001

>  <PUBCHEM_MMFF94_ENERGY>  (1) 
64.7555

>  <PUBCHEM_FEATURE_SELFOVERLAP>  (1) 
35.522

>  <PUBCHEM_SHAPE_FINGERPRINT>  (1) 
10366900 7 17632576046428954576
10391435 84 18413106183313628978
105312 117 17968087595385244839
10764073 3 18120686693087050603
107951 10 17894351068487970355
10803635 8 18114175320470041204
10906281 52 18059313001379376716
11036077 3 18411987932010194321
11135609 187 18340481175796685641
11315181 36 17989208166278972176
12553582 1 18341607105915758824
12555020 224 18342452638488341701
12643181 29 18410294701705671182
12788726 201 18200307706936471224
13257819 101 16879050972454352343
13402501 40 18342744017997383374
14251757 5 18335140925203335176
14790565 3 18268998596090957273
15163728 17 17315907768250189757
15420108 30 16767624127433740577
15880784 105 15841263840002238056
21033648 29 18335405859950590684
22956985 138 11380681535142028757
23198884 109 15864073152516916504
23466295 7 18044667635256814002
23559900 14 18271521009589426776
266924 87 18051408474864237341
3027735 51 18125439709274369025
3298306 158 18262790770677885943
3383291 50 18341331188284422467
340366 18 18040721402046180892
3729539 64 18337384920681810815
4015057 19 17845923151893989088
4058900 60 18043814182616226489
44802255 64 17821728321383873158
58260988 521 18115608010260096419
6138700 20 18341897342325053127
70251023 43 17694490851216182887
81228 2 17614543166843762521
9709674 26 18053093205591959904

>  <PUBCHEM_SHAPE_MULTIPOLES>  (1) 
486.03
11.37
3.97
1.37
19.48
3.15
0.16
-3.49
3.24
-2.17
-0.77
-1.24
0.04
1.24

>  <PUBCHEM_SHAPE_SELFOVERLAP>  (1) 
1012.678

>  <PUBCHEM_SHAPE_VOLUME>  (1) 
273.9

>  <PUBCHEM_COORDINATE_TYPE>  (1) 
2
5
10

$$$$
