31797
     RDKit          3D

 19 21  0  0  1  0  0  0  0  0999 V2000
   -1.7424    1.4140    1.1424 O   0  0  0  0  0  0  0  0  0  0  0  0
   -3.1522    0.0296    2.2897 O   0  0  0  0  0  0  0  0  0  0  0  0
    2.6332   -1.5104    0.4486 O   0  0  0  0  0  0  0  0  0  0  0  0
    4.1845    0.1158   -0.2595 O   0  0  0  0  0  0  0  0  0  0  0  0
    4.8834   -1.9757    0.3888 O   0  0  0  0  0  0  0  0  0  0  0  0
   -2.8259   -0.1684   -0.0136 N   0  0  0  0  0  0  0  0  0  0  0  0
   -1.2462    1.5063   -0.2113 C   0  0  0  0  0  0  0  0  0  0  0  0
   -2.1210    0.5654   -1.0236 C   0  0  0  0  0  0  0  0  0  0  0  0
   -3.7196   -1.2567   -0.3455 C   0  0  0  0  0  0  0  0  0  0  0  0
    0.2277    1.1739   -0.2390 C   0  0  0  0  0  0  0  0  0  0  0  0
   -2.6349    0.3750    1.2364 C   0  0  0  0  0  0  0  0  0  0  0  0
   -2.9329   -2.4381   -0.8980 C   0  0  0  0  0  0  0  0  0  0  0  0
   -4.7840   -0.7925   -1.3320 C   0  0  0  0  0  0  0  0  0  0  0  0
    0.6615   -0.0942    0.1539 C   0  0  0  0  0  0  0  0  0  0  0  0
    1.1527    2.1438   -0.6612 C   0  0  0  0  0  0  0  0  0  0  0  0
    2.0170   -0.3492    0.1101 C   0  0  0  0  0  0  0  0  0  0  0  0
    2.5184    1.8525   -0.6934 C   0  0  0  0  0  0  0  0  0  0  0  0
    2.9133    0.5905   -0.2988 C   0  0  0  0  0  0  0  0  0  0  0  0
    3.9674   -1.1815    0.2062 C   0  0  0  0  0  0  0  0  0  0  0  0
  1  7  1  0
  1 11  1  0
  2 11  2  0
  3 16  1  0
  3 19  1  0
  4 18  1  0
  4 19  1  0
  5 19  2  0
  6  8  1  0
  6  9  1  0
  6 11  1  0
  7  8  1  0
  7 10  1  0
  9 12  1  0
  9 13  1  0
 10 14  1  0
 10 15  2  0
 14 16  2  0
 15 17  1  0
 16 18  1  0
 17 18  2  0
M  END
>  <PUBCHEM_COMPOUND_CID>  (1) 
31797

>  <PUBCHEM_CONFORMER_RMSD>  (1) 
0.6

>  <PUBCHEM_CONFORMER_DIVERSEORDER>  (1) 
1
28
4
13
8
14
5
18
11
21
16
26
15
27
24
10
2
7
12
23
17
9
19
3
25
22
6
20

>  <PUBCHEM_MMFF94_PARTIAL_CHARGES>  (1) 
20
1 -0.43
10 -0.14
11 0.78
14 -0.15
15 -0.15
16 0.08
17 -0.15
18 0.08
19 0.87
2 -0.57
3 -0.23
30 0.15
31 0.15
32 0.15
4 -0.23
5 -0.57
6 -0.66
7 0.42
8 0.3
9 0.3

>  <PUBCHEM_EFFECTIVE_ROTOR_COUNT>  (1) 
2.8

>  <PUBCHEM_PHARMACOPHORE_FEATURES>  (1) 
5
1 2 acceptor
3 9 12 13 hydrophobe
5 1 6 7 8 11 rings
5 3 4 16 18 19 rings
6 10 14 15 16 17 18 rings

>  <PUBCHEM_HEAVY_ATOM_COUNT>  (1) 
19

>  <PUBCHEM_ATOM_DEF_STEREO_COUNT>  (1) 
0

>  <PUBCHEM_ATOM_UDEF_STEREO_COUNT>  (1) 
1

>  <PUBCHEM_BOND_DEF_STEREO_COUNT>  (1) 
0

>  <PUBCHEM_BOND_UDEF_STEREO_COUNT>  (1) 
0

>  <PUBCHEM_ISOTOPIC_ATOM_COUNT>  (1) 
0

>  <PUBCHEM_COMPONENT_COUNT>  (1) 
1

>  <PUBCHEM_CACTVS_TAUTO_COUNT>  (1) 
1

>  <PUBCHEM_CONFORMER_ID>  (1) 
00007C3500000001

>  <PUBCHEM_MMFF94_ENERGY>  (1) 
43.1839

>  <PUBCHEM_FEATURE_SELFOVERLAP>  (1) 
25.5

>  <PUBCHEM_SHAPE_FINGERPRINT>  (1) 
10968037 57 18341898437362508623
11046707 91 18344143696088376655
11137873 295 18113617885154388205
11578080 2 18057863866613727137
11769659 78 18411698798500406100
11806522 49 18409163338041070508
12390115 104 10807066323726974650
12553582 1 18336278880840687126
12596599 1 18272665544588882447
12633257 1 17131849667725792651
12824470 246 18128538361212479607
12892183 10 16128372628188440246
14178342 30 17631745858798281623
14576447 43 18338233877234814198
14787075 74 16692165129528834705
15099037 8 18413388756520144173
15375462 189 18269850842134942489
15415430 10 18411974741954793902
15842332 3 18198645356776704657
17357779 13 17458340844831456676
18186145 218 16153431653146795736
18222031 100 18336259064463073978
19422 9 18271813440214799636
19433438 48 18343023263595878179
19784866 240 18413106160889337439
19868273 293 13479126917451058961
200 152 18411976975242757893
20291156 8 18411696612319685686
20645477 70 18113895008901895284
20681677 274 17845924255594458891
21634736 98 18338517572588479422
221490 88 18116154548415608718
22646028 28 18342737437822408983
23402539 116 18188205382755261498
23503958 8 17917711292404922883
23559900 14 18340193202286302408
2838139 119 12758309098032308302
2871803 45 18114172030039854374
3286 77 17775277291956664282
339767 52 18340471352937376382
5161694 15 17022615394976953327
602551 16 16415478306644390134
76465 3 18335695010381291202
9709674 26 17968094286975887949

>  <PUBCHEM_SHAPE_MULTIPOLES>  (1) 
356.68
8.94
2.19
1.24
1.27
0.37
-0.52
5.3
0.77
0.83
0.37
-1.55
-0.12
-1.35

>  <PUBCHEM_SHAPE_SELFOVERLAP>  (1) 
779.983

>  <PUBCHEM_SHAPE_VOLUME>  (1) 
194.9

>  <PUBCHEM_COORDINATE_TYPE>  (1) 
2
5
10

$$$$
