31798
     RDKit          3D

 13 12  0  0  1  0  0  0  0  0999 V2000
   -1.0892    0.0746   -0.0537 O   0  0  0  0  0  0  0  0  0  0  0  0
   -3.2393   -1.2938   -1.1584 O   0  0  0  0  0  0  0  0  0  0  0  0
    2.0632    1.7191   -0.4582 O   0  0  0  0  0  0  0  0  0  0  0  0
   -0.4381    2.2497    0.3538 O   0  0  0  0  0  0  0  0  0  0  0  0
    3.8562   -1.3279    1.1298 O   0  0  0  0  0  0  0  0  0  0  0  0
    3.5091   -0.8391   -1.0630 O   0  0  0  0  0  0  0  0  0  0  0  0
   -3.3000   -0.8397    0.1928 C   0  0  0  0  0  0  0  0  0  0  0  0
    1.1731    0.6122   -0.4357 C   0  0  0  0  0  0  0  0  0  0  0  0
   -2.4309    0.4051    0.3190 C   0  0  0  0  0  0  0  0  0  0  0  0
    1.7295   -0.4361    0.5228 C   0  0  0  0  0  0  0  0  0  0  0  0
   -0.1905    1.1009    0.0110 C   0  0  0  0  0  0  0  0  0  0  0  0
   -4.7495   -0.5447    0.5478 C   0  0  0  0  0  0  0  0  0  0  0  0
    3.1062   -0.8800    0.0920 C   0  0  0  0  0  0  0  0  0  0  0  0
  1  9  1  0
  1 11  1  0
  2  7  1  0
  3  8  1  0
  4 11  2  0
  5 13  1  0
  6 13  2  0
  7  9  1  0
  7 12  1  0
  8 10  1  0
  8 11  1  0
 10 13  1  0
M  END
>  <PUBCHEM_COMPOUND_CID>  (1) 
31798

>  <PUBCHEM_CONFORMER_RMSD>  (1) 
0.8

>  <PUBCHEM_CONFORMER_DIVERSEORDER>  (1) 
3
550
351
381
371
620
1176
968
1131
32
45
7
24
202
734
588
26
18
1014
69
188
305
714
326
101
1090
715
303
771
378
68
110
1247
22
17
1237
1293
205
1173
777
282
254
1178
394
1171
350
399
200
121
35
656
902
290
120
123
82
56
1203
979
1261
510
716
1032
234
767
124
397
994
1143
404
1002
219
114
117
459
429
78
788
451
678
1086
821
34
19
331
1089
799
490
536
832
1047
1
23
50
172
1187
470
981
39
15
261
749
28
60
27
159
134
55
514
12
111
14
889
960
220
587
908
86
439
1175
838
130
192
553
400
852
46
1071
33
386
923
477
1232
144
137
636
84
1321
245
359
571
29
901
96
66
677
194
136
493
44
1302
991
4
398
809
876
1135
660
95
41
815
218
1080
291
1250
1304
367
1166
77
654
870
91
25
330
727
387
512
375
519
850
868
5
99
1204
1057
1001
879
961
11
502
563
880
338
978
1031
611
260
255
58
606
317
97
811
583
287
413
506
162
132
70
327
689
619
1127
328
657
1108
392
650
1094
80

>  <PUBCHEM_MMFF94_PARTIAL_CHARGES>  (1) 
15
1 -0.43
10 0.06
11 0.66
13 0.66
2 -0.68
23 0.4
24 0.4
25 0.5
3 -0.68
4 -0.57
5 -0.65
6 -0.57
7 0.28
8 0.34
9 0.28

>  <PUBCHEM_EFFECTIVE_ROTOR_COUNT>  (1) 
6

>  <PUBCHEM_PHARMACOPHORE_FEATURES>  (1) 
8
1 2 acceptor
1 2 donor
1 3 acceptor
1 3 donor
1 4 acceptor
1 5 acceptor
1 6 acceptor
3 5 6 13 anion

>  <PUBCHEM_HEAVY_ATOM_COUNT>  (1) 
13

>  <PUBCHEM_ATOM_DEF_STEREO_COUNT>  (1) 
0

>  <PUBCHEM_ATOM_UDEF_STEREO_COUNT>  (1) 
2

>  <PUBCHEM_BOND_DEF_STEREO_COUNT>  (1) 
0

>  <PUBCHEM_BOND_UDEF_STEREO_COUNT>  (1) 
0

>  <PUBCHEM_ISOTOPIC_ATOM_COUNT>  (1) 
0

>  <PUBCHEM_COMPONENT_COUNT>  (1) 
1

>  <PUBCHEM_CACTVS_TAUTO_COUNT>  (1) 
1

>  <PUBCHEM_CONFORMER_ID>  (1) 
00007C3600000003

>  <PUBCHEM_MMFF94_ENERGY>  (1) 
11.6037

>  <PUBCHEM_FEATURE_SELFOVERLAP>  (1) 
40.664

>  <PUBCHEM_SHAPE_FINGERPRINT>  (1) 
10130415 120 18412267250623230401
11543360 7 15575008298341745667
11769659 78 18335136471074387800
122479 349 11311764086024620252
13705890 14 16950282918563079594
14252887 29 18202008711380018034
177051 138 18272373070174247359
17834072 8 18261670390421048013
18186145 218 17168137962342203313
20281407 28 18201440233697905882
20645477 70 18409167748882890743
20671657 53 17967814929254654004
20871998 22 18271814466917646870
21501925 9 18411412925619511768
22169311 14 16343703240103497291
22218785 32 11674878870665950632
22485316 2 18411697707763088793
22959321 94 18412822465013802714
32948 21 17313654967735114751
449060 23 18340493261744609046
94968 8 18259990370538901186

>  <PUBCHEM_SHAPE_MULTIPOLES>  (1) 
232.32
8.03
1.67
0.91
3.59
0.75
0.08
-4.61
-0.53
-0.56
-0.04
-0.2
-0.26
-0.59

>  <PUBCHEM_SHAPE_SELFOVERLAP>  (1) 
445.818

>  <PUBCHEM_SHAPE_VOLUME>  (1) 
141.1

>  <PUBCHEM_COORDINATE_TYPE>  (1) 
2
5
10

$$$$
