31790
     RDKit          3D

 18 20  0  0  1  0  0  0  0  0999 V2000
    0.4432    1.4762    0.9730 O   0  0  0  0  0  0  0  0  0  0  0  0
    1.9811   -1.0599    0.7981 O   0  0  0  0  0  0  0  0  0  0  0  0
    2.9701    0.1064   -0.9762 O   0  0  0  0  0  0  0  0  0  0  0  0
   -2.0907   -0.9527   -0.0852 O   0  0  0  0  0  0  0  0  0  0  0  0
   -3.6814    0.7587    0.1620 O   0  0  0  0  0  0  0  0  0  0  0  0
    1.0410    2.8240   -0.8668 O   0  0  0  0  0  0  0  0  0  0  0  0
    0.9379   -0.5788   -0.0533 C   0  0  0  0  0  0  0  0  0  0  0  0
   -0.1044    0.1642    0.7530 C   0  0  0  0  0  0  0  0  0  0  0  0
    1.6037    0.4927   -0.8664 C   0  0  0  0  0  0  0  0  0  0  0  0
   -1.4287    0.3112    0.0161 C   0  0  0  0  0  0  0  0  0  0  0  0
    1.4421    1.7523   -0.0217 C   0  0  0  0  0  0  0  0  0  0  0  0
    3.1847   -0.8803    0.0419 C   0  0  0  0  0  0  0  0  0  0  0  0
   -2.4402    1.1679    0.7382 C   0  0  0  0  0  0  0  0  0  0  0  0
   -3.4873   -0.6252   -0.1738 C   0  0  0  0  0  0  0  0  0  0  0  0
    3.5614   -2.1974   -0.6303 C   0  0  0  0  0  0  0  0  0  0  0  0
    4.2896   -0.4117    0.9782 C   0  0  0  0  0  0  0  0  0  0  0  0
   -3.9688   -0.8522   -1.6011 C   0  0  0  0  0  0  0  0  0  0  0  0
   -4.2534   -1.4954    0.8144 C   0  0  0  0  0  0  0  0  0  0  0  0
  1  8  1  0
  1 11  1  0
  2  7  1  0
  2 12  1  0
  3  9  1  0
  3 12  1  0
  4 10  1  0
  4 14  1  0
  5 13  1  0
  5 14  1  0
  6 11  1  0
  7  8  1  0
  7  9  1  0
  8 10  1  0
  9 11  1  0
 10 13  1  0
 12 15  1  0
 12 16  1  0
 14 17  1  0
 14 18  1  0
M  END
>  <PUBCHEM_COMPOUND_CID>  (1) 
31790

>  <PUBCHEM_CONFORMER_RMSD>  (1) 
0.6

>  <PUBCHEM_CONFORMER_DIVERSEORDER>  (1) 
4
10
1
9
11
5
7
6
3
8
2
12

>  <PUBCHEM_MMFF94_PARTIAL_CHARGES>  (1) 
15
1 -0.56
10 0.28
11 0.56
12 0.56
13 0.28
14 0.56
2 -0.56
3 -0.56
32 0.4
4 -0.56
5 -0.56
6 -0.68
7 0.28
8 0.28
9 0.28

>  <PUBCHEM_EFFECTIVE_ROTOR_COUNT>  (1) 
3.2

>  <PUBCHEM_PHARMACOPHORE_FEATURES>  (1) 
12
1 1 acceptor
1 2 acceptor
1 3 acceptor
1 4 acceptor
1 5 acceptor
1 6 acceptor
1 6 donor
3 12 15 16 hydrophobe
3 14 17 18 hydrophobe
5 1 7 8 9 11 rings
5 2 3 7 9 12 rings
5 4 5 10 13 14 rings

>  <PUBCHEM_HEAVY_ATOM_COUNT>  (1) 
18

>  <PUBCHEM_ATOM_DEF_STEREO_COUNT>  (1) 
4

>  <PUBCHEM_ATOM_UDEF_STEREO_COUNT>  (1) 
1

>  <PUBCHEM_BOND_DEF_STEREO_COUNT>  (1) 
0

>  <PUBCHEM_BOND_UDEF_STEREO_COUNT>  (1) 
0

>  <PUBCHEM_ISOTOPIC_ATOM_COUNT>  (1) 
0

>  <PUBCHEM_COMPONENT_COUNT>  (1) 
1

>  <PUBCHEM_CACTVS_TAUTO_COUNT>  (1) 
1

>  <PUBCHEM_CONFORMER_ID>  (1) 
00007C2E00000004

>  <PUBCHEM_MMFF94_ENERGY>  (1) 
53.5381

>  <PUBCHEM_FEATURE_SELFOVERLAP>  (1) 
61.611

>  <PUBCHEM_SHAPE_FINGERPRINT>  (1) 
10062212 137 18271525304202846155
10366900 7 10807927189591345415
10465860 71 18270982170980440252
11543360 7 16081381785797263819
11578080 2 18199447910144846248
11769659 78 18201998806942463551
11806522 49 18271799155322235330
12553582 1 18261114006649871347
13134695 92 18259979392491840164
13296908 3 17917709063353455578
13544653 18 18130785637929769114
13675066 3 18201440255204540419
13705890 14 18040155145014946018
14144814 61 18411140229550640379
14181834 199 18114752624267645028
14252887 29 18272936007686196890
14289901 80 17418085512314854666
14576447 43 18412828022907160366
14787075 74 17416953105790865642
15375358 24 13183026202918887311
15477762 27 18409733988506791662
15848700 24 18409164381749577190
16945 1 18335432286983823136
18186145 218 17530970172015081955
19422 9 18410022030651937243
19784866 170 11959739286686360403
19862831 5 18187075153341861055
200 152 18130776872486924679
20279233 1 16128657431891347317
20339313 130 18408045121303206120
20559304 39 18341900726695770924
20645477 70 18337387249007876527
20671657 53 18334295357400387343
21501925 9 18343297080793430600
21713013 43 17749110032519534963
22112679 90 18197238969862100120
221490 88 18189065359144936987
22485316 2 17917706877199420511
2255824 54 18264776621800439220
22646028 28 18413109446233499851
231179 274 9439410124604899418
232386 152 17988926677831537245
23402539 116 18336824191616761258
23557571 272 18266448824562811528
23559900 14 18337387252822523089
23598291 2 18339094708618562061
2916195 48 11242554257822018558
296302 2 13973967605809593379
312423 11 18340781437297393881
3286 77 18113617927834932071
4990 188 11818996249523098624
5104073 3 18412830200560867273
5161694 15 17894629249414259231
5281201 14 17603586365563107567
6992083 37 18125458426900198113
7364860 26 18269555107956596680
7495541 125 17749962170857126291
74978 22 18334858363547157619
81228 2 18046639901803900552
9709674 26 18337397131432530755
9981440 41 17689432015343959721

>  <PUBCHEM_SHAPE_MULTIPOLES>  (1) 
335.22
8.17
2.02
1.13
2.91
0.69
0.16
-4.29
0.03
-0.81
0.29
0.23
-0.05
-0.23

>  <PUBCHEM_SHAPE_SELFOVERLAP>  (1) 
708.48

>  <PUBCHEM_SHAPE_VOLUME>  (1) 
190.7

>  <PUBCHEM_COORDINATE_TYPE>  (1) 
2
5
10

$$$$
