31793
     RDKit          3D

 26 28  0  0  1  0  0  0  0  0999 V2000
    1.5454   -0.7822    0.4194 O   0  0  0  0  0  0  0  0  0  0  0  0
   -1.7055   -3.0026    1.7016 O   0  0  0  0  0  0  0  0  0  0  0  0
    0.5933   -2.0184    2.1229 O   0  0  0  0  0  0  0  0  0  0  0  0
   -2.4179    1.2729    0.1529 N   0  0  0  0  0  0  0  0  0  0  0  0
   -0.4186   -1.9704   -0.0711 C   0  0  0  0  0  0  0  0  0  0  0  0
   -1.0899   -0.6731   -0.5361 C   0  0  0  0  0  0  0  0  0  0  0  0
    0.3342   -2.6714   -1.2163 C   0  0  0  0  0  0  0  0  0  0  0  0
   -1.7673    0.0496    0.6256 C   0  0  0  0  0  0  0  0  0  0  0  0
   -0.5877   -3.3182   -2.2488 C   0  0  0  0  0  0  0  0  0  0  0  0
   -1.4945   -2.9037    0.4919 C   0  0  0  0  0  0  0  0  0  0  0  0
   -1.5441   -4.3005   -1.5825 C   0  0  0  0  0  0  0  0  0  0  0  0
   -2.3773   -3.6273   -0.5042 C   0  0  0  0  0  0  0  0  0  0  0  0
   -1.4168    2.1818   -0.4154 C   0  0  0  0  0  0  0  0  0  0  0  0
   -3.2513    1.8712    1.1969 C   0  0  0  0  0  0  0  0  0  0  0  0
    0.6136   -1.6122    0.9689 C   0  0  0  0  0  0  0  0  0  0  0  0
   -1.8616    3.6158   -0.7191 C   0  0  0  0  0  0  0  0  0  0  0  0
   -4.5188    2.4809    0.5913 C   0  0  0  0  0  0  0  0  0  0  0  0
   -3.2737    3.7404   -1.2818 C   0  0  0  0  0  0  0  0  0  0  0  0
   -4.3289    3.7838   -0.1794 C   0  0  0  0  0  0  0  0  0  0  0  0
    2.5903   -0.3609    1.3018 C   0  0  0  0  0  0  0  0  0  0  0  0
    3.5287    0.5406    0.5548 C   0  0  0  0  0  0  0  0  0  0  0  0
    4.6198   -0.0033   -0.1139 C   0  0  0  0  0  0  0  0  0  0  0  0
    3.2984    1.9118    0.5373 C   0  0  0  0  0  0  0  0  0  0  0  0
    5.4920    0.8347   -0.8087 C   0  0  0  0  0  0  0  0  0  0  0  0
    4.1706    2.7497   -0.1576 C   0  0  0  0  0  0  0  0  0  0  0  0
    5.2674    2.2111   -0.8305 C   0  0  0  0  0  0  0  0  0  0  0  0
  1 15  1  0
  1 20  1  0
  2 10  2  0
  3 15  2  0
  4  8  1  0
  4 13  1  0
  4 14  1  0
  5  6  1  0
  5  7  1  0
  5 10  1  0
  5 15  1  0
  6  8  1  0
  7  9  1  0
  9 11  1  0
 10 12  1  0
 11 12  1  0
 13 16  1  0
 14 17  1  0
 16 18  1  0
 17 19  1  0
 18 19  1  0
 20 21  1  0
 21 22  2  0
 21 23  1  0
 22 24  1  0
 23 25  2  0
 24 26  2  0
 25 26  1  0
M  END
>  <PUBCHEM_COMPOUND_CID>  (1) 
31793

>  <PUBCHEM_CONFORMER_RMSD>  (1) 
1

>  <PUBCHEM_CONFORMER_DIVERSEORDER>  (1) 
1
123
265
39
245
135
60
36
69
242
62
3
94
181
58
25
134
199
91
35
54
271
232
129
208
48
246
44
190
26
68
15
65
158
272
274
275
204
42
187
7
73
125
50
84
24
19
100
183
195
177
143
12
97
118
235
178
222
162
56
17
109
194
111
141
259
95
192
249
234
227
79
87
216
218
83
13
231
214
223
262
203
254
22
55
103
136
264
244
172
211
31
147
104
169
171
163
9
253
126
70
260
116
146
71
38
182
4
8
225
81
107
105
10
76
196
80
16
191
86
148
138
18
155
149
57
145
152
67
108
198
52
2
205
29
248
188
120
179
47
217
113
82
14
200
133
165
72
27
174
226
28
51
240
269
6
153
220
193
128
66
247
88
267
110
213
273
98
85
261
251
189
92
53
61
168
90
243
258
263
99
78
77
121
144
161
156
201
20
30
33
130
257
106
236
239
255
119
75
209
96
41
40
21
175
219
11
117
170
142
59
63
164
45
266
151
49
210
159
250
23
238
124
122
173
93
102
114
46
112
212
137
115
131
207
237
160
270
256
167
224
154
233
229
5
185
89
230
184
34
268
252
101
202
43
74
127
37
140
32
228
157
176
139
197
132
241
150
221
186
215
206
180
166
64

>  <PUBCHEM_MMFF94_PARTIAL_CHARGES>  (1) 
23
1 -0.43
10 0.45
12 0.06
13 0.27
14 0.27
15 0.66
2 -0.57
20 0.42
21 -0.14
22 -0.15
23 -0.15
24 -0.15
25 -0.15
26 -0.15
3 -0.57
4 -0.81
5 0.12
53 0.15
54 0.15
55 0.15
56 0.15
57 0.15
8 0.27

>  <PUBCHEM_EFFECTIVE_ROTOR_COUNT>  (1) 
9.4

>  <PUBCHEM_PHARMACOPHORE_FEATURES>  (1) 
6
1 2 acceptor
1 3 acceptor
1 4 cation
6 21 22 23 24 25 26 rings
6 5 7 9 10 11 12 rings
7 4 13 14 16 17 18 19 rings

>  <PUBCHEM_HEAVY_ATOM_COUNT>  (1) 
26

>  <PUBCHEM_ATOM_DEF_STEREO_COUNT>  (1) 
0

>  <PUBCHEM_ATOM_UDEF_STEREO_COUNT>  (1) 
1

>  <PUBCHEM_BOND_DEF_STEREO_COUNT>  (1) 
0

>  <PUBCHEM_BOND_UDEF_STEREO_COUNT>  (1) 
0

>  <PUBCHEM_ISOTOPIC_ATOM_COUNT>  (1) 
0

>  <PUBCHEM_COMPONENT_COUNT>  (1) 
1

>  <PUBCHEM_CACTVS_TAUTO_COUNT>  (1) 
2

>  <PUBCHEM_CONFORMER_ID>  (1) 
00007C3100000001

>  <PUBCHEM_MMFF94_ENERGY>  (1) 
53.2293

>  <PUBCHEM_FEATURE_SELFOVERLAP>  (1) 
30.463

>  <PUBCHEM_SHAPE_FINGERPRINT>  (1) 
10006869 2 18333724728668427363
10871710 139 18191872442379400776
11045515 52 17836077149715460430
12160290 23 18198601389201225027
12788726 201 18192417774371985299
13590594 115 17978508964811322963
13944108 23 17471295050671467268
14114211 80 18271255910621726873
1454969 45 18411135832395887049
14955137 171 17690568906483646795
161222 619 18119271496846647993
16988056 13 17185872792519168956
1813 80 17551809435050968318
21756936 100 18113623404551380296
21860390 5 17330255183294963237
22907989 373 18199738314125787446
23559900 14 17328020976384675165
26353 1 17407653564917764718
3057174 1 18058161718189155799
3388396 114 17327189144167527820
340366 18 18268426829218282986
3610482 184 17823720701600671004
469060 322 13768493166323351416
531348 171 18341905138592671742
7808743 9 18335142016305006616

>  <PUBCHEM_SHAPE_MULTIPOLES>  (1) 
512.48
9.3
6.59
1.58
11.12
1.85
0.01
-12.2
0.93
-7.83
2.67
-0.32
1.24
-0.46

>  <PUBCHEM_SHAPE_SELFOVERLAP>  (1) 
1065.456

>  <PUBCHEM_SHAPE_VOLUME>  (1) 
287.5

>  <PUBCHEM_COORDINATE_TYPE>  (1) 
2
5
10

$$$$
