31809
     RDKit          3D

 17 17  0  0  1  0  0  0  0  0999 V2000
   -3.6858   -2.0558   -1.2063 I   0  0  0  0  0  0  0  0  0  0  0  0
    3.4644    2.0794    0.6290 O   0  0  0  0  0  0  0  0  0  0  0  0
    4.0357    0.5953   -0.9886 O   0  0  0  0  0  0  0  0  0  0  0  0
   -4.5348    0.3934    0.7799 O   0  0  0  0  0  0  0  0  0  0  0  0
    1.2523   -1.7467    1.8137 O   0  0  0  0  0  0  0  0  0  0  0  0
    1.8964   -0.9725   -0.2827 N   0  0  0  0  0  0  0  0  0  0  0  0
    1.8188    0.4568    0.0105 C   0  0  0  0  0  0  0  0  0  0  0  0
    0.7964    1.1214   -0.9244 C   0  0  0  0  0  0  0  0  0  0  0  0
   -0.6317    0.9152   -0.4746 C   0  0  0  0  0  0  0  0  0  0  0  0
   -1.3331   -0.1901   -0.9268 C   0  0  0  0  0  0  0  0  0  0  0  0
   -1.2106    1.8374    0.3813 C   0  0  0  0  0  0  0  0  0  0  0  0
    3.2178    1.0170   -0.1809 C   0  0  0  0  0  0  0  0  0  0  0  0
   -2.6513   -0.3785   -0.5113 C   0  0  0  0  0  0  0  0  0  0  0  0
   -2.5287    1.6491    0.7966 C   0  0  0  0  0  0  0  0  0  0  0  0
    1.6040   -1.9380    0.6525 C   0  0  0  0  0  0  0  0  0  0  0  0
   -3.2491    0.5411    0.3504 C   0  0  0  0  0  0  0  0  0  0  0  0
    1.7392   -3.3243    0.0818 C   0  0  0  0  0  0  0  0  0  0  0  0
  1 13  1  0
  2 12  1  0
  3 12  2  0
  4 16  1  0
  5 15  2  0
  6  7  1  0
  6 15  1  0
  7  8  1  0
  7 12  1  0
  8  9  1  0
  9 10  2  0
  9 11  1  0
 10 13  1  0
 11 14  2  0
 13 16  2  0
 14 16  1  0
 15 17  1  0
M  END
>  <PUBCHEM_COMPOUND_CID>  (1) 
31809

>  <PUBCHEM_CONFORMER_RMSD>  (1) 
0.6

>  <PUBCHEM_CONFORMER_DIVERSEORDER>  (1) 
1
117
108
118
99
10
15
101
34
87
3
78
89
109
16
45
112
107
110
33
75
103
9
100
115
94
48
95
67
62
46
49
72
113
111
17
96
40
59
77
36
12
86
11
93
61
19
74
44
91
105
68
7
104
20
83
6
76
116
66
57
50
58
114
55
5
43
18
97
60
84
14
63
53
64
47
65
41
98
13
8
81
42
85
102
30
2
4
106
82
73
69
79
29
31
22
80
32
26
92
90
39
38
52
88
25
24
70
51
35
37
27
23
71
28
21
56
54

>  <PUBCHEM_MMFF94_PARTIAL_CHARGES>  (1) 
23
1 -0.08
10 -0.15
11 -0.15
12 0.66
13 0.08
14 -0.15
15 0.57
16 0.08
17 0.06
2 -0.65
21 0.37
22 0.15
23 0.15
24 0.15
28 0.5
29 0.45
3 -0.57
4 -0.53
5 -0.57
6 -0.73
7 0.36
8 0.14
9 -0.14

>  <PUBCHEM_EFFECTIVE_ROTOR_COUNT>  (1) 
5

>  <PUBCHEM_PHARMACOPHORE_FEATURES>  (1) 
8
1 1 hydrophobe
1 2 acceptor
1 3 acceptor
1 4 donor
1 5 acceptor
1 6 donor
3 2 3 12 anion
6 9 10 11 13 14 16 rings

>  <PUBCHEM_HEAVY_ATOM_COUNT>  (1) 
17

>  <PUBCHEM_ATOM_DEF_STEREO_COUNT>  (1) 
0

>  <PUBCHEM_ATOM_UDEF_STEREO_COUNT>  (1) 
1

>  <PUBCHEM_BOND_DEF_STEREO_COUNT>  (1) 
0

>  <PUBCHEM_BOND_UDEF_STEREO_COUNT>  (1) 
0

>  <PUBCHEM_ISOTOPIC_ATOM_COUNT>  (1) 
0

>  <PUBCHEM_COMPONENT_COUNT>  (1) 
1

>  <PUBCHEM_CACTVS_TAUTO_COUNT>  (1) 
6

>  <PUBCHEM_CONFORMER_ID>  (1) 
00007C4100000001

>  <PUBCHEM_MMFF94_ENERGY>  (1) 
36.6782

>  <PUBCHEM_FEATURE_SELFOVERLAP>  (1) 
40.654

>  <PUBCHEM_SHAPE_FINGERPRINT>  (1) 
12553582 1 18056744650097691415
13032168 30 18127129895085408563
13538477 17 18272928298045521965
14178342 30 18339349833849625000
14787075 74 17767676518429820092
15279307 12 18412830178848802623
15375462 189 18411981377657998409
18981168 100 13469535933076819587
201361 129 18341337695333357784
20442098 301 18341609257520306919
20645477 70 18188759544894430671
22445834 79 18339083683537506029
23419403 2 13412354585640099882
23493267 7 17417542319237361961
23559900 14 17488753254941000581
23566358 27 18338525140178709462
23598294 1 17846493760069036815
2871803 45 18339915038876842983
34934 24 18413387648893497989
7097593 13 18052253999078903347
7364860 26 18267585715338287846
81228 2 17538842894898677346

>  <PUBCHEM_SHAPE_MULTIPOLES>  (1) 
333.33
7.22
2.93
1.19
1.04
2.16
0.13
-0.31
-0.54
-0.64
0.52
0.12
0.3
-1.56

>  <PUBCHEM_SHAPE_SELFOVERLAP>  (1) 
664.769

>  <PUBCHEM_SHAPE_VOLUME>  (1) 
199.9

>  <PUBCHEM_COORDINATE_TYPE>  (1) 
2
5
10

$$$$
