31803
     RDKit          3D

 25 27  0  0  1  0  0  0  0  0999 V2000
    3.8448   -0.7711    2.2899 O   0  0  0  0  0  0  0  0  0  0  0  0
    1.2746   -0.3096   -0.1513 O   0  0  0  0  0  0  0  0  0  0  0  0
   -0.6632   -0.3052   -1.8294 O   0  0  0  0  0  0  0  0  0  0  0  0
   -0.0459   -1.8004    0.9985 O   0  0  0  0  0  0  0  0  0  0  0  0
    4.1731   -0.5429   -1.3192 N   0  0  0  0  0  0  0  0  0  0  0  0
    3.6922   -0.1803    0.0027 C   0  0  0  0  0  0  0  0  0  0  0  0
    2.4278   -0.9151    0.3968 C   0  0  0  0  0  0  0  0  0  0  0  0
    4.6436   -0.6010    1.1077 C   0  0  0  0  0  0  0  0  0  0  0  0
    2.4627   -0.7861    1.9074 C   0  0  0  0  0  0  0  0  0  0  0  0
   -1.0872   -0.1349   -0.4615 C   0  0  0  0  0  0  0  0  0  0  0  0
    5.4610    0.0959   -1.5878 C   0  0  0  0  0  0  0  0  0  0  0  0
    3.1944   -0.1689   -2.3396 C   0  0  0  0  0  0  0  0  0  0  0  0
    0.0739   -0.8518    0.2323 C   0  0  0  0  0  0  0  0  0  0  0  0
   -1.1921    1.3538   -0.1211 C   0  0  0  0  0  0  0  0  0  0  0  0
   -2.4288   -0.8394   -0.2473 C   0  0  0  0  0  0  0  0  0  0  0  0
   -0.9288    1.7544    1.1683 C   0  0  0  0  0  0  0  0  0  0  0  0
   -2.9854   -0.8275    1.0109 C   0  0  0  0  0  0  0  0  0  0  0  0
   -1.5457    2.2338   -1.1177 C   0  0  0  0  0  0  0  0  0  0  0  0
   -3.0269   -1.4580   -1.3209 C   0  0  0  0  0  0  0  0  0  0  0  0
   -1.0244    3.1109    1.4786 C   0  0  0  0  0  0  0  0  0  0  0  0
   -4.2081   -1.4696    1.2064 C   0  0  0  0  0  0  0  0  0  0  0  0
   -1.6414    3.5903   -0.8074 C   0  0  0  0  0  0  0  0  0  0  0  0
   -4.2495   -2.1002   -1.1253 C   0  0  0  0  0  0  0  0  0  0  0  0
   -1.3806    4.0289    0.4908 C   0  0  0  0  0  0  0  0  0  0  0  0
   -4.8403   -2.1060    0.1382 C   0  0  0  0  0  0  0  0  0  0  0  0
  1  8  1  0
  1  9  1  0
  2  7  1  0
  2 13  1  0
  3 10  1  0
  4 13  2  0
  5  6  1  0
  5 11  1  0
  5 12  1  0
  6  7  1  0
  6  8  1  0
  7  9  1  0
 10 13  1  0
 10 14  1  0
 10 15  1  0
 14 16  2  0
 14 18  1  0
 15 17  2  0
 15 19  1  0
 16 20  1  0
 17 21  1  0
 18 22  2  0
 19 23  2  0
 20 24  2  0
 21 25  2  0
 22 24  1  0
 23 25  1  0
M  END
>  <PUBCHEM_COMPOUND_CID>  (1) 
31803

>  <PUBCHEM_CONFORMER_RMSD>  (1) 
0.8

>  <PUBCHEM_CONFORMER_DIVERSEORDER>  (1) 
13
37
87
93
12
101
144
129
117
146
64
4
128
56
95
44
38
123
47
127
99
65
138
124
98
86
59
89
70
46
113
72
11
143
150
53
105
115
83
60
42
39
80
122
136
5
135
110
148
107
109
73
68
41
40
90
130
121
55
8
21
34
84
112
69
54
77
57
45
35
133
2
96
1
151
58
137
103
120
81
78
100
19
14
141
15
28
31
85
111
10
134
32
52
26
23
22
106
6
119
48
9
114
50
88
139
17
102
125
97
20
36
149
25
118
147
142
24
92
62
67
126
140
74
63
79
132
82
27
3
104
29
7
61
91
66
30
75
145
116
108
131
33
76
16
18
43
94
71
51
49

>  <PUBCHEM_MMFF94_PARTIAL_CHARGES>  (1) 
36
1 -0.56
10 0.63
11 0.27
12 0.27
13 0.66
14 -0.14
15 -0.14
16 -0.15
17 -0.15
18 -0.15
19 -0.15
2 -0.43
20 -0.15
21 -0.15
22 -0.15
23 -0.15
24 -0.15
25 -0.15
3 -0.68
38 0.4
39 0.15
4 -0.57
40 0.15
41 0.15
42 0.15
43 0.15
44 0.15
45 0.15
46 0.15
47 0.15
48 0.15
5 -0.81
6 0.27
7 0.28
8 0.28
9 0.28

>  <PUBCHEM_EFFECTIVE_ROTOR_COUNT>  (1) 
7

>  <PUBCHEM_PHARMACOPHORE_FEATURES>  (1) 
8
1 1 acceptor
1 3 acceptor
1 3 donor
1 4 acceptor
1 5 cation
5 1 6 7 8 9 rings
6 14 16 18 20 22 24 rings
6 15 17 19 21 23 25 rings

>  <PUBCHEM_HEAVY_ATOM_COUNT>  (1) 
25

>  <PUBCHEM_ATOM_DEF_STEREO_COUNT>  (1) 
0

>  <PUBCHEM_ATOM_UDEF_STEREO_COUNT>  (1) 
2

>  <PUBCHEM_BOND_DEF_STEREO_COUNT>  (1) 
0

>  <PUBCHEM_BOND_UDEF_STEREO_COUNT>  (1) 
0

>  <PUBCHEM_ISOTOPIC_ATOM_COUNT>  (1) 
0

>  <PUBCHEM_COMPONENT_COUNT>  (1) 
1

>  <PUBCHEM_CACTVS_TAUTO_COUNT>  (1) 
1

>  <PUBCHEM_CONFORMER_ID>  (1) 
00007C3B0000000D

>  <PUBCHEM_MMFF94_ENERGY>  (1) 
78.6189

>  <PUBCHEM_FEATURE_SELFOVERLAP>  (1) 
40.597

>  <PUBCHEM_SHAPE_FINGERPRINT>  (1) 
10369192 42 16413491563012808008
10764073 3 15336345989798300633
11578080 2 17270356135002838341
11595378 159 18337118873369993954
11640471 11 17899413087094308312
12107698 1 18339931502172550740
12156800 1 15478784499793662608
12160290 23 18196647398330910277
12553582 1 18411417353805023663
12714826 92 18342734096395933329
12788726 201 18334296461244094227
13009979 54 17970052367246386554
13140716 1 18410846668842381865
13149001 5 17901390309633144051
133893 2 17691667297245277749
13583140 156 17701801225504808846
13673619 4 17346336894319682462
13899415 154 18335147543948665051
13911987 19 18041284373511601839
14251757 17 14923945703937504195
14347332 77 18340210687562687110
14713325 29 17844266033430910132
14910302 57 17846226514213742894
14955137 171 18126305235990853267
15806764 133 17632293454644858464
15842332 3 17823696361435071386
16752209 62 18334849498534464946
1813 80 18272089460904791327
18222031 100 18200870794328871663
200 152 17603862321064172382
20600515 1 18128533949912048787
21033648 29 17418381277281054595
21304303 282 17542181754924493045
21330990 113 17345775017807365599
22182313 1 17417799596811217800
22907989 373 18341892926924775405
23419403 2 18051097528075142885
23557571 272 18273221875986806990
23558518 356 17970627376867121059
23598288 3 18266169539745024231
283562 15 18335707121783020635
312423 11 17895196546117404698
314173 85 18272367607303082855
4098825 35 18057908882919252238
46194498 28 17775014509711932108
469060 322 18409739447341822800
6049 1 17560797689552437480
621550 5 17560809852614950994
6287921 2 16915363627787669256
633830 44 13685433846733580634
6786 2 17265558858766083857
70251023 43 18340780324542226558
7164475 11 18335979766591761646
7399639 24 17774713238813969022
7615 1 17749670671663999880
81228 2 18266465313158252865
9981440 41 17268307718938716538

>  <PUBCHEM_SHAPE_MULTIPOLES>  (1) 
486.03
9.36
3.52
1.98
7.45
5.25
-0.08
-6.91
-1.1
-4.56
0.32
1.69
-0.22
-0.57

>  <PUBCHEM_SHAPE_SELFOVERLAP>  (1) 
1047.466

>  <PUBCHEM_SHAPE_VOLUME>  (1) 
267.8

>  <PUBCHEM_COORDINATE_TYPE>  (1) 
2
5
10

$$$$
