31805
     RDKit          3D

 26 31  0  0  1  0  0  0  0  0999 V2000
   -3.0070   -0.6071    1.2470 O   0  0  0  0  0  0  0  0  0  0  0  0
    0.8684   -2.1049   -0.4594 O   0  0  0  0  0  0  0  0  0  0  0  0
   -3.4559   -3.0416    0.0252 O   0  0  0  0  0  0  0  0  0  0  0  0
   -4.9112    1.5311    0.8561 O   0  0  0  0  0  0  0  0  0  0  0  0
    2.2955    0.2642    0.1350 N   0  0  0  0  0  0  0  0  0  0  0  0
   -0.6512   -0.5692    0.6100 C   0  0  0  0  0  0  0  0  0  0  0  0
    0.1410   -0.8881   -0.6571 C   0  0  0  0  0  0  0  0  0  0  0  0
    1.0828    0.4024   -0.6819 C   0  0  0  0  0  0  0  0  0  0  0  0
   -1.8528   -1.4655    0.9576 C   0  0  0  0  0  0  0  0  0  0  0  0
    0.3807   -0.4090    1.8156 C   0  0  0  0  0  0  0  0  0  0  0  0
   -1.4246    0.6939    0.2280 C   0  0  0  0  0  0  0  0  0  0  0  0
   -0.7505   -1.1727   -1.8982 C   0  0  0  0  0  0  0  0  0  0  0  0
   -2.1659   -2.4704   -0.1675 C   0  0  0  0  0  0  0  0  0  0  0  0
    0.3744    1.6140   -1.3554 C   0  0  0  0  0  0  0  0  0  0  0  0
    1.9367   -0.4458    1.4091 C   0  0  0  0  0  0  0  0  0  0  0  0
   -2.0896   -1.8638   -1.5684 C   0  0  0  0  0  0  0  0  0  0  0  0
   -1.0121    1.7206   -0.6643 C   0  0  0  0  0  0  0  0  0  0  0  0
   -2.7214    0.6018    0.6728 C   0  0  0  0  0  0  0  0  0  0  0  0
    3.4342   -0.2977   -0.5623 C   0  0  0  0  0  0  0  0  0  0  0  0
    4.6726   -0.2232    0.2806 C   0  0  0  0  0  0  0  0  0  0  0  0
   -1.9206    2.7392   -0.9401 C   0  0  0  0  0  0  0  0  0  0  0  0
    5.0789    1.2010    0.7131 C   0  0  0  0  0  0  0  0  0  0  0  0
    5.9972   -0.2788   -0.5088 C   0  0  0  0  0  0  0  0  0  0  0  0
   -3.6291    1.6083    0.4123 C   0  0  0  0  0  0  0  0  0  0  0  0
    6.5425    0.7709    0.4820 C   0  0  0  0  0  0  0  0  0  0  0  0
   -3.2131    2.6903   -0.3813 C   0  0  0  0  0  0  0  0  0  0  0  0
  1  9  1  0
  1 18  1  0
  2  7  1  0
  3 13  1  0
  4 24  1  0
  5  8  1  0
  5 15  1  0
  5 19  1  0
  6  7  1  0
  6  9  1  0
  6 10  1  0
  6 11  1  0
  7  8  1  0
  7 12  1  0
  8 14  1  0
  9 13  1  0
 10 15  1  0
 11 17  2  0
 11 18  1  0
 12 16  1  0
 13 16  1  0
 14 17  1  0
 17 21  1  0
 18 24  2  0
 19 20  1  0
 20 22  1  0
 20 23  1  0
 21 26  2  0
 22 25  1  0
 23 25  1  0
 24 26  1  0
M  END
>  <PUBCHEM_COMPOUND_CID>  (1) 
31805

>  <PUBCHEM_CONFORMER_RMSD>  (1) 
0.8

>  <PUBCHEM_CONFORMER_DIVERSEORDER>  (1) 
1

>  <PUBCHEM_MMFF94_PARTIAL_CHARGES>  (1) 
24
1 -0.36
11 -0.14
13 0.28
14 0.14
15 0.27
17 -0.14
18 0.08
19 0.27
2 -0.68
21 -0.15
24 0.08
26 -0.15
3 -0.68
4 -0.53
42 0.4
44 0.15
5 -0.81
51 0.4
52 0.15
53 0.45
6 0.14
7 0.28
8 0.27
9 0.28

>  <PUBCHEM_EFFECTIVE_ROTOR_COUNT>  (1) 
4.4

>  <PUBCHEM_PHARMACOPHORE_FEATURES>  (1) 
13
1 1 acceptor
1 2 acceptor
1 2 donor
1 3 acceptor
1 3 donor
1 4 donor
1 5 cation
4 20 22 23 25 rings
5 1 6 9 11 18 rings
6 11 17 18 21 24 26 rings
6 5 6 7 8 10 15 rings
6 6 7 8 11 14 17 rings
6 6 7 9 12 13 16 rings

>  <PUBCHEM_HEAVY_ATOM_COUNT>  (1) 
26

>  <PUBCHEM_ATOM_DEF_STEREO_COUNT>  (1) 
5

>  <PUBCHEM_ATOM_UDEF_STEREO_COUNT>  (1) 
0

>  <PUBCHEM_BOND_DEF_STEREO_COUNT>  (1) 
0

>  <PUBCHEM_BOND_UDEF_STEREO_COUNT>  (1) 
0

>  <PUBCHEM_ISOTOPIC_ATOM_COUNT>  (1) 
0

>  <PUBCHEM_COMPONENT_COUNT>  (1) 
1

>  <PUBCHEM_CACTVS_TAUTO_COUNT>  (1) 
3

>  <PUBCHEM_CONFORMER_ID>  (1) 
00007C3D00000001

>  <PUBCHEM_MMFF94_ENERGY>  (1) 
156.5141

>  <PUBCHEM_FEATURE_SELFOVERLAP>  (1) 
67.498

>  <PUBCHEM_SHAPE_FINGERPRINT>  (1) 
10165383 225 18130229263719179249
10319926 262 18338784664484405842
10411042 1 18048882089444224195
10863032 1 18338239232726898019
10948715 1 18196089945835082733
11101153 10 18120935277151616260
11315181 36 17822003264448276220
11405975 8 18340478981695553834
11578080 2 17917167012732002214
11961588 58 18270384019438247829
12011746 2 18336822014031711389
12035758 1 18265636354579687497
12236239 1 16443355251778383136
12403814 3 18271527597430441670
12422481 6 18055383390056156835
12788726 201 18336245908651367675
13140716 1 18189628287771402985
13224815 77 17022892442301226762
13583140 156 17632571686963048988
14142880 1 17240755142920622564
14251740 79 10519982673288186420
14251751 93 18411134736535323592
14713325 29 18412825797871579191
15131766 46 15215307519064315262
15163728 17 17912648999242515433
15209289 33 17676209095787892240
15209294 21 17822291245672907416
16087824 20 18408319970611831757
16945 1 18262537926253630029
17349148 13 17095238147098431218
17492 54 18119216555777569261
17980427 23 18261399978605125365
200 152 17531516698356695002
21033648 29 18201144456712962304
21236236 1 18342172293124888110
21756936 100 18262226721429290092
22182313 1 18119830022782514405
22224240 67 18342463587288744969
23227448 37 18409729569064825316
23402539 116 18186799210309472898
23419403 2 15911331382249582883
23557571 272 18343305894361675456
23559900 14 18199767872992500078
25147074 1 18042138706904548460
2748010 2 17901685764954762805
3380486 145 18269573718260412985
34934 24 18041838411412612817
350125 39 18129381660312489096
3729539 64 17698180452168355990
392239 28 17169013156149655969
5104073 3 17752491958013285249
9862522 239 18115020788618628429

>  <PUBCHEM_SHAPE_MULTIPOLES>  (1) 
506.61
9.99
2.73
1.44
18.25
0.12
0.08
-3.06
-1.85
-3.9
0.68
-0.36
0.26
0.06

>  <PUBCHEM_SHAPE_SELFOVERLAP>  (1) 
1129.193

>  <PUBCHEM_SHAPE_VOLUME>  (1) 
267.7

>  <PUBCHEM_COORDINATE_TYPE>  (1) 
2
5
10

$$$$
