31806
     RDKit          3D

 29 33  0  0  1  0  0  0  0  0999 V2000
    4.3890    2.0050   -0.6763 O   0  0  0  0  0  0  0  0  0  0  0  0
    0.9679    0.1638    1.4343 O   0  0  0  0  0  0  0  0  0  0  0  0
   -1.2064    0.1037    1.8361 O   0  0  0  0  0  0  0  0  0  0  0  0
   -0.4857    0.0971   -0.3534 O   0  0  0  0  0  0  0  0  0  0  0  0
   -3.7035   -0.0442   -1.3007 O   0  0  0  0  0  0  0  0  0  0  0  0
    4.3789   -1.5159    0.0883 N   0  0  0  0  0  0  0  0  0  0  0  0
    4.6206   -0.1306    0.5374 C   0  0  0  0  0  0  0  0  0  0  0  0
    3.4200   -1.3323   -1.0184 C   0  0  0  0  0  0  0  0  0  0  0  0
    4.7940    0.6525   -0.7725 C   0  0  0  0  0  0  0  0  0  0  0  0
    3.9369   -0.1085   -1.7896 C   0  0  0  0  0  0  0  0  0  0  0  0
    3.3767    0.2761    1.3552 C   0  0  0  0  0  0  0  0  0  0  0  0
    2.0543   -1.0574   -0.3598 C   0  0  0  0  0  0  0  0  0  0  0  0
    2.0769    0.1848    0.5430 C   0  0  0  0  0  0  0  0  0  0  0  0
    5.5972   -2.2054   -0.3274 C   0  0  0  0  0  0  0  0  0  0  0  0
    5.1760    2.7261    0.2653 C   0  0  0  0  0  0  0  0  0  0  0  0
   -0.2662    0.1196    0.8502 C   0  0  0  0  0  0  0  0  0  0  0  0
   -2.5665    0.0564    1.3921 C   0  0  0  0  0  0  0  0  0  0  0  0
   -2.8196    1.2775    0.5532 C   0  0  0  0  0  0  0  0  0  0  0  0
   -2.7965   -1.2219    0.6364 C   0  0  0  0  0  0  0  0  0  0  0  0
   -3.3761    1.1605   -0.7244 C   0  0  0  0  0  0  0  0  0  0  0  0
   -3.3534   -1.2014   -0.6459 C   0  0  0  0  0  0  0  0  0  0  0  0
   -2.5079    2.5540    1.0437 C   0  0  0  0  0  0  0  0  0  0  0  0
   -2.4665   -2.4564    1.2146 C   0  0  0  0  0  0  0  0  0  0  0  0
   -3.6293    2.2994   -1.4944 C   0  0  0  0  0  0  0  0  0  0  0  0
   -3.5857   -2.3941   -1.3367 C   0  0  0  0  0  0  0  0  0  0  0  0
   -2.7566    3.6904    0.2731 C   0  0  0  0  0  0  0  0  0  0  0  0
   -2.6943   -3.6465    0.5230 C   0  0  0  0  0  0  0  0  0  0  0  0
   -3.3191    3.5630   -0.9948 C   0  0  0  0  0  0  0  0  0  0  0  0
   -3.2553   -3.6153   -0.7516 C   0  0  0  0  0  0  0  0  0  0  0  0
  1  9  1  0
  1 15  1  0
  2 13  1  0
  2 16  1  0
  3 16  1  0
  3 17  1  0
  4 16  2  0
  5 20  1  0
  5 21  1  0
  6  7  1  0
  6  8  1  0
  6 14  1  0
  7  9  1  0
  7 11  1  0
  8 10  1  0
  8 12  1  0
  9 10  1  0
 11 13  1  0
 12 13  1  0
 17 18  1  0
 17 19  1  0
 18 20  2  0
 18 22  1  0
 19 21  2  0
 19 23  1  0
 20 24  1  0
 21 25  1  0
 22 26  2  0
 23 27  2  0
 24 28  2  0
 25 29  2  0
 26 28  1  0
 27 29  1  0
M  END
>  <PUBCHEM_COMPOUND_CID>  (1) 
31806

>  <PUBCHEM_CONFORMER_RMSD>  (1) 
0.8

>  <PUBCHEM_CONFORMER_DIVERSEORDER>  (1) 
1
122
135
140
120
102
105
50
103
141
91
129
71
128
85
121
108
28
127
132
115
139
107
44
136
99
81
57
35
142
123
31
86
143
94
113
59
47
18
54
65
125
145
34
137
119
134
116
56
25
66
75
69
53
87
82
60
52
49
70
13
62
96
61
36
98
20
58
39
30
64
40
133
43
118
144
67
12
29
68
19
138
83
106
93
109
24
10
51
41
63
80
130
73
42
126
21
17
77
22
5
97
78
100
131
11
23
124
89
88
74
45
55
2
6
8
3
14
95
7
79
90
4
9
84
33
72
76
112
110
26
48
32
46
114
16
37
15
101
111
117
92
27
38
104

>  <PUBCHEM_MMFF94_PARTIAL_CHARGES>  (1) 
34
1 -0.56
13 0.28
14 0.27
15 0.28
16 0.87
17 0.57
18 -0.14
19 -0.14
2 -0.43
20 0.08
21 0.08
22 -0.15
23 -0.15
24 -0.15
25 -0.15
26 -0.15
27 -0.15
28 -0.15
29 -0.15
3 -0.43
4 -0.57
47 0.15
48 0.15
49 0.15
5 -0.17
50 0.15
51 0.15
52 0.15
53 0.15
54 0.15
6 -0.81
7 0.27
8 0.27
9 0.28

>  <PUBCHEM_EFFECTIVE_ROTOR_COUNT>  (1) 
6.6

>  <PUBCHEM_PHARMACOPHORE_FEATURES>  (1) 
7
1 1 acceptor
1 5 acceptor
1 6 cation
6 18 20 22 24 26 28 rings
6 19 21 23 25 27 29 rings
6 5 17 18 19 20 21 rings
8 6 7 8 9 10 11 12 13 rings

>  <PUBCHEM_HEAVY_ATOM_COUNT>  (1) 
29

>  <PUBCHEM_ATOM_DEF_STEREO_COUNT>  (1) 
0

>  <PUBCHEM_ATOM_UDEF_STEREO_COUNT>  (1) 
4

>  <PUBCHEM_BOND_DEF_STEREO_COUNT>  (1) 
0

>  <PUBCHEM_BOND_UDEF_STEREO_COUNT>  (1) 
0

>  <PUBCHEM_ISOTOPIC_ATOM_COUNT>  (1) 
0

>  <PUBCHEM_COMPONENT_COUNT>  (1) 
1

>  <PUBCHEM_CACTVS_TAUTO_COUNT>  (1) 
1

>  <PUBCHEM_CONFORMER_ID>  (1) 
00007C3E00000001

>  <PUBCHEM_MMFF94_ENERGY>  (1) 
95.476

>  <PUBCHEM_FEATURE_SELFOVERLAP>  (1) 
35.578

>  <PUBCHEM_SHAPE_FINGERPRINT>  (1) 
10369192 42 14058444119718489850
107951 10 18197774410992764911
10928967 22 14045478712826019316
11315621 246 18057060205396854814
11405975 8 18335703793747543938
11488393 25 16530897598819894139
12788726 201 18262785350919834011
13224815 77 17775571948557453002
13583140 156 18060128852171143610
13690498 29 18269291178069093982
13944108 23 16747608531314221053
14251757 5 18409728474122244007
14251764 38 18260550056507672988
14910302 57 18342448257611130699
15064986 266 18412270544963561527
15463212 79 18187640272095589507
15475509 35 12098150303649970813
15475509 8 18198327633325717831
15788980 27 18261398810790550178
16994733 274 15069438494911904407
17349148 13 15430309287198469946
17844677 252 18410016537636653172
19958102 18 18338789023296189695
20693207 138 17988633142671055793
20775438 99 17695019605299071773
20775530 9 16768995621907334415
21033648 144 18413673504774092036
21709351 56 18340491071828187878
22393880 68 18340497707515724094
22907989 373 18342450457114336749
235170 7 18201445821729991548
23559900 14 18270963428339467138
23572383 38 17845364463033363134
249057 3 18192997015568525942
25265897 201 18052007785941793549
312425 83 18336270055041590132
32027 91 17912931587401927526
4015057 19 17417515918020548992
44062 13 18341054029828490990
497634 4 17774176711040475609
633830 44 17167874032438804738
7399639 24 17840575217725829400

>  <PUBCHEM_SHAPE_MULTIPOLES>  (1) 
562.48
11.92
4.35
1.54
15.67
0.38
-0.01
0.5
-2.93
-5.37
-0.59
-0.48
0.05
0.56

>  <PUBCHEM_SHAPE_SELFOVERLAP>  (1) 
1243.735

>  <PUBCHEM_SHAPE_VOLUME>  (1) 
300.1

>  <PUBCHEM_COORDINATE_TYPE>  (1) 
2
5
10

$$$$
