31811
     RDKit          3D

 16 16  0  0  1  0  0  0  0  0999 V2000
    3.5374   -0.4149    0.5776 O   0  0  0  0  0  0  0  0  0  0  0  0
    1.8403   -2.4208   -0.3006 O   0  0  0  0  0  0  0  0  0  0  0  0
    2.6299    2.1992    0.6845 O   0  0  0  0  0  0  0  0  0  0  0  0
   -2.4782   -1.3193    1.3432 O   0  0  0  0  0  0  0  0  0  0  0  0
   -4.1474   -1.2225   -0.1883 O   0  0  0  0  0  0  0  0  0  0  0  0
   -3.9450    1.5317   -0.1689 N   0  0  0  0  0  0  0  0  0  0  0  0
   -1.7450    0.8202   -0.9816 C   0  0  0  0  0  0  0  0  0  0  0  0
   -2.7553    0.7474    0.1726 C   0  0  0  0  0  0  0  0  0  0  0  0
   -0.3381    0.4909   -0.5667 C   0  0  0  0  0  0  0  0  0  0  0  0
    0.5025    1.5063   -0.1296 C   0  0  0  0  0  0  0  0  0  0  0  0
    0.1041   -0.8243   -0.6257 C   0  0  0  0  0  0  0  0  0  0  0  0
    1.4096   -1.1296   -0.2407 C   0  0  0  0  0  0  0  0  0  0  0  0
    1.8080    1.2012    0.2552 C   0  0  0  0  0  0  0  0  0  0  0  0
    2.2617   -0.1168    0.1998 C   0  0  0  0  0  0  0  0  0  0  0  0
   -3.2239   -0.6792    0.4048 C   0  0  0  0  0  0  0  0  0  0  0  0
    4.5394   -0.3696   -0.4355 C   0  0  0  0  0  0  0  0  0  0  0  0
  1 14  1  0
  1 16  1  0
  2 12  1  0
  3 13  1  0
  4 15  1  0
  5 15  2  0
  6  8  1  0
  7  8  1  0
  7  9  1  0
  8 15  1  0
  9 10  2  0
  9 11  1  0
 10 13  1  0
 11 12  2  0
 12 14  1  0
 13 14  2  0
M  END
>  <PUBCHEM_COMPOUND_CID>  (1) 
31811

>  <PUBCHEM_CONFORMER_RMSD>  (1) 
0.6

>  <PUBCHEM_CONFORMER_DIVERSEORDER>  (1) 
3
20
11
32
28
6
26
10
23
27
15
13
12
8
31
22
25
29
2
18
16
17
24
5
30
4
21
7
1
19
14
9

>  <PUBCHEM_MMFF94_PARTIAL_CHARGES>  (1) 
23
1 -0.36
10 -0.15
11 -0.15
12 0.08
13 0.08
14 0.08
15 0.66
16 0.28
2 -0.53
20 0.15
21 0.15
22 0.36
23 0.36
24 0.45
25 0.45
26 0.5
3 -0.53
4 -0.65
5 -0.57
6 -0.99
7 0.14
8 0.33
9 -0.14

>  <PUBCHEM_EFFECTIVE_ROTOR_COUNT>  (1) 
4

>  <PUBCHEM_PHARMACOPHORE_FEATURES>  (1) 
9
1 1 acceptor
1 2 donor
1 3 donor
1 4 acceptor
1 5 acceptor
1 6 cation
1 6 donor
3 4 5 15 anion
6 9 10 11 12 13 14 rings

>  <PUBCHEM_HEAVY_ATOM_COUNT>  (1) 
16

>  <PUBCHEM_ATOM_DEF_STEREO_COUNT>  (1) 
0

>  <PUBCHEM_ATOM_UDEF_STEREO_COUNT>  (1) 
1

>  <PUBCHEM_BOND_DEF_STEREO_COUNT>  (1) 
0

>  <PUBCHEM_BOND_UDEF_STEREO_COUNT>  (1) 
0

>  <PUBCHEM_ISOTOPIC_ATOM_COUNT>  (1) 
0

>  <PUBCHEM_COMPONENT_COUNT>  (1) 
1

>  <PUBCHEM_CACTVS_TAUTO_COUNT>  (1) 
10

>  <PUBCHEM_CONFORMER_ID>  (1) 
00007C4300000003

>  <PUBCHEM_MMFF94_ENERGY>  (1) 
42.724

>  <PUBCHEM_FEATURE_SELFOVERLAP>  (1) 
45.73

>  <PUBCHEM_SHAPE_FINGERPRINT>  (1) 
10366900 7 18334012804513622387
10608611 8 18410006633247363845
11471102 20 18342168926113296596
11471102 22 18413112761884741027
11615757 297 17988928885270569649
12032990 46 18341615872028204390
12251169 10 18341898463617264525
12500047 106 18188205403966354013
12670546 56 13901620771768552646
13675066 3 17632290173041755216
13760787 19 17676770868730259618
15219456 202 18409164437120227009
15309172 13 18060699481077944343
15653759 3 18260264148612386017
16945 1 18270382920179723756
17804303 29 18409169904602921972
18175812 5 18334855026035977853
200 152 18131340934842066023
20201158 50 18408041788656530395
20279233 1 18335141956000728591
20645477 70 18201993322475039949
21501502 16 18333737939744930861
23402539 116 16732701619325981636
23559900 14 18117839902563208734
2748010 2 18265879415084085188
3286 77 18411416254039850452
5104073 3 18410291423564145105
568465 68 18342178894574115890
69090 78 18411695453633226333
8809292 202 18260269624832682681
9709674 26 18409171017427070219

>  <PUBCHEM_SHAPE_MULTIPOLES>  (1) 
294.94
7.36
1.95
0.87
1.09
0.03
0.04
0.71
0.53
-0.27
0.14
0.18
0.05
0.7

>  <PUBCHEM_SHAPE_SELFOVERLAP>  (1) 
612.417

>  <PUBCHEM_SHAPE_VOLUME>  (1) 
168.5

>  <PUBCHEM_COORDINATE_TYPE>  (1) 
2
5
10

$$$$
