31813
     RDKit          3D

 24 26  0  0  1  0  0  0  0  0999 V2000
    2.3044   -0.2608    2.7279 O   0  0  0  0  0  0  0  0  0  0  0  0
    0.3974    0.1228   -2.3985 O   0  0  0  0  0  0  0  0  0  0  0  0
   -0.4322    1.0001    1.1352 N   0  0  0  0  0  0  0  0  0  0  0  0
   -4.5282    0.9945   -0.2920 N   0  0  0  0  0  0  0  0  0  0  0  0
    0.2290   -0.2338    1.5620 C   0  0  0  0  0  0  0  0  0  0  0  0
   -0.0376   -1.4147    0.6725 C   0  0  0  0  0  0  0  0  0  0  0  0
   -1.8738    0.8210    1.0976 C   0  0  0  0  0  0  0  0  0  0  0  0
   -2.5578    2.1281    0.6925 C   0  0  0  0  0  0  0  0  0  0  0  0
    1.7154    0.0065    1.6798 C   0  0  0  0  0  0  0  0  0  0  0  0
    0.3103   -1.4214   -0.6823 C   0  0  0  0  0  0  0  0  0  0  0  0
    2.4943    0.5419    0.5278 C   0  0  0  0  0  0  0  0  0  0  0  0
   -4.0832    2.0151    0.6491 C   0  0  0  0  0  0  0  0  0  0  0  0
    2.1074    0.4531   -0.8187 C   0  0  0  0  0  0  0  0  0  0  0  0
    0.9058   -0.2481   -1.3428 C   0  0  0  0  0  0  0  0  0  0  0  0
   -0.6421   -2.5622    1.2130 C   0  0  0  0  0  0  0  0  0  0  0  0
    0.0366   -2.5387   -1.4844 C   0  0  0  0  0  0  0  0  0  0  0  0
    3.6886    1.2101    0.8591 C   0  0  0  0  0  0  0  0  0  0  0  0
    2.9213    1.0526   -1.8001 C   0  0  0  0  0  0  0  0  0  0  0  0
   -0.9031   -3.6796    0.4182 C   0  0  0  0  0  0  0  0  0  0  0  0
   -0.5648   -3.6670   -0.9310 C   0  0  0  0  0  0  0  0  0  0  0  0
    4.4847    1.7916   -0.1264 C   0  0  0  0  0  0  0  0  0  0  0  0
    4.0992    1.7156   -1.4569 C   0  0  0  0  0  0  0  0  0  0  0  0
   -4.0866    1.3176   -1.6500 C   0  0  0  0  0  0  0  0  0  0  0  0
   -5.9850    0.8558   -0.2518 C   0  0  0  0  0  0  0  0  0  0  0  0
  1  9  2  0
  2 14  2  0
  3  5  1  0
  3  7  1  0
  4 12  1  0
  4 23  1  0
  4 24  1  0
  5  6  1  0
  5  9  1  0
  6 10  2  0
  6 15  1  0
  7  8  1  0
  8 12  1  0
  9 11  1  0
 10 14  1  0
 10 16  1  0
 11 13  2  0
 11 17  1  0
 13 14  1  0
 13 18  1  0
 15 19  2  0
 16 20  2  0
 17 21  2  0
 18 22  2  0
 19 20  1  0
 21 22  1  0
M  END
>  <PUBCHEM_COMPOUND_CID>  (1) 
31813

>  <PUBCHEM_CONFORMER_RMSD>  (1) 
0.8

>  <PUBCHEM_CONFORMER_DIVERSEORDER>  (1) 
2
30
41
52
50
21
18
7
33
29
36
5
6
37
20
24
16
22
47
17
46
31
53
48
49
13
32
25
4
35
34
45
1
11
43
9
51
44
42
10
15
27
8
14
40
3
12
28
39
38
26
23
19

>  <PUBCHEM_MMFF94_PARTIAL_CHARGES>  (1) 
32
1 -0.57
10 0.09
11 0.09
12 0.27
13 0.09
14 0.4
15 -0.15
16 -0.15
17 -0.15
18 -0.15
19 -0.15
2 -0.57
20 -0.15
21 -0.15
22 -0.15
23 0.27
24 0.27
28 0.36
3 -0.9
33 0.15
34 0.15
35 0.15
36 0.15
37 0.15
38 0.15
39 0.15
4 -0.81
40 0.15
5 0.47
6 -0.14
7 0.27
9 0.42

>  <PUBCHEM_EFFECTIVE_ROTOR_COUNT>  (1) 
5.2

>  <PUBCHEM_PHARMACOPHORE_FEATURES>  (1) 
8
1 1 acceptor
1 2 acceptor
1 3 cation
1 3 donor
1 4 cation
6 11 13 17 18 21 22 rings
6 6 10 15 16 19 20 rings
7 5 6 9 10 11 13 14 rings

>  <PUBCHEM_HEAVY_ATOM_COUNT>  (1) 
24

>  <PUBCHEM_ATOM_DEF_STEREO_COUNT>  (1) 
0

>  <PUBCHEM_ATOM_UDEF_STEREO_COUNT>  (1) 
1

>  <PUBCHEM_BOND_DEF_STEREO_COUNT>  (1) 
0

>  <PUBCHEM_BOND_UDEF_STEREO_COUNT>  (1) 
0

>  <PUBCHEM_ISOTOPIC_ATOM_COUNT>  (1) 
0

>  <PUBCHEM_COMPONENT_COUNT>  (1) 
1

>  <PUBCHEM_CACTVS_TAUTO_COUNT>  (1) 
16

>  <PUBCHEM_CONFORMER_ID>  (1) 
00007C4500000002

>  <PUBCHEM_MMFF94_ENERGY>  (1) 
76.4667

>  <PUBCHEM_FEATURE_SELFOVERLAP>  (1) 
40.611

>  <PUBCHEM_SHAPE_FINGERPRINT>  (1) 
10764073 3 14853824182034819877
11421498 54 17607807510703573411
11578080 2 18122657022081309932
11582403 64 17967257523993378393
11640471 11 17968098663431765048
11961588 58 18129659824297215128
121448 382 18273217521253893771
12293681 4 17051284211499849447
12633257 1 13407080348346708176
12788726 201 18046902968107993651
13149001 5 17986949846029945625
13257819 37 18339376252330314031
14251757 17 15841542015974593397
144659 39 17749403576543784561
15163728 17 18264508216346341997
15849732 13 18189883237509836818
17357779 13 17058373836362800214
173720 79 18334566971126944409
17980427 26 17053634709477159763
20567600 347 18272083856062251195
21285901 2 17626698189910236279
21756936 100 16735826582113143580
22907989 373 17842018841906500484
229495 10 17169242928372879296
23419403 2 16695608524720573262
238 59 17774735164025818683
3052486 1 18268980042290654551
3323516 105 15985098613489125329
404807 78 18043245946318245051
4409770 3 18128829722755714254
58260988 393 17829331637494627752
59755656 520 18410291428159526140
6669772 16 17274235302620969426
8509985 295 9007051384061343265

>  <PUBCHEM_SHAPE_MULTIPOLES>  (1) 
472.21
8.19
3.51
2.13
7.49
4.21
0.01
-9.26
-1.73
1.7
-0.39
-1.04
0.02
-0.39

>  <PUBCHEM_SHAPE_SELFOVERLAP>  (1) 
1015.279

>  <PUBCHEM_SHAPE_VOLUME>  (1) 
259.4

>  <PUBCHEM_COORDINATE_TYPE>  (1) 
2
5
10

$$$$
