31822
     RDKit          3D

 21 21  0  0  1  0  0  0  0  0999 V2000
    0.1751   -2.4790   -1.1021 I   0  0  0  0  0  0  0  0  0  0  0  0
   -3.1226    2.1669    1.1138 I   0  0  0  0  0  0  0  0  0  0  0  0
    2.8051    2.6886    0.8694 I   0  0  0  0  0  0  0  0  0  0  0  0
   -4.6582   -0.4345   -1.0443 O   0  0  0  0  0  0  0  0  0  0  0  0
   -2.9657    0.6342   -2.1059 O   0  0  0  0  0  0  0  0  0  0  0  0
    4.3205   -1.6165    0.2728 O   0  0  0  0  0  0  0  0  0  0  0  0
    2.4613   -0.3141   -0.3696 N   0  0  0  0  0  0  0  0  0  0  0  0
   -2.4523   -0.7857   -0.1809 C   0  0  0  0  0  0  0  0  0  0  0  0
   -1.1827    0.0184    0.0578 C   0  0  0  0  0  0  0  0  0  0  0  0
   -3.2702   -1.0647    1.0963 C   0  0  0  0  0  0  0  0  0  0  0  0
    1.2042    0.2163   -0.0466 C   0  0  0  0  0  0  0  0  0  0  0  0
    0.0459   -0.5285   -0.2696 C   0  0  0  0  0  0  0  0  0  0  0  0
   -1.2891    1.2872    0.6011 C   0  0  0  0  0  0  0  0  0  0  0  0
    1.1157    1.4965    0.5003 C   0  0  0  0  0  0  0  0  0  0  0  0
    2.9550   -0.1555   -1.7693 C   0  0  0  0  0  0  0  0  0  0  0  0
   -3.3483   -0.1120   -1.2142 C   0  0  0  0  0  0  0  0  0  0  0  0
   -2.4934   -1.8595    2.1385 C   0  0  0  0  0  0  0  0  0  0  0  0
   -0.1311    2.0318    0.8241 C   0  0  0  0  0  0  0  0  0  0  0  0
    3.2486   -1.0756    0.5560 C   0  0  0  0  0  0  0  0  0  0  0  0
    3.8299    1.0789   -1.9064 C   0  0  0  0  0  0  0  0  0  0  0  0
    2.7523   -1.1932    1.9789 C   0  0  0  0  0  0  0  0  0  0  0  0
  1 12  1  0
  2 13  1  0
  3 14  1  0
  4 16  1  0
  5 16  2  0
  6 19  2  0
  7 11  1  0
  7 15  1  0
  7 19  1  0
  8  9  1  0
  8 10  1  0
  8 16  1  0
  9 12  2  0
  9 13  1  0
 10 17  1  0
 11 12  1  0
 11 14  2  0
 13 18  2  0
 14 18  1  0
 15 20  1  0
 19 21  1  0
M  END
>  <PUBCHEM_COMPOUND_CID>  (1) 
31822

>  <PUBCHEM_CONFORMER_RMSD>  (1) 
0.8

>  <PUBCHEM_CONFORMER_DIVERSEORDER>  (1) 
1
16
15
10
14
13
17
7
11
9
5
4
18
8
12
6
3
2

>  <PUBCHEM_MMFF94_PARTIAL_CHARGES>  (1) 
20
1 -0.08
11 0.12
12 0.08
13 0.08
14 0.08
15 0.3
16 0.66
18 -0.15
19 0.57
2 -0.08
21 0.06
3 -0.08
30 0.15
37 0.5
4 -0.65
5 -0.57
6 -0.57
7 -0.48
8 0.2
9 -0.14

>  <PUBCHEM_EFFECTIVE_ROTOR_COUNT>  (1) 
6

>  <PUBCHEM_PHARMACOPHORE_FEATURES>  (1) 
9
1 1 hydrophobe
1 17 hydrophobe
1 2 hydrophobe
1 3 hydrophobe
1 4 acceptor
1 5 acceptor
1 6 acceptor
3 4 5 16 anion
6 9 11 12 13 14 18 rings

>  <PUBCHEM_HEAVY_ATOM_COUNT>  (1) 
21

>  <PUBCHEM_ATOM_DEF_STEREO_COUNT>  (1) 
0

>  <PUBCHEM_ATOM_UDEF_STEREO_COUNT>  (1) 
1

>  <PUBCHEM_BOND_DEF_STEREO_COUNT>  (1) 
0

>  <PUBCHEM_BOND_UDEF_STEREO_COUNT>  (1) 
0

>  <PUBCHEM_ISOTOPIC_ATOM_COUNT>  (1) 
0

>  <PUBCHEM_COMPONENT_COUNT>  (1) 
1

>  <PUBCHEM_CACTVS_TAUTO_COUNT>  (1) 
1

>  <PUBCHEM_CONFORMER_ID>  (1) 
00007C4E00000001

>  <PUBCHEM_MMFF94_ENERGY>  (1) 
101.549

>  <PUBCHEM_FEATURE_SELFOVERLAP>  (1) 
45.732

>  <PUBCHEM_SHAPE_FINGERPRINT>  (1) 
10062212 137 18269552754292990539
10863032 1 17312824891716036830
11370993 70 17022620909625745530
11543360 7 17023191564523265486
11578080 2 18042381592186043732
12363563 72 18272644636613861914
12553582 1 18130239214973566582
12596599 1 16559037073027469358
12707595 3 18343306984929973294
13140716 1 18201162070030750473
13224815 77 17704070702702069625
13583140 156 18042114513532805912
14178342 30 17773028657497043833
16752209 62 18272089366067338119
16945 1 18202286904764188407
17349148 13 18337944576506105395
18186145 218 18272092746275171989
19078846 21 18341618057908322616
192875 21 18130771365874614293
20600515 1 18059848451031267640
20645477 70 18270955846909501095
21501502 16 18201999932345864337
21864079 5 18130799970140924296
2334 1 18201440319460654233
23402539 116 17988077778078245958
23493267 7 18262540111954367562
23557571 272 17313940964996337717
23558518 356 18410579491827675953
23559900 14 17676200286620063770
23566358 2 17626941224734014319
25147074 1 18202008728328175257
2748010 2 18198063787949540365
312423 11 18342181071996109417
34934 24 18056750164429042808
633830 44 17918003797041863253
81228 2 17983865479680205032

>  <PUBCHEM_SHAPE_MULTIPOLES>  (1) 
445.39
7.54
2.92
1.92
0.23
1.08
-0.13
-0.22
0.88
-0.58
-0.47
-0.01
-0.68
-0.26

>  <PUBCHEM_SHAPE_SELFOVERLAP>  (1) 
854.165

>  <PUBCHEM_SHAPE_VOLUME>  (1) 
282

>  <PUBCHEM_COORDINATE_TYPE>  (1) 
2
5
10

$$$$
