3182
     RDKit          3D

 18 19  0  0  1  0  0  0  0  0999 V2000
   -3.3179    1.1089   -0.9195 O   0  0  0  0  0  0  0  0  0  0  0  0
   -0.2314   -2.1267    0.5916 O   0  0  0  0  0  0  0  0  0  0  0  0
   -5.1311   -1.0015   -1.0145 O   0  0  0  0  0  0  0  0  0  0  0  0
    4.0999   -0.7497   -0.5735 O   0  0  0  0  0  0  0  0  0  0  0  0
   -0.9107    0.7864    0.6303 N   0  0  0  0  0  0  0  0  0  0  0  0
    2.4816    0.8879   -0.2366 N   0  0  0  0  0  0  0  0  0  0  0  0
    1.9451   -1.4614    0.0071 N   0  0  0  0  0  0  0  0  0  0  0  0
    0.5745    2.3868    0.1800 N   0  0  0  0  0  0  0  0  0  0  0  0
    0.2665    0.1499    0.3595 C   0  0  0  0  0  0  0  0  0  0  0  0
   -2.1751    0.1844    0.9799 C   0  0  0  0  0  0  0  0  0  0  0  0
    1.1578    1.1517    0.0876 C   0  0  0  0  0  0  0  0  0  0  0  0
   -3.0347   -0.1204   -0.2485 C   0  0  0  0  0  0  0  0  0  0  0  0
    0.5827   -1.2416    0.3429 C   0  0  0  0  0  0  0  0  0  0  0  0
   -0.6749    2.1316    0.5094 C   0  0  0  0  0  0  0  0  0  0  0  0
    2.9331   -0.4545   -0.2905 C   0  0  0  0  0  0  0  0  0  0  0  0
   -4.3568   -0.7650    0.1563 C   0  0  0  0  0  0  0  0  0  0  0  0
    3.4005    1.9835   -0.5195 C   0  0  0  0  0  0  0  0  0  0  0  0
    2.3909   -2.8501   -0.0420 C   0  0  0  0  0  0  0  0  0  0  0  0
  1 12  1  0
  2 13  2  0
  3 16  1  0
  4 15  2  0
  5  9  1  0
  5 10  1  0
  5 14  1  0
  6 11  1  0
  6 15  1  0
  6 17  1  0
  7 13  1  0
  7 15  1  0
  7 18  1  0
  8 11  1  0
  8 14  2  0
  9 11  2  0
  9 13  1  0
 10 12  1  0
 12 16  1  0
M  END
>  <PUBCHEM_COMPOUND_CID>  (1) 
3182

>  <PUBCHEM_CONFORMER_RMSD>  (1) 
0.6

>  <PUBCHEM_CONFORMER_DIVERSEORDER>  (1) 
1
2
16
4
7
12
14
15
10
11
13
5
9
3
8
6

>  <PUBCHEM_MMFF94_PARTIAL_CHARGES>  (1) 
21
1 -0.68
10 0.26
11 0.29
12 0.28
13 0.71
14 0.04
15 0.69
16 0.28
17 0.3
18 0.3
2 -0.57
22 0.15
3 -0.68
31 0.4
32 0.4
4 -0.57
5 0.05
6 -0.42
7 -0.42
8 -0.57
9 -0.24

>  <PUBCHEM_EFFECTIVE_ROTOR_COUNT>  (1) 
3

>  <PUBCHEM_PHARMACOPHORE_FEATURES>  (1) 
9
1 1 acceptor
1 1 donor
1 2 acceptor
1 3 acceptor
1 3 donor
1 4 acceptor
3 5 8 14 cation
5 5 8 9 11 14 rings
6 6 7 9 11 13 15 rings

>  <PUBCHEM_HEAVY_ATOM_COUNT>  (1) 
18

>  <PUBCHEM_ATOM_DEF_STEREO_COUNT>  (1) 
0

>  <PUBCHEM_ATOM_UDEF_STEREO_COUNT>  (1) 
1

>  <PUBCHEM_BOND_DEF_STEREO_COUNT>  (1) 
0

>  <PUBCHEM_BOND_UDEF_STEREO_COUNT>  (1) 
0

>  <PUBCHEM_ISOTOPIC_ATOM_COUNT>  (1) 
0

>  <PUBCHEM_COMPONENT_COUNT>  (1) 
1

>  <PUBCHEM_CACTVS_TAUTO_COUNT>  (1) 
1

>  <PUBCHEM_CONFORMER_ID>  (1) 
00000C6E00000001

>  <PUBCHEM_MMFF94_ENERGY>  (1) 
28.8194

>  <PUBCHEM_FEATURE_SELFOVERLAP>  (1) 
45.794

>  <PUBCHEM_SHAPE_FINGERPRINT>  (1) 
10967382 1 18338524126729418618
11471102 20 18410293652641322477
11806522 49 18342457040808623472
13083527 12 18189877756857305826
13140716 1 18338247075880415482
13380535 76 18336831999972696666
13862211 1 18410013192105607914
14251717 144 18411419535368302419
14576447 43 18343015605853987575
15757776 16 18411981347176619227
16945 1 18337406945806633978
18186145 218 18333734593664713845
19422 9 18130794430017766417
200 152 18343019969303077920
20281475 54 18271244915726053193
20645477 70 18409728469711323055
21267235 1 18341061756316394407
21501502 16 18122352280860703992
21634736 98 18340770338622236582
221490 88 18265338493991687659
22182313 1 18049749569895268994
2334 1 18050581921682861994
23402539 116 18340486656301166102
23402655 69 18411696604368054493
23559900 14 18266733585247324594
2748010 2 18122083137046174018
2871803 45 18409163320734418941
3323516 105 18409164446068597879
58051976 378 18336828709669324637

>  <PUBCHEM_SHAPE_MULTIPOLES>  (1) 
327.03
7.38
2.62
0.83
6.47
0.37
-0.02
1.79
-2.55
-1.93
0.09
0.46
-0.03
-0.27

>  <PUBCHEM_SHAPE_SELFOVERLAP>  (1) 
690.243

>  <PUBCHEM_SHAPE_VOLUME>  (1) 
184.7

>  <PUBCHEM_COORDINATE_TYPE>  (1) 
2
5
10

$$$$
