31827
     RDKit          3D

 14 15  0  0  1  0  0  0  0  0999 V2000
    4.6880   -0.1613   -0.4897 Cl  0  0  0  0  0  0  0  0  0  0  0  0
   -1.9604    1.2311    0.1679 N   0  0  0  0  0  0  0  0  0  0  0  0
   -1.9317   -1.1221   -0.0322 N   0  0  0  0  0  0  0  0  0  0  0  0
   -1.2385    0.0192    0.6077 C   0  0  0  0  0  0  0  0  0  0  0  0
   -2.7780    0.8248   -0.9700 C   0  0  0  0  0  0  0  0  0  0  0  0
   -3.1859   -0.5779   -0.5559 C   0  0  0  0  0  0  0  0  0  0  0  0
    0.2577   -0.0269    0.3309 C   0  0  0  0  0  0  0  0  0  0  0  0
   -1.2073    2.4495   -0.0519 C   0  0  0  0  0  0  0  0  0  0  0  0
   -2.1431   -2.2533    0.8597 C   0  0  0  0  0  0  0  0  0  0  0  0
    0.7261   -0.5633   -0.8667 C   0  0  0  0  0  0  0  0  0  0  0  0
    1.1542    0.4682    1.2756 C   0  0  0  0  0  0  0  0  0  0  0  0
    2.0970   -0.6048   -1.1206 C   0  0  0  0  0  0  0  0  0  0  0  0
    2.5252    0.4266    1.0217 C   0  0  0  0  0  0  0  0  0  0  0  0
    2.9966   -0.1100   -0.1764 C   0  0  0  0  0  0  0  0  0  0  0  0
  1 14  1  0
  2  4  1  0
  2  5  1  0
  2  8  1  0
  3  4  1  0
  3  6  1  0
  3  9  1  0
  4  7  1  0
  5  6  1  0
  7 10  2  0
  7 11  1  0
 10 12  1  0
 11 13  2  0
 12 14  2  0
 13 14  1  0
M  END
>  <PUBCHEM_COMPOUND_CID>  (1) 
31827

>  <PUBCHEM_CONFORMER_RMSD>  (1) 
0.6

>  <PUBCHEM_CONFORMER_DIVERSEORDER>  (1) 
1
2
4
3

>  <PUBCHEM_MMFF94_PARTIAL_CHARGES>  (1) 
18
1 -0.18
10 -0.15
11 -0.15
12 -0.15
13 -0.15
14 0.18
2 -0.81
26 0.15
27 0.15
28 0.15
29 0.15
3 -0.81
4 0.68
5 0.27
6 0.27
7 -0.14
8 0.27
9 0.27

>  <PUBCHEM_EFFECTIVE_ROTOR_COUNT>  (1) 
2

>  <PUBCHEM_PHARMACOPHORE_FEATURES>  (1) 
4
1 2 cation
1 3 cation
5 2 3 4 5 6 rings
6 7 10 11 12 13 14 rings

>  <PUBCHEM_HEAVY_ATOM_COUNT>  (1) 
14

>  <PUBCHEM_ATOM_DEF_STEREO_COUNT>  (1) 
0

>  <PUBCHEM_ATOM_UDEF_STEREO_COUNT>  (1) 
0

>  <PUBCHEM_BOND_DEF_STEREO_COUNT>  (1) 
0

>  <PUBCHEM_BOND_UDEF_STEREO_COUNT>  (1) 
0

>  <PUBCHEM_ISOTOPIC_ATOM_COUNT>  (1) 
0

>  <PUBCHEM_COMPONENT_COUNT>  (1) 
1

>  <PUBCHEM_CACTVS_TAUTO_COUNT>  (1) 
1

>  <PUBCHEM_CONFORMER_ID>  (1) 
00007C5300000001

>  <PUBCHEM_MMFF94_ENERGY>  (1) 
40.0416

>  <PUBCHEM_FEATURE_SELFOVERLAP>  (1) 
20.335

>  <PUBCHEM_SHAPE_FINGERPRINT>  (1) 
11543360 7 18115603650752181150
12032990 46 17203616973714564974
12138202 97 18336819814776087463
124424 183 18201152166347439398
12500047 106 18261104149895079622
12532896 13 18051985718600474217
12716758 59 18337954476342295859
13024252 1 16153432753132826489
15219456 202 18060132176096133144
15309172 13 16271932627021451334
15375462 6 18340205297351869396
15653759 3 18341894112620273482
15775835 57 17095239185663047469
16945 1 18408319964860909513
17134986 127 17399795999670537245
17844478 74 18131074865216759082
18175812 5 18131347552743214108
18534176 82 18411139125554024167
187816 3 18335412466152779551
19026448 5 17967817141853745306
20201158 50 17917992758770320526
20279233 1 18059855077786152878
20645476 183 17603580825034547027
20871999 31 18335412479000725821
21061003 4 17274829085716977032
21501502 16 18126281948113275566
22094290 60 18410862057625274404
22802520 49 18271813367221285615
23402539 116 18410003321790214013
23493267 7 18411420570845889114
23557571 272 18411707594709485940
23559900 14 18410570666075499018
25 1 17699852821716682977
2748010 2 18124300855909471057
3286 77 16629955646122960715
57812782 119 18202558475899521350
77492 1 17022894653444597090
81228 2 18411985732765802033
8809292 202 18413390938337247842

>  <PUBCHEM_SHAPE_MULTIPOLES>  (1) 
280.02
6.25
1.73
1.16
4.89
0.28
0.06
-0.73
-1.32
-1.8
0.23
0.23
-0.07
0.66

>  <PUBCHEM_SHAPE_SELFOVERLAP>  (1) 
574.548

>  <PUBCHEM_SHAPE_VOLUME>  (1) 
164.4

>  <PUBCHEM_COORDINATE_TYPE>  (1) 
2
5
10

$$$$
