31823
     RDKit          3D

 27 28  0  0  1  0  0  0  0  0999 V2000
   -1.6139    2.2914   -1.0672 I   0  0  0  0  0  0  0  0  0  0  0  0
   -4.2177   -2.9319    0.8062 I   0  0  0  0  0  0  0  0  0  0  0  0
    1.6468   -2.7824   -0.2730 I   0  0  0  0  0  0  0  0  0  0  0  0
    7.5016   -1.4333    0.2992 I   0  0  0  0  0  0  0  0  0  0  0  0
    0.8552    0.2711   -0.9617 O   0  0  0  0  0  0  0  0  0  0  0  0
   -5.4307    1.5011    1.1118 O   0  0  0  0  0  0  0  0  0  0  0  0
    1.5620    3.1374    0.9932 O   0  0  0  0  0  0  0  0  0  0  0  0
    1.5444    2.9553   -1.2656 O   0  0  0  0  0  0  0  0  0  0  0  0
   -3.8866    0.1911   -0.0987 N   0  0  0  0  0  0  0  0  0  0  0  0
   -2.6435   -0.4555   -0.1430 C   0  0  0  0  0  0  0  0  0  0  0  0
    1.5972    0.9160    0.0706 C   0  0  0  0  0  0  0  0  0  0  0  0
   -4.6894    0.2629   -1.3551 C   0  0  0  0  0  0  0  0  0  0  0  0
   -0.2697   -0.4072   -0.5772 C   0  0  0  0  0  0  0  0  0  0  0  0
   -1.5015    0.2430   -0.5347 C   0  0  0  0  0  0  0  0  0  0  0  0
    2.9822    0.3655    0.1237 C   0  0  0  0  0  0  0  0  0  0  0  0
   -2.5516   -1.8031    0.2052 C   0  0  0  0  0  0  0  0  0  0  0  0
   -0.1758   -1.7535   -0.2297 C   0  0  0  0  0  0  0  0  0  0  0  0
   -4.3770    0.8609    1.0708 C   0  0  0  0  0  0  0  0  0  0  0  0
   -1.3177   -2.4522    0.1619 C   0  0  0  0  0  0  0  0  0  0  0  0
   -5.6828   -0.8838   -1.4381 C   0  0  0  0  0  0  0  0  0  0  0  0
    3.6023   -0.0778   -1.0444 C   0  0  0  0  0  0  0  0  0  0  0  0
    3.6575    0.2937    1.3422 C   0  0  0  0  0  0  0  0  0  0  0  0
    1.5555    2.4236   -0.1630 C   0  0  0  0  0  0  0  0  0  0  0  0
   -3.5705    0.7457    2.3440 C   0  0  0  0  0  0  0  0  0  0  0  0
    4.8977   -0.5926   -0.9941 C   0  0  0  0  0  0  0  0  0  0  0  0
    4.9529   -0.2211    1.3924 C   0  0  0  0  0  0  0  0  0  0  0  0
    5.5729   -0.6645    0.2243 C   0  0  0  0  0  0  0  0  0  0  0  0
  1 14  1  0
  2 16  1  0
  3 17  1  0
  4 27  1  0
  5 11  1  0
  5 13  1  0
  6 18  2  0
  7 23  1  0
  8 23  2  0
  9 10  1  0
  9 12  1  0
  9 18  1  0
 10 14  2  0
 10 16  1  0
 11 15  1  0
 11 23  1  0
 12 20  1  0
 13 14  1  0
 13 17  2  0
 15 21  2  0
 15 22  1  0
 16 19  2  0
 17 19  1  0
 18 24  1  0
 21 25  1  0
 22 26  2  0
 25 27  2  0
 26 27  1  0
M  END
>  <PUBCHEM_COMPOUND_CID>  (1) 
31823

>  <PUBCHEM_CONFORMER_RMSD>  (1) 
0.8

>  <PUBCHEM_CONFORMER_DIVERSEORDER>  (1) 
1
51
41
60
49
67
48
66
33
18
64
43
61
31
16
72
52
44
69
20
59
54
68
15
28
47
12
65
7
55
36
62
9
40
58
53
21
8
13
42
63
34
46
57
45
56
5
32
4
22
6
71
27
29
24
37
70
38
39
2
11
35
50
19
30
17
3
14
26
25
10
23

>  <PUBCHEM_MMFF94_PARTIAL_CHARGES>  (1) 
32
1 -0.08
10 0.12
11 0.48
12 0.3
13 0.08
14 0.08
15 -0.14
16 0.08
17 0.08
18 0.57
19 -0.15
2 -0.08
21 -0.15
22 -0.15
23 0.66
24 0.06
25 -0.15
26 -0.15
27 0.08
3 -0.08
31 0.15
35 0.15
36 0.15
4 -0.08
40 0.15
41 0.15
42 0.5
5 -0.36
6 -0.57
7 -0.65
8 -0.57
9 -0.48

>  <PUBCHEM_EFFECTIVE_ROTOR_COUNT>  (1) 
7

>  <PUBCHEM_PHARMACOPHORE_FEATURES>  (1) 
11
1 1 hydrophobe
1 2 hydrophobe
1 3 hydrophobe
1 4 hydrophobe
1 5 acceptor
1 6 acceptor
1 7 acceptor
1 8 acceptor
3 7 8 23 anion
6 10 13 14 16 17 19 rings
6 15 21 22 25 26 27 rings

>  <PUBCHEM_HEAVY_ATOM_COUNT>  (1) 
27

>  <PUBCHEM_ATOM_DEF_STEREO_COUNT>  (1) 
0

>  <PUBCHEM_ATOM_UDEF_STEREO_COUNT>  (1) 
1

>  <PUBCHEM_BOND_DEF_STEREO_COUNT>  (1) 
0

>  <PUBCHEM_BOND_UDEF_STEREO_COUNT>  (1) 
0

>  <PUBCHEM_ISOTOPIC_ATOM_COUNT>  (1) 
0

>  <PUBCHEM_COMPONENT_COUNT>  (1) 
1

>  <PUBCHEM_CACTVS_TAUTO_COUNT>  (1) 
1

>  <PUBCHEM_CONFORMER_ID>  (1) 
00007C4F00000001

>  <PUBCHEM_MMFF94_ENERGY>  (1) 
116.6589

>  <PUBCHEM_FEATURE_SELFOVERLAP>  (1) 
55.886

>  <PUBCHEM_SHAPE_FINGERPRINT>  (1) 
10366900 7 18186517704998913833
11089746 13 17632572734766543642
11315181 36 18272367594080505919
11646440 116 18272093794489818074
12011746 2 18334848403169929870
12166972 35 18059570329954737809
12403260 363 18269272537942547623
12553582 1 18333450932665642156
12633257 1 18409453587208692385
12788726 201 17822567188884851696
13140716 1 18337675337970335849
13402501 40 18412540994928171438
13583140 156 16443345377843391303
14251764 18 18202279204647358318
14420673 8 18408888404273639266
14466204 15 18411700976291372994
14790565 3 18337120072024955540
14955137 171 18411982485907325298
15183329 4 18335700512609366098
15420108 30 18056479457293779579
15537594 2 17748824094987278498
1601671 61 18409451371369577526
16110190 28 18336547205160527728
16112460 7 18341337760000909016
17349148 13 18201442514641979837
17492 89 18047472515236702451
17804303 29 18335137639411013526
19489759 90 17846495928895613323
20028762 73 18201147849531261631
21033648 29 17561072627441685890
21403212 168 18341616950170568825
22182313 1 18119249458730434004
23559900 14 18262510532609545701
23569943 247 17913778214927940526
3004659 81 17967810549284927782
312423 11 18117005591958831223
335352 9 18407755936923483815
350125 39 18265906928602398067
437815 12 18273213089153579912
4409770 3 17970054561315720604
508706 21 18335420119489043655
5104073 3 18337956804404448880
5385378 56 18268720398363944131
59755656 215 18335975368360875038
6086070 43 18188192295578610015
6328613 192 18341618165783885696
7226269 152 18202283559274971416

>  <PUBCHEM_SHAPE_MULTIPOLES>  (1) 
574.93
14.44
3.31
1.49
12.72
0.18
0.44
-4.95
1.85
-1.36
-0.02
-1.06
0.42
0.03

>  <PUBCHEM_SHAPE_SELFOVERLAP>  (1) 
1130.129

>  <PUBCHEM_SHAPE_VOLUME>  (1) 
354.9

>  <PUBCHEM_COORDINATE_TYPE>  (1) 
2
5
10

$$$$
