31824
     RDKit          3D

 19 19  0  0  0  0  0  0  0  0999 V2000
    4.6064   -0.8350   -1.7928 Cl  0  0  0  0  0  0  0  0  0  0  0  0
    4.9085   -1.2692    1.0901 Cl  0  0  0  0  0  0  0  0  0  0  0  0
    5.7245    1.2445   -0.1066 Cl  0  0  0  0  0  0  0  0  0  0  0  0
   -3.7237    0.0254    0.6707 S   0  0  0  0  0  0  0  0  0  0  0  0
   -4.2293   -1.2587    1.1198 O   0  0  0  0  0  0  0  0  0  0  0  0
   -3.9522    1.2060    1.4832 O   0  0  0  0  0  0  0  0  0  0  0  0
    2.9240    1.6567    0.2586 O   0  0  0  0  0  0  0  0  0  0  0  0
   -4.2631    0.3232   -0.9400 N   0  0  0  0  0  0  0  0  0  0  0  0
    2.1415   -0.5332   -0.0116 N   0  0  0  0  0  0  0  0  0  0  0  0
   -1.9723   -0.1411    0.4672 C   0  0  0  0  0  0  0  0  0  0  0  0
   -1.4407   -1.3923    0.2151 C   0  0  0  0  0  0  0  0  0  0  0  0
   -1.1740    0.9833    0.5646 C   0  0  0  0  0  0  0  0  0  0  0  0
    0.7616   -0.4016    0.1492 C   0  0  0  0  0  0  0  0  0  0  0  0
   -0.0614   -1.5237    0.0547 C   0  0  0  0  0  0  0  0  0  0  0  0
    0.2053    0.8520    0.4042 C   0  0  0  0  0  0  0  0  0  0  0  0
   -3.7351    1.5232   -1.6373 C   0  0  0  0  0  0  0  0  0  0  0  0
   -4.3891   -0.8402   -1.8543 C   0  0  0  0  0  0  0  0  0  0  0  0
    3.1311    0.4639    0.0475 C   0  0  0  0  0  0  0  0  0  0  0  0
    4.5378   -0.0833   -0.1824 C   0  0  0  0  0  0  0  0  0  0  0  0
  1 19  1  0
  2 19  1  0
  3 19  1  0
  4  5  2  0
  4  6  2  0
  4  8  1  0
  4 10  1  0
  7 18  2  0
  8 16  1  0
  8 17  1  0
  9 13  1  0
  9 18  1  0
 10 11  2  0
 10 12  1  0
 11 14  1  0
 12 15  2  0
 13 14  2  0
 13 15  1  0
 18 19  1  0
M  END
>  <PUBCHEM_COMPOUND_CID>  (1) 
31824

>  <PUBCHEM_CONFORMER_RMSD>  (1) 
0.6

>  <PUBCHEM_CONFORMER_DIVERSEORDER>  (1) 
2
1
11
8
10
7
9
4
5
3
6

>  <PUBCHEM_MMFF94_PARTIAL_CHARGES>  (1) 
24
1 -0.29
10 -0.01
11 -0.15
12 -0.15
13 0.12
14 -0.15
15 -0.15
16 0.36
17 0.36
18 0.57
19 0.93
2 -0.29
20 0.15
21 0.15
22 0.15
23 0.15
3 -0.29
30 0.37
4 1.45
5 -0.65
6 -0.65
7 -0.57
8 -0.85
9 -0.55

>  <PUBCHEM_EFFECTIVE_ROTOR_COUNT>  (1) 
5

>  <PUBCHEM_PHARMACOPHORE_FEATURES>  (1) 
5
1 5 acceptor
1 6 acceptor
1 7 acceptor
1 9 donor
6 10 11 12 13 14 15 rings

>  <PUBCHEM_HEAVY_ATOM_COUNT>  (1) 
19

>  <PUBCHEM_ATOM_DEF_STEREO_COUNT>  (1) 
0

>  <PUBCHEM_ATOM_UDEF_STEREO_COUNT>  (1) 
0

>  <PUBCHEM_BOND_DEF_STEREO_COUNT>  (1) 
0

>  <PUBCHEM_BOND_UDEF_STEREO_COUNT>  (1) 
0

>  <PUBCHEM_ISOTOPIC_ATOM_COUNT>  (1) 
0

>  <PUBCHEM_COMPONENT_COUNT>  (1) 
1

>  <PUBCHEM_CACTVS_TAUTO_COUNT>  (1) 
2

>  <PUBCHEM_CONFORMER_ID>  (1) 
00007C5000000002

>  <PUBCHEM_MMFF94_ENERGY>  (1) 
39.072

>  <PUBCHEM_FEATURE_SELFOVERLAP>  (1) 
25.39

>  <PUBCHEM_SHAPE_FINGERPRINT>  (1) 
10680689 15 17313109661338533689
12236239 1 17346604058417545377
12403259 415 18408039632498850577
12507557 5 16805324409569623533
12596602 18 13767937822762701133
12616971 3 17846224370813740553
13167823 11 15698000717191741182
13288520 33 16128656371055478797
13533116 47 15697733506097131478
13583140 156 17894629296337074995
13675066 3 17312824883447641178
13760787 5 18408040693497775298
14251752 14 17676205737434715918
14573314 32 17313100830738209734
15239154 128 17603587439009551636
15788980 27 18334852805521924902
17349148 13 18059859471505853314
17834072 33 16559032705530843936
17844677 252 15574724581597594622
18186145 218 18409452487607264017
19489759 90 16515399685957057121
200 152 16989126456748600970
20300324 65 17489590064973198649
20645477 56 18338519745957787112
20645477 70 18131361787024748478
21033648 29 18114451331758332045
220451 1 16056608655152291814
23402539 116 17560802112888912320
23402655 69 18059576853904512937
23557571 272 17530972371660680375
23559900 14 18201166507644102606
2838139 119 17459172024362224333
300161 21 18261386785166763178
32948 21 17749383724761888660
5104073 3 18410578400873769642
542803 24 17917997178739937640
633830 44 18201729422309195157
90127 26 15068628171119748766

>  <PUBCHEM_SHAPE_MULTIPOLES>  (1) 
372.9
12.75
1.6
1.46
6.98
0.08
-0.62
0.95
-2.14
0.1
0.03
-1.01
-0.06
0.21

>  <PUBCHEM_SHAPE_SELFOVERLAP>  (1) 
722.394

>  <PUBCHEM_SHAPE_VOLUME>  (1) 
227.5

>  <PUBCHEM_COORDINATE_TYPE>  (1) 
2
5
10

$$$$
