31821
     RDKit          3D

 19 19  0  0  1  0  0  0  0  0999 V2000
    0.4983   -2.5956   -0.8333 I   0  0  0  0  0  0  0  0  0  0  0  0
   -2.8064    2.2703    0.8259 I   0  0  0  0  0  0  0  0  0  0  0  0
    3.0472    2.9178   -0.0615 I   0  0  0  0  0  0  0  0  0  0  0  0
   -4.4010   -0.7202   -0.6852 O   0  0  0  0  0  0  0  0  0  0  0  0
   -2.8583    0.1899   -2.0729 O   0  0  0  0  0  0  0  0  0  0  0  0
    3.6160   -0.9714    1.3564 O   0  0  0  0  0  0  0  0  0  0  0  0
    2.7363   -0.2665   -0.7126 N   0  0  0  0  0  0  0  0  0  0  0  0
   -2.1145   -0.8441    0.0160 C   0  0  0  0  0  0  0  0  0  0  0  0
   -0.8674    0.0273   -0.0112 C   0  0  0  0  0  0  0  0  0  0  0  0
   -2.8046   -0.9128    1.3933 C   0  0  0  0  0  0  0  0  0  0  0  0
    0.3520   -0.5323   -0.3504 C   0  0  0  0  0  0  0  0  0  0  0  0
   -0.9857    1.3692    0.3071 C   0  0  0  0  0  0  0  0  0  0  0  0
   -1.9044   -1.4832    2.4821 C   0  0  0  0  0  0  0  0  0  0  0  0
    1.4890    0.2753   -0.3721 C   0  0  0  0  0  0  0  0  0  0  0  0
   -3.1270   -0.3946   -1.0315 C   0  0  0  0  0  0  0  0  0  0  0  0
    0.1514    2.1767    0.2855 C   0  0  0  0  0  0  0  0  0  0  0  0
    1.3888    1.6298   -0.0542 C   0  0  0  0  0  0  0  0  0  0  0  0
    3.6875   -0.8334    0.1395 C   0  0  0  0  0  0  0  0  0  0  0  0
    4.9028   -1.3020   -0.6207 C   0  0  0  0  0  0  0  0  0  0  0  0
  1 11  1  0
  2 12  1  0
  3 17  1  0
  4 15  1  0
  5 15  2  0
  6 18  2  0
  7 14  1  0
  7 18  1  0
  8  9  1  0
  8 10  1  0
  8 15  1  0
  9 11  2  0
  9 12  1  0
 10 13  1  0
 11 14  1  0
 12 16  2  0
 14 17  2  0
 16 17  1  0
 18 19  1  0
M  END
>  <PUBCHEM_COMPOUND_CID>  (1) 
31821

>  <PUBCHEM_CONFORMER_RMSD>  (1) 
0.6

>  <PUBCHEM_CONFORMER_DIVERSEORDER>  (1) 
1
3
6
5
4
2

>  <PUBCHEM_MMFF94_PARTIAL_CHARGES>  (1) 
20
1 -0.08
11 0.08
12 0.08
14 0.12
15 0.66
16 -0.15
17 0.08
18 0.57
19 0.06
2 -0.08
26 0.15
27 0.37
28 0.5
3 -0.08
4 -0.65
5 -0.57
6 -0.57
7 -0.55
8 0.2
9 -0.14

>  <PUBCHEM_EFFECTIVE_ROTOR_COUNT>  (1) 
5

>  <PUBCHEM_PHARMACOPHORE_FEATURES>  (1) 
10
1 1 hydrophobe
1 13 hydrophobe
1 2 hydrophobe
1 3 hydrophobe
1 4 acceptor
1 5 acceptor
1 6 acceptor
1 7 donor
3 4 5 15 anion
6 9 11 12 14 16 17 rings

>  <PUBCHEM_HEAVY_ATOM_COUNT>  (1) 
19

>  <PUBCHEM_ATOM_DEF_STEREO_COUNT>  (1) 
0

>  <PUBCHEM_ATOM_UDEF_STEREO_COUNT>  (1) 
1

>  <PUBCHEM_BOND_DEF_STEREO_COUNT>  (1) 
0

>  <PUBCHEM_BOND_UDEF_STEREO_COUNT>  (1) 
0

>  <PUBCHEM_ISOTOPIC_ATOM_COUNT>  (1) 
0

>  <PUBCHEM_COMPONENT_COUNT>  (1) 
1

>  <PUBCHEM_CACTVS_TAUTO_COUNT>  (1) 
2

>  <PUBCHEM_CONFORMER_ID>  (1) 
00007C4D00000001

>  <PUBCHEM_MMFF94_ENERGY>  (1) 
91.7325

>  <PUBCHEM_FEATURE_SELFOVERLAP>  (1) 
50.806

>  <PUBCHEM_SHAPE_FINGERPRINT>  (1) 
10062212 137 18341608166440085389
11578080 2 17604412060468448908
11680986 33 18263084486485320528
12553582 1 18189336767145365872
12633257 1 18119843320027780155
13140716 1 18341907259389118432
13296909 8 16702303421173471545
13583140 156 17822567321854303104
14178342 30 18057603161987115328
16752209 62 18340769252190475054
16945 1 18343312469466203343
18186145 218 17822012016700302768
19010151 120 17917990598670711527
192875 21 18130780183347540541
200 152 18202558471520171287
20645477 70 18338513144408430542
20739085 24 18194710195991819185
21501502 16 18343025496921356289
2334 1 18341901834834834712
23388829 49 18201429255661270726
23402539 116 18200311005755957094
23526113 38 18117828022688585697
23557571 272 16988562372818428916
23558518 356 18334868229156232201
23559900 14 17604148224637111276
25147074 1 18271540748504835712
2748010 2 18411144661930938340
312423 11 18341623636796630724
34934 24 18052823546265530609
7364860 26 18270400611524886980
81228 2 18051422764273055232

>  <PUBCHEM_SHAPE_MULTIPOLES>  (1) 
404.23
7.36
3.16
1.51
3.58
1.34
0.52
-1.03
-0.18
1.43
0.01
-1.35
-0.67
-0.15

>  <PUBCHEM_SHAPE_SELFOVERLAP>  (1) 
773.507

>  <PUBCHEM_SHAPE_VOLUME>  (1) 
256.2

>  <PUBCHEM_COORDINATE_TYPE>  (1) 
2
5
10

$$$$
