31833
     RDKit          3D

 33 36  0  0  0  0  0  0  0  0999 V2000
    5.3294    1.5950   -0.0094 I   0  0  0  0  0  0  0  0  0  0  0  0
    4.6186   -3.0063    0.0006 I   0  0  0  0  0  0  0  0  0  0  0  0
    0.6651    5.4907   -0.2088 I   0  0  0  0  0  0  0  0  0  0  0  0
   -1.0133   -5.3515   -0.1705 I   0  0  0  0  0  0  0  0  0  0  0  0
   -1.1860    0.1212   -2.9391 Cl  0  0  0  0  0  0  0  0  0  0  0  0
   -4.3956    0.5248    2.4349 Cl  0  0  0  0  0  0  0  0  0  0  0  0
   -4.3149    0.4891   -3.0130 Cl  0  0  0  0  0  0  0  0  0  0  0  0
   -5.9278    0.6902   -0.3205 Cl  0  0  0  0  0  0  0  0  0  0  0  0
    2.8592   -0.3450   -0.0801 O   0  0  0  0  0  0  0  0  0  0  0  0
    3.6745    4.3271   -0.0960 O   0  0  0  0  0  0  0  0  0  0  0  0
    2.1766   -5.0420   -0.0622 O   0  0  0  0  0  0  0  0  0  0  0  0
   -1.0385    1.3958    2.6767 O   0  0  0  0  0  0  0  0  0  0  0  0
   -1.2098   -0.8635    2.8582 O   0  0  0  0  0  0  0  0  0  0  0  0
    0.0261   -0.0073   -0.1812 C   0  0  0  0  0  0  0  0  0  0  0  0
    0.9595    1.1463   -0.1593 C   0  0  0  0  0  0  0  0  0  0  0  0
    0.5627   -1.2595   -0.1512 C   0  0  0  0  0  0  0  0  0  0  0  0
   -1.4310    0.1618   -0.2352 C   0  0  0  0  0  0  0  0  0  0  0  0
    2.3314    0.9151   -0.1096 C   0  0  0  0  0  0  0  0  0  0  0  0
    2.0223   -1.4550   -0.0991 C   0  0  0  0  0  0  0  0  0  0  0  0
    0.5148    2.4784   -0.1873 C   0  0  0  0  0  0  0  0  0  0  0  0
   -2.1434    0.2516    0.9585 C   0  0  0  0  0  0  0  0  0  0  0  0
   -0.2823   -2.4593   -0.1696 C   0  0  0  0  0  0  0  0  0  0  0  0
    3.2465    1.9723   -0.0878 C   0  0  0  0  0  0  0  0  0  0  0  0
   -2.0961    0.2341   -1.4568 C   0  0  0  0  0  0  0  0  0  0  0  0
    2.5637   -2.6891   -0.0701 C   0  0  0  0  0  0  0  0  0  0  0  0
    1.4241    3.5398   -0.1659 C   0  0  0  0  0  0  0  0  0  0  0  0
    2.7909    3.2865   -0.1162 C   0  0  0  0  0  0  0  0  0  0  0  0
    0.2188   -3.7023   -0.1415 C   0  0  0  0  0  0  0  0  0  0  0  0
   -3.5284    0.4148    0.9302 C   0  0  0  0  0  0  0  0  0  0  0  0
    1.6956   -3.9124   -0.0894 C   0  0  0  0  0  0  0  0  0  0  0  0
   -3.4812    0.3971   -1.4852 C   0  0  0  0  0  0  0  0  0  0  0  0
   -4.1974    0.4873   -0.2916 C   0  0  0  0  0  0  0  0  0  0  0  0
   -1.4338    0.1737    2.2377 C   0  0  0  0  0  0  0  0  0  0  0  0
  1 23  1  0
  2 25  1  0
  3 26  1  0
  4 28  1  0
  5 24  1  0
  6 29  1  0
  7 31  1  0
  8 32  1  0
  9 18  1  0
  9 19  1  0
 10 27  1  0
 11 30  2  0
 12 33  1  0
 13 33  2  0
 14 15  1  0
 14 16  2  0
 14 17  1  0
 15 18  2  0
 15 20  1  0
 16 19  1  0
 16 22  1  0
 17 21  2  0
 17 24  1  0
 18 23  1  0
 19 25  2  0
 20 26  2  0
 21 29  1  0
 21 33  1  0
 22 28  2  0
 23 27  2  0
 24 31  2  0
 25 30  1  0
 26 27  1  0
 28 30  1  0
 29 32  2  0
 31 32  1  0
M  ISO  4   1 131   2 131   3 131   4 131
M  END
>  <PUBCHEM_COMPOUND_CID>  (1) 
31833

>  <PUBCHEM_CONFORMER_RMSD>  (1) 
0.8

>  <PUBCHEM_CONFORMER_DIVERSEORDER>  (1) 
1
2

>  <PUBCHEM_MMFF94_PARTIAL_CHARGES>  (1) 
36
1 -0.08
10 -0.53
11 -0.57
12 -0.65
13 -0.57
14 -0.06
15 0.03
17 0.03
18 0.08
19 0.08
2 -0.09
20 -0.15
21 0.09
22 -0.15
23 0.08
24 0.18
25 0.1
26 0.08
27 0.08
28 0.1
29 0.18
3 -0.08
30 0.54
31 0.18
32 0.18
33 0.63
34 0.15
35 0.15
36 0.45
37 0.5
4 -0.09
5 -0.18
6 -0.18
7 -0.18
8 -0.18
9 -0.16

>  <PUBCHEM_EFFECTIVE_ROTOR_COUNT>  (1) 
2

>  <PUBCHEM_PHARMACOPHORE_FEATURES>  (1) 
14
1 1 hydrophobe
1 10 donor
1 11 acceptor
1 12 acceptor
1 13 acceptor
1 2 hydrophobe
1 3 hydrophobe
1 4 hydrophobe
1 9 acceptor
3 12 13 33 anion
6 15 18 20 23 26 27 rings
6 16 19 22 25 28 30 rings
6 17 21 24 29 31 32 rings
6 9 14 15 16 18 19 rings

>  <PUBCHEM_HEAVY_ATOM_COUNT>  (1) 
33

>  <PUBCHEM_ATOM_DEF_STEREO_COUNT>  (1) 
0

>  <PUBCHEM_ATOM_UDEF_STEREO_COUNT>  (1) 
0

>  <PUBCHEM_BOND_DEF_STEREO_COUNT>  (1) 
0

>  <PUBCHEM_BOND_UDEF_STEREO_COUNT>  (1) 
0

>  <PUBCHEM_ISOTOPIC_ATOM_COUNT>  (1) 
4

>  <PUBCHEM_COMPONENT_COUNT>  (1) 
1

>  <PUBCHEM_CACTVS_TAUTO_COUNT>  (1) 
3

>  <PUBCHEM_CONFORMER_ID>  (1) 
00007C5900000001

>  <PUBCHEM_MMFF94_ENERGY>  (1) 
115.9818

>  <PUBCHEM_FEATURE_SELFOVERLAP>  (1) 
71.159

>  <PUBCHEM_SHAPE_FINGERPRINT>  (1) 
10411042 1 17906451030727232134
1100329 8 18411138082642031158
11582403 64 17100260741546170229
11621639 254 17477244581531173670
11725454 13 17460284816060345645
11763715 3 17475543589112119223
12156800 1 16895346035114563939
12236239 1 17775282742660637269
12553582 1 18123196701480499046
12655364 131 18201717324404655450
12788726 201 16821919024961057195
13009979 54 17632007546950622831
13140716 1 18196371653273212656
13583140 156 17605264271625551552
1361 2 18410289194550107123
13690498 29 17047406904041083358
13911987 19 18190187793504204870
15219462 58 17832755319330472137
15274700 242 13864747154736265403
15324884 4 17749106695181681861
15439362 3 18338786896876317652
15927050 60 18267867357835021926
17138139 8 17557962203641424791
1813 80 17914059698346009230
19319366 153 18202004365273645067
19930381 70 18409162199753359365
20101258 96 17763468314290198174
20511986 3 17632570535611893617
20600515 1 15338824340620723267
20642791 105 17836919367438370080
20739085 24 18266199252619064888
22311459 1 18410853279451177836
23419403 2 17968110676576344843
23559900 14 18409164373054413947
350125 39 17761497297763152244
3886686 26 17477450546640100912
469060 322 18053375501213756266
474 4 18342178907364325097
50150288 127 17343527753970099459
5309563 4 18121783820459506119
57527295 17 17608635138411631999
6004065 56 18337386041874237443
70251023 43 18050847719391067403

>  <PUBCHEM_SHAPE_MULTIPOLES>  (1) 
705
8.79
7.31
2.06
2.6
2.67
0.18
-2.61
-0.68
-7.44
-0.47
3.5
-0.46
-0.04

>  <PUBCHEM_SHAPE_SELFOVERLAP>  (1) 
1446.112

>  <PUBCHEM_SHAPE_VOLUME>  (1) 
423.4

>  <PUBCHEM_COORDINATE_TYPE>  (1) 
2
5
10

$$$$
