31835
     RDKit          3D

 12 12  0  0  0  0  0  0  0  0999 V2000
   -0.5680   -2.0433   -0.1282 O   0  0  0  0  0  0  0  0  0  0  0  0
    2.5184    0.6184   -0.3577 O   0  0  0  0  0  0  0  0  0  0  0  0
    1.9784   -1.4032    0.6018 O   0  0  0  0  0  0  0  0  0  0  0  0
   -2.1043   -0.2158   -0.0849 C   0  0  0  0  0  0  0  0  0  0  0  0
    0.2709    0.1840    0.1020 C   0  0  0  0  0  0  0  0  0  0  0  0
   -0.7976   -0.7015   -0.0378 C   0  0  0  0  0  0  0  0  0  0  0  0
   -2.3424    1.1555    0.0074 C   0  0  0  0  0  0  0  0  0  0  0  0
    0.0328    1.5553    0.1943 C   0  0  0  0  0  0  0  0  0  0  0  0
   -1.2739    2.0411    0.1469 C   0  0  0  0  0  0  0  0  0  0  0  0
   -3.2615   -1.1473   -0.2342 C   0  0  0  0  0  0  0  0  0  0  0  0
    1.6436   -0.3001    0.1535 C   0  0  0  0  0  0  0  0  0  0  0  0
    3.9036    0.2566   -0.3631 C   0  0  0  0  0  0  0  0  0  0  0  0
  1  6  1  0
  2 11  1  0
  2 12  1  0
  3 11  2  0
  4  6  2  0
  4  7  1  0
  4 10  1  0
  5  6  1  0
  5  8  2  0
  5 11  1  0
  7  9  2  0
  8  9  1  0
M  END
>  <PUBCHEM_COMPOUND_CID>  (1) 
31835

>  <PUBCHEM_CONFORMER_RMSD>  (1) 
0.6

>  <PUBCHEM_CONFORMER_DIVERSEORDER>  (1) 
1
2

>  <PUBCHEM_MMFF94_PARTIAL_CHARGES>  (1) 
16
1 -0.53
10 0.14
11 0.63
12 0.28
13 0.15
14 0.15
15 0.15
19 0.45
2 -0.43
3 -0.57
4 -0.14
5 0.09
6 0.08
7 -0.15
8 -0.15
9 -0.15

>  <PUBCHEM_EFFECTIVE_ROTOR_COUNT>  (1) 
2

>  <PUBCHEM_PHARMACOPHORE_FEATURES>  (1) 
3
1 1 donor
1 3 acceptor
6 4 5 6 7 8 9 rings

>  <PUBCHEM_HEAVY_ATOM_COUNT>  (1) 
12

>  <PUBCHEM_ATOM_DEF_STEREO_COUNT>  (1) 
0

>  <PUBCHEM_ATOM_UDEF_STEREO_COUNT>  (1) 
0

>  <PUBCHEM_BOND_DEF_STEREO_COUNT>  (1) 
0

>  <PUBCHEM_BOND_UDEF_STEREO_COUNT>  (1) 
0

>  <PUBCHEM_ISOTOPIC_ATOM_COUNT>  (1) 
0

>  <PUBCHEM_COMPONENT_COUNT>  (1) 
1

>  <PUBCHEM_CACTVS_TAUTO_COUNT>  (1) 
4

>  <PUBCHEM_CONFORMER_ID>  (1) 
00007C5B00000001

>  <PUBCHEM_MMFF94_ENERGY>  (1) 
35.4686

>  <PUBCHEM_FEATURE_SELFOVERLAP>  (1) 
15.223

>  <PUBCHEM_SHAPE_FINGERPRINT>  (1) 
11206711 2 18410284818247250277
12032990 46 18339930431950129527
12897270 3 18410855468960910428
12932764 1 17346303895637423886
13024252 1 17967536774435330025
14128692 85 18269275823434104485
14325111 11 18338235968630757332
14993402 34 18341327889959833975
15775835 57 18336271128377556848
161256 15 18198334246462120785
16945 1 18337946900014665465
193761 8 17907298754407836511
20871998 184 18202284710178234231
21040471 1 17908701735408094185
21501502 16 18266739086662593706
22802520 49 17843984549663753062
23402539 116 18342730845042380574
23463225 33 18264203604359364426
23552423 10 18190177880107307082
23559900 14 18200872886531351756
2748010 2 18339641127195018029
3312278 4 18334577962138262691
369184 2 15936411126082513272
5084963 1 18060136561415861411
528886 8 18411413982276405625
57096353 35 18334861649212924830
6333449 129 18341892987180729120

>  <PUBCHEM_SHAPE_MULTIPOLES>  (1) 
229.35
4.92
1.9
0.65
3.12
0.16
0.01
-0.53
-0.67
-0.89
0.1
0.08
-0.01
-0.29

>  <PUBCHEM_SHAPE_SELFOVERLAP>  (1) 
479.176

>  <PUBCHEM_SHAPE_VOLUME>  (1) 
131.7

>  <PUBCHEM_COORDINATE_TYPE>  (1) 
2
5
10

$$$$
