31831
     RDKit          3D

 20 19  0  0  1  0  0  0  0  0999 V2000
    2.7422    2.2470   -2.5003 O   0  0  0  0  0  0  0  0  0  0  0  0
   -2.7117    2.2367    2.5174 O   0  0  0  0  0  0  0  0  0  0  0  0
    2.3565    2.3923   -0.2659 O   0  0  0  0  0  0  0  0  0  0  0  0
   -2.3168    2.3930    0.2853 O   0  0  0  0  0  0  0  0  0  0  0  0
    3.2430   -0.8150    2.1659 O   0  0  0  0  0  0  0  0  0  0  0  0
   -3.2504   -0.7833   -2.1732 O   0  0  0  0  0  0  0  0  0  0  0  0
    4.5370   -2.0361    0.7278 O   0  0  0  0  0  0  0  0  0  0  0  0
   -4.5690   -1.9900   -0.7454 O   0  0  0  0  0  0  0  0  0  0  0  0
    1.8560   -0.3079   -0.1832 N   0  0  0  0  0  0  0  0  0  0  0  0
   -1.8591   -0.3147    0.1821 N   0  0  0  0  0  0  0  0  0  0  0  0
    0.4570   -0.3051   -0.6094 C   0  0  0  0  0  0  0  0  0  0  0  0
   -0.4636   -0.3354    0.6070 C   0  0  0  0  0  0  0  0  0  0  0  0
    2.7145    0.2184   -1.2437 C   0  0  0  0  0  0  0  0  0  0  0  0
   -2.7129    0.2176    1.2451 C   0  0  0  0  0  0  0  0  0  0  0  0
    2.2739   -1.6589    0.1895 C   0  0  0  0  0  0  0  0  0  0  0  0
   -2.3007   -1.6567   -0.2003 C   0  0  0  0  0  0  0  0  0  0  0  0
    2.5961    1.7174   -1.2591 C   0  0  0  0  0  0  0  0  0  0  0  0
   -2.5704    1.7143    1.2726 C   0  0  0  0  0  0  0  0  0  0  0  0
    3.4700   -1.4815    1.1165 C   0  0  0  0  0  0  0  0  0  0  0  0
   -3.4915   -1.4521   -1.1286 C   0  0  0  0  0  0  0  0  0  0  0  0
  1 17  1  0
  2 18  1  0
  3 17  2  0
  4 18  2  0
  5 19  1  0
  6 20  1  0
  7 19  2  0
  8 20  2  0
  9 11  1  0
  9 13  1  0
  9 15  1  0
 10 12  1  0
 10 14  1  0
 10 16  1  0
 11 12  1  0
 13 17  1  0
 14 18  1  0
 15 19  1  0
 16 20  1  0
M  CHG  2   5  -1   6  -1
M  END
>  <PUBCHEM_COMPOUND_CID>  (1) 
31831

>  <PUBCHEM_CONFORMER_RMSD>  (1) 
1

>  <PUBCHEM_CONFORMER_DIVERSEORDER>  (1) 
1
10
16
2
13
12
17
23
28
3
25
26
6
9
24
20
8
22
14
11
4
18
21
7
27
15
19
5

>  <PUBCHEM_MMFF94_PARTIAL_CHARGES>  (1) 
22
1 -0.65
10 -0.81
11 0.27
12 0.27
13 0.33
14 0.33
15 0.16
16 0.16
17 0.66
18 0.66
19 0.91
2 -0.65
20 0.91
3 -0.57
33 0.5
34 0.5
4 -0.57
5 -0.9
6 -0.9
7 -0.9
8 -0.9
9 -0.81

>  <PUBCHEM_EFFECTIVE_ROTOR_COUNT>  (1) 
11

>  <PUBCHEM_PHARMACOPHORE_FEATURES>  (1) 
14
1 1 acceptor
1 10 cation
1 2 acceptor
1 3 acceptor
1 4 acceptor
1 5 acceptor
1 6 acceptor
1 7 acceptor
1 8 acceptor
1 9 cation
3 1 3 17 anion
3 2 4 18 anion
3 5 7 19 anion
3 6 8 20 anion

>  <PUBCHEM_HEAVY_ATOM_COUNT>  (1) 
20

>  <PUBCHEM_ATOM_DEF_STEREO_COUNT>  (1) 
0

>  <PUBCHEM_ATOM_UDEF_STEREO_COUNT>  (1) 
0

>  <PUBCHEM_BOND_DEF_STEREO_COUNT>  (1) 
0

>  <PUBCHEM_BOND_UDEF_STEREO_COUNT>  (1) 
0

>  <PUBCHEM_ISOTOPIC_ATOM_COUNT>  (1) 
0

>  <PUBCHEM_COMPONENT_COUNT>  (1) 
1

>  <PUBCHEM_CACTVS_TAUTO_COUNT>  (1) 
1

>  <PUBCHEM_CONFORMER_ID>  (1) 
00007C5700000001

>  <PUBCHEM_MMFF94_ENERGY>  (1) 
35.7947

>  <PUBCHEM_FEATURE_SELFOVERLAP>  (1) 
71.278

>  <PUBCHEM_SHAPE_FINGERPRINT>  (1) 
10369192 42 14403764622706947874
12549972 3 15719388421401636072
12553582 1 17630889494313202535
12788726 201 18201451310972645299
13296909 8 17987784229384139115
14178342 30 18129661876790402979
15295992 7 16660641796273951597
15842332 3 18338531784276325064
17980427 23 18342729698739688808
18186145 218 16154249677287623031
192875 21 18339630205109365839
20645477 70 17749101223198778150
2132832 1 18338784676246025124
23532345 12 18411417280832563218
23557571 272 17132116827085888361
23598288 3 18272370867436357983
23598291 2 18409175380902606238
25147074 1 18338811060235321256
312423 11 18337685177561043371
633830 44 17900861345945593788
6992083 37 18193558869793642312
7164475 11 18343863307959964103
7471813 234 18341033203568697422
7615 1 18410578383197962240
81228 2 17988650696629844219
88987 49 17703518696362066369

>  <PUBCHEM_SHAPE_MULTIPOLES>  (1) 
354.67
8.2
2.78
2.09
0.06
1.32
-0.01
-2.86
0.07
-0.07
-0.02
0.03
0.85
-3.95

>  <PUBCHEM_SHAPE_SELFOVERLAP>  (1) 
699.031

>  <PUBCHEM_SHAPE_VOLUME>  (1) 
211.4

>  <PUBCHEM_COORDINATE_TYPE>  (1) 
2
5
10

$$$$
