31845
     RDKit          3D

 26 29  0  0  1  0  0  0  0  0999 V2000
   -4.4457    3.1238   -0.6458 Br  0  0  0  0  0  0  0  0  0  0  0  0
    2.3646    0.0331   -1.5689 O   0  0  0  0  0  0  0  0  0  0  0  0
    1.0896    1.6875    0.9604 N   0  0  0  0  0  0  0  0  0  0  0  0
   -4.5388    0.2002   -0.4820 N   0  0  0  0  0  0  0  0  0  0  0  0
    4.4384   -0.2453   -0.5567 N   0  0  0  0  0  0  0  0  0  0  0  0
   -0.2209    0.9820    0.9913 C   0  0  0  0  0  0  0  0  0  0  0  0
   -0.1247   -0.5135    0.5670 C   0  0  0  0  0  0  0  0  0  0  0  0
   -1.2668    1.7968    0.1426 C   0  0  0  0  0  0  0  0  0  0  0  0
    2.3546   -0.4414    0.7446 C   0  0  0  0  0  0  0  0  0  0  0  0
    2.1648    0.8588    1.5305 C   0  0  0  0  0  0  0  0  0  0  0  0
   -2.5093    1.0092   -0.0735 C   0  0  0  0  0  0  0  0  0  0  0  0
   -1.3904   -1.2369    0.3088 C   0  0  0  0  0  0  0  0  0  0  0  0
   -2.4721   -0.3975    0.0182 C   0  0  0  0  0  0  0  0  0  0  0  0
    1.0635   -1.1267    0.4297 C   0  0  0  0  0  0  0  0  0  0  0  0
   -3.7383   -0.8954   -0.2415 C   0  0  0  0  0  0  0  0  0  0  0  0
   -3.8016    1.3606   -0.3849 C   0  0  0  0  0  0  0  0  0  0  0  0
    1.0463    2.9748    1.6614 C   0  0  0  0  0  0  0  0  0  0  0  0
    3.0439   -0.1962   -0.5647 C   0  0  0  0  0  0  0  0  0  0  0  0
   -1.6378   -2.6151    0.3271 C   0  0  0  0  0  0  0  0  0  0  0  0
   -4.0013   -2.2659   -0.2281 C   0  0  0  0  0  0  0  0  0  0  0  0
   -2.9212   -3.1142    0.0620 C   0  0  0  0  0  0  0  0  0  0  0  0
   -5.9505    0.1339   -0.7980 C   0  0  0  0  0  0  0  0  0  0  0  0
    5.2331   -0.0256   -1.7583 C   0  0  0  0  0  0  0  0  0  0  0  0
    5.2034   -0.5205    0.6568 C   0  0  0  0  0  0  0  0  0  0  0  0
    5.5757    1.4191   -1.9265 C   0  0  0  0  0  0  0  0  0  0  0  0
    5.4416   -1.9857    0.8285 C   0  0  0  0  0  0  0  0  0  0  0  0
  1 16  1  0
  2 18  2  0
  3  6  1  0
  3 10  1  0
  3 17  1  0
  4 15  1  0
  4 16  1  0
  4 22  1  0
  5 18  1  0
  5 23  1  0
  5 24  1  0
  6  7  1  0
  6  8  1  0
  7 12  1  0
  7 14  2  0
  8 11  1  0
  9 10  1  0
  9 14  1  0
  9 18  1  0
 11 13  1  0
 11 16  2  0
 12 13  2  0
 12 19  1  0
 13 15  1  0
 15 20  2  0
 19 21  2  0
 20 21  1  0
 23 25  1  0
 24 26  1  0
M  END
>  <PUBCHEM_COMPOUND_CID>  (1) 
31845

>  <PUBCHEM_CONFORMER_RMSD>  (1) 
0.8

>  <PUBCHEM_CONFORMER_DIVERSEORDER>  (1) 
4
3
18
9
16
15
7
19
13
2
12
10
14
6
17
8
1
11
5

>  <PUBCHEM_MMFF94_PARTIAL_CHARGES>  (1) 
27
1 -0.06
10 0.27
11 -0.18
12 0.03
14 -0.29
15 -0.15
16 -0.09
17 0.27
18 0.57
19 -0.15
2 -0.57
20 -0.15
21 -0.15
22 0.26
23 0.3
24 0.3
3 -0.81
33 0.15
37 0.15
38 0.15
39 0.15
4 0.05
5 -0.66
6 0.41
7 -0.17
8 0.18
9 0.2

>  <PUBCHEM_EFFECTIVE_ROTOR_COUNT>  (1) 
4.8

>  <PUBCHEM_PHARMACOPHORE_FEATURES>  (1) 
8
1 1 hydrophobe
1 2 acceptor
1 3 cation
1 4 cation
5 4 11 13 15 16 rings
6 12 13 15 19 20 21 rings
6 3 6 7 9 10 14 rings
6 6 7 8 11 12 13 rings

>  <PUBCHEM_HEAVY_ATOM_COUNT>  (1) 
26

>  <PUBCHEM_ATOM_DEF_STEREO_COUNT>  (1) 
0

>  <PUBCHEM_ATOM_UDEF_STEREO_COUNT>  (1) 
2

>  <PUBCHEM_BOND_DEF_STEREO_COUNT>  (1) 
0

>  <PUBCHEM_BOND_UDEF_STEREO_COUNT>  (1) 
0

>  <PUBCHEM_ISOTOPIC_ATOM_COUNT>  (1) 
0

>  <PUBCHEM_COMPONENT_COUNT>  (1) 
1

>  <PUBCHEM_CACTVS_TAUTO_COUNT>  (1) 
1

>  <PUBCHEM_CONFORMER_ID>  (1) 
00007C6500000004

>  <PUBCHEM_MMFF94_ENERGY>  (1) 
62.3832

>  <PUBCHEM_FEATURE_SELFOVERLAP>  (1) 
40.841

>  <PUBCHEM_SHAPE_FINGERPRINT>  (1) 
10165383 225 18191584156297196093
10411042 1 18120651594809836411
10595046 47 18187087303852061286
10906281 52 18058746722730959345
11796584 16 18339641140713591722
12107183 9 17898845752232433594
12236239 1 17603585231538987543
12390115 104 18199473169532809209
12616971 3 17458623385471583778
12670546 177 18410302436329705492
12788726 201 18057891246887197192
13140716 1 18339637975401342075
13540713 4 18125711538244630331
13544592 145 18343014528122878521
13544653 18 16415487038750674402
13690498 29 18197505227606287647
13726171 33 18270138893076199208
13782708 43 17702941573539581031
14251757 5 18411707560328895221
14790565 3 17981332183684459281
15183329 4 18186804647653764830
15420108 30 16966604868757756360
17357779 13 17346604049643215328
17804303 29 18340483460813745523
1813 80 14907639903812118344
18222031 100 17131839780895660334
18608769 82 18335706074739538747
19319366 153 17967809414633288787
19784866 240 15195572316280174349
20511986 3 18187072971783369734
20693207 138 18272086153527077553
20715895 44 18118683214653342396
20871999 31 18412269432108050405
21033650 10 18117584875931193020
21267235 1 18411697708417437523
21279426 13 18198336264996094204
21781051 124 18186805816344149739
22122407 14 15502661451827072517
221357 26 18272644654432300901
22182313 1 18059004116079314144
22393880 68 18338244851140207516
23175994 123 17203609306833893217
23402539 116 18341040818434878292
23559900 14 18270674389097127785
2748010 2 18123740113991109699
3004659 81 18334573496063728690
3298306 158 18201719526895339758
335352 9 18412818089064308535
34797466 226 18059584619791050948
350125 39 18409730643497680761
474 4 16298678286343542164
5283173 99 18410573994158597928
559249 180 18263074427698787602
59755656 215 18269554940901628878
6669772 16 17054715830767825184
67856867 119 18260546758488974440
6823239 73 18271800280651341576
7237137 82 18335706090948476839
9709674 26 18126835221885063947

>  <PUBCHEM_SHAPE_MULTIPOLES>  (1) 
520.2
12.67
3.12
1.4
7.61
0.14
-0.22
0.07
-5.43
-3.22
0.46
2.08
0.72
-0.33

>  <PUBCHEM_SHAPE_SELFOVERLAP>  (1) 
1112.493

>  <PUBCHEM_SHAPE_VOLUME>  (1) 
298.2

>  <PUBCHEM_COORDINATE_TYPE>  (1) 
2
5
10

$$$$
