31843
     RDKit          3D

 23 26  0  0  0  0  0  0  0  0999 V2000
    5.6837    1.3244   -0.1005 Cl  0  0  0  0  0  0  0  0  0  0  0  0
   -2.9957    2.8768    0.2410 N   0  0  0  0  0  0  0  0  0  0  0  0
   -1.4173   -1.8911   -1.4594 N   0  0  0  0  0  0  0  0  0  0  0  0
   -1.0665    0.8851   -0.5616 C   0  0  0  0  0  0  0  0  0  0  0  0
   -2.5410    0.6321   -0.7191 C   0  0  0  0  0  0  0  0  0  0  0  0
   -0.6944    2.3422   -0.5242 C   0  0  0  0  0  0  0  0  0  0  0  0
   -3.3367    1.4457    0.3080 C   0  0  0  0  0  0  0  0  0  0  0  0
   -1.5609    3.0905    0.4950 C   0  0  0  0  0  0  0  0  0  0  0  0
   -0.1677   -0.1004   -0.4331 C   0  0  0  0  0  0  0  0  0  0  0  0
    1.2761    0.2284   -0.2812 C   0  0  0  0  0  0  0  0  0  0  0  0
   -0.7199   -1.4686   -0.3741 C   0  0  0  0  0  0  0  0  0  0  0  0
    2.1287   -0.4225    0.6386 C   0  0  0  0  0  0  0  0  0  0  0  0
    1.7346   -1.5328    1.5965 C   0  0  0  0  0  0  0  0  0  0  0  0
    0.2573   -1.7269    1.9355 C   0  0  0  0  0  0  0  0  0  0  0  0
   -0.5196   -2.2513    0.7620 C   0  0  0  0  0  0  0  0  0  0  0  0
   -3.8024    3.6396    1.1934 C   0  0  0  0  0  0  0  0  0  0  0  0
    1.8319    1.2019   -1.1420 C   0  0  0  0  0  0  0  0  0  0  0  0
    3.4957   -0.0633    0.6666 C   0  0  0  0  0  0  0  0  0  0  0  0
   -1.0692   -3.5360    0.7675 C   0  0  0  0  0  0  0  0  0  0  0  0
    3.1823    1.5462   -1.0864 C   0  0  0  0  0  0  0  0  0  0  0  0
    4.0160    0.9136   -0.1788 C   0  0  0  0  0  0  0  0  0  0  0  0
   -1.7854   -3.9935   -0.3325 C   0  0  0  0  0  0  0  0  0  0  0  0
   -1.9299   -3.1401   -1.4111 C   0  0  0  0  0  0  0  0  0  0  0  0
  1 21  1  0
  2  7  1  0
  2  8  1  0
  2 16  1  0
  3 11  2  0
  3 23  1  0
  4  5  1  0
  4  6  1  0
  4  9  2  3
  5  7  1  0
  6  8  1  0
  9 10  1  0
  9 11  1  0
 10 12  2  0
 10 17  1  0
 11 15  1  0
 12 13  1  0
 12 18  1  0
 13 14  1  0
 14 15  1  0
 15 19  2  0
 17 20  2  0
 18 21  2  0
 19 22  1  0
 20 21  1  0
 22 23  2  0
M  END
>  <PUBCHEM_COMPOUND_CID>  (1) 
31843

>  <PUBCHEM_CONFORMER_RMSD>  (1) 
0.6

>  <PUBCHEM_CONFORMER_DIVERSEORDER>  (1) 
1
5
3
4
2

>  <PUBCHEM_MMFF94_PARTIAL_CHARGES>  (1) 
29
1 -0.18
10 0.03
11 0.34
12 -0.14
13 0.14
14 0.14
15 -0.14
16 0.27
17 -0.15
18 -0.15
19 -0.15
2 -0.81
20 -0.15
21 0.18
22 -0.15
23 0.16
3 -0.62
39 0.15
4 -0.28
40 0.15
41 0.15
42 0.15
43 0.15
44 0.15
5 0.14
6 0.14
7 0.27
8 0.27
9 -0.06

>  <PUBCHEM_EFFECTIVE_ROTOR_COUNT>  (1) 
1.4

>  <PUBCHEM_PHARMACOPHORE_FEATURES>  (1) 
6
1 2 cation
1 3 acceptor
6 10 12 17 18 20 21 rings
6 2 4 5 6 7 8 rings
6 3 11 15 19 22 23 rings
7 9 10 11 12 13 14 15 rings

>  <PUBCHEM_HEAVY_ATOM_COUNT>  (1) 
23

>  <PUBCHEM_ATOM_DEF_STEREO_COUNT>  (1) 
0

>  <PUBCHEM_ATOM_UDEF_STEREO_COUNT>  (1) 
0

>  <PUBCHEM_BOND_DEF_STEREO_COUNT>  (1) 
0

>  <PUBCHEM_BOND_UDEF_STEREO_COUNT>  (1) 
0

>  <PUBCHEM_ISOTOPIC_ATOM_COUNT>  (1) 
0

>  <PUBCHEM_COMPONENT_COUNT>  (1) 
1

>  <PUBCHEM_CACTVS_TAUTO_COUNT>  (1) 
1

>  <PUBCHEM_CONFORMER_ID>  (1) 
00007C6300000001

>  <PUBCHEM_MMFF94_ENERGY>  (1) 
84.103

>  <PUBCHEM_FEATURE_SELFOVERLAP>  (1) 
30.463

>  <PUBCHEM_SHAPE_FINGERPRINT>  (1) 
10411042 1 17835803375699773902
1100329 8 18193277614393312477
11115154 58 17909815876286045783
11315181 36 17679010750838295764
11578080 2 17345189115558985168
12293681 160 17973420372682667691
12553582 1 17832996314024308382
12788726 201 18339630256839052735
13134695 92 17474673230979010438
13140716 1 18050854617314039241
13583140 156 13624077773525379556
13590594 115 17978800335329114027
14223421 5 17758121393449925265
14363568 33 17545041503084772402
14713325 29 18341900748482201262
14790565 3 18266181621815458700
14955137 171 17617381675843001586
15131766 46 15432317068640588604
15906896 17 18410581711961432879
16945 1 18342733044023405412
17138139 8 17910352300451881741
1813 80 17481166895387543070
19591789 44 17831856850842853454
20157964 124 17831293905617540069
20739085 24 17755871814076049856
20775438 99 15817883055940696550
20832881 197 17685493543608676139
21029758 11 17687180207277189206
21041028 32 17904493144188808507
21524375 3 18335987462862134212
21731228 192 18337117743651397521
21756936 100 18412544293278464320
23419403 2 17199665500079406689
23557571 272 18200314458793527380
23558518 356 18260835955463526882
23559900 14 18412541029862812092
24941158 1 17189018568653673449
25147074 1 18040707096448490658
2748010 2 15671223966923517914
283562 15 18118398686477169090
3091708 16 8982140839520604749
3380486 145 16746506314531027818
3610482 184 17969246545941331692
394222 165 18119247259765434872
469060 322 14779830545715754394
57527585 103 16805891805057101458
59755656 520 18411140191107301860
6287921 2 17837200485758883867
633830 44 18056195769760578677
6438718 38 18197797676187184499
6786 2 17552405073846823120
70251023 43 17260735769169790719
7364860 26 17620476805332864581
7471813 234 17763456614572249182
81228 2 18264486363430946404

>  <PUBCHEM_SHAPE_MULTIPOLES>  (1) 
465.24
6.79
4.95
1.4
9.06
0.97
-0.22
-5.25
-0.01
-6.92
-0.73
-0.16
0.57
-2.01

>  <PUBCHEM_SHAPE_SELFOVERLAP>  (1) 
1009.719

>  <PUBCHEM_SHAPE_VOLUME>  (1) 
252.5

>  <PUBCHEM_COORDINATE_TYPE>  (1) 
2
5
10

$$$$
