31842
     RDKit          3D

 44 50  0  0  1  0  0  0  0  0999 V2000
   -4.7085    3.8912   -0.7084 P   0  0  0  0  0  0  0  0  0  0  0  0
    0.2176   -0.5727    2.0256 F   0  0  0  0  0  0  0  0  0  0  0  0
    9.7624   -1.8156   -1.1443 F   0  0  0  0  0  0  0  0  0  0  0  0
   -5.3100   -1.1031    0.3249 O   0  0  0  0  0  0  0  0  0  0  0  0
   -4.8994   -3.1316   -0.7704 O   0  0  0  0  0  0  0  0  0  0  0  0
   -0.8968    2.0160    1.5872 O   0  0  0  0  0  0  0  0  0  0  0  0
   -2.9948    0.0563   -1.8609 O   0  0  0  0  0  0  0  0  0  0  0  0
   -3.9686    2.4735   -0.9764 O   0  0  0  0  0  0  0  0  0  0  0  0
   -6.1556    3.6849   -1.4000 O   0  0  0  0  0  0  0  0  0  0  0  0
   -5.0436    3.8546    0.8732 O   0  0  0  0  0  0  0  0  0  0  0  0
   -3.9490    5.0983   -1.1756 O   0  0  0  0  0  0  0  0  0  0  0  0
    5.2885    1.0929    0.2364 N   0  0  0  0  0  0  0  0  0  0  0  0
    5.4161    2.4013    0.5463 N   0  0  0  0  0  0  0  0  0  0  0  0
   -2.9893   -1.1324    1.2532 C   0  0  0  0  0  0  0  0  0  0  0  0
   -1.8472   -2.1073    0.8416 C   0  0  0  0  0  0  0  0  0  0  0  0
   -3.9200   -1.1137   -0.0003 C   0  0  0  0  0  0  0  0  0  0  0  0
   -0.6981   -1.4463    0.0278 C   0  0  0  0  0  0  0  0  0  0  0  0
   -0.1377   -0.1830    0.7533 C   0  0  0  0  0  0  0  0  0  0  0  0
   -3.6690   -2.4176   -0.7485 C   0  0  0  0  0  0  0  0  0  0  0  0
   -2.6124   -3.1818    0.0415 C   0  0  0  0  0  0  0  0  0  0  0  0
   -2.4639    0.2414    1.7105 C   0  0  0  0  0  0  0  0  0  0  0  0
   -1.2965    0.8274    0.9107 C   0  0  0  0  0  0  0  0  0  0  0  0
    1.1842    0.3621    0.0731 C   0  0  0  0  0  0  0  0  0  0  0  0
   -3.7490   -1.7245    2.4745 C   0  0  0  0  0  0  0  0  0  0  0  0
    0.4006   -2.4420   -0.2628 C   0  0  0  0  0  0  0  0  0  0  0  0
   -5.9068   -2.2018   -0.3712 C   0  0  0  0  0  0  0  0  0  0  0  0
   -3.7675    0.0757   -0.9039 C   0  0  0  0  0  0  0  0  0  0  0  0
    2.2238   -0.8112   -0.0504 C   0  0  0  0  0  0  0  0  0  0  0  0
    1.7796    1.5861    0.8897 C   0  0  0  0  0  0  0  0  0  0  0  0
    0.8961    0.8673   -1.3663 C   0  0  0  0  0  0  0  0  0  0  0  0
    1.7035   -2.1431   -0.2806 C   0  0  0  0  0  0  0  0  0  0  0  0
   -4.6132    1.2856   -0.5680 C   0  0  0  0  0  0  0  0  0  0  0  0
   -6.6271   -1.6817   -1.6143 C   0  0  0  0  0  0  0  0  0  0  0  0
   -6.8877   -2.9029    0.5583 C   0  0  0  0  0  0  0  0  0  0  0  0
    3.2410    1.7310    0.6855 C   0  0  0  0  0  0  0  0  0  0  0  0
    3.5638   -0.6370    0.0233 C   0  0  0  0  0  0  0  0  0  0  0  0
    4.0030    0.6630    0.3002 C   0  0  0  0  0  0  0  0  0  0  0  0
    4.1609    2.7825    0.8238 C   0  0  0  0  0  0  0  0  0  0  0  0
    6.4217    0.3569   -0.1133 C   0  0  0  0  0  0  0  0  0  0  0  0
    6.3023   -0.7002   -1.0053 C   0  0  0  0  0  0  0  0  0  0  0  0
    7.6521    0.6916    0.4362 C   0  0  0  0  0  0  0  0  0  0  0  0
    7.4344   -1.4365   -1.3545 C   0  0  0  0  0  0  0  0  0  0  0  0
    8.7844   -0.0447    0.0871 C   0  0  0  0  0  0  0  0  0  0  0  0
    8.6755   -1.1088   -0.8083 C   0  0  0  0  0  0  0  0  0  0  0  0
  1  8  1  0
  1  9  1  0
  1 10  1  0
  1 11  2  0
  2 18  1  0
  3 44  1  0
  4 16  1  0
  4 26  1  0
  5 19  1  0
  5 26  1  0
  6 22  1  0
  7 27  2  0
  8 32  1  0
 12 13  1  0
 12 37  1  0
 12 39  1  0
 13 38  2  0
 14 15  1  0
 14 16  1  0
 14 21  1  0
 14 24  1  0
 15 17  1  0
 15 20  1  0
 16 19  1  0
 16 27  1  0
 17 18  1  0
 17 25  1  0
 18 22  1  0
 18 23  1  0
 19 20  1  0
 21 22  1  0
 23 28  1  0
 23 29  1  0
 23 30  1  0
 25 31  2  0
 26 33  1  0
 26 34  1  0
 27 32  1  0
 28 31  1  0
 28 36  2  0
 29 35  1  0
 35 37  2  0
 35 38  1  0
 36 37  1  0
 39 40  2  0
 39 41  1  0
 40 42  1  0
 41 43  2  0
 42 44  2  0
 43 44  1  0
M  END
>  <PUBCHEM_COMPOUND_CID>  (1) 
31842

>  <PUBCHEM_CONFORMER_RMSD>  (1) 
1

>  <PUBCHEM_CONFORMER_DIVERSEORDER>  (1) 
7
89
22
100
37
58
101
5
107
24
102
43
72
106
62
56
47
31
87
94
39
21
52
61
121
115
92
60
25
74
76
9
38
105
18
36
20
81
123
23
86
30
85
12
40
98
70
112
67
59
42
68
50
88
8
49
19
119
35
3
17
122
116
29
55
66
73
95
80
2
64
79
75
44
15
99
32
114
16
26
93
48
54
6
97
4
13
125
90
91
45
33
109
103
84
51
27
82
96
53
1
65
104
83
34
117
71
113
57
78
63
46
108
111
41
124
14
11
69
28
110
118
77
120
10

>  <PUBCHEM_MMFF94_PARTIAL_CHARGES>  (1) 
47
1 1.51
10 -0.77
11 -0.7
12 0.59
13 -0.71
16 0.34
17 0.14
18 0.34
19 0.28
2 -0.34
22 0.28
23 0.14
25 -0.29
26 0.56
27 0.45
28 -0.14
29 0.18
3 -0.19
31 -0.15
32 0.34
35 -0.18
36 -0.11
37 -0.2
38 0.14
39 -0.02
4 -0.56
40 -0.15
41 -0.15
42 -0.15
43 -0.15
44 0.19
5 -0.56
56 0.15
6 -0.68
62 0.15
63 0.4
7 -0.57
72 0.15
73 0.15
74 0.15
75 0.15
76 0.5
77 0.5
78 0.15
79 0.15
8 -0.55
9 -0.77

>  <PUBCHEM_EFFECTIVE_ROTOR_COUNT>  (1) 
6.4

>  <PUBCHEM_PHARMACOPHORE_FEATURES>  (1) 
18
1 10 acceptor
1 11 acceptor
1 13 acceptor
1 4 acceptor
1 5 acceptor
1 6 acceptor
1 6 donor
1 7 acceptor
1 9 acceptor
3 26 33 34 hydrophobe
4 1 9 10 11 anion
5 12 13 35 37 38 rings
5 14 15 16 19 20 rings
5 4 5 16 19 26 rings
6 14 15 17 18 21 22 rings
6 17 18 23 25 28 31 rings
6 23 28 29 35 36 37 rings
6 39 40 41 42 43 44 rings

>  <PUBCHEM_HEAVY_ATOM_COUNT>  (1) 
44

>  <PUBCHEM_ATOM_DEF_STEREO_COUNT>  (1) 
3

>  <PUBCHEM_ATOM_UDEF_STEREO_COUNT>  (1) 
5

>  <PUBCHEM_BOND_DEF_STEREO_COUNT>  (1) 
0

>  <PUBCHEM_BOND_UDEF_STEREO_COUNT>  (1) 
0

>  <PUBCHEM_ISOTOPIC_ATOM_COUNT>  (1) 
0

>  <PUBCHEM_COMPONENT_COUNT>  (1) 
1

>  <PUBCHEM_CACTVS_TAUTO_COUNT>  (1) 
2

>  <PUBCHEM_CONFORMER_ID>  (1) 
00007C6200000007

>  <PUBCHEM_MMFF94_ENERGY>  (1) 
129.0367

>  <PUBCHEM_FEATURE_SELFOVERLAP>  (1) 
92.054

>  <PUBCHEM_SHAPE_FINGERPRINT>  (1) 
10190206 1 18337097987883115149
11135926 11 16487257655589748462
12166972 35 18336828709885647740
12788726 201 18189036725526012819
13782708 43 18411143567526310314
13811026 1 18341608244139997172
14118638 360 17894621548300761427
14294032 229 17532368674219454348
14856354 85 16443069434463467314
15064986 266 18261964036892028785
15183329 4 18335698373594190698
15361156 5 18118974822217715214
15439362 3 17978227154452512917
15975801 100 17387118776673580669
16090146 7 16587747563738942250
17899979 129 17616526260540666685
18603816 31 15984816091062615455
19304152 47 17024031458938822405
19611394 137 17680434639660463747
21033650 10 18187081741689935281
21133410 127 17248640664607703805
21792961 116 18131631162556093199
21859007 373 18339066139234964312
21927370 108 17677061247886266649
22393880 68 18412258437229013122
23559900 14 18056756756976814146
23569917 315 18130234881737856558
23576562 1 18261118487250911980
249057 25 17273995682126718058
354706 132 18113899304175666653
4098825 35 18412544293288637027
4353968 344 18341606023309817311
44880568 143 18408326584297627972
563151 97 18260265209675420027
57527295 17 18186798041556467506
6081469 158 18410854403603377390
6086070 43 18342171142659540472
6691757 9 15936700310593865408
9953998 17 10592047963712180310

>  <PUBCHEM_SHAPE_MULTIPOLES>  (1) 
837.88
22.52
4.43
1.53
42.32
4.74
0.28
-4.48
-7.02
-9.18
-0.98
-1.34
0.05
2.9

>  <PUBCHEM_SHAPE_SELFOVERLAP>  (1) 
1852.481

>  <PUBCHEM_SHAPE_VOLUME>  (1) 
459.5

>  <PUBCHEM_COORDINATE_TYPE>  (1) 
2
5
10

$$$$
