31870
     RDKit          3D

 28 31  0  0  1  0  0  0  0  0999 V2000
   -0.0253    0.7576   -0.1652 O   0  0  0  0  0  0  0  0  0  0  0  0
    5.6798    1.3956   -0.5424 O   0  0  0  0  0  0  0  0  0  0  0  0
   -2.8120   -0.0250    1.9681 O   0  0  0  0  0  0  0  0  0  0  0  0
   -0.4647    1.2298    2.0474 O   0  0  0  0  0  0  0  0  0  0  0  0
    3.5769   -0.9590   -0.7320 N   0  0  0  0  0  0  0  0  0  0  0  0
    3.5741    0.4264   -1.2470 C   0  0  0  0  0  0  0  0  0  0  0  0
    3.3159   -0.7782    0.7070 C   0  0  0  0  0  0  0  0  0  0  0  0
    4.3129    1.2461   -0.1788 C   0  0  0  0  0  0  0  0  0  0  0  0
    4.1885    0.4189    1.1050 C   0  0  0  0  0  0  0  0  0  0  0  0
    2.0868    0.8266   -1.3312 C   0  0  0  0  0  0  0  0  0  0  0  0
    1.8102   -0.4753    0.8363 C   0  0  0  0  0  0  0  0  0  0  0  0
    1.3835    0.7624    0.0329 C   0  0  0  0  0  0  0  0  0  0  0  0
    4.8219   -1.6724   -0.9984 C   0  0  0  0  0  0  0  0  0  0  0  0
   -2.9593    0.8813   -0.2228 C   0  0  0  0  0  0  0  0  0  0  0  0
   -2.1157    0.0241    0.7188 C   0  0  0  0  0  0  0  0  0  0  0  0
   -3.0792    2.3152    0.3107 C   0  0  0  0  0  0  0  0  0  0  0  0
   -4.3462    0.2569   -0.4279 C   0  0  0  0  0  0  0  0  0  0  0  0
   -0.7893    0.7401    0.9724 C   0  0  0  0  0  0  0  0  0  0  0  0
   -3.9629    3.1787   -0.5865 C   0  0  0  0  0  0  0  0  0  0  0  0
   -5.2277    1.1238   -1.3240 C   0  0  0  0  0  0  0  0  0  0  0  0
   -5.3373    2.5506   -0.7952 C   0  0  0  0  0  0  0  0  0  0  0  0
    6.4207    2.0537    0.4757 C   0  0  0  0  0  0  0  0  0  0  0  0
   -1.8840   -1.4175    0.2855 C   0  0  0  0  0  0  0  0  0  0  0  0
   -1.8134   -2.4001    1.2512 C   0  0  0  0  0  0  0  0  0  0  0  0
   -1.7515   -1.6958   -1.0590 C   0  0  0  0  0  0  0  0  0  0  0  0
   -1.6006   -3.7204    0.8545 C   0  0  0  0  0  0  0  0  0  0  0  0
   -1.5388   -3.0161   -1.4558 C   0  0  0  0  0  0  0  0  0  0  0  0
   -1.4634   -4.0283   -0.4990 C   0  0  0  0  0  0  0  0  0  0  0  0
  1 12  1  0
  1 18  1  0
  2  8  1  0
  2 22  1  0
  3 15  1  0
  4 18  2  0
  5  6  1  0
  5  7  1  0
  5 13  1  0
  6  8  1  0
  6 10  1  0
  7  9  1  0
  7 11  1  0
  8  9  1  0
 10 12  1  0
 11 12  1  0
 14 15  1  0
 14 16  1  0
 14 17  1  0
 15 18  1  0
 15 23  1  0
 16 19  1  0
 17 20  1  0
 19 21  1  0
 20 21  1  0
 23 24  2  0
 23 25  1  0
 24 26  1  0
 25 27  2  0
 26 28  2  0
 27 28  1  0
M  END
>  <PUBCHEM_COMPOUND_CID>  (1) 
31870

>  <PUBCHEM_CONFORMER_RMSD>  (1) 
1

>  <PUBCHEM_CONFORMER_DIVERSEORDER>  (1) 
7
214
207
220
168
92
173
96
115
133
17
117
127
197
80
38
124
149
201
128
104
215
122
156
151
5
8
178
113
189
187
103
161
56
162
112
50
134
142
36
14
180
172
69
111
202
9
129
99
132
105
6
130
74
182
59
72
13
107
102
79
121
205
84
109
125
221
52
216
184
179
139
51
157
185
209
21
60
90
41
170
159
24
144
106
135
61
155
137
58
158
22
19
70
123
211
71
217
176
196
199
94
126
183
166
203
141
55
101
43
154
110
218
77
177
83
192
98
4
188
171
114
145
164
193
225
120
26
42
198
27
163
160
53
44
147
49
140
210
175
37
136
108
40
116
195
153
20
131
206
12
191
97
88
32
200
204
224
86
65
46
208
219
138
25
91
81
212
11
181
85
118
148
76
73
75
31
35
87
68
23
45
143
3
47
167
30
66
93
15
16
213
222
34
186
29
119
54
63
62
28
89
146
190
78
1
194
2
152
223
169
82
48
67
165
100
174
57
33
95
64
18
10
39
150

>  <PUBCHEM_MMFF94_PARTIAL_CHARGES>  (1) 
25
1 -0.43
12 0.28
13 0.27
15 0.48
18 0.66
2 -0.56
22 0.28
23 -0.14
24 -0.15
25 -0.15
26 -0.15
27 -0.15
28 -0.15
3 -0.68
4 -0.57
5 -0.81
56 0.4
57 0.15
58 0.15
59 0.15
6 0.27
60 0.15
61 0.15
7 0.27
8 0.28

>  <PUBCHEM_EFFECTIVE_ROTOR_COUNT>  (1) 
8.4

>  <PUBCHEM_PHARMACOPHORE_FEATURES>  (1) 
8
1 2 acceptor
1 3 acceptor
1 3 donor
1 4 acceptor
1 5 cation
6 14 16 17 19 20 21 rings
6 23 24 25 26 27 28 rings
8 5 6 7 8 9 10 11 12 rings

>  <PUBCHEM_HEAVY_ATOM_COUNT>  (1) 
28

>  <PUBCHEM_ATOM_DEF_STEREO_COUNT>  (1) 
1

>  <PUBCHEM_ATOM_UDEF_STEREO_COUNT>  (1) 
4

>  <PUBCHEM_BOND_DEF_STEREO_COUNT>  (1) 
0

>  <PUBCHEM_BOND_UDEF_STEREO_COUNT>  (1) 
0

>  <PUBCHEM_ISOTOPIC_ATOM_COUNT>  (1) 
0

>  <PUBCHEM_COMPONENT_COUNT>  (1) 
1

>  <PUBCHEM_CACTVS_TAUTO_COUNT>  (1) 
1

>  <PUBCHEM_CONFORMER_ID>  (1) 
00007C7E00000007

>  <PUBCHEM_MMFF94_ENERGY>  (1) 
82.9527

>  <PUBCHEM_FEATURE_SELFOVERLAP>  (1) 
40.605

>  <PUBCHEM_SHAPE_FINGERPRINT>  (1) 
10366900 7 16845294943047238528
105312 117 18335421253497566287
10675989 125 17981607069985937904
107951 10 18041007206619191299
10906281 52 17703806815664214425
11135609 187 18273211972288568721
11370993 70 18339360768952073967
11578080 2 18126841827260701889
12714826 92 18127423451620727451
12788726 201 18190448553753406723
12895837 130 18042129911223281636
13149001 5 17988348382318858769
13224815 77 18340493382399371162
13257819 101 17024293151495907069
133893 2 17692543208675868691
13583140 156 18059574762804046484
13631057 29 17984705786300922886
14713325 29 18335147467002834795
15131766 46 14708925261491436814
15163728 17 18044954380648597877
15420108 30 15754594453358422888
15439362 3 17974283219170254061
15463212 79 18260536840481060483
15775530 1 17769632515725180001
16752209 62 18339632426034946683
167882 2 18193555558696071615
17349148 13 14261350258507086244
17980427 23 17313667182960065820
19315092 285 13685160965416723758
20197701 30 18338229358987325463
20511986 3 17968923271715226208
20775438 99 17479980492861490349
21033648 29 18340761572436145961
21033650 10 17701844110184060348
21344244 246 18054505803752429183
21424621 283 18270685260282353113
21521721 280 18342740685567245409
21859007 373 17897996950736129452
22907989 373 18265909114951326493
22950370 63 9583220778288564813
23366157 5 17614277772177414667
23559900 14 18201726150414508152
23598288 3 17824281477582929079
249057 3 18337393734814337582
25265897 201 18048355294176867901
32027 91 18197508329374645230
3298306 158 18339360734851110079
34934 24 18186798080480002936
3633792 109 18198338455482526596
3759504 43 18333448729758999291
376196 1 17899128322304589385
4015057 19 17274821372082606480
4017518 198 18057313999563472566
5283173 99 18343013402361782185
550186 72 17905890632206339884
6138700 20 17979074877532685830
9981440 41 18261396586240090873

>  <PUBCHEM_SHAPE_MULTIPOLES>  (1) 
547.77
11.99
3.94
1.49
10.92
3.3
-0.23
-9.66
2.68
-4.1
0.48
-0.23
0.24
0.94

>  <PUBCHEM_SHAPE_SELFOVERLAP>  (1) 
1168.28

>  <PUBCHEM_SHAPE_VOLUME>  (1) 
302.9

>  <PUBCHEM_COORDINATE_TYPE>  (1) 
2
5
10

$$$$
