31879
     RDKit          3D

 18 19  0  0  1  0  0  0  0  0999 V2000
   -1.8666   -2.3674    1.3909 Cl  0  0  0  0  0  0  0  0  0  0  0  0
    0.0584   -0.9986   -1.8569 O   0  0  0  0  0  0  0  0  0  0  0  0
    3.7067    0.9886    0.3806 N   0  0  0  0  0  0  0  0  0  0  0  0
   -0.4506    0.0275    0.2007 N   0  0  0  0  0  0  0  0  0  0  0  0
    4.4307   -0.2748    0.5736 C   0  0  0  0  0  0  0  0  0  0  0  0
    2.2485    0.7682    0.4304 C   0  0  0  0  0  0  0  0  0  0  0  0
    4.1063   -1.2611   -0.5588 C   0  0  0  0  0  0  0  0  0  0  0  0
    1.7987   -0.3809   -0.4258 C   0  0  0  0  0  0  0  0  0  0  0  0
    2.6444   -1.3070   -0.8973 C   0  0  0  0  0  0  0  0  0  0  0  0
    4.1117    1.9819    1.3735 C   0  0  0  0  0  0  0  0  0  0  0  0
    0.3834   -0.4904   -0.7828 C   0  0  0  0  0  0  0  0  0  0  0  0
   -1.8655    0.0886    0.1937 C   0  0  0  0  0  0  0  0  0  0  0  0
   -2.4842    1.2085   -0.3424 C   0  0  0  0  0  0  0  0  0  0  0  0
   -2.6079   -0.9597    0.7166 C   0  0  0  0  0  0  0  0  0  0  0  0
   -3.8771    1.2814   -0.3558 C   0  0  0  0  0  0  0  0  0  0  0  0
   -1.7008    2.3476   -0.9104 C   0  0  0  0  0  0  0  0  0  0  0  0
   -4.0008   -0.8864    0.7033 C   0  0  0  0  0  0  0  0  0  0  0  0
   -4.6354    0.2340    0.1670 C   0  0  0  0  0  0  0  0  0  0  0  0
  1 14  1  0
  2 11  2  0
  3  5  1  0
  3  6  1  0
  3 10  1  0
  4 11  1  0
  4 12  1  0
  5  7  1  0
  6  8  1  0
  7  9  1  0
  8  9  2  0
  8 11  1  0
 12 13  2  0
 12 14  1  0
 13 15  1  0
 13 16  1  0
 14 17  2  0
 15 18  2  0
 17 18  1  0
M  END
>  <PUBCHEM_COMPOUND_CID>  (1) 
31879

>  <PUBCHEM_CONFORMER_RMSD>  (1) 
0.6

>  <PUBCHEM_CONFORMER_DIVERSEORDER>  (1) 
1
25
19
9
17
16
8
27
14
3
13
15
18
7
22
2
29
6
21
10
28
23
5
26
11
31
4
12
20
24
30

>  <PUBCHEM_MMFF94_PARTIAL_CHARGES>  (1) 
23
1 -0.18
10 0.27
11 0.62
12 0.12
13 -0.14
14 0.18
15 -0.15
16 0.14
17 -0.15
18 -0.15
2 -0.57
25 0.15
29 0.37
3 -0.81
30 0.15
34 0.15
35 0.15
4 -0.55
5 0.27
6 0.41
7 0.14
8 -0.12
9 -0.29

>  <PUBCHEM_EFFECTIVE_ROTOR_COUNT>  (1) 
3.8

>  <PUBCHEM_PHARMACOPHORE_FEATURES>  (1) 
5
1 2 acceptor
1 3 cation
1 4 donor
6 12 13 14 15 17 18 rings
6 3 5 6 7 8 9 rings

>  <PUBCHEM_HEAVY_ATOM_COUNT>  (1) 
18

>  <PUBCHEM_ATOM_DEF_STEREO_COUNT>  (1) 
0

>  <PUBCHEM_ATOM_UDEF_STEREO_COUNT>  (1) 
0

>  <PUBCHEM_BOND_DEF_STEREO_COUNT>  (1) 
0

>  <PUBCHEM_BOND_UDEF_STEREO_COUNT>  (1) 
0

>  <PUBCHEM_ISOTOPIC_ATOM_COUNT>  (1) 
0

>  <PUBCHEM_COMPONENT_COUNT>  (1) 
1

>  <PUBCHEM_CACTVS_TAUTO_COUNT>  (1) 
2

>  <PUBCHEM_CONFORMER_ID>  (1) 
00007C8700000001

>  <PUBCHEM_MMFF94_ENERGY>  (1) 
63.0862

>  <PUBCHEM_FEATURE_SELFOVERLAP>  (1) 
25.371

>  <PUBCHEM_SHAPE_FINGERPRINT>  (1) 
10366900 7 18411146813830593582
10608611 8 18412543180586386044
10646746 165 18261110729769003388
1100329 8 14447412266053753874
11045977 3 18410575080505352640
11132069 177 18333453144816418661
11370993 70 18334574629075349338
11615757 297 17132398319295215466
12119455 92 17989203737566114887
12236239 1 16226053279786063893
12403259 415 18410013195746285253
12500047 106 18187366488988853591
12507560 40 18411698790263795380
12553582 1 14634864254372945114
12596602 18 16226057720539940816
12633257 1 18265053544064363200
12670545 47 18411429418304529854
13083527 12 17618508018352982531
13296909 8 17967810552883355141
13533116 47 18115018593974905155
13583140 156 18337659820343146894
14026960 21 18342737472440934836
14289901 80 18041286547112388096
14341114 176 18261115179719229456
15219456 202 18342177756328550213
15309172 13 17561085808326720439
15342168 16 17346321539289365817
15375358 24 18412263943229543003
15653759 3 18335424547410447236
15961568 22 17968098689729817788
1813 80 15213299677994262686
18175812 5 18341617005477467085
19049666 15 18194407688628441862
200 152 17417808409883661975
20279233 1 18411707577387191787
204376 136 17489587887176976766
20510252 161 18336548218567256865
20600515 1 18114471140590333917
20645477 56 18334580109822364129
20645477 70 17846502491706011670
20681677 76 18341890826817220168
21033648 29 18058997411672489736
21065198 57 18411420592104441058
21065199 12 18409449202200005754
21065201 7 17967534540841346258
22854114 59 18202565081327139990
23402539 116 18335134289795413255
23419403 2 16887205263738769703
23557571 272 18335428945525855133
23559900 14 18261682488895683806
351380 180 18412822460723778799
49207404 50 18341613767357085776
5104073 3 18411703162355718363
573450 72 17022901246404019209
602551 16 17894634764231479658
69090 78 18413387635766106847
77492 1 15123510272587555727
9709674 26 18409737261161621043

>  <PUBCHEM_SHAPE_MULTIPOLES>  (1) 
356.47
9.55
2.12
1.25
2.95
0.24
-0.08
1.1
2.06
-0.44
0.34
0.54
-0.17
2.04

>  <PUBCHEM_SHAPE_SELFOVERLAP>  (1) 
738.371

>  <PUBCHEM_SHAPE_VOLUME>  (1) 
204.9

>  <PUBCHEM_COORDINATE_TYPE>  (1) 
2
5
10

$$$$
