3187
     RDKit          3D

 25 24  0  0  1  0  0  0  0  0999 V2000
    0.9176    0.9923    0.3010 O   0  0  0  0  0  0  0  0  0  0  0  0
   -3.6962    3.1953    0.3426 O   0  0  0  0  0  0  0  0  0  0  0  0
   -2.3427    1.3573    1.7010 O   0  0  0  0  0  0  0  0  0  0  0  0
   -5.0992   -0.5933   -0.6187 O   0  0  0  0  0  0  0  0  0  0  0  0
   -5.8912    1.2983    0.3559 O   0  0  0  0  0  0  0  0  0  0  0  0
   -1.5784    0.2946   -0.2172 N   0  0  0  0  0  0  0  0  0  0  0  0
    1.3780   -0.9602    1.4708 N   0  0  0  0  0  0  0  0  0  0  0  0
    5.4946    0.1409   -0.2749 N   0  0  0  0  0  0  0  0  0  0  0  0
    5.3014    2.1479   -1.5805 N   0  0  0  0  0  0  0  0  0  0  0  0
    7.1551    1.7574   -0.3133 N   0  0  0  0  0  0  0  0  0  0  0  0
   -0.6708   -1.9946   -0.4030 C   0  0  0  0  0  0  0  0  0  0  0  0
   -0.7949   -0.7190    0.4400 C   0  0  0  0  0  0  0  0  0  0  0  0
   -2.0126   -2.6611   -0.7693 C   0  0  0  0  0  0  0  0  0  0  0  0
    0.5848   -0.1220    0.6995 C   0  0  0  0  0  0  0  0  0  0  0  0
   -2.7605   -3.0517    0.5085 C   0  0  0  0  0  0  0  0  0  0  0  0
   -1.8283   -3.8937   -1.6554 C   0  0  0  0  0  0  0  0  0  0  0  0
    2.7126   -0.6124    1.9025 C   0  0  0  0  0  0  0  0  0  0  0  0
    3.7636   -1.5931    1.3913 C   0  0  0  0  0  0  0  0  0  0  0  0
   -2.2961    1.2604    0.4766 C   0  0  0  0  0  0  0  0  0  0  0  0
    3.8252   -1.6424   -0.1401 C   0  0  0  0  0  0  0  0  0  0  0  0
   -3.0550    2.2046   -0.4475 C   0  0  0  0  0  0  0  0  0  0  0  0
    4.1795   -0.2907   -0.7513 C   0  0  0  0  0  0  0  0  0  0  0  0
   -4.0936    1.4526   -1.2837 C   0  0  0  0  0  0  0  0  0  0  0  0
   -5.1215    0.7514   -0.4215 C   0  0  0  0  0  0  0  0  0  0  0  0
    5.9287    1.2813   -0.7134 C   0  0  0  0  0  0  0  0  0  0  0  0
  1 14  2  0
  2 21  1  0
  3 19  2  0
  4 24  1  0
  5 24  2  0
  6 12  1  0
  6 19  1  0
  7 14  1  0
  7 17  1  0
  8 22  1  0
  8 25  2  3
  9 25  1  0
 10 25  1  0
 11 12  1  0
 11 13  1  0
 12 14  1  0
 13 15  1  0
 13 16  1  0
 17 18  1  0
 18 20  1  0
 19 21  1  0
 20 22  1  0
 21 23  1  0
 23 24  1  0
M  END
>  <PUBCHEM_COMPOUND_CID>  (1) 
3187

>  <PUBCHEM_CONFORMER_RMSD>  (1) 
1.2

>  <PUBCHEM_CONFORMER_DIVERSEORDER>  (1) 
6
71
69
134
5
53
22
24
9
62
57
91
129
74
109
76
85
119
123
60
42
90
54
4
47
41
20
7
81
51
38
79
45
126
122
110
37
16
17
114
116
15
40
121
23
58
105
65
12
61
43
34
14
80
44
83
87
92
127
31
108
73
88
93
32
128
82
84
63
49
25
136
67
138
48
30
13
100
125
103
124
117
139
86
66
19
36
50
120
89
1
135
133
77
70
111
26
52
101
10
137
131
39
64
130
29
106
118
72
56
46
18
112
104
28
115
21
107
75
27
98
3
94
96
35
55
11
8
33
59
95
68
132
102
78
97
113
2
99

>  <PUBCHEM_MMFF94_PARTIAL_CHARGES>  (1) 
27
1 -0.57
10 -0.85
12 0.36
14 0.57
17 0.3
19 0.57
2 -0.68
21 0.34
22 0.25
23 0.06
24 0.66
25 0.55
3 -0.57
30 0.37
39 0.37
4 -0.65
49 0.4
5 -0.57
50 0.5
51 0.4
52 0.4
53 0.4
54 0.4
6 -0.73
7 -0.73
8 -0.7
9 -0.85

>  <PUBCHEM_EFFECTIVE_ROTOR_COUNT>  (1) 
14

>  <PUBCHEM_PHARMACOPHORE_FEATURES>  (1) 
13
1 1 acceptor
1 10 donor
1 2 acceptor
1 2 donor
1 3 acceptor
1 4 acceptor
1 5 acceptor
1 6 donor
1 7 donor
1 9 donor
3 13 15 16 hydrophobe
3 4 5 24 anion
4 8 9 10 25 cation

>  <PUBCHEM_HEAVY_ATOM_COUNT>  (1) 
25

>  <PUBCHEM_ATOM_DEF_STEREO_COUNT>  (1) 
0

>  <PUBCHEM_ATOM_UDEF_STEREO_COUNT>  (1) 
2

>  <PUBCHEM_BOND_DEF_STEREO_COUNT>  (1) 
0

>  <PUBCHEM_BOND_UDEF_STEREO_COUNT>  (1) 
0

>  <PUBCHEM_ISOTOPIC_ATOM_COUNT>  (1) 
0

>  <PUBCHEM_COMPONENT_COUNT>  (1) 
1

>  <PUBCHEM_CACTVS_TAUTO_COUNT>  (1) 
8

>  <PUBCHEM_CONFORMER_ID>  (1) 
00000C7300000006

>  <PUBCHEM_MMFF94_ENERGY>  (1) 
37.977

>  <PUBCHEM_FEATURE_SELFOVERLAP>  (1) 
66.098

>  <PUBCHEM_SHAPE_FINGERPRINT>  (1) 
11200772 71 18338796827030083942
12760667 363 9151169835742495337
12788726 201 18337381768144804011
13583140 156 17604160267271904257
14251757 5 18342736368412975735
14790565 3 18266179430991760601
19319366 153 18040991800528997690
19427546 20 18338517576915303046
19784866 240 12751239216262564904
20511986 3 18187070768143322236
22907989 373 18271803540373412671
23559900 14 17988636462849898984
25147074 1 18115290259715543850
3472631 163 18334860519958370148
5486654 2 18271799104499968071
7237137 82 18341049726123483039

>  <PUBCHEM_SHAPE_MULTIPOLES>  (1) 
460.24
14.3
3.69
1.45
15.43
2.03
-0.22
-9.86
3.89
-3.23
1.21
0.67
0.31
-2.09

>  <PUBCHEM_SHAPE_SELFOVERLAP>  (1) 
893.479

>  <PUBCHEM_SHAPE_VOLUME>  (1) 
275

>  <PUBCHEM_COORDINATE_TYPE>  (1) 
2
5
10

$$$$
