31898
     RDKit          3D

 20 21  0  0  0  0  0  0  0  0999 V2000
    3.9337   -0.0063   -0.4101 S   0  0  0  0  0  0  0  0  0  0  0  0
   -2.4737    1.5658   -0.1371 O   0  0  0  0  0  0  0  0  0  0  0  0
    3.4597    0.2797   -1.7513 O   0  0  0  0  0  0  0  0  0  0  0  0
    5.3255    0.2569   -0.0844 O   0  0  0  0  0  0  0  0  0  0  0  0
    3.6101   -1.6588   -0.0414 N   0  0  0  0  0  0  0  0  0  0  0  0
    2.9837    0.8317    0.7552 N   0  0  0  0  0  0  0  0  0  0  0  0
    1.5760    1.0214    0.5250 C   0  0  0  0  0  0  0  0  0  0  0  0
    0.6547    0.3561    1.3237 C   0  0  0  0  0  0  0  0  0  0  0  0
    1.1550    1.8674   -0.4934 C   0  0  0  0  0  0  0  0  0  0  0  0
   -1.1422    1.3875    0.0807 C   0  0  0  0  0  0  0  0  0  0  0  0
    3.9588   -2.1460    1.3155 C   0  0  0  0  0  0  0  0  0  0  0  0
    2.3809   -2.2929   -0.5740 C   0  0  0  0  0  0  0  0  0  0  0  0
   -0.7099    0.5397    1.1007 C   0  0  0  0  0  0  0  0  0  0  0  0
   -0.2095    2.0513   -0.7165 C   0  0  0  0  0  0  0  0  0  0  0  0
   -3.2814    0.4409   -0.1428 C   0  0  0  0  0  0  0  0  0  0  0  0
   -2.8662   -0.6832   -0.8333 C   0  0  0  0  0  0  0  0  0  0  0  0
   -4.4828    0.4712    0.5420 C   0  0  0  0  0  0  0  0  0  0  0  0
   -3.6803   -1.8158   -0.8395 C   0  0  0  0  0  0  0  0  0  0  0  0
   -5.2967   -0.6615    0.5359 C   0  0  0  0  0  0  0  0  0  0  0  0
   -4.8954   -1.8050   -0.1550 C   0  0  0  0  0  0  0  0  0  0  0  0
  1  3  2  0
  1  4  2  0
  1  5  1  0
  1  6  1  0
  2 10  1  0
  2 15  1  0
  5 11  1  0
  5 12  1  0
  6  7  1  0
  7  8  2  0
  7  9  1  0
  8 13  1  0
  9 14  2  0
 10 13  2  0
 10 14  1  0
 15 16  2  0
 15 17  1  0
 16 18  1  0
 17 19  2  0
 18 20  2  0
 19 20  1  0
M  END
>  <PUBCHEM_COMPOUND_CID>  (1) 
31898

>  <PUBCHEM_CONFORMER_RMSD>  (1) 
0.8

>  <PUBCHEM_CONFORMER_DIVERSEORDER>  (1) 
1
13
28
11
12
18
20
27
23
25
6
26
5
24
16
2
31
10
19
17
4
14
21
22
29
9
30
8
3
15
7

>  <PUBCHEM_MMFF94_PARTIAL_CHARGES>  (1) 
30
1 1.58
10 0.08
11 0.36
12 0.36
13 -0.15
14 -0.15
15 0.08
16 -0.15
17 -0.15
18 -0.15
19 -0.15
2 -0.17
20 -0.15
21 0.42
22 0.15
23 0.15
3 -0.65
30 0.15
31 0.15
32 0.15
33 0.15
34 0.15
35 0.15
36 0.15
4 -0.65
5 -0.85
6 -0.76
7 0.2
8 -0.15
9 -0.15

>  <PUBCHEM_EFFECTIVE_ROTOR_COUNT>  (1) 
5

>  <PUBCHEM_PHARMACOPHORE_FEATURES>  (1) 
4
1 2 acceptor
1 6 donor
6 15 16 17 18 19 20 rings
6 7 8 9 10 13 14 rings

>  <PUBCHEM_HEAVY_ATOM_COUNT>  (1) 
20

>  <PUBCHEM_ATOM_DEF_STEREO_COUNT>  (1) 
0

>  <PUBCHEM_ATOM_UDEF_STEREO_COUNT>  (1) 
0

>  <PUBCHEM_BOND_DEF_STEREO_COUNT>  (1) 
0

>  <PUBCHEM_BOND_UDEF_STEREO_COUNT>  (1) 
0

>  <PUBCHEM_ISOTOPIC_ATOM_COUNT>  (1) 
0

>  <PUBCHEM_COMPONENT_COUNT>  (1) 
1

>  <PUBCHEM_CACTVS_TAUTO_COUNT>  (1) 
1

>  <PUBCHEM_CONFORMER_ID>  (1) 
00007C9A00000001

>  <PUBCHEM_MMFF94_ENERGY>  (1) 
70.4328

>  <PUBCHEM_FEATURE_SELFOVERLAP>  (1) 
20.297

>  <PUBCHEM_SHAPE_FINGERPRINT>  (1) 
10498660 4 11891317769301554135
10670039 82 10665502972995230146
11089746 13 9655579582340156177
11128504 68 17603872246738719084
11796584 16 17988931076152238135
12553582 1 18343292673956518423
12596602 18 16200148854502923651
12633257 1 16056601019043317755
12644460 14 15625932209831941920
12670546 177 17313390075057467020
13167823 11 18343303682036936113
13551218 46 18343867715034584343
13583140 156 17345735452447634105
13675066 3 15626226797122312505
14251751 18 18339350869290106586
14576447 43 18335137618025685264
14617045 38 18342747320758863591
15209294 21 10303817574817965417
15342816 4 18410017611315284260
15537594 2 18412269449446409175
17349148 13 17676486125447129712
17804303 29 18131070459213497977
17857418 61 18341889706179045567
1813 80 17967533484601353005
18915474 69 18260828185345442466
19141452 34 18341613690300940301
20281475 54 18410572864212830041
20291156 8 18411133641234299517
20645477 70 18116145756976263013
20775530 9 17912645696518406870
21250096 35 18202563977494177811
21673915 165 18343019999357487926
22950370 63 18408606959176466089
23402539 116 17749105565505484572
235170 7 15936405624361574659
23559900 14 18201145641865271665
239999 70 17988928903226074204
2838139 119 11458421357827007406
3004659 81 18261674775102855790
314173 41 18131075951891198036
33382 64 18342463664049237851
3472631 163 10809879892668523931
351380 180 8142088654115518143
351380 3 18342177782014172511
4259306 186 18260543437804047503
4340502 62 17988353884456808048
46194498 28 17313664974787433703
463206 1 18336549407788063514
5104073 3 18343015549797575032
633830 44 16805893878935447929
76465 3 18262230015716367242
88748 71 18191868924886179218

>  <PUBCHEM_SHAPE_MULTIPOLES>  (1) 
387.87
11.21
2.36
1.18
2.68
0.74
0.03
5.77
-0.06
-0.55
-0.22
-0.6
0.11
-0.78

>  <PUBCHEM_SHAPE_SELFOVERLAP>  (1) 
802.658

>  <PUBCHEM_SHAPE_VOLUME>  (1) 
223

>  <PUBCHEM_COORDINATE_TYPE>  (1) 
2
5
10

$$$$
