31893
     RDKit          3D

 13 13  0  0  0  0  0  0  0  0999 V2000
    0.0601   -1.9666   -0.0116 O   0  0  0  0  0  0  0  0  0  0  0  0
    4.1735    0.8119   -0.0254 N   0  0  0  0  0  0  0  0  0  0  0  0
   -2.3132   -0.4634    0.0629 C   0  0  0  0  0  0  0  0  0  0  0  0
   -3.4730    0.5368    0.0235 C   0  0  0  0  0  0  0  0  0  0  0  0
   -0.9465    0.2258    0.0572 C   0  0  0  0  0  0  0  0  0  0  0  0
   -4.8224   -0.1815   -0.0042 C   0  0  0  0  0  0  0  0  0  0  0  0
    0.2219   -0.7490    0.0212 C   0  0  0  0  0  0  0  0  0  0  0  0
   -5.9766    0.8044   -0.0889 C   0  0  0  0  0  0  0  0  0  0  0  0
    1.6084   -0.2015    0.0049 C   0  0  0  0  0  0  0  0  0  0  0  0
    1.7817    1.1598    0.0230 C   0  0  0  0  0  0  0  0  0  0  0  0
    2.6646   -1.0769   -0.0276 C   0  0  0  0  0  0  0  0  0  0  0  0
    3.0890    1.6184    0.0067 C   0  0  0  0  0  0  0  0  0  0  0  0
    3.9324   -0.5181   -0.0418 C   0  0  0  0  0  0  0  0  0  0  0  0
  1  7  2  0
  2 12  2  0
  2 13  1  0
  3  4  1  0
  3  5  1  0
  4  6  1  0
  5  7  1  0
  6  8  1  0
  7  9  1  0
  9 10  2  0
  9 11  1  0
 10 12  1  0
 11 13  2  0
M  END
>  <PUBCHEM_COMPOUND_CID>  (1) 
31893

>  <PUBCHEM_CONFORMER_RMSD>  (1) 
0.6

>  <PUBCHEM_CONFORMER_DIVERSEORDER>  (1) 
2
30
3
12
63
5
68
90
26
95
87
34
11
97
94
48
60
28
76
54
92
32
78
10
9
80
39
83
27
41
35
64
37
17
15
23
53
75
38
82
6
96
16
56
22
50
89
13
84
20
91
8
21
29
85
62
93
70
72
18
55
24
77
98
1
4
7
79
46
40
88
86
42
59
69
58
71
14
67
57
31
52
66
19
81
74
49
51
44
25
61
36
47
73
43
45
65
33

>  <PUBCHEM_MMFF94_PARTIAL_CHARGES>  (1) 
13
1 -0.57
10 -0.15
11 -0.15
12 0.16
13 0.16
2 -0.62
25 0.15
26 0.15
27 0.15
28 0.15
5 0.06
7 0.42
9 0.09

>  <PUBCHEM_EFFECTIVE_ROTOR_COUNT>  (1) 
5

>  <PUBCHEM_PHARMACOPHORE_FEATURES>  (1) 
5
1 1 acceptor
1 2 acceptor
1 8 hydrophobe
4 3 4 5 6 hydrophobe
6 2 9 10 11 12 13 rings

>  <PUBCHEM_HEAVY_ATOM_COUNT>  (1) 
13

>  <PUBCHEM_ATOM_DEF_STEREO_COUNT>  (1) 
0

>  <PUBCHEM_ATOM_UDEF_STEREO_COUNT>  (1) 
0

>  <PUBCHEM_BOND_DEF_STEREO_COUNT>  (1) 
0

>  <PUBCHEM_BOND_UDEF_STEREO_COUNT>  (1) 
0

>  <PUBCHEM_ISOTOPIC_ATOM_COUNT>  (1) 
0

>  <PUBCHEM_COMPONENT_COUNT>  (1) 
1

>  <PUBCHEM_CACTVS_TAUTO_COUNT>  (1) 
2

>  <PUBCHEM_CONFORMER_ID>  (1) 
00007C9500000002

>  <PUBCHEM_MMFF94_ENERGY>  (1) 
21.8647

>  <PUBCHEM_FEATURE_SELFOVERLAP>  (1) 
25.372

>  <PUBCHEM_SHAPE_FINGERPRINT>  (1) 
11287383 113 18335142016436232419
11471102 20 18411982459878967572
13081056 2 18335420153864917749
13167372 99 18199190599207608417
13922767 16 18411417319370977568
14123238 8 8862940580988555097
14252887 29 11458418007799826904
14325111 11 18410856598373759450
17834072 33 18130502016139180687
17834072 8 18271814510088827126
17834076 25 15936411130846745097
18186145 218 18409722971778521094
200 152 18202843249838428777
20606313 2 18412826888914357636
20645477 70 18341614767694556430
212847 35 18408323298056393252
23402539 116 18130781282785282981
23402655 69 18272369797372192781
366044 4 18410292527365542563
4047638 21 18410293622961640818
42788 4 18410292502270582117
449060 62 18410293618286871857
4990 188 17918280852365357655
522135 26 18410575072100021382
69090 78 18411697716326993983
77779 3 18411419523000404175
8272917 22 18270966739168597119

>  <PUBCHEM_SHAPE_MULTIPOLES>  (1) 
256.68
10.89
1.44
0.6
14.16
0.06
0
-2.99
-0.3
-1.01
0
0.03
-0.01
0.05

>  <PUBCHEM_SHAPE_SELFOVERLAP>  (1) 
514.052

>  <PUBCHEM_SHAPE_VOLUME>  (1) 
150.3

>  <PUBCHEM_COORDINATE_TYPE>  (1) 
2
5
10

$$$$
