31891
     RDKit          3D

 23 24  0  0  0  0  0  0  0  0999 V2000
   -1.1530    0.3100   -1.2122 O   0  0  0  0  0  0  0  0  0  0  0  0
    0.2366    2.1112   -0.9929 O   0  0  0  0  0  0  0  0  0  0  0  0
    0.9634   -0.0192   -0.3589 N   0  0  0  0  0  0  0  0  0  0  0  0
   -3.6582    0.5958    0.1116 N   0  0  0  0  0  0  0  0  0  0  0  0
    2.2798    0.3881    0.0694 C   0  0  0  0  0  0  0  0  0  0  0  0
    0.6516   -1.4230   -0.2397 C   0  0  0  0  0  0  0  0  0  0  0  0
    2.1831    1.3772    1.2333 C   0  0  0  0  0  0  0  0  0  0  0  0
    3.0713    0.9795   -1.1001 C   0  0  0  0  0  0  0  0  0  0  0  0
    1.5881   -2.2622   -1.1128 C   0  0  0  0  0  0  0  0  0  0  0  0
    0.7119   -1.8634    1.2250 C   0  0  0  0  0  0  0  0  0  0  0  0
    3.5611    1.8658    1.6725 C   0  0  0  0  0  0  0  0  0  0  0  0
    4.4484    1.4670   -0.6573 C   0  0  0  0  0  0  0  0  0  0  0  0
    1.3110   -3.7555   -0.9601 C   0  0  0  0  0  0  0  0  0  0  0  0
    0.4376   -3.3575    1.3750 C   0  0  0  0  0  0  0  0  0  0  0  0
    4.3497    2.4513    0.5046 C   0  0  0  0  0  0  0  0  0  0  0  0
    1.3697   -4.1919    0.5010 C   0  0  0  0  0  0  0  0  0  0  0  0
    0.0317    0.9051   -0.8668 C   0  0  0  0  0  0  0  0  0  0  0  0
   -2.1650    1.1759   -1.7392 C   0  0  0  0  0  0  0  0  0  0  0  0
   -3.0112    1.6957   -0.5879 C   0  0  0  0  0  0  0  0  0  0  0  0
   -4.8254    0.1215   -0.6358 C   0  0  0  0  0  0  0  0  0  0  0  0
   -4.0541    1.0020    1.4624 C   0  0  0  0  0  0  0  0  0  0  0  0
   -5.4689   -1.0717    0.0502 C   0  0  0  0  0  0  0  0  0  0  0  0
   -2.8593    1.4986    2.2587 C   0  0  0  0  0  0  0  0  0  0  0  0
  1 17  1  0
  1 18  1  0
  2 17  2  0
  3  5  1  0
  3  6  1  0
  3 17  1  0
  4 19  1  0
  4 20  1  0
  4 21  1  0
  5  7  1  0
  5  8  1  0
  6  9  1  0
  6 10  1  0
  7 11  1  0
  8 12  1  0
  9 13  1  0
 10 14  1  0
 11 15  1  0
 12 15  1  0
 13 16  1  0
 14 16  1  0
 18 19  1  0
 20 22  1  0
 21 23  1  0
M  END
>  <PUBCHEM_COMPOUND_CID>  (1) 
31891

>  <PUBCHEM_CONFORMER_RMSD>  (1) 
1

>  <PUBCHEM_CONFORMER_DIVERSEORDER>  (1) 
3
12
37
27
28
5
25
13
29
4
34
36
22
24
26
32
21
30
33
35
8
14
9
18
20
11
23
1
16
7
17
10
6
2
31
15
19

>  <PUBCHEM_MMFF94_PARTIAL_CHARGES>  (1) 
11
1 -0.43
17 0.78
18 0.28
19 0.27
2 -0.57
20 0.27
21 0.27
3 -0.66
4 -0.81
5 0.3
6 0.3

>  <PUBCHEM_EFFECTIVE_ROTOR_COUNT>  (1) 
11.4

>  <PUBCHEM_PHARMACOPHORE_FEATURES>  (1) 
4
1 2 acceptor
1 4 cation
6 5 7 8 11 12 15 rings
6 6 9 10 13 14 16 rings

>  <PUBCHEM_HEAVY_ATOM_COUNT>  (1) 
23

>  <PUBCHEM_ATOM_DEF_STEREO_COUNT>  (1) 
0

>  <PUBCHEM_ATOM_UDEF_STEREO_COUNT>  (1) 
0

>  <PUBCHEM_BOND_DEF_STEREO_COUNT>  (1) 
0

>  <PUBCHEM_BOND_UDEF_STEREO_COUNT>  (1) 
0

>  <PUBCHEM_ISOTOPIC_ATOM_COUNT>  (1) 
0

>  <PUBCHEM_COMPONENT_COUNT>  (1) 
1

>  <PUBCHEM_CACTVS_TAUTO_COUNT>  (1) 
1

>  <PUBCHEM_CONFORMER_ID>  (1) 
00007C9300000003

>  <PUBCHEM_MMFF94_ENERGY>  (1) 
30.4958

>  <PUBCHEM_FEATURE_SELFOVERLAP>  (1) 
20.297

>  <PUBCHEM_SHAPE_FINGERPRINT>  (1) 
10074138 170 17830433326855485002
10906281 52 17313392210337325597
11488393 25 18190184473399324602
12160290 23 17905306770161694766
12549972 3 17608654907993562593
12596599 1 17910959046113512019
12707595 3 17760080722954260135
12788726 201 17544471320406593550
13004483 165 8285665073094161956
13140716 1 18337378392758957682
13533116 47 18269836420510195593
13583140 156 18201712921725982213
13681431 1 17835507233678376326
14251757 17 14045736058480736544
14787075 74 17914887875836879049
14863182 85 18260277360148079847
18785283 64 18335977585128209382
20028762 73 18123752212803823663
20101258 96 17187849719163969162
20567600 347 18335699459577299122
20603629 256 18266747878803455835
20681651 13 18271243821074005473
21120745 212 17046274394569396526
21304303 172 17546160170166871150
21796203 349 17689748288441212139
22224240 67 18338228392514331437
22956985 138 17824247220829552418
23419403 2 17552691041750131558
23557571 272 16733544880219925653
23559900 14 17825098212790313029
3052486 1 17751091407658580783
3797600 57 17918268779639549843
427121 178 18411416245766322984
458136 41 18410297982284946092
469060 322 17897988356442890143
474229 33 18261108629440299061
59755656 520 18340196518512530516
633830 44 17989489636491509444
6442390 28 18339923830653824606
7164475 11 10518618188396502068
7288768 16 17627203969437968856
81228 2 17758938708551207630

>  <PUBCHEM_SHAPE_MULTIPOLES>  (1) 
451.63
8.87
4.3
1.77
8.4
6.03
0.52
-5.93
0.87
-3.7
0.72
0.42
-0.46
0.28

>  <PUBCHEM_SHAPE_SELFOVERLAP>  (1) 
893.531

>  <PUBCHEM_SHAPE_VOLUME>  (1) 
266.9

>  <PUBCHEM_COORDINATE_TYPE>  (1) 
2
5
10

$$$$
