31905
     RDKit          3D

 14 15  0  0  1  0  0  0  0  0999 V2000
   -2.0210   -0.0857   -0.1709 O   0  0  0  0  0  0  0  0  0  0  0  0
   -0.8641    0.0442   -2.2055 O   0  0  0  0  0  0  0  0  0  0  0  0
    0.3109   -0.2497   -0.0845 C   0  0  0  0  0  0  0  0  0  0  0  0
   -0.8517    0.4357   -0.8286 C   0  0  0  0  0  0  0  0  0  0  0  0
   -0.2494   -1.6681    0.0865 C   0  0  0  0  0  0  0  0  0  0  0  0
    0.5493    0.3789    1.3136 C   0  0  0  0  0  0  0  0  0  0  0  0
   -0.8350    1.9647   -0.7559 C   0  0  0  0  0  0  0  0  0  0  0  0
   -1.7688   -1.4752    0.1092 C   0  0  0  0  0  0  0  0  0  0  0  0
    1.6248   -0.2633   -0.8778 C   0  0  0  0  0  0  0  0  0  0  0  0
    0.6342    1.9015    1.2811 C   0  0  0  0  0  0  0  0  0  0  0  0
   -0.6187    2.4982    0.6546 C   0  0  0  0  0  0  0  0  0  0  0  0
   -2.4269   -1.8536    1.4241 C   0  0  0  0  0  0  0  0  0  0  0  0
    2.6687   -1.0623   -0.1679 C   0  0  0  0  0  0  0  0  0  0  0  0
    3.8478   -0.5654    0.2220 C   0  0  0  0  0  0  0  0  0  0  0  0
  1  4  1  0
  1  8  1  0
  2  4  1  0
  3  4  1  0
  3  5  1  0
  3  6  1  0
  3  9  1  0
  4  7  1  0
  5  8  1  0
  6 10  1  0
  7 11  1  0
  8 12  1  0
  9 13  1  0
 10 11  1  0
 13 14  2  0
M  END
>  <PUBCHEM_COMPOUND_CID>  (1) 
31905

>  <PUBCHEM_CONFORMER_RMSD>  (1) 
0.6

>  <PUBCHEM_CONFORMER_DIVERSEORDER>  (1) 
5
18
22
21
29
9
23
8
1
28
24
19
3
16
10
15
26
2
27
7
14
20
17
13
12
11
25
4
6

>  <PUBCHEM_MMFF94_PARTIAL_CHARGES>  (1) 
11
1 -0.56
13 -0.29
14 -0.3
2 -0.68
28 0.4
32 0.15
33 0.15
34 0.15
4 0.56
8 0.28
9 0.14

>  <PUBCHEM_EFFECTIVE_ROTOR_COUNT>  (1) 
3.4

>  <PUBCHEM_PHARMACOPHORE_FEATURES>  (1) 
6
1 1 acceptor
1 14 hydrophobe
1 2 acceptor
1 2 donor
5 1 3 4 5 8 rings
6 3 4 6 7 10 11 rings

>  <PUBCHEM_HEAVY_ATOM_COUNT>  (1) 
14

>  <PUBCHEM_ATOM_DEF_STEREO_COUNT>  (1) 
0

>  <PUBCHEM_ATOM_UDEF_STEREO_COUNT>  (1) 
3

>  <PUBCHEM_BOND_DEF_STEREO_COUNT>  (1) 
0

>  <PUBCHEM_BOND_UDEF_STEREO_COUNT>  (1) 
0

>  <PUBCHEM_ISOTOPIC_ATOM_COUNT>  (1) 
0

>  <PUBCHEM_COMPONENT_COUNT>  (1) 
1

>  <PUBCHEM_CACTVS_TAUTO_COUNT>  (1) 
1

>  <PUBCHEM_CONFORMER_ID>  (1) 
00007CA100000005

>  <PUBCHEM_MMFF94_ENERGY>  (1) 
34.998

>  <PUBCHEM_FEATURE_SELFOVERLAP>  (1) 
30.69

>  <PUBCHEM_SHAPE_FINGERPRINT>  (1) 
10702982 57 17761496889514113480
12423570 1 12938683455811901057
13024252 1 13190638104358264470
14761567 1 17973693966267490759
14817 1 10865176354567372741
16945 1 18115604637945897015
19837323 101 18126564514101239894
20379382 53 17835807765081925681
21061003 4 18130792291124274098
21296965 67 18336558212465511682
21524375 3 17121135768605840256
23419403 2 18192135204115050653
23559900 14 18339912711780216794
2748010 2 18194102217521540877
305870 269 17406565074344868641
369184 2 18270959025607488070
430814 3 17404861449612645664
576247 118 18338238279296808674
68419 9 15070552333558568333
81228 2 18267322944506106680

>  <PUBCHEM_SHAPE_MULTIPOLES>  (1) 
276.37
3.56
2.39
1.45
3.45
1.08
-0.25
-2.18
0.49
-1.12
0.72
-0.44
0.2
0.65

>  <PUBCHEM_SHAPE_SELFOVERLAP>  (1) 
568.095

>  <PUBCHEM_SHAPE_VOLUME>  (1) 
159.2

>  <PUBCHEM_COORDINATE_TYPE>  (1) 
2
5
10

$$$$
