31903
     RDKit          3D

 17 18  0  0  0  0  0  0  0  0999 V2000
    0.2674    2.2734   -0.3920 O   0  0  0  0  0  0  0  0  0  0  0  0
   -1.0785   -2.8883   -0.0858 O   0  0  0  0  0  0  0  0  0  0  0  0
    2.2604    0.4255   -0.6664 N   0  0  0  0  0  0  0  0  0  0  0  0
    3.3526    0.0859    0.2072 C   0  0  0  0  0  0  0  0  0  0  0  0
    4.4011    1.2010    0.1347 C   0  0  0  0  0  0  0  0  0  0  0  0
    2.8140   -0.0374    1.6365 C   0  0  0  0  0  0  0  0  0  0  0  0
    3.9674   -1.2454   -0.2408 C   0  0  0  0  0  0  0  0  0  0  0  0
    0.9760    0.0107   -0.4587 C   0  0  0  0  0  0  0  0  0  0  0  0
   -0.0452    1.0892   -0.3215 C   0  0  0  0  0  0  0  0  0  0  0  0
   -1.4516    0.6981   -0.0958 C   0  0  0  0  0  0  0  0  0  0  0  0
    0.6040   -1.2726   -0.3755 C   0  0  0  0  0  0  0  0  0  0  0  0
   -1.8124   -0.6471   -0.0129 C   0  0  0  0  0  0  0  0  0  0  0  0
   -0.7920   -1.6992   -0.1513 C   0  0  0  0  0  0  0  0  0  0  0  0
   -2.4311    1.6899    0.0362 C   0  0  0  0  0  0  0  0  0  0  0  0
   -3.1486   -1.0038    0.2023 C   0  0  0  0  0  0  0  0  0  0  0  0
   -3.7628    1.3321    0.2502 C   0  0  0  0  0  0  0  0  0  0  0  0
   -4.1208   -0.0120    0.3335 C   0  0  0  0  0  0  0  0  0  0  0  0
  1  9  2  0
  2 13  2  0
  3  4  1  0
  3  8  1  0
  4  5  1  0
  4  6  1  0
  4  7  1  0
  8  9  1  0
  8 11  2  0
  9 10  1  0
 10 12  2  0
 10 14  1  0
 11 13  1  0
 12 13  1  0
 12 15  1  0
 14 16  2  0
 15 17  2  0
 16 17  1  0
M  END
>  <PUBCHEM_COMPOUND_CID>  (1) 
31903

>  <PUBCHEM_CONFORMER_RMSD>  (1) 
0.6

>  <PUBCHEM_CONFORMER_DIVERSEORDER>  (1) 
1
2

>  <PUBCHEM_MMFF94_PARTIAL_CHARGES>  (1) 
20
1 -0.57
10 0.09
11 -0.14
12 0.09
13 0.47
14 -0.15
15 -0.15
16 -0.15
17 -0.15
18 0.4
2 -0.57
28 0.15
29 0.15
3 -0.87
30 0.15
31 0.15
32 0.15
4 0.37
8 0.11
9 0.47

>  <PUBCHEM_EFFECTIVE_ROTOR_COUNT>  (1) 
2

>  <PUBCHEM_PHARMACOPHORE_FEATURES>  (1) 
7
1 1 acceptor
1 2 acceptor
1 3 cation
1 3 donor
4 4 5 6 7 hydrophobe
6 10 12 14 15 16 17 rings
6 8 9 10 11 12 13 rings

>  <PUBCHEM_HEAVY_ATOM_COUNT>  (1) 
17

>  <PUBCHEM_ATOM_DEF_STEREO_COUNT>  (1) 
0

>  <PUBCHEM_ATOM_UDEF_STEREO_COUNT>  (1) 
0

>  <PUBCHEM_BOND_DEF_STEREO_COUNT>  (1) 
0

>  <PUBCHEM_BOND_UDEF_STEREO_COUNT>  (1) 
0

>  <PUBCHEM_ISOTOPIC_ATOM_COUNT>  (1) 
0

>  <PUBCHEM_COMPONENT_COUNT>  (1) 
1

>  <PUBCHEM_CACTVS_TAUTO_COUNT>  (1) 
3

>  <PUBCHEM_CONFORMER_ID>  (1) 
00007C9F00000001

>  <PUBCHEM_MMFF94_ENERGY>  (1) 
58.2291

>  <PUBCHEM_FEATURE_SELFOVERLAP>  (1) 
35.541

>  <PUBCHEM_SHAPE_FINGERPRINT>  (1) 
10967382 1 18338239262802199167
11132069 177 18410290294087816229
11543360 7 15410599394366760533
12119455 92 17203324481661391622
12236239 1 17748829622704763228
12251169 10 18409165554012125556
12382932 28 18410576145683700337
12403814 3 17603862325575229613
12500047 106 18272083933371630002
13140716 1 18050576432540714467
13221675 6 18260266373521379466
13380535 76 18411984637512133647
13544592 145 18201169758617997262
13581323 91 18410853278295337920
13583140 156 17022895774747754189
13675066 3 18259989275000227402
14144814 61 18335138700067384448
14178342 30 18267598905383522105
15042514 8 18337679740713254107
15196674 1 18410857646298177023
15209294 21 17917442973424457345
15219456 202 18202005382769671470
15309172 13 18410301276561739923
15375462 189 17894623768988523552
15536298 74 18271247101527134486
16945 1 18339087093862910503
17804303 29 18413394249741130708
17846911 113 18341610399886402289
1813 80 16950845787577208942
18186145 218 17988089889221336648
193761 8 17906456884941073773
200 152 18202273724353485117
20028762 73 18056767748574675751
20510252 161 18343867692773680161
20528008 55 18272647952418330688
21267235 1 18336558152341276598
21501502 16 18122347053700868981
23175994 123 17203614753190047304
2334 1 18338521828916887359
23402539 116 18342730828126255447
23419403 2 16615541151957308773
23463225 33 18333733489794555444
23559900 14 18272092669619739030
2748010 2 18266752272655369343
34934 24 18262796384442702444
4072396 5 18189321399810292449
43471831 8 18262236599611555851
465052 167 17968111858156776739
5104073 3 18410858745841493162
53812653 166 18271806796074414121
54173680 148 18193280912764905803
58807428 26 18336545993431319427
69090 78 18272929427448055415
7364860 26 17911240516331122719
77492 1 17676207978774466214
81228 2 18124290951483037591
84936 31 16413506684775180910
90316 7 17968649432721148692
9709674 26 18342463659691389158

>  <PUBCHEM_SHAPE_MULTIPOLES>  (1) 
333.13
7.6
2.15
0.84
2.72
0.57
-0.25
-1.29
-1.21
-0.69
0.19
0.49
-0.03
0.06

>  <PUBCHEM_SHAPE_SELFOVERLAP>  (1) 
716.882

>  <PUBCHEM_SHAPE_VOLUME>  (1) 
183.6

>  <PUBCHEM_COORDINATE_TYPE>  (1) 
2
5
10

$$$$
