31904
     RDKit          3D

  9  8  0  0  1  0  0  0  0  0999 V2000
    0.0154   -0.0689    0.2684 O   0  0  0  0  0  0  0  0  0  0  0  0
    2.3577    1.3659   -0.1096 O   0  0  0  0  0  0  0  0  0  0  0  0
   -2.4008    0.0179    0.3211 C   0  0  0  0  0  0  0  0  0  0  0  0
   -1.1613   -0.7215   -0.1903 C   0  0  0  0  0  0  0  0  0  0  0  0
    1.1887   -0.7192   -0.2004 C   0  0  0  0  0  0  0  0  0  0  0  0
    2.4099    0.0131    0.3409 C   0  0  0  0  0  0  0  0  0  0  0  0
   -2.4413    1.4589   -0.1920 C   0  0  0  0  0  0  0  0  0  0  0  0
   -3.6707   -0.7263   -0.0859 C   0  0  0  0  0  0  0  0  0  0  0  0
    3.7024   -0.6199   -0.1521 C   0  0  0  0  0  0  0  0  0  0  0  0
  1  4  1  0
  1  5  1  0
  2  6  1  0
  3  4  1  0
  3  7  1  0
  3  8  1  0
  5  6  1  0
  6  9  1  0
M  END
>  <PUBCHEM_COMPOUND_CID>  (1) 
31904

>  <PUBCHEM_CONFORMER_RMSD>  (1) 
0.6

>  <PUBCHEM_CONFORMER_DIVERSEORDER>  (1) 
2
13
8
12
4
7
11
9
14
6
5
10
1
3

>  <PUBCHEM_MMFF94_PARTIAL_CHARGES>  (1) 
6
1 -0.56
2 -0.68
25 0.4
4 0.28
5 0.28
6 0.28

>  <PUBCHEM_EFFECTIVE_ROTOR_COUNT>  (1) 
4

>  <PUBCHEM_PHARMACOPHORE_FEATURES>  (1) 
4
1 1 acceptor
1 2 acceptor
1 2 donor
3 3 7 8 hydrophobe

>  <PUBCHEM_HEAVY_ATOM_COUNT>  (1) 
9

>  <PUBCHEM_ATOM_DEF_STEREO_COUNT>  (1) 
0

>  <PUBCHEM_ATOM_UDEF_STEREO_COUNT>  (1) 
1

>  <PUBCHEM_BOND_DEF_STEREO_COUNT>  (1) 
0

>  <PUBCHEM_BOND_UDEF_STEREO_COUNT>  (1) 
0

>  <PUBCHEM_ISOTOPIC_ATOM_COUNT>  (1) 
0

>  <PUBCHEM_COMPONENT_COUNT>  (1) 
1

>  <PUBCHEM_CACTVS_TAUTO_COUNT>  (1) 
1

>  <PUBCHEM_CONFORMER_ID>  (1) 
00007CA000000002

>  <PUBCHEM_MMFF94_ENERGY>  (1) 
11.8755

>  <PUBCHEM_FEATURE_SELFOVERLAP>  (1) 
20.302

>  <PUBCHEM_SHAPE_FINGERPRINT>  (1) 
11062470 55 11169910589193626891
12162725 195 18408323289170929621
12932764 1 17632567258250626927
14325111 11 18411418405791910082
14390081 3 18409728452299221865
19973954 147 18410858728693596373
20211469 26 18114177549452572887
20279233 1 8358257050967498481
21028194 46 18272652350401603234
22485316 2 9511461108635261660
3248919 1 16877951520275733099

>  <PUBCHEM_SHAPE_MULTIPOLES>  (1) 
173.48
6.69
1.23
0.65
0.99
0.44
0
-0.44
-0.15
-0.31
-0.1
-0.02
-0.01
0.07

>  <PUBCHEM_SHAPE_SELFOVERLAP>  (1) 
309.318

>  <PUBCHEM_SHAPE_VOLUME>  (1) 
114.2

>  <PUBCHEM_COORDINATE_TYPE>  (1) 
2
5
10

$$$$
