31913
     RDKit          3D

 21 23  0  0  1  0  0  0  0  0999 V2000
    1.7811   -0.4323   -0.4755 N   0  0  0  0  0  0  0  0  0  0  0  0
   -1.0599   -0.8563   -0.6420 N   0  0  0  0  0  0  0  0  0  0  0  0
    5.0804    1.1393    0.2640 N   0  0  0  0  0  0  0  0  0  0  0  0
    0.8875    0.3416    0.3998 C   0  0  0  0  0  0  0  0  0  0  0  0
    1.2669   -1.8037   -0.6123 C   0  0  0  0  0  0  0  0  0  0  0  0
    0.7737   -0.2681    1.8130 C   0  0  0  0  0  0  0  0  0  0  0  0
    1.1745   -2.5365    0.7427 C   0  0  0  0  0  0  0  0  0  0  0  0
   -0.4793    0.4528   -0.3170 C   0  0  0  0  0  0  0  0  0  0  0  0
   -0.0957   -1.7159   -1.3404 C   0  0  0  0  0  0  0  0  0  0  0  0
    0.4226   -1.7558    1.8205 C   0  0  0  0  0  0  0  0  0  0  0  0
    3.1842   -0.3683   -0.0852 C   0  0  0  0  0  0  0  0  0  0  0  0
   -2.2967   -0.7154   -1.4044 C   0  0  0  0  0  0  0  0  0  0  0  0
    3.6813    1.0730   -0.1437 C   0  0  0  0  0  0  0  0  0  0  0  0
   -3.3398    0.0586   -0.6431 C   0  0  0  0  0  0  0  0  0  0  0  0
   -4.2260   -0.6190    0.1828 C   0  0  0  0  0  0  0  0  0  0  0  0
   -3.4003    1.4387   -0.7773 C   0  0  0  0  0  0  0  0  0  0  0  0
    5.5566    2.5234    0.2465 C   0  0  0  0  0  0  0  0  0  0  0  0
    5.9104    0.3053   -0.6066 C   0  0  0  0  0  0  0  0  0  0  0  0
   -5.1924    0.0979    0.8883 C   0  0  0  0  0  0  0  0  0  0  0  0
   -4.3667    2.1555   -0.0716 C   0  0  0  0  0  0  0  0  0  0  0  0
   -5.2626    1.4851    0.7613 C   0  0  0  0  0  0  0  0  0  0  0  0
  1  4  1  0
  1  5  1  0
  1 11  1  0
  2  8  1  0
  2  9  1  0
  2 12  1  0
  3 13  1  0
  3 17  1  0
  3 18  1  0
  4  6  1  0
  4  8  1  0
  5  7  1  0
  5  9  1  0
  6 10  1  0
  7 10  1  0
 11 13  1  0
 12 14  1  0
 14 15  2  0
 14 16  1  0
 15 19  1  0
 16 20  2  0
 19 21  2  0
 20 21  1  0
M  END
>  <PUBCHEM_COMPOUND_CID>  (1) 
31913

>  <PUBCHEM_CONFORMER_RMSD>  (1) 
0.8

>  <PUBCHEM_CONFORMER_DIVERSEORDER>  (1) 
1
127
38
25
126
112
101
97
94
79
30
133
28
131
41
92
86
74
80
11
107
106
77
93
34
117
82
115
21
45
129
33
88
116
35
90
124
29
46
68
104
31
128
103
132
26
114
23
89
60
122
5
71
37
52
111
61
91
22
8
15
125
118
43
14
54
6
3
17
70
135
85
16
102
108
24
87
2
81
50
56
105
18
7
72
113
9
83
12
75
27
13
121
120
4
64
130
32
84
58
98
96
20
59
73
10
63
19
109
123
47
36
69
57
99
48
134
44
76
100
65
95
78
51
42
62
53
110
40
49
39
67
66
55
119

>  <PUBCHEM_MMFF94_PARTIAL_CHARGES>  (1) 
23
1 -0.81
11 0.27
12 0.41
13 0.27
14 -0.14
15 -0.15
16 -0.15
17 0.27
18 0.27
19 -0.15
2 -0.81
20 -0.15
21 -0.15
3 -0.81
4 0.27
40 0.15
41 0.15
48 0.15
49 0.15
5 0.27
50 0.15
8 0.27
9 0.27

>  <PUBCHEM_EFFECTIVE_ROTOR_COUNT>  (1) 
6.4

>  <PUBCHEM_PHARMACOPHORE_FEATURES>  (1) 
6
1 1 cation
1 2 cation
1 3 cation
6 1 2 4 5 8 9 rings
6 1 4 5 6 7 10 rings
6 14 15 16 19 20 21 rings

>  <PUBCHEM_HEAVY_ATOM_COUNT>  (1) 
21

>  <PUBCHEM_ATOM_DEF_STEREO_COUNT>  (1) 
0

>  <PUBCHEM_ATOM_UDEF_STEREO_COUNT>  (1) 
2

>  <PUBCHEM_BOND_DEF_STEREO_COUNT>  (1) 
0

>  <PUBCHEM_BOND_UDEF_STEREO_COUNT>  (1) 
0

>  <PUBCHEM_ISOTOPIC_ATOM_COUNT>  (1) 
0

>  <PUBCHEM_COMPONENT_COUNT>  (1) 
1

>  <PUBCHEM_CACTVS_TAUTO_COUNT>  (1) 
1

>  <PUBCHEM_CONFORMER_ID>  (1) 
00007CA900000001

>  <PUBCHEM_MMFF94_ENERGY>  (1) 
53.5411

>  <PUBCHEM_FEATURE_SELFOVERLAP>  (1) 
32.046

>  <PUBCHEM_SHAPE_FINGERPRINT>  (1) 
10165383 225 17561090220038887423
10366900 7 18340194281066704035
10382601 240 18261951838794504871
10692045 39 18261657205092950498
10759866 29 18200031716521805307
10922049 32 18187363251042298930
11135609 12 10375575067023070365
12293681 160 17275390919364380722
12633257 1 16298396776622139861
12788726 201 16773524261092858594
12839892 36 14129053720775763752
12892183 10 13984928629022060324
12930653 34 15864894440299437085
13544653 18 8790890709027492948
14251751 18 9367334947277147985
14341114 328 18186799171354080561
14713325 29 18197498643347699478
14790565 3 18342178886058585984
14848178 5 8862946082514977448
15048467 5 17917994987963984960
15183329 4 16343710919499663388
15238133 3 17130699466867673755
1601671 61 18130785642261711664
17349148 13 12324249321407452521
17959699 21 18129659833145469560
18222031 100 10231759989860231748
19784866 170 18334295344689779845
19784866 34 18412259540977676838
19784866 9 18411132498694033642
200 152 14405194992987827766
21069387 34 9799402356447566951
21756936 100 18338509850184481386
22079108 93 17894911866720232936
22224240 67 17895194441551462955
22393880 68 11743549947827162717
23559900 14 17907860600882107007
2838139 119 18342733035950818788
2916195 48 18411134783674832600
293599 30 18202847664442407876
3009799 131 14620792695986551098
3286 77 11025808595484378679
347723 3 16917072152945966998
350125 39 17845650477864053719
392239 28 17823151158444987241
394222 165 18338791222114022306
4340502 62 17895200982639013771
439807 62 7925039540804877993
465052 167 12251903690004675720
474 4 18259987089062671748
5104073 3 18115031780062015625
5718773 13 11170211890415285265
57724786 102 17914059694689253921
59755656 520 18113054956866064826
633830 44 18410004429981784950
76465 3 7925911482592572277
7808743 9 18272083916107169919
960060 61 13039187022263278736

>  <PUBCHEM_SHAPE_MULTIPOLES>  (1) 
417.23
12.27
2.35
1.34
3.85
0.05
0.31
9.88
0.61
1.04
0.24
-0.34
-0.56
-0.13

>  <PUBCHEM_SHAPE_SELFOVERLAP>  (1) 
863.667

>  <PUBCHEM_SHAPE_VOLUME>  (1) 
236

>  <PUBCHEM_COORDINATE_TYPE>  (1) 
2
5
10

$$$$
