31919
     RDKit          3D

 22 24  0  0  1  0  0  0  0  0999 V2000
   -1.4713   -0.5617    0.6318 N   0  0  0  0  0  0  0  0  0  0  0  0
    1.0043    0.1647   -0.6416 N   0  0  0  0  0  0  0  0  0  0  0  0
   -5.4185    1.1771    0.0764 N   0  0  0  0  0  0  0  0  0  0  0  0
   -0.1996   -0.9433    1.2651 C   0  0  0  0  0  0  0  0  0  0  0  0
   -1.3506   -0.6914   -0.8284 C   0  0  0  0  0  0  0  0  0  0  0  0
    0.2039   -2.3986    0.9471 C   0  0  0  0  0  0  0  0  0  0  0  0
   -1.0131   -2.1322   -1.2665 C   0  0  0  0  0  0  0  0  0  0  0  0
    0.8660    0.0857    0.8182 C   0  0  0  0  0  0  0  0  0  0  0  0
   -0.2974    0.3404   -1.2984 C   0  0  0  0  0  0  0  0  0  0  0  0
    0.1924   -2.7339   -0.5444 C   0  0  0  0  0  0  0  0  0  0  0  0
   -2.6320   -1.2469    1.1875 C   0  0  0  0  0  0  0  0  0  0  0  0
    1.9422    1.2133   -1.0312 C   0  0  0  0  0  0  0  0  0  0  0  0
   -3.9200   -0.7420    0.5380 C   0  0  0  0  0  0  0  0  0  0  0  0
   -4.1539    0.7657    0.6736 C   0  0  0  0  0  0  0  0  0  0  0  0
    3.3030    0.9457   -0.4505 C   0  0  0  0  0  0  0  0  0  0  0  0
    3.6268    1.4556    0.8002 C   0  0  0  0  0  0  0  0  0  0  0  0
    4.2201    0.1921   -1.1717 C   0  0  0  0  0  0  0  0  0  0  0  0
   -5.4201    0.9098   -1.3631 C   0  0  0  0  0  0  0  0  0  0  0  0
   -5.6709    2.5968    0.3290 C   0  0  0  0  0  0  0  0  0  0  0  0
    4.8892    1.2074    1.3390 C   0  0  0  0  0  0  0  0  0  0  0  0
    5.4825   -0.0559   -0.6328 C   0  0  0  0  0  0  0  0  0  0  0  0
    5.8171    0.4517    0.6226 C   0  0  0  0  0  0  0  0  0  0  0  0
  1  4  1  0
  1  5  1  0
  1 11  1  0
  2  8  1  0
  2  9  1  0
  2 12  1  0
  3 14  1  0
  3 18  1  0
  3 19  1  0
  4  6  1  0
  4  8  1  0
  5  7  1  0
  5  9  1  0
  6 10  1  0
  7 10  1  0
 11 13  1  0
 12 15  1  0
 13 14  1  0
 15 16  2  0
 15 17  1  0
 16 20  1  0
 17 21  2  0
 20 22  2  0
 21 22  1  0
M  END
>  <PUBCHEM_COMPOUND_CID>  (1) 
31919

>  <PUBCHEM_CONFORMER_RMSD>  (1) 
0.8

>  <PUBCHEM_CONFORMER_DIVERSEORDER>  (1) 
11
253
87
261
296
294
178
57
63
196
98
92
214
10
155
100
271
70
90
285
160
257
62
79
164
207
65
226
233
69
227
67
212
40
263
95
59
190
290
277
176
123
35
61
260
199
225
289
213
163
88
204
58
182
84
276
195
216
259
224
45
37
298
237
97
120
243
186
51
89
174
293
274
161
301
80
209
167
28
96
145
29
300
194
299
131
193
223
151
197
8
219
172
3
170
183
141
116
302
192
56
49
15
114
189
291
24
166
60
228
249
157
273
64
156
295
30
265
13
200
202
222
27
220
82
297
250
33
239
34
169
136
16
86
235
26
144
25
71
278
36
242
52
255
236
19
187
91
208
6
55
173
66
234
20
41
262
7
42
284
205
72
38
203
210
168
74
129
177
5
17
283
152
117
119
22
43
251
111
50
244
14
256
252
179
48
75
264
248
46
165
12
280
83
231
143
148
81
110
303
240
2
181
218
93
121
112
9
281
180
266
124
272
191
32
73
122
94
275
215
287
126
201
44
115
39
198
4
113
137
229
23
184
104
18
47
68
247
132
221
254
54
118
31
53
211
142
77
76
217
241
258
288
175
106
109
78
101
146
85
268
147
127
158
149
188
139
99
133
1
270
103
245
171
153
292
269
232
140
134
238
125
21
154
128
279
150
159
185
206
130
102
267
138
304
105
230
107
162
282
286
246
135
108

>  <PUBCHEM_MMFF94_PARTIAL_CHARGES>  (1) 
23
1 -0.81
11 0.27
12 0.41
14 0.27
15 -0.14
16 -0.15
17 -0.15
18 0.27
19 0.27
2 -0.81
20 -0.15
21 -0.15
22 -0.15
3 -0.81
4 0.27
43 0.15
44 0.15
5 0.27
51 0.15
52 0.15
53 0.15
8 0.27
9 0.27

>  <PUBCHEM_EFFECTIVE_ROTOR_COUNT>  (1) 
7.4

>  <PUBCHEM_PHARMACOPHORE_FEATURES>  (1) 
6
1 1 cation
1 2 cation
1 3 cation
6 1 2 4 5 8 9 rings
6 1 4 5 6 7 10 rings
6 15 16 17 20 21 22 rings

>  <PUBCHEM_HEAVY_ATOM_COUNT>  (1) 
22

>  <PUBCHEM_ATOM_DEF_STEREO_COUNT>  (1) 
0

>  <PUBCHEM_ATOM_UDEF_STEREO_COUNT>  (1) 
2

>  <PUBCHEM_BOND_DEF_STEREO_COUNT>  (1) 
0

>  <PUBCHEM_BOND_UDEF_STEREO_COUNT>  (1) 
0

>  <PUBCHEM_ISOTOPIC_ATOM_COUNT>  (1) 
0

>  <PUBCHEM_COMPONENT_COUNT>  (1) 
1

>  <PUBCHEM_CACTVS_TAUTO_COUNT>  (1) 
1

>  <PUBCHEM_CONFORMER_ID>  (1) 
00007CAF0000000B

>  <PUBCHEM_MMFF94_ENERGY>  (1) 
53.0428

>  <PUBCHEM_FEATURE_SELFOVERLAP>  (1) 
32.046

>  <PUBCHEM_SHAPE_FINGERPRINT>  (1) 
10042902 136 8862355615181221465
10674148 151 18186524285833005152
11089746 13 18343576352346689584
11135609 201 17845947238903554673
11552529 35 15287068270764435905
11578080 2 15431422933511279423
11646440 116 18341908398056579609
11961588 58 16702008799148925663
12422481 6 17677039145008673604
12516196 113 8358252644499935885
12596602 18 14490198210924743909
12623949 98 13479407215628213896
12633257 1 16732985353281377497
12969540 114 18272078397042656693
13103583 49 15647062572839491561
13533116 47 17274831203853649038
13583140 156 17130708464834785674
13675066 3 18341059630623827778
13740256 8 9151165450934281497
14178342 30 16588605174967778739
14251732 17 18408046203777201175
14251751 93 18341050834673561679
14251758 9 18333733511543743996
14251764 30 10953733408986190688
14466204 15 18335420158023118121
14767858 380 13254792456013328232
14955137 171 11746944182892023183
15420108 30 18261385629525856739
1601671 61 17967814942171321300
1813 80 8358259267392260603
19784866 170 17603587404939885455
200 152 11959739273780047318
20197701 30 18272936032986645207
20511986 3 16630230477402430110
21033648 29 18272081738369295672
212916 134 18341607148585590498
21403212 168 18113607959326666193
21452121 103 18335422309774950411
22393880 68 17417797440911948689
22950370 63 14562532911635284760
23402539 116 18131067160103718773
23559900 14 17417542410111962134
238078 22 9511469909376666167
2838139 119 18343861104726604905
329604 57 13398628359645826265
3737641 26 11531025361989341153
38695281 34 18343302543997807711
4015057 19 15841551928790865274
4325135 7 18335139809408591527
5104073 3 17168708677655012208
5283173 99 17704065239577444081
5385378 56 18262805043075503643
53917941 68 17917421064574903127
59755656 215 18338241453393587534
59755656 520 18343575244371397119
7226269 152 18341898501982307440
9862522 239 18114166528434622957
9981440 41 18409455765479870155

>  <PUBCHEM_SHAPE_MULTIPOLES>  (1) 
437.81
12.96
2.35
1.45
0.93
0.87
-0.08
-9.73
0.61
2.01
0.09
-0.14
0.12
0.51

>  <PUBCHEM_SHAPE_SELFOVERLAP>  (1) 
902.095

>  <PUBCHEM_SHAPE_VOLUME>  (1) 
248.8

>  <PUBCHEM_COORDINATE_TYPE>  (1) 
2
5
10

$$$$
