3191
     RDKit          3D

 35 38  0  0  0  0  0  0  0  0999 V2000
    2.7844    0.0703   -0.3517 O   0  0  0  0  0  0  0  0  0  0  0  0
   -2.6124    0.8789    2.1213 O   0  0  0  0  0  0  0  0  0  0  0  0
    0.3626    3.4824    0.2990 N   0  0  0  0  0  0  0  0  0  0  0  0
    2.4549    1.4279   -0.0868 C   0  0  0  0  0  0  0  0  0  0  0  0
    1.6248    1.4972    1.1915 C   0  0  0  0  0  0  0  0  0  0  0  0
    1.6804    2.0153   -1.2640 C   0  0  0  0  0  0  0  0  0  0  0  0
    1.0990    2.9128    1.4356 C   0  0  0  0  0  0  0  0  0  0  0  0
    1.1520    3.4133   -0.9382 C   0  0  0  0  0  0  0  0  0  0  0  0
   -0.9615    2.8847    0.1435 C   0  0  0  0  0  0  0  0  0  0  0  0
   -1.9398    3.4976    1.1476 C   0  0  0  0  0  0  0  0  0  0  0  0
    3.9985   -0.3048    0.2841 C   0  0  0  0  0  0  0  0  0  0  0  0
   -3.3452    2.9015    1.0274 C   0  0  0  0  0  0  0  0  0  0  0  0
    3.9358   -1.7570    0.7099 C   0  0  0  0  0  0  0  0  0  0  0  0
    5.2054    0.0051   -0.5801 C   0  0  0  0  0  0  0  0  0  0  0  0
   -3.3997    1.4136    1.3442 C   0  0  0  0  0  0  0  0  0  0  0  0
   -7.5078   -1.7912   -1.1387 C   0  0  0  0  0  0  0  0  0  0  0  0
   -4.4606    0.5854    0.7029 C   0  0  0  0  0  0  0  0  0  0  0  0
   -6.4464   -0.9639   -0.4964 C   0  0  0  0  0  0  0  0  0  0  0  0
    4.6467   -2.1866    1.8304 C   0  0  0  0  0  0  0  0  0  0  0  0
    6.4287    0.3135    0.0150 C   0  0  0  0  0  0  0  0  0  0  0  0
    3.1675   -2.6648   -0.0189 C   0  0  0  0  0  0  0  0  0  0  0  0
    5.0924   -0.0180   -1.9701 C   0  0  0  0  0  0  0  0  0  0  0  0
   -7.1304   -3.2885   -1.3929 C   0  0  0  0  0  0  0  0  0  0  0  0
   -8.8000   -1.8318   -0.2652 C   0  0  0  0  0  0  0  0  0  0  0  0
   -7.9025   -1.2199   -2.5360 C   0  0  0  0  0  0  0  0  0  0  0  0
   -5.6891    1.1586    0.3745 C   0  0  0  0  0  0  0  0  0  0  0  0
   -4.2249   -0.7623    0.4317 C   0  0  0  0  0  0  0  0  0  0  0  0
   -6.6820    0.3840   -0.2253 C   0  0  0  0  0  0  0  0  0  0  0  0
   -5.2178   -1.5370   -0.1680 C   0  0  0  0  0  0  0  0  0  0  0  0
    4.5893   -3.5242    2.2222 C   0  0  0  0  0  0  0  0  0  0  0  0
    7.5388    0.5991   -0.7799 C   0  0  0  0  0  0  0  0  0  0  0  0
    3.1100   -4.0024    0.3729 C   0  0  0  0  0  0  0  0  0  0  0  0
    6.2024    0.2673   -2.7651 C   0  0  0  0  0  0  0  0  0  0  0  0
    3.8210   -4.4320    1.4934 C   0  0  0  0  0  0  0  0  0  0  0  0
    7.4257    0.5759   -2.1700 C   0  0  0  0  0  0  0  0  0  0  0  0
  1  4  1  0
  1 11  1  0
  2 15  2  0
  3  7  1  0
  3  8  1  0
  3  9  1  0
  4  5  1  0
  4  6  1  0
  5  7  1  0
  6  8  1  0
  9 10  1  0
 10 12  1  0
 11 13  1  0
 11 14  1  0
 12 15  1  0
 13 19  2  0
 13 21  1  0
 14 20  2  0
 14 22  1  0
 15 17  1  0
 16 18  1  0
 16 23  1  0
 16 24  1  0
 16 25  1  0
 17 26  2  0
 17 27  1  0
 18 28  2  0
 18 29  1  0
 19 30  1  0
 20 31  1  0
 21 32  2  0
 22 33  2  0
 26 28  1  0
 27 29  2  0
 30 34  2  0
 31 35  2  0
 32 34  1  0
 33 35  1  0
M  END
>  <PUBCHEM_COMPOUND_CID>  (1) 
3191

>  <PUBCHEM_CONFORMER_RMSD>  (1) 
1.6

>  <PUBCHEM_CONFORMER_DIVERSEORDER>  (1) 
1
14
16
25
11
12
4
10
20
22
18
17
26
7
24
19
8
3
13
15
6
23
5
28
21
2
27
9

>  <PUBCHEM_MMFF94_PARTIAL_CHARGES>  (1) 
43
1 -0.56
11 0.57
12 0.06
13 -0.14
14 -0.14
15 0.42
16 0.14
17 0.09
18 -0.14
19 -0.15
2 -0.57
20 -0.15
21 -0.15
22 -0.15
26 -0.15
27 -0.15
28 -0.15
29 -0.15
3 -0.81
30 -0.15
31 -0.15
32 -0.15
33 -0.15
34 -0.15
35 -0.15
4 0.28
52 0.15
53 0.15
54 0.15
55 0.15
65 0.15
66 0.15
67 0.15
68 0.15
69 0.15
7 0.27
70 0.15
71 0.15
72 0.15
73 0.15
74 0.15
8 0.27
9 0.27

>  <PUBCHEM_EFFECTIVE_ROTOR_COUNT>  (1) 
11.2

>  <PUBCHEM_PHARMACOPHORE_FEATURES>  (1) 
8
1 1 acceptor
1 2 acceptor
1 3 cation
4 16 23 24 25 hydrophobe
6 13 19 21 30 32 34 rings
6 14 20 22 31 33 35 rings
6 17 18 26 27 28 29 rings
6 3 4 5 6 7 8 rings

>  <PUBCHEM_HEAVY_ATOM_COUNT>  (1) 
35

>  <PUBCHEM_ATOM_DEF_STEREO_COUNT>  (1) 
0

>  <PUBCHEM_ATOM_UDEF_STEREO_COUNT>  (1) 
0

>  <PUBCHEM_BOND_DEF_STEREO_COUNT>  (1) 
0

>  <PUBCHEM_BOND_UDEF_STEREO_COUNT>  (1) 
0

>  <PUBCHEM_ISOTOPIC_ATOM_COUNT>  (1) 
0

>  <PUBCHEM_COMPONENT_COUNT>  (1) 
1

>  <PUBCHEM_CACTVS_TAUTO_COUNT>  (1) 
2

>  <PUBCHEM_CONFORMER_ID>  (1) 
00000C7700000001

>  <PUBCHEM_MMFF94_ENERGY>  (1) 
97.5316

>  <PUBCHEM_FEATURE_SELFOVERLAP>  (1) 
40.597

>  <PUBCHEM_SHAPE_FINGERPRINT>  (1) 
10622 236 18263638472820857595
10842051 180 18260841422904368716
11475781 23 13840268074251353932
11497681 19 18339647724961097628
11828042 279 17241058639387026814
11966995 16 18336532898983408655
12106331 60 17704068461262313589
12144603 126 18339375080184810441
12522641 33 18118688957917154708
13560911 43 18410574011570095007
13692114 37 18408603648722662570
14068700 675 18343018891715297193
14118638 360 18408889512063659923
15150948 74 18187641444432075614
15250474 111 18265337196742402240
15510800 12 17632304492911288973
1577012 14 18411420575468027355
15776043 110 18342736364703675455
17134984 74 18410009974404788434
19315092 285 17846499274775936273
208703 8 18060139881663218349
21585483 132 17986372590495464575
24204213 148 18409165481631178050
24893989 43 17987233524535934630
24983565 74 17485635272695651111
25222932 49 18340772555431782572
354706 35 18186811287547130546
42767 23 18410002252749585055
42767 46 17988645224535944175
5718773 13 17988364870888478261
6636735 143 13470692573283230295
6697151 62 17773573032693745841

>  <PUBCHEM_SHAPE_MULTIPOLES>  (1) 
703.56
25.06
5.22
2.15
29.6
1.87
-0.7
17.1
-13.85
-1.46
2.36
-1.87
0.47
-6.36

>  <PUBCHEM_SHAPE_SELFOVERLAP>  (1) 
1489.78

>  <PUBCHEM_SHAPE_VOLUME>  (1) 
389.9

>  <PUBCHEM_COORDINATE_TYPE>  (1) 
2
5
10

$$$$
