31928
     RDKit          3D

 25 28  0  0  1  0  0  0  0  0999 V2000
    0.6039    0.3664    0.3193 N   0  0  0  0  0  0  0  0  0  0  0  0
   -2.0894    0.4672   -0.6882 N   0  0  0  0  0  0  0  0  0  0  0  0
    4.3456    0.3478    0.4078 N   0  0  0  0  0  0  0  0  0  0  0  0
    0.3787    0.3141   -1.1333 C   0  0  0  0  0  0  0  0  0  0  0  0
   -0.4486   -0.3975    1.0068 C   0  0  0  0  0  0  0  0  0  0  0  0
    0.4007   -1.1283   -1.6817 C   0  0  0  0  0  0  0  0  0  0  0  0
   -0.4735   -1.8807    0.5813 C   0  0  0  0  0  0  0  0  0  0  0  0
   -0.9551    1.0443   -1.4208 C   0  0  0  0  0  0  0  0  0  0  0  0
   -1.7913    0.3247    0.7428 C   0  0  0  0  0  0  0  0  0  0  0  0
   -0.5194   -2.0915   -0.9319 C   0  0  0  0  0  0  0  0  0  0  0  0
    1.9554   -0.0083    0.7171 C   0  0  0  0  0  0  0  0  0  0  0  0
    3.0258    0.7929   -0.0389 C   0  0  0  0  0  0  0  0  0  0  0  0
   -3.3096    1.2389   -0.9032 C   0  0  0  0  0  0  0  0  0  0  0  0
    5.4019    1.1269   -0.2533 C   0  0  0  0  0  0  0  0  0  0  0  0
    4.5134   -1.0912    0.1610 C   0  0  0  0  0  0  0  0  0  0  0  0
    2.9174    2.3007    0.1880 C   0  0  0  0  0  0  0  0  0  0  0  0
    6.7877    0.7074    0.2396 C   0  0  0  0  0  0  0  0  0  0  0  0
    5.8700   -1.5833    0.6673 C   0  0  0  0  0  0  0  0  0  0  0  0
    7.0145   -0.7879    0.0494 C   0  0  0  0  0  0  0  0  0  0  0  0
   -4.5056    0.5876   -0.2612 C   0  0  0  0  0  0  0  0  0  0  0  0
   -5.2593   -0.3241   -0.9872 C   0  0  0  0  0  0  0  0  0  0  0  0
   -4.8381    0.9083    1.0476 C   0  0  0  0  0  0  0  0  0  0  0  0
   -6.3677   -0.9273   -0.3926 C   0  0  0  0  0  0  0  0  0  0  0  0
   -5.9463    0.3052    1.6422 C   0  0  0  0  0  0  0  0  0  0  0  0
   -6.7111   -0.6125    0.9221 C   0  0  0  0  0  0  0  0  0  0  0  0
  1  4  1  0
  1  5  1  0
  1 11  1  0
  2  8  1  0
  2  9  1  0
  2 13  1  0
  3 12  1  0
  3 14  1  0
  3 15  1  0
  4  6  1  0
  4  8  1  0
  5  7  1  0
  5  9  1  0
  6 10  1  0
  7 10  1  0
 11 12  1  0
 12 16  1  0
 13 20  1  0
 14 17  1  0
 15 18  1  0
 17 19  1  0
 18 19  1  0
 20 21  2  0
 20 22  1  0
 21 23  1  0
 22 24  2  0
 23 25  2  0
 24 25  1  0
M  END
>  <PUBCHEM_COMPOUND_CID>  (1) 
31928

>  <PUBCHEM_CONFORMER_RMSD>  (1) 
0.8

>  <PUBCHEM_CONFORMER_DIVERSEORDER>  (1) 
1
69
54
71
57
79
4
6
7
112
26
66
97
16
39
56
101
113
31
68
108
35
87
78
77
72
25
91
20
52
74
96
37
19
82
70
51
5
106
76
61
85
103
109
3
24
75
107
53
9
92
38
42
95
17
32
105
8
90
14
48
111
81
47
99
89
44
13
58
21
110
86
100
10
83
33
46
55
18
60
36
41
59
80
40
15
88
27
30
73
45
34
50
2
65
23
102
93
63
12
29
28
84
22
67
49
98
43
62
94
104
11
64

>  <PUBCHEM_MMFF94_PARTIAL_CHARGES>  (1) 
23
1 -0.81
11 0.27
12 0.27
13 0.41
14 0.27
15 0.27
2 -0.81
20 -0.14
21 -0.15
22 -0.15
23 -0.15
24 -0.15
25 -0.15
3 -0.81
4 0.27
5 0.27
56 0.15
57 0.15
58 0.15
59 0.15
60 0.15
8 0.27
9 0.27

>  <PUBCHEM_EFFECTIVE_ROTOR_COUNT>  (1) 
7.6

>  <PUBCHEM_PHARMACOPHORE_FEATURES>  (1) 
7
1 1 cation
1 2 cation
1 3 cation
6 1 2 4 5 8 9 rings
6 1 4 5 6 7 10 rings
6 20 21 22 23 24 25 rings
6 3 14 15 17 18 19 rings

>  <PUBCHEM_HEAVY_ATOM_COUNT>  (1) 
25

>  <PUBCHEM_ATOM_DEF_STEREO_COUNT>  (1) 
0

>  <PUBCHEM_ATOM_UDEF_STEREO_COUNT>  (1) 
3

>  <PUBCHEM_BOND_DEF_STEREO_COUNT>  (1) 
0

>  <PUBCHEM_BOND_UDEF_STEREO_COUNT>  (1) 
0

>  <PUBCHEM_ISOTOPIC_ATOM_COUNT>  (1) 
0

>  <PUBCHEM_COMPONENT_COUNT>  (1) 
1

>  <PUBCHEM_CACTVS_TAUTO_COUNT>  (1) 
1

>  <PUBCHEM_CONFORMER_ID>  (1) 
00007CB800000001

>  <PUBCHEM_MMFF94_ENERGY>  (1) 
54.7245

>  <PUBCHEM_FEATURE_SELFOVERLAP>  (1) 
37.121

>  <PUBCHEM_SHAPE_FINGERPRINT>  (1) 
10076449 9 18334300851523616548
11045977 3 17313106388558064969
11135609 99 16082230648045707523
11488393 25 18125157134992226727
11578080 2 17200778176335930456
11646440 116 15051736403894244210
12011746 2 16660641851702357137
12166972 35 18341613732860925256
12236239 1 17632294575546731472
12516196 113 12973603343730236493
12592029 89 18272369737538413558
13533116 47 17560800988383174606
13685833 64 18260829289542330304
13782708 43 17459182989498295538
13914758 101 13901917678742040822
14251764 18 18342738533397713436
14849402 71 18059573662865846704
14856354 85 17489867176758879167
14955137 171 17603872229696078101
15048467 5 10592042466348921295
15183329 4 18342170068600997070
15716309 27 18410293610250805793
15849732 13 17022903466680916102
17093844 174 13686292479183204119
17349148 13 16443073785660385661
17980427 23 16008752360361803319
18006028 8 11746933196080850071
18222031 100 14851604383922334452
18335252 98 17458631112181105002
18769570 83 15626506081765682475
20567600 75 17458343005073463863
21033648 29 18041261232222562269
21150785 3 8214137439819230449
21267235 1 17095249129245528113
21315759 40 18130505314420895365
21424621 283 14189303646800741267
22224240 67 18412825802809786827
23402539 116 17703788115550466385
23522609 53 18197523837615639432
23536379 177 17275386499315206512
23559900 14 18187925144259802784
23622692 88 16443349796784749831
3009799 131 11527950053719709707
347723 3 14979959176773460543
4093350 32 15554177973318075910
4325135 7 18272651251644239031
4340502 62 17632581539048632606
465052 167 18407761430413397766
5104073 3 18200861998457168434
5283173 99 11887683848511213483
5385378 56 16845018913925906214
54039377 194 18188768320404705570
59755656 215 17095240302560442090
59755656 520 18060414737794742903
7226269 152 12679461984783829107
9996256 80 18410008844849306279

>  <PUBCHEM_SHAPE_MULTIPOLES>  (1) 
499.55
18.2
1.72
1.32
3.97
0.19
0.14
1.13
-4.4
1.16
0.14
-1.37
0.07
-0.32

>  <PUBCHEM_SHAPE_SELFOVERLAP>  (1) 
1043.2

>  <PUBCHEM_SHAPE_VOLUME>  (1) 
279.9

>  <PUBCHEM_COORDINATE_TYPE>  (1) 
2
5
10

$$$$
