31938
     RDKit          3D

 26 28  0  0  1  0  0  0  0  0999 V2000
   -8.0171   -0.6283   -0.5391 Cl  0  0  0  0  0  0  0  0  0  0  0  0
    8.0169   -0.6303    0.5352 Cl  0  0  0  0  0  0  0  0  0  0  0  0
   -7.1484    2.0960    0.7266 O   0  0  0  0  0  0  0  0  0  0  0  0
    7.1484    2.0974   -0.7234 O   0  0  0  0  0  0  0  0  0  0  0  0
   -1.4264   -0.7767   -0.4899 N   0  0  0  0  0  0  0  0  0  0  0  0
    1.4266   -0.7773    0.4896 N   0  0  0  0  0  0  0  0  0  0  0  0
   -4.2343    0.1414   -0.4875 N   0  0  0  0  0  0  0  0  0  0  0  0
    4.2343    0.1408    0.4876 N   0  0  0  0  0  0  0  0  0  0  0  0
   -0.5257   -2.0219   -0.5502 C   0  0  0  0  0  0  0  0  0  0  0  0
   -0.5329    0.4679   -0.5421 C   0  0  0  0  0  0  0  0  0  0  0  0
    0.5261   -2.0229    0.5476 C   0  0  0  0  0  0  0  0  0  0  0  0
    0.5328    0.4669    0.5449 C   0  0  0  0  0  0  0  0  0  0  0  0
   -2.3382   -0.8244   -1.7358 C   0  0  0  0  0  0  0  0  0  0  0  0
   -2.3307   -0.8337    0.7532 C   0  0  0  0  0  0  0  0  0  0  0  0
    2.3390   -0.8276    1.7350 C   0  0  0  0  0  0  0  0  0  0  0  0
    2.3303   -0.8316   -0.7542 C   0  0  0  0  0  0  0  0  0  0  0  0
   -3.4106    0.2606   -1.6929 C   0  0  0  0  0  0  0  0  0  0  0  0
   -3.4116    0.2446    0.7201 C   0  0  0  0  0  0  0  0  0  0  0  0
    3.4115    0.2571    1.6937 C   0  0  0  0  0  0  0  0  0  0  0  0
    3.4110    0.2470   -0.7192 C   0  0  0  0  0  0  0  0  0  0  0  0
   -5.2900    1.1534   -0.4812 C   0  0  0  0  0  0  0  0  0  0  0  0
    5.2903    1.1524    0.4832 C   0  0  0  0  0  0  0  0  0  0  0  0
   -6.2077    1.0212    0.7388 C   0  0  0  0  0  0  0  0  0  0  0  0
    6.2073    1.0229   -0.7377 C   0  0  0  0  0  0  0  0  0  0  0  0
   -6.9727   -0.2983    0.8673 C   0  0  0  0  0  0  0  0  0  0  0  0
    6.9718   -0.2965   -0.8698 C   0  0  0  0  0  0  0  0  0  0  0  0
  1 25  1  0
  2 26  1  0
  3 23  1  0
  4 24  1  0
  5  9  1  0
  5 10  1  0
  5 13  1  0
  5 14  1  0
  6 11  1  0
  6 12  1  0
  6 15  1  0
  6 16  1  0
  7 17  1  0
  7 18  1  0
  7 21  1  0
  8 19  1  0
  8 20  1  0
  8 22  1  0
  9 11  1  0
 10 12  1  0
 13 17  1  0
 14 18  1  0
 15 19  1  0
 16 20  1  0
 21 23  1  0
 22 24  1  0
 23 25  1  0
 24 26  1  0
M  CHG  2   5   1   6   1
M  END
>  <PUBCHEM_COMPOUND_CID>  (1) 
31938

>  <PUBCHEM_CONFORMER_RMSD>  (1) 
1

>  <PUBCHEM_CONFORMER_DIVERSEORDER>  (1) 
1
46
44
9
28
7
18
5
41
22
34
3
43
40
39
14
8
31
15
47
29
21
13
38
42
19
12
10
24
33
30
45
11
27
16
32
2
17
20
36
26
23
6
25
37
4
35

>  <PUBCHEM_MMFF94_PARTIAL_CHARGES>  (1) 
28
1 -0.29
10 0.5
11 0.5
12 0.5
13 0.5
14 0.5
15 0.5
16 0.5
17 0.27
18 0.27
19 0.27
2 -0.29
20 0.27
21 0.27
22 0.27
23 0.28
24 0.28
25 0.29
26 0.29
3 -0.68
4 -0.68
5 -1.01
6 -1.01
61 0.4
62 0.4
7 -0.81
8 -0.81
9 0.5

>  <PUBCHEM_EFFECTIVE_ROTOR_COUNT>  (1) 
8.8

>  <PUBCHEM_PHARMACOPHORE_FEATURES>  (1) 
11
1 3 acceptor
1 3 donor
1 4 acceptor
1 4 donor
1 5 cation
1 6 cation
1 7 cation
1 8 cation
6 5 6 9 10 11 12 rings
6 5 7 13 14 17 18 rings
6 6 8 15 16 19 20 rings

>  <PUBCHEM_HEAVY_ATOM_COUNT>  (1) 
26

>  <PUBCHEM_ATOM_DEF_STEREO_COUNT>  (1) 
0

>  <PUBCHEM_ATOM_UDEF_STEREO_COUNT>  (1) 
2

>  <PUBCHEM_BOND_DEF_STEREO_COUNT>  (1) 
0

>  <PUBCHEM_BOND_UDEF_STEREO_COUNT>  (1) 
0

>  <PUBCHEM_ISOTOPIC_ATOM_COUNT>  (1) 
0

>  <PUBCHEM_COMPONENT_COUNT>  (1) 
1

>  <PUBCHEM_CACTVS_TAUTO_COUNT>  (1) 
1

>  <PUBCHEM_CONFORMER_ID>  (1) 
00007CC200000001

>  <PUBCHEM_MMFF94_ENERGY>  (1) 
64.1276

>  <PUBCHEM_FEATURE_SELFOVERLAP>  (1) 
55.827

>  <PUBCHEM_SHAPE_FINGERPRINT>  (1) 
10 15 16008745831784886596
106641 1 17603590751093994601
10670039 82 15841274753740686129
10883706 17 9726759788355612329
11315181 36 13830129515959613639
11724838 91 17240484736243431727
11796584 16 15267053775047269270
12516196 113 9727635003736633254
12596602 18 16878217572310123433
12954195 1 13254807802654163827
13177829 20 16153430566567347801
13685833 64 9511462217032229700
13914758 101 12751246895395207603
14251752 14 16773799186175909316
14251764 18 17967252005376900457
14251764 46 18410573985151503106
14341114 176 16298382436016222418
14849402 71 18261961859323309757
15183329 4 15841558457035328140
15188451 53 10953453033520620596
15301273 46 14851602159562019026
15475509 8 18131919251925260628
15840311 113 17676491678945475356
15849732 13 18343304781944320061
18006028 8 9439403523287793942
18222031 100 13973974225240289752
18335252 114 18409162217007413140
18335252 98 17988929990011406727
18608769 82 17917429873990806863
19377110 9 15791731905689699015
20281389 69 18040714779797161292
21033648 29 17968936539322968712
21150785 3 17917994988343481447
21637258 2 9295289434570273190
22079108 93 15574711417960669256
221357 26 15769776836126377648
22224240 67 17022903471038914243
23559900 14 14476664347698695547
249057 3 15769772472328912288
29717793 49 13326856647421391512
3004659 81 13614520749014346734
3009799 131 13183019614286256362
34797466 226 15140687969283345822
3545911 37 17203607099458111767
3633792 109 13110966418189344570
4098825 35 17846500331005282487
4325135 7 15864070974746555127
4340502 62 16443066088609402362
5758199 1 18260550026384106467
59682541 35 16588031242250211385
59682541 52 16128380367983401252
59755656 215 16343707607752876013
59755656 520 18410569608649089063
6126387 218 9727639392792354767
9689198 14 18410016537051467305
9953998 17 17385730192999122393

>  <PUBCHEM_SHAPE_MULTIPOLES>  (1) 
507.14
22.65
1.6
1.42
0.01
0.02
0
7.92
0
0
0
0
-0.09
-1.03

>  <PUBCHEM_SHAPE_SELFOVERLAP>  (1) 
990.869

>  <PUBCHEM_SHAPE_VOLUME>  (1) 
307.3

>  <PUBCHEM_COORDINATE_TYPE>  (1) 
2
5
10

$$$$
