31932
     RDKit          3D

 29 31  0  0  0  0  0  0  0  0999 V2000
    2.6718    0.0090    1.3223 O   0  0  0  0  0  0  0  0  0  0  0  0
   -1.4310   -0.7457    1.2460 N   0  0  0  0  0  0  0  0  0  0  0  0
    5.3283    2.0635   -0.1759 N   0  0  0  0  0  0  0  0  0  0  0  0
   -5.0350   -0.5332    0.3755 N   0  0  0  0  0  0  0  0  0  0  0  0
    1.5135   -0.6826    0.8257 C   0  0  0  0  0  0  0  0  0  0  0  0
    0.5492    0.4019    0.2920 C   0  0  0  0  0  0  0  0  0  0  0  0
    0.8237   -1.3382    2.0441 C   0  0  0  0  0  0  0  0  0  0  0  0
   -0.8724   -0.1168    0.0428 C   0  0  0  0  0  0  0  0  0  0  0  0
   -0.5814   -1.8466    1.7157 C   0  0  0  0  0  0  0  0  0  0  0  0
    2.0237   -1.7104   -0.1872 C   0  0  0  0  0  0  0  0  0  0  0  0
   -2.7923   -1.2174    0.9948 C   0  0  0  0  0  0  0  0  0  0  0  0
    3.3722    0.6626    0.2749 C   0  0  0  0  0  0  0  0  0  0  0  0
   -3.6986   -0.0495    0.6277 C   0  0  0  0  0  0  0  0  0  0  0  0
    1.6148   -1.6380   -1.5180 C   0  0  0  0  0  0  0  0  0  0  0  0
    2.8968   -2.7172    0.2225 C   0  0  0  0  0  0  0  0  0  0  0  0
    4.5683    1.3908    0.8671 C   0  0  0  0  0  0  0  0  0  0  0  0
    2.0798   -2.5745   -2.4413 C   0  0  0  0  0  0  0  0  0  0  0  0
    3.3618   -3.6536   -0.7009 C   0  0  0  0  0  0  0  0  0  0  0  0
    2.9533   -3.5821   -2.0328 C   0  0  0  0  0  0  0  0  0  0  0  0
    4.4896    3.0325   -0.8854 C   0  0  0  0  0  0  0  0  0  0  0  0
    6.5043    2.7305    0.3882 C   0  0  0  0  0  0  0  0  0  0  0  0
   -6.0883    0.2813   -0.0089 C   0  0  0  0  0  0  0  0  0  0  0  0
    5.2532    3.6913   -2.0217 C   0  0  0  0  0  0  0  0  0  0  0  0
    7.3913    1.7452    1.1302 C   0  0  0  0  0  0  0  0  0  0  0  0
   -7.3690   -0.2551   -0.2388 C   0  0  0  0  0  0  0  0  0  0  0  0
   -5.9054    1.6663   -0.1793 C   0  0  0  0  0  0  0  0  0  0  0  0
   -8.4293    0.5646   -0.6252 C   0  0  0  0  0  0  0  0  0  0  0  0
   -6.9658    2.4860   -0.5656 C   0  0  0  0  0  0  0  0  0  0  0  0
   -8.2276    1.9353   -0.7886 C   0  0  0  0  0  0  0  0  0  0  0  0
  1  5  1  0
  1 12  1  0
  2  8  1  0
  2  9  1  0
  2 11  1  0
  3 16  1  0
  3 20  1  0
  3 21  1  0
  4 13  1  0
  4 22  1  0
  5  6  1  0
  5  7  1  0
  5 10  1  0
  6  8  1  0
  7  9  1  0
 10 14  2  0
 10 15  1  0
 11 13  1  0
 12 16  1  0
 14 17  1  0
 15 18  2  0
 17 19  2  0
 18 19  1  0
 20 23  1  0
 21 24  1  0
 22 25  2  0
 22 26  1  0
 25 27  1  0
 26 28  2  0
 27 29  2  0
 28 29  1  0
M  END
>  <PUBCHEM_COMPOUND_CID>  (1) 
31932

>  <PUBCHEM_CONFORMER_RMSD>  (1) 
1

>  <PUBCHEM_CONFORMER_DIVERSEORDER>  (1) 
1
152
65
116
156
150
13
114
133
91
119
78
68
161
181
147
169
173
124
159
27
131
24
17
14
144
180
183
34
153
110
39
134
82
187
89
23
171
74
109
115
167
103
130
166
96
55
170
125
135
84
172
174
160
86
38
155
33
49
143
177
175
157
36
5
69
67
186
73
57
47
112
31
108
104
26
118
123
120
100
95
64
62
56
30
59
168
7
50
22
35
141
145
154
41
102
76
63
40
77
46
9
113
178
128
53
70
12
97
121
15
149
16
151
10
92
107
163
98
184
37
127
20
136
93
66
28
72
19
61
101
79
83
29
139
105
52
60
99
25
42
179
185
11
80
44
106
138
162
6
158
71
85
129
88
94
43
32
140
18
176
111
182
164
54
51
58
8
45
146
148
122
142
117
87
48
132
137
4
90
75
81
3
165
126
21
2

>  <PUBCHEM_MMFF94_PARTIAL_CHARGES>  (1) 
36
1 -0.56
10 -0.14
11 0.27
12 0.28
13 0.37
14 -0.15
15 -0.15
16 0.27
17 -0.15
18 -0.15
19 -0.15
2 -0.81
20 0.27
21 0.27
22 0.1
25 -0.15
26 -0.15
27 -0.15
28 -0.15
29 -0.15
3 -0.81
4 -0.87
44 0.15
45 0.15
48 0.15
49 0.15
5 0.42
50 0.4
51 0.15
62 0.15
63 0.15
64 0.15
65 0.15
66 0.15
8 0.27
9 0.27

>  <PUBCHEM_EFFECTIVE_ROTOR_COUNT>  (1) 
12.2

>  <PUBCHEM_PHARMACOPHORE_FEATURES>  (1) 
8
1 1 acceptor
1 2 cation
1 3 cation
1 4 cation
1 4 donor
6 10 14 15 17 18 19 rings
6 2 5 6 7 8 9 rings
6 22 25 26 27 28 29 rings

>  <PUBCHEM_HEAVY_ATOM_COUNT>  (1) 
29

>  <PUBCHEM_ATOM_DEF_STEREO_COUNT>  (1) 
0

>  <PUBCHEM_ATOM_UDEF_STEREO_COUNT>  (1) 
0

>  <PUBCHEM_BOND_DEF_STEREO_COUNT>  (1) 
0

>  <PUBCHEM_BOND_UDEF_STEREO_COUNT>  (1) 
0

>  <PUBCHEM_ISOTOPIC_ATOM_COUNT>  (1) 
0

>  <PUBCHEM_COMPONENT_COUNT>  (1) 
1

>  <PUBCHEM_CACTVS_TAUTO_COUNT>  (1) 
1

>  <PUBCHEM_CONFORMER_ID>  (1) 
00007CBC00000001

>  <PUBCHEM_MMFF94_ENERGY>  (1) 
85.8273

>  <PUBCHEM_FEATURE_SELFOVERLAP>  (1) 
40.597

>  <PUBCHEM_SHAPE_FINGERPRINT>  (1) 
10462674 296 17118599715616176191
10673678 19 18340490057762381160
10764073 3 17604142731669384454
10835480 77 18410291407122649545
10906281 52 18114752636598665056
11135926 11 17703241692641957739
12661589 4 13038901114616705205
13150687 139 17560531685469875252
13540713 4 18116173175721109387
13540713 5 16915401908483344035
13968360 50 18131634495852024798
14118638 360 17703794696094381609
15183329 4 18196653987459575907
15444296 9 18114174229480296620
17980427 23 17314792025830355518
20721686 124 18408602544272943594
20721686 146 18114747139716052524
21403212 168 18413102884499177618
21792938 703 12678593418317547125
22061861 79 17703220699722542343
23516275 100 18113897186958140189
23569943 247 11671522079500932645
24771293 8 18040713676117413941
27425 322 18260826012409183979
3103668 31 17271152452115798895
3411729 13 18408039615518993186
3472631 163 18260266373653215955
34797466 226 18411419476256949979
4073 2 18334012813853137411
4093350 32 18342173345344350887
44880568 143 18267299838753841901
45377200 153 14404606801934063581
46194498 28 18199746942952312551
6025842 7 18059856142864507590

>  <PUBCHEM_SHAPE_MULTIPOLES>  (1) 
575.99
22.15
4.39
1.8
42.55
0.19
-0.49
-23.23
-4.07
-8.99
-2.67
-2.07
0.88
1.8

>  <PUBCHEM_SHAPE_SELFOVERLAP>  (1) 
1189.373

>  <PUBCHEM_SHAPE_VOLUME>  (1) 
329.8

>  <PUBCHEM_COORDINATE_TYPE>  (1) 
2
5
10

$$$$
