31936
     RDKit          3D

 14 15  0  0  1  0  0  0  0  0999 V2000
   -0.0269    2.6022    0.0225 Cl  0  0  0  0  0  0  0  0  0  0  0  0
    4.4968   -0.2894   -0.3407 Cl  0  0  0  0  0  0  0  0  0  0  0  0
   -1.9702   -0.8777    1.4844 O   0  0  0  0  0  0  0  0  0  0  0  0
   -2.6296    0.8089   -1.4345 O   0  0  0  0  0  0  0  0  0  0  0  0
   -2.5657   -1.4783   -1.1930 N   0  0  0  0  0  0  0  0  0  0  0  0
   -1.4589   -0.1015    0.4021 C   0  0  0  0  0  0  0  0  0  0  0  0
   -2.0261    0.5480    1.6220 C   0  0  0  0  0  0  0  0  0  0  0  0
    0.0236   -0.1174    0.2150 C   0  0  0  0  0  0  0  0  0  0  0  0
   -2.2607   -0.1901   -0.8220 C   0  0  0  0  0  0  0  0  0  0  0  0
    0.7498    1.0601    0.0366 C   0  0  0  0  0  0  0  0  0  0  0  0
    0.6807   -1.3478    0.2215 C   0  0  0  0  0  0  0  0  0  0  0  0
    2.1331    1.0072   -0.1350 C   0  0  0  0  0  0  0  0  0  0  0  0
    2.0640   -1.4008    0.0496 C   0  0  0  0  0  0  0  0  0  0  0  0
    2.7901   -0.2233   -0.1286 C   0  0  0  0  0  0  0  0  0  0  0  0
  1 10  1  0
  2 14  1  0
  3  6  1  0
  3  7  1  0
  4  9  2  0
  5  9  1  0
  6  7  1  0
  6  8  1  0
  6  9  1  0
  8 10  2  0
  8 11  1  0
 10 12  1  0
 11 13  2  0
 12 14  2  0
 13 14  1  0
M  END
>  <PUBCHEM_COMPOUND_CID>  (1) 
31936

>  <PUBCHEM_CONFORMER_RMSD>  (1) 
0.6

>  <PUBCHEM_CONFORMER_DIVERSEORDER>  (1) 
1
18
10
5
6
11
14
9
17
3
15
16
19
13
12
4
7
2
8

>  <PUBCHEM_MMFF94_PARTIAL_CHARGES>  (1) 
21
1 -0.18
10 0.18
11 -0.15
12 -0.15
13 -0.15
14 0.18
15 0.1
16 0.1
17 0.15
18 0.15
19 0.15
2 -0.18
20 0.37
21 0.37
3 -0.3
4 -0.57
5 -0.8
6 0.18
7 -0.05
8 -0.03
9 0.63

>  <PUBCHEM_EFFECTIVE_ROTOR_COUNT>  (1) 
2.6

>  <PUBCHEM_PHARMACOPHORE_FEATURES>  (1) 
4
1 3 acceptor
1 4 acceptor
1 5 donor
6 8 10 11 12 13 14 rings

>  <PUBCHEM_HEAVY_ATOM_COUNT>  (1) 
14

>  <PUBCHEM_ATOM_DEF_STEREO_COUNT>  (1) 
0

>  <PUBCHEM_ATOM_UDEF_STEREO_COUNT>  (1) 
1

>  <PUBCHEM_BOND_DEF_STEREO_COUNT>  (1) 
0

>  <PUBCHEM_BOND_UDEF_STEREO_COUNT>  (1) 
0

>  <PUBCHEM_ISOTOPIC_ATOM_COUNT>  (1) 
0

>  <PUBCHEM_COMPONENT_COUNT>  (1) 
1

>  <PUBCHEM_CACTVS_TAUTO_COUNT>  (1) 
2

>  <PUBCHEM_CONFORMER_ID>  (1) 
00007CC000000001

>  <PUBCHEM_MMFF94_ENERGY>  (1) 
27.2771

>  <PUBCHEM_FEATURE_SELFOVERLAP>  (1) 
20.297

>  <PUBCHEM_SHAPE_FINGERPRINT>  (1) 
11132069 177 18202563956562608312
11206711 2 18336551504285712764
12138202 97 16733254720719251219
12423570 1 11464260907479769329
124424 183 17458616809760661050
13024252 1 17530690883482504657
14128692 85 17916290813734125759
14993402 34 18201714059469828942
16945 1 18409453566129280506
17844478 74 17459208385286001449
18534176 82 17022621996141272475
19026448 4 15482675659044093098
19026448 5 16415484835669763186
200 152 18201716292910987759
20201158 50 18187080633356224738
20525323 117 18265900159686226640
21061003 4 18262819448021521344
21501502 16 18048875196094761560
22112679 90 17202498851682389137
22802520 49 17748824124619409117
23402539 116 18412824669133508774
23402655 69 18190163625659354989
23493267 7 17167861946263742304
25 1 17896589601347579237
2748010 2 18122071063893033442
353137 74 18042680594401581692
5084963 1 18198901594382509475
528886 8 18410297982100232554
63268167 104 18341328993587028792
81228 2 18191023392054886400

>  <PUBCHEM_SHAPE_MULTIPOLES>  (1) 
275.13
5.34
1.83
1.19
4.26
0.91
0.11
-1.16
-0.95
-0.13
-0.12
-1.28
-0.08
-0.19

>  <PUBCHEM_SHAPE_SELFOVERLAP>  (1) 
570.456

>  <PUBCHEM_SHAPE_VOLUME>  (1) 
159.7

>  <PUBCHEM_COORDINATE_TYPE>  (1) 
2
5
10

$$$$
