31946
     RDKit          3D

 20 22  0  0  0  0  0  0  0  0999 V2000
   -3.0728   -2.2927    0.6223 N   0  0  0  0  0  0  0  0  0  0  0  0
   -0.0009   -0.3554   -0.5594 C   0  0  0  0  0  0  0  0  0  0  0  0
   -0.8326   -1.3401    0.2772 C   0  0  0  0  0  0  0  0  0  0  0  0
   -0.5244    1.0672   -0.4578 C   0  0  0  0  0  0  0  0  0  0  0  0
    1.4963   -0.5791   -0.3668 C   0  0  0  0  0  0  0  0  0  0  0  0
   -0.3320    1.8758    0.6735 C   0  0  0  0  0  0  0  0  0  0  0  0
    2.3435    0.1089    0.5244 C   0  0  0  0  0  0  0  0  0  0  0  0
    0.4991    1.4063    1.8330 C   0  0  0  0  0  0  0  0  0  0  0  0
    1.9597    1.2539    1.4351 C   0  0  0  0  0  0  0  0  0  0  0  0
   -2.2823   -1.3931   -0.1713 C   0  0  0  0  0  0  0  0  0  0  0  0
   -1.2844    1.5808   -1.5283 C   0  0  0  0  0  0  0  0  0  0  0  0
    2.0590   -1.6160   -1.1538 C   0  0  0  0  0  0  0  0  0  0  0  0
   -0.8932    3.1651    0.7121 C   0  0  0  0  0  0  0  0  0  0  0  0
    3.7157   -0.2393    0.5609 C   0  0  0  0  0  0  0  0  0  0  0  0
   -1.8338    2.8619   -1.4804 C   0  0  0  0  0  0  0  0  0  0  0  0
    3.4102   -1.9508   -1.0894 C   0  0  0  0  0  0  0  0  0  0  0  0
   -1.6392    3.6547   -0.3574 C   0  0  0  0  0  0  0  0  0  0  0  0
    4.2435   -1.2563   -0.2308 C   0  0  0  0  0  0  0  0  0  0  0  0
   -2.5494   -3.6665    0.5582 C   0  0  0  0  0  0  0  0  0  0  0  0
   -4.4822   -2.2854    0.1987 C   0  0  0  0  0  0  0  0  0  0  0  0
  1 10  1  0
  1 19  1  0
  1 20  1  0
  2  3  1  0
  2  4  1  0
  2  5  1  0
  3 10  1  0
  4  6  2  0
  4 11  1  0
  5  7  2  0
  5 12  1  0
  6  8  1  0
  6 13  1  0
  7  9  1  0
  7 14  1  0
  8  9  1  0
 11 15  2  0
 12 16  2  0
 13 17  2  0
 14 18  2  0
 15 17  1  0
 16 18  1  0
M  END
>  <PUBCHEM_COMPOUND_CID>  (1) 
31946

>  <PUBCHEM_CONFORMER_RMSD>  (1) 
0.6

>  <PUBCHEM_CONFORMER_DIVERSEORDER>  (1) 
1
3
9
7
6
8
2
4
5

>  <PUBCHEM_MMFF94_PARTIAL_CHARGES>  (1) 
27
1 -0.81
10 0.27
11 -0.15
12 -0.15
13 -0.15
14 -0.15
15 -0.15
16 -0.15
17 -0.15
18 -0.15
19 0.27
2 0.29
20 0.27
30 0.15
31 0.15
32 0.15
33 0.15
34 0.15
35 0.15
36 0.15
37 0.15
4 -0.14
5 -0.14
6 -0.14
7 -0.14
8 0.14
9 0.14

>  <PUBCHEM_EFFECTIVE_ROTOR_COUNT>  (1) 
3.6

>  <PUBCHEM_PHARMACOPHORE_FEATURES>  (1) 
4
1 1 cation
6 4 6 11 13 15 17 rings
6 5 7 12 14 16 18 rings
7 2 4 5 6 7 8 9 rings

>  <PUBCHEM_HEAVY_ATOM_COUNT>  (1) 
20

>  <PUBCHEM_ATOM_DEF_STEREO_COUNT>  (1) 
0

>  <PUBCHEM_ATOM_UDEF_STEREO_COUNT>  (1) 
0

>  <PUBCHEM_BOND_DEF_STEREO_COUNT>  (1) 
0

>  <PUBCHEM_BOND_UDEF_STEREO_COUNT>  (1) 
0

>  <PUBCHEM_ISOTOPIC_ATOM_COUNT>  (1) 
0

>  <PUBCHEM_COMPONENT_COUNT>  (1) 
1

>  <PUBCHEM_CACTVS_TAUTO_COUNT>  (1) 
1

>  <PUBCHEM_CONFORMER_ID>  (1) 
00007CCA00000001

>  <PUBCHEM_MMFF94_ENERGY>  (1) 
65.7232

>  <PUBCHEM_FEATURE_SELFOVERLAP>  (1) 
20.312

>  <PUBCHEM_SHAPE_FINGERPRINT>  (1) 
10764073 3 17055589602754679969
108634 29 18266438976212955405
116883 192 18409449202141898959
121448 382 17980183206685667581
12730499 353 17328310143405940805
12788726 201 18259706700781375930
13134695 92 18196654218854832767
13681431 1 17900839445511360979
14790565 3 17474954706093650433
14817 1 15075439525268454617
14955137 171 17545606016290401040
15324115 91 16890281246597445581
15420108 30 17117461715809488377
15664445 248 17977969082541699540
15885798 251 18409172146824108171
1601671 61 17833268996917991097
16945 1 17983844589338903152
17357779 13 18340755022995420207
1813 80 18189908671815637251
18186145 218 17692808195120311348
19765921 60 17478319842881278468
20600515 1 17678161905189090258
20739085 24 17908135830496113520
21330990 113 18195545704964892457
21452121 99 18118662349596749136
22182313 1 17988915662026244210
2255824 54 17474114674988187735
22907989 373 18338812121413939148
23419403 2 17917134083260020193
23557571 272 18335697269454798838
23559900 14 17911235019675193782
25 1 17551506648557044756
2748010 2 17985236760033109936
3380486 145 17914309502228240215
3759504 43 17977951185243807764
458136 41 17328313446087416357
59554788 281 17618748424509271336
59755656 520 17904773176088150094
6442390 28 17977674100087852257
6443956 14 18267305528846673195
7364860 26 17617102846618502739
81228 2 18261686895299897299
9981440 41 17555974114972538618

>  <PUBCHEM_SHAPE_MULTIPOLES>  (1) 
406.61
6.08
4.51
1.4
2.69
0.38
0.02
-5.48
-0.28
-5.71
0.16
0.17
0.67
1.99

>  <PUBCHEM_SHAPE_SELFOVERLAP>  (1) 
866.656

>  <PUBCHEM_SHAPE_VOLUME>  (1) 
223.2

>  <PUBCHEM_COORDINATE_TYPE>  (1) 
2
5
10

$$$$
