31940
     RDKit          3D

 15 17  0  0  0  0  0  0  0  0999 V2000
    1.2975    0.6604   -0.5435 N   0  0  0  0  0  0  0  0  0  0  0  0
   -0.0961    0.3243   -0.2578 C   0  0  0  0  0  0  0  0  0  0  0  0
   -2.4901    1.1107   -0.4657 C   0  0  0  0  0  0  0  0  0  0  0  0
   -1.9465   -1.3406   -0.6987 C   0  0  0  0  0  0  0  0  0  0  0  0
   -1.7738   -0.2195    1.5531 C   0  0  0  0  0  0  0  0  0  0  0  0
   -1.0187    1.4610   -0.7529 C   0  0  0  0  0  0  0  0  0  0  0  0
   -0.4764   -0.9840   -0.9851 C   0  0  0  0  0  0  0  0  0  0  0  0
   -0.3040    0.1339    1.2606 C   0  0  0  0  0  0  0  0  0  0  0  0
   -2.8500   -0.1971   -1.1911 C   0  0  0  0  0  0  0  0  0  0  0  0
   -2.6781    0.9180    1.0488 C   0  0  0  0  0  0  0  0  0  0  0  0
   -2.1379   -1.5201    0.8169 C   0  0  0  0  0  0  0  0  0  0  0  0
    2.1871   -0.3947   -0.0831 C   0  0  0  0  0  0  0  0  0  0  0  0
    3.6702   -0.0496   -0.3013 C   0  0  0  0  0  0  0  0  0  0  0  0
    4.0083    1.2574    0.4212 C   0  0  0  0  0  0  0  0  0  0  0  0
    4.6084   -1.1601    0.1785 C   0  0  0  0  0  0  0  0  0  0  0  0
  1  2  1  0
  1 12  1  0
  2  6  1  0
  2  7  1  0
  2  8  1  0
  3  6  1  0
  3  9  1  0
  3 10  1  0
  4  7  1  0
  4  9  1  0
  4 11  1  0
  5  8  1  0
  5 10  1  0
  5 11  1  0
 12 13  1  0
 13 14  1  0
 13 15  1  0
M  END
>  <PUBCHEM_COMPOUND_CID>  (1) 
31940

>  <PUBCHEM_CONFORMER_RMSD>  (1) 
0.6

>  <PUBCHEM_CONFORMER_DIVERSEORDER>  (1) 
1

>  <PUBCHEM_MMFF94_PARTIAL_CHARGES>  (1) 
4
1 -0.9
12 0.27
2 0.27
31 0.36

>  <PUBCHEM_EFFECTIVE_ROTOR_COUNT>  (1) 
4.2

>  <PUBCHEM_PHARMACOPHORE_FEATURES>  (1) 
7
1 1 cation
1 1 donor
3 13 14 15 hydrophobe
6 2 3 4 6 7 9 rings
6 2 3 5 6 8 10 rings
6 2 4 5 7 8 11 rings
6 3 4 5 9 10 11 rings

>  <PUBCHEM_HEAVY_ATOM_COUNT>  (1) 
15

>  <PUBCHEM_ATOM_DEF_STEREO_COUNT>  (1) 
0

>  <PUBCHEM_ATOM_UDEF_STEREO_COUNT>  (1) 
0

>  <PUBCHEM_BOND_DEF_STEREO_COUNT>  (1) 
0

>  <PUBCHEM_BOND_UDEF_STEREO_COUNT>  (1) 
0

>  <PUBCHEM_ISOTOPIC_ATOM_COUNT>  (1) 
0

>  <PUBCHEM_COMPONENT_COUNT>  (1) 
1

>  <PUBCHEM_CACTVS_TAUTO_COUNT>  (1) 
1

>  <PUBCHEM_CONFORMER_ID>  (1) 
00007CC400000001

>  <PUBCHEM_MMFF94_ENERGY>  (1) 
27.7304

>  <PUBCHEM_FEATURE_SELFOVERLAP>  (1) 
48.041

>  <PUBCHEM_SHAPE_FINGERPRINT>  (1) 
10948715 1 18127698123859819049
11315181 36 17846772997784458994
12173636 292 10231764387347716610
12916754 54 18343862234307810878
12932764 1 18411143537092098676
13024252 1 16153427255543019525
13296908 3 18187367644914921646
14144814 61 17988926686811725404
14289901 80 18270676588711012584
14577589 140 18408890611474872366
14817 1 16268591280447292411
15309172 13 18202287987296426638
16945 1 18041003912373318181
18186145 218 15719395044915933260
200 152 17489296495162782766
20279233 1 18040992960465098138
20325693 3 15936699172596648070
21524375 3 17612303057077333365
2306618 200 17988642960707948329
23402539 116 18409163295334062277
23419403 2 17486469767343784585
23559900 14 17967527970385375988
369184 2 18272937128313542599
4175511 318 12613026193271594886
5706482 22 17703235018373172451
74978 22 15936694856259783428

>  <PUBCHEM_SHAPE_MULTIPOLES>  (1) 
303.71
6.79
1.49
1.29
10.01
0.06
-0.26
0.29
-0.3
-0.21
0.06
-0.96
0.04
0.05

>  <PUBCHEM_SHAPE_SELFOVERLAP>  (1) 
636.759

>  <PUBCHEM_SHAPE_VOLUME>  (1) 
167.4

>  <PUBCHEM_COORDINATE_TYPE>  (1) 
2
5
10

$$$$
