31942
     RDKit          3D

 19 22  0  0  0  0  0  0  0  0999 V2000
   -0.6137    0.9636   -1.7712 O   0  0  0  0  0  0  0  0  0  0  0  0
   -2.6200   -0.3761   -0.4029 N   0  0  0  0  0  0  0  0  0  0  0  0
    1.0967    0.0437   -0.3981 C   0  0  0  0  0  0  0  0  0  0  0  0
    3.3914    1.0940   -0.4575 C   0  0  0  0  0  0  0  0  0  0  0  0
    3.1538   -1.3974   -0.1451 C   0  0  0  0  0  0  0  0  0  0  0  0
    2.4805    0.1759    1.7083 C   0  0  0  0  0  0  0  0  0  0  0  0
    1.9629    1.1540   -1.0260 C   0  0  0  0  0  0  0  0  0  0  0  0
    1.7261   -1.3276   -0.7148 C   0  0  0  0  0  0  0  0  0  0  0  0
    1.0557    0.2393    1.1301 C   0  0  0  0  0  0  0  0  0  0  0  0
    4.0045   -0.2807   -0.7748 C   0  0  0  0  0  0  0  0  0  0  0  0
    3.3357    1.2835    1.0685 C   0  0  0  0  0  0  0  0  0  0  0  0
    3.0993   -1.1939    1.3791 C   0  0  0  0  0  0  0  0  0  0  0  0
   -0.3010    0.1086   -0.9436 C   0  0  0  0  0  0  0  0  0  0  0  0
   -1.2667   -0.9311   -0.4122 C   0  0  0  0  0  0  0  0  0  0  0  0
   -2.6806    0.8163    0.4540 C   0  0  0  0  0  0  0  0  0  0  0  0
   -3.5892   -1.3920    0.0311 C   0  0  0  0  0  0  0  0  0  0  0  0
   -4.0779    1.4384    0.4361 C   0  0  0  0  0  0  0  0  0  0  0  0
   -5.0160   -0.8423   -0.0004 C   0  0  0  0  0  0  0  0  0  0  0  0
   -5.1415    0.4237    0.8396 C   0  0  0  0  0  0  0  0  0  0  0  0
  1 13  2  0
  2 14  1  0
  2 15  1  0
  2 16  1  0
  3  7  1  0
  3  8  1  0
  3  9  1  0
  3 13  1  0
  4  7  1  0
  4 10  1  0
  4 11  1  0
  5  8  1  0
  5 10  1  0
  5 12  1  0
  6  9  1  0
  6 11  1  0
  6 12  1  0
 13 14  1  0
 15 17  1  0
 16 18  1  0
 17 19  1  0
 18 19  1  0
M  END
>  <PUBCHEM_COMPOUND_CID>  (1) 
31942

>  <PUBCHEM_CONFORMER_RMSD>  (1) 
0.8

>  <PUBCHEM_CONFORMER_DIVERSEORDER>  (1) 
2
6
5
7
8
1
3
4

>  <PUBCHEM_MMFF94_PARTIAL_CHARGES>  (1) 
7
1 -0.57
13 0.45
14 0.33
15 0.27
16 0.27
2 -0.81
3 0.06

>  <PUBCHEM_EFFECTIVE_ROTOR_COUNT>  (1) 
5.4

>  <PUBCHEM_PHARMACOPHORE_FEATURES>  (1) 
7
1 1 acceptor
1 2 cation
6 2 15 16 17 18 19 rings
6 3 4 5 7 8 10 rings
6 3 4 6 7 9 11 rings
6 3 5 6 8 9 12 rings
6 4 5 6 10 11 12 rings

>  <PUBCHEM_HEAVY_ATOM_COUNT>  (1) 
19

>  <PUBCHEM_ATOM_DEF_STEREO_COUNT>  (1) 
0

>  <PUBCHEM_ATOM_UDEF_STEREO_COUNT>  (1) 
0

>  <PUBCHEM_BOND_DEF_STEREO_COUNT>  (1) 
0

>  <PUBCHEM_BOND_UDEF_STEREO_COUNT>  (1) 
0

>  <PUBCHEM_ISOTOPIC_ATOM_COUNT>  (1) 
0

>  <PUBCHEM_COMPONENT_COUNT>  (1) 
1

>  <PUBCHEM_CACTVS_TAUTO_COUNT>  (1) 
2

>  <PUBCHEM_CONFORMER_ID>  (1) 
00007CC600000002

>  <PUBCHEM_MMFF94_ENERGY>  (1) 
38.7054

>  <PUBCHEM_FEATURE_SELFOVERLAP>  (1) 
48.068

>  <PUBCHEM_SHAPE_FINGERPRINT>  (1) 
10064457 181 18201435930257291806
10366900 7 18131069376781610147
10646746 165 17846221020865817561
12107183 9 17761214315284180067
12236239 1 18186524319612455513
12251169 10 18334294292433120927
12507560 40 18060415819989065137
12553582 1 17095241423520324031
12596602 18 17895484708453030689
12633257 1 18272369716105515459
12670546 56 18413102870975854961
12707595 3 15430040971785166277
128620 24 11169918285922551975
13134695 92 15195570061654426456
13224815 77 15213299716316184705
13296908 3 17168412792629921999
13533116 47 18411980226839482307
13583140 156 17346871261086419919
13675066 3 17917990555615614951
13705890 14 12685088172766160842
14252887 29 17458345242830292998
14289901 80 18272088344186946515
14341114 176 18272378585292083297
14386348 63 14273456989862408505
15238133 3 17846219921359523408
15375358 24 13840264810092007297
15375462 189 17167577189520424233
15653759 3 18060136544373135835
15788980 27 16917349225512413303
16945 1 17531797061205453340
17349148 13 18409445912772112847
1813 80 17095529482687051455
18186145 218 18333729100327611310
19862831 5 10879994657716726111
200 152 15068618284010074677
20281475 54 17967809448892357771
20645477 70 15140949652169646035
21033648 29 17060050424497330505
21065199 12 18344145891106815339
212847 35 17704076174585207513
21452121 103 17774714364185253728
21503847 285 18334863826698436172
21756936 100 17270862168667176024
22854114 59 17775284980322735139
231179 274 16845290561748047336
23402655 69 10015588310999408299
23557571 272 17275116063253655799
23559900 14 18202010893049045615
26918003 58 14634860964111647477
351380 180 17131830937426122713
4047638 21 13758073013107012654
42 15 18341896272988836195
474 4 17605564468343801276
5104073 3 18343305868518409259
5281201 14 13901641705180671089
5374978 207 18272088305716694907
542803 24 18410578392178254485
633830 44 17275102834190154613
77779 3 18342742914164199983
7808743 9 17700964711656484240

>  <PUBCHEM_SHAPE_MULTIPOLES>  (1) 
380.16
9.75
1.52
1.38
10.89
0.06
0.08
-0.3
1.86
-0.04
0.07
-1.02
-0.2
-0.14

>  <PUBCHEM_SHAPE_SELFOVERLAP>  (1) 
815.563

>  <PUBCHEM_SHAPE_VOLUME>  (1) 
204.3

>  <PUBCHEM_COORDINATE_TYPE>  (1) 
2
5
10

$$$$
