31944
     RDKit          3D

 27 31  0  0  0  0  0  0  0  0999 V2000
   -1.8817    2.0744    0.8657 O   0  0  0  0  0  0  0  0  0  0  0  0
    4.6369   -1.9780    0.3582 O   0  0  0  0  0  0  0  0  0  0  0  0
    0.2336    0.3102    1.1896 N   0  0  0  0  0  0  0  0  0  0  0  0
    2.9317    0.2695    0.2527 N   0  0  0  0  0  0  0  0  0  0  0  0
   -3.3814    0.3410    0.2302 C   0  0  0  0  0  0  0  0  0  0  0  0
   -5.5666    0.9729   -0.8641 C   0  0  0  0  0  0  0  0  0  0  0  0
   -5.4596   -1.0201    0.6778 C   0  0  0  0  0  0  0  0  0  0  0  0
   -4.3523   -1.1168   -1.5868 C   0  0  0  0  0  0  0  0  0  0  0  0
   -4.2624    1.5114   -0.2505 C   0  0  0  0  0  0  0  0  0  0  0  0
   -4.1557   -0.4738    1.2853 C   0  0  0  0  0  0  0  0  0  0  0  0
   -3.0532   -0.5694   -0.9695 C   0  0  0  0  0  0  0  0  0  0  0  0
   -6.3254    0.1571    0.1968 C   0  0  0  0  0  0  0  0  0  0  0  0
   -5.2250    0.0607   -2.0552 C   0  0  0  0  0  0  0  0  0  0  0  0
   -5.1184   -1.9210   -0.5220 C   0  0  0  0  0  0  0  0  0  0  0  0
   -2.1029    0.8648    0.8187 C   0  0  0  0  0  0  0  0  0  0  0  0
   -1.1361   -0.1808    1.3363 C   0  0  0  0  0  0  0  0  0  0  0  0
    0.5347    0.5826   -0.2211 C   0  0  0  0  0  0  0  0  0  0  0  0
    1.1906   -0.6661    1.7249 C   0  0  0  0  0  0  0  0  0  0  0  0
    1.9470    1.1505   -0.3826 C   0  0  0  0  0  0  0  0  0  0  0  0
    2.6241   -0.1389    1.6292 C   0  0  0  0  0  0  0  0  0  0  0  0
    4.2768    0.3451   -0.1257 C   0  0  0  0  0  0  0  0  0  0  0  0
    5.1250   -0.7803   -0.0719 C   0  0  0  0  0  0  0  0  0  0  0  0
    4.8247    1.5631   -0.5772 C   0  0  0  0  0  0  0  0  0  0  0  0
    6.4638   -0.6909   -0.4532 C   0  0  0  0  0  0  0  0  0  0  0  0
    6.1634    1.6525   -0.9587 C   0  0  0  0  0  0  0  0  0  0  0  0
    6.9829    0.5254   -0.8966 C   0  0  0  0  0  0  0  0  0  0  0  0
    4.0853   -2.8450   -0.6304 C   0  0  0  0  0  0  0  0  0  0  0  0
  1 15  2  0
  2 22  1  0
  2 27  1  0
  3 16  1  0
  3 17  1  0
  3 18  1  0
  4 19  1  0
  4 20  1  0
  4 21  1  0
  5  9  1  0
  5 10  1  0
  5 11  1  0
  5 15  1  0
  6  9  1  0
  6 12  1  0
  6 13  1  0
  7 10  1  0
  7 12  1  0
  7 14  1  0
  8 11  1  0
  8 13  1  0
  8 14  1  0
 15 16  1  0
 17 19  1  0
 18 20  1  0
 21 22  2  0
 21 23  1  0
 22 24  1  0
 23 25  2  0
 24 26  2  0
 25 26  1  0
M  END
>  <PUBCHEM_COMPOUND_CID>  (1) 
31944

>  <PUBCHEM_CONFORMER_RMSD>  (1) 
0.8

>  <PUBCHEM_CONFORMER_DIVERSEORDER>  (1) 
2
115
68
69
114
110
35
117
28
116
29
50
18
104
79
45
92
112
94
39
99
74
51
49
70
58
72
113
88
42
22
93
101
83
61
27
47
96
59
100
111
105
15
25
118
107
34
33
87
31
103
20
106
77
16
97
36
78
102
23
6
17
10
90
98
56
30
12
11
91
52
95
21
71
13
63
14
37
109
9
65
40
85
81
86
80
84
60
73
41
62
48
89
67
4
46
26
38
55
54
66
44
75
24
82
53
1
8
64
76
5
3
19
108
7
57
32
43

>  <PUBCHEM_MMFF94_PARTIAL_CHARGES>  (1) 
22
1 -0.57
15 0.45
16 0.33
17 0.27
18 0.27
19 0.37
2 -0.36
20 0.37
21 0.1
22 0.08
23 -0.15
24 -0.15
25 -0.15
26 -0.15
27 0.28
3 -0.81
4 -0.84
5 0.06
53 0.15
54 0.15
55 0.15
56 0.15

>  <PUBCHEM_EFFECTIVE_ROTOR_COUNT>  (1) 
7.4

>  <PUBCHEM_PHARMACOPHORE_FEATURES>  (1) 
10
1 1 acceptor
1 2 acceptor
1 3 cation
1 4 cation
6 21 22 23 24 25 26 rings
6 3 4 17 18 19 20 rings
6 5 6 7 9 10 12 rings
6 5 6 8 9 11 13 rings
6 5 7 8 10 11 14 rings
6 6 7 8 12 13 14 rings

>  <PUBCHEM_HEAVY_ATOM_COUNT>  (1) 
27

>  <PUBCHEM_ATOM_DEF_STEREO_COUNT>  (1) 
0

>  <PUBCHEM_ATOM_UDEF_STEREO_COUNT>  (1) 
0

>  <PUBCHEM_BOND_DEF_STEREO_COUNT>  (1) 
0

>  <PUBCHEM_BOND_UDEF_STEREO_COUNT>  (1) 
0

>  <PUBCHEM_ISOTOPIC_ATOM_COUNT>  (1) 
0

>  <PUBCHEM_COMPONENT_COUNT>  (1) 
1

>  <PUBCHEM_CACTVS_TAUTO_COUNT>  (1) 
2

>  <PUBCHEM_CONFORMER_ID>  (1) 
00007CC800000002

>  <PUBCHEM_MMFF94_ENERGY>  (1) 
98.3952

>  <PUBCHEM_FEATURE_SELFOVERLAP>  (1) 
63.296

>  <PUBCHEM_SHAPE_FINGERPRINT>  (1) 
10 15 10737292333176233532
10299344 5 18131637794011971915
105312 117 16081369656915044155
10595046 47 18412830175002286520
10763959 59 15864073178792674796
11089746 13 14562531816661197988
11135609 149 17606098608342487182
11315181 36 15482670200019340841
11524674 6 15195566814680490821
117089 54 17622718040071620679
11796584 16 17346599681387207934
12166972 35 18260553367510700772
12236239 1 18407760335165283601
12516196 113 17894911840993069284
13167372 99 7853580106270822142
13533116 47 18271807896002955138
1361 2 18410298004319315438
13668630 136 17775293763673261214
13690498 29 18263918999232625623
13782708 43 16415474969417812532
14347332 77 18272649004659276096
14528608 73 17749106695002450416
14681490 219 18186518787399972124
14933364 13 18186523210862313181
15183329 4 18411133632312101230
15238133 3 13262397756963222942
15250474 111 18201433636787012062
15274700 147 15444140327427521116
15348495 7 11455879278580066510
15352257 5 15554458374979990060
15537594 2 17775849016555106295
15788980 27 18343579642528709897
15799311 1 17845949488469748574
16993427 108 16374359652418351498
16993438 75 18190186882612981002
17093844 174 15051736374383152899
17857418 61 17917988352197308190
18222031 100 16487254374561703528
18608769 82 16588318232402384601
18681886 176 18336262443964188760
18927931 339 16845575327302826197
20281389 69 14490187228576849188
21033648 29 14996283578650619017
21150785 3 18113900489380450122
220451 1 18060142037251373763
22061861 79 18260266326292777926
22393880 68 17676481774434138947
2303208 19 13542474154836258104
23035841 295 17632581560644599497
23198884 109 17822009809398160657
23402539 116 18413109463619090929
23516275 137 17558581077890130135
23522609 53 17487647270750686776
23559900 14 18341045332345682728
23569914 152 17033281529381706215
2767999 5 14779544603935833164
2838139 119 14562527405323687815
29717793 49 18411140208529361020
3004659 81 16917066680941282928
3383291 50 15123498255738509295
34797466 226 18040158426317121715
3663271 9 9439399129789341220
392239 28 8646488552749107039
4015057 19 18188781655265251432
4073 2 17894920654139126362
4098825 35 18335422348830374785
44317340 157 18335142011714360896
504579 68 18338250327423996300
5104073 3 12679172873376638091
53794403 172 16444486765450290324
543368 44 17095238121223275341
5718773 13 14763482990382086365
59755656 215 16200440156359046028
7495541 125 17060616720325435168

>  <PUBCHEM_SHAPE_MULTIPOLES>  (1) 
533.95
19.3
1.9
1.51
10.08
0.65
-0.03
0.75
6.78
1.35
0.35
-1.12
0.15
-0.55

>  <PUBCHEM_SHAPE_SELFOVERLAP>  (1) 
1157.678

>  <PUBCHEM_SHAPE_VOLUME>  (1) 
285.8

>  <PUBCHEM_COORDINATE_TYPE>  (1) 
2
5
10

$$$$
