31954
     RDKit          3D

 14 14  0  0  0  0  0  0  0  0999 V2000
    0.6750    0.7249   -0.7876 O   0  0  0  0  0  0  0  0  0  0  0  0
   -1.8942    0.2603    0.1848 O   0  0  0  0  0  0  0  0  0  0  0  0
   -4.0657    0.8948   -0.2686 O   0  0  0  0  0  0  0  0  0  0  0  0
    0.0579    1.6552    0.0940 C   0  0  0  0  0  0  0  0  0  0  0  0
   -1.4458    1.5909   -0.0922 C   0  0  0  0  0  0  0  0  0  0  0  0
    1.8703    0.1912   -0.3834 C   0  0  0  0  0  0  0  0  0  0  0  0
   -3.5448   -1.3895    0.3801 C   0  0  0  0  0  0  0  0  0  0  0  0
   -3.2386    0.0540    0.0561 C   0  0  0  0  0  0  0  0  0  0  0  0
    2.7170    0.9362    0.4299 C   0  0  0  0  0  0  0  0  0  0  0  0
    2.2251   -1.0899   -0.7905 C   0  0  0  0  0  0  0  0  0  0  0  0
   -5.0287   -1.6959    0.2777 C   0  0  0  0  0  0  0  0  0  0  0  0
    3.9340    0.3929    0.8415 C   0  0  0  0  0  0  0  0  0  0  0  0
    3.4421   -1.6333   -0.3789 C   0  0  0  0  0  0  0  0  0  0  0  0
    4.2965   -0.8919    0.4371 C   0  0  0  0  0  0  0  0  0  0  0  0
  1  4  1  0
  1  6  1  0
  2  5  1  0
  2  8  1  0
  3  8  2  0
  4  5  1  0
  6  9  2  0
  6 10  1  0
  7  8  1  0
  7 11  1  0
  9 12  1  0
 10 13  2  0
 12 14  2  0
 13 14  1  0
M  END
>  <PUBCHEM_COMPOUND_CID>  (1) 
31954

>  <PUBCHEM_CONFORMER_RMSD>  (1) 
0.6

>  <PUBCHEM_CONFORMER_DIVERSEORDER>  (1) 
2
84
12
114
45
240
111
136
92
272
242
138
66
122
86
199
89
263
25
291
256
14
131
8
235
292
207
182
4
142
24
44
94
166
244
33
76
275
123
29
238
38
196
247
201
269
157
294
232
255
175
85
264
47
110
51
109
283
271
23
55
249
165
6
203
133
19
224
127
168
28
226
81
87
69
267
210
149
153
161
216
268
134
162
16
99
11
156
177
290
72
195
286
21
243
56
58
197
137
253
288
233
120
60
236
34
80
115
213
3
116
192
20
221
52
104
159
219
250
179
260
231
5
139
150
194
125
284
190
132
259
270
65
241
262
206
135
193
77
15
154
280
163
200
112
158
18
209
124
46
245
103
215
282
50
79
273
97
183
277
41
59
37
202
57
30
42
71
17
143
258
100
218
7
107
180
211
176
78
93
9
27
70
186
152
254
68
169
279
64
88
83
281
189
39
117
49
75
113
140
130
13
40
82
220
10
171
178
251
151
181
96
225
164
53
63
252
257
108
266
204
90
237
246
26
36
148
106
160
172
230
212
293
205
285
144
217
289
105
214
62
43
239
248
74
98
95
229
118
170
129
48
188
73
261
278
208
1
61
128
265
155
101
223
185
174
287
32
121
91
145
222
31
67
146
126
147
119
187
198
35
276
54
141
274
184
173
234
102
22
228
167
191
227

>  <PUBCHEM_MMFF94_PARTIAL_CHARGES>  (1) 
18
1 -0.36
10 -0.15
12 -0.15
13 -0.15
14 -0.15
2 -0.43
21 0.15
22 0.15
26 0.15
27 0.15
28 0.15
3 -0.57
4 0.28
5 0.28
6 0.08
7 0.06
8 0.66
9 -0.15

>  <PUBCHEM_EFFECTIVE_ROTOR_COUNT>  (1) 
6

>  <PUBCHEM_PHARMACOPHORE_FEATURES>  (1) 
4
1 1 acceptor
1 11 hydrophobe
1 3 acceptor
6 6 9 10 12 13 14 rings

>  <PUBCHEM_HEAVY_ATOM_COUNT>  (1) 
14

>  <PUBCHEM_ATOM_DEF_STEREO_COUNT>  (1) 
0

>  <PUBCHEM_ATOM_UDEF_STEREO_COUNT>  (1) 
0

>  <PUBCHEM_BOND_DEF_STEREO_COUNT>  (1) 
0

>  <PUBCHEM_BOND_UDEF_STEREO_COUNT>  (1) 
0

>  <PUBCHEM_ISOTOPIC_ATOM_COUNT>  (1) 
0

>  <PUBCHEM_COMPONENT_COUNT>  (1) 
1

>  <PUBCHEM_CACTVS_TAUTO_COUNT>  (1) 
1

>  <PUBCHEM_CONFORMER_ID>  (1) 
00007CD200000002

>  <PUBCHEM_MMFF94_ENERGY>  (1) 
31.2626

>  <PUBCHEM_FEATURE_SELFOVERLAP>  (1) 
20.297

>  <PUBCHEM_SHAPE_FINGERPRINT>  (1) 
100836 57 10447933892485966515
122479 349 10591756593241459525
12363563 72 18261121793720718075
12596602 18 16271929367347385123
13296908 3 18410294709461896109
1420 369 18409735083961095379
14251710 61 18410862035723384375
14252887 29 17703799106440095430
15196674 1 18410293609829033419
15352361 1 18337391638469799099
177051 138 18408324384524590720
17834072 14 18410571790570882017
17834072 32 9439411228849422163
18186145 218 11602823479793329389
19107657 162 18341051830667819174
193927 3 18041292049034404019
20233049 118 9367349236701588594
20261772 1 17988922305534088550
20281475 54 18409739460411515597
20403669 9 18408608084669381411
20432913 95 18342745134651892259
20645477 70 18116431630036219527
20671657 53 17458060482188153813
21065199 12 18201999897969781888
21501925 9 18410574015248059181
22485316 2 18335419045457218185
22646028 28 18333453153184742187
231179 274 9799699194290154004
23402539 116 18186793669405989596
23402655 69 11386365941579870706
23403322 49 18334857212643758251
23559900 14 18339074887608144040
25 1 8790887380449301152
251288 83 18411417328287875338
26918003 58 18342451504595941360
316301 35 18336826382277656818
5104073 3 18201152140551009418
76465 3 18040988497920419850
9709674 26 18335144219121673379

>  <PUBCHEM_SHAPE_MULTIPOLES>  (1) 
270.51
10.23
1.87
0.81
6.61
0.14
0
5.08
1.73
0.64
-0.03
-0.4
0.05
0.71

>  <PUBCHEM_SHAPE_SELFOVERLAP>  (1) 
543.97

>  <PUBCHEM_SHAPE_VOLUME>  (1) 
159

>  <PUBCHEM_COORDINATE_TYPE>  (1) 
2
5
10

$$$$
