31955
     RDKit          3D

 16 16  0  0  1  0  0  0  0  0999 V2000
    0.2304    1.1964    0.9087 O   0  0  0  0  0  0  0  0  0  0  0  0
    1.0663    1.2731   -1.2597 O   0  0  0  0  0  0  0  0  0  0  0  0
   -0.2825   -1.5512    0.5796 N   0  0  0  0  0  0  0  0  0  0  0  0
    2.4013    1.8410    0.5507 N   0  0  0  0  0  0  0  0  0  0  0  0
   -1.2406   -0.5743    0.2319 C   0  0  0  0  0  0  0  0  0  0  0  0
   -0.9658    0.7826    0.4029 C   0  0  0  0  0  0  0  0  0  0  0  0
   -2.4712   -0.9765   -0.2875 C   0  0  0  0  0  0  0  0  0  0  0  0
    0.2187   -2.4736   -0.4188 C   0  0  0  0  0  0  0  0  0  0  0  0
    0.2002   -1.6515    1.9418 C   0  0  0  0  0  0  0  0  0  0  0  0
   -1.9216    1.7371    0.0547 C   0  0  0  0  0  0  0  0  0  0  0  0
   -3.4269   -0.0219   -0.6356 C   0  0  0  0  0  0  0  0  0  0  0  0
   -3.1521    1.3348   -0.4645 C   0  0  0  0  0  0  0  0  0  0  0  0
    1.6602   -2.3137   -0.6077 C   0  0  0  0  0  0  0  0  0  0  0  0
    1.2318    1.4274   -0.0532 C   0  0  0  0  0  0  0  0  0  0  0  0
    3.6083    2.1554   -0.1777 C   0  0  0  0  0  0  0  0  0  0  0  0
    2.8433   -2.1853   -0.7658 C   0  0  0  0  0  0  0  0  0  0  0  0
  1  6  1  0
  1 14  1  0
  2 14  2  0
  3  5  1  0
  3  8  1  0
  3  9  1  0
  4 14  1  0
  4 15  1  0
  5  6  2  0
  5  7  1  0
  6 10  1  0
  7 11  2  0
  8 13  1  0
 10 12  2  0
 11 12  1  0
 13 16  3  0
M  END
>  <PUBCHEM_COMPOUND_CID>  (1) 
31955

>  <PUBCHEM_CONFORMER_RMSD>  (1) 
0.6

>  <PUBCHEM_CONFORMER_DIVERSEORDER>  (1) 
1
8
230
207
175
191
69
20
60
32
180
201
142
231
168
182
109
61
58
51
239
238
151
87
49
240
235
141
71
193
162
251
137
217
189
97
39
93
127
36
45
101
173
211
40
14
38
206
176
41
167
218
81
133
163
146
42
210
204
243
236
226
54
140
187
113
213
144
222
161
166
223
171
197
241
91
117
233
53
205
72
147
88
130
118
225
208
135
237
5
98
76
99
57
43
115
214
152
68
50
6
63
136
212
158
188
224
185
106
114
59
82
183
242
34
74
143
94
159
247
220
70
234
149
31
89
80
253
83
103
150
100
221
246
148
96
245
75
154
52
155
77
229
35
129
116
202
64
73
252
124
33
203
67
215
216
200
55
105
27
178
198
169
190
15
104
92
122
102
156
26
219
232
112
111
172
48
17
86
128
30
227
138
29
62
250
164
181
44
66
170
25
194
192
199
248
95
56
46
21
249
110
134
85
139
23
37
196
177
145
209
121
184
84
160
174
123
131
165
119
90
125
65
195
24
179
78
108
79
157
228
7
126
12
19
13
22
132
153
3
244
10
4
2
186
9
107
47
11
16
120
18
28

>  <PUBCHEM_MMFF94_PARTIAL_CHARGES>  (1) 
22
1 -0.23
10 -0.15
11 -0.15
12 -0.15
13 -0.2
14 0.78
15 0.3
16 -0.18
17 0.15
2 -0.57
23 0.15
24 0.15
25 0.15
26 0.37
3 -0.84
30 0.18
4 -0.73
5 0.1
6 0.08
7 -0.15
8 0.57
9 0.37

>  <PUBCHEM_EFFECTIVE_ROTOR_COUNT>  (1) 
5

>  <PUBCHEM_PHARMACOPHORE_FEATURES>  (1) 
5
1 16 hydrophobe
1 2 acceptor
1 3 cation
1 4 donor
6 5 6 7 10 11 12 rings

>  <PUBCHEM_HEAVY_ATOM_COUNT>  (1) 
16

>  <PUBCHEM_ATOM_DEF_STEREO_COUNT>  (1) 
0

>  <PUBCHEM_ATOM_UDEF_STEREO_COUNT>  (1) 
0

>  <PUBCHEM_BOND_DEF_STEREO_COUNT>  (1) 
0

>  <PUBCHEM_BOND_UDEF_STEREO_COUNT>  (1) 
0

>  <PUBCHEM_ISOTOPIC_ATOM_COUNT>  (1) 
0

>  <PUBCHEM_COMPONENT_COUNT>  (1) 
1

>  <PUBCHEM_CACTVS_TAUTO_COUNT>  (1) 
2

>  <PUBCHEM_CONFORMER_ID>  (1) 
00007CD300000001

>  <PUBCHEM_MMFF94_ENERGY>  (1) 
56.2045

>  <PUBCHEM_FEATURE_SELFOVERLAP>  (1) 
25.371

>  <PUBCHEM_SHAPE_FINGERPRINT>  (1) 
10465860 71 18055915381563405583
10756046 5 18341883057617060085
13380535 76 18336542828129845768
14181834 199 18262223422466697175
14251745 187 18336829689164175188
14955137 171 17335089774903962945
15490181 8 18188501292547458725
15536298 74 18271803475890497486
15852999 172 18262518216374479856
1601671 61 17114946592036525953
16945 1 18122900928588717379
19868273 325 17762335812612485103
20645476 183 17242439762296096024
20645477 70 18338784642656186597
20871998 184 17904208379055983753
20905425 154 18340771562514005127
21524375 3 18261945370695245249
22112679 90 17543624232359348595
22344851 341 18334009476098630147
23402539 116 18124303067912678189
23419403 2 17901428620403541883
23559900 14 18126845122154855888
23728640 28 17977933907075400242
2748010 2 18335709355350422803
5262128 65 17630067965647718070
7364860 26 18342451496185315733
7832392 63 17838057005100526553
81228 2 17184454963863987017
84936 31 17130681921894860818
90316 7 16963760474271824259

>  <PUBCHEM_SHAPE_MULTIPOLES>  (1) 
307.57
4.93
3.19
1.13
0.26
0.33
0.39
-1.73
-1.46
-2.82
-0.17
-0.21
0.39
0.38

>  <PUBCHEM_SHAPE_SELFOVERLAP>  (1) 
627.351

>  <PUBCHEM_SHAPE_VOLUME>  (1) 
176.6

>  <PUBCHEM_COORDINATE_TYPE>  (1) 
2
5
10

$$$$
