31951
     RDKit          3D

 17 18  0  0  1  0  0  0  0  0999 V2000
   -4.0125    0.2482   -0.3904 S   0  0  0  0  0  0  0  0  0  0  0  0
   -3.4531    1.3800   -1.1951 O   0  0  0  0  0  0  0  0  0  0  0  0
    0.2579   -1.5268   -0.0080 N   0  0  0  0  0  0  0  0  0  0  0  0
    1.3752   -2.3387    0.4897 C   0  0  0  0  0  0  0  0  0  0  0  0
    0.7441   -0.5344   -0.9825 C   0  0  0  0  0  0  0  0  0  0  0  0
   -0.7698   -2.3734   -0.6132 C   0  0  0  0  0  0  0  0  0  0  0  0
    2.3353   -1.4619    1.3000 C   0  0  0  0  0  0  0  0  0  0  0  0
    1.9065    0.2858   -0.4718 C   0  0  0  0  0  0  0  0  0  0  0  0
    2.6958   -0.1812    0.5933 C   0  0  0  0  0  0  0  0  0  0  0  0
   -1.9729   -1.5254   -1.0319 C   0  0  0  0  0  0  0  0  0  0  0  0
   -2.6083   -0.7800    0.1373 C   0  0  0  0  0  0  0  0  0  0  0  0
    2.2423    1.4911   -1.1033 C   0  0  0  0  0  0  0  0  0  0  0  0
    3.7851    0.5810    1.0350 C   0  0  0  0  0  0  0  0  0  0  0  0
    3.3344    2.2381   -0.6625 C   0  0  0  0  0  0  0  0  0  0  0  0
    4.1036    1.7848    0.4068 C   0  0  0  0  0  0  0  0  0  0  0  0
   -4.3913    0.8822    1.2602 C   0  0  0  0  0  0  0  0  0  0  0  0
   -5.5723    1.8306    1.2363 C   0  0  0  0  0  0  0  0  0  0  0  0
  1  2  2  0
  1 11  1  0
  1 16  1  0
  3  4  1  0
  3  5  1  0
  3  6  1  0
  4  7  1  0
  5  8  1  0
  6 10  1  0
  7  9  1  0
  8  9  2  0
  8 12  1  0
  9 13  1  0
 10 11  1  0
 12 14  2  0
 13 15  2  0
 14 15  1  0
 16 17  1  0
M  END
>  <PUBCHEM_COMPOUND_CID>  (1) 
31951

>  <PUBCHEM_CONFORMER_RMSD>  (1) 
0.8

>  <PUBCHEM_CONFORMER_DIVERSEORDER>  (1) 
2
39
13
87
67
37
24
78
8
22
65
25
48
79
98
70
85
88
36
54
61
76
92
10
28
86
74
83
7
57
93
84
68
64
18
26
82
90
34
30
20
91
42
35
73
38
17
77
19
89
3
62
21
27
23
72
80
1
56
11
100
69
63
31
66
99
29
16
75
96
49
71
58
60
40
41
46
44
4
9
52
6
97
55
81
59
101
43
32
12
47
33
50
53
14
15
5
51
94
45
95

>  <PUBCHEM_MMFF94_PARTIAL_CHARGES>  (1) 
19
1 0.11
11 0.19
12 -0.15
13 -0.15
14 -0.15
15 -0.15
16 0.19
2 -0.5
3 -0.81
30 0.15
31 0.15
32 0.15
33 0.15
4 0.27
5 0.41
6 0.27
7 0.14
8 -0.14
9 -0.14

>  <PUBCHEM_EFFECTIVE_ROTOR_COUNT>  (1) 
5.8

>  <PUBCHEM_PHARMACOPHORE_FEATURES>  (1) 
4
1 2 acceptor
1 3 cation
6 3 4 5 7 8 9 rings
6 8 9 12 13 14 15 rings

>  <PUBCHEM_HEAVY_ATOM_COUNT>  (1) 
17

>  <PUBCHEM_ATOM_DEF_STEREO_COUNT>  (1) 
0

>  <PUBCHEM_ATOM_UDEF_STEREO_COUNT>  (1) 
1

>  <PUBCHEM_BOND_DEF_STEREO_COUNT>  (1) 
0

>  <PUBCHEM_BOND_UDEF_STEREO_COUNT>  (1) 
0

>  <PUBCHEM_ISOTOPIC_ATOM_COUNT>  (1) 
0

>  <PUBCHEM_COMPONENT_COUNT>  (1) 
1

>  <PUBCHEM_CACTVS_TAUTO_COUNT>  (1) 
1

>  <PUBCHEM_CONFORMER_ID>  (1) 
00007CCF00000002

>  <PUBCHEM_MMFF94_ENERGY>  (1) 
26.5375

>  <PUBCHEM_FEATURE_SELFOVERLAP>  (1) 
20.319

>  <PUBCHEM_SHAPE_FINGERPRINT>  (1) 
10382601 240 18040425599506527906
10465860 228 18409164415919736070
10498660 4 17203614778796379497
11640471 11 18341609343235010515
12363563 72 11025797604752329627
12390115 104 18118130401244856148
12633257 1 16660933282640133137
12788726 201 17985247815537938823
13583140 156 17168411676376203207
13828863 39 16011590388393153596
14123260 362 18059858389437819387
1420 369 11458427955466343409
14251764 38 17628624555656859192
14251764 75 18267035023169626497
15188451 53 15068628236251257425
15209294 21 18265037206393728104
15342168 16 18200599095151017301
15475509 8 18269565949208380414
1741750 31 18271807968669343471
17810953 82 18268998587912199825
17834072 32 18342459287293154345
1798214 55 18272094885538247761
201361 129 18262229023573783346
20157964 124 18188755173081830375
20621476 21 12686187637609019616
20715895 44 17906728104064116873
20739085 24 17531238479302642884
21503847 285 18339933605809596587
21524375 3 18339356482612090535
21665062 11 18260265218164685812
21713013 43 13254502202656000365
21864079 5 18201446814052241529
22182937 141 18268153235120938523
22849341 161 18193835934308958466
23503958 8 12396840204185883261
235170 7 14189565330763324553
23557571 272 16271354348625272959
23596394 208 13039184784416363049
2748010 2 17610015116025961918
2838139 119 16700592719021311904
3472631 163 17775284959138458257
351380 3 8142086477021039609
38570 142 17679049194510470444
474 4 18334572460290561187
49207404 50 17895203181688486889
5104073 3 18189042261311622256
633830 44 18411702131700937854
76465 3 8142091944102612977
7808743 9 18200595911915736433
960060 61 10303802164976077939

>  <PUBCHEM_SHAPE_MULTIPOLES>  (1) 
342.85
9.94
2.69
1.34
10.66
0.45
0.1
-8.33
3.22
-0.45
-0.05
0.32
-0.19
-1.59

>  <PUBCHEM_SHAPE_SELFOVERLAP>  (1) 
682.994

>  <PUBCHEM_SHAPE_VOLUME>  (1) 
204.1

>  <PUBCHEM_COORDINATE_TYPE>  (1) 
2
5
10

$$$$
