31966
     RDKit          3D

 13 13  0  0  1  0  0  0  0  0999 V2000
    4.7839    1.4222   -0.2202 Cl  0  0  0  0  0  0  0  0  0  0  0  0
    1.2038   -0.3803    0.1774 N   0  0  0  0  0  0  0  0  0  0  0  0
    0.3984    0.5104   -0.6572 C   0  0  0  0  0  0  0  0  0  0  0  0
    2.6253   -0.2178   -0.1256 C   0  0  0  0  0  0  0  0  0  0  0  0
    0.7955   -1.7710   -0.0172 C   0  0  0  0  0  0  0  0  0  0  0  0
   -1.0679    0.4129   -0.3290 C   0  0  0  0  0  0  0  0  0  0  0  0
    3.0590    1.2107    0.1644 C   0  0  0  0  0  0  0  0  0  0  0  0
    1.6226   -2.7116    0.8429 C   0  0  0  0  0  0  0  0  0  0  0  0
   -1.8578   -0.5114   -0.9984 C   0  0  0  0  0  0  0  0  0  0  0  0
   -1.6087    1.2482    0.6385 C   0  0  0  0  0  0  0  0  0  0  0  0
   -3.2162   -0.6020   -0.6943 C   0  0  0  0  0  0  0  0  0  0  0  0
   -2.9671    1.1574    0.9425 C   0  0  0  0  0  0  0  0  0  0  0  0
   -3.7707    0.2323    0.2761 C   0  0  0  0  0  0  0  0  0  0  0  0
  1  7  1  0
  2  3  1  0
  2  4  1  0
  2  5  1  0
  3  6  1  0
  4  7  1  0
  5  8  1  0
  6  9  2  0
  6 10  1  0
  9 11  1  0
 10 12  2  0
 11 13  2  0
 12 13  1  0
M  END
>  <PUBCHEM_COMPOUND_CID>  (1) 
31966

>  <PUBCHEM_CONFORMER_RMSD>  (1) 
0.6

>  <PUBCHEM_CONFORMER_DIVERSEORDER>  (1) 
3
23
27
14
20
1
25
22
17
26
18
5
19
13
30
9
6
24
28
10
2
21
29
4
11
12
15
16
7
8

>  <PUBCHEM_MMFF94_PARTIAL_CHARGES>  (1) 
17
1 -0.29
10 -0.15
11 -0.15
12 -0.15
13 -0.15
2 -0.81
25 0.15
26 0.15
27 0.15
28 0.15
29 0.15
3 0.41
4 0.27
5 0.27
6 -0.14
7 0.29
9 -0.15

>  <PUBCHEM_EFFECTIVE_ROTOR_COUNT>  (1) 
5

>  <PUBCHEM_PHARMACOPHORE_FEATURES>  (1) 
2
1 2 cation
6 6 9 10 11 12 13 rings

>  <PUBCHEM_HEAVY_ATOM_COUNT>  (1) 
13

>  <PUBCHEM_ATOM_DEF_STEREO_COUNT>  (1) 
0

>  <PUBCHEM_ATOM_UDEF_STEREO_COUNT>  (1) 
0

>  <PUBCHEM_BOND_DEF_STEREO_COUNT>  (1) 
0

>  <PUBCHEM_BOND_UDEF_STEREO_COUNT>  (1) 
0

>  <PUBCHEM_ISOTOPIC_ATOM_COUNT>  (1) 
0

>  <PUBCHEM_COMPONENT_COUNT>  (1) 
1

>  <PUBCHEM_CACTVS_TAUTO_COUNT>  (1) 
1

>  <PUBCHEM_CONFORMER_ID>  (1) 
00007CDE00000003

>  <PUBCHEM_MMFF94_ENERGY>  (1) 
30.3588

>  <PUBCHEM_FEATURE_SELFOVERLAP>  (1) 
10.148

>  <PUBCHEM_SHAPE_FINGERPRINT>  (1) 
10219947 1 17967531281193303180
10922049 32 18341338868112448822
12119455 92 17822566196631075568
12346645 44 18341895190556701428
12932764 1 18264777553824049821
14787075 74 18053381290818712023
15207287 21 16877661296566522915
15279307 12 18341891891964270271
15309172 13 18187082897009750668
15375462 189 18272088284220844051
15669948 3 17703497844744257007
15775835 57 18272937115349766368
16945 1 18114188531536119413
170605 34 18272093781620649134
18186145 218 18411982460169280652
19422 9 18131633352736291118
201361 129 18341619157324699512
20279233 1 16587744222544171819
204376 136 18187086212840463228
20645477 70 18263351500397160999
21499 59 18334574685267957524
21524375 3 18340485660016290556
22445834 79 18267585715285546907
2255824 54 18337391513900124578
23236772 104 18343865528420976779
23402539 116 18201715197995066340
3250762 1 17463953684546302668
3312278 4 18341328981108347807
366044 4 18334856169114209978
458136 41 18334305249227288106
474 4 18335988652821308684
57096353 35 18272923959980834341
633830 44 18341338846579655356
7364860 26 18270683039546435630
81228 2 17541088101837570370
81539 233 18040712563435728822

>  <PUBCHEM_SHAPE_MULTIPOLES>  (1) 
264.42
7.33
2.04
0.94
3.61
1.45
0
-3.46
-0.05
1.56
-0.61
-0.42
0.06
-0.9

>  <PUBCHEM_SHAPE_SELFOVERLAP>  (1) 
518.093

>  <PUBCHEM_SHAPE_VOLUME>  (1) 
159.9

>  <PUBCHEM_COORDINATE_TYPE>  (1) 
2
5
10

$$$$
