31964
     RDKit          3D

 23 25  0  0  0  0  0  0  0  0999 V2000
   -3.3851   -0.9214    0.1592 N   0  0  0  0  0  0  0  0  0  0  0  0
    0.7450   -0.1626   -0.9472 C   0  0  0  0  0  0  0  0  0  0  0  0
   -0.5900   -0.8730   -0.6745 C   0  0  0  0  0  0  0  0  0  0  0  0
    0.6747    1.3248   -0.6452 C   0  0  0  0  0  0  0  0  0  0  0  0
    1.9254   -0.9488   -0.3842 C   0  0  0  0  0  0  0  0  0  0  0  0
   -1.7112   -0.2627   -1.5057 C   0  0  0  0  0  0  0  0  0  0  0  0
    0.6728    1.8427    0.6595 C   0  0  0  0  0  0  0  0  0  0  0  0
    2.5519   -0.7516    0.8623 C   0  0  0  0  0  0  0  0  0  0  0  0
    0.8387    0.9459    1.8528 C   0  0  0  0  0  0  0  0  0  0  0  0
    2.2247    0.3189    1.8795 C   0  0  0  0  0  0  0  0  0  0  0  0
   -3.0281   -0.9946   -1.2527 C   0  0  0  0  0  0  0  0  0  0  0  0
    0.5521    2.2237   -1.7242 C   0  0  0  0  0  0  0  0  0  0  0  0
    2.3973   -2.0031   -1.2070 C   0  0  0  0  0  0  0  0  0  0  0  0
    0.5524    3.2301    0.8584 C   0  0  0  0  0  0  0  0  0  0  0  0
    3.6421   -1.5848    1.2129 C   0  0  0  0  0  0  0  0  0  0  0  0
   -4.6466   -1.6211    0.4087 C   0  0  0  0  0  0  0  0  0  0  0  0
   -3.4832    0.4728    0.5944 C   0  0  0  0  0  0  0  0  0  0  0  0
    0.4360    3.5979   -1.5154 C   0  0  0  0  0  0  0  0  0  0  0  0
    3.4628   -2.8200   -0.8336 C   0  0  0  0  0  0  0  0  0  0  0  0
    0.4345    4.1017   -0.2218 C   0  0  0  0  0  0  0  0  0  0  0  0
    4.0910   -2.6072    0.3805 C   0  0  0  0  0  0  0  0  0  0  0  0
   -4.5671   -3.0716   -0.0361 C   0  0  0  0  0  0  0  0  0  0  0  0
   -3.7901    0.5640    2.0796 C   0  0  0  0  0  0  0  0  0  0  0  0
  1 11  1  0
  1 16  1  0
  1 17  1  0
  2  3  1  0
  2  4  1  0
  2  5  1  0
  3  6  1  0
  4  7  2  0
  4 12  1  0
  5  8  2  0
  5 13  1  0
  6 11  1  0
  7  9  1  0
  7 14  1  0
  8 10  1  0
  8 15  1  0
  9 10  1  0
 12 18  2  0
 13 19  2  0
 14 20  2  0
 15 21  2  0
 16 22  1  0
 17 23  1  0
 18 20  1  0
 19 21  1  0
M  END
>  <PUBCHEM_COMPOUND_CID>  (1) 
31964

>  <PUBCHEM_CONFORMER_RMSD>  (1) 
0.8

>  <PUBCHEM_CONFORMER_DIVERSEORDER>  (1) 
1
21
24
27
23
33
20
10
25
29
34
30
28
16
22
11
15
6
17
32
8
18
14
26
31
4
19
12
2
5
13
9
7
3

>  <PUBCHEM_MMFF94_PARTIAL_CHARGES>  (1) 
27
1 -0.81
10 0.14
11 0.27
12 -0.15
13 -0.15
14 -0.15
15 -0.15
16 0.27
17 0.27
18 -0.15
19 -0.15
2 0.29
20 -0.15
21 -0.15
35 0.15
36 0.15
37 0.15
38 0.15
4 -0.14
43 0.15
44 0.15
45 0.15
46 0.15
5 -0.14
7 -0.14
8 -0.14
9 0.14

>  <PUBCHEM_EFFECTIVE_ROTOR_COUNT>  (1) 
6.6

>  <PUBCHEM_PHARMACOPHORE_FEATURES>  (1) 
4
1 1 cation
6 4 7 12 14 18 20 rings
6 5 8 13 15 19 21 rings
7 2 4 5 7 8 9 10 rings

>  <PUBCHEM_HEAVY_ATOM_COUNT>  (1) 
23

>  <PUBCHEM_ATOM_DEF_STEREO_COUNT>  (1) 
0

>  <PUBCHEM_ATOM_UDEF_STEREO_COUNT>  (1) 
0

>  <PUBCHEM_BOND_DEF_STEREO_COUNT>  (1) 
0

>  <PUBCHEM_BOND_UDEF_STEREO_COUNT>  (1) 
0

>  <PUBCHEM_ISOTOPIC_ATOM_COUNT>  (1) 
0

>  <PUBCHEM_COMPONENT_COUNT>  (1) 
1

>  <PUBCHEM_CACTVS_TAUTO_COUNT>  (1) 
1

>  <PUBCHEM_CONFORMER_ID>  (1) 
00007CDC00000001

>  <PUBCHEM_MMFF94_ENERGY>  (1) 
63.9767

>  <PUBCHEM_FEATURE_SELFOVERLAP>  (1) 
20.312

>  <PUBCHEM_SHAPE_FINGERPRINT>  (1) 
11244481 83 17823141296614337347
121448 382 8502067653063869317
12714826 92 18053941745607235054
12788726 201 17972898972495607634
12892183 10 17703779340700237442
13009979 54 18201455665636622609
13140716 1 18339356349351669996
13533116 47 18191310579939448483
13681431 1 18333736848617554820
13955234 65 18120945168154824003
14251757 17 14201696229113833122
14790565 3 17984689268004915936
14955137 171 18196091264627516840
17357779 13 18054479466416383940
1813 80 18336833004620601318
20600515 1 17986125027714813333
20739085 24 18341604962700515824
21330990 113 17769946674885846432
22182313 1 17414690113878462786
23419403 2 17772162272705387936
23559900 14 18339080510063505359
3380486 145 17912324802383600606
35225 105 17613986400921048577
3759504 43 17331676843761943044
4409770 3 17902508186514333861
59444896 2 17625309386929585304
59755656 520 17185590763470727541
633830 44 11314866804801648591
6786 2 16961300222579048684
6992083 37 17988912362837584327
7097593 13 18271807968853972863
81228 2 18049429349559846980

>  <PUBCHEM_SHAPE_MULTIPOLES>  (1) 
468.35
7.47
4.53
1.87
6.77
3.51
-0.35
-9.63
-2.21
-1.38
1.14
-0.03
0.63
-0.2

>  <PUBCHEM_SHAPE_SELFOVERLAP>  (1) 
983.954

>  <PUBCHEM_SHAPE_VOLUME>  (1) 
260.9

>  <PUBCHEM_COORDINATE_TYPE>  (1) 
2
5
10

$$$$
