31973
     RDKit          3D

 23 25  0  0  1  0  0  0  0  0999 V2000
   -1.0987    0.2429   -0.2733 N   0  0  0  0  0  0  0  0  0  0  0  0
    1.5668    0.3227    0.8069 N   0  0  0  0  0  0  0  0  0  0  0  0
   -4.8200    0.3240   -0.4939 N   0  0  0  0  0  0  0  0  0  0  0  0
   -0.0063   -0.4110   -1.0099 C   0  0  0  0  0  0  0  0  0  0  0  0
   -0.9036    0.0452    1.1712 C   0  0  0  0  0  0  0  0  0  0  0  0
    0.0604   -1.9292   -0.7410 C   0  0  0  0  0  0  0  0  0  0  0  0
   -0.8885   -1.4469    1.5653 C   0  0  0  0  0  0  0  0  0  0  0  0
    1.3051    0.3218   -0.6382 C   0  0  0  0  0  0  0  0  0  0  0  0
    0.3976    0.7830    1.5669 C   0  0  0  0  0  0  0  0  0  0  0  0
    0.0807   -2.2961    0.7428 C   0  0  0  0  0  0  0  0  0  0  0  0
   -2.4277   -0.1303   -0.7420 C   0  0  0  0  0  0  0  0  0  0  0  0
    2.7546    1.1065    1.1316 C   0  0  0  0  0  0  0  0  0  0  0  0
   -3.4912    0.6848   -0.0121 C   0  0  0  0  0  0  0  0  0  0  0  0
    3.9608    0.6437    0.3583 C   0  0  0  0  0  0  0  0  0  0  0  0
   -5.8478    1.1010    0.2006 C   0  0  0  0  0  0  0  0  0  0  0  0
   -5.0602   -1.1090   -0.3172 C   0  0  0  0  0  0  0  0  0  0  0  0
    4.7778   -0.3428    0.8926 C   0  0  0  0  0  0  0  0  0  0  0  0
    4.2383    1.2097   -0.8782 C   0  0  0  0  0  0  0  0  0  0  0  0
   -5.6172    2.5929    0.0298 C   0  0  0  0  0  0  0  0  0  0  0  0
   -6.4152   -1.5113   -0.8742 C   0  0  0  0  0  0  0  0  0  0  0  0
    5.8951   -0.7718    0.1762 C   0  0  0  0  0  0  0  0  0  0  0  0
    5.3555    0.7805   -1.5947 C   0  0  0  0  0  0  0  0  0  0  0  0
    6.1839   -0.2102   -1.0674 C   0  0  0  0  0  0  0  0  0  0  0  0
  1  4  1  0
  1  5  1  0
  1 11  1  0
  2  8  1  0
  2  9  1  0
  2 12  1  0
  3 13  1  0
  3 15  1  0
  3 16  1  0
  4  6  1  0
  4  8  1  0
  5  7  1  0
  5  9  1  0
  6 10  1  0
  7 10  1  0
 11 13  1  0
 12 14  1  0
 14 17  2  0
 14 18  1  0
 15 19  1  0
 16 20  1  0
 17 21  1  0
 18 22  2  0
 21 23  2  0
 22 23  1  0
M  END
>  <PUBCHEM_COMPOUND_CID>  (1) 
31973

>  <PUBCHEM_CONFORMER_RMSD>  (1) 
0.8

>  <PUBCHEM_CONFORMER_DIVERSEORDER>  (1) 
1
113
60
120
134
43
96
98
33
136
72
73
40
105
13
31
18
112
57
59
20
110
94
7
135
17
3
114
78
104
42
93
8
101
106
30
41
97
126
107
131
118
56
108
15
109
128
103
27
132
130
12
89
11
111
123
23
52
133
115
76
117
4
21
129
2
75
87
5
25
22
100
26
64
124
69
19
83
116
80
65
92
121
88
84
74
34
24
79
81
6
68
51
29
102
9
14
35
85
10
77
122
16
44
32
67
90
82
48
62
63
70
127
66
95
54
99
28
37
91
49
45
36
39
58
119
47
38
55
137
61
46
50
86
53
125
71

>  <PUBCHEM_MMFF94_PARTIAL_CHARGES>  (1) 
23
1 -0.81
11 0.27
12 0.41
13 0.27
14 -0.14
15 0.27
16 0.27
17 -0.15
18 -0.15
2 -0.81
21 -0.15
22 -0.15
23 -0.15
3 -0.81
4 0.27
46 0.15
47 0.15
5 0.27
54 0.15
55 0.15
56 0.15
8 0.27
9 0.27

>  <PUBCHEM_EFFECTIVE_ROTOR_COUNT>  (1) 
8.4

>  <PUBCHEM_PHARMACOPHORE_FEATURES>  (1) 
6
1 1 cation
1 2 cation
1 3 cation
6 1 2 4 5 8 9 rings
6 1 4 5 6 7 10 rings
6 14 17 18 21 22 23 rings

>  <PUBCHEM_HEAVY_ATOM_COUNT>  (1) 
23

>  <PUBCHEM_ATOM_DEF_STEREO_COUNT>  (1) 
0

>  <PUBCHEM_ATOM_UDEF_STEREO_COUNT>  (1) 
2

>  <PUBCHEM_BOND_DEF_STEREO_COUNT>  (1) 
0

>  <PUBCHEM_BOND_UDEF_STEREO_COUNT>  (1) 
0

>  <PUBCHEM_ISOTOPIC_ATOM_COUNT>  (1) 
0

>  <PUBCHEM_COMPONENT_COUNT>  (1) 
1

>  <PUBCHEM_CACTVS_TAUTO_COUNT>  (1) 
1

>  <PUBCHEM_CONFORMER_ID>  (1) 
00007CE500000001

>  <PUBCHEM_MMFF94_ENERGY>  (1) 
53.3754

>  <PUBCHEM_FEATURE_SELFOVERLAP>  (1) 
32.046

>  <PUBCHEM_SHAPE_FINGERPRINT>  (1) 
10730089 47 18273208724802571934
11578080 2 17461708503472406133
12011746 2 15502370127762155895
12166972 35 18339926012613904953
12236239 1 18334575741682472580
12516196 113 10015862085147022255
12592029 89 18410007711347504266
12670543 26 17989209217844242100
12969540 114 15791998021879560234
13533116 47 18113897122785570674
13590594 115 13758078506708386547
13782708 43 17273971523004691367
13899415 154 13407087968093107790
14251752 14 18273215261769092012
14251764 18 18260827112152114740
14856354 85 18336550503806317647
15048467 5 12324236165701182855
15183329 4 18410012130430540564
15849732 13 14129061421726120883
16752209 62 18130511838776944128
17349148 13 16199883850751640506
17492 89 10807118984458576444
17844677 252 18201438120832927097
17980427 23 17603595127549599197
1813 80 9943807811082131610
200 152 14189580727999313448
21150785 3 18114183089754630646
21267235 1 16343715335158476076
21285901 2 18201166442945534036
21709351 56 18341885308370190901
22079108 93 14056723465445414144
23081809 10 18113896057027000113
23402539 116 18410008836581255101
23536379 177 18410011026713746260
23559900 14 15194990717974509850
23622692 88 15647058182955601558
2838139 119 17748829609224275789
3004659 81 18273216409358693020
3009799 131 15841547453276569952
347723 3 16487255469451205491
5374978 207 11527953361509113834
59755656 215 17988362568078775132
59755656 520 18260827107715209871
633830 44 18200577202858892205
8988823 20 13182731555409303482

>  <PUBCHEM_SHAPE_MULTIPOLES>  (1) 
458.39
15.88
1.89
1.4
4.16
0.15
0.16
-2.95
-4.88
2.28
0.11
-0.98
0.06
-0.74

>  <PUBCHEM_SHAPE_SELFOVERLAP>  (1) 
942.014

>  <PUBCHEM_SHAPE_VOLUME>  (1) 
261.2

>  <PUBCHEM_COORDINATE_TYPE>  (1) 
2
5
10

$$$$
