31970
     RDKit          3D

 14 16  0  0  0  0  0  0  0  0999 V2000
    0.0000   -1.4265   -0.0457 N   0  0  0  0  0  0  0  0  0  0  0  0
   -0.7081    0.6943    0.0231 C   0  0  0  0  0  0  0  0  0  0  0  0
    0.7081    0.6943    0.0227 C   0  0  0  0  0  0  0  0  0  0  0  0
   -1.1114   -0.6282   -0.0164 C   0  0  0  0  0  0  0  0  0  0  0  0
    1.1113   -0.6282   -0.0176 C   0  0  0  0  0  0  0  0  0  0  0  0
   -1.6779    1.8229    0.0828 C   0  0  0  0  0  0  0  0  0  0  0  0
    1.6778    1.8230    0.0827 C   0  0  0  0  0  0  0  0  0  0  0  0
   -2.5143   -1.1183   -0.0533 C   0  0  0  0  0  0  0  0  0  0  0  0
    2.5143   -1.1181   -0.0557 C   0  0  0  0  0  0  0  0  0  0  0  0
   -3.0943    1.3596   -0.3106 C   0  0  0  0  0  0  0  0  0  0  0  0
    3.0949    1.3599   -0.3087 C   0  0  0  0  0  0  0  0  0  0  0  0
   -3.4724    0.0190    0.3480 C   0  0  0  0  0  0  0  0  0  0  0  0
    3.4719    0.0184    0.3487 C   0  0  0  0  0  0  0  0  0  0  0  0
    0.0001   -2.8722   -0.1000 C   0  0  0  0  0  0  0  0  0  0  0  0
  1  4  1  0
  1  5  1  0
  1 14  1  0
  2  3  1  0
  2  4  2  0
  2  6  1  0
  3  5  2  0
  3  7  1  0
  4  8  1  0
  5  9  1  0
  6 10  1  0
  7 11  1  0
  8 12  1  0
  9 13  1  0
 10 12  1  0
 11 13  1  0
M  END
>  <PUBCHEM_COMPOUND_CID>  (1) 
31970

>  <PUBCHEM_CONFORMER_RMSD>  (1) 
0.6

>  <PUBCHEM_CONFORMER_DIVERSEORDER>  (1) 
1

>  <PUBCHEM_MMFF94_PARTIAL_CHARGES>  (1) 
10
1 0.05
14 0.26
2 -0.18
3 -0.18
4 -0.33
5 -0.33
6 0.18
7 0.18
8 0.18
9 0.18

>  <PUBCHEM_EFFECTIVE_ROTOR_COUNT>  (1) 
1.6

>  <PUBCHEM_PHARMACOPHORE_FEATURES>  (1) 
4
1 1 cation
5 1 2 3 4 5 rings
6 2 4 6 8 10 12 rings
6 3 5 7 9 11 13 rings

>  <PUBCHEM_HEAVY_ATOM_COUNT>  (1) 
14

>  <PUBCHEM_ATOM_DEF_STEREO_COUNT>  (1) 
0

>  <PUBCHEM_ATOM_UDEF_STEREO_COUNT>  (1) 
0

>  <PUBCHEM_BOND_DEF_STEREO_COUNT>  (1) 
0

>  <PUBCHEM_BOND_UDEF_STEREO_COUNT>  (1) 
0

>  <PUBCHEM_ISOTOPIC_ATOM_COUNT>  (1) 
0

>  <PUBCHEM_COMPONENT_COUNT>  (1) 
1

>  <PUBCHEM_CACTVS_TAUTO_COUNT>  (1) 
1

>  <PUBCHEM_CONFORMER_ID>  (1) 
00007CE200000001

>  <PUBCHEM_MMFF94_ENERGY>  (1) 
13.7478

>  <PUBCHEM_FEATURE_SELFOVERLAP>  (1) 
20.468

>  <PUBCHEM_SHAPE_FINGERPRINT>  (1) 
10608611 8 18409444773909745557
10967382 1 18410856542465201639
11132069 177 18411975849655397264
11471102 20 18339075991435753821
13140716 1 18409728417791823313
13380535 76 18409164372917159699
13897977 150 18409727318528147501
14144814 61 18410292527534172264
14325111 11 18410012139020747980
14614273 12 18261106323412295277
15196674 1 18410575088958202145
15219456 202 18336549330831664105
15309172 13 18411708694199774435
15442244 35 18266457594785419906
15536298 74 18343302552935121980
15775835 57 18411987982901208473
16945 1 18411419505303687303
17844478 74 18187374250463983185
18186145 218 18272097067080862852
193761 8 17474387972331076016
20510252 161 18272091633868352897
20645476 183 17968957412278127134
21267235 1 18410302410101004386
21501502 16 18410572920041818260
21524375 3 18411417323513152339
2334 1 18410575119033555189
23402539 116 18270388494609333284
23402655 69 18269540660382932533
23463225 33 18335417920423576632
23559900 14 18200882894027425260
25 1 18264486191859101389
2748010 2 18410014329443298717
5104073 3 18410012134720428977
528886 8 18411412899638587984
53812653 166 18342452630088337152
54173680 148 18049161360722656978
69090 78 18341608256587023239
7364860 26 18125158234271238975
81228 2 17763168542330820035
8809292 202 18260555519447064971

>  <PUBCHEM_SHAPE_MULTIPOLES>  (1) 
283.13
5.34
2.38
0.64
0
0.93
0
-1.47
0.16
0
-0.12
0
-0.03
0

>  <PUBCHEM_SHAPE_SELFOVERLAP>  (1) 
605.619

>  <PUBCHEM_SHAPE_VOLUME>  (1) 
159.2

>  <PUBCHEM_COORDINATE_TYPE>  (1) 
2
5
10

$$$$
