31989
     RDKit          3D

 13 13  0  0  0  0  0  0  0  0999 V2000
    1.2388    0.7393   -0.3355 O   0  0  0  0  0  0  0  0  0  0  0  0
   -4.1152   -0.6919    0.1263 N   0  0  0  0  0  0  0  0  0  0  0  0
    3.5911    0.3709   -0.0828 C   0  0  0  0  0  0  0  0  0  0  0  0
    4.6756   -0.6074    0.3593 C   0  0  0  0  0  0  0  0  0  0  0  0
    2.1977   -0.2112    0.1072 C   0  0  0  0  0  0  0  0  0  0  0  0
    6.0666   -0.0391    0.1278 C   0  0  0  0  0  0  0  0  0  0  0  0
   -0.0808    0.3862   -0.2207 C   0  0  0  0  0  0  0  0  0  0  0  0
   -2.7572   -0.3293    0.0089 C   0  0  0  0  0  0  0  0  0  0  0  0
   -0.4448   -0.9525   -0.3071 C   0  0  0  0  0  0  0  0  0  0  0  0
   -1.0411    1.3711   -0.0206 C   0  0  0  0  0  0  0  0  0  0  0  0
   -1.7877   -1.3115   -0.1921 C   0  0  0  0  0  0  0  0  0  0  0  0
   -2.3841    1.0121    0.0946 C   0  0  0  0  0  0  0  0  0  0  0  0
   -5.1590    0.2633    0.3348 C   0  0  0  0  0  0  0  0  0  0  0  0
  1  5  1  0
  1  7  1  0
  2  8  1  0
  2 13  1  0
  3  4  1  0
  3  5  1  0
  4  6  1  0
  7  9  2  0
  7 10  1  0
  8 11  2  0
  8 12  1  0
  9 11  1  0
 10 12  2  0
M  END
>  <PUBCHEM_COMPOUND_CID>  (1) 
31989

>  <PUBCHEM_CONFORMER_RMSD>  (1) 
0.6

>  <PUBCHEM_CONFORMER_DIVERSEORDER>  (1) 
7
13
1
41
15
46
34
24
40
8
37
3
11
28
4
36
19
10
42
26
33
23
5
17
31
25
30
43
29
18
20
27
9
16
39
2
44
32
45
21
12
14
6
35
38
22

>  <PUBCHEM_MMFF94_PARTIAL_CHARGES>  (1) 
15
1 -0.36
10 -0.15
11 -0.15
12 -0.15
13 0.37
2 -0.87
23 0.15
24 0.15
25 0.15
26 0.15
27 0.4
5 0.28
7 0.08
8 0.1
9 -0.15

>  <PUBCHEM_EFFECTIVE_ROTOR_COUNT>  (1) 
5

>  <PUBCHEM_PHARMACOPHORE_FEATURES>  (1) 
5
1 1 acceptor
1 2 cation
1 2 donor
1 6 hydrophobe
6 7 8 9 10 11 12 rings

>  <PUBCHEM_HEAVY_ATOM_COUNT>  (1) 
13

>  <PUBCHEM_ATOM_DEF_STEREO_COUNT>  (1) 
0

>  <PUBCHEM_ATOM_UDEF_STEREO_COUNT>  (1) 
0

>  <PUBCHEM_BOND_DEF_STEREO_COUNT>  (1) 
0

>  <PUBCHEM_BOND_UDEF_STEREO_COUNT>  (1) 
0

>  <PUBCHEM_ISOTOPIC_ATOM_COUNT>  (1) 
0

>  <PUBCHEM_COMPONENT_COUNT>  (1) 
1

>  <PUBCHEM_CACTVS_TAUTO_COUNT>  (1) 
1

>  <PUBCHEM_CONFORMER_ID>  (1) 
00007CF500000007

>  <PUBCHEM_MMFF94_ENERGY>  (1) 
40.788

>  <PUBCHEM_FEATURE_SELFOVERLAP>  (1) 
25.371

>  <PUBCHEM_SHAPE_FINGERPRINT>  (1) 
10968037 39 18261394468446569766
11401426 45 18273213097664386877
114248 4 12540694825533880914
12119455 92 16845572011108000093
12236239 1 17967533471758369324
12251169 10 18341894104067132180
12815109 37 18410011039841182738
13288520 33 18410012130609901708
13690532 89 18260830405648264812
13862211 1 18411980304117043711
14123238 8 18413951685478614490
15042514 8 18340207517766130623
15048467 5 12895079496625246675
17834072 33 18260269681210661004
17834076 25 10375869675829793304
18522853 276 18341895190625468176
187816 3 12035447237710970389
200 152 14851602180867706004
20279233 1 17561090211090146638
20645477 70 16630254593849668934
20767249 213 11959727179352718938
21267235 1 18335710437903759962
2297311 6 18201449056183380156
23402539 116 18131625690962904677
23559900 14 18341608278563169240
366044 4 18343864415935198647
42 15 18408323289439825038
42788 4 18411418414756378048
4463277 17 18335139799726978140

>  <PUBCHEM_SHAPE_MULTIPOLES>  (1) 
256.68
11.4
1.18
0.65
10.62
0.02
0.01
-0.78
1.71
-0.61
-0.05
0.02
-0.01
-0.17

>  <PUBCHEM_SHAPE_SELFOVERLAP>  (1) 
510.442

>  <PUBCHEM_SHAPE_VOLUME>  (1) 
153.1

>  <PUBCHEM_COORDINATE_TYPE>  (1) 
2
5
10

$$$$
