31980
     RDKit          3D

  7  6  0  0  0  0  0  0  0  0999 V2000
   -2.8070    0.8375   -0.6353 Cl  0  0  0  0  0  0  0  0  0  0  0  0
    2.3782    1.4514    0.1353 Cl  0  0  0  0  0  0  0  0  0  0  0  0
    2.0571   -1.3963   -0.4344 Cl  0  0  0  0  0  0  0  0  0  0  0  0
    0.0939    0.2820    0.2598 N   0  0  0  0  0  0  0  0  0  0  0  0
   -0.8229   -0.8559    0.1637 C   0  0  0  0  0  0  0  0  0  0  0  0
   -2.2354   -0.4106    0.4995 C   0  0  0  0  0  0  0  0  0  0  0  0
    1.3360    0.0919    0.0114 C   0  0  0  0  0  0  0  0  0  0  0  0
  1  6  1  0
  2  7  1  0
  3  7  1  0
  4  5  1  0
  4  7  2  3
  5  6  1  0
M  END
>  <PUBCHEM_COMPOUND_CID>  (1) 
31980

>  <PUBCHEM_CONFORMER_RMSD>  (1) 
0.4

>  <PUBCHEM_CONFORMER_DIVERSEORDER>  (1) 
1
6
5
9
8
7
2
4
3

>  <PUBCHEM_MMFF94_PARTIAL_CHARGES>  (1) 
7
1 -0.29
2 -0.21
3 -0.21
4 -0.7
5 0.25
6 0.29
7 0.87

>  <PUBCHEM_EFFECTIVE_ROTOR_COUNT>  (1) 
2

>  <PUBCHEM_PHARMACOPHORE_FEATURES>  (1) 
1
1 4 acceptor

>  <PUBCHEM_HEAVY_ATOM_COUNT>  (1) 
7

>  <PUBCHEM_ATOM_DEF_STEREO_COUNT>  (1) 
0

>  <PUBCHEM_ATOM_UDEF_STEREO_COUNT>  (1) 
0

>  <PUBCHEM_BOND_DEF_STEREO_COUNT>  (1) 
0

>  <PUBCHEM_BOND_UDEF_STEREO_COUNT>  (1) 
0

>  <PUBCHEM_ISOTOPIC_ATOM_COUNT>  (1) 
0

>  <PUBCHEM_COMPONENT_COUNT>  (1) 
1

>  <PUBCHEM_CACTVS_TAUTO_COUNT>  (1) 
1

>  <PUBCHEM_CONFORMER_ID>  (1) 
00007CEC00000001

>  <PUBCHEM_MMFF94_ENERGY>  (1) 
7.2316

>  <PUBCHEM_FEATURE_SELFOVERLAP>  (1) 
5.074

>  <PUBCHEM_SHAPE_FINGERPRINT>  (1) 
12932741 1 18260554411250374811
12932764 1 18187372016849004131
14325111 11 18410011039941351059
14390081 3 18334009514716464093
15310529 11 18130784590252998695
19973954 147 18408608054282668493
20651381 32 18341049623007032743
20653085 51 18338799996963978321
21040471 1 18125724740900270754
23552423 10 18410295804436119331
23552449 11 18410289181971037018
29004967 10 18410301336517254266
5460574 1 9078848363192888419

>  <PUBCHEM_SHAPE_MULTIPOLES>  (1) 
144.69
4.44
1.5
0.76
1.53
0.07
0.05
1
0.5
-0.97
0.11
0.18
0
0.57

>  <PUBCHEM_SHAPE_SELFOVERLAP>  (1) 
236.758

>  <PUBCHEM_SHAPE_VOLUME>  (1) 
99.6

>  <PUBCHEM_COORDINATE_TYPE>  (1) 
2
5
10

$$$$
