31999
     RDKit          3D

 21 23  0  0  0  0  0  0  0  0999 V2000
    5.9990    0.1772   -0.0766 O   0  0  0  0  0  0  0  0  0  0  0  0
    0.5360   -0.5297    0.5939 N   0  0  0  0  0  0  0  0  0  0  0  0
    0.1904   -0.6076   -1.7795 N   0  0  0  0  0  0  0  0  0  0  0  0
   -2.5811    0.2427   -0.0876 C   0  0  0  0  0  0  0  0  0  0  0  0
   -1.6883   -0.8351   -0.2040 C   0  0  0  0  0  0  0  0  0  0  0  0
   -3.9508   -0.0166    0.1569 C   0  0  0  0  0  0  0  0  0  0  0  0
   -2.1393   -2.1496   -0.0811 C   0  0  0  0  0  0  0  0  0  0  0  0
   -2.1447    1.5720   -0.2085 C   0  0  0  0  0  0  0  0  0  0  0  0
   -4.3872   -1.3460    0.2778 C   0  0  0  0  0  0  0  0  0  0  0  0
   -0.2618   -0.6482   -0.4556 C   0  0  0  0  0  0  0  0  0  0  0  0
   -4.8437    1.0612    0.2734 C   0  0  0  0  0  0  0  0  0  0  0  0
   -3.4862   -2.4046    0.1594 C   0  0  0  0  0  0  0  0  0  0  0  0
   -3.0457    2.6307   -0.0900 C   0  0  0  0  0  0  0  0  0  0  0  0
   -4.3925    2.3757    0.1505 C   0  0  0  0  0  0  0  0  0  0  0  0
    1.9190   -0.3507    0.4249 C   0  0  0  0  0  0  0  0  0  0  0  0
    2.4425    0.9351    0.3259 C   0  0  0  0  0  0  0  0  0  0  0  0
    2.7564   -1.4601    0.3572 C   0  0  0  0  0  0  0  0  0  0  0  0
    4.6593    0.0040    0.0893 C   0  0  0  0  0  0  0  0  0  0  0  0
    3.8158    1.1128    0.1578 C   0  0  0  0  0  0  0  0  0  0  0  0
    4.1296   -1.2824    0.1890 C   0  0  0  0  0  0  0  0  0  0  0  0
    6.4733    1.5194   -0.1731 C   0  0  0  0  0  0  0  0  0  0  0  0
  1 18  1  0
  1 21  1  0
  2 10  2  0
  2 15  1  0
  3 10  1  0
  4  5  1  0
  4  6  2  0
  4  8  1  0
  5  7  2  0
  5 10  1  0
  6  9  1  0
  6 11  1  0
  7 12  1  0
  8 13  2  0
  9 12  2  0
 11 14  2  0
 13 14  1  0
 15 16  2  0
 15 17  1  0
 16 19  1  0
 17 20  2  0
 18 19  2  0
 18 20  1  0
M  END
>  <PUBCHEM_COMPOUND_CID>  (1) 
31999

>  <PUBCHEM_CONFORMER_RMSD>  (1) 
0.6

>  <PUBCHEM_CONFORMER_DIVERSEORDER>  (1) 
2
6
3
5
4
1

>  <PUBCHEM_MMFF94_PARTIAL_CHARGES>  (1) 
32
1 -0.36
10 0.41
11 -0.15
12 -0.15
13 -0.15
14 -0.15
15 0.18
16 -0.15
17 -0.15
18 0.08
19 -0.15
2 -0.63
20 -0.15
21 0.28
22 0.15
23 0.15
24 0.15
25 0.15
26 0.15
27 0.15
28 0.15
29 0.15
3 -0.85
30 0.15
31 0.4
32 0.4
33 0.15
34 0.15
5 0.09
7 -0.15
8 -0.15
9 -0.15

>  <PUBCHEM_EFFECTIVE_ROTOR_COUNT>  (1) 
3

>  <PUBCHEM_PHARMACOPHORE_FEATURES>  (1) 
6
1 1 acceptor
1 3 donor
3 2 3 10 cation
6 15 16 17 18 19 20 rings
6 4 5 6 7 9 12 rings
6 4 6 8 11 13 14 rings

>  <PUBCHEM_HEAVY_ATOM_COUNT>  (1) 
21

>  <PUBCHEM_ATOM_DEF_STEREO_COUNT>  (1) 
0

>  <PUBCHEM_ATOM_UDEF_STEREO_COUNT>  (1) 
0

>  <PUBCHEM_BOND_DEF_STEREO_COUNT>  (1) 
0

>  <PUBCHEM_BOND_UDEF_STEREO_COUNT>  (1) 
0

>  <PUBCHEM_ISOTOPIC_ATOM_COUNT>  (1) 
0

>  <PUBCHEM_COMPONENT_COUNT>  (1) 
1

>  <PUBCHEM_CACTVS_TAUTO_COUNT>  (1) 
2

>  <PUBCHEM_CONFORMER_ID>  (1) 
00007CFF00000002

>  <PUBCHEM_MMFF94_ENERGY>  (1) 
84.2825

>  <PUBCHEM_FEATURE_SELFOVERLAP>  (1) 
30.472

>  <PUBCHEM_SHAPE_FINGERPRINT>  (1) 
10366900 7 18340475768300848419
10411042 1 17978229693153068907
10595046 47 18335138739281415250
10616163 171 18411136952506872403
10730089 173 18411984663440277264
10912923 1 17895185619757215362
11315181 36 17968095373571056262
11405975 8 18336259042598185562
12107183 9 17831010235225881834
12236239 1 17894347778452798074
12390115 104 18128549180304008161
12403259 415 17845929727762686712
12596602 18 17530684294781432481
12633257 1 18190730938798564154
13073987 5 18334573551671236066
13167823 11 18334855009056802634
13583140 156 18060414741968364350
13897977 58 18408604764379651405
14341114 176 18409173177415389744
14341114 328 18187079542566387752
14420673 8 18047753702577497386
15196674 1 18410292484768998640
17349148 13 13326850033045187470
17844677 252 18411144670800070944
17980427 23 18408889538297603621
1813 80 16588030073987361478
18915476 22 16916235364346492351
20645477 56 18411419488456069057
20645477 70 16845018905525888654
21033648 29 17631998824014223088
21065198 48 18333725806283030178
21065198 57 18411417302149183154
21236236 1 18341892996392863623
21267235 1 18336552728282911027
2297311 6 18341058500773180735
23402539 116 18341887524689223759
23402655 69 18411135831915520914
23557571 272 18343309183789672613
23559900 14 18340197583068522481
245318 6 16737221926677711340
3004659 81 18337957784464470502
34797466 226 17988654033787700260
350125 39 18411420643660035321
3545911 37 18412545401052680248
4073 2 18113624517016826226
4214541 1 18410573972319329376
445580 37 18337685182589351036
474 4 17603872242860385564
5104073 3 18335133177172056810
6327066 14 18190736437116696229
77779 3 18410011035483139378
7808743 9 18410008793478848337
9709674 26 18341897355310604191

>  <PUBCHEM_SHAPE_MULTIPOLES>  (1) 
416.34
13.26
2.5
0.79
15.24
0.42
-0.19
4.42
0.83
-2.86
0.06
0.02
-0.09
-0.13

>  <PUBCHEM_SHAPE_SELFOVERLAP>  (1) 
915.849

>  <PUBCHEM_SHAPE_VOLUME>  (1) 
225

>  <PUBCHEM_COORDINATE_TYPE>  (1) 
2
5
10

$$$$
