31997
     RDKit          3D

 17 18  0  0  0  0  0  0  0  0999 V2000
   -4.2099   -2.1594    0.8266 Cl  0  0  0  0  0  0  0  0  0  0  0  0
    0.2286    0.3452    0.5031 N   0  0  0  0  0  0  0  0  0  0  0  0
    0.6325   -0.5270   -1.6960 N   0  0  0  0  0  0  0  0  0  0  0  0
    5.1846   -0.0116    0.3960 N   0  0  0  0  0  0  0  0  0  0  0  0
   -3.9111    0.3738   -0.1306 C   0  0  0  0  0  0  0  0  0  0  0  0
   -1.1536    0.3542    0.2907 C   0  0  0  0  0  0  0  0  0  0  0  0
   -3.2961   -0.7559    0.4090 C   0  0  0  0  0  0  0  0  0  0  0  0
   -3.1476    1.4937   -0.4594 C   0  0  0  0  0  0  0  0  0  0  0  0
   -1.9174   -0.7657    0.6195 C   0  0  0  0  0  0  0  0  0  0  0  0
   -1.7686    1.4840   -0.2488 C   0  0  0  0  0  0  0  0  0  0  0  0
    2.4907   -0.0521   -0.1515 C   0  0  0  0  0  0  0  0  0  0  0  0
    1.0212   -0.0742   -0.4504 C   0  0  0  0  0  0  0  0  0  0  0  0
   -5.3853    0.4241   -0.3730 C   0  0  0  0  0  0  0  0  0  0  0  0
    2.9667    0.8971    0.7109 C   0  0  0  0  0  0  0  0  0  0  0  0
    3.2927   -0.9823   -0.7543 C   0  0  0  0  0  0  0  0  0  0  0  0
    4.3305    0.8755    0.9540 C   0  0  0  0  0  0  0  0  0  0  0  0
    4.6420   -0.9195   -0.4458 C   0  0  0  0  0  0  0  0  0  0  0  0
  1  7  1  0
  2  6  1  0
  2 12  2  0
  3 12  1  0
  4 16  2  0
  4 17  1  0
  5  7  2  0
  5  8  1  0
  5 13  1  0
  6  9  2  0
  6 10  1  0
  7  9  1  0
  8 10  2  0
 11 12  1  0
 11 14  2  0
 11 15  1  0
 14 16  1  0
 15 17  2  0
M  END
>  <PUBCHEM_COMPOUND_CID>  (1) 
31997

>  <PUBCHEM_CONFORMER_RMSD>  (1) 
0.6

>  <PUBCHEM_CONFORMER_DIVERSEORDER>  (1) 
1
2

>  <PUBCHEM_MMFF94_PARTIAL_CHARGES>  (1) 
26
1 -0.18
10 -0.15
11 0.09
12 0.41
13 0.14
14 -0.15
15 -0.15
16 0.16
17 0.16
18 0.15
19 0.15
2 -0.63
20 0.15
24 0.15
25 0.15
26 0.15
27 0.15
28 0.4
29 0.4
3 -0.85
4 -0.62
5 -0.14
6 0.18
7 0.18
8 -0.15
9 -0.15

>  <PUBCHEM_EFFECTIVE_ROTOR_COUNT>  (1) 
2

>  <PUBCHEM_PHARMACOPHORE_FEATURES>  (1) 
5
1 3 donor
1 4 acceptor
3 2 3 12 cation
6 4 11 14 15 16 17 rings
6 5 6 7 8 9 10 rings

>  <PUBCHEM_HEAVY_ATOM_COUNT>  (1) 
17

>  <PUBCHEM_ATOM_DEF_STEREO_COUNT>  (1) 
0

>  <PUBCHEM_ATOM_UDEF_STEREO_COUNT>  (1) 
0

>  <PUBCHEM_BOND_DEF_STEREO_COUNT>  (1) 
0

>  <PUBCHEM_BOND_UDEF_STEREO_COUNT>  (1) 
0

>  <PUBCHEM_ISOTOPIC_ATOM_COUNT>  (1) 
0

>  <PUBCHEM_COMPONENT_COUNT>  (1) 
1

>  <PUBCHEM_CACTVS_TAUTO_COUNT>  (1) 
2

>  <PUBCHEM_CONFORMER_ID>  (1) 
00007CFD00000001

>  <PUBCHEM_MMFF94_ENERGY>  (1) 
55.4411

>  <PUBCHEM_FEATURE_SELFOVERLAP>  (1) 
25.371

>  <PUBCHEM_SHAPE_FINGERPRINT>  (1) 
10 15 18271792576371465280
11315181 36 18186806876689056576
11615757 297 16702301256457226160
12236239 1 16588024602098623545
12390115 104 9438862598675947587
12507560 40 18343017792271694988
13167823 11 18186516596892375834
13533116 47 18262794047569446323
13583140 156 18343297072092901638
13675066 3 18342457062547262478
13760787 5 16487257668659012480
14386348 63 18342741814547005731
15375358 24 18272371958162768207
15961568 22 17895194480365425172
17349148 13 16877947152262299243
17834072 33 17822018639861471100
19026448 4 18412826880435023992
19141452 34 18272375317260112995
19489759 90 18187079546771631969
1986462 14 18260832583302152877
200 152 17203323395256282897
20279233 1 18342462529803259943
204376 136 17132113558821576038
20645477 56 18261393287594742693
20645477 70 17703228408545215358
21033648 29 17917414415765179464
21065201 7 18259982643839728458
21079973 296 18410576205913371787
21682296 61 17058382384081176854
21728266 224 17968084356974927643
22646028 1 16950281827546408434
22854114 59 17918275359276207016
23402539 116 18259980492251108127
23557571 272 18339645538274708949
23559900 14 18408604747379097818
26918003 58 18272088292341234602
300161 21 16515683359967566316
3268164 11 17822282483802201005
351380 180 18341890788014925356
3545911 37 18261393317216012259
4214541 1 18408323263453918905
474 4 14907030821430134202
5104073 3 18272370832728441098
573450 72 17748817501689973120
67856867 119 17750524055695991068
69090 78 18201996633684016527
77779 3 18410013230279849992
9709674 26 18270124504587357599

>  <PUBCHEM_SHAPE_MULTIPOLES>  (1) 
336.78
11.62
1.51
1.01
2.78
0.33
0.15
1.31
-0.84
-1.54
-0.15
0.43
0.1
1.37

>  <PUBCHEM_SHAPE_SELFOVERLAP>  (1) 
715.578

>  <PUBCHEM_SHAPE_VOLUME>  (1) 
186.8

>  <PUBCHEM_COORDINATE_TYPE>  (1) 
2
5
10

$$$$
