32009
     RDKit          3D

 19 21  0  0  0  0  0  0  0  0999 V2000
    0.4006   -0.4557    0.6253 N   0  0  0  0  0  0  0  0  0  0  0  0
    0.8360   -0.7145   -1.7205 N   0  0  0  0  0  0  0  0  0  0  0  0
    5.2490    0.5746    0.3358 N   0  0  0  0  0  0  0  0  0  0  0  0
   -1.9169    0.2065    0.1818 C   0  0  0  0  0  0  0  0  0  0  0  0
   -3.2693   -0.1745    0.0125 C   0  0  0  0  0  0  0  0  0  0  0  0
   -0.9536   -0.7798    0.4490 C   0  0  0  0  0  0  0  0  0  0  0  0
   -1.5675    1.5629    0.0783 C   0  0  0  0  0  0  0  0  0  0  0  0
   -3.6185   -1.5309    0.1157 C   0  0  0  0  0  0  0  0  0  0  0  0
   -1.3183   -2.1228    0.5484 C   0  0  0  0  0  0  0  0  0  0  0  0
   -4.2326    0.8119   -0.2547 C   0  0  0  0  0  0  0  0  0  0  0  0
   -2.6482   -2.4975    0.3820 C   0  0  0  0  0  0  0  0  0  0  0  0
   -2.5377    2.5296   -0.1876 C   0  0  0  0  0  0  0  0  0  0  0  0
   -3.8675    2.1549   -0.3536 C   0  0  0  0  0  0  0  0  0  0  0  0
    1.1915   -0.4398   -0.4143 C   0  0  0  0  0  0  0  0  0  0  0  0
    2.6237   -0.0819   -0.1495 C   0  0  0  0  0  0  0  0  0  0  0  0
    2.9033    0.7622    0.8901 C   0  0  0  0  0  0  0  0  0  0  0  0
    3.5893   -0.6145   -0.9589 C   0  0  0  0  0  0  0  0  0  0  0  0
    4.2407    1.0620    1.0933 C   0  0  0  0  0  0  0  0  0  0  0  0
    4.8960   -0.2530   -0.6732 C   0  0  0  0  0  0  0  0  0  0  0  0
  1  6  1  0
  1 14  2  0
  2 14  1  0
  3 18  2  0
  3 19  1  0
  4  5  1  0
  4  6  1  0
  4  7  2  0
  5  8  1  0
  5 10  2  0
  6  9  2  0
  7 12  1  0
  8 11  2  0
  9 11  1  0
 10 13  1  0
 12 13  2  0
 14 15  1  0
 15 16  2  0
 15 17  1  0
 16 18  1  0
 17 19  2  0
M  END
>  <PUBCHEM_COMPOUND_CID>  (1) 
32009

>  <PUBCHEM_CONFORMER_RMSD>  (1) 
0.6

>  <PUBCHEM_CONFORMER_DIVERSEORDER>  (1) 
1
2

>  <PUBCHEM_MMFF94_PARTIAL_CHARGES>  (1) 
30
1 -0.63
10 -0.15
11 -0.15
12 -0.15
13 -0.15
14 0.41
15 0.09
16 -0.15
17 -0.15
18 0.16
19 0.16
2 -0.85
20 0.15
21 0.15
22 0.15
23 0.15
24 0.15
25 0.15
26 0.15
27 0.15
28 0.15
29 0.4
3 -0.62
30 0.4
31 0.15
32 0.15
6 0.18
7 -0.15
8 -0.15
9 -0.15

>  <PUBCHEM_EFFECTIVE_ROTOR_COUNT>  (1) 
2

>  <PUBCHEM_PHARMACOPHORE_FEATURES>  (1) 
6
1 2 donor
1 3 acceptor
3 1 2 14 cation
6 3 15 16 17 18 19 rings
6 4 5 6 8 9 11 rings
6 4 5 7 10 12 13 rings

>  <PUBCHEM_HEAVY_ATOM_COUNT>  (1) 
19

>  <PUBCHEM_ATOM_DEF_STEREO_COUNT>  (1) 
0

>  <PUBCHEM_ATOM_UDEF_STEREO_COUNT>  (1) 
0

>  <PUBCHEM_BOND_DEF_STEREO_COUNT>  (1) 
0

>  <PUBCHEM_BOND_UDEF_STEREO_COUNT>  (1) 
0

>  <PUBCHEM_ISOTOPIC_ATOM_COUNT>  (1) 
0

>  <PUBCHEM_COMPONENT_COUNT>  (1) 
1

>  <PUBCHEM_CACTVS_TAUTO_COUNT>  (1) 
2

>  <PUBCHEM_CONFORMER_ID>  (1) 
00007D0900000001

>  <PUBCHEM_MMFF94_ENERGY>  (1) 
67.1788

>  <PUBCHEM_FEATURE_SELFOVERLAP>  (1) 
30.472

>  <PUBCHEM_SHAPE_FINGERPRINT>  (1) 
10319926 262 18339061762720637002
10411042 1 17975980092188507691
10493431 412 18267874891692923249
10498660 4 18336260150388615121
10608611 8 18342455950082174104
10646746 165 18410573977020465448
11315181 36 17821728386113921354
11595378 159 17748818592669915784
12107183 9 17828190005460047466
12173636 292 18336541604311963093
12236239 1 17240199945367176954
12390115 104 18198353857905520577
12403259 415 18131634512857444072
12403814 3 17845935242384805807
12500047 106 18409449172146004830
12507560 40 18271805761488286672
12596602 18 16733273429607426696
12670546 56 18334284366922221794
12788726 201 17026868439145404042
13140716 1 18119258496027342411
13296909 8 18334857246597178487
13403585 85 18338229474977933152
13583140 156 18130787871734944734
13911987 19 16916787435348251080
14573314 32 18411423891061428270
15042514 8 18190469444680082323
15961568 22 18118117211564593404
1813 80 16009030515397826358
18186145 218 18202289065164224530
18915476 22 17274271547290837487
19489759 90 18408881849894517354
200 152 16272209669459913435
20510252 161 18412546509507547435
20645477 56 18409735032389527425
20645477 70 17203616947923818558
20681677 76 18201715206268320800
21033648 29 17846205683817282808
21065198 57 18411699898539418090
21065201 7 18408886248241949402
2297311 6 18338248157579274822
23227448 37 18410008874982987213
23402539 116 18410568509463963383
23557571 272 18341339962986185391
23559900 14 18341334405789270678
23845131 108 17906471926613403617
3268164 11 18408595981139779119
341906 21 18334851727960049816
351380 180 18343015593042704612
3545911 37 18411704257546049684
4028521 119 18341328903403453453
4214541 1 18409730651565044560
469060 322 18043273356366265377
5104073 3 18409167671299206058
573450 72 18114452418785484890
9709674 26 18342463625141655702
9862522 239 17096916984978784181
9981440 41 18333731291125365059

>  <PUBCHEM_SHAPE_MULTIPOLES>  (1) 
376.07
10.01
2.3
0.99
9.38
0.06
-0.15
2.49
-0.14
-3.31
0.18
0.78
-0.06
1.12

>  <PUBCHEM_SHAPE_SELFOVERLAP>  (1) 
835.525

>  <PUBCHEM_SHAPE_VOLUME>  (1) 
196.7

>  <PUBCHEM_COORDINATE_TYPE>  (1) 
2
5
10

$$$$
