32001
     RDKit          3D

 23 25  0  0  0  0  0  0  0  0999 V2000
    2.7011    2.3465    0.5276 O   0  0  0  0  0  0  0  0  0  0  0  0
    1.6156   -2.3148    0.2179 O   0  0  0  0  0  0  0  0  0  0  0  0
    0.7724    0.3249    0.5795 N   0  0  0  0  0  0  0  0  0  0  0  0
    0.4061    0.5653   -1.7799 N   0  0  0  0  0  0  0  0  0  0  0  0
   -2.4109   -0.1135   -0.0938 C   0  0  0  0  0  0  0  0  0  0  0  0
   -1.4225    0.8819   -0.1616 C   0  0  0  0  0  0  0  0  0  0  0  0
   -3.7478    0.2566    0.1870 C   0  0  0  0  0  0  0  0  0  0  0  0
   -1.7473    2.2230    0.0440 C   0  0  0  0  0  0  0  0  0  0  0  0
   -0.0232    0.5783   -0.4476 C   0  0  0  0  0  0  0  0  0  0  0  0
   -2.1018   -1.4681   -0.2979 C   0  0  0  0  0  0  0  0  0  0  0  0
   -4.0567    1.6113    0.3915 C   0  0  0  0  0  0  0  0  0  0  0  0
   -4.7363   -0.7388    0.2547 C   0  0  0  0  0  0  0  0  0  0  0  0
   -3.0620    2.5869    0.3200 C   0  0  0  0  0  0  0  0  0  0  0  0
    2.1291    0.0225    0.3766 C   0  0  0  0  0  0  0  0  0  0  0  0
   -3.0965   -2.4439   -0.2270 C   0  0  0  0  0  0  0  0  0  0  0  0
   -4.4111   -2.0799    0.0486 C   0  0  0  0  0  0  0  0  0  0  0  0
    3.0733    1.0470    0.3541 C   0  0  0  0  0  0  0  0  0  0  0  0
    2.5265   -1.3012    0.1987 C   0  0  0  0  0  0  0  0  0  0  0  0
    4.4204    0.7467    0.1528 C   0  0  0  0  0  0  0  0  0  0  0  0
    3.8737   -1.6014   -0.0027 C   0  0  0  0  0  0  0  0  0  0  0  0
    4.8207   -0.5775   -0.0255 C   0  0  0  0  0  0  0  0  0  0  0  0
    2.3629    3.0853   -0.6442 C   0  0  0  0  0  0  0  0  0  0  0  0
    2.1141   -3.6372    0.0271 C   0  0  0  0  0  0  0  0  0  0  0  0
  1 17  1  0
  1 22  1  0
  2 18  1  0
  2 23  1  0
  3  9  2  0
  3 14  1  0
  4  9  1  0
  5  6  1  0
  5  7  2  0
  5 10  1  0
  6  8  2  0
  6  9  1  0
  7 11  1  0
  7 12  1  0
  8 13  1  0
 10 15  2  0
 11 13  2  0
 12 16  2  0
 14 17  2  0
 14 18  1  0
 15 16  1  0
 17 19  1  0
 18 20  2  0
 19 21  2  0
 20 21  1  0
M  END
>  <PUBCHEM_COMPOUND_CID>  (1) 
32001

>  <PUBCHEM_CONFORMER_RMSD>  (1) 
0.6

>  <PUBCHEM_CONFORMER_DIVERSEORDER>  (1) 
4
5
10
1
6
11
3
7
8
2
9

>  <PUBCHEM_MMFF94_PARTIAL_CHARGES>  (1) 
33
1 -0.36
10 -0.15
11 -0.15
12 -0.15
13 -0.15
14 0.18
15 -0.15
16 -0.15
17 0.08
18 0.08
19 -0.15
2 -0.36
20 -0.15
21 -0.15
22 0.28
23 0.28
24 0.15
25 0.15
26 0.15
27 0.15
28 0.15
29 0.15
3 -0.63
30 0.15
31 0.15
32 0.15
33 0.15
34 0.4
35 0.4
4 -0.85
6 0.09
8 -0.15
9 0.41

>  <PUBCHEM_EFFECTIVE_ROTOR_COUNT>  (1) 
4

>  <PUBCHEM_PHARMACOPHORE_FEATURES>  (1) 
7
1 1 acceptor
1 2 acceptor
1 4 donor
3 3 4 9 cation
6 14 17 18 19 20 21 rings
6 5 6 7 8 11 13 rings
6 5 7 10 12 15 16 rings

>  <PUBCHEM_HEAVY_ATOM_COUNT>  (1) 
23

>  <PUBCHEM_ATOM_DEF_STEREO_COUNT>  (1) 
0

>  <PUBCHEM_ATOM_UDEF_STEREO_COUNT>  (1) 
0

>  <PUBCHEM_BOND_DEF_STEREO_COUNT>  (1) 
0

>  <PUBCHEM_BOND_UDEF_STEREO_COUNT>  (1) 
0

>  <PUBCHEM_ISOTOPIC_ATOM_COUNT>  (1) 
0

>  <PUBCHEM_COMPONENT_COUNT>  (1) 
1

>  <PUBCHEM_CACTVS_TAUTO_COUNT>  (1) 
2

>  <PUBCHEM_CONFORMER_ID>  (1) 
00007D0100000004

>  <PUBCHEM_MMFF94_ENERGY>  (1) 
102.001

>  <PUBCHEM_FEATURE_SELFOVERLAP>  (1) 
35.548

>  <PUBCHEM_SHAPE_FINGERPRINT>  (1) 
10616163 171 18412545418354212911
11552529 35 18131066052508396107
11578080 2 17749933536321350669
12107183 9 17764029064866676843
12553582 1 18121488069174592158
12633257 1 18192423083025279682
13140716 1 17908713074765256067
13167823 11 18411136952284754651
13533116 47 18342168926508863911
13583140 156 17988911276031633425
14178342 30 18338781335214929136
14223421 5 18410289207513909389
14289901 80 18411138073487828393
14341114 176 18341337729492668576
14420673 8 18124319307247775854
14790565 3 18337115678574228380
14866123 147 16397187539911469162
15196674 1 18411136913809799874
17349148 13 17749108936743250697
17492 89 18410575097733324795
1813 80 17240770557547510085
18681886 176 18339076099195110280
19591789 44 18268428112621681074
21033648 29 18119794834005876897
21065198 57 18339923714573922849
21267235 1 18410300241501274547
21673915 165 18410291427959357786
221490 88 18410016558948102322
23559900 14 18411410713621923921
2871803 45 18408597084772787615
350125 39 18338797931116506792
3633792 109 18337379432700297453
4214541 1 18411981338797772273
4280585 95 17694511338927843838
463206 1 17977943806970736231
5104073 3 18341327821161106736
5312544 6 18046067330807446028
5486654 2 17977950416402470300
6287921 2 18335145348919618524
6823239 73 18057896740593701294
7097593 13 18338797797428909321
77779 3 18412263921823265280
9709674 26 18410579465736027403

>  <PUBCHEM_SHAPE_MULTIPOLES>  (1) 
451.63
9.83
3.59
0.8
0.41
0.68
-0.19
1.59
1.01
-0.32
-0.06
-0.08
-0.16
-0.4

>  <PUBCHEM_SHAPE_SELFOVERLAP>  (1) 
989.62

>  <PUBCHEM_SHAPE_VOLUME>  (1) 
244.9

>  <PUBCHEM_COORDINATE_TYPE>  (1) 
2
5
10

$$$$
