32000
     RDKit          3D

 21 23  0  0  0  0  0  0  0  0999 V2000
    4.5560    2.6135   -0.0171 Cl  0  0  0  0  0  0  0  0  0  0  0  0
    0.6225   -0.5872    0.5851 N   0  0  0  0  0  0  0  0  0  0  0  0
    0.2639   -0.6840   -1.7857 N   0  0  0  0  0  0  0  0  0  0  0  0
   -2.4887    0.2129   -0.0867 C   0  0  0  0  0  0  0  0  0  0  0  0
   -1.6090   -0.8761   -0.1987 C   0  0  0  0  0  0  0  0  0  0  0  0
   -3.8598   -0.0283    0.1681 C   0  0  0  0  0  0  0  0  0  0  0  0
   -2.0741   -2.1842   -0.0608 C   0  0  0  0  0  0  0  0  0  0  0  0
   -2.0379    1.5360   -0.2228 C   0  0  0  0  0  0  0  0  0  0  0  0
   -4.3105   -1.3514    0.3038 C   0  0  0  0  0  0  0  0  0  0  0  0
   -0.1821   -0.7071   -0.4591 C   0  0  0  0  0  0  0  0  0  0  0  0
   -4.7394    1.0608    0.2801 C   0  0  0  0  0  0  0  0  0  0  0  0
   -3.4223   -2.4213    0.1899 C   0  0  0  0  0  0  0  0  0  0  0  0
   -2.9258    2.6060   -0.1085 C   0  0  0  0  0  0  0  0  0  0  0  0
   -4.2739    2.3688    0.1425 C   0  0  0  0  0  0  0  0  0  0  0  0
    2.0064   -0.4247    0.4075 C   0  0  0  0  0  0  0  0  0  0  0  0
    4.7492   -0.1032    0.0584 C   0  0  0  0  0  0  0  0  0  0  0  0
    2.5437    0.8543    0.2950 C   0  0  0  0  0  0  0  0  0  0  0  0
    2.8314   -1.5440    0.3465 C   0  0  0  0  0  0  0  0  0  0  0  0
    3.9181    1.0154    0.1203 C   0  0  0  0  0  0  0  0  0  0  0  0
    4.2058   -1.3828    0.1716 C   0  0  0  0  0  0  0  0  0  0  0  0
    6.2264    0.0264   -0.1294 C   0  0  0  0  0  0  0  0  0  0  0  0
  1 19  1  0
  2 10  2  0
  2 15  1  0
  3 10  1  0
  4  5  1  0
  4  6  2  0
  4  8  1  0
  5  7  2  0
  5 10  1  0
  6  9  1  0
  6 11  1  0
  7 12  1  0
  8 13  2  0
  9 12  2  0
 11 14  2  0
 13 14  1  0
 15 17  2  0
 15 18  1  0
 16 19  2  0
 16 20  1  0
 16 21  1  0
 17 19  1  0
 18 20  2  0
M  END
>  <PUBCHEM_COMPOUND_CID>  (1) 
32000

>  <PUBCHEM_CONFORMER_RMSD>  (1) 
0.6

>  <PUBCHEM_CONFORMER_DIVERSEORDER>  (1) 
1
5
11
9
2
8
10
7
3
12
6
4

>  <PUBCHEM_MMFF94_PARTIAL_CHARGES>  (1) 
31
1 -0.18
10 0.41
11 -0.15
12 -0.15
13 -0.15
14 -0.15
15 0.18
16 -0.14
17 -0.15
18 -0.15
19 0.18
2 -0.63
20 -0.15
21 0.14
22 0.15
23 0.15
24 0.15
25 0.15
26 0.15
27 0.15
28 0.15
29 0.15
3 -0.85
30 0.15
31 0.15
32 0.4
33 0.4
5 0.09
7 -0.15
8 -0.15
9 -0.15

>  <PUBCHEM_EFFECTIVE_ROTOR_COUNT>  (1) 
2

>  <PUBCHEM_PHARMACOPHORE_FEATURES>  (1) 
5
1 3 donor
3 2 3 10 cation
6 15 16 17 18 19 20 rings
6 4 5 6 7 9 12 rings
6 4 6 8 11 13 14 rings

>  <PUBCHEM_HEAVY_ATOM_COUNT>  (1) 
21

>  <PUBCHEM_ATOM_DEF_STEREO_COUNT>  (1) 
0

>  <PUBCHEM_ATOM_UDEF_STEREO_COUNT>  (1) 
0

>  <PUBCHEM_BOND_DEF_STEREO_COUNT>  (1) 
0

>  <PUBCHEM_BOND_UDEF_STEREO_COUNT>  (1) 
0

>  <PUBCHEM_ISOTOPIC_ATOM_COUNT>  (1) 
0

>  <PUBCHEM_COMPONENT_COUNT>  (1) 
1

>  <PUBCHEM_CACTVS_TAUTO_COUNT>  (1) 
2

>  <PUBCHEM_CONFORMER_ID>  (1) 
00007D0000000001

>  <PUBCHEM_MMFF94_ENERGY>  (1) 
74.7983

>  <PUBCHEM_FEATURE_SELFOVERLAP>  (1) 
25.398

>  <PUBCHEM_SHAPE_FINGERPRINT>  (1) 
10319926 262 18339911659159905762
10411042 1 18050287270063862195
10595046 47 18335983177043675570
10616163 171 18411136948069473795
11315181 36 18040715900419518078
11370993 144 18262799562259669599
11405975 8 18336260172211345282
11595378 159 17240752944103335224
12107183 9 17903349308540794946
12173636 292 18410848880354705439
12236239 1 17676488337223444043
12390115 104 18128550266951846049
12403259 118 18341601642722333984
12403259 415 17989201581909166568
12633257 1 18190450580681993074
12670546 56 18408598179946990230
13167823 11 18408038520234163834
13583140 156 17989198270125715282
14289901 80 18335699476846722490
14341114 176 18409173173167856248
14420673 8 18119811301015868130
15196674 1 18410574015464564384
15239154 128 18409448098440824744
15788980 27 17632576054755021510
17349148 13 12823288005543799830
17844677 252 18410581716483000128
17980427 23 18409733967628230405
1813 80 16515973575197781502
18915476 22 16988011479123350303
20645477 56 18409169870480423917
21033648 29 17631997711665088258
21065198 48 18261106357466182370
21065198 57 18410855438933309442
21236236 1 18342174471464571767
21267235 1 18337116751529769899
21652331 79 18410291457950230352
21709351 56 18411414029895456102
23227448 37 18410854360796174653
23402539 116 18341606041064562743
23557571 272 18343027704518014199
23559900 14 18199752432031825630
245318 6 16665724005454095004
3545911 37 18411700967574779216
4073 2 18113624517000995474
4214541 1 18410573972435380400
474 4 17603872260129997076
5104073 3 18335135397490735810
54446538 1 18410290337359320492
77779 3 18410292523360569674
90127 26 18337120033243311514
9709674 26 18341335504684194311

>  <PUBCHEM_SHAPE_MULTIPOLES>  (1) 
424.08
12.63
2.74
0.79
9.89
0.96
-0.19
3.09
0.98
-1.89
0.07
0.03
-0.1
-0.04

>  <PUBCHEM_SHAPE_SELFOVERLAP>  (1) 
925.119

>  <PUBCHEM_SHAPE_VOLUME>  (1) 
230.2

>  <PUBCHEM_COORDINATE_TYPE>  (1) 
2
5
10

$$$$
