32006
     RDKit          3D

 19 20  0  0  0  0  0  0  0  0999 V2000
   -5.2057   -0.6293   -0.0780 F   0  0  0  0  0  0  0  0  0  0  0  0
   -3.6971   -2.0746   -0.6605 F   0  0  0  0  0  0  0  0  0  0  0  0
   -3.9774   -1.5860    1.4400 F   0  0  0  0  0  0  0  0  0  0  0  0
    0.7180    0.5518    0.4926 N   0  0  0  0  0  0  0  0  0  0  0  0
    1.1165    0.0186   -1.8131 N   0  0  0  0  0  0  0  0  0  0  0  0
    5.5600   -0.5681    0.4838 N   0  0  0  0  0  0  0  0  0  0  0  0
   -2.9210    0.0604    0.0882 C   0  0  0  0  0  0  0  0  0  0  0  0
   -0.6319    0.8177    0.2407 C   0  0  0  0  0  0  0  0  0  0  0  0
   -1.5747   -0.2056    0.3382 C   0  0  0  0  0  0  0  0  0  0  0  0
   -3.3246    1.3496   -0.2592 C   0  0  0  0  0  0  0  0  0  0  0  0
   -1.0354    2.1069   -0.1065 C   0  0  0  0  0  0  0  0  0  0  0  0
    2.9289   -0.0825   -0.1493 C   0  0  0  0  0  0  0  0  0  0  0  0
    1.4937    0.1820   -0.4945 C   0  0  0  0  0  0  0  0  0  0  0  0
   -2.3816    2.3729   -0.3565 C   0  0  0  0  0  0  0  0  0  0  0  0
   -3.9293   -1.0336    0.1928 C   0  0  0  0  0  0  0  0  0  0  0  0
    3.4904    0.6155    0.8845 C   0  0  0  0  0  0  0  0  0  0  0  0
    3.6155   -1.0111   -0.8827 C   0  0  0  0  0  0  0  0  0  0  0  0
    4.8182    0.3346    1.1639 C   0  0  0  0  0  0  0  0  0  0  0  0
    4.9377   -1.2192   -0.5243 C   0  0  0  0  0  0  0  0  0  0  0  0
  1 15  1  0
  2 15  1  0
  3 15  1  0
  4  8  1  0
  4 13  2  0
  5 13  1  0
  6 18  2  0
  6 19  1  0
  7  9  2  0
  7 10  1  0
  7 15  1  0
  8  9  1  0
  8 11  2  0
 10 14  2  0
 11 14  1  0
 12 13  1  0
 12 16  2  0
 12 17  1  0
 16 18  1  0
 17 19  2  0
M  END
>  <PUBCHEM_COMPOUND_CID>  (1) 
32006

>  <PUBCHEM_CONFORMER_RMSD>  (1) 
0.6

>  <PUBCHEM_CONFORMER_DIVERSEORDER>  (1) 
1
2

>  <PUBCHEM_MMFF94_PARTIAL_CHARGES>  (1) 
29
1 -0.34
10 -0.15
11 -0.15
12 0.09
13 0.41
14 -0.15
15 1.16
16 -0.15
17 -0.15
18 0.16
19 0.16
2 -0.34
20 0.15
21 0.15
22 0.15
23 0.15
24 0.15
25 0.15
26 0.15
27 0.15
28 0.4
29 0.4
3 -0.34
4 -0.63
5 -0.85
6 -0.62
7 -0.14
8 0.18
9 -0.15

>  <PUBCHEM_EFFECTIVE_ROTOR_COUNT>  (1) 
3

>  <PUBCHEM_PHARMACOPHORE_FEATURES>  (1) 
5
1 5 donor
1 6 acceptor
3 4 5 13 cation
6 6 12 16 17 18 19 rings
6 7 8 9 10 11 14 rings

>  <PUBCHEM_HEAVY_ATOM_COUNT>  (1) 
19

>  <PUBCHEM_ATOM_DEF_STEREO_COUNT>  (1) 
0

>  <PUBCHEM_ATOM_UDEF_STEREO_COUNT>  (1) 
0

>  <PUBCHEM_BOND_DEF_STEREO_COUNT>  (1) 
0

>  <PUBCHEM_BOND_UDEF_STEREO_COUNT>  (1) 
0

>  <PUBCHEM_ISOTOPIC_ATOM_COUNT>  (1) 
0

>  <PUBCHEM_COMPONENT_COUNT>  (1) 
1

>  <PUBCHEM_CACTVS_TAUTO_COUNT>  (1) 
2

>  <PUBCHEM_CONFORMER_ID>  (1) 
00007D0600000001

>  <PUBCHEM_MMFF94_ENERGY>  (1) 
53.458

>  <PUBCHEM_FEATURE_SELFOVERLAP>  (1) 
25.371

>  <PUBCHEM_SHAPE_FINGERPRINT>  (1) 
10 15 18200858661821259840
10912923 1 17676210139654991840
11046707 91 18186803577821772881
11315181 36 17676210173882699000
11370993 144 17488756566265735731
11405975 8 18199468775195501736
11552529 35 16199292356092636447
12236239 1 17240484676003139312
12507560 40 18201715137870668684
13167823 11 18261671485310771178
13237642 15 18202558488921645080
13288520 33 18334577932099767789
13544653 18 18201722885611791233
13583140 156 18130213862171891668
13675066 3 18130782344127553564
13760787 5 15213308487019308740
14251740 79 15792025531577173777
14386348 63 18131070419983642989
15099037 37 18413388726455470693
15880784 105 17775567575954029563
15961568 22 18041277777238712948
17349148 13 17458349628229311794
17834072 33 18187090563895704412
17844677 252 18272937111487614856
18785283 64 17844231046912771400
18927931 339 18410578374740156591
19026448 4 18272086055148803660
19141452 34 18131354150535927183
193927 3 18115038479567606987
19489759 90 18187642475165905248
1986462 14 18335985268313025076
200 152 15936407827610881524
20374829 77 18408321112165758091
21033648 29 17631715089921956248
21065198 57 18270679749728028816
21065199 12 18272365331239291976
21065201 7 18263077726401969128
21079973 296 18412825789302373200
21728266 224 18187352208401605058
22646028 1 17530965774190006480
23402539 116 18113896044047133309
23402655 69 12540694821339192418
23557571 272 18341055120623648677
23559900 14 18268709403605738620
26918003 58 17775566420528212033
312423 11 18042423437456023564
314173 85 18411707594930934633
3268164 11 17894905205015110013
32948 21 8718833111116668856
4214541 1 18339642244013446768
5104073 3 18130503016745209474
559249 180 18042117670201938675
573450 72 17968369040439810368
59682541 52 14635412944982618787
59755656 215 18261954055372578623
633830 44 15141532299054160904
67856867 119 18041848432030718604
7495541 125 18202280325560080408
9709674 26 18408892806477805050

>  <PUBCHEM_SHAPE_MULTIPOLES>  (1) 
354.25
11.59
1.84
1.07
5.6
0.31
-0.07
-4.62
1.69
-2.27
-0.12
0.51
-0.14
1.05

>  <PUBCHEM_SHAPE_SELFOVERLAP>  (1) 
767.936

>  <PUBCHEM_SHAPE_VOLUME>  (1) 
193.7

>  <PUBCHEM_COORDINATE_TYPE>  (1) 
2
5
10

$$$$
