32008
     RDKit          3D

 17 18  0  0  0  0  0  0  0  0999 V2000
    5.1688    0.0976    0.2753 O   0  0  0  0  0  0  0  0  0  0  0  0
   -0.3280    0.4689   -0.3899 N   0  0  0  0  0  0  0  0  0  0  0  0
   -0.7144   -1.2021    1.2889 N   0  0  0  0  0  0  0  0  0  0  0  0
   -5.2881    0.1588   -0.3221 N   0  0  0  0  0  0  0  0  0  0  0  0
    1.0573    0.3757   -0.2229 C   0  0  0  0  0  0  0  0  0  0  0  0
   -2.5870   -0.1289    0.1037 C   0  0  0  0  0  0  0  0  0  0  0  0
   -1.1136   -0.2859    0.3355 C   0  0  0  0  0  0  0  0  0  0  0  0
    1.7926   -0.5308   -0.9865 C   0  0  0  0  0  0  0  0  0  0  0  0
    1.7038    1.1892    0.7076 C   0  0  0  0  0  0  0  0  0  0  0  0
    3.8208    0.1895    0.1110 C   0  0  0  0  0  0  0  0  0  0  0  0
    3.1744   -0.6239   -0.8197 C   0  0  0  0  0  0  0  0  0  0  0  0
    3.0856    1.0962    0.8745 C   0  0  0  0  0  0  0  0  0  0  0  0
   -3.0575    1.0911   -0.2988 C   0  0  0  0  0  0  0  0  0  0  0  0
   -3.3978   -1.2123    0.3039 C   0  0  0  0  0  0  0  0  0  0  0  0
   -4.4253    1.1844   -0.4997 C   0  0  0  0  0  0  0  0  0  0  0  0
   -4.7503   -1.0161    0.0761 C   0  0  0  0  0  0  0  0  0  0  0  0
    5.8587   -0.8514   -0.5367 C   0  0  0  0  0  0  0  0  0  0  0  0
  1 10  1  0
  1 17  1  0
  2  5  1  0
  2  7  2  0
  3  7  1  0
  4 15  2  0
  4 16  1  0
  5  8  2  0
  5  9  1  0
  6  7  1  0
  6 13  2  0
  6 14  1  0
  8 11  1  0
  9 12  2  0
 10 11  2  0
 10 12  1  0
 13 15  1  0
 14 16  2  0
M  END
>  <PUBCHEM_COMPOUND_CID>  (1) 
32008

>  <PUBCHEM_CONFORMER_RMSD>  (1) 
0.6

>  <PUBCHEM_CONFORMER_DIVERSEORDER>  (1) 
1
2

>  <PUBCHEM_MMFF94_PARTIAL_CHARGES>  (1) 
27
1 -0.36
10 0.08
11 -0.15
12 -0.15
13 -0.15
14 -0.15
15 0.16
16 0.16
17 0.28
18 0.15
19 0.15
2 -0.63
20 0.15
21 0.15
22 0.15
23 0.15
24 0.15
25 0.15
26 0.4
27 0.4
3 -0.85
4 -0.62
5 0.18
6 0.09
7 0.41
8 -0.15
9 -0.15

>  <PUBCHEM_EFFECTIVE_ROTOR_COUNT>  (1) 
3

>  <PUBCHEM_PHARMACOPHORE_FEATURES>  (1) 
6
1 1 acceptor
1 3 donor
1 4 acceptor
3 2 3 7 cation
6 4 6 13 14 15 16 rings
6 5 8 9 10 11 12 rings

>  <PUBCHEM_HEAVY_ATOM_COUNT>  (1) 
17

>  <PUBCHEM_ATOM_DEF_STEREO_COUNT>  (1) 
0

>  <PUBCHEM_ATOM_UDEF_STEREO_COUNT>  (1) 
0

>  <PUBCHEM_BOND_DEF_STEREO_COUNT>  (1) 
0

>  <PUBCHEM_BOND_UDEF_STEREO_COUNT>  (1) 
0

>  <PUBCHEM_ISOTOPIC_ATOM_COUNT>  (1) 
0

>  <PUBCHEM_COMPONENT_COUNT>  (1) 
1

>  <PUBCHEM_CACTVS_TAUTO_COUNT>  (1) 
2

>  <PUBCHEM_CONFORMER_ID>  (1) 
00007D0800000001

>  <PUBCHEM_MMFF94_ENERGY>  (1) 
64.903

>  <PUBCHEM_FEATURE_SELFOVERLAP>  (1) 
30.446

>  <PUBCHEM_SHAPE_FINGERPRINT>  (1) 
11287383 113 18202562912437214307
11796584 16 18187086135700454978
12236239 1 16081087073768023388
12403259 415 18409722971910811849
124424 183 18413110563009198104
12616971 3 15339119069402493185
13288520 33 18335422370109941607
14386348 63 18413673508493481342
14573314 32 18408886204985970540
15242439 84 18411136935110166689
15788980 27 17917990585500901636
17834072 33 18114748225994176628
18186145 218 18409445886675228673
19489759 90 18334294258157791373
200 152 16988843865017167937
20279233 1 18343309171042070263
20645477 56 18335983082807719661
20645477 70 17774726368091351438
20681677 155 16732987552494517920
21065201 7 18261105296693305603
22224240 67 16415469451487591670
2297311 6 18333736814521502165
23402539 116 18187361030180034997
23536379 177 17967251979775856244
23557571 272 18410013208731524541
23559900 14 18409164450205660528
26918003 58 17632860840914250875
3004659 81 17968096370810947994
351380 180 18341891904695820897
3545911 37 18334857204196008055
4214541 1 18412263926334581757
42788 4 18408885139823596396
465052 167 18131636673547935822
4990 188 18410013225631480730
5104073 3 18341895224710777377
542803 24 16443346472464017765
59755656 215 18260827068870600183
69090 78 18201154442553635847
9709674 26 18192995043893830499

>  <PUBCHEM_SHAPE_MULTIPOLES>  (1) 
329.04
12.32
1.27
0.93
2.15
0.08
0.07
-1.45
-1.32
-0.36
0.11
0.2
-0.06
1.06

>  <PUBCHEM_SHAPE_SELFOVERLAP>  (1) 
706.156

>  <PUBCHEM_SHAPE_VOLUME>  (1) 
180.1

>  <PUBCHEM_COORDINATE_TYPE>  (1) 
2
5
10

$$$$
