32019
     RDKit          3D

 22 23  0  0  1  0  0  0  0  0999 V2000
    2.8497    0.7813   -1.2748 O   0  0  0  0  0  0  0  0  0  0  0  0
    5.0492   -0.2347    0.2024 O   0  0  0  0  0  0  0  0  0  0  0  0
    1.1477    2.2428   -0.9419 O   0  0  0  0  0  0  0  0  0  0  0  0
   -5.3528    0.5516    0.5021 O   0  0  0  0  0  0  0  0  0  0  0  0
   -5.2585   -1.7390    0.5097 O   0  0  0  0  0  0  0  0  0  0  0  0
    0.8206   -0.0975   -0.8222 N   0  0  0  0  0  0  0  0  0  0  0  0
    3.0616   -0.6218   -1.0654 C   0  0  0  0  0  0  0  0  0  0  0  0
    1.6723   -1.2212   -1.1069 C   0  0  0  0  0  0  0  0  0  0  0  0
    3.7604   -0.8193    0.2727 C   0  0  0  0  0  0  0  0  0  0  0  0
    1.5370    1.0846   -0.9905 C   0  0  0  0  0  0  0  0  0  0  0  0
   -0.5647   -0.2357   -0.5227 C   0  0  0  0  0  0  0  0  0  0  0  0
   -1.3671    0.8981   -0.3627 C   0  0  0  0  0  0  0  0  0  0  0  0
   -1.1317   -1.5063   -0.3854 C   0  0  0  0  0  0  0  0  0  0  0  0
   -2.7239    0.7623   -0.0684 C   0  0  0  0  0  0  0  0  0  0  0  0
   -2.4883   -1.6421   -0.0912 C   0  0  0  0  0  0  0  0  0  0  0  0
   -3.2843   -0.5078    0.0674 C   0  0  0  0  0  0  0  0  0  0  0  0
    5.7616   -0.3831    1.4249 C   0  0  0  0  0  0  0  0  0  0  0  0
   -4.6987   -0.6491    0.3753 C   0  0  0  0  0  0  0  0  0  0  0  0
   -6.7509    0.4854    0.8051 C   0  0  0  0  0  0  0  0  0  0  0  0
    7.0869    0.2288    1.3235 C   0  0  0  0  0  0  0  0  0  0  0  0
   -7.3006    1.8922    0.9068 C   0  0  0  0  0  0  0  0  0  0  0  0
    8.1745    0.7305    1.2423 C   0  0  0  0  0  0  0  0  0  0  0  0
  1  7  1  0
  1 10  1  0
  2  9  1  0
  2 17  1  0
  3 10  2  0
  4 18  1  0
  4 19  1  0
  5 18  2  0
  6  8  1  0
  6 10  1  0
  6 11  1  0
  7  8  1  0
  7  9  1  0
 11 12  2  0
 11 13  1  0
 12 14  1  0
 13 15  2  0
 14 16  2  0
 15 16  1  0
 16 18  1  0
 17 20  1  0
 19 21  1  0
 20 22  3  0
M  END
>  <PUBCHEM_COMPOUND_CID>  (1) 
32019

>  <PUBCHEM_CONFORMER_RMSD>  (1) 
0.8

>  <PUBCHEM_CONFORMER_DIVERSEORDER>  (1) 
1
73
103
121
5
122
33
114
47
109
104
19
77
20
21
55
85
125
49
101
9
119
108
137
88
81
10
56
74
136
132
8
124
45
3
99
102
89
111
53
4
106
141
117
128
11
91
52
66
29
41
130
36
96
71
40
39
30
27
127
26
112
116
100
24
120
46
142
67
138
65
139
28
131
23
59
62
118
48
94
133
90
25
54
63
140
80
79
2
97
37
134
69
16
129
51
57
126
58
6
95
72
107
92
68
98
64
61
70
113
38
86
35
110
105
22
43
50
7
12
76
84
93
87
60
31
115
44
135
18
42
123
32
14
78
15
82
83
13
17
34
75

>  <PUBCHEM_MMFF94_PARTIAL_CHARGES>  (1) 
26
1 -0.43
10 0.78
11 0.12
12 -0.15
13 -0.15
14 -0.15
15 -0.15
16 0.09
17 0.48
18 0.63
19 0.28
2 -0.56
20 -0.2
22 -0.18
28 0.15
29 0.15
3 -0.57
30 0.15
31 0.15
39 0.18
4 -0.43
5 -0.57
6 -0.48
7 0.28
8 0.3
9 0.28

>  <PUBCHEM_EFFECTIVE_ROTOR_COUNT>  (1) 
7.8

>  <PUBCHEM_PHARMACOPHORE_FEATURES>  (1) 
6
1 2 acceptor
1 22 hydrophobe
1 3 acceptor
1 5 acceptor
5 1 6 7 8 10 rings
6 11 12 13 14 15 16 rings

>  <PUBCHEM_HEAVY_ATOM_COUNT>  (1) 
22

>  <PUBCHEM_ATOM_DEF_STEREO_COUNT>  (1) 
0

>  <PUBCHEM_ATOM_UDEF_STEREO_COUNT>  (1) 
1

>  <PUBCHEM_BOND_DEF_STEREO_COUNT>  (1) 
0

>  <PUBCHEM_BOND_UDEF_STEREO_COUNT>  (1) 
0

>  <PUBCHEM_ISOTOPIC_ATOM_COUNT>  (1) 
0

>  <PUBCHEM_COMPONENT_COUNT>  (1) 
1

>  <PUBCHEM_CACTVS_TAUTO_COUNT>  (1) 
1

>  <PUBCHEM_CONFORMER_ID>  (1) 
00007D1300000001

>  <PUBCHEM_MMFF94_ENERGY>  (1) 
58.3342

>  <PUBCHEM_FEATURE_SELFOVERLAP>  (1) 
30.446

>  <PUBCHEM_SHAPE_FINGERPRINT>  (1) 
10 15 18272086106735682914
106641 1 18335978766428533634
10693767 8 8718565912812476720
10753850 27 15502371210784932984
11823591 26 14692564425881296862
13533116 47 16805323314764243884
13540713 5 18046631380245654038
13668630 136 13912316859780635888
13685833 64 15068341207449140346
14251764 18 18187367657245968214
15048467 5 17561080311185345362
15301273 46 18272937103240142798
15461852 350 17346592010986814239
15510800 12 15140960587804988432
15961568 22 14908189646260706642
17980427 23 18059564854161618540
1813 80 16950564329880581654
18335252 114 14405182872743112848
18335252 98 14261350297604611861
2026 5 12901809590298999440
20567600 247 14345783959985868832
21130935 74 18343867688447694167
21150785 3 12679457586863827881
21344244 181 12829492524127485136
21521239 73 9295297157845092264
21637258 2 15647044976463734106
22224240 67 18202275927466252158
23402539 116 18343304769402140719
23559900 14 18057911089836656111
246663 6 13479135678962745073
25147074 1 18193273225015656638
2838139 119 14764626439303552618
300161 21 17346881131021382735
3004659 81 18187380830142741772
33382 64 15285633270904045440
4325135 7 14979949320150557815
5104073 3 18189346821674381465
59682541 35 18338793529012029098
636775 72 17917714561661422297
9953998 17 18339632430630159458

>  <PUBCHEM_SHAPE_MULTIPOLES>  (1) 
418.42
19.94
1.67
1.25
9.53
0.13
-0.02
7.5
13.02
-1.73
-0.11
1.54
0.21
0.11

>  <PUBCHEM_SHAPE_SELFOVERLAP>  (1) 
870.815

>  <PUBCHEM_SHAPE_VOLUME>  (1) 
237.4

>  <PUBCHEM_COORDINATE_TYPE>  (1) 
2
5
10

$$$$
