32011
     RDKit          3D

 21 22  0  0  0  0  0  0  0  0999 V2000
   -3.2202   -2.5540    0.4423 Cl  0  0  0  0  0  0  0  0  0  0  0  0
    5.4614   -0.3872   -0.2594 F   0  0  0  0  0  0  0  0  0  0  0  0
    4.1357   -1.9421    0.4678 F   0  0  0  0  0  0  0  0  0  0  0  0
    4.0611   -1.3428   -1.6213 F   0  0  0  0  0  0  0  0  0  0  0  0
   -0.4569   -1.7849    0.7872 O   0  0  0  0  0  0  0  0  0  0  0  0
   -0.5739    0.4656    0.1441 N   0  0  0  0  0  0  0  0  0  0  0  0
   -4.7005    0.0636   -0.3420 N   0  0  0  0  0  0  0  0  0  0  0  0
   -1.3776    1.5293   -0.1728 N   0  0  0  0  0  0  0  0  0  0  0  0
    0.8268    0.8072    0.2028 C   0  0  0  0  0  0  0  0  0  0  0  0
   -3.3568    0.0552   -0.1353 C   0  0  0  0  0  0  0  0  0  0  0  0
    1.7932   -0.1547   -0.0926 C   0  0  0  0  0  0  0  0  0  0  0  0
   -1.0972   -0.8079    0.3996 C   0  0  0  0  0  0  0  0  0  0  0  0
    3.1470    0.1765   -0.0371 C   0  0  0  0  0  0  0  0  0  0  0  0
   -2.5694   -0.9679    0.2021 C   0  0  0  0  0  0  0  0  0  0  0  0
    1.2152    2.1004    0.5534 C   0  0  0  0  0  0  0  0  0  0  0  0
   -2.6444    1.3292   -0.2930 C   0  0  0  0  0  0  0  0  0  0  0  0
    3.5351    1.4695    0.3137 C   0  0  0  0  0  0  0  0  0  0  0  0
    2.5690    2.4315    0.6089 C   0  0  0  0  0  0  0  0  0  0  0  0
   -5.6382   -0.3227    0.7083 C   0  0  0  0  0  0  0  0  0  0  0  0
   -5.2897    0.6879   -1.5230 C   0  0  0  0  0  0  0  0  0  0  0  0
    4.1803   -0.8517   -0.3535 C   0  0  0  0  0  0  0  0  0  0  0  0
  1 14  1  0
  2 21  1  0
  3 21  1  0
  4 21  1  0
  5 12  2  0
  6  8  1  0
  6  9  1  0
  6 12  1  0
  7 10  1  0
  7 19  1  0
  7 20  1  0
  8 16  2  0
  9 11  2  0
  9 15  1  0
 10 14  2  0
 10 16  1  0
 11 13  1  0
 12 14  1  0
 13 17  2  0
 13 21  1  0
 15 18  2  0
 17 18  1  0
M  END
>  <PUBCHEM_COMPOUND_CID>  (1) 
32011

>  <PUBCHEM_CONFORMER_RMSD>  (1) 
0.6

>  <PUBCHEM_CONFORMER_DIVERSEORDER>  (1) 
1
4
5
2
3
6

>  <PUBCHEM_MMFF94_PARTIAL_CHARGES>  (1) 
26
1 -0.14
10 0.11
11 -0.15
12 0.62
13 -0.14
14 0.15
15 -0.15
16 0.38
17 -0.15
18 -0.15
19 0.37
2 -0.34
20 0.37
21 1.16
22 0.15
23 0.15
24 0.06
25 0.15
26 0.15
3 -0.34
4 -0.34
5 -0.57
6 -0.11
7 -0.84
8 -0.51
9 0.12

>  <PUBCHEM_EFFECTIVE_ROTOR_COUNT>  (1) 
3

>  <PUBCHEM_PHARMACOPHORE_FEATURES>  (1) 
5
1 5 acceptor
1 7 cation
1 8 acceptor
6 6 8 10 12 14 16 rings
6 9 11 13 15 17 18 rings

>  <PUBCHEM_HEAVY_ATOM_COUNT>  (1) 
21

>  <PUBCHEM_ATOM_DEF_STEREO_COUNT>  (1) 
0

>  <PUBCHEM_ATOM_UDEF_STEREO_COUNT>  (1) 
0

>  <PUBCHEM_BOND_DEF_STEREO_COUNT>  (1) 
0

>  <PUBCHEM_BOND_UDEF_STEREO_COUNT>  (1) 
0

>  <PUBCHEM_ISOTOPIC_ATOM_COUNT>  (1) 
0

>  <PUBCHEM_COMPONENT_COUNT>  (1) 
1

>  <PUBCHEM_CACTVS_TAUTO_COUNT>  (1) 
1

>  <PUBCHEM_CONFORMER_ID>  (1) 
00007D0B00000001

>  <PUBCHEM_MMFF94_ENERGY>  (1) 
70.4119

>  <PUBCHEM_FEATURE_SELFOVERLAP>  (1) 
25.371

>  <PUBCHEM_SHAPE_FINGERPRINT>  (1) 
11405975 8 18341614858157446907
11471102 20 18342173392779206872
12236239 1 15936406736789402148
12403259 415 18187077361029287669
12555020 224 18411410705559445255
12592029 89 17418098706654763895
13134695 92 17632573889791370016
13533116 47 18060138769002950793
13544592 145 18408602578104212677
13583140 156 17273126032421119881
13675066 3 18115027523622772217
13862211 1 18410568466503883523
14115302 16 18114472231247906156
14386348 63 18413110563125223078
14790565 3 17403744341483441281
14866123 147 17623016689967114128
15099037 51 18411135827346266511
15196674 1 18338234985088475939
15536298 74 18340484559887607849
15848702 151 17988649558030721183
17349148 13 17632301163762618025
17804303 29 18408608062893416245
17834072 8 18407757032456505607
18186145 218 18187635946921012869
18222031 100 17775568611673631078
19141452 34 18271247218060879111
200 152 17632858629132590025
20369508 70 18412539908216757064
20374829 77 18407757045225440730
20403669 9 18342461409054224694
20645477 70 18272934946575742478
20832881 197 18338233769407016160
21033648 29 18187350048555924485
21065198 57 18339642355835512401
21065201 7 17968369156414178057
21267235 1 18340776974509907642
21279426 13 18192428580778253159
21521239 73 18128515211681763303
221357 26 18412820270639130845
221490 88 18338240491363085072
2215653 11 18413386527526933541
22224240 67 17203314625645448330
23402539 116 17846495920712009921
23559900 14 18339639044415850640
3004659 81 18041280951255915186
314173 41 18411987957642802310
335352 9 18410292501827581207
34797466 226 14923957729803884075
350125 39 18264208024492888545
351380 180 18341608222242985805
3545911 37 18338234980662003609
4214541 1 18411138030648911913
495365 180 17845924260100637176
5104073 3 18339923834864331723
59755656 215 18261951848149155221
633830 44 16878220965228343633
69090 78 18271801358825080991
9709674 26 18192432093724170378

>  <PUBCHEM_SHAPE_MULTIPOLES>  (1) 
391.41
11.54
2.3
0.94
2.59
0.24
-0.26
2.01
-2.07
-0.87
0.37
0.31
0.05
1.45

>  <PUBCHEM_SHAPE_SELFOVERLAP>  (1) 
828.143

>  <PUBCHEM_SHAPE_VOLUME>  (1) 
221.7

>  <PUBCHEM_COORDINATE_TYPE>  (1) 
2
5
10

$$$$
