32018
     RDKit          3D

 14 14  0  0  0  0  0  0  0  0999 V2000
    0.2019   -3.1440   -0.0155 Cl  0  0  0  0  0  0  0  0  0  0  0  0
    2.3828    2.7082    0.0136 Cl  0  0  0  0  0  0  0  0  0  0  0  0
    4.3907    0.1797    0.2289 Cl  0  0  0  0  0  0  0  0  0  0  0  0
   -4.7685    0.4094    0.9838 Cl  0  0  0  0  0  0  0  0  0  0  0  0
   -2.2786    1.5987   -0.2993 O   0  0  0  0  0  0  0  0  0  0  0  0
   -1.4572   -0.6042   -0.2035 N   0  0  0  0  0  0  0  0  0  0  0  0
   -0.0736   -0.4300   -0.1028 C   0  0  0  0  0  0  0  0  0  0  0  0
    0.7918   -1.5200   -0.0100 C   0  0  0  0  0  0  0  0  0  0  0  0
    0.4366    0.8681   -0.0948 C   0  0  0  0  0  0  0  0  0  0  0  0
    1.8122    1.0764    0.0059 C   0  0  0  0  0  0  0  0  0  0  0  0
    2.1674   -1.3118    0.0907 C   0  0  0  0  0  0  0  0  0  0  0  0
    2.6776   -0.0136    0.0985 C   0  0  0  0  0  0  0  0  0  0  0  0
   -2.4459    0.3820   -0.3019 C   0  0  0  0  0  0  0  0  0  0  0  0
   -3.8372   -0.1990   -0.3937 C   0  0  0  0  0  0  0  0  0  0  0  0
  1  8  1  0
  2 10  1  0
  3 12  1  0
  4 14  1  0
  5 13  2  0
  6  7  1  0
  6 13  1  0
  7  8  2  0
  7  9  1  0
  8 11  1  0
  9 10  2  0
 10 12  1  0
 11 12  2  0
 13 14  1  0
M  END
>  <PUBCHEM_COMPOUND_CID>  (1) 
32018

>  <PUBCHEM_CONFORMER_RMSD>  (1) 
0.6

>  <PUBCHEM_CONFORMER_DIVERSEORDER>  (1) 
1
7
11
8
4
3
9
6
10
5
2

>  <PUBCHEM_MMFF94_PARTIAL_CHARGES>  (1) 
17
1 -0.18
10 0.18
11 -0.15
12 0.18
13 0.57
14 0.35
15 0.15
16 0.37
17 0.15
2 -0.18
3 -0.18
4 -0.29
5 -0.57
6 -0.55
7 0.12
8 0.18
9 -0.15

>  <PUBCHEM_EFFECTIVE_ROTOR_COUNT>  (1) 
3

>  <PUBCHEM_PHARMACOPHORE_FEATURES>  (1) 
3
1 5 acceptor
1 6 donor
6 7 8 9 10 11 12 rings

>  <PUBCHEM_HEAVY_ATOM_COUNT>  (1) 
14

>  <PUBCHEM_ATOM_DEF_STEREO_COUNT>  (1) 
0

>  <PUBCHEM_ATOM_UDEF_STEREO_COUNT>  (1) 
0

>  <PUBCHEM_BOND_DEF_STEREO_COUNT>  (1) 
0

>  <PUBCHEM_BOND_UDEF_STEREO_COUNT>  (1) 
0

>  <PUBCHEM_ISOTOPIC_ATOM_COUNT>  (1) 
0

>  <PUBCHEM_COMPONENT_COUNT>  (1) 
1

>  <PUBCHEM_CACTVS_TAUTO_COUNT>  (1) 
2

>  <PUBCHEM_CONFORMER_ID>  (1) 
00007D1200000001

>  <PUBCHEM_MMFF94_ENERGY>  (1) 
34.7458

>  <PUBCHEM_FEATURE_SELFOVERLAP>  (1) 
15.223

>  <PUBCHEM_SHAPE_FINGERPRINT>  (1) 
10608611 8 18334570205701899141
10967382 1 18410289199119062630
10980938 120 18338794516068769862
11471102 20 18410851019427377021
13140716 1 18337109097934705594
13380535 76 18409727378499765310
13380536 305 18411141346352855158
13583140 156 16662020695039282177
14251717 144 18410849949864690167
14911166 2 18412270549527275092
15775835 57 18273215322082997197
16945 1 18337947987089868606
18186145 218 18342455958477001373
193761 8 17977662340482667902
20645477 70 18266447712477544575
20671657 1 18191026909617251780
21501502 16 18049998089482325006
21524375 3 18342453793871525910
22854114 111 18410855477487658385
23402539 116 18272641372459842285
23402655 69 18341321198590756021
23558518 356 17829042466221631818
2748010 2 17978512258728751534
3060560 45 18412823564741708774
53812653 166 18412820305056384778
58051976 378 18341890792621220287
633830 44 18201444700648698893
7364860 26 18269273456733298007
81228 2 17614549771707320451
9999458 23 18040998475081761134

>  <PUBCHEM_SHAPE_MULTIPOLES>  (1) 
284.74
7.41
2.6
0.72
5.7
0.94
0.07
-2.57
1.39
-1.44
-0.04
0.37
-0.04
-0.13

>  <PUBCHEM_SHAPE_SELFOVERLAP>  (1) 
553.634

>  <PUBCHEM_SHAPE_VOLUME>  (1) 
175.3

>  <PUBCHEM_COORDINATE_TYPE>  (1) 
2
5
10

$$$$
