32016
     RDKit          3D

 18 19  0  0  0  0  0  0  0  0999 V2000
   -1.8051   -2.1075    0.0119 C   0  0  0  0  0  0  0  0  0  0  0  0
   -0.3518   -1.6316    0.0134 C   0  0  0  0  0  0  0  0  0  0  0  0
   -2.0278   -3.6293    0.0352 C   0  0  0  0  0  0  0  0  0  0  0  0
   -2.5245   -1.4744    1.2150 C   0  0  0  0  0  0  0  0  0  0  0  0
   -2.4622   -1.5802   -1.2851 C   0  0  0  0  0  0  0  0  0  0  0  0
    0.2264   -0.4086   -0.0121 C   0  0  0  0  0  0  0  0  0  0  0  0
    1.6880   -0.2025   -0.0038 C   0  0  0  0  0  0  0  0  0  0  0  0
   -0.7041    0.7522   -0.0060 C   0  0  0  0  0  0  0  0  0  0  0  0
    2.3528   -0.1186    1.2074 C   0  0  0  0  0  0  0  0  0  0  0  0
   -1.1148    1.2818   -1.2105 C   0  0  0  0  0  0  0  0  0  0  0  0
    2.3617   -0.0994   -1.2085 C   0  0  0  0  0  0  0  0  0  0  0  0
   -1.1256    1.2574    1.2053 C   0  0  0  0  0  0  0  0  0  0  0  0
    3.7343    0.0740    1.2139 C   0  0  0  0  0  0  0  0  0  0  0  0
   -1.9889    2.3688   -1.2035 C   0  0  0  0  0  0  0  0  0  0  0  0
    3.7432    0.0932   -1.2018 C   0  0  0  0  0  0  0  0  0  0  0  0
   -1.9998    2.3445    1.2122 C   0  0  0  0  0  0  0  0  0  0  0  0
    4.4295    0.1800    0.0093 C   0  0  0  0  0  0  0  0  0  0  0  0
   -2.4314    2.9001    0.0078 C   0  0  0  0  0  0  0  0  0  0  0  0
  1  2  1  0
  1  3  1  0
  1  4  1  0
  1  5  1  0
  2  6  2  3
  6  7  1  0
  6  8  1  0
  7  9  2  0
  7 11  1  0
  8 10  2  0
  8 12  1  0
  9 13  1  0
 10 14  1  0
 11 15  2  0
 12 16  2  0
 13 17  2  0
 14 18  2  0
 15 17  1  0
 16 18  1  0
M  END
>  <PUBCHEM_COMPOUND_CID>  (1) 
32016

>  <PUBCHEM_CONFORMER_RMSD>  (1) 
0.6

>  <PUBCHEM_CONFORMER_DIVERSEORDER>  (1) 
1
3
2

>  <PUBCHEM_MMFF94_PARTIAL_CHARGES>  (1) 
26
1 0.14
10 -0.15
11 -0.15
12 -0.15
13 -0.15
14 -0.15
15 -0.15
16 -0.15
17 -0.15
18 -0.15
19 0.15
2 -0.29
29 0.15
30 0.15
31 0.15
32 0.15
33 0.15
34 0.15
35 0.15
36 0.15
37 0.15
38 0.15
6 -0.06
7 0.03
8 0.03
9 -0.15

>  <PUBCHEM_EFFECTIVE_ROTOR_COUNT>  (1) 
3

>  <PUBCHEM_PHARMACOPHORE_FEATURES>  (1) 
3
4 1 3 4 5 hydrophobe
6 7 9 11 13 15 17 rings
6 8 10 12 14 16 18 rings

>  <PUBCHEM_HEAVY_ATOM_COUNT>  (1) 
18

>  <PUBCHEM_ATOM_DEF_STEREO_COUNT>  (1) 
0

>  <PUBCHEM_ATOM_UDEF_STEREO_COUNT>  (1) 
0

>  <PUBCHEM_BOND_DEF_STEREO_COUNT>  (1) 
0

>  <PUBCHEM_BOND_UDEF_STEREO_COUNT>  (1) 
0

>  <PUBCHEM_ISOTOPIC_ATOM_COUNT>  (1) 
0

>  <PUBCHEM_COMPONENT_COUNT>  (1) 
1

>  <PUBCHEM_CACTVS_TAUTO_COUNT>  (1) 
1

>  <PUBCHEM_CONFORMER_ID>  (1) 
00007D1000000001

>  <PUBCHEM_MMFF94_ENERGY>  (1) 
75.5138

>  <PUBCHEM_FEATURE_SELFOVERLAP>  (1) 
15.223

>  <PUBCHEM_SHAPE_FINGERPRINT>  (1) 
10165383 225 17619954618713842932
104564 63 18410294722568454443
11582403 64 16229111992338785813
121448 382 18198040526675898621
12173636 292 18196939868128681485
12532896 13 18269275651571901359
12553582 1 18191593166405385914
12788726 201 18334012825993753347
13140716 1 18194686097040746891
13681431 1 17762053650504031367
13764800 53 18272374131115734688
14181834 199 17192053667233223863
14614273 12 18410576158510586471
14817 1 12405288108894742609
15309172 13 18119817910537480597
15852999 172 18197765614445996878
15906896 17 18041286482424258235
16752209 62 18335968826977892331
16945 1 18410856589836682795
17357779 13 18057307573863908295
1813 80 18051424147078490119
18186145 218 17984705511154094548
19765921 60 17769639924238056809
200 152 17023457668255343306
20097449 115 18050849111165946411
20510252 161 18339920514991813154
20600515 1 17830139722453221505
21041028 32 18048894171350238627
21339142 126 18410295843159500739
21524375 3 17910953547964178557
22079108 93 18059019359024178041
22112679 90 18048346579724834573
22907989 373 18411703218122007036
23419403 2 17765962350022130917
23557571 272 18272650173481068028
23558518 356 18261670355239039459
23559900 14 18129666271781474830
2748010 2 18050307880935941903
3071541 236 18338786823734610265
312423 11 17894923953333086998
350125 39 18194412082353865195
3729539 64 17186192785063550270
4340502 62 18124037819834484825
458136 41 17835820603092822233
5845 1 14959667281835106191
59755656 520 18269275647145240636
6049 1 17917997209005220776
6442390 28 18126585435182513481
7364860 26 17043162771876842145
7615 1 17894628180320752476
81228 2 18411704317675708859
84936 182 17479166462629655624
9981440 41 17343747518676918338

>  <PUBCHEM_SHAPE_MULTIPOLES>  (1) 
370.43
6.08
3.31
1.44
7.99
0.76
0.01
-0.14
-0.03
-5.2
0.01
0.05
-0.32
-0.02

>  <PUBCHEM_SHAPE_SELFOVERLAP>  (1) 
788.801

>  <PUBCHEM_SHAPE_VOLUME>  (1) 
199.4

>  <PUBCHEM_COORDINATE_TYPE>  (1) 
2
5
10

$$$$
