32028
     RDKit          3D

 15 15  0  0  0  0  0  0  0  0999 V2000
   -5.2763   -0.9940    0.6715 Cl  0  0  0  0  0  0  0  0  0  0  0  0
    0.2053    0.4849   -0.8448 O   0  0  0  0  0  0  0  0  0  0  0  0
    5.9777   -0.7807    0.6698 O   0  0  0  0  0  0  0  0  0  0  0  0
    5.1508    1.2737    0.1667 O   0  0  0  0  0  0  0  0  0  0  0  0
    2.5400    0.2902   -0.2718 C   0  0  0  0  0  0  0  0  0  0  0  0
    1.2273   -0.4442   -0.5131 C   0  0  0  0  0  0  0  0  0  0  0  0
    3.6751   -0.6620    0.1088 C   0  0  0  0  0  0  0  0  0  0  0  0
   -1.0757    0.1490   -0.4901 C   0  0  0  0  0  0  0  0  0  0  0  0
   -3.2944    0.8085    0.1722 C   0  0  0  0  0  0  0  0  0  0  0  0
   -1.9913    1.1505   -0.1893 C   0  0  0  0  0  0  0  0  0  0  0  0
   -1.4449   -1.1899   -0.4345 C   0  0  0  0  0  0  0  0  0  0  0  0
   -3.6727   -0.5329    0.2301 C   0  0  0  0  0  0  0  0  0  0  0  0
   -2.7479   -1.5321   -0.0732 C   0  0  0  0  0  0  0  0  0  0  0  0
    4.9822    0.0706    0.3083 C   0  0  0  0  0  0  0  0  0  0  0  0
   -4.2551    1.9085    0.4894 C   0  0  0  0  0  0  0  0  0  0  0  0
  1 12  1  0
  2  6  1  0
  2  8  1  0
  3 14  1  0
  4 14  2  0
  5  6  1  0
  5  7  1  0
  7 14  1  0
  8 10  2  0
  8 11  1  0
  9 10  1  0
  9 12  2  0
  9 15  1  0
 11 13  2  0
 12 13  1  0
M  END
>  <PUBCHEM_COMPOUND_CID>  (1) 
32028

>  <PUBCHEM_CONFORMER_RMSD>  (1) 
0.6

>  <PUBCHEM_CONFORMER_DIVERSEORDER>  (1) 
1
23
30
112
56
80
34
95
115
93
99
117
16
6
119
96
102
84
83
123
35
64
109
7
126
81
51
105
27
130
43
73
107
132
31
49
122
37
13
127
2
46
4
18
50
39
17
114
14
118
20
125
40
25
8
116
21
57
128
133
121
111
129
101
33
45
98
44
100
9
52
91
67
54
70
108
36
94
41
42
69
5
3
29
106
120
53
24
19
89
75
103
110
28
48
15
113
22
78
11
88
47
62
77
10
87
131
86
97
68
63
55
32
61
60
104
26
65
124
76
38
72
59
90
71
58
66
82
12
85
79
74
92

>  <PUBCHEM_MMFF94_PARTIAL_CHARGES>  (1) 
18
1 -0.18
10 -0.15
11 -0.15
12 0.18
13 -0.15
14 0.66
15 0.14
2 -0.36
22 0.15
23 0.15
24 0.15
28 0.5
3 -0.65
4 -0.57
6 0.28
7 0.06
8 0.08
9 -0.14

>  <PUBCHEM_EFFECTIVE_ROTOR_COUNT>  (1) 
5

>  <PUBCHEM_PHARMACOPHORE_FEATURES>  (1) 
5
1 2 acceptor
1 3 acceptor
1 4 acceptor
3 3 4 14 anion
6 8 9 10 11 12 13 rings

>  <PUBCHEM_HEAVY_ATOM_COUNT>  (1) 
15

>  <PUBCHEM_ATOM_DEF_STEREO_COUNT>  (1) 
0

>  <PUBCHEM_ATOM_UDEF_STEREO_COUNT>  (1) 
0

>  <PUBCHEM_BOND_DEF_STEREO_COUNT>  (1) 
0

>  <PUBCHEM_BOND_UDEF_STEREO_COUNT>  (1) 
0

>  <PUBCHEM_ISOTOPIC_ATOM_COUNT>  (1) 
0

>  <PUBCHEM_COMPONENT_COUNT>  (1) 
1

>  <PUBCHEM_CACTVS_TAUTO_COUNT>  (1) 
1

>  <PUBCHEM_CONFORMER_ID>  (1) 
00007D1C00000001

>  <PUBCHEM_MMFF94_ENERGY>  (1) 
35.076

>  <PUBCHEM_FEATURE_SELFOVERLAP>  (1) 
25.431

>  <PUBCHEM_SHAPE_FINGERPRINT>  (1) 
11315181 36 18259985989323989084
12107183 9 17760926243163914754
12236239 1 17967253108882782767
12251169 10 18411139159903239310
12507560 40 18202008681188568823
12596602 18 18187365441174933672
13167823 11 18333446530693526466
13214271 11 18201718440463077917
13288520 33 17821447967446159375
14123238 8 18408886248046426054
14341114 176 18412547630599714256
15042514 8 18267027348447988879
17834072 33 18334015033912840028
1813 80 16950570947918626830
18222031 100 15864069880136536926
19050596 39 18334012796350897348
19784866 240 16660651790779153451
200 152 14201114621969897711
20374829 77 10953741122794426765
20432913 95 16515684429261468394
20645477 56 17703791422769931087
20645477 70 8358272457980923768
20828058 44 18408602552624396886
20871999 31 9727628376565003337
2297311 6 18342752801279240020
23402539 116 18342171194404622847
23402655 69 10447938256035576110
23403322 49 11169912783811080436
23559900 14 18056221106041358902
3004659 81 9943538414460935044
351380 3 17240479191941715394
42 15 18260830384669235598
4214541 1 18411136926699781540
449060 50 17989491818276295470
5104073 3 18338802204055014162
542803 24 15913330204004467474
573450 72 18408036312499303490
5924683 9 18130498751452995631
77779 3 18411981369205200742

>  <PUBCHEM_SHAPE_MULTIPOLES>  (1) 
292.95
13.07
1.53
0.78
15.46
0.28
0
0.03
4.13
-1.6
0.11
-0.06
-0.03
-0.13

>  <PUBCHEM_SHAPE_SELFOVERLAP>  (1) 
587.044

>  <PUBCHEM_SHAPE_VOLUME>  (1) 
173.4

>  <PUBCHEM_COORDINATE_TYPE>  (1) 
2
5
10

$$$$
