32025
     RDKit          3D

 17 17  0  0  0  0  0  0  0  0999 V2000
   -5.0287   -0.3089   -1.4875 I   0  0  0  0  0  0  0  0  0  0  0  0
   -2.6516   -2.2096    0.3624 O   0  0  0  0  0  0  0  0  0  0  0  0
    0.6261    3.2602    0.0140 O   0  0  0  0  0  0  0  0  0  0  0  0
   -1.4077    2.4536    0.1929 O   0  0  0  0  0  0  0  0  0  0  0  0
    4.1403   -1.8384   -0.1867 O   0  0  0  0  0  0  0  0  0  0  0  0
    4.4155    0.3387   -0.2467 O   0  0  0  0  0  0  0  0  0  0  0  0
   -1.8720    0.0091    0.2721 N   0  0  0  0  0  0  0  0  0  0  0  0
   -0.1686    2.2946    0.0949 N   0  0  0  0  0  0  0  0  0  0  0  0
    3.6764   -0.6725   -0.1688 N   0  0  0  0  0  0  0  0  0  0  0  0
   -0.4859   -0.1387    0.1618 C   0  0  0  0  0  0  0  0  0  0  0  0
    0.3546    0.9710    0.0742 C   0  0  0  0  0  0  0  0  0  0  0  0
    0.0530   -1.4252    0.1397 C   0  0  0  0  0  0  0  0  0  0  0  0
    1.7338    0.7944   -0.0353 C   0  0  0  0  0  0  0  0  0  0  0  0
    2.2727   -0.4921   -0.0575 C   0  0  0  0  0  0  0  0  0  0  0  0
    1.4322   -1.6019    0.0299 C   0  0  0  0  0  0  0  0  0  0  0  0
   -2.8425   -0.9961    0.3680 C   0  0  0  0  0  0  0  0  0  0  0  0
   -4.2476   -0.4380    0.4728 C   0  0  0  0  0  0  0  0  0  0  0  0
  1 17  1  0
  2 16  2  0
  3  8  1  0
  4  8  2  0
  5  9  1  0
  6  9  2  0
  7 10  1  0
  7 16  1  0
  8 11  1  0
  9 14  1  0
 10 11  2  0
 10 12  1  0
 11 13  1  0
 12 15  2  0
 13 14  2  0
 14 15  1  0
 16 17  1  0
M  CHG  4   3  -1   5  -1   8   1   9   1
M  END
>  <PUBCHEM_COMPOUND_CID>  (1) 
32025

>  <PUBCHEM_CONFORMER_RMSD>  (1) 
0.6

>  <PUBCHEM_CONFORMER_DIVERSEORDER>  (1) 
1
6
5
2
3
4

>  <PUBCHEM_MMFF94_PARTIAL_CHARGES>  (1) 
21
1 -0.19
10 0.12
11 0.13
12 -0.15
13 -0.15
14 0.13
15 -0.15
16 0.57
17 0.25
18 0.15
19 0.15
2 -0.57
20 0.15
21 0.37
3 -0.52
4 -0.52
5 -0.52
6 -0.52
7 -0.55
8 0.91
9 0.91

>  <PUBCHEM_EFFECTIVE_ROTOR_COUNT>  (1) 
5

>  <PUBCHEM_PHARMACOPHORE_FEATURES>  (1) 
10
1 1 hydrophobe
1 2 acceptor
1 3 acceptor
1 3 anion
1 4 acceptor
1 5 acceptor
1 5 anion
1 6 acceptor
1 7 donor
6 10 11 12 13 14 15 rings

>  <PUBCHEM_HEAVY_ATOM_COUNT>  (1) 
17

>  <PUBCHEM_ATOM_DEF_STEREO_COUNT>  (1) 
0

>  <PUBCHEM_ATOM_UDEF_STEREO_COUNT>  (1) 
0

>  <PUBCHEM_BOND_DEF_STEREO_COUNT>  (1) 
0

>  <PUBCHEM_BOND_UDEF_STEREO_COUNT>  (1) 
0

>  <PUBCHEM_ISOTOPIC_ATOM_COUNT>  (1) 
0

>  <PUBCHEM_COMPONENT_COUNT>  (1) 
1

>  <PUBCHEM_CACTVS_TAUTO_COUNT>  (1) 
2

>  <PUBCHEM_CONFORMER_ID>  (1) 
00007D1900000001

>  <PUBCHEM_MMFF94_ENERGY>  (1) 
60.2897

>  <PUBCHEM_FEATURE_SELFOVERLAP>  (1) 
50.911

>  <PUBCHEM_SHAPE_FINGERPRINT>  (1) 
10922049 32 9655579616684018037
10967382 1 18410579530197018386
11471102 20 18410007766917977679
12032990 46 18410301319342971514
124424 183 18261109690756338755
12553582 1 18409730638527603875
13134695 92 17988637558124672425
13862211 1 18411695469890552878
14508225 48 18336827490157127748
14911166 2 18335977627988185775
15848700 24 18342449348638253869
16945 1 18410299102954931675
17041 50 18334849563338477165
17357779 13 18337378379900332629
193761 8 17833554500690069946
200 152 18060696200318989919
20233049 118 18186515510286495431
20510252 161 18341897334151603432
20645477 70 18339924917396861383
20871999 31 18334571292265217669
21029758 11 18412259545383511369
21267235 1 18338530680570444091
21296965 67 18411983559132242992
21501502 16 18121781621330262026
221357 26 18336811041033517589
221490 88 18048320238981169307
23402539 116 18271520906145675255
23402655 69 18339349778837528479
23557571 272 18129112143036362052
23559900 14 18408604786360877170
2748010 2 18049164668105418073
2871803 45 18336263453339564174
3071541 12 18122631822838640553
3071541 158 18188492487927721237
3286 77 17060330829600039802
34934 24 18410003360113103666
68521 5 18337114470907280604
7364860 26 18052543454078365904
7471813 234 17703498991764639209
81228 2 18194702383340273553
8809292 202 18187935022779652691

>  <PUBCHEM_SHAPE_MULTIPOLES>  (1) 
317.5
8.46
2.53
0.85
3.5
1.95
0.23
-3.36
2.71
-0.75
-0.22
1.03
-0.1
0.26

>  <PUBCHEM_SHAPE_SELFOVERLAP>  (1) 
644.16

>  <PUBCHEM_SHAPE_VOLUME>  (1) 
188.7

>  <PUBCHEM_COORDINATE_TYPE>  (1) 
2
5
10

$$$$
