32021
     RDKit          3D

 16 17  0  0  1  0  0  0  0  0999 V2000
    4.7926   -0.8910    1.1262 O   0  0  0  0  0  0  0  0  0  0  0  0
    0.5244   -0.0726   -0.5390 N   0  0  0  0  0  0  0  0  0  0  0  0
   -1.8701    1.7991   -0.0549 N   0  0  0  0  0  0  0  0  0  0  0  0
   -1.1088   -1.7959   -0.2054 N   0  0  0  0  0  0  0  0  0  0  0  0
   -3.9402    1.0880    0.3664 N   0  0  0  0  0  0  0  0  0  0  0  0
   -3.4478   -1.2907    0.2692 N   0  0  0  0  0  0  0  0  0  0  0  0
    3.4105    0.7622   -0.0051 C   0  0  0  0  0  0  0  0  0  0  0  0
    2.8999   -0.1862   -1.1122 C   0  0  0  0  0  0  0  0  0  0  0  0
    1.6338   -0.9673   -0.7633 C   0  0  0  0  0  0  0  0  0  0  0  0
    3.7389    0.0438    1.3104 C   0  0  0  0  0  0  0  0  0  0  0  0
    4.6430    1.5166   -0.5192 C   0  0  0  0  0  0  0  0  0  0  0  0
   -0.8040   -0.4869   -0.2688 C   0  0  0  0  0  0  0  0  0  0  0  0
   -1.8031    0.4349   -0.0670 C   0  0  0  0  0  0  0  0  0  0  0  0
   -3.1005    0.0169    0.1970 C   0  0  0  0  0  0  0  0  0  0  0  0
   -3.1696    2.1430    0.2087 C   0  0  0  0  0  0  0  0  0  0  0  0
   -2.3988   -2.1142    0.0571 C   0  0  0  0  0  0  0  0  0  0  0  0
  1 10  1  0
  2  9  1  0
  2 12  1  0
  3 13  1  0
  3 15  1  0
  4 12  1  0
  4 16  2  0
  5 14  1  0
  5 15  2  0
  6 14  2  0
  6 16  1  0
  7  8  1  0
  7 10  1  0
  7 11  1  0
  8  9  1  0
 12 13  2  0
 13 14  1  0
M  END
>  <PUBCHEM_COMPOUND_CID>  (1) 
32021

>  <PUBCHEM_CONFORMER_RMSD>  (1) 
0.6

>  <PUBCHEM_CONFORMER_DIVERSEORDER>  (1) 
1
149
89
153
8
70
93
36
108
148
16
164
77
138
144
9
103
90
29
140
91
111
155
102
159
3
76
158
165
86
18
133
55
61
85
129
51
28
125
53
112
19
126
168
106
2
60
79
120
100
87
14
115
72
117
96
10
118
94
124
27
45
83
88
26
25
32
110
170
38
137
31
119
15
75
42
147
47
78
152
35
63
105
39
24
146
82
134
34
92
21
130
81
157
23
166
141
167
150
22
145
80
154
59
58
17
132
48
41
162
135
13
98
6
136
50
156
131
12
116
73
101
37
5
52
54
11
104
57
40
169
62
66
128
107
20
161
44
69
121
160
74
84
97
143
30
67
7
123
43
163
68
122
33
49
127
99
65
114
64
71
95
113
139
56
109
46
4
142
151

>  <PUBCHEM_MMFF94_PARTIAL_CHARGES>  (1) 
18
1 -0.68
10 0.28
12 0.41
13 -0.15
14 0.48
15 0.04
16 0.47
2 -0.87
27 0.4
28 0.27
29 0.4
3 0.03
30 0.15
31 0.15
4 -0.62
5 -0.57
6 -0.57
9 0.37

>  <PUBCHEM_EFFECTIVE_ROTOR_COUNT>  (1) 
5

>  <PUBCHEM_PHARMACOPHORE_FEATURES>  (1) 
10
1 1 acceptor
1 1 donor
1 11 hydrophobe
1 2 donor
1 3 donor
3 2 4 12 cation
3 3 5 15 cation
3 4 6 16 cation
5 3 5 13 14 15 rings
6 4 6 12 13 14 16 rings

>  <PUBCHEM_HEAVY_ATOM_COUNT>  (1) 
16

>  <PUBCHEM_ATOM_DEF_STEREO_COUNT>  (1) 
0

>  <PUBCHEM_ATOM_UDEF_STEREO_COUNT>  (1) 
1

>  <PUBCHEM_BOND_DEF_STEREO_COUNT>  (1) 
0

>  <PUBCHEM_BOND_UDEF_STEREO_COUNT>  (1) 
0

>  <PUBCHEM_ISOTOPIC_ATOM_COUNT>  (1) 
0

>  <PUBCHEM_COMPONENT_COUNT>  (1) 
1

>  <PUBCHEM_CACTVS_TAUTO_COUNT>  (1) 
8

>  <PUBCHEM_CONFORMER_ID>  (1) 
00007D1500000001

>  <PUBCHEM_MMFF94_ENERGY>  (1) 
29.3334

>  <PUBCHEM_FEATURE_SELFOVERLAP>  (1) 
50.992

>  <PUBCHEM_SHAPE_FINGERPRINT>  (1) 
10608611 8 18271813405918260996
11132069 177 18411706461006801421
11265709 11 17910111649034694239
11543360 7 15554153797121070461
12107183 9 17901658277211450648
12173636 292 18340491058674221909
122479 349 18272371927802669517
12251169 10 18334571318150818854
13167823 11 18259983786575595618
13675066 3 16805321072211053724
13897977 58 18336834190042287076
14420673 8 18047187450200381562
1741750 31 18271529684900410321
1813 80 16661211322186657158
18186145 218 17845106085730835310
19050596 39 18333448742385159106
20432913 95 15647050482326841224
20510252 161 18271536337984164955
20645477 56 18340215106904173229
20645477 70 16702034023940222910
21065198 48 18260263075440079322
22943178 12 18060151915781935990
23402539 116 18341604958743379695
23557571 272 17988379146863410967
23559900 14 18200322009388433526
5104073 3 18409452496497860160
573450 72 18334287678194236018
7097593 13 18115574942964278722
90316 7 17822009783185707101

>  <PUBCHEM_SHAPE_MULTIPOLES>  (1) 
298.5
9.44
2.03
0.95
7.53
0.16
0.12
2.32
1.85
-1.81
0.01
1.12
-0.1
-0.43

>  <PUBCHEM_SHAPE_SELFOVERLAP>  (1) 
622.478

>  <PUBCHEM_SHAPE_VOLUME>  (1) 
167.5

>  <PUBCHEM_COORDINATE_TYPE>  (1) 
2
5
10

$$$$
