32032
     RDKit          3D

 21 24  0  0  1  0  0  0  0  0999 V2000
    4.8914    1.0692   -0.2903 O   0  0  0  0  0  0  0  0  0  0  0  0
   -5.8369    0.1428    0.0513 O   0  0  0  0  0  0  0  0  0  0  0  0
    2.7328   -0.1390   -0.5015 C   0  0  0  0  0  0  0  0  0  0  0  0
    2.0137   -1.0806    0.4887 C   0  0  0  0  0  0  0  0  0  0  0  0
    0.4720   -1.0812    0.4463 C   0  0  0  0  0  0  0  0  0  0  0  0
   -0.1448    0.3426    0.3549 C   0  0  0  0  0  0  0  0  0  0  0  0
    2.0427    1.2391   -0.5839 C   0  0  0  0  0  0  0  0  0  0  0  0
    0.5146    1.1677   -0.7926 C   0  0  0  0  0  0  0  0  0  0  0  0
    4.1393   -0.0509    0.1410 C   0  0  0  0  0  0  0  0  0  0  0  0
    2.5456   -0.6549    1.8754 C   0  0  0  0  0  0  0  0  0  0  0  0
    3.8897    0.0274    1.6418 C   0  0  0  0  0  0  0  0  0  0  0  0
   -0.0689   -1.9663   -0.6898 C   0  0  0  0  0  0  0  0  0  0  0  0
    2.8731   -0.7363   -1.9127 C   0  0  0  0  0  0  0  0  0  0  0  0
   -1.6657    0.2551    0.2684 C   0  0  0  0  0  0  0  0  0  0  0  0
   -1.5763   -2.1534   -0.5670 C   0  0  0  0  0  0  0  0  0  0  0  0
   -0.0093    2.6060   -0.9089 C   0  0  0  0  0  0  0  0  0  0  0  0
   -2.3210   -0.8918   -0.2182 C   0  0  0  0  0  0  0  0  0  0  0  0
   -2.4477    1.3345    0.7192 C   0  0  0  0  0  0  0  0  0  0  0  0
   -3.7250   -0.9135   -0.2897 C   0  0  0  0  0  0  0  0  0  0  0  0
   -3.8401    1.3026    0.6407 C   0  0  0  0  0  0  0  0  0  0  0  0
   -4.4791    0.1810    0.1269 C   0  0  0  0  0  0  0  0  0  0  0  0
  1  9  1  0
  2 21  1  0
  3  4  1  0
  3  7  1  0
  3  9  1  0
  3 13  1  0
  4  5  1  0
  4 10  1  0
  5  6  1  0
  5 12  1  0
  6  8  1  0
  6 14  1  0
  7  8  1  0
  8 16  1  0
  9 11  1  0
 10 11  1  0
 12 15  1  0
 14 17  2  0
 14 18  1  0
 15 17  1  0
 17 19  1  0
 18 20  2  0
 19 21  2  0
 20 21  1  0
M  END
>  <PUBCHEM_COMPOUND_CID>  (1) 
32032

>  <PUBCHEM_CONFORMER_RMSD>  (1) 
0.6

>  <PUBCHEM_CONFORMER_DIVERSEORDER>  (1) 
3
4
8
16
5
13
23
17
20
9
15
22
11
21
14
19
2
12
24
18
6
7
1
25
10

>  <PUBCHEM_MMFF94_PARTIAL_CHARGES>  (1) 
16
1 -0.68
14 -0.14
15 0.14
17 -0.14
18 -0.15
19 -0.15
2 -0.53
20 -0.15
21 0.08
43 0.4
44 0.15
45 0.15
46 0.15
47 0.45
6 0.14
9 0.28

>  <PUBCHEM_EFFECTIVE_ROTOR_COUNT>  (1) 
1.4

>  <PUBCHEM_PHARMACOPHORE_FEATURES>  (1) 
7
1 1 acceptor
1 1 donor
1 2 donor
5 3 4 9 10 11 rings
6 14 17 18 19 20 21 rings
6 3 4 5 6 7 8 rings
6 5 6 12 14 15 17 rings

>  <PUBCHEM_HEAVY_ATOM_COUNT>  (1) 
21

>  <PUBCHEM_ATOM_DEF_STEREO_COUNT>  (1) 
2

>  <PUBCHEM_ATOM_UDEF_STEREO_COUNT>  (1) 
4

>  <PUBCHEM_BOND_DEF_STEREO_COUNT>  (1) 
0

>  <PUBCHEM_BOND_UDEF_STEREO_COUNT>  (1) 
0

>  <PUBCHEM_ISOTOPIC_ATOM_COUNT>  (1) 
0

>  <PUBCHEM_COMPONENT_COUNT>  (1) 
1

>  <PUBCHEM_CACTVS_TAUTO_COUNT>  (1) 
9

>  <PUBCHEM_CONFORMER_ID>  (1) 
00007D2000000003

>  <PUBCHEM_MMFF94_ENERGY>  (1) 
72.9518

>  <PUBCHEM_FEATURE_SELFOVERLAP>  (1) 
35.747

>  <PUBCHEM_SHAPE_FINGERPRINT>  (1) 
10062212 137 18337105769831078935
10366900 7 16845577525882879338
10498660 4 18270401581601914025
10646746 165 17989486307616905426
10863032 1 16845294916934731638
11132069 177 18413106134913655577
11370993 70 17632295679079137198
11578080 2 17752453651142073292
12236239 1 18260265256745499547
12403814 3 17821722828257494093
12500047 106 17632856455784433366
12553582 1 18260260845734887221
12592029 89 18334299743158414211
12633257 1 18058706092635609050
12670545 2 18259983773331711759
12916748 109 18343591728735524899
13140716 1 18263922309707729977
13221675 6 18260271849451746479
13224815 77 18408886204864793969
13544592 145 17845665758951621598
13583140 156 17458631155093731299
13965767 371 17835248843993042545
14289901 80 16774072977340024417
14573314 32 17561369456525136692
14787075 74 17632281424240742425
15196674 1 18341335487793819191
15238133 3 17676492704946656589
15375358 24 17703788141198885758
15375462 189 17894904131563273736
15536298 74 18131075878908480695
1601671 61 18410857637845554869
16945 1 18259989240772429254
17349148 13 18412820296577317359
17980427 23 18057303188797614596
1813 80 17169547403517060986
18186145 218 17845943917991623971
19784866 34 17097228340180070988
200 152 17022895731644853736
20261772 1 18408882923404141922
20510252 161 17988647341880669041
20691752 17 18117578239927509223
21033648 29 17775276145590825825
21267235 1 18337120016037003323
22112679 90 18334846260366292642
23175994 123 15936408914290179717
23184049 59 18334013899751427381
23227448 37 17129843148882987632
23402539 116 18272363204602791783
23419403 2 16831717215294160029
23557571 272 18059860536536735336
23558518 356 17466517019496038391
23559900 14 17847067679453087702
26918003 58 16298386846747370560
2748010 2 17687180894144844325
296302 2 16200430294866304655
3286 77 14418132894313616870
34797466 226 17274552034762945780
34934 24 18260830449014786124
4072396 5 18261382309330890307
4340502 62 15913321403542911198
465052 167 18041007254195575715
474 4 17678180610310131036
495365 180 16415468351327273026
5104073 3 18336269058683180561
5939293 188 18337955696155582828
6034566 193 16086740982034631564
69090 78 17561361785951150535
7064713 232 18270678662805995185
7495541 125 17313395573232797353
7832392 63 18337672043598440686
9709674 26 18060425745590291623
9981440 41 17183344456894060817

>  <PUBCHEM_SHAPE_MULTIPOLES>  (1) 
420.43
8.93
1.96
1.32
4.5
0.25
-0.12
1.07
-1.27
0.52
0.54
-1.39
-0.09
-0.58

>  <PUBCHEM_SHAPE_SELFOVERLAP>  (1) 
911.928

>  <PUBCHEM_SHAPE_VOLUME>  (1) 
228.6

>  <PUBCHEM_COORDINATE_TYPE>  (1) 
2
5
10

$$$$
