32039
     RDKit          3D

 11 11  0  0  0  0  0  0  0  0999 V2000
    1.5618    0.4091   -0.1051 O   0  0  0  0  0  0  0  0  0  0  0  0
    0.4426   -1.5887    0.1765 O   0  0  0  0  0  0  0  0  0  0  0  0
   -3.2225    0.5146   -0.3601 N   0  0  0  0  0  0  0  0  0  0  0  0
   -4.4531   -0.2591   -0.2781 C   0  0  0  0  0  0  0  0  0  0  0  0
   -3.9953    0.5902    0.8715 C   0  0  0  0  0  0  0  0  0  0  0  0
   -2.0604   -0.3476   -0.1845 C   0  0  0  0  0  0  0  0  0  0  0  0
   -0.7769    0.4761   -0.2321 C   0  0  0  0  0  0  0  0  0  0  0  0
    0.4508   -0.3823   -0.0262 C   0  0  0  0  0  0  0  0  0  0  0  0
    2.8122   -0.2650    0.0697 C   0  0  0  0  0  0  0  0  0  0  0  0
    3.9387    0.7504   -0.0462 C   0  0  0  0  0  0  0  0  0  0  0  0
    5.3021    0.1024    0.1144 C   0  0  0  0  0  0  0  0  0  0  0  0
  1  8  1  0
  1  9  1  0
  2  8  2  0
  3  4  1  0
  3  5  1  0
  3  6  1  0
  4  5  1  0
  6  7  1  0
  7  8  1  0
  9 10  1  0
 10 11  1  0
M  END
>  <PUBCHEM_COMPOUND_CID>  (1) 
32039

>  <PUBCHEM_CONFORMER_RMSD>  (1) 
0.6

>  <PUBCHEM_CONFORMER_DIVERSEORDER>  (1) 
1
222
42
229
179
124
64
23
35
163
214
162
155
219
65
211
17
201
112
232
168
121
93
26
235
212
81
135
2
231
173
111
141
19
174
4
80
159
206
92
91
40
143
129
21
217
193
185
76
38
113
31
123
47
74
140
227
218
51
120
152
133
71
213
72
43
57
147
32
54
233
191
20
142
95
60
228
221
148
178
203
204
184
116
150
175
190
107
220
88
30
131
45
210
224
146
90
151
61
106
164
125
73
149
29
127
223
9
58
234
5
195
22
3
215
199
104
44
27
13
156
226
103
8
207
128
75
161
166
192
96
16
132
183
119
170
55
66
187
138
205
49
101
108
63
85
77
100
14
39
160
67
139
89
33
37
28
158
7
53
197
110
169
154
99
157
10
137
176
171
98
70
79
59
25
202
97
130
182
6
56
136
115
18
165
105
117
122
15
198
118
94
177
114
188
68
180
167
230
209
34
11
50
189
134
196
126
186
172
46
208
12
36
82
102
52
69
78
48
145
216
200
194
62
225
83
153
181
41
144
86
87
109
84
24

>  <PUBCHEM_MMFF94_PARTIAL_CHARGES>  (1) 
13
1 -0.43
12 0.1
13 0.1
14 0.1
15 0.1
2 -0.57
3 -0.59
4 -0.04
5 -0.04
6 0.27
7 0.06
8 0.66
9 0.28

>  <PUBCHEM_EFFECTIVE_ROTOR_COUNT>  (1) 
6.6

>  <PUBCHEM_PHARMACOPHORE_FEATURES>  (1) 
3
1 11 hydrophobe
1 2 acceptor
1 3 cation

>  <PUBCHEM_HEAVY_ATOM_COUNT>  (1) 
11

>  <PUBCHEM_ATOM_DEF_STEREO_COUNT>  (1) 
0

>  <PUBCHEM_ATOM_UDEF_STEREO_COUNT>  (1) 
0

>  <PUBCHEM_BOND_DEF_STEREO_COUNT>  (1) 
0

>  <PUBCHEM_BOND_UDEF_STEREO_COUNT>  (1) 
0

>  <PUBCHEM_ISOTOPIC_ATOM_COUNT>  (1) 
0

>  <PUBCHEM_COMPONENT_COUNT>  (1) 
1

>  <PUBCHEM_CACTVS_TAUTO_COUNT>  (1) 
1

>  <PUBCHEM_CONFORMER_ID>  (1) 
00007D2700000001

>  <PUBCHEM_MMFF94_ENERGY>  (1) 
10.6883

>  <PUBCHEM_FEATURE_SELFOVERLAP>  (1) 
15.223

>  <PUBCHEM_SHAPE_FINGERPRINT>  (1) 
11062470 55 18410856563934789356
11287383 113 15913039967310323178
114248 4 15482670195286503876
12346645 44 18342741775887044899
12815109 37 9367348132683776080
14123238 8 18412262848044355604
17834076 25 13470690351740606852
18342897 14 18411419514146920480
187816 3 16845576426513812706
20279233 1 17022907826816221139
20645477 70 17346608422162724326
20671657 1 18119535580925841756
20719005 15 18411418423182801844
20767249 13 10015864271607291644
20828058 44 14201400490598048921
21119208 17 15482672385772663352
22485316 2 8646773283142027752
23402539 116 17489864934100479268
23402655 69 18271801281695154277
366044 4 18410291428270652610
42788 4 17632577158593277912
68521 5 9871481919138355322

>  <PUBCHEM_SHAPE_MULTIPOLES>  (1) 
209.66
10.62
0.95
0.7
4.2
0.2
-0.05
-1.78
-0.59
0.03
-0.06
-0.33
-0.05
-0.24

>  <PUBCHEM_SHAPE_SELFOVERLAP>  (1) 
394.025

>  <PUBCHEM_SHAPE_VOLUME>  (1) 
132.3

>  <PUBCHEM_COORDINATE_TYPE>  (1) 
2
5
10

$$$$
