32035
     RDKit          3D

 20 21  0  0  1  0  0  0  0  0999 V2000
    5.1736   -1.1336    0.3898 S   0  0  0  0  0  0  0  0  0  0  0  0
    2.3170    0.5539   -0.5914 O   0  0  0  0  0  0  0  0  0  0  0  0
   -0.3611    0.7902    1.1117 N   0  0  0  0  0  0  0  0  0  0  0  0
   -1.8149    0.6053    1.0755 C   0  0  0  0  0  0  0  0  0  0  0  0
   -2.1942   -0.2514   -0.1462 C   0  0  0  0  0  0  0  0  0  0  0  0
    0.1103    1.3843   -0.1281 C   0  0  0  0  0  0  0  0  0  0  0  0
   -2.2518   -0.0305    2.3953 C   0  0  0  0  0  0  0  0  0  0  0  0
   -3.6813   -0.4666   -0.2955 C   0  0  0  0  0  0  0  0  0  0  0  0
    1.6019    1.5891   -0.1203 C   0  0  0  0  0  0  0  0  0  0  0  0
   -4.2735   -1.5613    0.3140 C   0  0  0  0  0  0  0  0  0  0  0  0
   -4.4266    0.4346   -1.0389 C   0  0  0  0  0  0  0  0  0  0  0  0
    2.3710    2.6274    0.2744 C   0  0  0  0  0  0  0  0  0  0  0  0
    3.6152    0.9436   -0.4961 C   0  0  0  0  0  0  0  0  0  0  0  0
    3.7016    2.2114    0.0305 C   0  0  0  0  0  0  0  0  0  0  0  0
    4.6204   -0.0255   -0.9547 C   0  0  0  0  0  0  0  0  0  0  0  0
   -5.6472   -1.7600    0.1763 C   0  0  0  0  0  0  0  0  0  0  0  0
   -5.8004    0.2358   -1.1764 C   0  0  0  0  0  0  0  0  0  0  0  0
   -6.4106   -0.8615   -0.5688 C   0  0  0  0  0  0  0  0  0  0  0  0
    6.3495   -2.1169   -0.5645 C   0  0  0  0  0  0  0  0  0  0  0  0
    7.0012   -3.1682    0.3134 C   0  0  0  0  0  0  0  0  0  0  0  0
  1 15  1  0
  1 19  1  0
  2  9  1  0
  2 13  1  0
  3  4  1  0
  3  6  1  0
  4  5  1  0
  4  7  1  0
  5  8  1  0
  6  9  1  0
  8 10  2  0
  8 11  1  0
  9 12  2  0
 10 16  1  0
 11 17  2  0
 12 14  1  0
 13 14  2  0
 13 15  1  0
 16 18  2  0
 17 18  1  0
 19 20  1  0
M  END
>  <PUBCHEM_COMPOUND_CID>  (1) 
32035

>  <PUBCHEM_CONFORMER_RMSD>  (1) 
1

>  <PUBCHEM_CONFORMER_DIVERSEORDER>  (1) 
1
471
152
12
85
468
572
124
373
628
54
407
8
577
19
722
532
137
661
587
41
9
134
25
594
607
200
17
614
3
199
252
33
448
142
24
31
110
34
11
549
292
273
467
111
87
404
751
217
69
494
662
4
669
524
609
824
88
20
819
18
475
213
540
113
449
27
537
136
799
398
171
571
511
612
26
46
83
72
82
400
208
146
14
219
466
126
15
803
135
724
358
112
13
43
436
826
207
620
523
674
754
327
794
300
480
173
221
599
210
155
482
176
421
186
441
169
63
817
762
681
170
299
629
6
144
102
36
108
585
714
386
235
288
315
59
127
355
75
440
264
92
21
247
104
507
613
391
166
556
590
86
557
382
68
539
731
353
61
536
131
769
55
343
311
267
258
100
206
37
177
838
596
114
530
29
691
293
294
281
47
725
181
53
774
552
330
38
690
40
73
744
90
149

>  <PUBCHEM_MMFF94_PARTIAL_CHARGES>  (1) 
26
1 -0.46
10 -0.15
11 -0.15
12 -0.15
13 -0.04
14 -0.15
15 0.41
16 -0.15
17 -0.15
18 -0.15
19 0.23
2 -0.28
24 0.36
3 -0.9
30 0.15
31 0.15
32 0.15
33 0.15
36 0.15
37 0.15
38 0.15
4 0.27
5 0.14
6 0.45
8 -0.14
9 -0.04

>  <PUBCHEM_EFFECTIVE_ROTOR_COUNT>  (1) 
8

>  <PUBCHEM_PHARMACOPHORE_FEATURES>  (1) 
6
1 2 acceptor
1 20 hydrophobe
1 3 cation
1 3 donor
5 2 9 12 13 14 rings
6 8 10 11 16 17 18 rings

>  <PUBCHEM_HEAVY_ATOM_COUNT>  (1) 
20

>  <PUBCHEM_ATOM_DEF_STEREO_COUNT>  (1) 
0

>  <PUBCHEM_ATOM_UDEF_STEREO_COUNT>  (1) 
1

>  <PUBCHEM_BOND_DEF_STEREO_COUNT>  (1) 
0

>  <PUBCHEM_BOND_UDEF_STEREO_COUNT>  (1) 
0

>  <PUBCHEM_ISOTOPIC_ATOM_COUNT>  (1) 
0

>  <PUBCHEM_COMPONENT_COUNT>  (1) 
1

>  <PUBCHEM_CACTVS_TAUTO_COUNT>  (1) 
1

>  <PUBCHEM_CONFORMER_ID>  (1) 
00007D2300000001

>  <PUBCHEM_MMFF94_ENERGY>  (1) 
28.5219

>  <PUBCHEM_FEATURE_SELFOVERLAP>  (1) 
30.446

>  <PUBCHEM_SHAPE_FINGERPRINT>  (1) 
10447042 23 17988926716491913956
10670039 82 15357967924217621934
10753850 27 18411417285364764482
11858739 19 18410852174589080140
12892183 10 15410339819887130676
12895836 83 13190352274564297210
12954195 1 18115863019348213797
13533116 47 18272931665474026984
13668630 136 18408604747268756830
13782708 43 18197776803432408391
13955234 65 18055914535872073632
14931854 50 17386580046837092706
15183329 4 18040431066656932675
15188451 53 17561080272456708554
15475509 8 17022902320219930773
17349148 13 17632308907583644309
18222031 100 18202009807208433100
19784866 240 18413392016516255924
200 152 17560527299918362553
20028762 73 18060139817392307006
20621476 91 14836117767325100981
20645477 70 18336265725672604380
21033650 10 16805600313905452381
21315764 119 17749107772918201951
21585483 132 18269534174223628375
22061861 79 18335419092881083399
22079108 93 10519990365595699373
22224240 67 11815892357962380413
22849339 104 16154002355621585051
23198884 109 16588025714558366045
23402539 116 16128387003834558409
23536379 177 18411699928773202033
23559900 14 18336542819344972849
23622692 118 18340488868367838888
23929065 36 15625671496980172763
270888 7 9006762186897075014
3004659 81 18113615681983884334
3014063 24 18200872886220622398
3472631 163 11386376937076112906
38570 142 12035737470648197910
444769 64 18264215725321602545
465052 167 18342741823506283958
5104073 3 17847068782906755768
5207 123 18409167688784841180
531348 171 18341889693758250791
559249 180 18272089345093642009
5718773 13 18338795599260728798
59682541 35 11095873913507928741
59682541 52 18040984134065062639
6438161 24 18412818092694962271
76465 3 18412267208021931312
7970288 3 18339080368472347102
960060 61 17822296807702905188

>  <PUBCHEM_SHAPE_MULTIPOLES>  (1) 
404.59
18.55
2.7
1.27
4.49
0.58
-0.62
15.92
4.35
5.6
-0.17
-1.08
-0.05
0.06

>  <PUBCHEM_SHAPE_SELFOVERLAP>  (1) 
817.451

>  <PUBCHEM_SHAPE_VOLUME>  (1) 
239.5

>  <PUBCHEM_COORDINATE_TYPE>  (1) 
2
5
10

$$$$
