32030
     RDKit          3D

 16 18  0  0  0  0  0  0  0  0999 V2000
    0.4730   -1.5902    0.0013 S   0  0  0  0  0  0  0  0  0  0  0  0
   -1.5840    0.0736    0.0011 N   0  0  0  0  0  0  0  0  0  0  0  0
   -2.2957   -1.0728    0.0012 N   0  0  0  0  0  0  0  0  0  0  0  0
    0.6088    0.9853    0.0016 N   0  0  0  0  0  0  0  0  0  0  0  0
   -2.3743    1.1948   -0.0003 C   0  0  0  0  0  0  0  0  0  0  0  0
   -0.2248   -0.0286    0.0019 C   0  0  0  0  0  0  0  0  0  0  0  0
   -3.6735    0.7491   -0.0017 C   0  0  0  0  0  0  0  0  0  0  0  0
   -3.5642   -0.6544   -0.0004 C   0  0  0  0  0  0  0  0  0  0  0  0
    2.0432   -0.8779    0.0003 C   0  0  0  0  0  0  0  0  0  0  0  0
    1.9136    0.5143    0.0006 C   0  0  0  0  0  0  0  0  0  0  0  0
   -1.8255    2.5646   -0.0004 C   0  0  0  0  0  0  0  0  0  0  0  0
    3.2991   -1.5057   -0.0008 C   0  0  0  0  0  0  0  0  0  0  0  0
    3.0841    1.3036   -0.0001 C   0  0  0  0  0  0  0  0  0  0  0  0
   -4.6590   -1.6392   -0.0016 C   0  0  0  0  0  0  0  0  0  0  0  0
    4.4415   -0.7014   -0.0016 C   0  0  0  0  0  0  0  0  0  0  0  0
    4.3377    0.6852   -0.0012 C   0  0  0  0  0  0  0  0  0  0  0  0
  1  6  1  0
  1  9  1  0
  2  3  1  0
  2  5  1  0
  2  6  1  0
  3  8  2  0
  4  6  2  0
  4 10  1  0
  5  7  2  0
  5 11  1  0
  7  8  1  0
  8 14  1  0
  9 10  2  0
  9 12  1  0
 10 13  1  0
 12 15  2  0
 13 16  2  0
 15 16  1  0
M  END
>  <PUBCHEM_COMPOUND_CID>  (1) 
32030

>  <PUBCHEM_CONFORMER_RMSD>  (1) 
0.6

>  <PUBCHEM_CONFORMER_DIVERSEORDER>  (1) 
1
3
5
4
2

>  <PUBCHEM_MMFF94_PARTIAL_CHARGES>  (1) 
21
1 -0.08
10 0.23
11 0.18
12 -0.15
13 -0.15
14 0.18
15 -0.15
16 -0.15
17 0.15
2 0.65
21 0.15
22 0.15
26 0.15
27 0.15
3 -0.71
4 -0.57
5 -0.33
6 0.3
7 -0.15
8 0.11
9 0.04

>  <PUBCHEM_EFFECTIVE_ROTOR_COUNT>  (1) 
1

>  <PUBCHEM_PHARMACOPHORE_FEATURES>  (1) 
5
1 3 acceptor
3 2 4 6 cation
5 1 4 6 9 10 rings
5 2 3 5 7 8 rings
6 9 10 12 13 15 16 rings

>  <PUBCHEM_HEAVY_ATOM_COUNT>  (1) 
16

>  <PUBCHEM_ATOM_DEF_STEREO_COUNT>  (1) 
0

>  <PUBCHEM_ATOM_UDEF_STEREO_COUNT>  (1) 
0

>  <PUBCHEM_BOND_DEF_STEREO_COUNT>  (1) 
0

>  <PUBCHEM_BOND_UDEF_STEREO_COUNT>  (1) 
0

>  <PUBCHEM_ISOTOPIC_ATOM_COUNT>  (1) 
0

>  <PUBCHEM_COMPONENT_COUNT>  (1) 
1

>  <PUBCHEM_CACTVS_TAUTO_COUNT>  (1) 
1

>  <PUBCHEM_CONFORMER_ID>  (1) 
00007D1E00000001

>  <PUBCHEM_MMFF94_ENERGY>  (1) 
28.0854

>  <PUBCHEM_FEATURE_SELFOVERLAP>  (1) 
25.443

>  <PUBCHEM_SHAPE_FINGERPRINT>  (1) 
10608611 8 18411134697622453844
10616163 171 18412265004208031231
10967382 1 18338516472754825094
11471102 20 18410571782424078590
11615757 297 17846503642424638714
11806522 49 18335983142119454326
12032990 46 18411704278910207294
12403259 226 18411975854188131096
12916754 54 18342179946730164289
13167823 11 18411135831393645182
13675066 3 17988916739646531282
14144814 61 18410855430290244160
14325111 11 18410855443233259136
15196674 1 18410575076078425572
15442244 35 18121780530640527946
15536298 74 18341894078481996598
17492 89 18338516335306322603
17802600 8 18412258437139498224
18186145 218 18262236625575986190
18522853 276 18412262830722185025
19050596 39 18410575063214655313
19422 9 18410295783145574346
1986462 14 18408887299975894580
200 152 18272643563541970647
20261772 1 18059856224495266799
20510252 161 18342740697781838017
20645477 70 18412262805322062294
21267235 1 18410864269127594182
21501502 16 18337110047090790304
21652331 79 18411699915228728812
221490 88 18410863122819738538
2306618 200 18202006469628675169
23402539 116 18410287025928882103
23402655 69 18412260610276840660
23463225 33 18408886205096740124
23557571 272 18271815605105228741
23559900 14 18197774393507160810
2871803 45 18334570248493192919
3286 77 18335135384790384620
335352 9 17978509728681765140
3545911 37 18337391548022102933
4028521 119 18188202109673736061
42 15 18409449176398462242
4214541 1 18410856512400651424
474 4 17241617302472515076
4990 188 18130517357641120846
5104073 3 18411699867883726281
5283173 99 18115855344505192205
69090 78 18342736346953852942
77779 3 18411420592056877252
8809292 202 18261116287467455067
9709674 26 18410300194014294446

>  <PUBCHEM_SHAPE_MULTIPOLES>  (1) 
318.18
9.02
2.05
0.61
0.13
0.52
0
-1.74
-0.01
-0.91
0
0.02
-0.01
0

>  <PUBCHEM_SHAPE_SELFOVERLAP>  (1) 
690.076

>  <PUBCHEM_SHAPE_VOLUME>  (1) 
177

>  <PUBCHEM_COORDINATE_TYPE>  (1) 
2
5
10

$$$$
