3203
     RDKit          3D

 21 23  0  0  1  0  0  0  0  0999 V2000
    0.8846    4.3327    0.7558 Cl  0  0  0  0  0  0  0  0  0  0  0  0
   -0.7676   -2.2639    1.9211 F   0  0  0  0  0  0  0  0  0  0  0  0
    1.2217   -1.3831    2.1044 F   0  0  0  0  0  0  0  0  0  0  0  0
   -0.5518   -0.1495    2.4194 F   0  0  0  0  0  0  0  0  0  0  0  0
    0.3868   -2.0072   -0.4805 O   0  0  0  0  0  0  0  0  0  0  0  0
    1.9634   -3.2532   -1.5033 O   0  0  0  0  0  0  0  0  0  0  0  0
    2.4002   -1.0331   -1.1753 N   0  0  0  0  0  0  0  0  0  0  0  0
   -3.9342   -0.1251   -0.9937 C   0  0  0  0  0  0  0  0  0  0  0  0
   -4.8270    0.6915   -0.1126 C   0  0  0  0  0  0  0  0  0  0  0  0
   -4.3236    1.2601   -1.4068 C   0  0  0  0  0  0  0  0  0  0  0  0
   -0.0571   -0.8073    0.2150 C   0  0  0  0  0  0  0  0  0  0  0  0
   -2.5781   -0.3640   -0.5709 C   0  0  0  0  0  0  0  0  0  0  0  0
    0.8187    0.3973   -0.0456 C   0  0  0  0  0  0  0  0  0  0  0  0
   -1.4476   -0.5630   -0.2186 C   0  0  0  0  0  0  0  0  0  0  0  0
    2.0279    0.2333   -0.7191 C   0  0  0  0  0  0  0  0  0  0  0  0
   -0.0381   -1.1614    1.7087 C   0  0  0  0  0  0  0  0  0  0  0  0
    0.4775    1.6813    0.4124 C   0  0  0  0  0  0  0  0  0  0  0  0
    2.8831    1.3177   -0.9412 C   0  0  0  0  0  0  0  0  0  0  0  0
    1.6095   -2.1579   -1.0687 C   0  0  0  0  0  0  0  0  0  0  0  0
    1.3244    2.7685    0.1883 C   0  0  0  0  0  0  0  0  0  0  0  0
    2.5273    2.5863   -0.4886 C   0  0  0  0  0  0  0  0  0  0  0  0
  1 20  1  0
  2 16  1  0
  3 16  1  0
  4 16  1  0
  5 11  1  0
  5 19  1  0
  6 19  2  0
  7 15  1  0
  7 19  1  0
  8  9  1  0
  8 10  1  0
  8 12  1  0
  9 10  1  0
 11 13  1  0
 11 14  1  0
 11 16  1  0
 12 14  3  0
 13 15  2  0
 13 17  1  0
 15 18  1  0
 17 20  2  0
 18 21  2  0
 20 21  1  0
M  END
>  <PUBCHEM_COMPOUND_CID>  (1) 
3203

>  <PUBCHEM_CONFORMER_RMSD>  (1) 
0.6

>  <PUBCHEM_CONFORMER_DIVERSEORDER>  (1) 
2
1

>  <PUBCHEM_MMFF94_PARTIAL_CHARGES>  (1) 
29
1 -0.18
10 -0.2
11 0.62
12 -0.1
13 -0.14
14 -0.2
15 0.12
16 1.02
17 -0.15
18 -0.15
19 0.78
2 -0.34
20 0.18
21 -0.15
22 0.1
23 0.1
24 0.1
25 0.1
26 0.1
27 0.15
28 0.37
29 0.15
3 -0.34
30 0.15
4 -0.34
5 -0.43
6 -0.57
7 -0.55
9 -0.2

>  <PUBCHEM_EFFECTIVE_ROTOR_COUNT>  (1) 
2.2

>  <PUBCHEM_PHARMACOPHORE_FEATURES>  (1) 
4
1 6 acceptor
1 7 donor
6 13 15 17 18 20 21 rings
6 5 7 11 13 15 19 rings

>  <PUBCHEM_HEAVY_ATOM_COUNT>  (1) 
21

>  <PUBCHEM_ATOM_DEF_STEREO_COUNT>  (1) 
0

>  <PUBCHEM_ATOM_UDEF_STEREO_COUNT>  (1) 
1

>  <PUBCHEM_BOND_DEF_STEREO_COUNT>  (1) 
0

>  <PUBCHEM_BOND_UDEF_STEREO_COUNT>  (1) 
0

>  <PUBCHEM_ISOTOPIC_ATOM_COUNT>  (1) 
0

>  <PUBCHEM_COMPONENT_COUNT>  (1) 
1

>  <PUBCHEM_CACTVS_TAUTO_COUNT>  (1) 
2

>  <PUBCHEM_CONFORMER_ID>  (1) 
00000C8300000002

>  <PUBCHEM_MMFF94_ENERGY>  (1) 
45.0594

>  <PUBCHEM_FEATURE_SELFOVERLAP>  (1) 
20.321

>  <PUBCHEM_SHAPE_FINGERPRINT>  (1) 
10906281 52 18337409157836409524
11221954 11 17831574649768957885
116883 192 17768252306077029725
12716301 132 16733847409057502137
12730499 353 18339650065618125023
13004483 165 17908974410034460190
13009979 54 17416696734961485131
13134695 92 17757509089768297029
13294875 104 18041544919133180608
13464514 151 18334576858131291989
14004458 79 17480317672730554150
14142880 1 15821864386889595640
14614273 12 16544970243806366868
14817 1 16534208764769152386
15238133 3 17393029648616426741
16945 1 18343032115454688878
17980427 23 17836316693116318923
18721546 61 17328604825047487738
20511035 2 17827361291283192780
20600515 1 17253674232917285181
21120745 212 16527765592345052347
21503847 285 18265903454348395537
21524375 3 18046328997421029837
22112679 90 17107628255136099634
229495 10 17481442881142873879
23419403 2 17755063835916534683
23526113 38 18261967262148730195
238 59 18268995456537896301
25 1 18409169951942689853
2748010 2 17907034107049941612
298252 57 18196363947347054878
3060560 45 18272080643089039309
427121 178 17240482524662140233
539174 4 16088065794307984401
5895379 119 17983562019246135705
6442390 28 17750244754310017299

>  <PUBCHEM_SHAPE_MULTIPOLES>  (1) 
395.5
5.8
3.91
1.71
9.16
1.83
-1.04
3.15
3
-3.38
-0.02
0
-0.95
1.01

>  <PUBCHEM_SHAPE_SELFOVERLAP>  (1) 
853.216

>  <PUBCHEM_SHAPE_VOLUME>  (1) 
218.7

>  <PUBCHEM_COORDINATE_TYPE>  (1) 
2
5
10

$$$$
