32037
     RDKit          3D

 36 39  0  0  1  0  0  0  0  0999 V2000
   -1.5894    1.1734    1.7545 F   0  0  0  0  0  0  0  0  0  0  0  0
   -4.5016    2.2962   -1.3989 F   0  0  0  0  0  0  0  0  0  0  0  0
    2.4215    0.9539    0.3501 O   0  0  0  0  0  0  0  0  0  0  0  0
   -2.0716   -1.8746   -0.1267 O   0  0  0  0  0  0  0  0  0  0  0  0
    3.6361   -0.3701   -2.3364 O   0  0  0  0  0  0  0  0  0  0  0  0
    4.4322   -2.2369   -0.4704 O   0  0  0  0  0  0  0  0  0  0  0  0
    4.3509    1.6879   -0.6802 O   0  0  0  0  0  0  0  0  0  0  0  0
   -6.5054   -2.5848    0.5830 O   0  0  0  0  0  0  0  0  0  0  0  0
    3.8795   -3.9380    0.9917 O   0  0  0  0  0  0  0  0  0  0  0  0
    0.4578   -0.0348   -0.8248 C   0  0  0  0  0  0  0  0  0  0  0  0
   -0.2489    1.3415   -0.7578 C   0  0  0  0  0  0  0  0  0  0  0  0
   -1.7749    1.3534   -0.5858 C   0  0  0  0  0  0  0  0  0  0  0  0
   -2.1488    0.5095    0.6775 C   0  0  0  0  0  0  0  0  0  0  0  0
    1.9317    0.4726   -0.8995 C   0  0  0  0  0  0  0  0  0  0  0  0
    0.0682   -0.8263    0.4383 C   0  0  0  0  0  0  0  0  0  0  0  0
    0.3940    2.1400   -1.8862 C   0  0  0  0  0  0  0  0  0  0  0  0
   -1.4598   -0.8886    0.6860 C   0  0  0  0  0  0  0  0  0  0  0  0
   -3.7042    0.4965    0.9304 C   0  0  0  0  0  0  0  0  0  0  0  0
    1.8669    1.6737   -1.8738 C   0  0  0  0  0  0  0  0  0  0  0  0
   -2.5940    0.9992   -1.8348 C   0  0  0  0  0  0  0  0  0  0  0  0
    0.1696   -0.8825   -2.0899 C   0  0  0  0  0  0  0  0  0  0  0  0
   -4.0970    1.0058   -1.5701 C   0  0  0  0  0  0  0  0  0  0  0  0
   -4.4460    0.1711   -0.3634 C   0  0  0  0  0  0  0  0  0  0  0  0
    2.9580   -0.5357   -1.3235 C   0  0  0  0  0  0  0  0  0  0  0  0
   -4.1786    1.8808    1.4457 C   0  0  0  0  0  0  0  0  0  0  0  0
   -4.0597   -0.4702    2.0489 C   0  0  0  0  0  0  0  0  0  0  0  0
   -5.3413   -0.8239   -0.4684 C   0  0  0  0  0  0  0  0  0  0  0  0
    3.1054   -1.7552   -0.4387 C   0  0  0  0  0  0  0  0  0  0  0  0
   -4.9494   -1.4625    1.9490 C   0  0  0  0  0  0  0  0  0  0  0  0
    3.6553    1.5451    0.3159 C   0  0  0  0  0  0  0  0  0  0  0  0
   -5.6689   -1.6933    0.6819 C   0  0  0  0  0  0  0  0  0  0  0  0
    4.0259    1.9959    1.7103 C   0  0  0  0  0  0  0  0  0  0  0  0
    5.4074    2.6442    1.7533 C   0  0  0  0  0  0  0  0  0  0  0  0
    4.6922   -3.3449    0.2955 C   0  0  0  0  0  0  0  0  0  0  0  0
    5.7555    3.1224    3.1535 C   0  0  0  0  0  0  0  0  0  0  0  0
    6.1316   -3.7407    0.1637 C   0  0  0  0  0  0  0  0  0  0  0  0
  1 13  1  0
  2 22  1  0
  3 14  1  0
  3 30  1  0
  4 17  1  0
  5 24  2  0
  6 28  1  0
  6 34  1  0
  7 30  2  0
  8 31  2  0
  9 34  2  0
 10 11  1  0
 10 14  1  0
 10 15  1  0
 10 21  1  0
 11 12  1  0
 11 16  1  0
 12 13  1  0
 12 20  1  0
 13 17  1  0
 13 18  1  0
 14 19  1  0
 14 24  1  0
 15 17  1  0
 16 19  1  0
 18 23  1  0
 18 25  1  0
 18 26  1  0
 20 22  1  0
 22 23  1  0
 23 27  2  0
 24 28  1  0
 26 29  2  0
 27 31  1  0
 29 31  1  0
 30 32  1  0
 32 33  1  0
 33 35  1  0
 34 36  1  0
M  END
>  <PUBCHEM_COMPOUND_CID>  (1) 
32037

>  <PUBCHEM_CONFORMER_RMSD>  (1) 
1

>  <PUBCHEM_CONFORMER_DIVERSEORDER>  (1) 
3
123
56
137
142
15
130
107
58
7
60
39
110
69
94
126
75
13
1
124
117
95
105
12
146
14
135
132
42
106
129
62
11
98
163
115
22
166
109
162
73
118
116
108
160
102
37
83
78
122
152
100
29
114
9
61
31
84
144
133
81
159
111
35
167
65
91
151
33
28
93
125
121
82
68
143
4
136
25
77
149
63
66
40
53
88
32
20
17
134
45
23
74
128
44
155
19
2
72
96
164
76
71
86
6
54
161
120
43
8
87
89
147
85
168
52
70
55
156
154
57
27
157
104
10
141
92
49
36
99
64
158
50
46
112
90
165
48
148
21
59
47
18
153
131
79
139
51
41
145
30
150
24
38
127
101
140
103
80
138
26
113
119
5
16
67
97
34

>  <PUBCHEM_MMFF94_PARTIAL_CHARGES>  (1) 
29
1 -0.34
13 0.34
14 0.34
17 0.28
18 0.28
2 -0.34
22 0.48
23 -0.28
24 0.45
26 -0.29
27 -0.14
28 0.34
29 -0.14
3 -0.43
30 0.66
31 0.54
32 0.06
34 0.66
36 0.06
4 -0.68
5 -0.57
55 0.15
56 0.4
57 0.15
6 -0.43
60 0.15
7 -0.57
8 -0.57
9 -0.57

>  <PUBCHEM_EFFECTIVE_ROTOR_COUNT>  (1) 
9.4

>  <PUBCHEM_PHARMACOPHORE_FEATURES>  (1) 
11
1 35 hydrophobe
1 4 acceptor
1 4 donor
1 5 acceptor
1 7 acceptor
1 8 acceptor
1 9 acceptor
5 10 11 14 16 19 rings
6 10 11 12 13 15 17 rings
6 12 13 18 20 22 23 rings
6 18 23 26 27 29 31 rings

>  <PUBCHEM_HEAVY_ATOM_COUNT>  (1) 
36

>  <PUBCHEM_ATOM_DEF_STEREO_COUNT>  (1) 
5

>  <PUBCHEM_ATOM_UDEF_STEREO_COUNT>  (1) 
3

>  <PUBCHEM_BOND_DEF_STEREO_COUNT>  (1) 
0

>  <PUBCHEM_BOND_UDEF_STEREO_COUNT>  (1) 
0

>  <PUBCHEM_ISOTOPIC_ATOM_COUNT>  (1) 
0

>  <PUBCHEM_COMPONENT_COUNT>  (1) 
1

>  <PUBCHEM_CACTVS_TAUTO_COUNT>  (1) 
2

>  <PUBCHEM_CONFORMER_ID>  (1) 
00007D2500000003

>  <PUBCHEM_MMFF94_ENERGY>  (1) 
116.6399

>  <PUBCHEM_FEATURE_SELFOVERLAP>  (1) 
55.949

>  <PUBCHEM_SHAPE_FINGERPRINT>  (1) 
11578080 2 18201710714007673849
12120059 9 18263352755203364459
12422481 6 17843969139242675695
13224815 77 18059867159850858189
13533116 47 18411986866447322466
13540713 4 18189882159309631940
13782708 43 18337115570957154006
14739800 52 17417516013058689768
14910302 57 18040714753853154335
14950920 106 18201444636129010091
15064986 96 18265030536937168496
15510800 12 17603878835630248667
17349148 13 18200610132774032095
18393751 57 17981026824779633688
19315092 285 18272090474359156010
19377110 9 17132110268760523819
19841028 212 18411135870840304199
21033648 29 18410290328632736049
21033650 10 15792298076995115653
22182313 1 18041266691441707708
22393880 68 17603864451863713055
23559900 14 17896038754585552982
23569914 152 17462816832974704007
244849 19 18116971331411004052
2838139 119 16988562467893967648
32027 91 18118395159945333826
469060 322 18121201332783544053
508706 21 17095530569641123195
5104073 3 18201729427021024369
563151 74 18059002999730591778

>  <PUBCHEM_SHAPE_MULTIPOLES>  (1) 
685.23
14.52
3.78
2.37
0.02
2.52
0.35
4.47
7.14
-7.32
1.63
-0.9
-1.52
3.2

>  <PUBCHEM_SHAPE_SELFOVERLAP>  (1) 
1471.385

>  <PUBCHEM_SHAPE_VOLUME>  (1) 
377

>  <PUBCHEM_COORDINATE_TYPE>  (1) 
2
5
10

$$$$
