32038
     RDKit          3D

 13 12  0  0  0  0  0  0  0  0999 V2000
    2.5387   -0.3909   -0.1315 O   0  0  0  0  0  0  0  0  0  0  0  0
   -0.9778    0.2438   -0.0900 O   0  0  0  0  0  0  0  0  0  0  0  0
    0.2147   -1.7354    0.1527 O   0  0  0  0  0  0  0  0  0  0  0  0
   -2.3782   -1.5706    0.2301 O   0  0  0  0  0  0  0  0  0  0  0  0
    3.6977    0.4202   -0.2943 C   0  0  0  0  0  0  0  0  0  0  0  0
    3.7351    1.4671    0.8086 C   0  0  0  0  0  0  0  0  0  0  0  0
    4.9347   -0.4648   -0.2780 C   0  0  0  0  0  0  0  0  0  0  0  0
    1.3501    0.3713   -0.1986 C   0  0  0  0  0  0  0  0  0  0  0  0
    0.1506   -0.5264   -0.0216 C   0  0  0  0  0  0  0  0  0  0  0  0
   -3.3042    0.6052   -0.0539 C   0  0  0  0  0  0  0  0  0  0  0  0
   -2.1822   -0.3760    0.0479 C   0  0  0  0  0  0  0  0  0  0  0  0
   -4.6883    0.0422    0.0822 C   0  0  0  0  0  0  0  0  0  0  0  0
   -3.0908    1.9143   -0.2535 C   0  0  0  0  0  0  0  0  0  0  0  0
  1  5  1  0
  1  8  1  0
  2  9  1  0
  2 11  1  0
  3  9  2  0
  4 11  2  0
  5  6  1  0
  5  7  1  0
  8  9  1  0
 10 11  1  0
 10 12  1  0
 10 13  2  0
M  END
>  <PUBCHEM_COMPOUND_CID>  (1) 
32038

>  <PUBCHEM_CONFORMER_RMSD>  (1) 
0.6

>  <PUBCHEM_CONFORMER_DIVERSEORDER>  (1) 
1
150
164
154
43
83
33
124
151
137
22
24
132
31
155
147
4
131
72
30
161
158
126
159
113
85
94
87
37
27
40
149
145
81
171
51
121
2
156
62
53
38
166
170
148
111
146
162
23
80
76
140
50
120
172
104
41
106
45
163
3
91
25
34
167
5
133
79
108
15
64
90
35
157
65
28
11
52
78
169
63
160
54
138
110
139
118
125
128
117
143
67
66
9
13
130
122
144
136
152
29
116
93
99
82
129
39
134
89
112
12
86
88
58
98
17
16
70
77
103
42
84
20
101
153
141
73
55
142
97
135
102
168
36
56
92
57
165
8
107
44
123
18
47
105
75
19
49
59
10
32
61
60
119
6
14
21
115
68
46
69
127
48
95
114
71
7
74
109
100
96
26

>  <PUBCHEM_MMFF94_PARTIAL_CHARGES>  (1) 
13
1 -0.56
10 -0.12
11 0.71
12 0.14
13 -0.3
2 -0.3
26 0.15
27 0.15
3 -0.57
4 -0.57
5 0.28
8 0.34
9 0.66

>  <PUBCHEM_EFFECTIVE_ROTOR_COUNT>  (1) 
6

>  <PUBCHEM_PHARMACOPHORE_FEATURES>  (1) 
4
1 1 acceptor
1 3 acceptor
1 4 acceptor
3 5 6 7 hydrophobe

>  <PUBCHEM_HEAVY_ATOM_COUNT>  (1) 
13

>  <PUBCHEM_ATOM_DEF_STEREO_COUNT>  (1) 
0

>  <PUBCHEM_ATOM_UDEF_STEREO_COUNT>  (1) 
0

>  <PUBCHEM_BOND_DEF_STEREO_COUNT>  (1) 
0

>  <PUBCHEM_BOND_UDEF_STEREO_COUNT>  (1) 
0

>  <PUBCHEM_ISOTOPIC_ATOM_COUNT>  (1) 
0

>  <PUBCHEM_COMPONENT_COUNT>  (1) 
1

>  <PUBCHEM_CACTVS_TAUTO_COUNT>  (1) 
1

>  <PUBCHEM_CONFORMER_ID>  (1) 
00007D2600000001

>  <PUBCHEM_MMFF94_ENERGY>  (1) 
23.0114

>  <PUBCHEM_FEATURE_SELFOVERLAP>  (1) 
20.316

>  <PUBCHEM_SHAPE_FINGERPRINT>  (1) 
10608611 8 18341891948051831720
11543360 7 16343692274719596812
12346645 44 18335137566338521123
13081056 2 18341894099519295008
13380535 76 18334860502509858539
14252887 29 13695583331047652824
14325111 11 18410575102122587934
14897335 6 18408601435822376967
15242439 84 18342179964379492934
17834072 8 18343025463178069190
18186145 218 18131359613348958968
200 152 16486976167959925248
20279233 1 18130797758359179118
20645477 56 18410578374966743373
20645477 70 17418103066231348174
212847 35 18409731764252010332
23402539 116 18410568501232569119
23402655 69 17989208157525357708
23559900 14 18272652368472905616
351380 180 18272366473278774904
366044 4 18408886239361955178
6430166 295 18409164385881098380

>  <PUBCHEM_SHAPE_MULTIPOLES>  (1) 
244.06
9.9
1.52
0.67
3.59
0.16
0.03
1.95
-0.06
-0.49
0.12
0.23
0.1
0.58

>  <PUBCHEM_SHAPE_SELFOVERLAP>  (1) 
469.155

>  <PUBCHEM_SHAPE_VOLUME>  (1) 
149.3

>  <PUBCHEM_COORDINATE_TYPE>  (1) 
2
5
10

$$$$
