32036
     RDKit          3D

 40 42  0  0  1  0  0  0  0  0999 V2000
   -2.1595    2.2289   -1.6678 O   0  0  0  0  0  0  0  0  0  0  0  0
    0.2519    1.0809   -1.7563 O   0  0  0  0  0  0  0  0  0  0  0  0
   -3.4086    2.8854    0.2808 O   0  0  0  0  0  0  0  0  0  0  0  0
    0.8697   -1.3383   -0.6123 O   0  0  0  0  0  0  0  0  0  0  0  0
   -4.6915   -0.6296    1.8540 O   0  0  0  0  0  0  0  0  0  0  0  0
    0.6772   -3.5816   -1.0919 O   0  0  0  0  0  0  0  0  0  0  0  0
    4.3154    0.6974   -0.0691 O   0  0  0  0  0  0  0  0  0  0  0  0
    1.7638   -3.1345    2.0815 O   0  0  0  0  0  0  0  0  0  0  0  0
   -3.8103   -0.7041   -0.2672 N   0  0  0  0  0  0  0  0  0  0  0  0
   -0.4748    2.2732    0.6282 N   0  0  0  0  0  0  0  0  0  0  0  0
   -2.4097    1.0560    2.3030 N   0  0  0  0  0  0  0  0  0  0  0  0
   -5.2259   -2.4215    0.4739 N   0  0  0  0  0  0  0  0  0  0  0  0
   -3.0654    0.5432   -0.1350 C   0  0  0  0  0  0  0  0  0  0  0  0
   -2.1624    0.8120   -1.4042 C   0  0  0  0  0  0  0  0  0  0  0  0
   -0.7270    0.4023   -0.9717 C   0  0  0  0  0  0  0  0  0  0  0  0
   -2.0426    0.4000    1.0528 C   0  0  0  0  0  0  0  0  0  0  0  0
   -0.6706    0.8406    0.5055 C   0  0  0  0  0  0  0  0  0  0  0  0
   -4.1012    1.6634    0.0838 C   0  0  0  0  0  0  0  0  0  0  0  0
   -2.6501    0.1647   -2.7030 C   0  0  0  0  0  0  0  0  0  0  0  0
   -0.4290   -1.0981   -1.1136 C   0  0  0  0  0  0  0  0  0  0  0  0
   -5.0358    1.7853   -1.1015 C   0  0  0  0  0  0  0  0  0  0  0  0
   -4.5845   -1.2038    0.7661 C   0  0  0  0  0  0  0  0  0  0  0  0
    0.7626    2.8821    0.5479 C   0  0  0  0  0  0  0  0  0  0  0  0
    1.9335    2.1249    0.3404 C   0  0  0  0  0  0  0  0  0  0  0  0
    0.8937    4.2802    0.6728 C   0  0  0  0  0  0  0  0  0  0  0  0
    1.3088   -2.6306   -0.6582 C   0  0  0  0  0  0  0  0  0  0  0  0
   -5.0835   -3.0814   -0.8216 C   0  0  0  0  0  0  0  0  0  0  0  0
   -6.0728   -3.1018    1.4447 C   0  0  0  0  0  0  0  0  0  0  0  0
    3.1829    2.7400    0.2610 C   0  0  0  0  0  0  0  0  0  0  0  0
    2.1430    4.8953    0.5933 C   0  0  0  0  0  0  0  0  0  0  0  0
    2.6807   -2.7491   -0.1031 C   0  0  0  0  0  0  0  0  0  0  0  0
    3.2875    4.1253    0.3876 C   0  0  0  0  0  0  0  0  0  0  0  0
    4.3770    1.9376    0.0473 C   0  0  0  0  0  0  0  0  0  0  0  0
    3.7665   -2.6090   -0.9464 C   0  0  0  0  0  0  0  0  0  0  0  0
    2.8336   -2.9972    1.2481 C   0  0  0  0  0  0  0  0  0  0  0  0
    5.7456    2.6042   -0.0394 C   0  0  0  0  0  0  0  0  0  0  0  0
    5.0531   -2.7210   -0.4193 C   0  0  0  0  0  0  0  0  0  0  0  0
    3.6085   -2.3408   -2.4078 C   0  0  0  0  0  0  0  0  0  0  0  0
    4.1204   -3.1093    1.7752 C   0  0  0  0  0  0  0  0  0  0  0  0
    5.2300   -2.9711    0.9413 C   0  0  0  0  0  0  0  0  0  0  0  0
  1 14  1  0
  2 15  1  0
  3 18  1  0
  4 20  1  0
  4 26  1  0
  5 22  2  0
  6 26  2  0
  7 33  2  0
  8 35  1  0
  9 13  1  0
  9 22  1  0
 10 17  1  0
 10 23  1  0
 11 16  1  0
 12 22  1  0
 12 27  1  0
 12 28  1  0
 13 14  1  0
 13 16  1  0
 13 18  1  0
 14 15  1  0
 14 19  1  0
 15 17  1  0
 15 20  1  0
 16 17  1  0
 18 21  1  0
 23 24  2  0
 23 25  1  0
 24 29  1  0
 25 30  2  0
 26 31  1  0
 29 32  2  0
 29 33  1  0
 30 32  1  0
 31 34  2  0
 31 35  1  0
 33 36  1  0
 34 37  1  0
 34 38  1  0
 35 39  2  0
 37 40  2  0
 39 40  1  0
M  END
>  <PUBCHEM_COMPOUND_CID>  (1) 
32036

>  <PUBCHEM_CONFORMER_RMSD>  (1) 
1.2

>  <PUBCHEM_CONFORMER_DIVERSEORDER>  (1) 
4
386
247
224
371
267
227
135
344
283
322
42
150
190
164
320
459
235
314
452
296
158
7
239
460
222
195
28
358
61
88
9
360
115
405
105
120
329
102
489
152
246
304
118
392
315
432
456
401
321
471
157
415
366
457
336
93
212
231
342
107
139
243
367
294
144
429
340
221
477
337
65
257
475
274
448
372
491
85
430
98
271
249
175
82
444
479
79
423
192
54
377
194
161
86
495
163
230
30
270
179
445
383
349
407
317
5
341
311
258
47
393
213
172
285
458
316
293
101
74
266
124
262
364
199
263
398
20
325
368
385
492
324
414
63
173
69
287
256
234
428
177
60
46
338
216
147
303
449
131
70
97
130
389
319
80
330
397
240
327
29
472
255
18
214
483
310
219
155
26
323
406
298
313
466
148
281
104
36
226
334
72
297
390
44
16
22
438
73
333
254
207
488
109
453
482
223
306
40
291
425
189
96
146
159
427
365
437
205
431
171
31
136
201
362
197
198
305
11
128
400
203
126
169
413
113
376
487
91
269
114
196
450
264
99
225
50
174
352
33
300
21
410
439
451
381
353
49
176
208
106
302
75
399
418
193
215
13
77
211
188
132
447
289
275
180
467
228
185
95
301
379
3
125
473
286
433
202
485
112
420
404
290
37
143
380
236
110
251
343
248
309
244
34
66
1
260
490
90
253
422
308
210
134
419
6
480
183
354
328
351
122
62
8
167
284
408
25
474
41
465
200
133
145
151
206
233
441
32
64
27
355
272
478
373
218
276
17
39
24
273
359
142
48
187
238
81
232
127
57
123
111
129
350
436
369
168
78
446
138
326
417
76
166
94
455
83
395
378
121
119
87
411
403
335
137
38
356
318
153
71
280
288
481
160
261
103
186
402
23
278
100
245
493
464
154
43
140
339
2
52
331
68
279
237
391
108
470
374
204
45
92
268
84
476
440
332
426
259
357
486
182
347
191
89
116
388
484
59
375
277
10
220
312
292
117
217
15
299
424
463
242
345
241
12
412
56
178
434
435
469
387
156
149
14
141
250
462
19
170
295
346
252
53
384
461
282
162
468
421
409
370
35
165
396
307
442
348
55
382
454
363
51
361
416
443
394
58
181
67
494
209
229
184
265

>  <PUBCHEM_MMFF94_PARTIAL_CHARGES>  (1) 
53
1 -0.68
10 -0.87
11 -0.99
12 -0.66
13 0.3
14 0.28
15 0.28
16 0.27
17 0.37
18 0.28
2 -0.68
20 0.28
22 0.69
23 0.1
24 -0.15
25 -0.15
26 0.63
27 0.3
28 0.3
29 0.09
3 -0.68
30 -0.15
31 0.09
32 -0.15
33 0.42
34 -0.14
35 0.08
36 0.06
37 -0.15
38 0.14
39 -0.15
4 -0.43
40 -0.15
49 0.37
5 -0.57
50 0.4
51 0.36
52 0.36
53 0.4
54 0.4
58 0.4
59 0.15
6 -0.57
60 0.15
67 0.15
68 0.15
7 -0.57
72 0.15
76 0.15
77 0.15
78 0.45
8 -0.53
9 -0.73

>  <PUBCHEM_EFFECTIVE_ROTOR_COUNT>  (1) 
12

>  <PUBCHEM_PHARMACOPHORE_FEATURES>  (1) 
18
1 1 acceptor
1 1 donor
1 10 cation
1 10 donor
1 11 cation
1 11 donor
1 2 acceptor
1 2 donor
1 3 acceptor
1 3 donor
1 5 acceptor
1 6 acceptor
1 7 acceptor
1 8 donor
1 9 donor
5 13 14 15 16 17 rings
6 23 24 25 29 30 32 rings
6 31 34 35 37 39 40 rings

>  <PUBCHEM_HEAVY_ATOM_COUNT>  (1) 
40

>  <PUBCHEM_ATOM_DEF_STEREO_COUNT>  (1) 
3

>  <PUBCHEM_ATOM_UDEF_STEREO_COUNT>  (1) 
3

>  <PUBCHEM_BOND_DEF_STEREO_COUNT>  (1) 
0

>  <PUBCHEM_BOND_UDEF_STEREO_COUNT>  (1) 
0

>  <PUBCHEM_ISOTOPIC_ATOM_COUNT>  (1) 
0

>  <PUBCHEM_COMPONENT_COUNT>  (1) 
1

>  <PUBCHEM_CACTVS_TAUTO_COUNT>  (1) 
52

>  <PUBCHEM_CONFORMER_ID>  (1) 
00007D2400000004

>  <PUBCHEM_MMFF94_ENERGY>  (1) 
164.4164

>  <PUBCHEM_FEATURE_SELFOVERLAP>  (1) 
91.446

>  <PUBCHEM_SHAPE_FINGERPRINT>  (1) 
10032420 55 17821729394967883083
10290309 65 18123463040966351097
10675989 125 16536226287550531333
11578080 2 17968083193323516901
12788726 201 17687751540748264280
13583140 156 18412544332044089613
14020679 6 17976553710692512361
14028597 1 17559415731990047569
140371 6 17909547259670408548
14725015 67 17548402062171083770
14910700 183 17691412232296893729
14955137 171 18269838619106696886
15001296 14 18338797815205059336
15200665 1 17618785099292858506
15775530 1 18188195529873827909
15927050 60 17982171420330501158
18393751 57 17617939575268694089
20028762 73 17837490022288936975
21703447 108 18336542815661766267
23559900 14 18339353072697843961
3298306 158 18337107968780585468
392239 28 18336834070004996002
4015057 19 18266158570936633877
42626532 9 17623317990513831094
45266715 3 17897992771812584715
5309563 4 18411421679105674520
613672 6 18125997170307033030
86090 222 17896612866916832227

>  <PUBCHEM_SHAPE_MULTIPOLES>  (1) 
756.3
12.26
6.56
1.87
5.56
2.07
0.35
-6.82
-2
-6.74
-1.5
0.76
-1.05
1.06

>  <PUBCHEM_SHAPE_SELFOVERLAP>  (1) 
1612.935

>  <PUBCHEM_SHAPE_VOLUME>  (1) 
418.8

>  <PUBCHEM_COORDINATE_TYPE>  (1) 
2
5
10

$$$$
