32043
     RDKit          3D

 22 25  0  0  0  0  0  0  0  0999 V2000
    1.9421    2.9960    0.3148 O   0  0  0  0  0  0  0  0  0  0  0  0
   -4.0366   -0.4925    0.2448 N   0  0  0  0  0  0  0  0  0  0  0  0
    0.0388    2.4335   -0.7778 N   0  0  0  0  0  0  0  0  0  0  0  0
   -1.2709   -0.1600   -0.5123 C   0  0  0  0  0  0  0  0  0  0  0  0
   -2.2317    0.9951   -0.5897 C   0  0  0  0  0  0  0  0  0  0  0  0
   -1.9286   -1.5110   -0.5835 C   0  0  0  0  0  0  0  0  0  0  0  0
   -3.3730    0.8109    0.4168 C   0  0  0  0  0  0  0  0  0  0  0  0
   -3.0814   -1.5992    0.4230 C   0  0  0  0  0  0  0  0  0  0  0  0
    0.0508   -0.0001   -0.3606 C   0  0  0  0  0  0  0  0  0  0  0  0
    0.8865   -1.2421   -0.2993 C   0  0  0  0  0  0  0  0  0  0  0  0
    0.6114    1.3127   -0.2313 C   0  0  0  0  0  0  0  0  0  0  0  0
    1.8803   -1.4349    0.6904 C   0  0  0  0  0  0  0  0  0  0  0  0
    2.1577   -0.4169    1.7799 C   0  0  0  0  0  0  0  0  0  0  0  0
    2.7517    0.8877    1.2376 C   0  0  0  0  0  0  0  0  0  0  0  0
    1.7634    1.6472    0.4423 C   0  0  0  0  0  0  0  0  0  0  0  0
   -5.1528   -0.6250    1.1810 C   0  0  0  0  0  0  0  0  0  0  0  0
    0.7241   -2.2303   -1.2917 C   0  0  0  0  0  0  0  0  0  0  0  0
    2.6504   -2.6130    0.6739 C   0  0  0  0  0  0  0  0  0  0  0  0
    0.8696    3.3905   -0.4271 C   0  0  0  0  0  0  0  0  0  0  0  0
    1.4981   -3.3914   -1.2910 C   0  0  0  0  0  0  0  0  0  0  0  0
    2.4584   -3.5842   -0.3066 C   0  0  0  0  0  0  0  0  0  0  0  0
    0.7918    4.8270   -0.7338 C   0  0  0  0  0  0  0  0  0  0  0  0
  1 15  1  0
  1 19  1  0
  2  7  1  0
  2  8  1  0
  2 16  1  0
  3 11  1  0
  3 19  2  0
  4  5  1  0
  4  6  1  0
  4  9  2  3
  5  7  1  0
  6  8  1  0
  9 10  1  0
  9 11  1  0
 10 12  2  0
 10 17  1  0
 11 15  2  0
 12 13  1  0
 12 18  1  0
 13 14  1  0
 14 15  1  0
 17 20  2  0
 18 21  2  0
 19 22  1  0
 20 21  1  0
M  END
>  <PUBCHEM_COMPOUND_CID>  (1) 
32043

>  <PUBCHEM_CONFORMER_RMSD>  (1) 
0.6

>  <PUBCHEM_CONFORMER_DIVERSEORDER>  (1) 
1
4
2
3

>  <PUBCHEM_MMFF94_PARTIAL_CHARGES>  (1) 
26
1 -0.28
10 0.03
11 0.18
12 -0.14
13 0.14
14 0.18
15 -0.04
16 0.27
17 -0.15
18 -0.15
19 0.3
2 -0.81
20 -0.15
21 -0.15
22 0.18
3 -0.57
38 0.15
39 0.15
4 -0.28
40 0.15
41 0.15
5 0.14
6 0.14
7 0.27
8 0.27
9 0.02

>  <PUBCHEM_EFFECTIVE_ROTOR_COUNT>  (1) 
1.4

>  <PUBCHEM_PHARMACOPHORE_FEATURES>  (1) 
5
1 2 cation
5 1 3 11 15 19 rings
6 10 12 17 18 20 21 rings
6 2 4 5 6 7 8 rings
7 9 10 11 12 13 14 15 rings

>  <PUBCHEM_HEAVY_ATOM_COUNT>  (1) 
22

>  <PUBCHEM_ATOM_DEF_STEREO_COUNT>  (1) 
0

>  <PUBCHEM_ATOM_UDEF_STEREO_COUNT>  (1) 
0

>  <PUBCHEM_BOND_DEF_STEREO_COUNT>  (1) 
0

>  <PUBCHEM_BOND_UDEF_STEREO_COUNT>  (1) 
0

>  <PUBCHEM_ISOTOPIC_ATOM_COUNT>  (1) 
0

>  <PUBCHEM_COMPONENT_COUNT>  (1) 
1

>  <PUBCHEM_CACTVS_TAUTO_COUNT>  (1) 
1

>  <PUBCHEM_CONFORMER_ID>  (1) 
00007D2B00000001

>  <PUBCHEM_MMFF94_ENERGY>  (1) 
67.0601

>  <PUBCHEM_FEATURE_SELFOVERLAP>  (1) 
25.421

>  <PUBCHEM_SHAPE_FINGERPRINT>  (1) 
108634 29 17116905929861114175
1100329 8 16103889115652045431
11578080 2 16806147861973963422
12422481 6 18125693761496623906
12553582 1 18339072692616339278
12633257 1 17968925521987816099
12716301 132 17185014086890972658
12788726 201 17757570559166878874
12954195 1 16462212228519866380
13140716 1 18050288364673068785
14022347 108 17901664861011179961
14178342 30 18270667787969984979
14223421 5 18335139855914799019
14363568 33 18412826885046677984
14790565 3 18265900331617612116
14955137 171 18336549421189605328
15420108 30 18130491020453554278
1601671 61 18411420626685725528
16945 1 18191289662467067270
17357779 13 17693073194164501445
19049666 15 17118311110106686222
19591789 44 18338510958687009444
20157964 124 18338793529349840159
20510252 161 17332806050382133830
20600515 1 17606941915789487420
20739085 24 18411136944048332760
21452121 99 17112974063743749658
21524375 3 17834115621087558957
22182313 1 17483090680555276122
2255824 54 18266184009505623301
23557571 272 17478891585308228622
23559900 14 18410860979868389243
2748010 2 18124010365711808740
283562 15 15885738320567870152
3091708 16 9070762550440023351
31174 14 18334015012548766695
3380486 145 18194654047883832567
352729 6 17548117283700183118
3610482 184 16308813820773897132
394222 165 17901946666621752033
4409770 3 17400366646246946735
44317340 157 9870922174343575523
5283268 108 18266461992795092385
7097593 13 18413388739746424635
7364860 26 18412269462378478415
81228 2 17690271621314860565

>  <PUBCHEM_SHAPE_MULTIPOLES>  (1) 
436.92
5.8
5.2
1.24
7.08
5.77
-0.2
-5.23
-2.45
-2.72
1.68
-0.42
-0.28
1.19

>  <PUBCHEM_SHAPE_SELFOVERLAP>  (1) 
958.247

>  <PUBCHEM_SHAPE_VOLUME>  (1) 
236.4

>  <PUBCHEM_COORDINATE_TYPE>  (1) 
2
5
10

$$$$
