3204
     RDKit          3D

 45 49  0  0  1  0  0  0  0  0999 V2000
    4.6749   -0.3634    0.6934 P   0  0  0  0  0  0  0  0  0  0  0  0
    4.5559   -0.5089   -0.9246 O   0  0  0  0  0  0  0  0  0  0  0  0
    5.8478    0.7625    0.7933 O   0  0  0  0  0  0  0  0  0  0  0  0
    5.0925   -1.6604    1.3392 O   0  0  0  0  0  0  0  0  0  0  0  0
   -0.7628    1.3327   -0.8958 O   0  0  0  0  0  0  0  0  0  0  0  0
    0.6173    3.1161   -1.4195 O   0  0  0  0  0  0  0  0  0  0  0  0
   -0.9172   -4.4478    0.7290 O   0  0  0  0  0  0  0  0  0  0  0  0
   -0.6214   -2.8892    2.2463 O   0  0  0  0  0  0  0  0  0  0  0  0
   -0.4383   -3.3461    1.0920 N   0  0  0  0  0  0  0  0  0  0  0  0
   -3.5072    0.7007   -0.7661 N   0  0  0  0  0  0  0  0  0  0  0  0
    6.7974    0.3331   -1.4184 C   0  0  0  0  0  0  0  0  0  0  0  0
    3.2223    0.4784    1.1634 C   0  0  0  0  0  0  0  0  0  0  0  0
    2.2126    0.6867    0.0469 C   0  0  0  0  0  0  0  0  0  0  0  0
    5.7556   -0.7829   -1.6430 C   0  0  0  0  0  0  0  0  0  0  0  0
    7.0609    0.5021    0.0927 C   0  0  0  0  0  0  0  0  0  0  0  0
    3.0131    0.9257    2.4164 C   0  0  0  0  0  0  0  0  0  0  0  0
    1.1055    1.6680    0.3922 C   0  0  0  0  0  0  0  0  0  0  0  0
    1.7674    1.6900    2.7951 C   0  0  0  0  0  0  0  0  0  0  0  0
    0.8794    2.1155    1.6437 C   0  0  0  0  0  0  0  0  0  0  0  0
    6.2657    1.6576   -1.9990 C   0  0  0  0  0  0  0  0  0  0  0  0
    8.1067   -0.0376   -2.1284 C   0  0  0  0  0  0  0  0  0  0  0  0
    1.6311   -0.6349   -0.3613 C   0  0  0  0  0  0  0  0  0  0  0  0
    3.9825    0.7180    3.5477 C   0  0  0  0  0  0  0  0  0  0  0  0
   -0.2216    3.0541    2.0668 C   0  0  0  0  0  0  0  0  0  0  0  0
    0.3095    2.1470   -0.7535 C   0  0  0  0  0  0  0  0  0  0  0  0
    0.8761   -1.3660    0.5491 C   0  0  0  0  0  0  0  0  0  0  0  0
    1.8513   -1.1158   -1.6473 C   0  0  0  0  0  0  0  0  0  0  0  0
    0.3346   -2.5939    0.1687 C   0  0  0  0  0  0  0  0  0  0  0  0
    1.3098   -2.3435   -2.0276 C   0  0  0  0  0  0  0  0  0  0  0  0
    0.5513   -3.0825   -1.1198 C   0  0  0  0  0  0  0  0  0  0  0  0
   -1.6387    1.6706   -1.9761 C   0  0  0  0  0  0  0  0  0  0  0  0
   -2.7918    0.6822   -2.0207 C   0  0  0  0  0  0  0  0  0  0  0  0
   -3.2202   -0.3438    0.2180 C   0  0  0  0  0  0  0  0  0  0  0  0
   -4.4676    1.6827   -0.4875 C   0  0  0  0  0  0  0  0  0  0  0  0
   -4.2444   -1.4415    0.1357 C   0  0  0  0  0  0  0  0  0  0  0  0
   -4.3136    2.5286    0.6166 C   0  0  0  0  0  0  0  0  0  0  0  0
   -5.5901    1.8262   -1.3107 C   0  0  0  0  0  0  0  0  0  0  0  0
   -5.3952   -1.3644    0.9096 C   0  0  0  0  0  0  0  0  0  0  0  0
   -4.0277   -2.5189   -0.7135 C   0  0  0  0  0  0  0  0  0  0  0  0
   -5.2699    3.5054    0.8941 C   0  0  0  0  0  0  0  0  0  0  0  0
   -6.5464    2.8032   -1.0332 C   0  0  0  0  0  0  0  0  0  0  0  0
   -6.3862    3.6427    0.0692 C   0  0  0  0  0  0  0  0  0  0  0  0
   -6.3456   -2.3826    0.8332 C   0  0  0  0  0  0  0  0  0  0  0  0
   -4.9783   -3.5370   -0.7899 C   0  0  0  0  0  0  0  0  0  0  0  0
   -6.1371   -3.4687   -0.0166 C   0  0  0  0  0  0  0  0  0  0  0  0
  1  2  1  0
  1  3  1  0
  1  4  2  0
  1 12  1  0
  2 14  1  0
  3 15  1  0
  5 25  1  0
  5 31  1  0
  6 25  2  0
  7  9  1  0
  8  9  2  0
  9 28  1  0
 10 32  1  0
 10 33  1  0
 10 34  1  0
 11 14  1  0
 11 15  1  0
 11 20  1  0
 11 21  1  0
 12 13  1  0
 12 16  2  0
 13 17  1  0
 13 22  1  0
 16 18  1  0
 16 23  1  0
 17 19  2  0
 17 25  1  0
 18 19  1  0
 19 24  1  0
 22 26  2  0
 22 27  1  0
 26 28  1  0
 27 29  2  0
 28 30  2  0
 29 30  1  0
 31 32  1  0
 33 35  1  0
 34 36  2  0
 34 37  1  0
 35 38  2  0
 35 39  1  0
 36 40  1  0
 37 41  2  0
 38 43  1  0
 39 44  2  0
 40 42  2  0
 41 42  1  0
 43 45  2  0
 44 45  1  0
M  CHG  2   7  -1   9   1
M  END
>  <PUBCHEM_COMPOUND_CID>  (1) 
3204

>  <PUBCHEM_CONFORMER_RMSD>  (1) 
1.2

>  <PUBCHEM_CONFORMER_DIVERSEORDER>  (1) 
1
226
210
217
24
173
253
240
386
178
145
66
165
47
73
200
318
281
265
12
99
233
256
348
169
121
381
153
224
75
266
52
215
154
45
271
172
382
156
231
69
159
308
182
286
64
188
301
82
246
368
314
345
189
373
114
3
202
300
234
167
254
371
244
112
25
143
319
263
17
31
151
214
241
30
71
107
81
378
179
340
76
297
106
54
130
206
322
344
285
398
211
397
115
235
396
101
379
384
168
273
148
93
311
4
222
316
394
49
359
80
278
163
65
92
34
369
219
221
203
312
245
174
98
360
39
95
393
333
304
51
270
321
198
366
376
356
388
325
102
190
338
42
232
209
155
385
207
392
252
56
264
94
91
197
228
377
142
136
117
391
357
138
16
310
302
329
367
29
164
342
352
331
332
125
213
22
269
97
204
299
296
177
176
261
27
320
183
230
199
180
250
260
324
284
33
108
37
185
346
351
389
236
50
330
10
19
184
103
194
36
26
383
336
11
196
77
248
171
175
124
13
267
216
67
109
277
40
370
186
127
89
255
7
288
105
295
110
193
44
191
328
123
242
141
68
218
135
247
313
46
74
59
133
9
283
150
243
229
326
205
350
293
294
227
292
55
201
272
113
306
343
122
18
166
192
87
335
223
20
8
257
395
158
58
23
134
262
239
132
78
364
139
140
208
147
315
161
275
62
361
287
96
349
237
84
120
70
225
2
131
6
170
280
341
79
365
372
85
334
60
258
380
355
63
111
43
309
86
353
128
387
146
298
53
157
339
162
327
129
303
61
279
323
104
152
15
88
195
358
249
160
35
390
289
305
282
212
268
238
100
251
362
149
337
259
137
374
144
116
5
126
291
90
290
32
354
14
28
83
347
181
118
317
187
119
57
72
21
307
220
41
276
38
274
375
363
48

>  <PUBCHEM_MMFF94_PARTIAL_CHARGES>  (1) 
56
1 1.39
10 -0.84
12 -0.29
13 0.42
14 0.28
15 0.28
16 -0.28
17 -0.12
18 0.28
19 -0.28
2 -0.55
22 -0.14
23 0.14
24 0.14
25 0.71
26 -0.15
27 -0.15
28 0.13
29 -0.15
3 -0.55
30 -0.15
31 0.28
32 0.37
33 0.51
34 0.1
35 -0.14
36 -0.15
37 -0.15
38 -0.15
39 -0.15
4 -0.7
40 -0.15
41 -0.15
42 -0.15
43 -0.15
44 -0.15
45 -0.15
5 -0.43
6 -0.57
65 0.15
66 0.15
67 0.15
68 0.15
7 -0.52
75 0.15
76 0.15
77 0.15
78 0.15
79 0.15
8 -0.52
80 0.15
81 0.15
82 0.15
83 0.15
84 0.15
9 0.91

>  <PUBCHEM_EFFECTIVE_ROTOR_COUNT>  (1) 
12.4

>  <PUBCHEM_PHARMACOPHORE_FEATURES>  (1) 
12
1 10 cation
1 4 acceptor
1 6 acceptor
1 7 acceptor
1 7 anion
1 8 acceptor
3 11 20 21 hydrophobe
6 1 2 3 11 14 15 rings
6 12 13 16 17 18 19 rings
6 22 26 27 28 29 30 rings
6 34 36 37 40 41 42 rings
6 35 38 39 43 44 45 rings

>  <PUBCHEM_HEAVY_ATOM_COUNT>  (1) 
45

>  <PUBCHEM_ATOM_DEF_STEREO_COUNT>  (1) 
0

>  <PUBCHEM_ATOM_UDEF_STEREO_COUNT>  (1) 
0

>  <PUBCHEM_BOND_DEF_STEREO_COUNT>  (1) 
0

>  <PUBCHEM_BOND_UDEF_STEREO_COUNT>  (1) 
0

>  <PUBCHEM_ISOTOPIC_ATOM_COUNT>  (1) 
0

>  <PUBCHEM_COMPONENT_COUNT>  (1) 
1

>  <PUBCHEM_CACTVS_TAUTO_COUNT>  (1) 
1

>  <PUBCHEM_CONFORMER_ID>  (1) 
00000C8400000001

>  <PUBCHEM_MMFF94_ENERGY>  (1) 
125.3876

>  <PUBCHEM_FEATURE_SELFOVERLAP>  (1) 
60.98

>  <PUBCHEM_SHAPE_FINGERPRINT>  (1) 
10076449 9 18201728405367407558
12106331 60 18191021399517225739
12107698 1 18336825407251027991
13811026 1 18272089362426732606
14040222 383 18409729552575623867
14117953 113 18264477551113383343
14856354 85 18410857638004350277
15781502 593 18408884053001983952
21033648 29 18200858664987501448
508706 21 18338227271733796835
5265222 85 18336553827583399452
6009941 240 18201160957797789493

>  <PUBCHEM_SHAPE_MULTIPOLES>  (1) 
878.88
18.2
4.93
2.52
6.92
1.92
-1.03
-2.87
5.71
-9.63
-0.69
3.3
-0.82
1.78

>  <PUBCHEM_SHAPE_SELFOVERLAP>  (1) 
1874.919

>  <PUBCHEM_SHAPE_VOLUME>  (1) 
491.1

>  <PUBCHEM_COORDINATE_TYPE>  (1) 
2
5
10

$$$$
