32058
     RDKit          3D

 22 24  0  0  0  0  0  0  0  0999 V2000
    2.5003   -2.0663    1.2282 S   0  0  0  0  0  0  0  0  0  0  0  0
   -4.3471    1.5856    0.1504 N   0  0  0  0  0  0  0  0  0  0  0  0
    0.2137    0.1740    0.1267 C   0  0  0  0  0  0  0  0  0  0  0  0
   -0.3720   -1.1055   -0.3181 C   0  0  0  0  0  0  0  0  0  0  0  0
    1.6685    0.4775    0.1036 C   0  0  0  0  0  0  0  0  0  0  0  0
   -0.1263   -2.2711    0.4261 C   0  0  0  0  0  0  0  0  0  0  0  0
   -2.1108    0.8251    0.8052 C   0  0  0  0  0  0  0  0  0  0  0  0
   -0.6431    1.0692    0.6560 C   0  0  0  0  0  0  0  0  0  0  0  0
    2.6792   -0.4093    0.5390 C   0  0  0  0  0  0  0  0  0  0  0  0
    0.7410   -2.2134    1.6522 C   0  0  0  0  0  0  0  0  0  0  0  0
   -2.9194    1.8497    0.0104 C   0  0  0  0  0  0  0  0  0  0  0  0
    2.0546    1.7224   -0.4460 C   0  0  0  0  0  0  0  0  0  0  0  0
   -1.1659   -1.1668   -1.4726 C   0  0  0  0  0  0  0  0  0  0  0  0
    3.3928    2.0996   -0.5428 C   0  0  0  0  0  0  0  0  0  0  0  0
   -0.6785   -3.4867   -0.0017 C   0  0  0  0  0  0  0  0  0  0  0  0
    4.0281   -0.0052    0.4263 C   0  0  0  0  0  0  0  0  0  0  0  0
    4.3813    1.2352   -0.1029 C   0  0  0  0  0  0  0  0  0  0  0  0
   -1.7122   -2.3818   -1.8844 C   0  0  0  0  0  0  0  0  0  0  0  0
   -1.4690   -3.5399   -1.1501 C   0  0  0  0  0  0  0  0  0  0  0  0
    3.7578    3.4231   -1.1241 C   0  0  0  0  0  0  0  0  0  0  0  0
   -5.1271    2.5402   -0.6390 C   0  0  0  0  0  0  0  0  0  0  0  0
   -4.7460    1.6442    1.5575 C   0  0  0  0  0  0  0  0  0  0  0  0
  1  9  1  0
  1 10  1  0
  2 11  1  0
  2 21  1  0
  2 22  1  0
  3  4  1  0
  3  5  1  0
  3  8  2  0
  4  6  2  0
  4 13  1  0
  5  9  2  0
  5 12  1  0
  6 10  1  0
  6 15  1  0
  7  8  1  0
  7 11  1  0
  9 16  1  0
 12 14  2  0
 13 18  2  0
 14 17  1  0
 14 20  1  0
 15 19  2  0
 16 17  2  0
 18 19  1  0
M  END
>  <PUBCHEM_COMPOUND_CID>  (1) 
32058

>  <PUBCHEM_CONFORMER_RMSD>  (1) 
0.6

>  <PUBCHEM_CONFORMER_DIVERSEORDER>  (1) 
3
5
19
16
4
11
15
13
18
14
7
9
2
8
1
20
17
10
6
12

>  <PUBCHEM_MMFF94_PARTIAL_CHARGES>  (1) 
30
1 -0.33
10 0.37
11 0.27
12 -0.15
13 -0.15
14 -0.14
15 -0.15
16 -0.15
17 -0.15
18 -0.15
19 -0.15
2 -0.81
20 0.14
21 0.27
22 0.27
25 0.15
3 -0.06
30 0.15
31 0.15
32 0.15
33 0.15
34 0.15
35 0.15
36 0.15
4 0.03
5 0.03
6 -0.14
7 0.14
8 -0.29
9 0.1

>  <PUBCHEM_EFFECTIVE_ROTOR_COUNT>  (1) 
3.4

>  <PUBCHEM_PHARMACOPHORE_FEATURES>  (1) 
4
1 2 cation
6 4 6 13 15 18 19 rings
6 5 9 12 14 16 17 rings
7 1 3 4 5 6 9 10 rings

>  <PUBCHEM_HEAVY_ATOM_COUNT>  (1) 
22

>  <PUBCHEM_ATOM_DEF_STEREO_COUNT>  (1) 
0

>  <PUBCHEM_ATOM_UDEF_STEREO_COUNT>  (1) 
0

>  <PUBCHEM_BOND_DEF_STEREO_COUNT>  (1) 
0

>  <PUBCHEM_BOND_UDEF_STEREO_COUNT>  (1) 
1

>  <PUBCHEM_ISOTOPIC_ATOM_COUNT>  (1) 
0

>  <PUBCHEM_COMPONENT_COUNT>  (1) 
1

>  <PUBCHEM_CACTVS_TAUTO_COUNT>  (1) 
1

>  <PUBCHEM_CONFORMER_ID>  (1) 
00007D3A00000003

>  <PUBCHEM_MMFF94_ENERGY>  (1) 
76.8109

>  <PUBCHEM_FEATURE_SELFOVERLAP>  (1) 
20.309

>  <PUBCHEM_SHAPE_FINGERPRINT>  (1) 
1100329 8 18410851071315540648
12173636 292 17972328575111145076
12788726 201 18127121103314162631
13140716 1 18261670476262573120
13149001 5 17489017283792573737
13540713 5 18189888894071325408
13583140 156 17605266273359515411
13836976 161 18269547244087502061
14178342 30 18194101127222535248
14790565 3 18411138052245093741
14955137 171 18047188549416233274
15849732 13 18193831549294918714
16752209 62 18058714927209665743
16945 1 18123174973362073018
17138139 8 17700658940539884293
17980427 23 18196909233012818992
17980427 26 17313653867796206289
18681886 176 18268701715144962768
20645477 70 18121214278226670457
20739085 24 17907583523365877306
21524375 3 18411987935714805041
21756936 100 17971490730377372628
22620623 9 17345474971254702855
23419403 2 17332589661303150474
23558518 356 18118683459919931360
23598288 3 18128537261474109486
25147074 1 18261946475176937184
266924 87 17403452369643452341
283562 15 17832422381907615282
3060560 45 18195811765003414134
394222 165 18335987454451314601
474 4 18338517422248819201
53917941 68 18339910632135246100
6034566 193 17243025815084597828
6669772 16 18271816661793979510
7164475 11 18197212766371745606
7832392 63 18410571799693560082
81228 2 17907002225475977049
81539 233 18266181639000069933
8272917 22 18192434056888241017
9999458 23 18187653444617724902

>  <PUBCHEM_SHAPE_MULTIPOLES>  (1) 
451.62
8.22
4.51
1.44
3.75
1.75
-0.1
-9.97
0.41
1.16
-1.18
0.61
0.64
-2.5

>  <PUBCHEM_SHAPE_SELFOVERLAP>  (1) 
950.57

>  <PUBCHEM_SHAPE_VOLUME>  (1) 
255.1

>  <PUBCHEM_COORDINATE_TYPE>  (1) 
2
5
10

$$$$
