32052
     RDKit          3D

 14 14  0  0  0  0  0  0  0  0999 V2000
    1.2637    0.0719   -1.8705 O   0  0  0  0  0  0  0  0  0  0  0  0
   -1.0555   -1.1637    0.0442 C   0  0  0  0  0  0  0  0  0  0  0  0
   -2.3781   -0.9856    0.8390 C   0  0  0  0  0  0  0  0  0  0  0  0
   -3.1939    0.1937    0.3405 C   0  0  0  0  0  0  0  0  0  0  0  0
   -0.3370    0.1884   -0.1757 C   0  0  0  0  0  0  0  0  0  0  0  0
   -2.3955    1.4800    0.4895 C   0  0  0  0  0  0  0  0  0  0  0  0
   -0.9472    1.3782    0.0549 C   0  0  0  0  0  0  0  0  0  0  0  0
   -1.3745   -1.8080   -1.3246 C   0  0  0  0  0  0  0  0  0  0  0  0
   -0.1945   -2.1543    0.8656 C   0  0  0  0  0  0  0  0  0  0  0  0
    1.0271    0.1024   -0.6712 C   0  0  0  0  0  0  0  0  0  0  0  0
   -0.3063    2.7401   -0.0815 C   0  0  0  0  0  0  0  0  0  0  0  0
    2.0654    0.0558    0.3862 C   0  0  0  0  0  0  0  0  0  0  0  0
    3.3599   -0.0239    0.0508 C   0  0  0  0  0  0  0  0  0  0  0  0
    4.4664   -0.0749    1.0529 C   0  0  0  0  0  0  0  0  0  0  0  0
  1 10  2  0
  2  3  1  0
  2  5  1  0
  2  8  1  0
  2  9  1  0
  3  4  1  0
  4  6  1  0
  5  7  2  0
  5 10  1  0
  6  7  1  0
  7 11  1  0
 10 12  1  0
 12 13  2  0
 13 14  1  0
M  END
>  <PUBCHEM_COMPOUND_CID>  (1) 
32052

>  <PUBCHEM_CONFORMER_RMSD>  (1) 
0.6

>  <PUBCHEM_CONFORMER_DIVERSEORDER>  (1) 
1
3
5
2
4

>  <PUBCHEM_MMFF94_PARTIAL_CHARGES>  (1) 
12
1 -0.57
10 0.54
11 0.14
12 -0.14
13 -0.29
14 0.14
2 0.14
30 0.15
31 0.15
5 -0.12
6 0.14
7 -0.28

>  <PUBCHEM_EFFECTIVE_ROTOR_COUNT>  (1) 
2.8

>  <PUBCHEM_PHARMACOPHORE_FEATURES>  (1) 
4
1 1 acceptor
1 14 hydrophobe
3 2 8 9 hydrophobe
6 2 3 4 5 6 7 rings

>  <PUBCHEM_HEAVY_ATOM_COUNT>  (1) 
14

>  <PUBCHEM_ATOM_DEF_STEREO_COUNT>  (1) 
0

>  <PUBCHEM_ATOM_UDEF_STEREO_COUNT>  (1) 
0

>  <PUBCHEM_BOND_DEF_STEREO_COUNT>  (1) 
0

>  <PUBCHEM_BOND_UDEF_STEREO_COUNT>  (1) 
1

>  <PUBCHEM_ISOTOPIC_ATOM_COUNT>  (1) 
0

>  <PUBCHEM_COMPONENT_COUNT>  (1) 
1

>  <PUBCHEM_CACTVS_TAUTO_COUNT>  (1) 
13

>  <PUBCHEM_CONFORMER_ID>  (1) 
00007D3400000001

>  <PUBCHEM_MMFF94_ENERGY>  (1) 
29.9404

>  <PUBCHEM_FEATURE_SELFOVERLAP>  (1) 
20.297

>  <PUBCHEM_SHAPE_FINGERPRINT>  (1) 
11132069 177 18201716262819693576
11578080 2 17387950187905202804
12119455 92 17274815827290155396
12251169 10 18201717383869474392
12423570 1 11763310821398345351
13024252 1 17967524679728329207
13296909 8 18336817633191196220
13538477 17 17968675924105251894
13581323 91 18408889529348686114
14614273 12 18116151065450560365
14817 1 13658428182696528501
15076042 46 18191021210020900970
15219456 202 17774729658236493494
15375462 478 18187085044113577514
15775835 57 18341333275563778833
16945 1 18267325242830684947
17846911 113 18341051826499621337
20510252 161 18341613659777500152
20645464 45 17846222145841189906
20645476 183 17533526613948737063
20871998 184 18342742913847695527
21501502 16 18127127708688812728
21650355 55 18336539508099001208
22344851 262 17703791465598375879
232386 152 18262525900123577156
23402539 116 18130211723241157607
23419403 2 16840747483166446181
23559900 14 18269286677428222790
257057 1 17624681750051296919
2748010 2 18124329202693631213
4072396 5 18334578989126083065
43471831 8 18188491255050931706
53812654 25 18410300245521792485
5706482 22 18338509746894269979
69090 78 18060696178316658847
7364860 26 17550954689350749407
77492 1 17603882108262991076
81228 2 18339939137811980320
90316 7 18335698313063975144

>  <PUBCHEM_SHAPE_MULTIPOLES>  (1) 
282.24
5.24
2.21
1.18
5.8
0.59
-0.38
0.03
1.89
-1.32
0.04
0.22
-0.35
-0.24

>  <PUBCHEM_SHAPE_SELFOVERLAP>  (1) 
565.33

>  <PUBCHEM_SHAPE_VOLUME>  (1) 
166.6

>  <PUBCHEM_COORDINATE_TYPE>  (1) 
2
5
10

$$$$
