32064
     RDKit          3D

 10  9  0  0  0  0  0  0  0  0999 V2000
    1.4398   -2.3303   -0.6262 S   0  0  0  0  0  0  0  0  0  0  0  0
   -1.2628   -2.5439    0.5556 S   0  0  0  0  0  0  0  0  0  0  0  0
   -3.2562    1.6498   -0.0474 O   0  0  0  0  0  0  0  0  0  0  0  0
    3.1952    1.7095    0.0254 O   0  0  0  0  0  0  0  0  0  0  0  0
   -0.0144   -0.1355    0.0306 N   0  0  0  0  0  0  0  0  0  0  0  0
   -1.1494    0.6511    0.5206 C   0  0  0  0  0  0  0  0  0  0  0  0
    1.0883    0.6808   -0.4856 C   0  0  0  0  0  0  0  0  0  0  0  0
   -2.1610    0.9160   -0.5795 C   0  0  0  0  0  0  0  0  0  0  0  0
    2.1330    0.9464    0.5828 C   0  0  0  0  0  0  0  0  0  0  0  0
   -0.0124   -1.5439    0.0236 C   0  0  0  0  0  0  0  0  0  0  0  0
  1 10  1  0
  2 10  2  0
  3  8  1  0
  4  9  1  0
  5  6  1  0
  5  7  1  0
  5 10  1  0
  6  8  1  0
  7  9  1  0
M  END
>  <PUBCHEM_COMPOUND_CID>  (1) 
32064

>  <PUBCHEM_CONFORMER_RMSD>  (1) 
0.6

>  <PUBCHEM_CONFORMER_DIVERSEORDER>  (1) 
1
13
53
22
49
56
45
23
51
31
24
20
15
43
37
50
48
39
5
38
40
2
55
14
57
32
18
19
16
47
26
3
54
29
42
9
28
33
6
58
21
46
44
11
27
25
10
4
34
36
7
41
35
52
17
12
30
8

>  <PUBCHEM_MMFF94_PARTIAL_CHARGES>  (1) 
13
1 -0.32
10 0.58
19 0.4
2 -0.38
20 0.4
21 0.18
3 -0.68
4 -0.68
5 -0.66
6 0.3
7 0.3
8 0.28
9 0.28

>  <PUBCHEM_EFFECTIVE_ROTOR_COUNT>  (1) 
5

>  <PUBCHEM_PHARMACOPHORE_FEATURES>  (1) 
6
1 2 acceptor
1 3 acceptor
1 3 donor
1 4 acceptor
1 4 donor
3 1 2 10 anion

>  <PUBCHEM_HEAVY_ATOM_COUNT>  (1) 
10

>  <PUBCHEM_ATOM_DEF_STEREO_COUNT>  (1) 
0

>  <PUBCHEM_ATOM_UDEF_STEREO_COUNT>  (1) 
0

>  <PUBCHEM_BOND_DEF_STEREO_COUNT>  (1) 
0

>  <PUBCHEM_BOND_UDEF_STEREO_COUNT>  (1) 
0

>  <PUBCHEM_ISOTOPIC_ATOM_COUNT>  (1) 
0

>  <PUBCHEM_COMPONENT_COUNT>  (1) 
1

>  <PUBCHEM_CACTVS_TAUTO_COUNT>  (1) 
1

>  <PUBCHEM_CONFORMER_ID>  (1) 
00007D4000000001

>  <PUBCHEM_MMFF94_ENERGY>  (1) 
20.389

>  <PUBCHEM_FEATURE_SELFOVERLAP>  (1) 
30.447

>  <PUBCHEM_SHAPE_FINGERPRINT>  (1) 
12423570 1 12659282325334520942
13380535 76 18411129247161099766
13380536 305 18194405481015225591
19021347 4 18408600374928232867
193761 8 18410858767295820846
20645477 70 18126554623530328293
20871998 184 18122631822880487710
21040471 1 18408608071251255308
23526114 1 17906735800032938468
23552423 10 18052529972724617277
23595355 12 18337673001560822326
23598294 1 18120648295620169720
2748010 2 18262814981593110759
3250762 1 18338812164100399862

>  <PUBCHEM_SHAPE_MULTIPOLES>  (1) 
196.77
3.85
3
0.82
0.18
1.91
-0.01
-3.11
-0.07
-0.03
0.04
-0.01
0.13
0.71

>  <PUBCHEM_SHAPE_SELFOVERLAP>  (1) 
341.508

>  <PUBCHEM_SHAPE_VOLUME>  (1) 
132.6

>  <PUBCHEM_COORDINATE_TYPE>  (1) 
2
5
10

$$$$
