32062
     RDKit          3D

 23 25  0  0  1  0  0  0  0  0999 V2000
   -0.5166    1.4676    0.6982 S   0  0  0  0  0  0  0  0  0  0  0  0
   -0.4641    2.8565    0.2732 O   0  0  0  0  0  0  0  0  0  0  0  0
   -0.3745    1.1223    2.1014 O   0  0  0  0  0  0  0  0  0  0  0  0
   -0.9244   -0.5338   -2.4598 O   0  0  0  0  0  0  0  0  0  0  0  0
    4.4750    1.2993   -0.5800 N   0  0  0  0  0  0  0  0  0  0  0  0
    0.7542    0.6182   -0.2162 C   0  0  0  0  0  0  0  0  0  0  0  0
    2.1100    1.2987    0.0151 C   0  0  0  0  0  0  0  0  0  0  0  0
    0.6897   -0.8466    0.1559 C   0  0  0  0  0  0  0  0  0  0  0  0
   -2.1312    0.9056    0.2227 C   0  0  0  0  0  0  0  0  0  0  0  0
   -0.3473   -1.6598   -0.3441 C   0  0  0  0  0  0  0  0  0  0  0  0
   -1.4274   -1.1212   -1.2606 C   0  0  0  0  0  0  0  0  0  0  0  0
   -2.4195   -0.1857   -0.6083 C   0  0  0  0  0  0  0  0  0  0  0  0
    3.1951    0.6473   -0.8300 C   0  0  0  0  0  0  0  0  0  0  0  0
    1.6299   -1.4267    1.0297 C   0  0  0  0  0  0  0  0  0  0  0  0
   -0.4113   -3.0151    0.0367 C   0  0  0  0  0  0  0  0  0  0  0  0
   -3.1723    1.6857    0.7630 C   0  0  0  0  0  0  0  0  0  0  0  0
   -3.7824   -0.4401   -0.8900 C   0  0  0  0  0  0  0  0  0  0  0  0
    1.5563   -2.7725    1.3920 C   0  0  0  0  0  0  0  0  0  0  0  0
    0.5352   -3.5680    0.8947 C   0  0  0  0  0  0  0  0  0  0  0  0
   -4.5040    1.4024    0.4761 C   0  0  0  0  0  0  0  0  0  0  0  0
   -4.8106    0.3381   -0.3562 C   0  0  0  0  0  0  0  0  0  0  0  0
    5.5383    0.6637   -1.3601 C   0  0  0  0  0  0  0  0  0  0  0  0
    4.8018    1.2639    0.8466 C   0  0  0  0  0  0  0  0  0  0  0  0
  1  2  2  0
  1  3  2  0
  1  6  1  0
  1  9  1  0
  4 11  1  0
  5 13  1  0
  5 22  1  0
  5 23  1  0
  6  7  1  0
  6  8  1  0
  7 13  1  0
  8 10  2  0
  8 14  1  0
  9 12  2  0
  9 16  1  0
 10 11  1  0
 10 15  1  0
 11 12  1  0
 12 17  1  0
 14 18  2  0
 15 19  2  0
 16 20  2  0
 17 21  2  0
 18 19  1  0
 20 21  1  0
M  END
>  <PUBCHEM_COMPOUND_CID>  (1) 
32062

>  <PUBCHEM_CONFORMER_RMSD>  (1) 
0.6

>  <PUBCHEM_CONFORMER_DIVERSEORDER>  (1) 
1
7
25
35
5
16
10
13
27
2
14
15
22
11
18
20
26
9
32
33
28
30
3
23
24
8
6
34
29
4
19
17
21
12
31

>  <PUBCHEM_MMFF94_PARTIAL_CHARGES>  (1) 
31
1 1.2
10 -0.14
11 0.57
12 -0.14
13 0.27
14 -0.15
15 -0.15
16 -0.15
17 -0.15
18 -0.15
19 -0.15
2 -0.65
20 -0.15
21 -0.15
22 0.27
23 0.27
3 -0.65
30 0.15
31 0.15
32 0.15
33 0.15
34 0.15
35 0.15
36 0.15
37 0.15
38 0.4
4 -0.68
5 -0.81
6 0.25
8 -0.14
9 -0.01

>  <PUBCHEM_EFFECTIVE_ROTOR_COUNT>  (1) 
3.4

>  <PUBCHEM_PHARMACOPHORE_FEATURES>  (1) 
8
1 2 acceptor
1 3 acceptor
1 4 acceptor
1 4 donor
1 5 cation
6 8 10 14 15 18 19 rings
6 9 12 16 17 20 21 rings
7 1 6 8 9 10 11 12 rings

>  <PUBCHEM_HEAVY_ATOM_COUNT>  (1) 
23

>  <PUBCHEM_ATOM_DEF_STEREO_COUNT>  (1) 
0

>  <PUBCHEM_ATOM_UDEF_STEREO_COUNT>  (1) 
2

>  <PUBCHEM_BOND_DEF_STEREO_COUNT>  (1) 
0

>  <PUBCHEM_BOND_UDEF_STEREO_COUNT>  (1) 
0

>  <PUBCHEM_ISOTOPIC_ATOM_COUNT>  (1) 
0

>  <PUBCHEM_COMPONENT_COUNT>  (1) 
1

>  <PUBCHEM_CACTVS_TAUTO_COUNT>  (1) 
1

>  <PUBCHEM_CONFORMER_ID>  (1) 
00007D3E00000001

>  <PUBCHEM_MMFF94_ENERGY>  (1) 
68.2032

>  <PUBCHEM_FEATURE_SELFOVERLAP>  (1) 
40.628

>  <PUBCHEM_SHAPE_FINGERPRINT>  (1) 
10382601 240 18126026878980791873
10759866 29 18267303132223104609
10863032 1 18334579027596133291
1100329 8 18267021854683157257
11315181 36 17489039244836024932
12035759 4 18270407061937673762
12592029 89 18040713654204207626
12644460 14 18265625281826606305
12788726 201 18202291294885760672
12954195 1 18267306619362620054
13052359 8 18189900992509129194
13140716 1 18335412448382800914
13583140 156 16733550554014401048
14787075 74 18341047501662648503
14790565 3 18408891749673627380
15209289 33 18340484585783940597
16945 1 18128264586827079909
1813 80 17834951975885548158
18915476 22 17823400618229110215
19591789 44 18048600610177223451
19784866 34 18408881845362101752
19784866 9 18408599240882877961
20645476 183 18337107959931778871
21421861 104 17979652138712191961
22112679 90 17701506611996078951
229495 10 18044071498359693311
23402539 116 18202563999111842124
23419403 2 15973083098728116499
23559900 14 17484803710484908655
23566358 27 18194120715941092086
25147074 1 18200584784272494853
298252 57 17775006812080719079
34934 24 18201715154422875005
350125 39 18265049125028155912
3759504 43 18187652456596061130
394222 165 18259981539928048066
404807 14 15475399997298170830
4058900 60 18041564624632940961
4340502 62 18260274044665377083
474 4 18259708904046454716
59755656 520 18334577966792101854
6034566 193 17315939907690756884
7226269 152 18272645788335543440
90316 7 16678090787660657443

>  <PUBCHEM_SHAPE_MULTIPOLES>  (1) 
454.59
8.38
3.21
1.48
4.25
2.79
0.22
-5.75
1.89
0.8
-1.22
0.28
0.16
-1.28

>  <PUBCHEM_SHAPE_SELFOVERLAP>  (1) 
962.625

>  <PUBCHEM_SHAPE_VOLUME>  (1) 
253.8

>  <PUBCHEM_COORDINATE_TYPE>  (1) 
2
5
10

$$$$
