32060
     RDKit          3D

 23 25  0  0  1  0  0  0  0  0999 V2000
   -2.6777    0.3000    1.3177 S   0  0  0  0  0  0  0  0  0  0  0  0
   -2.8182    1.0942    2.5256 O   0  0  0  0  0  0  0  0  0  0  0  0
   -3.8535   -0.2104    0.6336 O   0  0  0  0  0  0  0  0  0  0  0  0
    4.6704    0.6391    0.3368 N   0  0  0  0  0  0  0  0  0  0  0  0
    0.3694    0.0907    0.1033 C   0  0  0  0  0  0  0  0  0  0  0  0
    1.8555    0.2256   -0.2855 C   0  0  0  0  0  0  0  0  0  0  0  0
   -0.5556    1.2130   -0.3431 C   0  0  0  0  0  0  0  0  0  0  0  0
   -0.2188   -1.2617   -0.2767 C   0  0  0  0  0  0  0  0  0  0  0  0
   -1.8669    1.3672    0.1478 C   0  0  0  0  0  0  0  0  0  0  0  0
   -1.2321   -1.8156    0.5311 C   0  0  0  0  0  0  0  0  0  0  0  0
   -1.7026   -1.1022    1.7617 C   0  0  0  0  0  0  0  0  0  0  0  0
    2.6986   -0.8132    0.4387 C   0  0  0  0  0  0  0  0  0  0  0  0
    4.1645   -0.6925    0.0254 C   0  0  0  0  0  0  0  0  0  0  0  0
   -0.1160    2.1545   -1.2975 C   0  0  0  0  0  0  0  0  0  0  0  0
    0.1573   -1.9405   -1.4477 C   0  0  0  0  0  0  0  0  0  0  0  0
   -2.6811    2.4270   -0.2931 C   0  0  0  0  0  0  0  0  0  0  0  0
   -1.8172   -3.0407    0.1734 C   0  0  0  0  0  0  0  0  0  0  0  0
   -0.9291    3.2039   -1.7336 C   0  0  0  0  0  0  0  0  0  0  0  0
   -0.4312   -3.1585   -1.7914 C   0  0  0  0  0  0  0  0  0  0  0  0
   -2.2125    3.3422   -1.2287 C   0  0  0  0  0  0  0  0  0  0  0  0
   -1.4152   -3.7103   -0.9796 C   0  0  0  0  0  0  0  0  0  0  0  0
    6.0653    0.7725   -0.0871 C   0  0  0  0  0  0  0  0  0  0  0  0
    4.5465    0.9158    1.7689 C   0  0  0  0  0  0  0  0  0  0  0  0
  1  2  2  0
  1  3  2  0
  1  9  1  0
  1 11  1  0
  4 13  1  0
  4 22  1  0
  4 23  1  0
  5  6  1  0
  5  7  1  0
  5  8  1  0
  6 12  1  0
  7  9  2  0
  7 14  1  0
  8 10  2  0
  8 15  1  0
  9 16  1  0
 10 11  1  0
 10 17  1  0
 12 13  1  0
 14 18  2  0
 15 19  2  0
 16 20  2  0
 17 21  2  0
 18 20  1  0
 19 21  1  0
M  END
>  <PUBCHEM_COMPOUND_CID>  (1) 
32060

>  <PUBCHEM_CONFORMER_RMSD>  (1) 
0.8

>  <PUBCHEM_CONFORMER_DIVERSEORDER>  (1) 
3
10
6
11
9
18
12
16
1
19
13
15
14
8
17
2
4
5
7

>  <PUBCHEM_MMFF94_PARTIAL_CHARGES>  (1) 
29
1 1.2
10 -0.14
11 0.25
13 0.27
14 -0.15
15 -0.15
16 -0.15
17 -0.15
18 -0.15
19 -0.15
2 -0.65
20 -0.15
21 -0.15
22 0.27
23 0.27
3 -0.65
33 0.15
34 0.15
35 0.15
36 0.15
37 0.15
38 0.15
39 0.15
4 -0.81
40 0.15
5 0.29
7 -0.14
8 -0.14
9 -0.01

>  <PUBCHEM_EFFECTIVE_ROTOR_COUNT>  (1) 
4.4

>  <PUBCHEM_PHARMACOPHORE_FEATURES>  (1) 
6
1 2 acceptor
1 3 acceptor
1 4 cation
6 7 9 14 16 18 20 rings
6 8 10 15 17 19 21 rings
7 1 5 7 8 9 10 11 rings

>  <PUBCHEM_HEAVY_ATOM_COUNT>  (1) 
23

>  <PUBCHEM_ATOM_DEF_STEREO_COUNT>  (1) 
0

>  <PUBCHEM_ATOM_UDEF_STEREO_COUNT>  (1) 
1

>  <PUBCHEM_BOND_DEF_STEREO_COUNT>  (1) 
0

>  <PUBCHEM_BOND_UDEF_STEREO_COUNT>  (1) 
0

>  <PUBCHEM_ISOTOPIC_ATOM_COUNT>  (1) 
0

>  <PUBCHEM_COMPONENT_COUNT>  (1) 
1

>  <PUBCHEM_CACTVS_TAUTO_COUNT>  (1) 
1

>  <PUBCHEM_CONFORMER_ID>  (1) 
00007D3C00000003

>  <PUBCHEM_MMFF94_ENERGY>  (1) 
66.8395

>  <PUBCHEM_FEATURE_SELFOVERLAP>  (1) 
30.481

>  <PUBCHEM_SHAPE_FINGERPRINT>  (1) 
10165383 225 18130238085782069016
10871710 139 18263645228925837174
10906281 52 17970366831888581109
11552529 35 17987798652348575290
11578080 2 17911532995483668073
12403814 3 18334296482914181016
12788726 201 18190717869345074466
13004483 165 18123447630602249766
13009979 54 17695642027105529266
13140716 1 18192443084619191009
13681431 1 17329120972710681486
16945 1 17969246497931624243
17492 54 18118653635730345127
17980427 26 17127635076131206185
1813 80 17832689541784929530
21033648 29 18270386193188150256
21202864 24 18342462564405571926
21756936 100 17203891838710357160
22112679 90 18119539970671808532
22182313 1 17610926499417344497
23419403 2 17266903952217730855
23559900 14 17828761747264536914
23598288 3 18040725791808250980
238 59 17764853706924300575
2748010 2 17829917346727546599
3298306 158 17906736904214658414
376196 1 17392736095590689580
394222 165 16234433611241660535
633830 44 17201929119943965044
6992083 37 18267035027210541523
81228 2 18267008630426085722
90316 7 18260274061407357256
9862522 239 18337102376474332874
9925002 15 18193565690222924829
9981440 41 17977365158394467896

>  <PUBCHEM_SHAPE_MULTIPOLES>  (1) 
460.46
7.48
4.28
1.8
15.92
0.97
-0.43
-3.06
-3.09
-4.16
2.85
-0.92
-0.14
0.6

>  <PUBCHEM_SHAPE_SELFOVERLAP>  (1) 
969.281

>  <PUBCHEM_SHAPE_VOLUME>  (1) 
258.9

>  <PUBCHEM_COORDINATE_TYPE>  (1) 
2
5
10

$$$$
