32066
     RDKit          3D

 10 10  0  0  0  0  0  0  0  0999 V2000
    1.2390   -2.7260    0.0002 Cl  0  0  0  0  0  0  0  0  0  0  0  0
    1.2393    2.7260    0.0000 Cl  0  0  0  0  0  0  0  0  0  0  0  0
   -3.3980    0.0001    0.0002 Cl  0  0  0  0  0  0  0  0  0  0  0  0
    1.1131   -0.0001   -0.0002 C   0  0  0  0  0  0  0  0  0  0  0  0
    0.4154   -1.2080   -0.0003 C   0  0  0  0  0  0  0  0  0  0  0  0
    0.4156    1.2080   -0.0001 C   0  0  0  0  0  0  0  0  0  0  0  0
    2.6113   -0.0002    0.0003 C   0  0  0  0  0  0  0  0  0  0  0  0
   -0.9795   -1.2078   -0.0002 C   0  0  0  0  0  0  0  0  0  0  0  0
   -0.9793    1.2080    0.0000 C   0  0  0  0  0  0  0  0  0  0  0  0
   -1.6769    0.0001    0.0000 C   0  0  0  0  0  0  0  0  0  0  0  0
  1  5  1  0
  2  6  1  0
  3 10  1  0
  4  5  2  0
  4  6  1  0
  4  7  1  0
  5  8  1  0
  6  9  2  0
  8 10  2  0
  9 10  1  0
M  END
>  <PUBCHEM_COMPOUND_CID>  (1) 
32066

>  <PUBCHEM_CONFORMER_RMSD>  (1) 
0.4

>  <PUBCHEM_CONFORMER_DIVERSEORDER>  (1) 
1

>  <PUBCHEM_MMFF94_PARTIAL_CHARGES>  (1) 
12
1 -0.18
10 0.18
14 0.15
15 0.15
2 -0.18
3 -0.18
4 -0.14
5 0.18
6 0.18
7 0.14
8 -0.15
9 -0.15

>  <PUBCHEM_EFFECTIVE_ROTOR_COUNT>  (1) 
0

>  <PUBCHEM_PHARMACOPHORE_FEATURES>  (1) 
1
6 4 5 6 8 9 10 rings

>  <PUBCHEM_HEAVY_ATOM_COUNT>  (1) 
10

>  <PUBCHEM_ATOM_DEF_STEREO_COUNT>  (1) 
0

>  <PUBCHEM_ATOM_UDEF_STEREO_COUNT>  (1) 
0

>  <PUBCHEM_BOND_DEF_STEREO_COUNT>  (1) 
0

>  <PUBCHEM_BOND_UDEF_STEREO_COUNT>  (1) 
0

>  <PUBCHEM_ISOTOPIC_ATOM_COUNT>  (1) 
0

>  <PUBCHEM_COMPONENT_COUNT>  (1) 
1

>  <PUBCHEM_CACTVS_TAUTO_COUNT>  (1) 
1

>  <PUBCHEM_CONFORMER_ID>  (1) 
00007D4200000001

>  <PUBCHEM_MMFF94_ENERGY>  (1) 
23.3971

>  <PUBCHEM_FEATURE_SELFOVERLAP>  (1) 
5.074

>  <PUBCHEM_SHAPE_FINGERPRINT>  (1) 
1 1 18338233872665501191
12423570 1 10443076284373918463
13380535 76 17908698776085949900
13380536 305 18338805627117470708
161256 15 18197219135644877510
16945 1 18410575089158486789
18185500 45 18339923714462795679
193761 8 17762338011677704772
20588541 1 18334581226239619443
20871998 184 17407946705015426367
21040471 1 17906452482293783013
2334 1 17978229692418819463
23402655 69 18267567028558342181
23552423 10 18339921614566744383
23559900 14 17838633493720462332
241688 4 17906173953664345473
2748010 2 18048601705003318279
5084963 1 18059295469121907753

>  <PUBCHEM_SHAPE_MULTIPOLES>  (1) 
211.4
3.46
2.77
0.63
2.46
0
0
0
0
-1.81
0
0
0
0

>  <PUBCHEM_SHAPE_SELFOVERLAP>  (1) 
412.538

>  <PUBCHEM_SHAPE_VOLUME>  (1) 
125

>  <PUBCHEM_COORDINATE_TYPE>  (1) 
2
5
10

$$$$
