32071
     RDKit          3D

 30 32  0  0  0  0  0  0  0  0999 V2000
   -8.0221    0.5727   -0.4488 F   0  0  0  0  0  0  0  0  0  0  0  0
    2.9335   -3.1661    0.6734 O   0  0  0  0  0  0  0  0  0  0  0  0
    4.6341    1.3739    2.2529 O   0  0  0  0  0  0  0  0  0  0  0  0
    3.9026    1.7366   -2.4662 O   0  0  0  0  0  0  0  0  0  0  0  0
    4.8352    2.8261   -0.0967 O   0  0  0  0  0  0  0  0  0  0  0  0
   -1.0954   -2.0783    0.2176 N   0  0  0  0  0  0  0  0  0  0  0  0
   -3.3819   -0.3667    0.2614 N   0  0  0  0  0  0  0  0  0  0  0  0
   -1.4935   -1.4013    1.4579 C   0  0  0  0  0  0  0  0  0  0  0  0
   -2.2863   -2.4101   -0.5745 C   0  0  0  0  0  0  0  0  0  0  0  0
   -2.2521   -0.1059    1.1587 C   0  0  0  0  0  0  0  0  0  0  0  0
   -3.0702   -1.1481   -0.9420 C   0  0  0  0  0  0  0  0  0  0  0  0
   -0.3256   -3.2853    0.5162 C   0  0  0  0  0  0  0  0  0  0  0  0
    0.4773   -3.7180   -0.7122 C   0  0  0  0  0  0  0  0  0  0  0  0
   -4.4421    0.5444    0.1975 C   0  0  0  0  0  0  0  0  0  0  0  0
    1.4656   -2.6413   -1.1690 C   0  0  0  0  0  0  0  0  0  0  0  0
   -5.7289    0.0962   -0.1009 C   0  0  0  0  0  0  0  0  0  0  0  0
   -4.2127    1.9000    0.4329 C   0  0  0  0  0  0  0  0  0  0  0  0
    2.5400   -2.3301   -0.1367 C   0  0  0  0  0  0  0  0  0  0  0  0
   -6.7862    1.0037   -0.1641 C   0  0  0  0  0  0  0  0  0  0  0  0
   -5.2700    2.8075    0.3697 C   0  0  0  0  0  0  0  0  0  0  0  0
    3.1478   -0.9688   -0.1266 C   0  0  0  0  0  0  0  0  0  0  0  0
   -6.5568    2.3594    0.0712 C   0  0  0  0  0  0  0  0  0  0  0  0
    3.2463   -0.2400   -1.3118 C   0  0  0  0  0  0  0  0  0  0  0  0
    3.6153   -0.4228    1.0687 C   0  0  0  0  0  0  0  0  0  0  0  0
    4.1815    0.8520    1.0788 C   0  0  0  0  0  0  0  0  0  0  0  0
    3.8125    1.0348   -1.3018 C   0  0  0  0  0  0  0  0  0  0  0  0
    4.2799    1.5808   -0.1064 C   0  0  0  0  0  0  0  0  0  0  0  0
    4.4958    0.5635    3.4184 C   0  0  0  0  0  0  0  0  0  0  0  0
    3.4012    1.1062   -3.6430 C   0  0  0  0  0  0  0  0  0  0  0  0
    3.9549    3.9252    0.1254 C   0  0  0  0  0  0  0  0  0  0  0  0
  1 19  1  0
  2 18  2  0
  3 25  1  0
  3 28  1  0
  4 26  1  0
  4 29  1  0
  5 27  1  0
  5 30  1  0
  6  8  1  0
  6  9  1  0
  6 12  1  0
  7 10  1  0
  7 11  1  0
  7 14  1  0
  8 10  1  0
  9 11  1  0
 12 13  1  0
 13 15  1  0
 14 16  2  0
 14 17  1  0
 15 18  1  0
 16 19  1  0
 17 20  2  0
 18 21  1  0
 19 22  2  0
 20 22  1  0
 21 23  2  0
 21 24  1  0
 23 26  1  0
 24 25  2  0
 25 27  1  0
 26 27  2  0
M  END
>  <PUBCHEM_COMPOUND_CID>  (1) 
32071

>  <PUBCHEM_CONFORMER_RMSD>  (1) 
1

>  <PUBCHEM_CONFORMER_DIVERSEORDER>  (1) 
2
19
130
77
139
41
47
71
85
28
112
86
137
122
64
72
134
38
127
25
7
80
142
55
135
24
93
128
89
108
155
83
153
21
39
148
158
40
27
8
43
59
107
63
32
42
138
151
144
81
119
113
147
3
52
84
45
94
50
10
48
159
118
133
78
51
126
121
17
58
69
129
70
104
61
105
125
22
5
57
109
92
26
98
4
1
68
154
96
18
33
157
44
65
117
29
54
132
75
123
36
82
76
14
37
124
156
6
106
114
23
97
60
30
12
150
79
20
35
145
91
11
66
90
62
88
111
99
143
31
103
15
34
16
46
9
140
120
74
13
152
53
100
141
95
49
110
102
101
56
115
67
149
73
116
87
146
136
131

>  <PUBCHEM_MMFF94_PARTIAL_CHARGES>  (1) 
35
1 -0.19
10 0.37
11 0.37
12 0.27
14 0.1
15 0.06
16 -0.15
17 -0.15
18 0.42
19 0.19
2 -0.57
20 -0.15
21 0.09
22 -0.15
23 -0.15
24 -0.15
25 0.08
26 0.08
27 0.08
28 0.28
29 0.28
3 -0.36
30 0.28
4 -0.36
45 0.15
46 0.15
47 0.15
48 0.15
49 0.15
5 -0.36
50 0.15
6 -0.81
7 -0.84
8 0.27
9 0.27

>  <PUBCHEM_EFFECTIVE_ROTOR_COUNT>  (1) 
10.2

>  <PUBCHEM_PHARMACOPHORE_FEATURES>  (1) 
9
1 2 acceptor
1 3 acceptor
1 4 acceptor
1 5 acceptor
1 6 cation
1 7 cation
6 14 16 17 19 20 22 rings
6 21 23 24 25 26 27 rings
6 6 7 8 9 10 11 rings

>  <PUBCHEM_HEAVY_ATOM_COUNT>  (1) 
30

>  <PUBCHEM_ATOM_DEF_STEREO_COUNT>  (1) 
0

>  <PUBCHEM_ATOM_UDEF_STEREO_COUNT>  (1) 
0

>  <PUBCHEM_BOND_DEF_STEREO_COUNT>  (1) 
0

>  <PUBCHEM_BOND_UDEF_STEREO_COUNT>  (1) 
0

>  <PUBCHEM_ISOTOPIC_ATOM_COUNT>  (1) 
0

>  <PUBCHEM_COMPONENT_COUNT>  (1) 
1

>  <PUBCHEM_CACTVS_TAUTO_COUNT>  (1) 
2

>  <PUBCHEM_CONFORMER_ID>  (1) 
00007D4700000002

>  <PUBCHEM_MMFF94_ENERGY>  (1) 
114.0363

>  <PUBCHEM_FEATURE_SELFOVERLAP>  (1) 
45.684

>  <PUBCHEM_SHAPE_FINGERPRINT>  (1) 
10190108 129 16877932842602718584
10498660 4 18129955584218808882
10673678 19 18343019948540735743
11720765 8 17273990034561572558
1200032 147 17532110400544572372
12047536 79 15213017155077201055
12422481 6 17458621169142015077
12633257 1 17313097583811856494
13617811 41 18412535519082752745
13965767 371 17968931011520282014
14117953 113 18413105044361571828
14168556 18 18339080506285626331
14468879 13 18335712662465146667
14537116 161 16630523999963282217
15979999 66 17624707751752425734
16988056 13 18054236436214426126
19053607 189 18341323461579962056
20715895 44 18412259502122511467
21315764 268 18190738640238960549
22956985 138 8561029067363077342
23559900 14 18338805489684311598
245318 6 18188226346089557837
345986 75 12396306941484781983
34797466 226 16845569803980015471
44249763 50 17417233476897995599
44317340 157 18199475355654851299
508180 173 17837511664639950610
5109719 28 18409738361585456817
513532 50 17917152702264982254
5372103 7 15983673724203200386
56633871 153 11242248589072886065
57091435 61 18410854318146974251
57724786 102 17822016423579498014
5951187 136 17632294558155846352
6036956 94 17325770778188213973
6677587 24 15912174574508926792
9849439 229 18338513144176529666

>  <PUBCHEM_SHAPE_MULTIPOLES>  (1) 
576.67
16.64
4.41
2.25
26.75
1
-0.37
-15.47
0.56
-2.29
-0.29
-5.15
-0.95
-0.43

>  <PUBCHEM_SHAPE_SELFOVERLAP>  (1) 
1212.838

>  <PUBCHEM_SHAPE_VOLUME>  (1) 
327.4

>  <PUBCHEM_COORDINATE_TYPE>  (1) 
2
5
10

$$$$
