32077
     RDKit          3D

 25 26  0  0  1  0  0  0  0  0999 V2000
   -0.7929    2.8748    0.3741 O   0  0  0  0  0  0  0  0  0  0  0  0
   -5.4582    1.2329   -0.2748 O   0  0  0  0  0  0  0  0  0  0  0  0
   -2.7360   -2.7057   -0.1439 O   0  0  0  0  0  0  0  0  0  0  0  0
   -5.2299   -1.5255   -0.3871 O   0  0  0  0  0  0  0  0  0  0  0  0
    1.7142    1.9712    0.6303 N   0  0  0  0  0  0  0  0  0  0  0  0
    3.0312    1.3415    0.7625 C   0  0  0  0  0  0  0  0  0  0  0  0
    3.3017    0.4516   -0.4644 C   0  0  0  0  0  0  0  0  0  0  0  0
    4.0772    2.4441    0.9283 C   0  0  0  0  0  0  0  0  0  0  0  0
    4.6231   -0.2763   -0.4040 C   0  0  0  0  0  0  0  0  0  0  0  0
    0.6803    0.9643    0.4589 C   0  0  0  0  0  0  0  0  0  0  0  0
   -0.6660    1.6530    0.3280 C   0  0  0  0  0  0  0  0  0  0  0  0
   -1.8812    0.8063    0.1362 C   0  0  0  0  0  0  0  0  0  0  0  0
    5.7544    0.3249   -0.9325 C   0  0  0  0  0  0  0  0  0  0  0  0
    4.6806   -1.5324    0.1784 C   0  0  0  0  0  0  0  0  0  0  0  0
   -1.7306   -0.5601    0.0860 C   0  0  0  0  0  0  0  0  0  0  0  0
   -3.1035    1.4268    0.0191 C   0  0  0  0  0  0  0  0  0  0  0  0
    6.9752   -0.3477   -0.8771 C   0  0  0  0  0  0  0  0  0  0  0  0
    5.9012   -2.2050    0.2339 C   0  0  0  0  0  0  0  0  0  0  0  0
   -4.2390    0.6363   -0.1580 C   0  0  0  0  0  0  0  0  0  0  0  0
   -2.8662   -1.3506   -0.0913 C   0  0  0  0  0  0  0  0  0  0  0  0
   -4.1204   -0.7523   -0.2133 C   0  0  0  0  0  0  0  0  0  0  0  0
    7.0485   -1.6127   -0.2939 C   0  0  0  0  0  0  0  0  0  0  0  0
   -5.8866    1.5798   -1.5902 C   0  0  0  0  0  0  0  0  0  0  0  0
   -2.8270   -3.4138    1.0908 C   0  0  0  0  0  0  0  0  0  0  0  0
   -6.2500   -1.4252    0.6039 C   0  0  0  0  0  0  0  0  0  0  0  0
  1 11  2  0
  2 19  1  0
  2 23  1  0
  3 20  1  0
  3 24  1  0
  4 21  1  0
  4 25  1  0
  5  6  1  0
  5 10  1  0
  6  7  1  0
  6  8  1  0
  7  9  1  0
  9 13  2  0
  9 14  1  0
 10 11  1  0
 11 12  1  0
 12 15  2  0
 12 16  1  0
 13 17  1  0
 14 18  2  0
 15 20  1  0
 16 19  2  0
 17 22  2  0
 18 22  1  0
 19 21  1  0
 20 21  2  0
M  END
>  <PUBCHEM_COMPOUND_CID>  (1) 
32077

>  <PUBCHEM_CONFORMER_RMSD>  (1) 
1

>  <PUBCHEM_CONFORMER_DIVERSEORDER>  (1) 
1
17
84
83
77
31
18
15
55
65
42
26
81
13
41
7
20
82
19
6
75
36
73
3
56
71
48
40
35
57
23
78
80
39
33
63
29
49
72
9
10
64
38
62
11
24
45
32
28
50
58
74
69
25
60
5
53
51
4
52
86
79
37
87
76
8
2
85
46
68
14
70
54
22
16
61
21
43
44
34
30
67
47
12
27
59
66

>  <PUBCHEM_MMFF94_PARTIAL_CHARGES>  (1) 
32
1 -0.57
10 0.33
11 0.42
12 0.09
13 -0.15
14 -0.15
15 -0.15
16 -0.15
17 -0.15
18 -0.15
19 0.08
2 -0.36
20 0.08
21 0.08
22 -0.15
23 0.28
24 0.28
25 0.28
29 0.36
3 -0.36
35 0.15
36 0.15
37 0.15
38 0.15
39 0.15
4 -0.36
40 0.15
41 0.15
5 -0.9
6 0.27
7 0.14
9 -0.14

>  <PUBCHEM_EFFECTIVE_ROTOR_COUNT>  (1) 
9

>  <PUBCHEM_PHARMACOPHORE_FEATURES>  (1) 
8
1 1 acceptor
1 2 acceptor
1 3 acceptor
1 4 acceptor
1 5 cation
1 5 donor
6 12 15 16 19 20 21 rings
6 9 13 14 17 18 22 rings

>  <PUBCHEM_HEAVY_ATOM_COUNT>  (1) 
25

>  <PUBCHEM_ATOM_DEF_STEREO_COUNT>  (1) 
0

>  <PUBCHEM_ATOM_UDEF_STEREO_COUNT>  (1) 
1

>  <PUBCHEM_BOND_DEF_STEREO_COUNT>  (1) 
0

>  <PUBCHEM_BOND_UDEF_STEREO_COUNT>  (1) 
0

>  <PUBCHEM_ISOTOPIC_ATOM_COUNT>  (1) 
0

>  <PUBCHEM_COMPONENT_COUNT>  (1) 
1

>  <PUBCHEM_CACTVS_TAUTO_COUNT>  (1) 
2

>  <PUBCHEM_CONFORMER_ID>  (1) 
00007D4D00000001

>  <PUBCHEM_MMFF94_ENERGY>  (1) 
96.5456

>  <PUBCHEM_FEATURE_SELFOVERLAP>  (1) 
40.606

>  <PUBCHEM_SHAPE_FINGERPRINT>  (1) 
10595046 47 18335709321745305492
10622 236 17128153246777414231
10835480 77 18341043112269992680
11135609 99 18340767032647821446
11315181 36 17918277549530407536
11524674 6 17132395016718911127
11796584 16 18408890624977167206
12166972 35 18041285443016091468
12555020 224 18412255121793926605
12643181 29 18408881820014551034
12760667 363 18273497866274430073
13402501 40 18343586226661249630
13533116 47 18131069397950608832
13685833 64 18343867723202077584
14251752 14 18114177484748664140
14420673 8 18411142446049476051
14461889 52 18271517677121391042
14866123 147 18128824032288538225
14910302 57 18334565863331791796
14931854 50 18334862671848203286
15183329 4 18410572847001084968
15230672 131 18115300064566990523
15352361 1 18413672405251278112
17492 89 18122064470680819347
17857418 61 18413108338643328552
19958102 18 18261661606696034685
20403669 9 18273220802635502846
21033650 10 17313098610050934789
21267235 1 18410298042725685611
21279426 13 18410566280370700709
21315764 119 18114463366535679660
2215653 11 18271800207447103468
23198884 109 16298108665942016733
23522609 53 18053418532623554688
23559900 14 18341324582761676296
249999 5 17845080948364198464
3004659 81 18334011696934351416
335352 9 18412543189814760853
3383291 50 18131348618317863375
4015057 19 17917135213248349625
4073 2 18264208179084987000
4107672 100 17967531234249571077
439807 62 18335144193621018338
44062 13 18410855503189098279
465052 167 18059859450737976876
474144 1 17678158422583174114
5104073 3 17846500326921390056
559249 180 18410573968325217847
59755656 215 18410855417563929342
6138700 20 18412544284746383119
6437827 68 18411139126034507414
6823239 73 18343291579446642938
8863177 126 18270401719172606418
9709674 26 18267300018060611329
999808 66 17968392216320768827

>  <PUBCHEM_SHAPE_MULTIPOLES>  (1) 
486.03
19.08
3.16
0.97
13.25
1.07
0.11
7.15
4.66
-1.22
-0.88
-0.11
-0.17
1.65

>  <PUBCHEM_SHAPE_SELFOVERLAP>  (1) 
1016.358

>  <PUBCHEM_SHAPE_VOLUME>  (1) 
276.3

>  <PUBCHEM_COORDINATE_TYPE>  (1) 
2
5
10

$$$$
