32078
     RDKit          3D

 27 28  0  0  1  0  0  0  0  0999 V2000
    2.7406   -2.2212   -1.6129 O   0  0  0  0  0  0  0  0  0  0  0  0
   -4.6581   -1.8930   -0.0962 O   0  0  0  0  0  0  0  0  0  0  0  0
   -3.3353    2.6818    0.4106 O   0  0  0  0  0  0  0  0  0  0  0  0
    0.5732    0.2567   -1.8000 O   0  0  0  0  0  0  0  0  0  0  0  0
   -5.2770    0.7159    0.5978 O   0  0  0  0  0  0  0  0  0  0  0  0
    2.3054   -1.8190    0.6335 N   0  0  0  0  0  0  0  0  0  0  0  0
    3.6752   -1.8290    1.0944 C   0  0  0  0  0  0  0  0  0  0  0  0
    4.0568   -0.4851    1.7345 C   0  0  0  0  0  0  0  0  0  0  0  0
    3.8730    0.6867    0.7996 C   0  0  0  0  0  0  0  0  0  0  0  0
    3.8769   -2.9736    2.0824 C   0  0  0  0  0  0  0  0  0  0  0  0
    1.9533   -2.0174   -0.6904 C   0  0  0  0  0  0  0  0  0  0  0  0
    0.4550   -1.9779   -0.9224 C   0  0  0  0  0  0  0  0  0  0  0  0
    4.9228    1.0928   -0.0243 C   0  0  0  0  0  0  0  0  0  0  0  0
    2.6538    1.3630    0.7602 C   0  0  0  0  0  0  0  0  0  0  0  0
   -0.0846   -0.5864   -1.1940 C   0  0  0  0  0  0  0  0  0  0  0  0
   -1.4573   -0.2422   -0.7219 C   0  0  0  0  0  0  0  0  0  0  0  0
    4.7533    2.1755   -0.8875 C   0  0  0  0  0  0  0  0  0  0  0  0
    2.4842    2.4455   -0.1030 C   0  0  0  0  0  0  0  0  0  0  0  0
   -1.7651    1.0725   -0.3721 C   0  0  0  0  0  0  0  0  0  0  0  0
   -2.4323   -1.2353   -0.6280 C   0  0  0  0  0  0  0  0  0  0  0  0
   -3.7150   -0.9137   -0.1841 C   0  0  0  0  0  0  0  0  0  0  0  0
   -3.0479    1.3941    0.0718 C   0  0  0  0  0  0  0  0  0  0  0  0
   -4.0226    0.4009    0.1659 C   0  0  0  0  0  0  0  0  0  0  0  0
    3.5341    2.8517   -0.9269 C   0  0  0  0  0  0  0  0  0  0  0  0
   -4.2618   -3.2101   -0.4730 C   0  0  0  0  0  0  0  0  0  0  0  0
   -2.2823    3.6355    0.2855 C   0  0  0  0  0  0  0  0  0  0  0  0
   -5.5183    0.6314    2.0004 C   0  0  0  0  0  0  0  0  0  0  0  0
  1 11  2  0
  2 21  1  0
  2 25  1  0
  3 22  1  0
  3 26  1  0
  4 15  2  0
  5 23  1  0
  5 27  1  0
  6  7  1  0
  6 11  1  0
  7  8  1  0
  7 10  1  0
  8  9  1  0
  9 13  2  0
  9 14  1  0
 11 12  1  0
 12 15  1  0
 13 17  1  0
 14 18  2  0
 15 16  1  0
 16 19  2  0
 16 20  1  0
 17 24  2  0
 18 24  1  0
 19 22  1  0
 20 21  2  0
 21 23  1  0
 22 23  2  0
M  END
>  <PUBCHEM_COMPOUND_CID>  (1) 
32078

>  <PUBCHEM_CONFORMER_RMSD>  (1) 
1

>  <PUBCHEM_CONFORMER_DIVERSEORDER>  (1) 
1
87
40
96
61
130
107
147
70
157
64
56
186
92
160
17
131
34
208
115
178
58
80
163
137
74
38
135
173
149
106
200
142
102
190
148
97
196
133
165
124
127
184
171
187
22
18
164
45
153
100
140
20
66
209
4
93
88
32
79
14
166
89
117
111
12
91
108
59
83
126
39
201
42
193
192
181
2
98
82
198
116
30
46
101
31
8
28
205
33
182
68
16
120
152
112
48
199
123
145
29
162
90
53
95
52
109
114
35
204
211
7
105
138
155
136
177
65
167
132
141
125
6
25
129
146
150
11
67
49
197
189
195
103
134
24
122
188
154
76
94
75
15
23
203
156
41
210
47
54
110
191
13
71
170
73
5
55
175
81
78
44
119
99
50
159
21
121
212
179
37
128
3
174
85
144
139
194
151
172
118
180
72
19
185
86
143
84
158
36
57
51
168
183
113
77
176
9
207
63
60
161
10
43
169
202
69
104
26
206
62
27

>  <PUBCHEM_MMFF94_PARTIAL_CHARGES>  (1) 
34
1 -0.57
11 0.57
12 0.12
13 -0.15
14 -0.15
15 0.42
16 0.09
17 -0.15
18 -0.15
19 -0.15
2 -0.36
20 -0.15
21 0.08
22 0.08
23 0.08
24 -0.15
25 0.28
26 0.28
27 0.28
3 -0.36
31 0.37
37 0.15
38 0.15
39 0.15
4 -0.57
40 0.15
41 0.15
42 0.15
43 0.15
5 -0.36
6 -0.73
7 0.3
8 0.14
9 -0.14

>  <PUBCHEM_EFFECTIVE_ROTOR_COUNT>  (1) 
10

>  <PUBCHEM_PHARMACOPHORE_FEATURES>  (1) 
9
1 1 acceptor
1 12 anion
1 2 acceptor
1 3 acceptor
1 4 acceptor
1 5 acceptor
1 6 donor
6 16 19 20 21 22 23 rings
6 9 13 14 17 18 24 rings

>  <PUBCHEM_HEAVY_ATOM_COUNT>  (1) 
27

>  <PUBCHEM_ATOM_DEF_STEREO_COUNT>  (1) 
0

>  <PUBCHEM_ATOM_UDEF_STEREO_COUNT>  (1) 
1

>  <PUBCHEM_BOND_DEF_STEREO_COUNT>  (1) 
0

>  <PUBCHEM_BOND_UDEF_STEREO_COUNT>  (1) 
0

>  <PUBCHEM_ISOTOPIC_ATOM_COUNT>  (1) 
0

>  <PUBCHEM_COMPONENT_COUNT>  (1) 
1

>  <PUBCHEM_CACTVS_TAUTO_COUNT>  (1) 
5

>  <PUBCHEM_CONFORMER_ID>  (1) 
00007D4E00000001

>  <PUBCHEM_MMFF94_ENERGY>  (1) 
94.4228

>  <PUBCHEM_FEATURE_SELFOVERLAP>  (1) 
45.682

>  <PUBCHEM_SHAPE_FINGERPRINT>  (1) 
10366900 7 18263644137560882960
10670039 82 18342461482406584436
10674148 151 18270694168777611772
11595378 159 18187089416543454293
12107183 9 17975688394508715640
12633257 1 18191577545772204618
128238 76 18052815042120034879
13583140 156 17824248328920032103
14341114 176 18409166576045348808
14341114 328 18410574015395700499
14787075 74 18117832433303812071
14950920 106 18186791457361150531
14955137 171 18271800191169262242
15250474 111 18337098055563523899
15927050 60 16540738240778399357
19315092 285 16880439762365640923
19377110 9 18338244885494904699
20465049 17 18338249253671453540
21033648 29 17272270367482751906
21421861 104 18337680732343712776
21859007 373 17533771612528410829
23559900 14 18129954376953308030
2637199 183 18337676438125451124
38570 142 17969515973503141260
392239 28 18260828211221086331
460360 51 18041273249440446876
5104073 3 18336282171603301019
513532 50 14405177340376861552
5312544 6 18046060733753133404
6823239 73 18130518427024791134
7097593 13 18263914450165614914

>  <PUBCHEM_SHAPE_MULTIPOLES>  (1) 
521.32
12.19
4.02
1.56
5.24
0.41
-0.4
0.91
-4.13
-0.91
-0.1
-0.76
-0.64
-2.62

>  <PUBCHEM_SHAPE_SELFOVERLAP>  (1) 
1089.245

>  <PUBCHEM_SHAPE_VOLUME>  (1) 
295.9

>  <PUBCHEM_COORDINATE_TYPE>  (1) 
2
5
10

$$$$
