32082
     RDKit          3D

 24 25  0  0  0  0  0  0  0  0999 V2000
    3.8408    2.4226   -0.2990 O   0  0  0  0  0  0  0  0  0  0  0  0
    4.3222   -2.3420   -0.2193 O   0  0  0  0  0  0  0  0  0  0  0  0
    5.4495    0.1751   -0.4778 O   0  0  0  0  0  0  0  0  0  0  0  0
   -0.5852   -1.4946    0.5148 O   0  0  0  0  0  0  0  0  0  0  0  0
   -2.7743    0.4738    1.9896 O   0  0  0  0  0  0  0  0  0  0  0  0
   -3.1805    0.4653   -0.3247 N   0  0  0  0  0  0  0  0  0  0  0  0
   -5.1189    0.0880   -1.6258 N   0  0  0  0  0  0  0  0  0  0  0  0
    1.3673   -0.2264    0.1725 C   0  0  0  0  0  0  0  0  0  0  0  0
    2.1740   -1.3608    0.0832 C   0  0  0  0  0  0  0  0  0  0  0  0
    1.9316    1.0427    0.0438 C   0  0  0  0  0  0  0  0  0  0  0  0
    3.3027    1.1773   -0.1746 C   0  0  0  0  0  0  0  0  0  0  0  0
    3.5451   -1.2261   -0.1351 C   0  0  0  0  0  0  0  0  0  0  0  0
    4.1094    0.0429   -0.2639 C   0  0  0  0  0  0  0  0  0  0  0  0
   -0.0617   -0.3672    0.4022 C   0  0  0  0  0  0  0  0  0  0  0  0
   -0.9521    0.8796    0.5032 C   0  0  0  0  0  0  0  0  0  0  0  0
   -2.4092    0.5936    0.8230 C   0  0  0  0  0  0  0  0  0  0  0  0
   -4.5619    0.1671   -0.4048 C   0  0  0  0  0  0  0  0  0  0  0  0
    4.2929    3.0556    0.8964 C   0  0  0  0  0  0  0  0  0  0  0  0
    4.8865   -2.8319    0.9955 C   0  0  0  0  0  0  0  0  0  0  0  0
    5.8892    0.1972   -1.8339 C   0  0  0  0  0  0  0  0  0  0  0  0
   -5.2292   -0.0184    0.7870 C   0  0  0  0  0  0  0  0  0  0  0  0
   -6.5868   -0.3110    0.7193 C   0  0  0  0  0  0  0  0  0  0  0  0
   -7.2114   -0.4043   -0.5196 C   0  0  0  0  0  0  0  0  0  0  0  0
   -6.4400   -0.1980   -1.6520 C   0  0  0  0  0  0  0  0  0  0  0  0
  1 11  1  0
  1 18  1  0
  2 12  1  0
  2 19  1  0
  3 13  1  0
  3 20  1  0
  4 14  2  0
  5 16  2  0
  6 16  1  0
  6 17  1  0
  7 17  2  0
  7 24  1  0
  8  9  2  0
  8 10  1  0
  8 14  1  0
  9 12  1  0
 10 11  2  0
 11 13  1  0
 12 13  2  0
 14 15  1  0
 15 16  1  0
 17 21  1  0
 21 22  2  0
 22 23  1  0
 23 24  2  0
M  END
>  <PUBCHEM_COMPOUND_CID>  (1) 
32082

>  <PUBCHEM_CONFORMER_RMSD>  (1) 
0.8

>  <PUBCHEM_CONFORMER_DIVERSEORDER>  (1) 
1
22
126
65
115
78
145
97
61
105
36
81
136
77
8
51
15
50
104
119
59
85
101
79
134
66
67
114
60
144
53
56
100
40
135
72
46
26
2
71
3
87
24
86
84
70
54
7
106
123
83
17
131
124
64
37
113
19
133
122
10
110
23
29
89
109
117
91
31
9
63
107
27
74
94
140
80
58
132
102
130
118
92
14
75
111
139
62
33
25
38
69
128
112
95
12
13
121
76
127
141
93
99
96
55
103
120
47
143
34
18
41
35
45
52
82
125
44
20
11
108
68
90
73
28
98
49
138
6
88
116
5
57
32
16
39
48
142
30
137
21
129
42
4
43

>  <PUBCHEM_MMFF94_PARTIAL_CHARGES>  (1) 
31
1 -0.36
10 -0.15
11 0.08
12 0.08
13 0.08
14 0.42
15 0.12
16 0.57
17 0.43
18 0.28
19 0.28
2 -0.36
20 0.28
21 -0.15
22 -0.15
23 -0.15
24 0.16
25 0.15
26 0.15
29 0.37
3 -0.36
39 0.15
4 -0.57
40 0.15
41 0.15
42 0.15
5 -0.57
6 -0.55
7 -0.62
8 0.09
9 -0.15

>  <PUBCHEM_EFFECTIVE_ROTOR_COUNT>  (1) 
8

>  <PUBCHEM_PHARMACOPHORE_FEATURES>  (1) 
10
1 1 acceptor
1 15 anion
1 2 acceptor
1 3 acceptor
1 4 acceptor
1 5 acceptor
1 6 donor
1 7 acceptor
6 7 17 21 22 23 24 rings
6 8 9 10 11 12 13 rings

>  <PUBCHEM_HEAVY_ATOM_COUNT>  (1) 
24

>  <PUBCHEM_ATOM_DEF_STEREO_COUNT>  (1) 
0

>  <PUBCHEM_ATOM_UDEF_STEREO_COUNT>  (1) 
0

>  <PUBCHEM_BOND_DEF_STEREO_COUNT>  (1) 
0

>  <PUBCHEM_BOND_UDEF_STEREO_COUNT>  (1) 
0

>  <PUBCHEM_ISOTOPIC_ATOM_COUNT>  (1) 
0

>  <PUBCHEM_COMPONENT_COUNT>  (1) 
1

>  <PUBCHEM_CACTVS_TAUTO_COUNT>  (1) 
8

>  <PUBCHEM_CONFORMER_ID>  (1) 
00007D5200000001

>  <PUBCHEM_MMFF94_ENERGY>  (1) 
102.1529

>  <PUBCHEM_FEATURE_SELFOVERLAP>  (1) 
50.758

>  <PUBCHEM_SHAPE_FINGERPRINT>  (1) 
10299344 5 17846782923501281423
10411042 1 18122063110125947250
10595046 47 18201719574498162513
10693767 8 17987247634215775350
10912923 1 17775573035321271001
11128504 68 17988924504831520313
12166972 35 18272091599472054961
12236239 1 17846502552152084121
12596602 18 9079112285361070845
12616971 3 18202566151248704995
12730499 353 18334298690722367922
13533116 47 18408604734299231722
13668630 136 17703795820753139103
14170010 4 18411696591720509992
14461889 52 18190458457662557547
14528608 73 18341895207736862973
15183329 4 18201719557291854871
15475509 35 15266785387200251022
17844677 252 18410014295695801845
18335252 98 17968106360403751243
18681886 176 17418376892118976816
19489759 90 15864070975532454265
200 152 18343865489993150689
20028762 73 18201997673209261286
20157964 124 18411416254361863712
20281389 69 13045936907198246983
20645477 70 18262521394777262834
21033648 29 17676201386015906973
21344244 78 18270103618978555730
22061861 79 18187363212498304663
221357 26 18408321064399287900
2303208 19 17676216762473379267
23035841 295 16988848285229417159
23081809 10 18341054017080349635
23424782 7 18114186393260000251
23522609 53 17416710083994609889
23559900 14 17458069239589332723
2767999 5 13479131294450008239
29717793 49 17561091310422614652
3004659 81 17775287161828505052
335352 9 18410582791079444766
351380 3 17346596387811728581
3545911 37 18261117399694854587
4073 2 18115030830283730611
4325135 7 18131634478497575765

>  <PUBCHEM_SHAPE_MULTIPOLES>  (1) 
454.6
18.6
2.17
1.32
22.2
0.14
0.24
-1.82
5.25
-5.63
-0.7
0.74
0.06
-0.44

>  <PUBCHEM_SHAPE_SELFOVERLAP>  (1) 
960.733

>  <PUBCHEM_SHAPE_VOLUME>  (1) 
254.9

>  <PUBCHEM_COORDINATE_TYPE>  (1) 
2
5
10

$$$$
