32087
     RDKit          3D

 24 26  0  0  1  0  0  0  0  0999 V2000
    0.8676   -1.3782   -0.9413 S   0  0  0  0  0  0  0  0  0  0  0  0
    0.9188   -0.8852   -2.3059 O   0  0  0  0  0  0  0  0  0  0  0  0
    0.6987   -2.7975   -0.6777 O   0  0  0  0  0  0  0  0  0  0  0  0
    0.9658    0.2644    2.4403 O   0  0  0  0  0  0  0  0  0  0  0  0
   -5.4061   -0.4634    0.4713 N   0  0  0  0  0  0  0  0  0  0  0  0
   -0.4682   -0.5528   -0.1003 C   0  0  0  0  0  0  0  0  0  0  0  0
   -1.8137   -1.1253   -0.5658 C   0  0  0  0  0  0  0  0  0  0  0  0
   -0.2901    0.9359   -0.3016 C   0  0  0  0  0  0  0  0  0  0  0  0
    2.4335   -0.9628   -0.2173 C   0  0  0  0  0  0  0  0  0  0  0  0
    0.7117    1.6318    0.4047 C   0  0  0  0  0  0  0  0  0  0  0  0
    1.6418    0.9403    1.3810 C   0  0  0  0  0  0  0  0  0  0  0  0
   -2.9698   -0.5000    0.2055 C   0  0  0  0  0  0  0  0  0  0  0  0
    2.6644    0.0195    0.7554 C   0  0  0  0  0  0  0  0  0  0  0  0
   -4.3072   -1.0515   -0.2855 C   0  0  0  0  0  0  0  0  0  0  0  0
   -1.0853    1.6561   -1.2143 C   0  0  0  0  0  0  0  0  0  0  0  0
    0.8851    3.0127    0.1830 C   0  0  0  0  0  0  0  0  0  0  0  0
    3.4977   -1.7432   -0.7102 C   0  0  0  0  0  0  0  0  0  0  0  0
    3.9914    0.1636    1.2247 C   0  0  0  0  0  0  0  0  0  0  0  0
   -0.9053    3.0250   -1.4174 C   0  0  0  0  0  0  0  0  0  0  0  0
    0.0807    3.7046   -0.7180 C   0  0  0  0  0  0  0  0  0  0  0  0
    4.7943   -1.5686   -0.2367 C   0  0  0  0  0  0  0  0  0  0  0  0
    5.0421   -0.6147    0.7371 C   0  0  0  0  0  0  0  0  0  0  0  0
   -5.2553   -0.7429    1.9004 C   0  0  0  0  0  0  0  0  0  0  0  0
   -6.6927   -0.9680   -0.0115 C   0  0  0  0  0  0  0  0  0  0  0  0
  1  2  2  0
  1  3  2  0
  1  6  1  0
  1  9  1  0
  4 11  1  0
  5 14  1  0
  5 23  1  0
  5 24  1  0
  6  7  1  0
  6  8  1  0
  7 12  1  0
  8 10  2  0
  8 15  1  0
  9 13  2  0
  9 17  1  0
 10 11  1  0
 10 16  1  0
 11 13  1  0
 12 14  1  0
 13 18  1  0
 15 19  2  0
 16 20  2  0
 17 21  2  0
 18 22  2  0
 19 20  1  0
 21 22  1  0
M  END
>  <PUBCHEM_COMPOUND_CID>  (1) 
32087

>  <PUBCHEM_CONFORMER_RMSD>  (1) 
0.8

>  <PUBCHEM_CONFORMER_DIVERSEORDER>  (1) 
1
6
36
14
9
29
30
4
16
2
15
40
25
31
11
26
38
21
3
19
22
13
28
24
12
23
7
39
37
18
20
27
34
8
10
32
17
33
5
35

>  <PUBCHEM_MMFF94_PARTIAL_CHARGES>  (1) 
31
1 1.2
10 -0.14
11 0.57
13 -0.14
14 0.27
15 -0.15
16 -0.15
17 -0.15
18 -0.15
19 -0.15
2 -0.65
20 -0.15
21 -0.15
22 -0.15
23 0.27
24 0.27
3 -0.65
33 0.15
34 0.15
35 0.15
36 0.15
37 0.15
38 0.15
39 0.15
4 -0.68
40 0.15
41 0.4
5 -0.81
6 0.25
8 -0.14
9 -0.01

>  <PUBCHEM_EFFECTIVE_ROTOR_COUNT>  (1) 
4.4

>  <PUBCHEM_PHARMACOPHORE_FEATURES>  (1) 
8
1 2 acceptor
1 3 acceptor
1 4 acceptor
1 4 donor
1 5 cation
6 8 10 15 16 19 20 rings
6 9 13 17 18 21 22 rings
7 1 6 8 9 10 11 13 rings

>  <PUBCHEM_HEAVY_ATOM_COUNT>  (1) 
24

>  <PUBCHEM_ATOM_DEF_STEREO_COUNT>  (1) 
0

>  <PUBCHEM_ATOM_UDEF_STEREO_COUNT>  (1) 
2

>  <PUBCHEM_BOND_DEF_STEREO_COUNT>  (1) 
0

>  <PUBCHEM_BOND_UDEF_STEREO_COUNT>  (1) 
0

>  <PUBCHEM_ISOTOPIC_ATOM_COUNT>  (1) 
0

>  <PUBCHEM_COMPONENT_COUNT>  (1) 
1

>  <PUBCHEM_CACTVS_TAUTO_COUNT>  (1) 
1

>  <PUBCHEM_CONFORMER_ID>  (1) 
00007D5700000001

>  <PUBCHEM_MMFF94_ENERGY>  (1) 
67.3456

>  <PUBCHEM_FEATURE_SELFOVERLAP>  (1) 
40.628

>  <PUBCHEM_SHAPE_FINGERPRINT>  (1) 
10076449 9 18130517357973637886
10688039 33 18261110742522153629
10764073 3 16697824972853850945
10863032 1 17902501594061177094
11421498 54 16226040042771094073
11796584 16 16660365883433305547
12035758 1 18341038700958154802
12166972 35 18271242829041964433
12422481 6 18130229259429181033
12553582 1 18261936518678055555
12788726 201 18040999492925791458
13075007 39 18116449209300731811
13140716 1 18196086862080498467
13464513 79 18412260648889478179
13540713 4 17983567512788466390
14170010 4 18272369793821186259
14713325 29 18123749747534397072
14790565 3 17543631289102106588
15219462 58 17391868722908335528
1601671 61 18340492282307475188
16945 1 17130679796186320496
17357779 13 18268406010815194797
173720 79 12103560853485935252
17492 54 18118149045697908052
1813 80 18408329882088140877
18785283 64 18118692247264873789
19141452 34 18059568130989809703
20600515 1 18270977802898674591
20739085 24 18338519749936684997
21033648 29 18059840750334182961
21285901 2 18341337695196279606
21330990 113 18270688545419929568
22182313 1 18195218127735925300
23352939 185 18341905108027000424
23419403 2 17845069836386549736
23557571 272 18263085422445157110
23559900 14 18336264660974408827
23845131 108 17332531172655220377
2748010 2 18127100062517104284
3052486 1 18188492354868208789
3411729 13 17970912399671440517
465052 167 18335422399937693275
5104073 3 18127396870859313466
5283268 108 18409730659749102521
57527585 103 16333596249942858582
58260988 393 17749381543061258268
7495541 125 18041288780596037595

>  <PUBCHEM_SHAPE_MULTIPOLES>  (1) 
475.17
10.29
3.16
1.6
13.53
3.45
-0.32
-7.82
-3.59
-0.55
1.28
-0.02
0.05
1.1

>  <PUBCHEM_SHAPE_SELFOVERLAP>  (1) 
1000.387

>  <PUBCHEM_SHAPE_VOLUME>  (1) 
266.8

>  <PUBCHEM_COORDINATE_TYPE>  (1) 
2
5
10

$$$$
