3209
     RDKit          3D

 22 21  0  0  0  0  0  0  0  0999 V2000
   -1.5252   -0.1012   -2.0726 O   0  0  0  0  0  0  0  0  0  0  0  0
   -1.8906   -2.2720   -2.6571 O   0  0  0  0  0  0  0  0  0  0  0  0
   -0.1819   -3.2599   -0.6333 C   0  0  0  0  0  0  0  0  0  0  0  0
    0.7474   -3.6295    0.5296 C   0  0  0  0  0  0  0  0  0  0  0  0
   -0.3754   -1.7584   -0.8423 C   0  0  0  0  0  0  0  0  0  0  0  0
    2.1471   -3.1220    0.3419 C   0  0  0  0  0  0  0  0  0  0  0  0
    4.1593   -1.7899    1.0289 C   0  0  0  0  0  0  0  0  0  0  0  0
    2.7744   -2.3326    1.2262 C   0  0  0  0  0  0  0  0  0  0  0  0
    4.1551   -0.2891    1.0372 C   0  0  0  0  0  0  0  0  0  0  0  0
    3.9694    1.9660   -0.0365 C   0  0  0  0  0  0  0  0  0  0  0  0
   -1.3373   -1.4380   -1.9546 C   0  0  0  0  0  0  0  0  0  0  0  0
    4.0001    0.4656   -0.0611 C   0  0  0  0  0  0  0  0  0  0  0  0
    0.5859    3.8283   -0.6298 C   0  0  0  0  0  0  0  0  0  0  0  0
    2.7057    2.4942   -0.6486 C   0  0  0  0  0  0  0  0  0  0  0  0
   -2.9131    2.5519    0.7278 C   0  0  0  0  0  0  0  0  0  0  0  0
    1.8537    3.3137   -0.0142 C   0  0  0  0  0  0  0  0  0  0  0  0
   -0.6057    3.5194    0.2290 C   0  0  0  0  0  0  0  0  0  0  0  0
   -1.7201    2.8622   -0.1291 C   0  0  0  0  0  0  0  0  0  0  0  0
   -3.0795    1.0727    0.9203 C   0  0  0  0  0  0  0  0  0  0  0  0
   -4.3709   -1.0736    0.8088 C   0  0  0  0  0  0  0  0  0  0  0  0
   -4.2076    0.4065    0.6329 C   0  0  0  0  0  0  0  0  0  0  0  0
   -4.8910   -1.4143    2.1963 C   0  0  0  0  0  0  0  0  0  0  0  0
  1 11  1  0
  2 11  2  0
  3  4  1  0
  3  5  1  0
  4  6  1  0
  5 11  1  0
  6  8  2  0
  7  8  1  0
  7  9  1  0
  9 12  2  0
 10 12  1  0
 10 14  1  0
 13 16  1  0
 13 17  1  0
 14 16  2  0
 15 18  1  0
 15 19  1  0
 17 18  2  0
 19 21  2  0
 20 21  1  0
 20 22  1  0
M  END
>  <PUBCHEM_COMPOUND_CID>  (1) 
3209

>  <PUBCHEM_CONFORMER_RMSD>  (1) 
1.4

>  <PUBCHEM_CONFORMER_DIVERSEORDER>  (1) 
1
44
55
60
43
2
32
58
31
75
47
96
59
82
46
70
49
14
39
81
66
51
88
68
84
8
87
52
54
20
7
11
64
17
63
42
62
53
98
92
91
29
40
69
61
37
36
71
24
83
38
13
34
16
19
35
18
65
12
72
99
30
26
74
5
85
41
79
97
94
76
89
28
56
45
23
9
100
48
86
80
73
57
33
21
6
27
67
95
3
93
10
22
15
25
78
4
90
50
77

>  <PUBCHEM_MMFF94_PARTIAL_CHARGES>  (1) 
31
1 -0.65
10 0.28
11 0.66
12 -0.29
13 0.28
14 -0.29
15 0.28
16 -0.29
17 -0.29
18 -0.29
19 -0.29
2 -0.57
20 0.14
21 -0.29
29 0.15
32 0.15
33 0.15
36 0.15
39 0.15
4 0.14
42 0.15
43 0.15
44 0.15
45 0.15
48 0.15
5 0.06
52 0.5
6 -0.29
7 0.28
8 -0.29
9 -0.29

>  <PUBCHEM_EFFECTIVE_ROTOR_COUNT>  (1) 
13

>  <PUBCHEM_PHARMACOPHORE_FEATURES>  (1) 
5
1 1 acceptor
1 2 acceptor
1 22 hydrophobe
3 1 2 11 anion
4 3 4 5 6 hydrophobe

>  <PUBCHEM_HEAVY_ATOM_COUNT>  (1) 
22

>  <PUBCHEM_ATOM_DEF_STEREO_COUNT>  (1) 
0

>  <PUBCHEM_ATOM_UDEF_STEREO_COUNT>  (1) 
0

>  <PUBCHEM_BOND_DEF_STEREO_COUNT>  (1) 
0

>  <PUBCHEM_BOND_UDEF_STEREO_COUNT>  (1) 
5

>  <PUBCHEM_ISOTOPIC_ATOM_COUNT>  (1) 
0

>  <PUBCHEM_COMPONENT_COUNT>  (1) 
1

>  <PUBCHEM_CACTVS_TAUTO_COUNT>  (1) 
1

>  <PUBCHEM_CONFORMER_ID>  (1) 
00000C8900000001

>  <PUBCHEM_MMFF94_ENERGY>  (1) 
5.5276

>  <PUBCHEM_FEATURE_SELFOVERLAP>  (1) 
25.428

>  <PUBCHEM_SHAPE_FINGERPRINT>  (1) 
13122387 1 18194679272511747576
13422730 73 15606471120160599206
13642711 20 16169168628263462445
144659 178 12067531571188888747
15403338 16 18187359918263624523
19930381 70 18334862722722711713
20765182 20 18053397495482621392
373842 8 18338235939025260185
5047190 2 17910678988481511051

>  <PUBCHEM_SHAPE_MULTIPOLES>  (1) 
441.01
8.94
6.14
1.78
2
1.92
0.88
-1.15
-5.18
-2.03
0.41
1.61
-1.46
-1.21

>  <PUBCHEM_SHAPE_SELFOVERLAP>  (1) 
833.27

>  <PUBCHEM_SHAPE_VOLUME>  (1) 
270.5

>  <PUBCHEM_COORDINATE_TYPE>  (1) 
2
5
10

$$$$
