32097
     RDKit          3D

  9  9  0  0  1  0  0  0  0  0999 V2000
    1.5251   -0.0848   -0.2284 C   0  0  0  0  0  0  0  0  0  0  0  0
    0.9910    1.1176    0.5709 C   0  0  0  0  0  0  0  0  0  0  0  0
    0.7526   -1.3808    0.0948 C   0  0  0  0  0  0  0  0  0  0  0  0
   -0.2033    1.8507   -0.0463 C   0  0  0  0  0  0  0  0  0  0  0  0
   -0.6699   -1.4570   -0.4614 C   0  0  0  0  0  0  0  0  0  0  0  0
   -1.2623    1.0054   -0.7488 C   0  0  0  0  0  0  0  0  0  0  0  0
   -1.5551   -0.3038   -0.0718 C   0  0  0  0  0  0  0  0  0  0  0  0
    3.0060   -0.2993    0.1142 C   0  0  0  0  0  0  0  0  0  0  0  0
   -2.5841   -0.4480    0.7768 C   0  0  0  0  0  0  0  0  0  0  0  0
  1  2  1  0
  1  3  1  0
  1  8  1  0
  2  4  1  0
  3  5  1  0
  4  6  1  0
  5  7  1  0
  6  7  1  0
  7  9  2  0
M  END
>  <PUBCHEM_COMPOUND_CID>  (1) 
32097

>  <PUBCHEM_CONFORMER_RMSD>  (1) 
0.4

>  <PUBCHEM_CONFORMER_DIVERSEORDER>  (1) 
3
4
2
5
1

>  <PUBCHEM_MMFF94_PARTIAL_CHARGES>  (1) 
6
24 0.15
25 0.15
5 0.14
6 0.14
7 -0.28
9 -0.3

>  <PUBCHEM_EFFECTIVE_ROTOR_COUNT>  (1) 
1.2

>  <PUBCHEM_PHARMACOPHORE_FEATURES>  (1) 
1
7 1 2 3 4 5 6 7 rings

>  <PUBCHEM_HEAVY_ATOM_COUNT>  (1) 
9

>  <PUBCHEM_ATOM_DEF_STEREO_COUNT>  (1) 
0

>  <PUBCHEM_ATOM_UDEF_STEREO_COUNT>  (1) 
1

>  <PUBCHEM_BOND_DEF_STEREO_COUNT>  (1) 
0

>  <PUBCHEM_BOND_UDEF_STEREO_COUNT>  (1) 
0

>  <PUBCHEM_ISOTOPIC_ATOM_COUNT>  (1) 
0

>  <PUBCHEM_COMPONENT_COUNT>  (1) 
1

>  <PUBCHEM_CACTVS_TAUTO_COUNT>  (1) 
1

>  <PUBCHEM_CONFORMER_ID>  (1) 
00007D6100000003

>  <PUBCHEM_MMFF94_ENERGY>  (1) 
13.9604

>  <PUBCHEM_FEATURE_SELFOVERLAP>  (1) 
5.074

>  <PUBCHEM_SHAPE_FINGERPRINT>  (1) 
10857977 72 18334013925568639115
15310529 11 17530682113053823628
16714656 1 18411139138602508430
16945 1 18412544314325656094
18185500 45 18267861864122898431
21040471 1 17906165157745610660
21922407 69 15574987343138182252
23235685 24 18192983829518098653
23552423 10 18046905167230715854
241688 4 18194952165811335627
2748010 2 18124313800851081078
29004967 10 18408046216519684929
5084963 1 18200866404518561667
528862 383 17753620336036693885
66348 1 18123183498581654332

>  <PUBCHEM_SHAPE_MULTIPOLES>  (1) 
185.22
3.29
1.74
0.81
0.97
0.32
0.01
-0.59
0.53
-0.12
-0.09
-0.22
0.04
0.2

>  <PUBCHEM_SHAPE_SELFOVERLAP>  (1) 
354.854

>  <PUBCHEM_SHAPE_VOLUME>  (1) 
112.5

>  <PUBCHEM_COORDINATE_TYPE>  (1) 
2
5
10

$$$$
