32099
     RDKit          3D

 13 14  0  0  0  0  0  0  0  0999 V2000
    4.6953   -1.3163    0.2400 Br  0  0  0  0  0  0  0  0  0  0  0  0
   -0.9881    1.5700   -0.1917 S   0  0  0  0  0  0  0  0  0  0  0  0
   -5.3079   -0.4847    0.4978 N   0  0  0  0  0  0  0  0  0  0  0  0
   -1.6580    0.0205   -0.4279 C   0  0  0  0  0  0  0  0  0  0  0  0
   -3.1168   -0.1214   -0.6253 C   0  0  0  0  0  0  0  0  0  0  0  0
    0.6233   -0.4520   -0.1872 C   0  0  0  0  0  0  0  0  0  0  0  0
    0.6108    0.9397   -0.0523 C   0  0  0  0  0  0  0  0  0  0  0  0
   -0.6996   -0.9647   -0.4041 C   0  0  0  0  0  0  0  0  0  0  0  0
   -3.8733   -0.3158    0.7032 C   0  0  0  0  0  0  0  0  0  0  0  0
    1.8673   -1.1221   -0.0965 C   0  0  0  0  0  0  0  0  0  0  0  0
    1.7957    1.6691    0.1683 C   0  0  0  0  0  0  0  0  0  0  0  0
    3.0445   -0.4016    0.1227 C   0  0  0  0  0  0  0  0  0  0  0  0
    3.0066    0.9794    0.2532 C   0  0  0  0  0  0  0  0  0  0  0  0
  1 12  1  0
  2  4  1  0
  2  7  1  0
  3  9  1  0
  4  5  1  0
  4  8  2  0
  5  9  1  0
  6  7  2  0
  6  8  1  0
  6 10  1  0
  7 11  1  0
 10 12  2  0
 11 13  2  0
 12 13  1  0
M  END
>  <PUBCHEM_COMPOUND_CID>  (1) 
32099

>  <PUBCHEM_CONFORMER_RMSD>  (1) 
0.6

>  <PUBCHEM_CONFORMER_DIVERSEORDER>  (1) 
1
3
5
4
2

>  <PUBCHEM_MMFF94_PARTIAL_CHARGES>  (1) 
18
1 -0.11
10 -0.15
11 -0.15
12 0.11
13 -0.15
16 0.15
19 0.15
2 -0.08
20 0.15
21 0.15
22 0.36
23 0.36
3 -0.99
4 -0.14
5 0.18
7 0.04
8 -0.15
9 0.27

>  <PUBCHEM_EFFECTIVE_ROTOR_COUNT>  (1) 
2

>  <PUBCHEM_PHARMACOPHORE_FEATURES>  (1) 
5
1 1 hydrophobe
1 3 cation
1 3 donor
5 2 4 6 7 8 rings
6 6 7 10 11 12 13 rings

>  <PUBCHEM_HEAVY_ATOM_COUNT>  (1) 
13

>  <PUBCHEM_ATOM_DEF_STEREO_COUNT>  (1) 
0

>  <PUBCHEM_ATOM_UDEF_STEREO_COUNT>  (1) 
0

>  <PUBCHEM_BOND_DEF_STEREO_COUNT>  (1) 
0

>  <PUBCHEM_BOND_UDEF_STEREO_COUNT>  (1) 
0

>  <PUBCHEM_ISOTOPIC_ATOM_COUNT>  (1) 
0

>  <PUBCHEM_COMPONENT_COUNT>  (1) 
1

>  <PUBCHEM_CACTVS_TAUTO_COUNT>  (1) 
1

>  <PUBCHEM_CONFORMER_ID>  (1) 
00007D6300000001

>  <PUBCHEM_MMFF94_ENERGY>  (1) 
17.4517

>  <PUBCHEM_FEATURE_SELFOVERLAP>  (1) 
25.431

>  <PUBCHEM_SHAPE_FINGERPRINT>  (1) 
10130415 120 18271803536257436072
10219947 1 18412545435628605509
11471102 20 18411695508528953757
11543360 7 15719402723990553726
12032990 46 18335138674318666740
12251169 10 18273496775658802351
13140716 1 18269831076795776802
13675066 3 17918272034723626203
13690532 89 18409445860842049742
13760787 5 18411976987884976045
13862211 1 18410847742199155158
14115302 16 17603597339009752782
14252887 29 18130509635195314518
15375462 189 18336256873386467290
16945 1 18340757209023003812
17844478 74 18186516605482212933
18522853 276 18272084976995857584
18522853 295 18413111658389382494
19026448 5 16630236004376629877
200 152 18131056122364679397
20645477 70 18339911650200627943
20871998 22 18128824040862076550
21029758 27 18334579018921854700
21267235 1 18339366271501823918
21501502 16 18198054996241422870
23402539 116 17704062980873007101
26918003 58 18407760339750187115
2748010 2 17982726372996366310
42 15 18410295809147460771
4463277 17 18411983542469325468
465052 167 18409455794816958539
4990 188 13190339024690591202
5104073 3 18413387639796876161
53655031 270 18273216382718405801
7364860 26 18270956955829195544
8809292 202 18187367657272809882

>  <PUBCHEM_SHAPE_MULTIPOLES>  (1) 
272.34
8.51
1.58
0.76
4.27
0.5
-0.01
-3.58
-1.84
-0.96
-0.03
0.28
-0.04
0.18

>  <PUBCHEM_SHAPE_SELFOVERLAP>  (1) 
551.839

>  <PUBCHEM_SHAPE_VOLUME>  (1) 
163.5

>  <PUBCHEM_COORDINATE_TYPE>  (1) 
2
5
10

$$$$
