32108
     RDKit          3D

 16 17  0  0  0  0  0  0  0  0999 V2000
    4.3421    1.0230    0.2193 O   0  0  0  0  0  0  0  0  0  0  0  0
   -0.9593   -2.4137    0.0098 O   0  0  0  0  0  0  0  0  0  0  0  0
   -3.0663    1.7014   -0.7111 N   0  0  0  0  0  0  0  0  0  0  0  0
    0.5294   -0.6106    0.0670 C   0  0  0  0  0  0  0  0  0  0  0  0
   -0.8064   -1.1831    0.0142 C   0  0  0  0  0  0  0  0  0  0  0  0
   -2.0381   -0.3388   -0.0368 C   0  0  0  0  0  0  0  0  0  0  0  0
    0.7343    0.6266    0.6777 C   0  0  0  0  0  0  0  0  0  0  0  0
    1.6060   -1.2989   -0.4923 C   0  0  0  0  0  0  0  0  0  0  0  0
    3.0921    0.4872    0.1695 C   0  0  0  0  0  0  0  0  0  0  0  0
    2.0156    1.1755    0.7290 C   0  0  0  0  0  0  0  0  0  0  0  0
    2.8873   -0.7500   -0.4410 C   0  0  0  0  0  0  0  0  0  0  0  0
   -3.2012   -0.8078    0.5135 C   0  0  0  0  0  0  0  0  0  0  0  0
   -1.9890    0.8886   -0.6310 C   0  0  0  0  0  0  0  0  0  0  0  0
   -4.3312    0.0000    0.4509 C   0  0  0  0  0  0  0  0  0  0  0  0
   -4.2123    1.2347   -0.1665 C   0  0  0  0  0  0  0  0  0  0  0  0
    5.3972    0.2661   -0.3722 C   0  0  0  0  0  0  0  0  0  0  0  0
  1  9  1  0
  1 16  1  0
  2  5  2  0
  3 13  2  0
  3 15  1  0
  4  5  1  0
  4  7  2  0
  4  8  1  0
  5  6  1  0
  6 12  2  0
  6 13  1  0
  7 10  1  0
  8 11  2  0
  9 10  2  0
  9 11  1  0
 12 14  1  0
 14 15  2  0
M  END
>  <PUBCHEM_COMPOUND_CID>  (1) 
32108

>  <PUBCHEM_CONFORMER_RMSD>  (1) 
0.6

>  <PUBCHEM_CONFORMER_DIVERSEORDER>  (1) 
5
2
10
8
12
6
11
9
1
3
7
4

>  <PUBCHEM_MMFF94_PARTIAL_CHARGES>  (1) 
24
1 -0.36
10 -0.15
11 -0.15
12 -0.15
13 0.16
14 -0.15
15 0.16
16 0.28
17 0.15
18 0.15
19 0.15
2 -0.57
20 0.15
21 0.15
22 0.15
23 0.15
24 0.15
3 -0.62
4 0.09
5 0.4
6 0.09
7 -0.15
8 -0.15
9 0.08

>  <PUBCHEM_EFFECTIVE_ROTOR_COUNT>  (1) 
3

>  <PUBCHEM_PHARMACOPHORE_FEATURES>  (1) 
5
1 1 acceptor
1 2 acceptor
1 3 acceptor
6 3 6 12 13 14 15 rings
6 4 7 8 9 10 11 rings

>  <PUBCHEM_HEAVY_ATOM_COUNT>  (1) 
16

>  <PUBCHEM_ATOM_DEF_STEREO_COUNT>  (1) 
0

>  <PUBCHEM_ATOM_UDEF_STEREO_COUNT>  (1) 
0

>  <PUBCHEM_BOND_DEF_STEREO_COUNT>  (1) 
0

>  <PUBCHEM_BOND_UDEF_STEREO_COUNT>  (1) 
0

>  <PUBCHEM_ISOTOPIC_ATOM_COUNT>  (1) 
0

>  <PUBCHEM_COMPONENT_COUNT>  (1) 
1

>  <PUBCHEM_CACTVS_TAUTO_COUNT>  (1) 
1

>  <PUBCHEM_CONFORMER_ID>  (1) 
00007D6C00000005

>  <PUBCHEM_MMFF94_ENERGY>  (1) 
62.4338

>  <PUBCHEM_FEATURE_SELFOVERLAP>  (1) 
25.373

>  <PUBCHEM_SHAPE_FINGERPRINT>  (1) 
10498660 4 18115298982567515501
10608611 8 18340483456128530929
11132069 177 18040158388216395141
11401426 45 17561079224806344314
11471102 20 18202282481132327278
11543360 7 14117509982702888696
12236239 1 16226046699537496281
12500047 106 18412259571179779798
12670543 26 18129956594047573340
12815109 37 9079118851627535457
13214271 11 18334857234260889751
14911166 2 18131354111617184904
14943859 89 18259984881338393506
15196674 1 18411418375758781015
15219456 202 18412265008328632879
15775835 57 18335137579239253851
18186145 218 18201445735551070483
200 152 15985108505046188762
20233049 118 18411135840368649776
20645477 56 18409449210795136940
20645477 70 17632025156622634878
231179 274 18411136926889458256
23402539 116 18412537725814169244
23402655 69 17988640761969529181
23557571 272 18342184413559715647
23559900 14 18272373049654459446
25 1 18272649017491163767
3545911 37 18413674612289552762
4072396 5 18201991094067709274
5104073 3 18335702710814464274
633830 44 18128818547519452447
6430166 295 18410288121124397944
69090 78 18343861143228141399
7364860 26 18192989314260277747

>  <PUBCHEM_SHAPE_MULTIPOLES>  (1) 
312.55
9.24
1.67
0.79
3.88
0.41
-0.01
-3.12
0.41
-0.6
0.09
-0.06
-0.1
0.72

>  <PUBCHEM_SHAPE_SELFOVERLAP>  (1) 
677.629

>  <PUBCHEM_SHAPE_VOLUME>  (1) 
170.8

>  <PUBCHEM_COORDINATE_TYPE>  (1) 
2
5
10

$$$$
