32109
     RDKit          3D

 13 14  0  0  0  0  0  0  0  0999 V2000
   -4.3202   -0.2967    0.0443 Cl  0  0  0  0  0  0  0  0  0  0  0  0
    0.1418    2.1190    0.0171 N   0  0  0  0  0  0  0  0  0  0  0  0
    2.3631   -1.4406   -0.0892 N   0  0  0  0  0  0  0  0  0  0  0  0
    3.7114   -1.4275    0.1682 N   0  0  0  0  0  0  0  0  0  0  0  0
    0.1889   -0.2900   -0.0300 C   0  0  0  0  0  0  0  0  0  0  0  0
   -0.5046    0.9379    0.0050 C   0  0  0  0  0  0  0  0  0  0  0  0
    1.5898   -0.2560   -0.0523 C   0  0  0  0  0  0  0  0  0  0  0  0
   -0.5180   -1.5043   -0.0417 C   0  0  0  0  0  0  0  0  0  0  0  0
   -1.8962    0.9035    0.0273 C   0  0  0  0  0  0  0  0  0  0  0  0
    2.2587    0.9594   -0.0400 C   0  0  0  0  0  0  0  0  0  0  0  0
   -1.9097   -1.5093   -0.0189 C   0  0  0  0  0  0  0  0  0  0  0  0
   -2.5994   -0.3036    0.0156 C   0  0  0  0  0  0  0  0  0  0  0  0
    1.4944    2.1081   -0.0054 C   0  0  0  0  0  0  0  0  0  0  0  0
  1 12  1  0
  2  6  2  0
  2 13  1  0
  3  4  1  0
  3  7  1  0
  5  6  1  0
  5  7  2  0
  5  8  1  0
  6  9  1  0
  7 10  1  0
  8 11  2  0
  9 12  2  0
 10 13  2  0
 11 12  1  0
M  END
>  <PUBCHEM_COMPOUND_CID>  (1) 
32109

>  <PUBCHEM_CONFORMER_RMSD>  (1) 
0.4

>  <PUBCHEM_CONFORMER_DIVERSEORDER>  (1) 
1
3
2

>  <PUBCHEM_MMFF94_PARTIAL_CHARGES>  (1) 
20
1 -0.18
10 -0.15
11 -0.15
12 0.18
13 0.16
14 0.15
15 0.15
16 0.15
17 0.15
18 0.15
19 0.4
2 -0.62
20 0.36
21 0.36
3 -0.51
4 -0.71
6 0.31
7 0.1
8 -0.15
9 -0.15

>  <PUBCHEM_EFFECTIVE_ROTOR_COUNT>  (1) 
1

>  <PUBCHEM_PHARMACOPHORE_FEATURES>  (1) 
5
1 2 acceptor
1 3 donor
1 4 donor
6 2 5 6 7 10 13 rings
6 5 6 8 9 11 12 rings

>  <PUBCHEM_HEAVY_ATOM_COUNT>  (1) 
13

>  <PUBCHEM_ATOM_DEF_STEREO_COUNT>  (1) 
0

>  <PUBCHEM_ATOM_UDEF_STEREO_COUNT>  (1) 
0

>  <PUBCHEM_BOND_DEF_STEREO_COUNT>  (1) 
0

>  <PUBCHEM_BOND_UDEF_STEREO_COUNT>  (1) 
0

>  <PUBCHEM_ISOTOPIC_ATOM_COUNT>  (1) 
0

>  <PUBCHEM_COMPONENT_COUNT>  (1) 
1

>  <PUBCHEM_CACTVS_TAUTO_COUNT>  (1) 
3

>  <PUBCHEM_CONFORMER_ID>  (1) 
00007D6D00000001

>  <PUBCHEM_MMFF94_ENERGY>  (1) 
46.5667

>  <PUBCHEM_FEATURE_SELFOVERLAP>  (1) 
26.945

>  <PUBCHEM_SHAPE_FINGERPRINT>  (1) 
10130415 120 18408039598006918691
10967382 1 18338799017152025199
11471102 20 18410288138414972029
11680986 33 18337675346391433067
12032990 46 18410296869682934767
13380535 21 18119258495621250987
13380535 76 18193271029659509779
13571099 22 18411135866037823975
14325111 11 18338799026353902469
14648413 74 18191870243419422921
15442244 35 18412547604608182497
15536298 74 18271525381285222312
16945 1 18194683893622212429
17990270 104 18265049313442292522
193761 8 18050567640289134518
20201158 50 18337953492731409979
20645477 70 18410852187975453959
20871998 184 18057035814140254838
20871998 22 18199756842867935782
21267235 1 18410865338927891718
21501502 16 18268428125791673023
21501925 9 18411410709410969394
2297311 6 18198911306264233390
2334 1 18338800120948090263
23402539 116 18200300027360697007
23402655 69 18342167913102284765
23463225 33 18411139134128193023
23552423 10 18192152822017969357
23559900 14 18124872353665781134
2748010 2 18338228276128273420
528886 8 18267864067615227129
53812653 166 18198903810612430488
53812654 25 18130782369380373142
63268167 104 18339084894728839745
7364860 26 18342457101376203888
8809292 202 18259990396124342179

>  <PUBCHEM_SHAPE_MULTIPOLES>  (1) 
254.46
5.4
2.08
0.6
2.44
0.39
0
-1.58
-0.16
-1.23
-0.01
0.05
0
-0.06

>  <PUBCHEM_SHAPE_SELFOVERLAP>  (1) 
546.775

>  <PUBCHEM_SHAPE_VOLUME>  (1) 
141.3

>  <PUBCHEM_COORDINATE_TYPE>  (1) 
2
5
10

$$$$
