32114
     RDKit          3D

 18 19  0  0  1  0  0  0  0  0999 V2000
    5.5821    0.1258   -0.5230 Cl  0  0  0  0  0  0  0  0  0  0  0  0
   -0.8875    1.6308   -0.1587 N   0  0  0  0  0  0  0  0  0  0  0  0
   -4.2345    3.2266   -0.1078 N   0  0  0  0  0  0  0  0  0  0  0  0
   -0.3133    0.4624    0.5522 C   0  0  0  0  0  0  0  0  0  0  0  0
    1.1924    0.3765    0.2771 C   0  0  0  0  0  0  0  0  0  0  0  0
   -1.0295   -0.8192    0.2900 C   0  0  0  0  0  0  0  0  0  0  0  0
   -2.2665    1.8216    0.2372 C   0  0  0  0  0  0  0  0  0  0  0  0
    1.6210   -0.3533   -0.8059 C   0  0  0  0  0  0  0  0  0  0  0  0
    2.0523    1.0334    1.1247 C   0  0  0  0  0  0  0  0  0  0  0  0
   -1.0611   -1.8133    1.2679 C   0  0  0  0  0  0  0  0  0  0  0  0
   -1.6677   -1.0237   -0.9333 C   0  0  0  0  0  0  0  0  0  0  0  0
   -2.8555    3.0357   -0.4661 C   0  0  0  0  0  0  0  0  0  0  0  0
    2.9912   -0.4311   -1.0560 C   0  0  0  0  0  0  0  0  0  0  0  0
    3.4223    0.9556    0.8748 C   0  0  0  0  0  0  0  0  0  0  0  0
   -1.7309   -3.0120    1.0224 C   0  0  0  0  0  0  0  0  0  0  0  0
   -2.3374   -2.2224   -1.1788 C   0  0  0  0  0  0  0  0  0  0  0  0
    3.8917    0.2233   -0.2156 C   0  0  0  0  0  0  0  0  0  0  0  0
   -2.3692   -3.2165   -0.2009 C   0  0  0  0  0  0  0  0  0  0  0  0
  1 17  1  0
  2  4  1  0
  2  7  1  0
  3 12  1  0
  4  5  1  0
  4  6  1  0
  5  8  2  0
  5  9  1  0
  6 10  2  0
  6 11  1  0
  7 12  1  0
  8 13  1  0
  9 14  2  0
 10 15  1  0
 11 16  2  0
 13 17  2  0
 14 17  1  0
 15 18  2  0
 16 18  1  0
M  END
>  <PUBCHEM_COMPOUND_CID>  (1) 
32114

>  <PUBCHEM_CONFORMER_RMSD>  (1) 
0.6

>  <PUBCHEM_CONFORMER_DIVERSEORDER>  (1) 
1
23
21
31
13
24
25
19
20
26
32
17
27
29
11
30
6
22
12
8
9
33
14
18
10
15
28
5
7
16
4
2
3

>  <PUBCHEM_MMFF94_PARTIAL_CHARGES>  (1) 
30
1 -0.18
10 -0.15
11 -0.15
12 0.27
13 -0.15
14 -0.15
15 -0.15
16 -0.15
17 0.18
18 -0.15
2 -0.9
20 0.36
23 0.15
24 0.15
25 0.15
26 0.15
29 0.15
3 -0.99
30 0.15
31 0.15
32 0.15
33 0.15
34 0.36
35 0.36
4 0.56
5 -0.14
6 -0.14
7 0.27
8 -0.15
9 -0.15

>  <PUBCHEM_EFFECTIVE_ROTOR_COUNT>  (1) 
5

>  <PUBCHEM_PHARMACOPHORE_FEATURES>  (1) 
6
1 2 cation
1 2 donor
1 3 cation
1 3 donor
6 5 8 9 13 14 17 rings
6 6 10 11 15 16 18 rings

>  <PUBCHEM_HEAVY_ATOM_COUNT>  (1) 
18

>  <PUBCHEM_ATOM_DEF_STEREO_COUNT>  (1) 
0

>  <PUBCHEM_ATOM_UDEF_STEREO_COUNT>  (1) 
1

>  <PUBCHEM_BOND_DEF_STEREO_COUNT>  (1) 
0

>  <PUBCHEM_BOND_UDEF_STEREO_COUNT>  (1) 
0

>  <PUBCHEM_ISOTOPIC_ATOM_COUNT>  (1) 
0

>  <PUBCHEM_COMPONENT_COUNT>  (1) 
1

>  <PUBCHEM_CACTVS_TAUTO_COUNT>  (1) 
1

>  <PUBCHEM_CONFORMER_ID>  (1) 
00007D7200000001

>  <PUBCHEM_MMFF94_ENERGY>  (1) 
42.5117

>  <PUBCHEM_FEATURE_SELFOVERLAP>  (1) 
30.446

>  <PUBCHEM_SHAPE_FINGERPRINT>  (1) 
11488393 25 17697331616438620623
11578080 2 16557323055154587163
116883 192 18268425913941401469
12363563 72 18048879894399268850
12500047 106 18410856517170307492
12532896 13 18337950078485675661
12714826 92 18129119951170874398
12730499 353 17978237054726910505
12788726 201 18336818784195043547
13681431 1 17543066131618929637
15842332 3 17676755527444812400
15906896 17 18260838094061860987
17539 30 18341044228865849263
1813 80 17910134720944406295
200 152 16558470893380162086
20361792 2 17980768451772182855
20602899 9 15625932127847859165
20645476 183 18260834743576036569
20711985 344 18336538421435403987
20871999 31 18411416211169500412
21524375 3 18121500150701298457
22224240 67 18341060606167519129
22620623 9 18271530878642842964
22713019 5 18268408283343472159
23419403 2 14042600315611187119
23557571 272 18047454897275124752
23558518 356 18115591590162650256
23559900 14 18191292974641018776
23598288 3 17824571701054658841
2748010 2 17917713530578444276
298252 57 18189059685419409569
3060560 45 18048031878908067669
3759504 43 18261680263928570353
53917941 68 18262786402506339540
559249 180 18338232640617009674
59755656 520 18264203625791938269
6049 1 17987799743254567856
7364860 26 17473820624616181657
77188 2 17832432269133392099
81228 2 18337104683019652529
81539 233 17901385589674926293

>  <PUBCHEM_SHAPE_MULTIPOLES>  (1) 
362.34
7.69
3.69
1.17
9.77
0.91
0.06
2.09
-1.43
-7.35
0.01
0.07
-0.43
0.67

>  <PUBCHEM_SHAPE_SELFOVERLAP>  (1) 
755.465

>  <PUBCHEM_SHAPE_VOLUME>  (1) 
206

>  <PUBCHEM_COORDINATE_TYPE>  (1) 
2
5
10

$$$$
