32119
     RDKit          3D

 24 25  0  0  1  0  0  0  0  0999 V2000
    2.5321    5.1978    0.4595 Cl  0  0  0  0  0  0  0  0  0  0  0  0
   -3.6075   -0.3705   -0.0303 N   0  0  0  0  0  0  0  0  0  0  0  0
    0.0499   -1.0479    0.3033 N   0  0  0  0  0  0  0  0  0  0  0  0
   -2.3845   -0.9425    0.5359 C   0  0  0  0  0  0  0  0  0  0  0  0
   -1.1705   -0.4924   -0.2714 C   0  0  0  0  0  0  0  0  0  0  0  0
   -4.7729   -1.1541    0.3829 C   0  0  0  0  0  0  0  0  0  0  0  0
   -3.7566    1.0229    0.3721 C   0  0  0  0  0  0  0  0  0  0  0  0
    1.2197   -0.6192   -0.4496 C   0  0  0  0  0  0  0  0  0  0  0  0
   -4.8631   -2.4407   -0.4338 C   0  0  0  0  0  0  0  0  0  0  0  0
   -4.6609    1.7640   -0.6094 C   0  0  0  0  0  0  0  0  0  0  0  0
    1.5515    0.8478   -0.2192 C   0  0  0  0  0  0  0  0  0  0  0  0
    2.4247   -1.5168   -0.2102 C   0  0  0  0  0  0  0  0  0  0  0  0
   -6.0793   -3.2638   -0.0380 C   0  0  0  0  0  0  0  0  0  0  0  0
   -4.8156    3.2270   -0.2237 C   0  0  0  0  0  0  0  0  0  0  0  0
    2.1633    1.5909   -1.2288 C   0  0  0  0  0  0  0  0  0  0  0  0
    1.2434    1.4496    1.0008 C   0  0  0  0  0  0  0  0  0  0  0  0
    3.3759   -1.6903   -1.2157 C   0  0  0  0  0  0  0  0  0  0  0  0
    2.5786   -2.1661    1.0148 C   0  0  0  0  0  0  0  0  0  0  0  0
    2.4669    2.9359   -1.0184 C   0  0  0  0  0  0  0  0  0  0  0  0
    1.5471    2.7947    1.2113 C   0  0  0  0  0  0  0  0  0  0  0  0
    4.4806   -2.5131   -0.9963 C   0  0  0  0  0  0  0  0  0  0  0  0
    3.6835   -2.9886    1.2342 C   0  0  0  0  0  0  0  0  0  0  0  0
    2.1590    3.5378    0.2016 C   0  0  0  0  0  0  0  0  0  0  0  0
    4.6345   -3.1622    0.2286 C   0  0  0  0  0  0  0  0  0  0  0  0
  1 23  1  0
  2  4  1  0
  2  6  1  0
  2  7  1  0
  3  5  1  0
  3  8  1  0
  4  5  1  0
  6  9  1  0
  7 10  1  0
  8 11  1  0
  8 12  1  0
  9 13  1  0
 10 14  1  0
 11 15  2  0
 11 16  1  0
 12 17  2  0
 12 18  1  0
 15 19  1  0
 16 20  2  0
 17 21  1  0
 18 22  2  0
 19 23  2  0
 20 23  1  0
 21 24  2  0
 22 24  1  0
M  END
>  <PUBCHEM_COMPOUND_CID>  (1) 
32119

>  <PUBCHEM_CONFORMER_RMSD>  (1) 
1

>  <PUBCHEM_CONFORMER_DIVERSEORDER>  (1) 
1
52
29
2
26
25
21
51
40
28
9
10
45
48
27
14
23
35
53
47
46
16
49
32
15
41
13
17
7
18
37
44
3
12
22
33
6
4
38
8
24
31
11
20
30
39
42
34
36
19
43
5
50

>  <PUBCHEM_MMFF94_PARTIAL_CHARGES>  (1) 
30
1 -0.18
11 -0.14
12 -0.14
15 -0.15
16 -0.15
17 -0.15
18 -0.15
19 -0.15
2 -0.81
20 -0.15
21 -0.15
22 -0.15
23 0.18
24 -0.15
3 -0.9
34 0.36
4 0.27
45 0.15
46 0.15
47 0.15
48 0.15
49 0.15
5 0.27
50 0.15
51 0.15
52 0.15
53 0.15
6 0.27
7 0.27
8 0.56

>  <PUBCHEM_EFFECTIVE_ROTOR_COUNT>  (1) 
10

>  <PUBCHEM_PHARMACOPHORE_FEATURES>  (1) 
7
1 13 hydrophobe
1 14 hydrophobe
1 2 cation
1 3 cation
1 3 donor
6 11 15 16 19 20 23 rings
6 12 17 18 21 22 24 rings

>  <PUBCHEM_HEAVY_ATOM_COUNT>  (1) 
24

>  <PUBCHEM_ATOM_DEF_STEREO_COUNT>  (1) 
0

>  <PUBCHEM_ATOM_UDEF_STEREO_COUNT>  (1) 
1

>  <PUBCHEM_BOND_DEF_STEREO_COUNT>  (1) 
0

>  <PUBCHEM_BOND_UDEF_STEREO_COUNT>  (1) 
0

>  <PUBCHEM_ISOTOPIC_ATOM_COUNT>  (1) 
0

>  <PUBCHEM_COMPONENT_COUNT>  (1) 
1

>  <PUBCHEM_CACTVS_TAUTO_COUNT>  (1) 
1

>  <PUBCHEM_CONFORMER_ID>  (1) 
00007D7700000001

>  <PUBCHEM_MMFF94_ENERGY>  (1) 
46.1852

>  <PUBCHEM_FEATURE_SELFOVERLAP>  (1) 
35.52

>  <PUBCHEM_SHAPE_FINGERPRINT>  (1) 
10050765 1 18411136961840222225
11405975 8 18410012114036681115
12166972 35 18200024041679355273
12549972 3 17895209812975821329
12633257 1 18269567035528904025
12730499 353 18051142680865625115
12788726 201 17829616054708741010
12916754 54 18413112784119505603
13004483 165 18048307843810833834
13009979 54 17845949441182631499
13134695 92 18339917126341822540
13533116 47 18336829814019608711
13955234 65 18266182914278452570
14347329 18 16156226449028784701
14466204 15 18121215377384675635
14950920 106 18121535468855574467
17492 89 18410571825463961407
17868525 174 18263639580817197377
20286276 3 18410577305862765033
20600515 1 17985836934251404828
21033648 29 17273111528438361731
21703447 108 18336821004814565307
23559900 14 18411127031611972987
249057 3 18267581317787538661
312423 11 18342465871905287123
345986 75 17391058253926394738
5104073 3 18342184401534936683
6442390 28 17689440807367990220
67856867 119 18339076107357744219
9981440 41 17905039605604688112

>  <PUBCHEM_SHAPE_MULTIPOLES>  (1) 
485.82
11.99
6.28
1.12
18.29
5.6
0
-8.69
1.02
-4.48
-0.73
-0.99
-0.01
0.18

>  <PUBCHEM_SHAPE_SELFOVERLAP>  (1) 
982.434

>  <PUBCHEM_SHAPE_VOLUME>  (1) 
284.9

>  <PUBCHEM_COORDINATE_TYPE>  (1) 
2
5
10

$$$$
