32113
     RDKit          3D

 17 18  0  0  0  0  0  0  0  0999 V2000
   -4.6714    0.9148   -0.3734 O   0  0  0  0  0  0  0  0  0  0  0  0
    0.4907   -2.5962    0.2229 O   0  0  0  0  0  0  0  0  0  0  0  0
    1.6445   -0.5686    0.0551 C   0  0  0  0  0  0  0  0  0  0  0  0
   -0.9311   -0.7569   -0.0343 C   0  0  0  0  0  0  0  0  0  0  0  0
    0.4282   -1.3651    0.0887 C   0  0  0  0  0  0  0  0  0  0  0  0
    3.9773    0.9603   -0.0065 C   0  0  0  0  0  0  0  0  0  0  0  0
    1.5673    0.8158   -0.0965 C   0  0  0  0  0  0  0  0  0  0  0  0
    2.8882   -1.1886    0.1761 C   0  0  0  0  0  0  0  0  0  0  0  0
    2.7336    1.5803   -0.1272 C   0  0  0  0  0  0  0  0  0  0  0  0
    4.0546   -0.4241    0.1452 C   0  0  0  0  0  0  0  0  0  0  0  0
   -1.4782   -0.6179   -1.2886 C   0  0  0  0  0  0  0  0  0  0  0  0
   -1.5809   -0.3612    1.1114 C   0  0  0  0  0  0  0  0  0  0  0  0
   -3.4332    0.3612   -0.2611 C   0  0  0  0  0  0  0  0  0  0  0  0
   -2.7473   -0.0508   -1.4037 C   0  0  0  0  0  0  0  0  0  0  0  0
   -2.8502    0.2059    0.9964 C   0  0  0  0  0  0  0  0  0  0  0  0
    5.2245    1.7774   -0.0397 C   0  0  0  0  0  0  0  0  0  0  0  0
   -5.3165    1.3140    0.8351 C   0  0  0  0  0  0  0  0  0  0  0  0
  1 13  1  0
  1 17  1  0
  2  5  2  0
  3  5  1  0
  3  7  2  0
  3  8  1  0
  4  5  1  0
  4 11  2  0
  4 12  1  0
  6  9  2  0
  6 10  1  0
  6 16  1  0
  7  9  1  0
  8 10  2  0
 11 14  1  0
 12 15  2  0
 13 14  2  0
 13 15  1  0
M  END
>  <PUBCHEM_COMPOUND_CID>  (1) 
32113

>  <PUBCHEM_CONFORMER_RMSD>  (1) 
0.6

>  <PUBCHEM_CONFORMER_DIVERSEORDER>  (1) 
1
3
2
5
4
6

>  <PUBCHEM_MMFF94_PARTIAL_CHARGES>  (1) 
25
1 -0.36
10 -0.15
11 -0.15
12 -0.15
13 0.08
14 -0.15
15 -0.15
16 0.14
17 0.28
18 0.15
19 0.15
2 -0.57
20 0.15
21 0.15
22 0.15
23 0.15
24 0.15
25 0.15
3 0.09
4 0.09
5 0.4
6 -0.14
7 -0.15
8 -0.15
9 -0.15

>  <PUBCHEM_EFFECTIVE_ROTOR_COUNT>  (1) 
3

>  <PUBCHEM_PHARMACOPHORE_FEATURES>  (1) 
4
1 1 acceptor
1 2 acceptor
6 3 6 7 8 9 10 rings
6 4 11 12 13 14 15 rings

>  <PUBCHEM_HEAVY_ATOM_COUNT>  (1) 
17

>  <PUBCHEM_ATOM_DEF_STEREO_COUNT>  (1) 
0

>  <PUBCHEM_ATOM_UDEF_STEREO_COUNT>  (1) 
0

>  <PUBCHEM_BOND_DEF_STEREO_COUNT>  (1) 
0

>  <PUBCHEM_BOND_UDEF_STEREO_COUNT>  (1) 
0

>  <PUBCHEM_ISOTOPIC_ATOM_COUNT>  (1) 
0

>  <PUBCHEM_COMPONENT_COUNT>  (1) 
1

>  <PUBCHEM_CACTVS_TAUTO_COUNT>  (1) 
1

>  <PUBCHEM_CONFORMER_ID>  (1) 
00007D7100000001

>  <PUBCHEM_MMFF94_ENERGY>  (1) 
64.4454

>  <PUBCHEM_FEATURE_SELFOVERLAP>  (1) 
20.297

>  <PUBCHEM_SHAPE_FINGERPRINT>  (1) 
11046707 91 7997702990732562118
11132069 177 17240484710763674511
11471102 20 18409728452668376534
11543360 7 15912766210685327008
12032990 46 10087647004886405266
12236239 1 17989485203847317799
12251169 10 16370729244366769127
12403259 415 17749387014421923023
12596602 18 13551195493425249956
12633257 1 16443350913502724545
12892183 10 15502641685896854200
13581323 91 14562531756347149771
1420 369 7925639903484658480
15188451 53 14490763411720272393
15342168 16 18261681466340033100
15653759 3 16732700558257997644
15775835 57 18272087210025404133
17870717 6 14405190590251119797
1813 80 17554334609728586782
18186145 218 18410571786555710606
19862831 5 17561081414527580186
20112054 13 18260267468790715988
204376 136 18408323302029672163
20645476 183 17704064106238926007
20645477 70 18410572851903058070
20871999 31 16917056807154218175
212847 35 18272930510032911296
21637258 2 11025798742876828897
21652331 79 18409165485261325213
22079108 93 18335143111536991395
22854114 59 18040154007022594975
231179 274 18187079559830613684
23402539 116 18131346440652795508
23402655 69 18130787875818681412
23557571 272 15553014810243304219
23559900 14 15865189070698321362
25 1 18410570695512645926
293599 30 18408888468834908836
3472631 163 17846500356833289901
350125 39 17975420427467550170
465052 167 8141789613250464721
474 4 18412263938818323185
5104073 3 18188481493275427378
602551 16 15719403866272468048
633830 44 18341894069475636390
76465 3 10375606871292527748
77492 1 17917986153079120063
8272917 22 18269277871949050823
83771 10 9007061266089916782

>  <PUBCHEM_SHAPE_MULTIPOLES>  (1) 
338.11
10.2
1.79
1.02
1.22
0.34
-0.13
-6.62
0.67
-1.14
0.13
1
0.03
-0.51

>  <PUBCHEM_SHAPE_SELFOVERLAP>  (1) 
729.026

>  <PUBCHEM_SHAPE_VOLUME>  (1) 
187

>  <PUBCHEM_COORDINATE_TYPE>  (1) 
2
5
10

$$$$
