32118
     RDKit          3D

 21 22  0  0  1  0  0  0  0  0999 V2000
    0.9810   -5.1978    0.5116 Cl  0  0  0  0  0  0  0  0  0  0  0  0
    0.3675    1.4470   -0.0740 N   0  0  0  0  0  0  0  0  0  0  0  0
    4.0924    1.6931   -0.0887 N   0  0  0  0  0  0  0  0  0  0  0  0
   -0.5725    0.4829   -0.6478 C   0  0  0  0  0  0  0  0  0  0  0  0
    1.7392    1.1004   -0.4301 C   0  0  0  0  0  0  0  0  0  0  0  0
   -0.1779   -0.9568   -0.3535 C   0  0  0  0  0  0  0  0  0  0  0  0
   -2.0126    0.7686   -0.2480 C   0  0  0  0  0  0  0  0  0  0  0  0
    2.7166    2.0515    0.2540 C   0  0  0  0  0  0  0  0  0  0  0  0
    0.0452    2.8015   -0.5255 C   0  0  0  0  0  0  0  0  0  0  0  0
    0.6453   -1.6181   -1.2419 C   0  0  0  0  0  0  0  0  0  0  0  0
   -0.6559   -1.5589    0.7928 C   0  0  0  0  0  0  0  0  0  0  0  0
   -3.0277    0.4196   -1.1156 C   0  0  0  0  0  0  0  0  0  0  0  0
   -2.2610    1.3676    0.9703 C   0  0  0  0  0  0  0  0  0  0  0  0
    5.0306    2.6518    0.4939 C   0  0  0  0  0  0  0  0  0  0  0  0
    4.3965    0.3378    0.3688 C   0  0  0  0  0  0  0  0  0  0  0  0
    1.0061   -2.9384   -0.9726 C   0  0  0  0  0  0  0  0  0  0  0  0
   -0.2950   -2.8791    1.0622 C   0  0  0  0  0  0  0  0  0  0  0  0
   -4.3480    0.6813   -0.7491 C   0  0  0  0  0  0  0  0  0  0  0  0
   -3.5812    1.6290    1.3367 C   0  0  0  0  0  0  0  0  0  0  0  0
    0.5361   -3.5688    0.1795 C   0  0  0  0  0  0  0  0  0  0  0  0
   -4.6247    1.2859    0.4770 C   0  0  0  0  0  0  0  0  0  0  0  0
  1 20  1  0
  2  4  1  0
  2  5  1  0
  2  9  1  0
  3  8  1  0
  3 14  1  0
  3 15  1  0
  4  6  1  0
  4  7  1  0
  5  8  1  0
  6 10  2  0
  6 11  1  0
  7 12  2  0
  7 13  1  0
 10 16  1  0
 11 17  2  0
 12 18  1  0
 13 19  2  0
 16 20  2  0
 17 20  1  0
 18 21  2  0
 19 21  1  0
M  END
>  <PUBCHEM_COMPOUND_CID>  (1) 
32118

>  <PUBCHEM_CONFORMER_RMSD>  (1) 
0.8

>  <PUBCHEM_CONFORMER_DIVERSEORDER>  (1) 
1
14
13
22
6
19
18
17
2
16
10
7
3
15
20
11
9
21
5
4
12
8

>  <PUBCHEM_MMFF94_PARTIAL_CHARGES>  (1) 
30
1 -0.18
10 -0.15
11 -0.15
12 -0.15
13 -0.15
14 0.27
15 0.27
16 -0.15
17 -0.15
18 -0.15
19 -0.15
2 -0.81
20 0.18
21 -0.15
3 -0.81
30 0.15
31 0.15
32 0.15
33 0.15
4 0.56
40 0.15
41 0.15
42 0.15
43 0.15
44 0.15
5 0.27
6 -0.14
7 -0.14
8 0.27
9 0.27

>  <PUBCHEM_EFFECTIVE_ROTOR_COUNT>  (1) 
6

>  <PUBCHEM_PHARMACOPHORE_FEATURES>  (1) 
4
1 2 cation
1 3 cation
6 6 10 11 16 17 20 rings
6 7 12 13 18 19 21 rings

>  <PUBCHEM_HEAVY_ATOM_COUNT>  (1) 
21

>  <PUBCHEM_ATOM_DEF_STEREO_COUNT>  (1) 
0

>  <PUBCHEM_ATOM_UDEF_STEREO_COUNT>  (1) 
1

>  <PUBCHEM_BOND_DEF_STEREO_COUNT>  (1) 
0

>  <PUBCHEM_BOND_UDEF_STEREO_COUNT>  (1) 
0

>  <PUBCHEM_ISOTOPIC_ATOM_COUNT>  (1) 
0

>  <PUBCHEM_COMPONENT_COUNT>  (1) 
1

>  <PUBCHEM_CACTVS_TAUTO_COUNT>  (1) 
1

>  <PUBCHEM_CONFORMER_ID>  (1) 
00007D7600000001

>  <PUBCHEM_MMFF94_ENERGY>  (1) 
72.3307

>  <PUBCHEM_FEATURE_SELFOVERLAP>  (1) 
20.297

>  <PUBCHEM_SHAPE_FINGERPRINT>  (1) 
10382601 240 18198357168876639785
11036077 3 18410579478852576644
12553582 1 17691131431493340015
12592029 89 18410008793304313920
12643181 29 18410863196725512204
12788726 201 17908685577831271590
13004483 165 17330274381893734514
13052359 8 18193273224387895463
13083527 12 18048013208726968547
13140716 1 18410579470104600826
138480 1 17906169547402751138
14178342 30 18337690671478446753
14866123 147 18266173031838766370
14910302 57 12758247426338227992
15042514 8 17688595278447277083
15664445 248 17553493479069441343
1813 80 17552078390382555999
18915476 22 18118385281831471661
20028762 73 18126572460282173143
20197701 30 18339633538056533629
204376 136 18408887360195419133
20739085 24 18261685761587416868
21033648 29 18265031665565345160
21421861 104 18123195593262710649
21524375 3 18343862229559377245
23366157 5 18192723236677506557
23419403 2 17553815833154536814
23558518 356 17909538798606207389
23598288 3 17754468072782113444
23728640 28 18194395817607750794
25147074 1 17845363346610755117
2748010 2 18192739866743553342
3091708 16 9046604106518799354
3380486 145 16757745530336639823
352729 6 18196106648773343693
404807 14 14973248643098798582
4340502 62 18336840732063358593
43471831 8 18339360764609893508
4409770 3 17903349647975443207
474 4 18341048532090646809
5104073 3 18048864480700933488
58807428 26 18411416202853528008
59755656 215 18265052440389942141
6138700 20 18268996380583710022
633830 44 18202289078081242860
7364860 26 18197782102862284743
81228 2 17617077544734105425
9981440 41 18410011065574096491

>  <PUBCHEM_SHAPE_MULTIPOLES>  (1) 
424.08
7.55
5.3
1.14
0.45
7.77
-0.01
-8.62
-1.21
5.18
-0.99
-0.58
0.2
0.03

>  <PUBCHEM_SHAPE_SELFOVERLAP>  (1) 
878.751

>  <PUBCHEM_SHAPE_VOLUME>  (1) 
244.7

>  <PUBCHEM_COORDINATE_TYPE>  (1) 
2
5
10

$$$$
