32110
     RDKit          3D

 19 20  0  0  0  0  0  0  0  0999 V2000
    5.1556   -2.0126   -0.2948 Cl  0  0  0  0  0  0  0  0  0  0  0  0
   -5.0120   -2.1734   -0.4370 Cl  0  0  0  0  0  0  0  0  0  0  0  0
   -0.0015    1.4942    1.8053 O   0  0  0  0  0  0  0  0  0  0  0  0
   -0.6789    2.0168   -1.6672 O   0  0  0  0  0  0  0  0  0  0  0  0
    0.2297    3.3758   -0.1016 O   0  0  0  0  0  0  0  0  0  0  0  0
    0.0117    0.9889    0.4507 C   0  0  0  0  0  0  0  0  0  0  0  0
    1.2901    0.2435    0.2658 C   0  0  0  0  0  0  0  0  0  0  0  0
   -1.2896    0.1702    0.2204 C   0  0  0  0  0  0  0  0  0  0  0  0
   -0.1397    2.2579   -0.4423 C   0  0  0  0  0  0  0  0  0  0  0  0
    1.5668   -0.8731    1.0548 C   0  0  0  0  0  0  0  0  0  0  0  0
   -1.2424   -0.8568   -0.6765 C   0  0  0  0  0  0  0  0  0  0  0  0
    2.2089    0.6623   -0.6965 C   0  0  0  0  0  0  0  0  0  0  0  0
   -2.3985    0.5287    0.9299 C   0  0  0  0  0  0  0  0  0  0  0  0
    2.7621   -1.5707    0.8814 C   0  0  0  0  0  0  0  0  0  0  0  0
   -2.4099   -1.5918   -0.8826 C   0  0  0  0  0  0  0  0  0  0  0  0
    3.4042   -0.0353   -0.8699 C   0  0  0  0  0  0  0  0  0  0  0  0
   -3.5660   -0.2063    0.7237 C   0  0  0  0  0  0  0  0  0  0  0  0
    3.6810   -1.1518   -0.0809 C   0  0  0  0  0  0  0  0  0  0  0  0
   -3.5717   -1.2666   -0.1827 C   0  0  0  0  0  0  0  0  0  0  0  0
  1 18  1  0
  2 19  1  0
  3  6  1  0
  4  9  1  0
  5  9  2  0
  6  7  1  0
  6  8  1  0
  6  9  1  0
  7 10  2  0
  7 12  1  0
  8 11  2  0
  8 13  1  0
 10 14  1  0
 11 15  1  0
 12 16  2  0
 13 17  2  0
 14 18  2  0
 15 19  2  0
 16 18  1  0
 17 19  1  0
M  END
>  <PUBCHEM_COMPOUND_CID>  (1) 
32110

>  <PUBCHEM_CONFORMER_RMSD>  (1) 
0.6

>  <PUBCHEM_CONFORMER_DIVERSEORDER>  (1) 
1
2
4
3
5
6

>  <PUBCHEM_MMFF94_PARTIAL_CHARGES>  (1) 
29
1 -0.18
10 -0.15
11 -0.15
12 -0.15
13 -0.15
14 -0.15
15 -0.15
16 -0.15
17 -0.15
18 0.18
19 0.18
2 -0.18
20 0.15
21 0.15
22 0.15
23 0.15
24 0.4
25 0.15
26 0.15
27 0.15
28 0.15
29 0.5
3 -0.68
4 -0.65
5 -0.57
6 0.63
7 -0.14
8 -0.14
9 0.66

>  <PUBCHEM_EFFECTIVE_ROTOR_COUNT>  (1) 
3

>  <PUBCHEM_PHARMACOPHORE_FEATURES>  (1) 
7
1 3 acceptor
1 3 donor
1 4 acceptor
1 5 acceptor
3 4 5 9 anion
6 7 10 12 14 16 18 rings
6 8 11 13 15 17 19 rings

>  <PUBCHEM_HEAVY_ATOM_COUNT>  (1) 
19

>  <PUBCHEM_ATOM_DEF_STEREO_COUNT>  (1) 
0

>  <PUBCHEM_ATOM_UDEF_STEREO_COUNT>  (1) 
0

>  <PUBCHEM_BOND_DEF_STEREO_COUNT>  (1) 
0

>  <PUBCHEM_BOND_UDEF_STEREO_COUNT>  (1) 
0

>  <PUBCHEM_ISOTOPIC_ATOM_COUNT>  (1) 
0

>  <PUBCHEM_COMPONENT_COUNT>  (1) 
1

>  <PUBCHEM_CACTVS_TAUTO_COUNT>  (1) 
1

>  <PUBCHEM_CONFORMER_ID>  (1) 
00007D6E00000001

>  <PUBCHEM_MMFF94_ENERGY>  (1) 
56.6603

>  <PUBCHEM_FEATURE_SELFOVERLAP>  (1) 
35.588

>  <PUBCHEM_SHAPE_FINGERPRINT>  (1) 
11046707 91 18343019956592502786
11578080 2 18341313548716698225
12236239 1 18411426102384087970
12403259 327 15410894097521463959
12553582 1 18335414647384742922
12714826 92 18338509729751193884
12788726 201 17970906648514714873
12892183 10 15123522371210209318
13009979 54 18129958848367301059
13583140 156 15338830920178557459
13955234 65 17837495520237323345
14863182 85 16903534145008510439
15342816 4 18412271657138584486
15375462 189 18410299111539689234
15534591 1 8790592698347727176
16752209 62 18193824955918251679
16945 1 18191872429505178465
17349148 13 17632016459667197151
17804303 29 17989490736134577251
1813 80 18340781393656826270
18186145 218 15719398342817898092
18222031 100 18341603850130263519
193927 3 18342187682019745895
19422 9 18412553114671596986
200 152 17822297846984770362
20291156 8 18411700993165475178
20361792 2 18410284835200135895
20388580 30 18339926038282786975
20645477 70 18121210142067864375
20671657 53 18410576231793938981
20871999 31 18186513281272315391
21267235 1 18341059570162476311
21296965 67 18410853269774157029
21731516 1 18335975419762877371
22112679 90 18268731466209634176
221490 88 17973731569065279379
2255824 54 18122343742344224709
22950370 63 18410581686091636091
23402539 116 18114465561506807402
23419403 2 15330318600040718959
23557571 272 18342455886100646296
23559900 14 17058955285193981300
23598288 3 17753609035919657632
23598291 2 18339939211222037161
46194498 28 17241885591730731383
465052 167 18269844275742344199
5104073 3 17846224414217477987
6992083 37 18270698480032869361
7364860 26 17983576587447831249
7970288 3 18411135835731655062
83771 10 18413671318118325466

>  <PUBCHEM_SHAPE_MULTIPOLES>  (1) 
377.14
8.18
2.7
1.2
0.67
1.52
0.09
-8.34
-0.91
-0.18
-0.45
-0.03
0.28
-0.64

>  <PUBCHEM_SHAPE_SELFOVERLAP>  (1) 
801.686

>  <PUBCHEM_SHAPE_VOLUME>  (1) 
212.1

>  <PUBCHEM_COORDINATE_TYPE>  (1) 
2
5
10

$$$$
