32111
     RDKit          3D

 18 19  0  0  0  0  0  0  0  0999 V2000
    1.0044    2.6609    0.7665 O   0  0  0  0  0  0  0  0  0  0  0  0
    0.0508   -2.4782    0.3672 O   0  0  0  0  0  0  0  0  0  0  0  0
    0.0172    1.7620    0.4630 N   0  0  0  0  0  0  0  0  0  0  0  0
   -0.1009   -1.7065   -0.5810 N   0  0  0  0  0  0  0  0  0  0  0  0
    0.3827    0.4892    0.0795 C   0  0  0  0  0  0  0  0  0  0  0  0
    1.7988    0.2166   -0.0035 C   0  0  0  0  0  0  0  0  0  0  0  0
   -1.9432   -0.2354   -0.1367 C   0  0  0  0  0  0  0  0  0  0  0  0
   -0.5132   -0.4898   -0.2143 C   0  0  0  0  0  0  0  0  0  0  0  0
    2.4914    0.4310   -1.2011 C   0  0  0  0  0  0  0  0  0  0  0  0
    2.4933   -0.2650    1.1126 C   0  0  0  0  0  0  0  0  0  0  0  0
   -2.6297    0.2346   -1.2563 C   0  0  0  0  0  0  0  0  0  0  0  0
   -2.6282   -0.4613    1.0573 C   0  0  0  0  0  0  0  0  0  0  0  0
    3.8588    0.1675   -1.2815 C   0  0  0  0  0  0  0  0  0  0  0  0
    3.8608   -0.5282    1.0321 C   0  0  0  0  0  0  0  0  0  0  0  0
   -4.0010    0.4788   -1.1821 C   0  0  0  0  0  0  0  0  0  0  0  0
   -3.9996   -0.2171    1.1315 C   0  0  0  0  0  0  0  0  0  0  0  0
    4.5435   -0.3120   -0.1650 C   0  0  0  0  0  0  0  0  0  0  0  0
   -4.6859    0.2529    0.0118 C   0  0  0  0  0  0  0  0  0  0  0  0
  1  3  1  0
  2  4  2  0
  3  5  1  0
  4  8  1  0
  5  6  1  0
  5  8  2  0
  6  9  2  0
  6 10  1  0
  7  8  1  0
  7 11  2  0
  7 12  1  0
  9 13  1  0
 10 14  2  0
 11 15  1  0
 12 16  2  0
 13 17  2  0
 14 17  1  0
 15 18  2  0
 16 18  1  0
M  END
>  <PUBCHEM_COMPOUND_CID>  (1) 
32111

>  <PUBCHEM_CONFORMER_RMSD>  (1) 
0.6

>  <PUBCHEM_CONFORMER_DIVERSEORDER>  (1) 
1
4
2
5
3

>  <PUBCHEM_MMFF94_PARTIAL_CHARGES>  (1) 
30
1 -0.38
10 -0.15
11 -0.15
12 -0.15
13 -0.15
14 -0.15
15 -0.15
16 -0.15
17 -0.15
18 -0.15
19 0.15
2 -0.16
20 0.15
21 0.15
22 0.15
23 0.15
24 0.15
25 0.15
26 0.15
27 0.4
28 0.15
29 0.15
3 -0.52
30 0.4
4 -0.13
5 0.07
6 0.03
7 0.03
8 0.27
9 -0.15

>  <PUBCHEM_EFFECTIVE_ROTOR_COUNT>  (1) 
4

>  <PUBCHEM_PHARMACOPHORE_FEATURES>  (1) 
3
1 1 anion
6 6 9 10 13 14 17 rings
6 7 11 12 15 16 18 rings

>  <PUBCHEM_HEAVY_ATOM_COUNT>  (1) 
18

>  <PUBCHEM_ATOM_DEF_STEREO_COUNT>  (1) 
0

>  <PUBCHEM_ATOM_UDEF_STEREO_COUNT>  (1) 
0

>  <PUBCHEM_BOND_DEF_STEREO_COUNT>  (1) 
0

>  <PUBCHEM_BOND_UDEF_STEREO_COUNT>  (1) 
1

>  <PUBCHEM_ISOTOPIC_ATOM_COUNT>  (1) 
0

>  <PUBCHEM_COMPONENT_COUNT>  (1) 
1

>  <PUBCHEM_CACTVS_TAUTO_COUNT>  (1) 
1

>  <PUBCHEM_CONFORMER_ID>  (1) 
00007D6F00000001

>  <PUBCHEM_MMFF94_ENERGY>  (1) 
66.448

>  <PUBCHEM_FEATURE_SELFOVERLAP>  (1) 
15.223

>  <PUBCHEM_SHAPE_FINGERPRINT>  (1) 
10366900 7 18259701208003058825
104564 63 18268713809704776697
12107183 9 16012940279429193577
12236239 1 17967534562954297598
124424 183 18259700099558618217
12592029 89 17603867763025035810
12633257 1 18265638605137159219
13140716 1 18270398437833156883
13675066 3 18186513311247409082
13760787 19 17312824883131364002
14115302 16 18260552247003504774
14289901 80 16298391283374707921
14341114 176 16588031186278109789
14993402 34 18342177777850814026
15219456 202 17894912867711681743
15239154 128 16588025710004955541
15309172 13 18410857668021277627
15653759 3 17676203598087380225
15848700 24 17989202638244533940
15848702 151 16702306723787167661
16752209 62 18339078186063886600
16945 1 18272933829694302311
1813 80 17989214732856849036
18186145 218 18272929457586432481
19422 9 16515402971306371110
19784866 240 17386845007437235554
19784866 9 18114178584254783267
200 152 17458345226014544224
20028762 73 17915182536559166823
20233049 118 18334856117168725980
20645477 70 17313099709878664730
23175994 123 18408608041344980197
23402539 116 17989203720602419556
23493267 7 17530677680721641649
23559900 14 17241874394339650658
296302 2 15195284252596791002
3286 77 18339359798769402343
4072396 5 18337941290824423707
4214541 1 16588021290757836381
465052 167 17968391142410295323
474 4 17416954192106485216
5104073 3 16588023510971780392
633830 44 18060142050331428445
69090 78 16272205288646025823
7495541 125 18041286568597949537
74978 22 18198902693851965247
77779 3 16587744230749029983
81228 2 17986691297968397448
8272917 22 17241042089743794426
9971528 1 17418094317214238424

>  <PUBCHEM_SHAPE_MULTIPOLES>  (1) 
348.73
8.79
1.54
1.28
1.28
0.01
0.04
0.04
0.43
-0.27
-0.3
-0.04
0.18
0.15

>  <PUBCHEM_SHAPE_SELFOVERLAP>  (1) 
756.23

>  <PUBCHEM_SHAPE_VOLUME>  (1) 
191.6

>  <PUBCHEM_COORDINATE_TYPE>  (1) 
2
5
10

$$$$
