32120
     RDKit          3D

 26 27  0  0  1  0  0  0  0  0999 V2000
    7.0216    2.3900   -0.4665 Cl  0  0  0  0  0  0  0  0  0  0  0  0
   -3.1690    0.4127   -0.5983 N   0  0  0  0  0  0  0  0  0  0  0  0
    0.5414    0.7136   -0.3947 N   0  0  0  0  0  0  0  0  0  0  0  0
   -1.8790    1.0758   -0.3993 C   0  0  0  0  0  0  0  0  0  0  0  0
   -4.2645    1.3626   -0.3958 C   0  0  0  0  0  0  0  0  0  0  0  0
   -3.2421   -0.1792   -1.9287 C   0  0  0  0  0  0  0  0  0  0  0  0
   -0.7518    0.0677   -0.5816 C   0  0  0  0  0  0  0  0  0  0  0  0
   -4.1817    1.9786    0.9997 C   0  0  0  0  0  0  0  0  0  0  0  0
   -4.5651   -0.9219   -2.1072 C   0  0  0  0  0  0  0  0  0  0  0  0
    1.6280   -0.2422   -0.5564 C   0  0  0  0  0  0  0  0  0  0  0  0
   -5.3056    2.9907    1.2245 C   0  0  0  0  0  0  0  0  0  0  0  0
   -4.7031   -2.0569   -1.0917 C   0  0  0  0  0  0  0  0  0  0  0  0
    2.9951    0.4255   -0.5344 C   0  0  0  0  0  0  0  0  0  0  0  0
    1.5428   -1.3911    0.4375 C   0  0  0  0  0  0  0  0  0  0  0  0
   -5.2512    3.5825    2.6240 C   0  0  0  0  0  0  0  0  0  0  0  0
   -6.0331   -2.7785   -1.2396 C   0  0  0  0  0  0  0  0  0  0  0  0
    4.0265   -0.1414   -1.2549 C   0  0  0  0  0  0  0  0  0  0  0  0
    3.1631    1.5779    0.2063 C   0  0  0  0  0  0  0  0  0  0  0  0
    2.0397   -2.6263    0.0739 C   0  0  0  0  0  0  0  0  0  0  0  0
    0.9716   -1.1638    1.6732 C   0  0  0  0  0  0  0  0  0  0  0  0
    5.2800    0.4700   -1.2339 C   0  0  0  0  0  0  0  0  0  0  0  0
    4.4166    2.1896    0.2273 C   0  0  0  0  0  0  0  0  0  0  0  0
    1.9617   -3.6796    0.9850 C   0  0  0  0  0  0  0  0  0  0  0  0
    0.8938   -2.2172    2.5843 C   0  0  0  0  0  0  0  0  0  0  0  0
    5.4751    1.6358   -0.4929 C   0  0  0  0  0  0  0  0  0  0  0  0
    1.3889   -3.4750    2.2402 C   0  0  0  0  0  0  0  0  0  0  0  0
  1 25  1  0
  2  4  1  0
  2  5  1  0
  2  6  1  0
  3  7  1  0
  3 10  1  0
  4  7  1  0
  5  8  1  0
  6  9  1  0
  8 11  1  0
  9 12  1  0
 10 13  1  0
 10 14  1  0
 11 15  1  0
 12 16  1  0
 13 17  2  0
 13 18  1  0
 14 19  2  0
 14 20  1  0
 17 21  1  0
 18 22  2  0
 19 23  1  0
 20 24  2  0
 21 25  2  0
 22 25  1  0
 23 26  2  0
 24 26  1  0
M  END
>  <PUBCHEM_COMPOUND_CID>  (1) 
32120

>  <PUBCHEM_CONFORMER_RMSD>  (1) 
1

>  <PUBCHEM_CONFORMER_DIVERSEORDER>  (1) 
2
159
89
48
86
96
95
63
132
164
121
101
94
105
92
124
85
76
120
126
24
155
133
79
114
66
130
146
3
93
151
80
91
117
22
90
109
16
64
106
108
107
125
41
148
77
156
83
84
14
52
143
38
19
161
152
99
28
49
135
122
116
67
46
70
39
150
153
112
119
88
128
21
36
100
142
71
140
149
20
61
43
25
97
12
69
53
136
123
58
78
115
144
110
6
98
55
145
87
4
134
60
113
103
68
75
139
129
72
59
65
102
160
81
11
32
111
15
82
35
138
141
73
127
40
44
57
118
26
42
158
50
8
163
47
10
157
131
17
137
29
104
62
74
34
1
7
154
33
27
23
51
9
30
31
37
13
56
18
5
162
45
54
147

>  <PUBCHEM_MMFF94_PARTIAL_CHARGES>  (1) 
30
1 -0.18
10 0.56
13 -0.14
14 -0.14
17 -0.15
18 -0.15
19 -0.15
2 -0.81
20 -0.15
21 -0.15
22 -0.15
23 -0.15
24 -0.15
25 0.18
26 -0.15
3 -0.9
4 0.27
40 0.36
5 0.27
51 0.15
52 0.15
53 0.15
54 0.15
55 0.15
56 0.15
57 0.15
58 0.15
59 0.15
6 0.27
7 0.27

>  <PUBCHEM_EFFECTIVE_ROTOR_COUNT>  (1) 
12

>  <PUBCHEM_PHARMACOPHORE_FEATURES>  (1) 
7
1 15 hydrophobe
1 16 hydrophobe
1 2 cation
1 3 cation
1 3 donor
6 13 17 18 21 22 25 rings
6 14 19 20 23 24 26 rings

>  <PUBCHEM_HEAVY_ATOM_COUNT>  (1) 
26

>  <PUBCHEM_ATOM_DEF_STEREO_COUNT>  (1) 
0

>  <PUBCHEM_ATOM_UDEF_STEREO_COUNT>  (1) 
1

>  <PUBCHEM_BOND_DEF_STEREO_COUNT>  (1) 
0

>  <PUBCHEM_BOND_UDEF_STEREO_COUNT>  (1) 
0

>  <PUBCHEM_ISOTOPIC_ATOM_COUNT>  (1) 
0

>  <PUBCHEM_COMPONENT_COUNT>  (1) 
1

>  <PUBCHEM_CACTVS_TAUTO_COUNT>  (1) 
1

>  <PUBCHEM_CONFORMER_ID>  (1) 
00007D7800000002

>  <PUBCHEM_MMFF94_ENERGY>  (1) 
56.2381

>  <PUBCHEM_FEATURE_SELFOVERLAP>  (1) 
35.52

>  <PUBCHEM_SHAPE_FINGERPRINT>  (1) 
12788726 201 18201148936980653231
13540713 5 18339348661887983991
13631057 29 18265044920361129783
13726171 33 17846509114519377505
13955234 65 17970635082375618450
14347329 18 16844734097628266761
15238133 3 17201068180948950601
15842332 3 18269256981707865535
17913733 40 18041009401183553216
20567600 347 17967801778376471538
20681651 13 18263347141342549949
21054139 6 18188760781507661799
21421861 104 18119248359614711264
21796203 349 17465953657242406955
23569917 315 18114175376606251850
469060 322 16226625086447769027
5912855 24 18411982434679220467
59755656 520 17678441164733258022
633830 44 18411141342158446244
6691757 9 17895472652732973256
6823239 73 16486677122082291577

>  <PUBCHEM_SHAPE_MULTIPOLES>  (1) 
526.98
15.3
4.5
2.22
1.95
1.39
1.15
-11.51
-4.25
2.55
3.35
2.44
0.69
-5.92

>  <PUBCHEM_SHAPE_SELFOVERLAP>  (1) 
1065.171

>  <PUBCHEM_SHAPE_VOLUME>  (1) 
308.9

>  <PUBCHEM_COORDINATE_TYPE>  (1) 
2
5
10

$$$$
