32124
     RDKit          3D

 24 26  0  0  1  0  0  0  0  0999 V2000
   -6.2790    3.3152   -0.5347 Cl  0  0  0  0  0  0  0  0  0  0  0  0
    3.3540   -0.4316    0.3772 N   0  0  0  0  0  0  0  0  0  0  0  0
   -0.2463    0.4799    0.0785 N   0  0  0  0  0  0  0  0  0  0  0  0
    4.5797    0.1180   -0.1991 C   0  0  0  0  0  0  0  0  0  0  0  0
    5.7846   -0.7189    0.2443 C   0  0  0  0  0  0  0  0  0  0  0  0
    4.7403    1.5836    0.2196 C   0  0  0  0  0  0  0  0  0  0  0  0
    7.0938   -0.1290   -0.2773 C   0  0  0  0  0  0  0  0  0  0  0  0
    6.0510    2.1708   -0.3013 C   0  0  0  0  0  0  0  0  0  0  0  0
    7.2528    1.3337    0.1279 C   0  0  0  0  0  0  0  0  0  0  0  0
    2.1913    0.3186   -0.0721 C   0  0  0  0  0  0  0  0  0  0  0  0
    0.9180   -0.2832    0.5147 C   0  0  0  0  0  0  0  0  0  0  0  0
   -1.4718   -0.0877    0.6220 C   0  0  0  0  0  0  0  0  0  0  0  0
   -2.6898    0.7759    0.3297 C   0  0  0  0  0  0  0  0  0  0  0  0
   -1.6839   -1.5311    0.1900 C   0  0  0  0  0  0  0  0  0  0  0  0
   -3.7426    0.7690    1.2218 C   0  0  0  0  0  0  0  0  0  0  0  0
   -2.7059    1.5396   -0.8199 C   0  0  0  0  0  0  0  0  0  0  0  0
   -2.3652   -2.3866    1.0317 C   0  0  0  0  0  0  0  0  0  0  0  0
   -1.1883   -1.9421   -1.0308 C   0  0  0  0  0  0  0  0  0  0  0  0
   -4.8598    1.5598    0.9529 C   0  0  0  0  0  0  0  0  0  0  0  0
   -3.8230    2.3304   -1.0887 C   0  0  0  0  0  0  0  0  0  0  0  0
   -2.5593   -3.7100    0.6358 C   0  0  0  0  0  0  0  0  0  0  0  0
   -1.3825   -3.2655   -1.4268 C   0  0  0  0  0  0  0  0  0  0  0  0
   -4.9000    2.3406   -0.2024 C   0  0  0  0  0  0  0  0  0  0  0  0
   -2.0680   -4.1493   -0.5934 C   0  0  0  0  0  0  0  0  0  0  0  0
  1 23  1  0
  2  4  1  0
  2 10  1  0
  3 11  1  0
  3 12  1  0
  4  5  1  0
  4  6  1  0
  5  7  1  0
  6  8  1  0
  7  9  1  0
  8  9  1  0
 10 11  1  0
 12 13  1  0
 12 14  1  0
 13 15  2  0
 13 16  1  0
 14 17  2  0
 14 18  1  0
 15 19  1  0
 16 20  2  0
 17 21  1  0
 18 22  2  0
 19 23  2  0
 20 23  1  0
 21 24  2  0
 22 24  1  0
M  END
>  <PUBCHEM_COMPOUND_CID>  (1) 
32124

>  <PUBCHEM_CONFORMER_RMSD>  (1) 
0.8

>  <PUBCHEM_CONFORMER_DIVERSEORDER>  (1) 
1
103
88
99
69
100
31
61
75
94
84
40
17
20
63
73
45
89
53
78
67
79
95
44
3
105
71
7
55
85
109
4
106
47
14
59
6
35
23
97
87
24
96
2
13
57
30
108
49
74
68
93
10
29
34
36
28
60
22
90
21
50
32
54
65
25
80
27
12
86
42
91
46
77
64
82
58
70
18
104
16
98
48
37
11
62
52
41
83
26
5
81
102
19
92
33
110
107
51
15
43
66
76
38
39
72
56
8
9
101

>  <PUBCHEM_MMFF94_PARTIAL_CHARGES>  (1) 
30
1 -0.18
10 0.27
11 0.27
12 0.56
13 -0.14
14 -0.14
15 -0.15
16 -0.15
17 -0.15
18 -0.15
19 -0.15
2 -0.9
20 -0.15
21 -0.15
22 -0.15
23 0.18
24 -0.15
3 -0.9
36 0.36
4 0.27
42 0.36
43 0.15
44 0.15
45 0.15
46 0.15
47 0.15
48 0.15
49 0.15
50 0.15
51 0.15

>  <PUBCHEM_EFFECTIVE_ROTOR_COUNT>  (1) 
8.2

>  <PUBCHEM_PHARMACOPHORE_FEATURES>  (1) 
7
1 2 cation
1 2 donor
1 3 cation
1 3 donor
6 13 15 16 19 20 23 rings
6 14 17 18 21 22 24 rings
6 4 5 6 7 8 9 rings

>  <PUBCHEM_HEAVY_ATOM_COUNT>  (1) 
24

>  <PUBCHEM_ATOM_DEF_STEREO_COUNT>  (1) 
0

>  <PUBCHEM_ATOM_UDEF_STEREO_COUNT>  (1) 
1

>  <PUBCHEM_BOND_DEF_STEREO_COUNT>  (1) 
0

>  <PUBCHEM_BOND_UDEF_STEREO_COUNT>  (1) 
0

>  <PUBCHEM_ISOTOPIC_ATOM_COUNT>  (1) 
0

>  <PUBCHEM_COMPONENT_COUNT>  (1) 
1

>  <PUBCHEM_CACTVS_TAUTO_COUNT>  (1) 
1

>  <PUBCHEM_CONFORMER_ID>  (1) 
00007D7C00000001

>  <PUBCHEM_MMFF94_ENERGY>  (1) 
45.9406

>  <PUBCHEM_FEATURE_SELFOVERLAP>  (1) 
35.522

>  <PUBCHEM_SHAPE_FINGERPRINT>  (1) 
10369192 42 18263081029464493877
10411042 1 17833834150849661371
105312 117 18410858728867319367
11101153 10 17830457541971348340
11297750 10 17699558449327638339
11405975 8 18411696608810604624
12107183 9 18263635161971219898
12293681 160 17774434971998806017
12597179 24 18202285758076791495
12616971 3 17676474039846749234
12643181 29 18342459210848893406
12788726 201 18265317581922907443
12895836 83 18410289198903025529
12895837 130 18188217610364032260
13257819 101 17605264078958502917
13911987 19 18341604864180590033
14251764 30 8718244837614486637
15230672 131 18337393739300098798
1577012 14 18186801431593866624
167882 2 18124313805220537807
17093844 174 18272085033373706122
17844677 252 18268154343681508176
20101258 96 18120098539531689225
20554085 129 17986087644646328977
21236236 1 18340486763242942127
21756936 100 17894348890965333944
21859007 373 17970065535331539500
22224240 67 18339652149046736913
23081809 10 17895190065639177496
249057 3 18339079269055229546
3610482 184 17895208739750799236
4015057 19 17131822205367532272
4058900 60 18196938764765016673
4073 2 18114187488692646546
44062 13 18340207492116976984
4409770 3 18340484582170059511
44249763 50 18340197596750255992
504843 32 18334290951587368167
5104073 3 18338509846585619784
559249 180 18411134723714147562
5969126 39 18127404773235556567
59755656 520 18410285887757196093
6327066 14 18336542721046086741
6669772 16 18270402659734015111
6898599 12 18338800125633675508
77188 2 17544479013062565131

>  <PUBCHEM_SHAPE_MULTIPOLES>  (1) 
485.82
17.1
4.53
1.07
31.9
4.14
0.07
-16.27
0.24
-7.89
1.11
-1.06
0.29
0.51

>  <PUBCHEM_SHAPE_SELFOVERLAP>  (1) 
1009.995

>  <PUBCHEM_SHAPE_VOLUME>  (1) 
275.8

>  <PUBCHEM_COORDINATE_TYPE>  (1) 
2
5
10

$$$$
