32134
     RDKit          3D

 34 37  0  0  1  0  0  0  0  0999 V2000
   -8.9651   -2.8410    0.3679 Cl  0  0  0  0  0  0  0  0  0  0  0  0
   -1.5268    1.2595   -1.3187 O   0  0  0  0  0  0  0  0  0  0  0  0
    2.3243   -1.4005    0.4156 N   0  0  0  0  0  0  0  0  0  0  0  0
   -0.1948   -0.5100   -0.6185 N   0  0  0  0  0  0  0  0  0  0  0  0
    1.0681   -1.9782    0.9159 C   0  0  0  0  0  0  0  0  0  0  0  0
    2.1284    0.0068    0.0381 C   0  0  0  0  0  0  0  0  0  0  0  0
   -0.0359   -1.8860   -0.1390 C   0  0  0  0  0  0  0  0  0  0  0  0
    1.0495    0.1339   -1.0368 C   0  0  0  0  0  0  0  0  0  0  0  0
    3.3805   -1.5206    1.4197 C   0  0  0  0  0  0  0  0  0  0  0  0
   -1.4123    0.1423   -0.8081 C   0  0  0  0  0  0  0  0  0  0  0  0
   -2.6476   -0.5877   -0.3447 C   0  0  0  0  0  0  0  0  0  0  0  0
   -3.9112    0.2118   -0.7110 C   0  0  0  0  0  0  0  0  0  0  0  0
    4.6977   -0.9954    0.9137 C   0  0  0  0  0  0  0  0  0  0  0  0
    8.4296    0.4940   -0.5205 C   0  0  0  0  0  0  0  0  0  0  0  0
    7.1252   -0.0264   -0.0192 C   0  0  0  0  0  0  0  0  0  0  0  0
    5.1255   -1.3384   -0.3610 C   0  0  0  0  0  0  0  0  0  0  0  0
    5.4648   -0.1756    1.7293 C   0  0  0  0  0  0  0  0  0  0  0  0
   -5.1949   -0.5647   -0.4380 C   0  0  0  0  0  0  0  0  0  0  0  0
   -3.9508    1.5957   -0.0720 C   0  0  0  0  0  0  0  0  0  0  0  0
    6.3456   -0.8513   -0.8299 C   0  0  0  0  0  0  0  0  0  0  0  0
    6.6848    0.3116    1.2604 C   0  0  0  0  0  0  0  0  0  0  0  0
    9.4059   -0.6708   -0.8735 C   0  0  0  0  0  0  0  0  0  0  0  0
    8.2386    1.3539   -1.8084 C   0  0  0  0  0  0  0  0  0  0  0  0
    9.2162    1.4080    0.4771 C   0  0  0  0  0  0  0  0  0  0  0  0
   -6.2997   -0.3193   -1.2249 C   0  0  0  0  0  0  0  0  0  0  0  0
   -5.2082   -1.4856    0.5878 C   0  0  0  0  0  0  0  0  0  0  0  0
   -4.6050    2.6138   -0.7323 C   0  0  0  0  0  0  0  0  0  0  0  0
   -3.3308    1.7835    1.1447 C   0  0  0  0  0  0  0  0  0  0  0  0
   -7.4741   -1.0288   -0.9740 C   0  0  0  0  0  0  0  0  0  0  0  0
   -6.3826   -2.1951    0.8386 C   0  0  0  0  0  0  0  0  0  0  0  0
   -4.6409    3.8799   -0.1480 C   0  0  0  0  0  0  0  0  0  0  0  0
   -3.3666    3.0495    1.7292 C   0  0  0  0  0  0  0  0  0  0  0  0
   -7.5156   -1.9667    0.0577 C   0  0  0  0  0  0  0  0  0  0  0  0
   -4.0218    4.0977    1.0827 C   0  0  0  0  0  0  0  0  0  0  0  0
  1 33  1  0
  2 10  2  0
  3  5  1  0
  3  6  1  0
  3  9  1  0
  4  7  1  0
  4  8  1  0
  4 10  1  0
  5  7  1  0
  6  8  1  0
  9 13  1  0
 10 11  1  0
 11 12  1  0
 12 18  1  0
 12 19  1  0
 13 16  2  0
 13 17  1  0
 14 15  1  0
 14 22  1  0
 14 23  1  0
 14 24  1  0
 15 20  2  0
 15 21  1  0
 16 20  1  0
 17 21  2  0
 18 25  2  0
 18 26  1  0
 19 27  2  0
 19 28  1  0
 25 29  1  0
 26 30  2  0
 27 31  1  0
 28 32  2  0
 29 33  2  0
 30 33  1  0
 31 34  2  0
 32 34  1  0
M  END
>  <PUBCHEM_COMPOUND_CID>  (1) 
32134

>  <PUBCHEM_CONFORMER_RMSD>  (1) 
1.2

>  <PUBCHEM_CONFORMER_DIVERSEORDER>  (1) 
1
34
74
22
41
11
101
7
12
40
64
42
58
84
78
77
61
45
114
52
110
53
44
66
43
26
111
79
90
59
76
37
105
86
36
71
91
13
68
25
28
15
54
55
69
6
104
97
70
96
21
94
112
107
73
80
49
106
33
29
81
46
14
85
72
2
65
20
24
119
62
5
108
121
116
75
19
117
35
120
115
50
4
99
113
9
88
93
87
18
83
63
27
23
57
30
67
17
60
103
47
92
38
100
3
89
32
102
82
98
16
56
48
8
118
122
31
10
51
109
39
95

>  <PUBCHEM_MMFF94_PARTIAL_CHARGES>  (1) 
44
1 -0.18
10 0.57
11 0.06
12 0.29
13 -0.14
14 0.14
15 -0.14
16 -0.15
17 -0.15
18 -0.14
19 -0.14
2 -0.57
20 -0.15
21 -0.15
25 -0.15
26 -0.15
27 -0.15
28 -0.15
29 -0.15
3 -0.81
30 -0.15
31 -0.15
32 -0.15
33 0.18
34 -0.15
4 -0.66
48 0.15
49 0.15
5 0.27
50 0.15
51 0.15
6 0.27
61 0.15
62 0.15
63 0.15
64 0.15
65 0.15
66 0.15
67 0.15
68 0.15
69 0.15
7 0.3
8 0.3
9 0.41

>  <PUBCHEM_EFFECTIVE_ROTOR_COUNT>  (1) 
9.2

>  <PUBCHEM_PHARMACOPHORE_FEATURES>  (1) 
7
1 2 acceptor
1 3 cation
4 14 22 23 24 hydrophobe
6 13 15 16 17 20 21 rings
6 18 25 26 29 30 33 rings
6 19 27 28 31 32 34 rings
6 3 4 5 6 7 8 rings

>  <PUBCHEM_HEAVY_ATOM_COUNT>  (1) 
34

>  <PUBCHEM_ATOM_DEF_STEREO_COUNT>  (1) 
0

>  <PUBCHEM_ATOM_UDEF_STEREO_COUNT>  (1) 
1

>  <PUBCHEM_BOND_DEF_STEREO_COUNT>  (1) 
0

>  <PUBCHEM_BOND_UDEF_STEREO_COUNT>  (1) 
0

>  <PUBCHEM_ISOTOPIC_ATOM_COUNT>  (1) 
0

>  <PUBCHEM_COMPONENT_COUNT>  (1) 
1

>  <PUBCHEM_CACTVS_TAUTO_COUNT>  (1) 
1

>  <PUBCHEM_CONFORMER_ID>  (1) 
00007D8600000001

>  <PUBCHEM_MMFF94_ENERGY>  (1) 
109.1537

>  <PUBCHEM_FEATURE_SELFOVERLAP>  (1) 
35.522

>  <PUBCHEM_SHAPE_FINGERPRINT>  (1) 
10162869 55 16008746948724673838
10577160 183 9583523075683438425
11007060 377 17748832899200398882
11315181 36 18040996237757266679
11991303 11 16199568273703342028
12082328 90 18343019956803298334
12144600 37 18270404884843689350
12373685 5 13551183416003340840
12539747 363 18273218621420352081
12643181 29 7997970176279290897
12664476 115 17775563152590837098
13631057 29 18335417968296198323
14068700 675 18334015038787952183
14118638 360 18411134701817415306
14150022 121 17917718972845458113
14394314 77 18335424509268549116
14444916 359 16128660759974349998
14512766 119 18195810665381867892
1454969 45 17967530186040212430
14856354 85 18130502024492219591
15328684 2 17968642823003727968
15328829 1 18187081788861034598
15347591 1 18267585697736912687
15419008 47 17775280573380660105
15444296 9 12175633875341978624
15728490 51 18261671566593974375
1577012 14 18335138631833204648
16992752 21 18410858780913328701
17686467 74 18334292102095232637
18335252 98 18343023298451923822
18603816 31 13190341314040016539
20105231 36 17988925595384501038
21130935 74 18263360305265013298
21779490 94 17916852651835376520
21792938 703 17968673669728300930
21792961 116 17203331075138129030
24771293 8 17967819323670934068
249057 25 17894925026294566693
2747138 104 18341328981055789163
335507 130 18273213123355245310
3418910 222 18410862065867932869
397638 26 7853573513074016512
4073 2 18336266722015580299
444769 64 11167942463485279639
445580 37 18343019969661897496
4461854 278 18060142085008653263
48014 12 18410295787414739733
4874694 18 12179839511745161408
59755656 520 14333118694267184039
6057620 51 18260266352057372114
613672 6 14057004849832458475
6523845 18 16988842791312533519
6673363 416 18342740745190488968
6703917 75 18335990826539224430
70634741 139 18113897161529862655

>  <PUBCHEM_SHAPE_MULTIPOLES>  (1) 
685.74
30.8
3.49
1.44
39.79
3.7
0.16
-6.45
-3.65
-9.18
1.15
0.96
0.38
-0.82

>  <PUBCHEM_SHAPE_SELFOVERLAP>  (1) 
1459.129

>  <PUBCHEM_SHAPE_VOLUME>  (1) 
383.8

>  <PUBCHEM_COORDINATE_TYPE>  (1) 
2
5
10

$$$$
