32138
     RDKit          3D

 29 32  0  0  1  0  0  0  0  0999 V2000
    5.9886    4.0557   -0.5820 Cl  0  0  0  0  0  0  0  0  0  0  0  0
    0.4292   -2.4678    2.0421 O   0  0  0  0  0  0  0  0  0  0  0  0
   -1.0100   -0.6579    1.8362 N   0  0  0  0  0  0  0  0  0  0  0  0
   -3.3766    0.1816    0.5492 N   0  0  0  0  0  0  0  0  0  0  0  0
   -5.0563   -0.2793   -1.1128 N   0  0  0  0  0  0  0  0  0  0  0  0
   -2.2193   -1.4671    1.9645 C   0  0  0  0  0  0  0  0  0  0  0  0
   -1.2689    0.7741    1.6767 C   0  0  0  0  0  0  0  0  0  0  0  0
   -3.1405   -1.2549    0.7652 C   0  0  0  0  0  0  0  0  0  0  0  0
   -2.1773    1.0276    0.4739 C   0  0  0  0  0  0  0  0  0  0  0  0
    1.7661   -0.1266    0.2572 C   0  0  0  0  0  0  0  0  0  0  0  0
    1.4356   -0.3428    1.7449 C   0  0  0  0  0  0  0  0  0  0  0  0
    0.2458   -1.2575    1.8893 C   0  0  0  0  0  0  0  0  0  0  0  0
   -4.5288    0.5522   -0.1538 C   0  0  0  0  0  0  0  0  0  0  0  0
    2.8392    0.9356    0.0438 C   0  0  0  0  0  0  0  0  0  0  0  0
    2.1097   -1.4202   -0.4732 C   0  0  0  0  0  0  0  0  0  0  0  0
   -5.1353    1.7880    0.1381 C   0  0  0  0  0  0  0  0  0  0  0  0
    2.8154    1.6798   -1.1162 C   0  0  0  0  0  0  0  0  0  0  0  0
    3.7971    1.1170    1.0182 C   0  0  0  0  0  0  0  0  0  0  0  0
    3.4246   -1.8325   -0.5107 C   0  0  0  0  0  0  0  0  0  0  0  0
    1.0944   -2.1348   -1.0722 C   0  0  0  0  0  0  0  0  0  0  0  0
    3.7966    2.6519   -1.3112 C   0  0  0  0  0  0  0  0  0  0  0  0
    4.7783    2.0890    0.8233 C   0  0  0  0  0  0  0  0  0  0  0  0
    3.7392   -3.0158   -1.1789 C   0  0  0  0  0  0  0  0  0  0  0  0
    1.4090   -3.3180   -1.7405 C   0  0  0  0  0  0  0  0  0  0  0  0
   -6.2805    2.1701   -0.5517 C   0  0  0  0  0  0  0  0  0  0  0  0
    4.7781    2.8564   -0.3414 C   0  0  0  0  0  0  0  0  0  0  0  0
   -6.1704    0.1260   -1.7626 C   0  0  0  0  0  0  0  0  0  0  0  0
    2.7313   -3.7586   -1.7938 C   0  0  0  0  0  0  0  0  0  0  0  0
   -6.8143    1.3289   -1.5217 C   0  0  0  0  0  0  0  0  0  0  0  0
  1 26  1  0
  2 12  2  0
  3  6  1  0
  3  7  1  0
  3 12  1  0
  4  8  1  0
  4  9  1  0
  4 13  1  0
  5 13  2  0
  5 27  1  0
  6  8  1  0
  7  9  1  0
 10 11  1  0
 10 14  1  0
 10 15  1  0
 11 12  1  0
 13 16  1  0
 14 17  2  0
 14 18  1  0
 15 19  2  0
 15 20  1  0
 16 25  2  0
 17 21  1  0
 18 22  2  0
 19 23  1  0
 20 24  2  0
 21 26  2  0
 22 26  1  0
 23 28  2  0
 24 28  1  0
 25 29  1  0
 27 29  2  0
M  END
>  <PUBCHEM_COMPOUND_CID>  (1) 
32138

>  <PUBCHEM_CONFORMER_RMSD>  (1) 
0.8

>  <PUBCHEM_CONFORMER_DIVERSEORDER>  (1) 
6
169
191
77
86
108
232
110
84
233
155
189
67
37
219
236
42
15
104
130
244
24
89
131
137
200
222
46
72
132
213
146
139
85
71
28
210
54
114
246
147
48
79
212
129
149
106
65
115
239
190
113
51
215
150
164
193
45
209
76
134
68
34
121
187
99
105
207
125
174
29
12
90
83
234
168
196
225
101
107
91
171
56
161
93
148
185
231
43
228
33
55
152
172
119
181
98
32
124
141
53
206
36
208
188
205
69
163
81
180
133
165
123
224
218
11
184
94
20
217
223
170
82
135
199
75
80
103
127
61
229
17
47
2
204
30
111
211
23
19
96
167
18
240
201
221
21
9
179
214
44
159
177
109
175
7
116
245
136
198
241
243
41
143
95
242
26
102
157
52
88
156
202
227
57
128
226
203
40
238
176
144
92
158
220
66
14
122
192
154
195
235
162
1
120
50
35
153
74
27
151
38
39
25
126
31
87
194
230
64
63
182
58
117
173
166
97
178
138
60
140
145
197
10
13
160
59
100
3
112
186
183
216
62
22
142
237
118
70
73
4
16
5
8
78
49

>  <PUBCHEM_MMFF94_PARTIAL_CHARGES>  (1) 
42
1 -0.18
10 0.29
11 0.06
12 0.57
13 0.41
14 -0.14
15 -0.14
16 -0.15
17 -0.15
18 -0.15
19 -0.15
2 -0.57
20 -0.15
21 -0.15
22 -0.15
23 -0.15
24 -0.15
25 -0.15
26 0.18
27 0.16
28 -0.15
29 -0.15
3 -0.66
4 -0.84
41 0.15
42 0.15
43 0.15
44 0.15
45 0.15
46 0.15
47 0.15
48 0.15
49 0.15
5 -0.62
50 0.15
51 0.15
52 0.15
53 0.15
6 0.3
7 0.3
8 0.37
9 0.37

>  <PUBCHEM_EFFECTIVE_ROTOR_COUNT>  (1) 
7.2

>  <PUBCHEM_PHARMACOPHORE_FEATURES>  (1) 
7
1 2 acceptor
1 4 cation
1 5 acceptor
6 14 17 18 21 22 26 rings
6 15 19 20 23 24 28 rings
6 3 4 6 7 8 9 rings
6 5 13 16 25 27 29 rings

>  <PUBCHEM_HEAVY_ATOM_COUNT>  (1) 
29

>  <PUBCHEM_ATOM_DEF_STEREO_COUNT>  (1) 
0

>  <PUBCHEM_ATOM_UDEF_STEREO_COUNT>  (1) 
1

>  <PUBCHEM_BOND_DEF_STEREO_COUNT>  (1) 
0

>  <PUBCHEM_BOND_UDEF_STEREO_COUNT>  (1) 
0

>  <PUBCHEM_ISOTOPIC_ATOM_COUNT>  (1) 
0

>  <PUBCHEM_COMPONENT_COUNT>  (1) 
1

>  <PUBCHEM_CACTVS_TAUTO_COUNT>  (1) 
1

>  <PUBCHEM_CONFORMER_ID>  (1) 
00007D8A00000006

>  <PUBCHEM_MMFF94_ENERGY>  (1) 
97.8493

>  <PUBCHEM_FEATURE_SELFOVERLAP>  (1) 
35.523

>  <PUBCHEM_SHAPE_FINGERPRINT>  (1) 
10930396 42 18194100938946413250
11069576 57 17560523872054523582
11578080 2 17241347857746848622
11720765 8 18048880697784948158
11763715 3 16055207761733727834
11796584 16 15410598286887514981
12107698 1 18266171725814643949
12166972 35 17630044858412883879
13383661 66 15408923893428657071
13540713 4 18115892795802413803
13911987 19 18128827528265192904
14068700 675 17557423185166862594
14251764 30 10807670994470982840
14950920 106 11025799786891225845
15003188 33 18129943369605982585
15183329 4 16415193435435458713
15238133 3 15285361708274205020
15799311 1 17346878936804868367
15803439 3 17702395124949952556
15842332 3 16986617280872270578
17980427 26 18041544919592759578
19304144 158 18337098068939165853
19309040 13 18199489751963949045
20715895 44 17894904127263635761
21033648 29 17240772812563719072
21223535 225 18045496405432124021
21304303 282 17627210588783872550
21968339 14 18272083898943579912
22182313 1 17970373535830883483
23522609 53 17345772815227952897
23559900 14 18339085886692478162
25222932 49 15839827851714159071
2838139 119 18189048875055335792
3004659 81 17987509308933976783
312425 83 18341047411731819869
3472631 163 18040428919384463353
34797466 226 18336542738737288501
3610482 184 17274555226588487169
376196 1 18189617322851629280
4066623 53 17824265904221548692
4098825 35 18342182150813635459
439807 62 17703777104209258151
44317340 157 18339086991279379217
44802255 64 17835263486353985244
46194498 28 18339641123126904445
469060 322 17693672810291268635
508180 173 17611195857484068305
513532 50 18187925028047765774
5951187 136 18187921716791270513
960060 61 17775277232465360329

>  <PUBCHEM_SHAPE_MULTIPOLES>  (1) 
577.86
14.72
4.47
2.07
20.26
0.91
0.51
-14.81
-7.53
-8.33
-2.37
0.66
1.1
1.52

>  <PUBCHEM_SHAPE_SELFOVERLAP>  (1) 
1238.324

>  <PUBCHEM_SHAPE_VOLUME>  (1) 
318.1

>  <PUBCHEM_COORDINATE_TYPE>  (1) 
2
5
10

$$$$
