32139
     RDKit          3D

 30 33  0  0  1  0  0  0  0  0999 V2000
    6.1669   -4.1064    0.3559 Cl  0  0  0  0  0  0  0  0  0  0  0  0
    0.5964    2.5287   -1.9450 O   0  0  0  0  0  0  0  0  0  0  0  0
   -0.8534    0.7272   -1.7409 N   0  0  0  0  0  0  0  0  0  0  0  0
   -3.1896   -0.1226   -0.4056 N   0  0  0  0  0  0  0  0  0  0  0  0
   -2.0581    1.5500   -1.8139 C   0  0  0  0  0  0  0  0  0  0  0  0
   -1.1213   -0.7060   -1.6086 C   0  0  0  0  0  0  0  0  0  0  0  0
   -2.9459    1.3168   -0.5936 C   0  0  0  0  0  0  0  0  0  0  0  0
   -1.9968   -0.9807   -0.3861 C   0  0  0  0  0  0  0  0  0  0  0  0
    0.4060    1.3167   -1.8162 C   0  0  0  0  0  0  0  0  0  0  0  0
    1.5906    0.3882   -1.7290 C   0  0  0  0  0  0  0  0  0  0  0  0
    1.9622    0.1326   -0.2573 C   0  0  0  0  0  0  0  0  0  0  0  0
   -4.3243   -0.4999    0.3218 C   0  0  0  0  0  0  0  0  0  0  0  0
    3.0308   -0.9440   -0.1013 C   0  0  0  0  0  0  0  0  0  0  0  0
    2.3393    1.4049    0.4938 C   0  0  0  0  0  0  0  0  0  0  0  0
   -5.5779   -0.7253   -0.2981 C   0  0  0  0  0  0  0  0  0  0  0  0
   -4.2592   -0.6707    1.7254 C   0  0  0  0  0  0  0  0  0  0  0  0
   -6.6992   -1.0989    0.4427 C   0  0  0  0  0  0  0  0  0  0  0  0
    3.0337   -1.7161    1.0406 C   0  0  0  0  0  0  0  0  0  0  0  0
    3.9581   -1.1100   -1.1075 C   0  0  0  0  0  0  0  0  0  0  0  0
    3.6587    1.8044    0.5028 C   0  0  0  0  0  0  0  0  0  0  0  0
    1.3489    2.1135    1.1396 C   0  0  0  0  0  0  0  0  0  0  0  0
   -5.7121   -0.5621   -1.7772 C   0  0  0  0  0  0  0  0  0  0  0  0
   -5.3805   -1.0442    2.4662 C   0  0  0  0  0  0  0  0  0  0  0  0
   -6.6005   -1.2584    1.8249 C   0  0  0  0  0  0  0  0  0  0  0  0
    4.0107   -2.7014    1.1830 C   0  0  0  0  0  0  0  0  0  0  0  0
    4.9352   -2.0952   -0.9651 C   0  0  0  0  0  0  0  0  0  0  0  0
    4.0039    2.9681    1.1898 C   0  0  0  0  0  0  0  0  0  0  0  0
    1.6941    3.2772    1.8267 C   0  0  0  0  0  0  0  0  0  0  0  0
    4.9615   -2.8908    0.1802 C   0  0  0  0  0  0  0  0  0  0  0  0
    3.0216    3.7046    1.8519 C   0  0  0  0  0  0  0  0  0  0  0  0
  1 29  1  0
  2  9  2  0
  3  5  1  0
  3  6  1  0
  3  9  1  0
  4  7  1  0
  4  8  1  0
  4 12  1  0
  5  7  1  0
  6  8  1  0
  9 10  1  0
 10 11  1  0
 11 13  1  0
 11 14  1  0
 12 15  2  0
 12 16  1  0
 13 18  2  0
 13 19  1  0
 14 20  2  0
 14 21  1  0
 15 17  1  0
 15 22  1  0
 16 23  2  0
 17 24  2  0
 18 25  1  0
 19 26  2  0
 20 27  1  0
 21 28  2  0
 23 24  1  0
 25 29  2  0
 26 29  1  0
 27 30  2  0
 28 30  1  0
M  END
>  <PUBCHEM_COMPOUND_CID>  (1) 
32139

>  <PUBCHEM_CONFORMER_RMSD>  (1) 
0.8

>  <PUBCHEM_CONFORMER_DIVERSEORDER>  (1) 
4
116
37
118
90
66
147
149
143
113
29
83
33
142
139
81
109
94
41
124
151
104
115
141
102
75
111
45
148
135
43
35
132
56
65
52
54
112
140
30
130
144
68
110
123
145
42
69
93
21
85
134
20
22
96
127
156
31
44
51
48
82
60
159
105
46
137
38
129
150
23
136
34
88
87
125
108
63
91
126
84
153
28
19
67
70
120
154
128
100
17
76
39
27
18
122
80
138
50
62
24
1
53
106
99
74
146
117
73
89
107
40
119
158
64
98
121
97
55
6
157
72
95
61
71
14
15
8
152
131
114
47
103
160
10
11
26
101
12
59
86
155
3
49
92
7
161
133
32
79
78
5
2
16
77
9
36
58
25
57
13

>  <PUBCHEM_MMFF94_PARTIAL_CHARGES>  (1) 
43
1 -0.18
10 0.06
11 0.29
12 0.1
13 -0.14
14 -0.14
15 -0.14
16 -0.15
17 -0.15
18 -0.15
19 -0.15
2 -0.57
20 -0.15
21 -0.15
22 0.14
23 -0.15
24 -0.15
25 -0.15
26 -0.15
27 -0.15
28 -0.15
29 0.18
3 -0.66
30 -0.15
4 -0.84
42 0.15
43 0.15
44 0.15
45 0.15
46 0.15
47 0.15
5 0.3
51 0.15
52 0.15
53 0.15
54 0.15
55 0.15
56 0.15
57 0.15
6 0.3
7 0.37
8 0.37
9 0.57

>  <PUBCHEM_EFFECTIVE_ROTOR_COUNT>  (1) 
7.2

>  <PUBCHEM_PHARMACOPHORE_FEATURES>  (1) 
6
1 2 acceptor
1 4 cation
6 12 15 16 17 23 24 rings
6 13 18 19 25 26 29 rings
6 14 20 21 27 28 30 rings
6 3 4 5 6 7 8 rings

>  <PUBCHEM_HEAVY_ATOM_COUNT>  (1) 
30

>  <PUBCHEM_ATOM_DEF_STEREO_COUNT>  (1) 
0

>  <PUBCHEM_ATOM_UDEF_STEREO_COUNT>  (1) 
1

>  <PUBCHEM_BOND_DEF_STEREO_COUNT>  (1) 
0

>  <PUBCHEM_BOND_UDEF_STEREO_COUNT>  (1) 
0

>  <PUBCHEM_ISOTOPIC_ATOM_COUNT>  (1) 
0

>  <PUBCHEM_COMPONENT_COUNT>  (1) 
1

>  <PUBCHEM_CACTVS_TAUTO_COUNT>  (1) 
1

>  <PUBCHEM_CONFORMER_ID>  (1) 
00007D8B00000004

>  <PUBCHEM_MMFF94_ENERGY>  (1) 
105.7777

>  <PUBCHEM_FEATURE_SELFOVERLAP>  (1) 
30.448

>  <PUBCHEM_SHAPE_FINGERPRINT>  (1) 
117089 54 17900827041800265826
12128747 34 18263916649416100909
12342043 65 18260547792552810703
12422481 6 16414924024008831289
12549972 3 18118376506681016261
12616971 3 17775289374517527031
12633257 1 17917996083370530455
131258 43 18042143006746599884
13533116 47 18411701019409785851
13540713 4 18189033357338625956
13673619 4 18262242123234683406
13782708 43 18333731286577156907
14341114 328 16916797318362956533
14739800 52 16270784818496799856
14950920 106 18201728366427969715
15131766 46 17771893103269533209
15238133 3 15913334597466042858
15444296 121 17913215256510717288
15475509 35 18334862718349025506
15475509 84 18201160949155166240
19304144 158 9799397885540190051
19319366 153 17914048956886490208
1979834 28 18042968864048371981
21033648 29 18187918526342810597
21344244 78 17489299772428584306
21796203 349 18272653412013321710
21927370 108 18128255581067105130
21987483 16 18056476391078481723
22182313 1 17969479615629002133
23559900 14 17967814955509676583
239999 70 16298956492428257900
249057 25 16988554724251671919
3552219 110 18266476330292582404
437795 51 18411141372797950652
437815 12 18339078164468023190
5104073 3 18412266112705232705
563151 40 17908992346371275996
563151 74 18059007427393435714
57816373 69 18342182172120199839
58260988 521 18188195607752867024
6086070 43 18199734865926522509
613672 6 17531798177928754973
6703917 75 17475231783688332216
6823239 73 17385722504147624425
7288768 16 16836257193427261064
86090 222 17894633685973350987
8863177 126 18334297573641117555
960060 61 13117995634933376413

>  <PUBCHEM_SHAPE_MULTIPOLES>  (1) 
603.42
15.63
4.17
2.26
18.01
1.09
0.01
-14.28
-5.71
-9.93
-2.13
1.86
0.76
2.11

>  <PUBCHEM_SHAPE_SELFOVERLAP>  (1) 
1292.05

>  <PUBCHEM_SHAPE_VOLUME>  (1) 
333.4

>  <PUBCHEM_COORDINATE_TYPE>  (1) 
2
5
10

$$$$
