32141
     RDKit          3D

 20 22  0  0  0  0  0  0  0  0999 V2000
    0.8420   -2.1543   -0.3630 O   0  0  0  0  0  0  0  0  0  0  0  0
    2.5481    2.8616    0.3282 O   0  0  0  0  0  0  0  0  0  0  0  0
   -1.0282   -0.1770   -0.2389 N   0  0  0  0  0  0  0  0  0  0  0  0
   -3.4575    0.1519   -0.3913 C   0  0  0  0  0  0  0  0  0  0  0  0
   -3.7301   -0.8348    0.7521 C   0  0  0  0  0  0  0  0  0  0  0  0
   -4.5663    1.2095   -0.4765 C   0  0  0  0  0  0  0  0  0  0  0  0
   -5.1128   -1.4712    0.6298 C   0  0  0  0  0  0  0  0  0  0  0  0
   -5.9477    0.5697   -0.5965 C   0  0  0  0  0  0  0  0  0  0  0  0
   -6.2113   -0.4169    0.5367 C   0  0  0  0  0  0  0  0  0  0  0  0
   -2.0921    0.8146   -0.2180 C   0  0  0  0  0  0  0  0  0  0  0  0
    0.2807    0.1379   -0.1248 C   0  0  0  0  0  0  0  0  0  0  0  0
    1.2371   -1.0039   -0.2046 C   0  0  0  0  0  0  0  0  0  0  0  0
    0.7428    1.3822    0.0501 C   0  0  0  0  0  0  0  0  0  0  0  0
    2.6815   -0.7178   -0.0866 C   0  0  0  0  0  0  0  0  0  0  0  0
    3.1364    0.5885    0.0956 C   0  0  0  0  0  0  0  0  0  0  0  0
    2.1789    1.7042    0.1715 C   0  0  0  0  0  0  0  0  0  0  0  0
    3.6018   -1.7707   -0.1584 C   0  0  0  0  0  0  0  0  0  0  0  0
    4.5077    0.8455    0.2071 C   0  0  0  0  0  0  0  0  0  0  0  0
    4.9686   -1.5122   -0.0475 C   0  0  0  0  0  0  0  0  0  0  0  0
    5.4206   -0.2068    0.1352 C   0  0  0  0  0  0  0  0  0  0  0  0
  1 12  2  0
  2 16  2  0
  3 10  1  0
  3 11  1  0
  4  5  1  0
  4  6  1  0
  4 10  1  0
  5  7  1  0
  6  8  1  0
  7  9  1  0
  8  9  1  0
 11 12  1  0
 11 13  2  0
 12 14  1  0
 13 16  1  0
 14 15  2  0
 14 17  1  0
 15 16  1  0
 15 18  1  0
 17 19  2  0
 18 20  2  0
 19 20  1  0
M  END
>  <PUBCHEM_COMPOUND_CID>  (1) 
32141

>  <PUBCHEM_CONFORMER_RMSD>  (1) 
0.6

>  <PUBCHEM_CONFORMER_DIVERSEORDER>  (1) 
1
19
18
14
31
32
34
12
15
21
33
28
35
16
24
13
25
20
3
26
22
4
7
2
6
17
23
27
9
29
10
8
11
5
30

>  <PUBCHEM_MMFF94_PARTIAL_CHARGES>  (1) 
20
1 -0.57
10 0.37
11 0.11
12 0.47
13 -0.14
14 0.09
15 0.09
16 0.47
17 -0.15
18 -0.15
19 -0.15
2 -0.57
20 -0.15
3 -0.87
34 0.4
35 0.15
36 0.15
37 0.15
38 0.15
39 0.15

>  <PUBCHEM_EFFECTIVE_ROTOR_COUNT>  (1) 
4.2

>  <PUBCHEM_PHARMACOPHORE_FEATURES>  (1) 
7
1 1 acceptor
1 2 acceptor
1 3 cation
1 3 donor
6 11 12 13 14 15 16 rings
6 14 15 17 18 19 20 rings
6 4 5 6 7 8 9 rings

>  <PUBCHEM_HEAVY_ATOM_COUNT>  (1) 
20

>  <PUBCHEM_ATOM_DEF_STEREO_COUNT>  (1) 
0

>  <PUBCHEM_ATOM_UDEF_STEREO_COUNT>  (1) 
0

>  <PUBCHEM_BOND_DEF_STEREO_COUNT>  (1) 
0

>  <PUBCHEM_BOND_UDEF_STEREO_COUNT>  (1) 
0

>  <PUBCHEM_ISOTOPIC_ATOM_COUNT>  (1) 
0

>  <PUBCHEM_COMPONENT_COUNT>  (1) 
1

>  <PUBCHEM_CACTVS_TAUTO_COUNT>  (1) 
3

>  <PUBCHEM_CONFORMER_ID>  (1) 
00007D8D00000001

>  <PUBCHEM_MMFF94_ENERGY>  (1) 
43.0008

>  <PUBCHEM_FEATURE_SELFOVERLAP>  (1) 
35.542

>  <PUBCHEM_SHAPE_FINGERPRINT>  (1) 
10 15 18336537318240901320
10411042 1 18124596376231469598
10688039 33 18187645765174807436
11045977 3 18333733533045175115
11287383 113 18333169474836944185
11471102 20 18412542098417988948
12107183 9 17621324537588099809
12236239 1 17418373597383208173
12403259 415 18187075170221400997
12596602 18 16702016526180408155
12616971 3 17917990607561424181
13402501 40 18334014986552310971
13533116 47 16558754469213195630
13862211 1 18340202991081298294
14170010 4 18412260644673716472
1420 363 18335424556222109799
14341114 176 18410298012349697521
14386348 63 18187086148347427483
15196674 1 18409729568832359311
15475509 35 17168405101076829216
15788980 27 18412542119956031623
15961568 22 17096089219837033844
17844677 252 18410017632885494677
18785283 64 18190458445136857748
200 152 18131067121971064065
20028762 73 18202560709025150967
20645477 70 18341331106558113774
21065198 57 18408604781918164761
21065201 7 17531241773431665489
21267235 1 18341616971909240134
21279426 13 18191585255006476959
21623969 137 18342744013512719847
21682296 61 18058176024767832326
21709351 56 18409160030847583845
221490 88 18408608092757681889
23402539 116 16877660154316316119
23557571 272 17386001741815756453
23558518 356 17829040258481880082
23559900 14 18335133211737827993
239999 70 18408606946502943926
26918003 58 18411138035202030353
3004659 81 18113338583716030858
335352 9 18412824699282663038
350125 39 18410294722093947773
351380 180 18408323302377585083
3545911 37 18334294262996259597
4015057 19 18339915043889390561
4073 2 18041002873128506395
4214541 1 18408886209777108549
42630746 31 18272370871530826142
4340502 62 17240196639028407978
465052 167 18412266121126219206
5104073 3 18269833134090205168
5283173 99 18187922816793937557
542803 24 13767926806461191341
59755656 215 18114458977216434607
7495541 125 18260550034631149548
9709674 26 18188214333461844851
9995097 60 18410008823917814837
9999458 23 18187363268359084548

>  <PUBCHEM_SHAPE_MULTIPOLES>  (1) 
394.87
14.59
2.04
0.73
13.37
0.38
-0.02
-2.35
-0.81
-1.55
-0.1
0.43
-0.03
1.04

>  <PUBCHEM_SHAPE_SELFOVERLAP>  (1) 
847.642

>  <PUBCHEM_SHAPE_VOLUME>  (1) 
215.8

>  <PUBCHEM_COORDINATE_TYPE>  (1) 
2
5
10

$$$$
