32143
     RDKit          3D

 31 34  0  0  1  0  0  0  0  0999 V2000
   -4.7620   -5.3869    0.4414 Cl  0  0  0  0  0  0  0  0  0  0  0  0
   -1.4157    2.8793    1.3674 O   0  0  0  0  0  0  0  0  0  0  0  0
    3.2841    1.5120    0.3896 N   0  0  0  0  0  0  0  0  0  0  0  0
    0.4341    1.6877    0.6232 N   0  0  0  0  0  0  0  0  0  0  0  0
    2.4901    0.3212    0.7266 C   0  0  0  0  0  0  0  0  0  0  0  0
    2.6537    2.7221    0.9371 C   0  0  0  0  0  0  0  0  0  0  0  0
    1.0654    0.4404    0.1822 C   0  0  0  0  0  0  0  0  0  0  0  0
    1.2359    2.8882    0.3915 C   0  0  0  0  0  0  0  0  0  0  0  0
    4.6519    1.3750    0.8880 C   0  0  0  0  0  0  0  0  0  0  0  0
   -0.8676    1.8049    1.1086 C   0  0  0  0  0  0  0  0  0  0  0  0
   -1.6248    0.5189    1.3248 C   0  0  0  0  0  0  0  0  0  0  0  0
   -2.3108    0.0758    0.0198 C   0  0  0  0  0  0  0  0  0  0  0  0
    5.3263    0.1433    0.3448 C   0  0  0  0  0  0  0  0  0  0  0  0
   -2.9322   -1.3126    0.1270 C   0  0  0  0  0  0  0  0  0  0  0  0
   -3.3147    1.0962   -0.5055 C   0  0  0  0  0  0  0  0  0  0  0  0
    5.2129   -0.1589   -1.0048 C   0  0  0  0  0  0  0  0  0  0  0  0
    6.0517   -0.6720    1.2019 C   0  0  0  0  0  0  0  0  0  0  0  0
   -3.0136   -2.0932   -1.0062 C   0  0  0  0  0  0  0  0  0  0  0  0
   -3.3932   -1.7407    1.3536 C   0  0  0  0  0  0  0  0  0  0  0  0
   -4.6276    1.0091   -0.0941 C   0  0  0  0  0  0  0  0  0  0  0  0
   -2.8767    2.0722   -1.3749 C   0  0  0  0  0  0  0  0  0  0  0  0
    5.8378   -1.3001   -1.5076 C   0  0  0  0  0  0  0  0  0  0  0  0
    6.6768   -1.8131    0.6992 C   0  0  0  0  0  0  0  0  0  0  0  0
    6.5699   -2.1271   -0.6556 C   0  0  0  0  0  0  0  0  0  0  0  0
   -3.5833   -3.3626   -0.9081 C   0  0  0  0  0  0  0  0  0  0  0  0
   -3.9628   -3.0101    1.4516 C   0  0  0  0  0  0  0  0  0  0  0  0
   -5.5462    1.9423   -0.5749 C   0  0  0  0  0  0  0  0  0  0  0  0
   -3.7951    3.0055   -1.8557 C   0  0  0  0  0  0  0  0  0  0  0  0
   -4.0579   -3.8211    0.3208 C   0  0  0  0  0  0  0  0  0  0  0  0
   -5.1299    2.9404   -1.4557 C   0  0  0  0  0  0  0  0  0  0  0  0
    5.7237   -1.6363   -2.9560 C   0  0  0  0  0  0  0  0  0  0  0  0
  1 29  1  0
  2 10  2  0
  3  5  1  0
  3  6  1  0
  3  9  1  0
  4  7  1  0
  4  8  1  0
  4 10  1  0
  5  7  1  0
  6  8  1  0
  9 13  1  0
 10 11  1  0
 11 12  1  0
 12 14  1  0
 12 15  1  0
 13 16  2  0
 13 17  1  0
 14 18  2  0
 14 19  1  0
 15 20  2  0
 15 21  1  0
 16 22  1  0
 17 23  2  0
 18 25  1  0
 19 26  2  0
 20 27  1  0
 21 28  2  0
 22 24  2  0
 22 31  1  0
 23 24  1  0
 25 29  2  0
 26 29  1  0
 27 30  2  0
 28 30  1  0
M  END
>  <PUBCHEM_COMPOUND_CID>  (1) 
32143

>  <PUBCHEM_CONFORMER_RMSD>  (1) 
1

>  <PUBCHEM_CONFORMER_DIVERSEORDER>  (1) 
3
136
214
95
128
207
333
238
342
240
77
181
69
80
73
187
249
338
104
263
147
232
253
93
87
321
103
307
348
216
204
109
222
76
282
331
254
84
175
310
205
182
174
258
320
301
239
135
120
299
287
313
283
139
200
158
168
304
295
27
377
357
86
268
167
62
255
201
340
83
127
291
359
364
289
15
221
140
74
63
274
261
186
354
251
294
259
72
367
164
241
324
225
353
266
44
89
344
275
30
369
9
229
163
329
284
352
337
341
349
316
145
323
157
298
172
101
191
328
379
38
116
179
194
195
189
315
102
67
213
215
269
217
256
318
351
25
117
152
290
260
188
99
233
16
264
57
235
248
272
356
51
24
178
197
319
190
162
302
244
111
373
90
358
234
224
296
334
180
61
355
121
91
107
53
288
183
199
227
305
308
184
52
22
223
250
273
345
105
50
154
114
314
100
237
231
365
330
137
350
277
286
42
14
112
148
196
209
245
332
242
339
212
79
31
65
85
276
81
265
98
303
160
142
8
371
372
161
21
370
143
327
203
66
82
309
267
49
134
326
347
97
281
271
306
185
146
10
19
37
108
153
374
218
141
317
23
363
300
11
106
220
118
226
360
58
252
193
292
150
48
335
94
28
1
278
45
376
18
113
228
144
246
165
32
322
210
46
293
7
54
361
279
170
68
129
130
243
368
78
247
123
257
230
280
206
110
59
40
173
378
171
41
43
124
262
219
159
297
125
39
366
208
55
34
155
362
336
96
169
20
70
131
92
122
33
346
35
156
133
236
119
285
192
56
71
270
13
325
17
47
176
375
177
202
166
5
75
312
132
36
198
126
115
88
60
12
151
4
138
64
26
29
343
211
6
311
149
2

>  <PUBCHEM_MMFF94_PARTIAL_CHARGES>  (1) 
44
1 -0.18
10 0.57
11 0.06
12 0.29
13 -0.14
14 -0.14
15 -0.14
16 -0.15
17 -0.15
18 -0.15
19 -0.15
2 -0.57
20 -0.15
21 -0.15
22 -0.14
23 -0.15
24 -0.15
25 -0.15
26 -0.15
27 -0.15
28 -0.15
29 0.18
3 -0.81
30 -0.15
31 0.14
4 -0.66
45 0.15
46 0.15
47 0.15
48 0.15
49 0.15
5 0.27
50 0.15
51 0.15
52 0.15
53 0.15
54 0.15
55 0.15
56 0.15
57 0.15
6 0.27
7 0.3
8 0.3
9 0.41

>  <PUBCHEM_EFFECTIVE_ROTOR_COUNT>  (1) 
8.2

>  <PUBCHEM_PHARMACOPHORE_FEATURES>  (1) 
6
1 2 acceptor
1 3 cation
6 13 16 17 22 23 24 rings
6 14 18 19 25 26 29 rings
6 15 20 21 27 28 30 rings
6 3 4 5 6 7 8 rings

>  <PUBCHEM_HEAVY_ATOM_COUNT>  (1) 
31

>  <PUBCHEM_ATOM_DEF_STEREO_COUNT>  (1) 
0

>  <PUBCHEM_ATOM_UDEF_STEREO_COUNT>  (1) 
1

>  <PUBCHEM_BOND_DEF_STEREO_COUNT>  (1) 
0

>  <PUBCHEM_BOND_UDEF_STEREO_COUNT>  (1) 
0

>  <PUBCHEM_ISOTOPIC_ATOM_COUNT>  (1) 
0

>  <PUBCHEM_COMPONENT_COUNT>  (1) 
1

>  <PUBCHEM_CACTVS_TAUTO_COUNT>  (1) 
1

>  <PUBCHEM_CONFORMER_ID>  (1) 
00007D8F00000003

>  <PUBCHEM_MMFF94_ENERGY>  (1) 
91.3698

>  <PUBCHEM_FEATURE_SELFOVERLAP>  (1) 
30.448

>  <PUBCHEM_SHAPE_FINGERPRINT>  (1) 
10391435 84 18342729703604427266
11513181 2 18043255845305415596
11796584 16 18410286991827658712
11991303 11 18041556945553143533
12422481 6 17060074648134362054
12623949 98 17981335799845845070
12643181 29 18338511942197558026
12977781 61 16411212232004859263
13540713 4 18268978946483560009
1361 87 18128835079176038454
13690498 29 18261118503575530055
13782708 43 18341896358967530783
14068700 686 17903913710146403664
14347332 77 18336547238808304538
14444916 359 18337116645025752825
15001296 14 18194678400649828330
15131766 46 14490482992788525917
15183329 4 18263923237785299152
15230672 131 18116987793620105858
15361156 5 18042696168121457899
15392192 29 17844269341004367496
15510800 12 17845660244735788062
15530120 55 17677921044230597614
15927050 60 18335691699389287387
17492 89 18266738171987527728
1813 80 17760940936832524775
19301676 85 18051692144316548494
19311894 1 18411136926800151873
19958102 18 18266733576267591220
21307412 95 18270970024976373116
21703447 108 18048299334932066169
22393880 68 18334566950026751864
23559900 14 18271514356215625936
23572383 38 18202560653732861766
25122255 55 18272655640821175738
32027 91 18272647905891011592
3383291 50 18202278074918167223
3610482 184 17241059733706595798
3729539 64 18122339078210181925
4015057 19 17703209789735971241
4058900 60 17975130934172493973
437795 96 18272653407159400214
44062 13 18408038524301998249
484985 159 18271255954066291531
50009960 94 18191840463008308330
508706 21 18410287034366180407
513202 73 18263365953215449475
563151 40 18040436551868325155
58902169 19 17168152183448536318
613672 6 17988923328347954892
6698420 124 18271526391199429105
70251023 43 17905319986002606259

>  <PUBCHEM_SHAPE_MULTIPOLES>  (1) 
624
17.56
5.48
1.79
25.22
4.94
0.91
9.78
4.56
-10.51
0.08
1.22
0.04
4.16

>  <PUBCHEM_SHAPE_SELFOVERLAP>  (1) 
1333.557

>  <PUBCHEM_SHAPE_VOLUME>  (1) 
346

>  <PUBCHEM_COORDINATE_TYPE>  (1) 
2
5
10

$$$$
