32146
     RDKit          3D

 22 23  0  0  1  0  0  0  0  0999 V2000
   -6.1436    2.2469   -0.2928 Cl  0  0  0  0  0  0  0  0  0  0  0  0
    4.1314    0.7876    0.0432 N   0  0  0  0  0  0  0  0  0  0  0  0
    0.4002    0.8587   -0.0505 N   0  0  0  0  0  0  0  0  0  0  0  0
   -0.6318    0.0236    0.5469 C   0  0  0  0  0  0  0  0  0  0  0  0
    2.7986    1.2581   -0.3327 C   0  0  0  0  0  0  0  0  0  0  0  0
    1.7300    0.3787    0.3099 C   0  0  0  0  0  0  0  0  0  0  0  0
   -2.0288    0.5884    0.3349 C   0  0  0  0  0  0  0  0  0  0  0  0
   -0.5339   -1.4278    0.1009 C   0  0  0  0  0  0  0  0  0  0  0  0
    5.1613    1.6124   -0.5875 C   0  0  0  0  0  0  0  0  0  0  0  0
    4.2864    0.7998    1.4974 C   0  0  0  0  0  0  0  0  0  0  0  0
    5.0155    1.6114   -2.0998 C   0  0  0  0  0  0  0  0  0  0  0  0
    5.6439    0.2561    1.9093 C   0  0  0  0  0  0  0  0  0  0  0  0
   -3.0011    0.3367    1.2813 C   0  0  0  0  0  0  0  0  0  0  0  0
   -2.2819    1.3343   -0.7983 C   0  0  0  0  0  0  0  0  0  0  0  0
   -0.9551   -2.4206    0.9622 C   0  0  0  0  0  0  0  0  0  0  0  0
   -0.0265   -1.7085   -1.1513 C   0  0  0  0  0  0  0  0  0  0  0  0
   -4.2821    0.8534    1.0860 C   0  0  0  0  0  0  0  0  0  0  0  0
   -3.5627    1.8510   -0.9935 C   0  0  0  0  0  0  0  0  0  0  0  0
   -0.8649   -3.7513    0.5535 C   0  0  0  0  0  0  0  0  0  0  0  0
    0.0636   -3.0390   -1.5602 C   0  0  0  0  0  0  0  0  0  0  0  0
   -4.5628    1.6106   -0.0514 C   0  0  0  0  0  0  0  0  0  0  0  0
   -0.3556   -4.0604   -0.7075 C   0  0  0  0  0  0  0  0  0  0  0  0
  1 21  1  0
  2  5  1  0
  2  9  1  0
  2 10  1  0
  3  4  1  0
  3  6  1  0
  4  7  1  0
  4  8  1  0
  5  6  1  0
  7 13  2  0
  7 14  1  0
  8 15  2  0
  8 16  1  0
  9 11  1  0
 10 12  1  0
 13 17  1  0
 14 18  2  0
 15 19  1  0
 16 20  2  0
 17 21  2  0
 18 21  1  0
 19 22  2  0
 20 22  1  0
M  END
>  <PUBCHEM_COMPOUND_CID>  (1) 
32146

>  <PUBCHEM_CONFORMER_RMSD>  (1) 
0.8

>  <PUBCHEM_CONFORMER_DIVERSEORDER>  (1) 
2
52
42
22
40
64
28
56
16
58
53
47
23
21
49
24
50
43
61
57
10
29
51
44
25
31
54
14
20
37
26
46
36
41
55
48
32
35
4
11
34
5
15
30
33
45
63
13
19
38
39
3
59
7
62
12
9
60
8
18
17
27
6
1

>  <PUBCHEM_MMFF94_PARTIAL_CHARGES>  (1) 
30
1 -0.18
10 0.27
13 -0.15
14 -0.15
15 -0.15
16 -0.15
17 -0.15
18 -0.15
19 -0.15
2 -0.81
20 -0.15
21 0.18
22 -0.15
28 0.36
3 -0.9
39 0.15
4 0.56
40 0.15
41 0.15
42 0.15
43 0.15
44 0.15
45 0.15
46 0.15
47 0.15
5 0.27
6 0.27
7 -0.14
8 -0.14
9 0.27

>  <PUBCHEM_EFFECTIVE_ROTOR_COUNT>  (1) 
8

>  <PUBCHEM_PHARMACOPHORE_FEATURES>  (1) 
5
1 2 cation
1 3 cation
1 3 donor
6 7 13 14 17 18 21 rings
6 8 15 16 19 20 22 rings

>  <PUBCHEM_HEAVY_ATOM_COUNT>  (1) 
22

>  <PUBCHEM_ATOM_DEF_STEREO_COUNT>  (1) 
0

>  <PUBCHEM_ATOM_UDEF_STEREO_COUNT>  (1) 
1

>  <PUBCHEM_BOND_DEF_STEREO_COUNT>  (1) 
0

>  <PUBCHEM_BOND_UDEF_STEREO_COUNT>  (1) 
0

>  <PUBCHEM_ISOTOPIC_ATOM_COUNT>  (1) 
0

>  <PUBCHEM_COMPONENT_COUNT>  (1) 
1

>  <PUBCHEM_CACTVS_TAUTO_COUNT>  (1) 
1

>  <PUBCHEM_CONFORMER_ID>  (1) 
00007D9200000002

>  <PUBCHEM_MMFF94_ENERGY>  (1) 
54.0287

>  <PUBCHEM_FEATURE_SELFOVERLAP>  (1) 
25.371

>  <PUBCHEM_SHAPE_FINGERPRINT>  (1) 
105312 117 18410864282186355540
10764073 3 16013222845153179603
107951 10 18115042882458172722
10906281 52 18042418958538661965
121448 382 18129647703851532935
12597179 24 18342745104392228191
12616971 3 17458616870491875744
12643181 29 18342470236230201558
12714826 92 17984430904056703266
12788726 201 18047470307655115618
13004483 165 17693371556995207183
13052359 8 18340763848900297891
13257819 37 18337964475195083383
133893 2 17981058409388184603
13583140 156 16443888497558260480
13911987 19 18410863165690673757
13968360 50 18338502042239990023
15163728 17 18263940846955975709
15403338 16 16588295055978795521
15842332 3 17823688867054665072
16752209 62 18198620132670970174
17539 30 17983007049046389047
17913733 40 18271253733642059139
17980427 23 17168153360111157509
1813 80 11386372495604895809
20197701 30 18342450422401404315
204376 136 18410857642314491585
20554085 129 17987495066579486681
21033648 29 18412536626435410816
21054139 6 18200294607781609981
21344244 78 12973902381466771429
21781055 127 18200041621218141120
22182313 1 18127437672273548095
22224240 67 18341896307939399289
23419403 2 17197190332260813159
23558518 356 17901941164974139880
23559900 14 17534645724061060255
23598288 3 17972334068152816262
23728640 28 18339916138473354018
3298306 158 18412830153258327358
3411729 13 18191584151722179729
3729539 64 18053125946787437246
3759504 43 18411139172883106087
4371632 12 16486971843271191290
5385378 56 18268713801346554889
559249 180 18410568501312001962
6669772 16 18270966747906439510
81228 2 17835221721347966179
81539 233 18338516318515895135
9862522 239 18410575127855852051
9981440 41 18337107857179975841

>  <PUBCHEM_SHAPE_MULTIPOLES>  (1) 
444.66
11.7
4.02
1.6
5.71
6.1
0.08
-14.06
-1.1
-1.82
1.29
1.78
-0.03
-0.14

>  <PUBCHEM_SHAPE_SELFOVERLAP>  (1) 
912.238

>  <PUBCHEM_SHAPE_VOLUME>  (1) 
257.7

>  <PUBCHEM_COORDINATE_TYPE>  (1) 
2
5
10

$$$$
