32151
     RDKit          3D

 17 18  0  0  0  0  0  0  0  0999 V2000
   -2.6167   -1.3215    0.1667 O   0  0  0  0  0  0  0  0  0  0  0  0
   -3.2706    1.3122   -0.2315 O   0  0  0  0  0  0  0  0  0  0  0  0
    3.1409    0.7501   -0.0763 N   0  0  0  0  0  0  0  0  0  0  0  0
    0.7427    0.1956   -0.0207 C   0  0  0  0  0  0  0  0  0  0  0  0
   -0.2676   -0.7864    0.1138 C   0  0  0  0  0  0  0  0  0  0  0  0
    2.0907   -0.1917    0.0518 C   0  0  0  0  0  0  0  0  0  0  0  0
   -1.6156   -0.3992    0.0414 C   0  0  0  0  0  0  0  0  0  0  0  0
    0.3752    1.5357   -0.2235 C   0  0  0  0  0  0  0  0  0  0  0  0
    0.0999   -2.1266    0.3167 C   0  0  0  0  0  0  0  0  0  0  0  0
    2.4376   -1.5278    0.2539 C   0  0  0  0  0  0  0  0  0  0  0  0
   -1.9626    0.9370   -0.1607 C   0  0  0  0  0  0  0  0  0  0  0  0
    1.4441   -2.4934    0.3861 C   0  0  0  0  0  0  0  0  0  0  0  0
   -0.9690    1.9025   -0.2928 C   0  0  0  0  0  0  0  0  0  0  0  0
    3.6944    1.0507   -1.3781 C   0  0  0  0  0  0  0  0  0  0  0  0
    3.6573    1.4278    1.0926 C   0  0  0  0  0  0  0  0  0  0  0  0
   -3.0738   -1.9417   -1.0309 C   0  0  0  0  0  0  0  0  0  0  0  0
   -3.9070    1.6766    0.9915 C   0  0  0  0  0  0  0  0  0  0  0  0
  1  7  1  0
  1 16  1  0
  2 11  1  0
  2 17  1  0
  3  6  1  0
  3 14  1  0
  3 15  1  0
  4  5  1  0
  4  6  2  0
  4  8  1  0
  5  7  1  0
  5  9  2  0
  6 10  1  0
  7 11  2  0
  8 13  2  0
  9 12  1  0
 10 12  2  0
 11 13  1  0
M  END
>  <PUBCHEM_COMPOUND_CID>  (1) 
32151

>  <PUBCHEM_CONFORMER_RMSD>  (1) 
0.6

>  <PUBCHEM_CONFORMER_DIVERSEORDER>  (1) 
2
1

>  <PUBCHEM_MMFF94_PARTIAL_CHARGES>  (1) 
20
1 -0.36
10 -0.15
11 0.08
12 -0.15
13 -0.15
14 0.37
15 0.37
16 0.28
17 0.28
18 0.15
19 0.15
2 -0.36
20 0.15
21 0.15
22 0.15
3 -0.84
6 0.1
7 0.08
8 -0.15
9 -0.15

>  <PUBCHEM_EFFECTIVE_ROTOR_COUNT>  (1) 
3

>  <PUBCHEM_PHARMACOPHORE_FEATURES>  (1) 
5
1 1 acceptor
1 2 acceptor
1 3 cation
6 4 5 6 9 10 12 rings
6 4 5 7 8 11 13 rings

>  <PUBCHEM_HEAVY_ATOM_COUNT>  (1) 
17

>  <PUBCHEM_ATOM_DEF_STEREO_COUNT>  (1) 
0

>  <PUBCHEM_ATOM_UDEF_STEREO_COUNT>  (1) 
0

>  <PUBCHEM_BOND_DEF_STEREO_COUNT>  (1) 
0

>  <PUBCHEM_BOND_UDEF_STEREO_COUNT>  (1) 
0

>  <PUBCHEM_ISOTOPIC_ATOM_COUNT>  (1) 
0

>  <PUBCHEM_COMPONENT_COUNT>  (1) 
1

>  <PUBCHEM_CACTVS_TAUTO_COUNT>  (1) 
1

>  <PUBCHEM_CONFORMER_ID>  (1) 
00007D9700000002

>  <PUBCHEM_MMFF94_ENERGY>  (1) 
95.2747

>  <PUBCHEM_FEATURE_SELFOVERLAP>  (1) 
25.403

>  <PUBCHEM_SHAPE_FINGERPRINT>  (1) 
10411042 1 17256531249995998682
10967382 1 18337107848041193352
10980938 120 18335985255412169041
11132069 177 18334850610867697544
11206711 2 18336825406812788647
11543360 7 16056586690405125581
12382932 28 18410290289819209945
12390115 104 18270976759564909480
12403260 363 18196073650982369464
13140716 1 18337387132547939595
13380535 21 18410863122529250411
13897977 150 18410005507591139025
14178342 30 18411408531704535321
14614273 12 18114727292212663343
14787075 74 17627500872010701888
14790565 3 18118988002966301765
15536298 74 18341330003067899598
15775835 57 18411987931398394296
16945 1 18192434288552659218
18186145 218 18410575054920249908
20510252 161 18199470041947239912
20525323 117 18409722989116782035
20671657 1 18197218048880832722
20739085 24 17833298340604439185
21501502 16 18410005511923192019
2334 1 18408602573730254018
23388829 49 18266732665939726391
23402539 116 18124579023851106158
23419403 2 15382928981420133602
23463225 33 18261388893405011170
23557571 272 18059302062033857260
23559900 14 18342747334498217076
25147074 1 18409440362899120363
2748010 2 18408325462503613198
34934 24 18410566276117905429
350125 39 18048040675111749004
43471831 8 18334569166182754450
44154327 71 18260842466138348580
45790113 53 17832141624037468585
458136 41 18263662692088600856
5104073 3 18409728447898766954
53812653 166 18341609326107941104
58807428 26 18262504932267480906
7364860 26 18197213651298720498
7832392 63 18340769256284969121
81228 2 17976536436170218282

>  <PUBCHEM_SHAPE_MULTIPOLES>  (1) 
333.13
6.3
2.66
0.95
0.3
0.95
-0.09
-2.5
0.07
0.48
0.14
-0.28
-0.18
-0.8

>  <PUBCHEM_SHAPE_SELFOVERLAP>  (1) 
710.551

>  <PUBCHEM_SHAPE_VOLUME>  (1) 
188

>  <PUBCHEM_COORDINATE_TYPE>  (1) 
2
5
10

$$$$
