32154
     RDKit          3D

 16 16  0  0  0  0  0  0  0  0999 V2000
   -2.7425   -3.1908    0.3187 Cl  0  0  0  0  0  0  0  0  0  0  0  0
   -4.4890    1.8383   -0.5689 Cl  0  0  0  0  0  0  0  0  0  0  0  0
    0.7014    1.9712    0.6334 O   0  0  0  0  0  0  0  0  0  0  0  0
    1.5090   -0.0811   -0.0809 N   0  0  0  0  0  0  0  0  0  0  0  0
    2.9166    0.2536    0.0129 C   0  0  0  0  0  0  0  0  0  0  0  0
    3.2577    0.6238    1.4607 C   0  0  0  0  0  0  0  0  0  0  0  0
    3.2152    1.4383   -0.9114 C   0  0  0  0  0  0  0  0  0  0  0  0
    0.5125    0.8221    0.2429 C   0  0  0  0  0  0  0  0  0  0  0  0
   -0.8792    0.3171    0.1191 C   0  0  0  0  0  0  0  0  0  0  0  0
    3.7178   -0.9170   -0.3995 C   0  0  0  0  0  0  0  0  0  0  0  0
   -1.8941    1.2162   -0.1354 C   0  0  0  0  0  0  0  0  0  0  0  0
   -1.1125   -1.0350    0.2620 C   0  0  0  0  0  0  0  0  0  0  0  0
   -2.4190   -1.5094    0.1452 C   0  0  0  0  0  0  0  0  0  0  0  0
   -3.2006    0.7418   -0.2522 C   0  0  0  0  0  0  0  0  0  0  0  0
   -3.4631   -0.6209   -0.1118 C   0  0  0  0  0  0  0  0  0  0  0  0
    4.3698   -1.8682   -0.7348 C   0  0  0  0  0  0  0  0  0  0  0  0
  1 13  1  0
  2 14  1  0
  3  8  2  0
  4  5  1  0
  4  8  1  0
  5  6  1  0
  5  7  1  0
  5 10  1  0
  8  9  1  0
  9 11  2  0
  9 12  1  0
 10 16  3  0
 11 14  1  0
 12 13  2  0
 13 15  1  0
 14 15  2  0
M  END
>  <PUBCHEM_COMPOUND_CID>  (1) 
32154

>  <PUBCHEM_CONFORMER_RMSD>  (1) 
0.6

>  <PUBCHEM_CONFORMER_DIVERSEORDER>  (1) 
4
8
3
9
1
5
2
7
6

>  <PUBCHEM_MMFF94_PARTIAL_CHARGES>  (1) 
19
1 -0.18
10 -0.2
11 -0.15
12 -0.15
13 0.18
14 0.18
15 -0.15
16 -0.18
17 0.37
2 -0.18
24 0.15
25 0.15
26 0.15
27 0.18
3 -0.57
4 -0.73
5 0.5
8 0.54
9 0.09

>  <PUBCHEM_EFFECTIVE_ROTOR_COUNT>  (1) 
3

>  <PUBCHEM_PHARMACOPHORE_FEATURES>  (1) 
5
1 16 hydrophobe
1 3 acceptor
1 4 donor
3 5 6 7 hydrophobe
6 9 11 12 13 14 15 rings

>  <PUBCHEM_HEAVY_ATOM_COUNT>  (1) 
16

>  <PUBCHEM_ATOM_DEF_STEREO_COUNT>  (1) 
0

>  <PUBCHEM_ATOM_UDEF_STEREO_COUNT>  (1) 
0

>  <PUBCHEM_BOND_DEF_STEREO_COUNT>  (1) 
0

>  <PUBCHEM_BOND_UDEF_STEREO_COUNT>  (1) 
0

>  <PUBCHEM_ISOTOPIC_ATOM_COUNT>  (1) 
0

>  <PUBCHEM_COMPONENT_COUNT>  (1) 
1

>  <PUBCHEM_CACTVS_TAUTO_COUNT>  (1) 
2

>  <PUBCHEM_CONFORMER_ID>  (1) 
00007D9A00000004

>  <PUBCHEM_MMFF94_ENERGY>  (1) 
37.3731

>  <PUBCHEM_FEATURE_SELFOVERLAP>  (1) 
25.372

>  <PUBCHEM_SHAPE_FINGERPRINT>  (1) 
10608611 8 18340199808051706585
10616163 171 18338240465456793798
11132069 177 18409441488206678913
12346177 29 18341039792159429087
12500047 106 18409725153811759375
12553582 1 17762338415278764191
12555020 224 18339075965497398671
12932764 1 17560803302795072998
13296908 3 18342459270165740330
13544592 145 18341328890507709724
13571099 22 18342739594122968116
14115302 16 18336552633445373588
14866123 147 17336196957306347754
15042514 8 18263088859395479059
15099037 51 18337671902070176853
15196674 1 18411419513909394231
15375358 24 18202273714988194080
17804303 29 18410295813363345741
17834072 8 18336544898182717981
17834074 16 18409731772203680438
17870717 6 18269854033511921550
18186145 218 17458341948732957788
18522853 266 18335704978620421438
200 152 16916778548754694269
20279233 1 18131345336735274744
20281475 54 18340495576515651723
20374829 77 18339360760763280142
20645477 56 18335698356071481773
20645477 70 17561362864135336244
20871999 31 18261961833368032038
21521239 73 17987495071470312575
21618674 54 18336550533480555500
221490 88 18338244881015087066
22169311 21 18272082825069484202
22943178 12 18343014540538165112
23402539 116 18129654202248204813
23557571 272 18340194293329165952
23559900 14 18413387623234359928
2748010 2 18124303059465090105
2838139 119 16227702500505399869
3084891 72 18269270154240635153
474 4 16371860740822273076
4921388 177 17023198161551204827
495365 180 17559937888328195058
5104073 3 18412263951761235250
559249 180 18261387785256489338
58051976 100 18113338579009509575
633830 44 16950289515696201748
8809292 202 18411422799601697051
93112 12 18335706031077332428
9709674 26 18340483464676377855

>  <PUBCHEM_SHAPE_MULTIPOLES>  (1) 
322.16
8.82
2.59
0.91
2.6
1.68
-0.13
0.57
1.6
-1.89
0.06
0.71
-0.14
0.99

>  <PUBCHEM_SHAPE_SELFOVERLAP>  (1) 
651.244

>  <PUBCHEM_SHAPE_VOLUME>  (1) 
190.3

>  <PUBCHEM_COORDINATE_TYPE>  (1) 
2
5
10

$$$$
