32152
     RDKit          3D

 15 15  0  0  0  0  0  0  0  0999 V2000
   -0.5196    2.1597    0.6792 O   0  0  0  0  0  0  0  0  0  0  0  0
    1.2061   -1.3496    0.0021 N   0  0  0  0  0  0  0  0  0  0  0  0
    1.3878    0.9895    0.1947 N   0  0  0  0  0  0  0  0  0  0  0  0
    3.2543   -0.3515   -0.3021 N   0  0  0  0  0  0  0  0  0  0  0  0
   -2.2397   -0.0220    0.8335 C   0  0  0  0  0  0  0  0  0  0  0  0
   -3.0821    0.1625   -0.4252 C   0  0  0  0  0  0  0  0  0  0  0  0
   -0.7864   -0.1953    0.5047 C   0  0  0  0  0  0  0  0  0  0  0  0
   -4.5637    0.3059   -0.0759 C   0  0  0  0  0  0  0  0  0  0  0  0
   -0.1453   -1.3589    0.2655 C   0  0  0  0  0  0  0  0  0  0  0  0
    0.0339    1.0824    0.4694 C   0  0  0  0  0  0  0  0  0  0  0  0
    1.9232   -0.1809   -0.0245 C   0  0  0  0  0  0  0  0  0  0  0  0
   -5.4189    0.4532   -1.3245 C   0  0  0  0  0  0  0  0  0  0  0  0
   -0.7957   -2.7133    0.2383 C   0  0  0  0  0  0  0  0  0  0  0  0
    4.1663    0.7478   -0.3736 C   0  0  0  0  0  0  0  0  0  0  0  0
    5.5797    0.2706   -0.6616 C   0  0  0  0  0  0  0  0  0  0  0  0
  1 10  2  0
  2  9  1  0
  2 11  1  0
  3 10  1  0
  3 11  2  0
  4 11  1  0
  4 14  1  0
  5  6  1  0
  5  7  1  0
  6  8  1  0
  7  9  2  0
  7 10  1  0
  8 12  1  0
  9 13  1  0
 14 15  1  0
M  END
>  <PUBCHEM_COMPOUND_CID>  (1) 
32152

>  <PUBCHEM_CONFORMER_RMSD>  (1) 
0.6

>  <PUBCHEM_CONFORMER_DIVERSEORDER>  (1) 
2
25
46
8
51
27
50
38
32
45
1
33
22
21
43
48
37
31
40
5
49
9
7
42
6
47
30
44
14
35
39
26
16
11
18
17
36
34
28
3
23
10
24
29
41
15
4
19
12
20
13

>  <PUBCHEM_MMFF94_PARTIAL_CHARGES>  (1) 
13
1 -0.57
10 0.77
11 0.55
13 0.14
14 0.37
2 -0.55
22 0.4
29 0.4
3 -0.66
4 -0.82
5 0.14
7 -0.12
9 -0.04

>  <PUBCHEM_EFFECTIVE_ROTOR_COUNT>  (1) 
5

>  <PUBCHEM_PHARMACOPHORE_FEATURES>  (1) 
6
1 1 acceptor
1 12 hydrophobe
1 2 donor
1 3 donor
1 4 donor
6 2 3 7 9 10 11 rings

>  <PUBCHEM_HEAVY_ATOM_COUNT>  (1) 
15

>  <PUBCHEM_ATOM_DEF_STEREO_COUNT>  (1) 
0

>  <PUBCHEM_ATOM_UDEF_STEREO_COUNT>  (1) 
0

>  <PUBCHEM_BOND_DEF_STEREO_COUNT>  (1) 
0

>  <PUBCHEM_BOND_UDEF_STEREO_COUNT>  (1) 
0

>  <PUBCHEM_ISOTOPIC_ATOM_COUNT>  (1) 
0

>  <PUBCHEM_COMPONENT_COUNT>  (1) 
1

>  <PUBCHEM_CACTVS_TAUTO_COUNT>  (1) 
6

>  <PUBCHEM_CONFORMER_ID>  (1) 
00007D9800000002

>  <PUBCHEM_MMFF94_ENERGY>  (1) 
22.6562

>  <PUBCHEM_FEATURE_SELFOVERLAP>  (1) 
30.577

>  <PUBCHEM_SHAPE_FINGERPRINT>  (1) 
10014705 185 18261959673337079132
11401426 45 18413669123453249784
11471102 20 18410007711157112823
11680986 33 17984700283936127176
12670543 26 18340488867871668228
12969540 114 18335969935221568141
13380535 76 18341902887418125470
13533116 47 18341888538407227850
13760787 19 17313383452429094842
14115302 16 18335149738529097812
14576447 43 18060124458535865511
14911166 2 18413389851715634172
14943859 89 16877662370187157265
14993402 34 18273213105837667887
15048467 5 14851606587520080252
15501527 24 18343862234028255605
16945 1 18340783588743712970
187816 3 18342740714798105057
200 152 16917071053244292236
20344682 1 17894628141523485895
20645476 183 17749110036176095258
20871999 31 18337669848854685519
21029758 11 18202284718889929880
21637258 2 15123501480562842821
22713019 99 18060700597758683655
23402539 116 18272369776002877356
23402655 69 18339916022983613733
23559900 14 18270966851612972744
25 1 18335977593686430571
266924 87 18195528095140419525
2748010 2 18054514878727408346
293599 30 18334576841130582469
3060560 45 18339627993754882223
3250762 1 17764584717723467825
33382 64 15051740780534289383
34934 24 18336824282027378418
366044 4 18407761443029521195
3759504 43 17749112230957299955
4072396 5 18261938675062569402
465052 167 11167933701752236269
57003041 33 18408324362902256260
58779409 54 18269835487516414039

>  <PUBCHEM_SHAPE_MULTIPOLES>  (1) 
287.88
9.8
1.81
0.89
1.49
1
0.1
-3.15
4.71
-0.23
-0.29
-0.6
-0.15
0.18

>  <PUBCHEM_SHAPE_SELFOVERLAP>  (1) 
569.661

>  <PUBCHEM_SHAPE_VOLUME>  (1) 
171.6

>  <PUBCHEM_COORDINATE_TYPE>  (1) 
2
5
10

$$$$
