32158
     RDKit          3D

 17 17  0  0  0  0  0  0  0  0999 V2000
    1.3858    0.1824   -0.1571 O   0  0  0  0  0  0  0  0  0  0  0  0
   -4.4230   -0.6824    0.4971 O   0  0  0  0  0  0  0  0  0  0  0  0
   -2.0316   -2.0221    0.1380 O   0  0  0  0  0  0  0  0  0  0  0  0
    0.4413   -1.7697   -0.9292 O   0  0  0  0  0  0  0  0  0  0  0  0
    5.0675    0.1339    0.0115 N   0  0  0  0  0  0  0  0  0  0  0  0
    3.7107    0.6665    0.1298 C   0  0  0  0  0  0  0  0  0  0  0  0
    2.6872   -0.3705   -0.3042 C   0  0  0  0  0  0  0  0  0  0  0  0
    5.2144   -1.0751    0.8213 C   0  0  0  0  0  0  0  0  0  0  0  0
    6.0489    1.1408    0.4136 C   0  0  0  0  0  0  0  0  0  0  0  0
   -0.9498    0.0646   -0.3090 C   0  0  0  0  0  0  0  0  0  0  0  0
    0.3486   -0.6276   -0.5068 C   0  0  0  0  0  0  0  0  0  0  0  0
   -2.0788   -0.6653    0.0052 C   0  0  0  0  0  0  0  0  0  0  0  0
   -3.2884    0.0050    0.1872 C   0  0  0  0  0  0  0  0  0  0  0  0
   -0.9811    1.4387   -0.4485 C   0  0  0  0  0  0  0  0  0  0  0  0
   -3.3444    1.3922    0.0514 C   0  0  0  0  0  0  0  0  0  0  0  0
   -2.1907    2.1090   -0.2665 C   0  0  0  0  0  0  0  0  0  0  0  0
   -5.6166    0.0797    0.6662 C   0  0  0  0  0  0  0  0  0  0  0  0
  1  7  1  0
  1 11  1  0
  2 13  1  0
  2 17  1  0
  3 12  1  0
  4 11  2  0
  5  6  1  0
  5  8  1  0
  5  9  1  0
  6  7  1  0
 10 11  1  0
 10 12  2  0
 10 14  1  0
 12 13  1  0
 13 15  2  0
 14 16  2  0
 15 16  1  0
M  END
>  <PUBCHEM_COMPOUND_CID>  (1) 
32158

>  <PUBCHEM_CONFORMER_RMSD>  (1) 
0.8

>  <PUBCHEM_CONFORMER_DIVERSEORDER>  (1) 
1
41
56
35
59
50
3
64
53
12
38
46
61
51
32
2
21
54
22
33
8
17
14
40
34
47
20
30
26
29
27
18
57
28
42
13
9
49
37
4
19
48
10
58
52
45
60
39
15
36
62
24
23
55
6
7
43
11
44
5
16
25
31
63

>  <PUBCHEM_MMFF94_PARTIAL_CHARGES>  (1) 
21
1 -0.43
10 0.09
11 0.63
12 0.08
13 0.08
14 -0.15
15 -0.15
16 -0.15
17 0.28
2 -0.36
28 0.15
29 0.15
3 -0.53
30 0.15
31 0.45
4 -0.57
5 -0.81
6 0.27
7 0.28
8 0.27
9 0.27

>  <PUBCHEM_EFFECTIVE_ROTOR_COUNT>  (1) 
6

>  <PUBCHEM_PHARMACOPHORE_FEATURES>  (1) 
5
1 2 acceptor
1 3 donor
1 4 acceptor
1 5 cation
6 10 12 13 14 15 16 rings

>  <PUBCHEM_HEAVY_ATOM_COUNT>  (1) 
17

>  <PUBCHEM_ATOM_DEF_STEREO_COUNT>  (1) 
0

>  <PUBCHEM_ATOM_UDEF_STEREO_COUNT>  (1) 
0

>  <PUBCHEM_BOND_DEF_STEREO_COUNT>  (1) 
0

>  <PUBCHEM_BOND_UDEF_STEREO_COUNT>  (1) 
0

>  <PUBCHEM_ISOTOPIC_ATOM_COUNT>  (1) 
0

>  <PUBCHEM_COMPONENT_COUNT>  (1) 
1

>  <PUBCHEM_CACTVS_TAUTO_COUNT>  (1) 
4

>  <PUBCHEM_CONFORMER_ID>  (1) 
00007D9E00000001

>  <PUBCHEM_MMFF94_ENERGY>  (1) 
56.0182

>  <PUBCHEM_FEATURE_SELFOVERLAP>  (1) 
25.371

>  <PUBCHEM_SHAPE_FINGERPRINT>  (1) 
12107183 9 17612581229856527384
12236239 1 17458064863028129276
12251169 10 18334296478407996228
12390115 104 18058183742776564225
12507560 40 18338798914516032454
12596602 18 17675921002245726464
12916748 109 18341617001715470244
13140716 1 18194690482481631865
13167823 11 18114457877931511098
13214271 11 18411980239629023125
13288520 33 8070026666695285601
13533116 47 17967810514550779986
13862211 1 18336266834101344259
13897977 58 18408605872523587276
14341114 176 18335423465585201304
14420673 8 17974283219450719274
15042514 8 18336551641609082579
15048467 5 17489877007960170537
15219456 202 18200036127189623623
17959699 21 12103837973840905810
1813 80 16371011759274458406
18186145 218 16128360580842013802
18222031 100 14634873029181190702
200 152 14056719054165685565
20510252 161 18270685255791719497
20645477 56 18131067147598391156
20645477 70 16845303683580181470
20871999 31 10735581493125858965
21267235 1 18334021575132194386
21637258 2 15575005034920585611
21652331 79 18410290328901475552
22079108 93 16558744641889964223
22224240 67 18130790075200789019
2297311 6 18340217318949591396
23402539 116 18409725180003725431
23557571 272 18200611210668470348
23559900 14 17909266884511846046
26918003 58 17240768406069509833
2748010 2 18120950408288959151
351380 180 18408603673458036280
3545911 37 18341897385859996212
42 15 18186800249786458482
4214541 1 18336262362765900648
474229 33 18412545418427910239
5104073 3 18265338304569567315
77779 3 18408319978505265088

>  <PUBCHEM_SHAPE_MULTIPOLES>  (1) 
321.39
12.59
1.73
0.77
12.28
0.12
0.01
1.3
4.09
-0.57
-0.13
0.06
-0.09
0.18

>  <PUBCHEM_SHAPE_SELFOVERLAP>  (1) 
657.494

>  <PUBCHEM_SHAPE_VOLUME>  (1) 
187.3

>  <PUBCHEM_COORDINATE_TYPE>  (1) 
2
5
10

$$$$
