32160
     RDKit          3D

 19 19  0  0  0  0  0  0  0  0999 V2000
   -1.6108    0.3451    0.0156 O   0  0  0  0  0  0  0  0  0  0  0  0
    2.0021   -1.5063   -0.3524 O   0  0  0  0  0  0  0  0  0  0  0  0
    4.2868   -0.0163    0.0995 O   0  0  0  0  0  0  0  0  0  0  0  0
   -0.5639   -1.3162   -1.1858 O   0  0  0  0  0  0  0  0  0  0  0  0
   -5.2500   -0.1040    0.3896 N   0  0  0  0  0  0  0  0  0  0  0  0
   -3.9362    0.5187    0.5479 C   0  0  0  0  0  0  0  0  0  0  0  0
   -2.8645   -0.3043   -0.1488 C   0  0  0  0  0  0  0  0  0  0  0  0
    0.7045    0.5035   -0.3113 C   0  0  0  0  0  0  0  0  0  0  0  0
    1.9170   -0.1510   -0.2225 C   0  0  0  0  0  0  0  0  0  0  0  0
   -5.5801   -0.2476   -1.0278 C   0  0  0  0  0  0  0  0  0  0  0  0
   -6.2744    0.6821    1.0760 C   0  0  0  0  0  0  0  0  0  0  0  0
    3.0731    0.5953    0.0060 C   0  0  0  0  0  0  0  0  0  0  0  0
   -0.5387   -0.2707   -0.5552 C   0  0  0  0  0  0  0  0  0  0  0  0
    0.6010    1.8748   -0.1811 C   0  0  0  0  0  0  0  0  0  0  0  0
    2.9931    1.9814    0.1410 C   0  0  0  0  0  0  0  0  0  0  0  0
    1.7570    2.6211    0.0474 C   0  0  0  0  0  0  0  0  0  0  0  0
    1.8804   -2.2787    0.8394 C   0  0  0  0  0  0  0  0  0  0  0  0
    1.9858   -3.7474    0.4881 C   0  0  0  0  0  0  0  0  0  0  0  0
    5.4177    0.8205    0.3343 C   0  0  0  0  0  0  0  0  0  0  0  0
  1  7  1  0
  1 13  1  0
  2  9  1  0
  2 17  1  0
  3 12  1  0
  3 19  1  0
  4 13  2  0
  5  6  1  0
  5 10  1  0
  5 11  1  0
  6  7  1  0
  8  9  2  0
  8 13  1  0
  8 14  1  0
  9 12  1  0
 12 15  2  0
 14 16  2  0
 15 16  1  0
 17 18  1  0
M  END
>  <PUBCHEM_COMPOUND_CID>  (1) 
32160

>  <PUBCHEM_CONFORMER_RMSD>  (1) 
0.8

>  <PUBCHEM_CONFORMER_DIVERSEORDER>  (1) 
1
107
41
90
33
156
123
49
117
151
29
113
51
166
179
86
121
116
42
20
147
50
148
158
170
3
104
120
45
44
13
145
131
103
96
76
31
27
169
4
66
112
47
88
180
61
139
62
25
122
126
7
12
168
100
71
68
5
124
129
136
155
17
60
106
56
73
34
108
146
154
59
65
91
11
26
97
165
46
182
119
80
175
143
177
94
57
144
135
40
48
64
21
157
84
38
153
173
53
43
81
152
167
39
98
54
176
30
36
8
55
105
75
63
72
99
9
172
35
141
160
128
92
162
24
132
138
109
15
23
22
111
32
110
133
134
6
19
82
52
164
150
78
89
70
18
181
101
74
161
140
2
114
137
130
37
58
67
142
127
178
16
69
28
159
174
83
95
115
125
171
87
102
93
14
10
149
118
79
85
77
163

>  <PUBCHEM_MMFF94_PARTIAL_CHARGES>  (1) 
21
1 -0.43
10 0.27
11 0.27
12 0.08
13 0.63
14 -0.15
15 -0.15
16 -0.15
17 0.28
19 0.28
2 -0.36
3 -0.36
30 0.15
31 0.15
32 0.15
4 -0.57
5 -0.81
6 0.27
7 0.28
8 0.09
9 0.08

>  <PUBCHEM_EFFECTIVE_ROTOR_COUNT>  (1) 
8

>  <PUBCHEM_PHARMACOPHORE_FEATURES>  (1) 
5
1 2 acceptor
1 3 acceptor
1 4 acceptor
1 5 cation
6 8 9 12 14 15 16 rings

>  <PUBCHEM_HEAVY_ATOM_COUNT>  (1) 
19

>  <PUBCHEM_ATOM_DEF_STEREO_COUNT>  (1) 
0

>  <PUBCHEM_ATOM_UDEF_STEREO_COUNT>  (1) 
0

>  <PUBCHEM_BOND_DEF_STEREO_COUNT>  (1) 
0

>  <PUBCHEM_BOND_UDEF_STEREO_COUNT>  (1) 
0

>  <PUBCHEM_ISOTOPIC_ATOM_COUNT>  (1) 
0

>  <PUBCHEM_COMPONENT_COUNT>  (1) 
1

>  <PUBCHEM_CACTVS_TAUTO_COUNT>  (1) 
1

>  <PUBCHEM_CONFORMER_ID>  (1) 
00007DA000000001

>  <PUBCHEM_MMFF94_ENERGY>  (1) 
66.3561

>  <PUBCHEM_FEATURE_SELFOVERLAP>  (1) 
25.383

>  <PUBCHEM_SHAPE_FINGERPRINT>  (1) 
10354089 29 18341619221902313073
10411042 1 17977947887041772842
10912923 1 18060419106572749131
11089746 13 17846775239103500145
114674 6 18041001674532567851
11471102 20 18410291440812650252
12107183 9 17764877888365760769
12236239 1 17775003496592585605
12644460 14 18409446964432490699
13140716 1 18267298927291931248
13167823 11 18272368694415157647
13533116 47 18335707096888851915
13583140 156 18334856152150911119
13785724 45 17622737418778878023
14790565 3 18336836380961508876
14863182 85 18334583412826684598
15048467 5 16917347061191995488
19784866 9 18413389855957977696
20157964 124 18410007737628432853
20645477 70 18261667082937858439
21054139 6 18198893889544120511
21267235 1 18339647742162150046
21421861 104 18188486848598550282
22224240 67 18339917208209821792
23402539 116 17132113559138463541
23557571 272 16660635220489039805
23559900 14 18333731351328188081
2748010 2 17979905026518358092
335352 9 18339923814244296860
33824 294 18335420153706662162
3421961 26 18264488382055480898
4340502 62 18259990383328968243
465052 167 17458060469788295392
474 4 18337952419121818545
5104073 3 18267298922822735409
59755656 215 18334011670568306039
8272917 22 18410297990785352611
9999458 23 18336266833716157908

>  <PUBCHEM_SHAPE_MULTIPOLES>  (1) 
362.55
11.74
2.79
0.89
17.94
2.29
-0.02
-2.53
2.2
-3.74
0.51
0.76
0.15
-0.61

>  <PUBCHEM_SHAPE_SELFOVERLAP>  (1) 
734.057

>  <PUBCHEM_SHAPE_VOLUME>  (1) 
213.3

>  <PUBCHEM_COORDINATE_TYPE>  (1) 
2
5
10

$$$$
