32164
     RDKit          3D

 21 21  0  0  0  0  0  0  0  0999 V2000
    1.9461    0.6068   -0.6835 O   0  0  0  0  0  0  0  0  0  0  0  0
   -1.9058   -0.5891   -0.0133 O   0  0  0  0  0  0  0  0  0  0  0  0
    3.9940   -1.1113    0.0352 O   0  0  0  0  0  0  0  0  0  0  0  0
   -0.6614    0.6715   -1.4835 O   0  0  0  0  0  0  0  0  0  0  0  0
   -5.4246    0.4748    0.2866 N   0  0  0  0  0  0  0  0  0  0  0  0
    2.2734    2.9399   -0.2564 C   0  0  0  0  0  0  0  0  0  0  0  0
    1.9635    1.5796    0.3520 C   0  0  0  0  0  0  0  0  0  0  0  0
    2.3235    4.0342    0.8061 C   0  0  0  0  0  0  0  0  0  0  0  0
   -4.2277   -0.3165    0.5292 C   0  0  0  0  0  0  0  0  0  0  0  0
    1.6634   -0.6831   -0.3158 C   0  0  0  0  0  0  0  0  0  0  0  0
    0.3449   -1.1384   -0.3018 C   0  0  0  0  0  0  0  0  0  0  0  0
   -3.0624    0.2059   -0.2958 C   0  0  0  0  0  0  0  0  0  0  0  0
    2.7017   -1.5423    0.0444 C   0  0  0  0  0  0  0  0  0  0  0  0
    2.6758    5.3833    0.2002 C   0  0  0  0  0  0  0  0  0  0  0  0
   -0.7547   -0.2581   -0.6730 C   0  0  0  0  0  0  0  0  0  0  0  0
    0.0647   -2.4525    0.0726 C   0  0  0  0  0  0  0  0  0  0  0  0
    2.4214   -2.8565    0.4186 C   0  0  0  0  0  0  0  0  0  0  0  0
   -6.0634    0.0769   -0.9701 C   0  0  0  0  0  0  0  0  0  0  0  0
   -6.3691    0.3400    1.3984 C   0  0  0  0  0  0  0  0  0  0  0  0
    1.1028   -3.3115    0.4326 C   0  0  0  0  0  0  0  0  0  0  0  0
    4.9942   -2.0537    0.4171 C   0  0  0  0  0  0  0  0  0  0  0  0
  1  7  1  0
  1 10  1  0
  2 12  1  0
  2 15  1  0
  3 13  1  0
  3 21  1  0
  4 15  2  0
  5  9  1  0
  5 18  1  0
  5 19  1  0
  6  7  1  0
  6  8  1  0
  8 14  1  0
  9 12  1  0
 10 11  2  0
 10 13  1  0
 11 15  1  0
 11 16  1  0
 13 17  2  0
 16 20  2  0
 17 20  1  0
M  END
>  <PUBCHEM_COMPOUND_CID>  (1) 
32164

>  <PUBCHEM_CONFORMER_RMSD>  (1) 
1

>  <PUBCHEM_CONFORMER_DIVERSEORDER>  (1) 
2
76
39
22
65
67
69
25
17
87
61
9
13
70
30
4
86
79
23
75
45
73
48
60
24
44
19
32
7
85
66
3
72
8
58
51
64
20
14
34
78
71
40
81
55
33
77
53
50
37
12
41
38
80
15
28
36
49
47
84
10
82
63
26
6
1
57
56
62
52
68
42
59
46
5
29
43
27
18
35
74
83
11
21
54
31
16

>  <PUBCHEM_MMFF94_PARTIAL_CHARGES>  (1) 
21
1 -0.36
10 0.08
11 0.09
12 0.28
13 0.08
15 0.63
16 -0.15
17 -0.15
18 0.27
19 0.27
2 -0.43
20 -0.15
21 0.28
3 -0.36
35 0.15
36 0.15
4 -0.57
43 0.15
5 -0.81
7 0.28
9 0.27

>  <PUBCHEM_EFFECTIVE_ROTOR_COUNT>  (1) 
10

>  <PUBCHEM_PHARMACOPHORE_FEATURES>  (1) 
6
1 1 acceptor
1 14 hydrophobe
1 3 acceptor
1 4 acceptor
1 5 cation
6 10 11 13 16 17 20 rings

>  <PUBCHEM_HEAVY_ATOM_COUNT>  (1) 
21

>  <PUBCHEM_ATOM_DEF_STEREO_COUNT>  (1) 
0

>  <PUBCHEM_ATOM_UDEF_STEREO_COUNT>  (1) 
0

>  <PUBCHEM_BOND_DEF_STEREO_COUNT>  (1) 
0

>  <PUBCHEM_BOND_UDEF_STEREO_COUNT>  (1) 
0

>  <PUBCHEM_ISOTOPIC_ATOM_COUNT>  (1) 
0

>  <PUBCHEM_COMPONENT_COUNT>  (1) 
1

>  <PUBCHEM_CACTVS_TAUTO_COUNT>  (1) 
1

>  <PUBCHEM_CONFORMER_ID>  (1) 
00007DA400000002

>  <PUBCHEM_MMFF94_ENERGY>  (1) 
64.5082

>  <PUBCHEM_FEATURE_SELFOVERLAP>  (1) 
30.457

>  <PUBCHEM_SHAPE_FINGERPRINT>  (1) 
10165383 225 18116444811212360580
10937287 8 17907014328430521065
1100329 8 18411417340883224514
12035758 1 18335685153768853714
12173636 292 17402889420000877836
12236239 1 17775279422630247063
12390115 104 17762914550670943045
12616971 3 18131072628467167237
12617007 42 17702967858701834140
13140716 1 18263360446434269114
13583140 156 18263355911702607415
13590594 115 18340486642989353672
13878862 14 18336527371149709797
13899415 154 18337682918851435406
13955234 65 18408606967924747579
13965767 371 17899117584665141020
14251764 75 17979080706046179025
14849402 71 18410862096095916040
14955137 171 18411422769996232174
15230672 131 17902514028746958260
15927050 60 18051978314234910182
17980427 26 18197770197213259300
18785283 64 18336260245099247024
21041028 32 18340482245296179508
23558518 356 17762901365347561518
23559900 14 18409443679199208203
23845131 108 18118962727046438875
283562 15 17975136444800047146
31174 14 18335133159691474183
3178227 256 18335149669382580611
474 4 18341045336967489385
5104073 3 18335991960520971419
57124632 79 18267294503333614017
633830 44 18200879607596365213
67856867 119 18341609335261929561
9981440 41 17763171841013325464
9999458 23 18409450301490126543

>  <PUBCHEM_SHAPE_MULTIPOLES>  (1) 
403.71
11.21
5.29
0.97
23.24
7.9
0.01
0.89
-2.32
-10.3
-1.21
0.87
0.17
-0.13

>  <PUBCHEM_SHAPE_SELFOVERLAP>  (1) 
808.012

>  <PUBCHEM_SHAPE_VOLUME>  (1) 
240.5

>  <PUBCHEM_COORDINATE_TYPE>  (1) 
2
5
10

$$$$
