32172
     RDKit          3D

 24 25  0  0  0  0  0  0  0  0999 V2000
   -5.4000    0.5595    2.0070 O   0  0  0  0  0  0  0  0  0  0  0  0
   -1.1999   -0.5524   -1.3217 O   0  0  0  0  0  0  0  0  0  0  0  0
    2.6768    0.5162   -0.5704 O   0  0  0  0  0  0  0  0  0  0  0  0
    4.2554   -1.1996    0.9156 O   0  0  0  0  0  0  0  0  0  0  0  0
    0.5494    0.6008   -2.2754 O   0  0  0  0  0  0  0  0  0  0  0  0
   -3.7733   -0.0820   -0.2388 N   0  0  0  0  0  0  0  0  0  0  0  0
   -4.0760    1.3109    0.1181 C   0  0  0  0  0  0  0  0  0  0  0  0
   -4.8680   -0.9619    0.1934 C   0  0  0  0  0  0  0  0  0  0  0  0
   -3.5406   -0.2106   -1.6759 C   0  0  0  0  0  0  0  0  0  0  0  0
   -4.3264    1.4177    1.6197 C   0  0  0  0  0  0  0  0  0  0  0  0
   -5.1008   -0.8012    1.6929 C   0  0  0  0  0  0  0  0  0  0  0  0
   -2.1355    0.2454   -2.0351 C   0  0  0  0  0  0  0  0  0  0  0  0
    2.9149    2.8644   -0.1467 C   0  0  0  0  0  0  0  0  0  0  0  0
    0.9845   -1.1678   -0.7367 C   0  0  0  0  0  0  0  0  0  0  0  0
    0.1145   -0.2677   -1.5350 C   0  0  0  0  0  0  0  0  0  0  0  0
    2.3514    1.5449    0.3611 C   0  0  0  0  0  0  0  0  0  0  0  0
    2.2329   -0.7412   -0.2832 C   0  0  0  0  0  0  0  0  0  0  0  0
    2.6161    4.0118    0.8139 C   0  0  0  0  0  0  0  0  0  0  0  0
    3.0341   -1.6026    0.4664 C   0  0  0  0  0  0  0  0  0  0  0  0
    0.5373   -2.4553   -0.4402 C   0  0  0  0  0  0  0  0  0  0  0  0
    3.2176    5.3194    0.3243 C   0  0  0  0  0  0  0  0  0  0  0  0
    2.5869   -2.8901    0.7627 C   0  0  0  0  0  0  0  0  0  0  0  0
    1.3384   -3.3165    0.3094 C   0  0  0  0  0  0  0  0  0  0  0  0
    5.0102   -2.1420    1.6747 C   0  0  0  0  0  0  0  0  0  0  0  0
  1 10  1  0
  1 11  1  0
  2 12  1  0
  2 15  1  0
  3 16  1  0
  3 17  1  0
  4 19  1  0
  4 24  1  0
  5 15  2  0
  6  7  1  0
  6  8  1  0
  6  9  1  0
  7 10  1  0
  8 11  1  0
  9 12  1  0
 13 16  1  0
 13 18  1  0
 14 15  1  0
 14 17  2  0
 14 20  1  0
 17 19  1  0
 18 21  1  0
 19 22  2  0
 20 23  2  0
 22 23  1  0
M  END
>  <PUBCHEM_COMPOUND_CID>  (1) 
32172

>  <PUBCHEM_CONFORMER_RMSD>  (1) 
1.2

>  <PUBCHEM_CONFORMER_DIVERSEORDER>  (1) 
4
21
43
24
8
10
41
31
30
32
3
2
26
7
39
17
29
36
15
13
44
22
38
25
18
34
23
12
27
19
40
37
28
1
16
9
5
6
42
14
20
33
11
35

>  <PUBCHEM_MMFF94_PARTIAL_CHARGES>  (1) 
24
1 -0.56
10 0.28
11 0.28
12 0.28
14 0.09
15 0.63
16 0.28
17 0.08
19 0.08
2 -0.43
20 -0.15
22 -0.15
23 -0.15
24 0.28
3 -0.36
4 -0.36
43 0.15
47 0.15
48 0.15
5 -0.57
6 -0.81
7 0.27
8 0.27
9 0.27

>  <PUBCHEM_EFFECTIVE_ROTOR_COUNT>  (1) 
11.2

>  <PUBCHEM_PHARMACOPHORE_FEATURES>  (1) 
8
1 1 acceptor
1 21 hydrophobe
1 3 acceptor
1 4 acceptor
1 5 acceptor
1 6 cation
6 1 6 7 8 10 11 rings
6 14 17 19 20 22 23 rings

>  <PUBCHEM_HEAVY_ATOM_COUNT>  (1) 
24

>  <PUBCHEM_ATOM_DEF_STEREO_COUNT>  (1) 
0

>  <PUBCHEM_ATOM_UDEF_STEREO_COUNT>  (1) 
0

>  <PUBCHEM_BOND_DEF_STEREO_COUNT>  (1) 
0

>  <PUBCHEM_BOND_UDEF_STEREO_COUNT>  (1) 
0

>  <PUBCHEM_ISOTOPIC_ATOM_COUNT>  (1) 
0

>  <PUBCHEM_COMPONENT_COUNT>  (1) 
1

>  <PUBCHEM_CACTVS_TAUTO_COUNT>  (1) 
1

>  <PUBCHEM_CONFORMER_ID>  (1) 
00007DAC00000004

>  <PUBCHEM_MMFF94_ENERGY>  (1) 
66.4239

>  <PUBCHEM_FEATURE_SELFOVERLAP>  (1) 
40.607

>  <PUBCHEM_SHAPE_FINGERPRINT>  (1) 
10498660 4 14332836051128446811
10615611 76 17917714621468573329
11049842 53 16773805804841806932
11796584 16 15576391320887701762
12363563 72 16009047059595831543
12390115 104 17760649565866789636
12403259 118 18059857221497066649
12549972 3 17605812769135425645
12633257 1 18409167680089755987
13583140 156 18337107861590896301
13590594 115 18269553849921621008
14341114 328 18202571687504033339
14849402 71 18338518642373166976
14950920 106 18409455786806747155
14955137 171 18338796702845622006
15003188 33 8934738668855360635
15081414 286 18341324510300684694
15142526 21 18053668250426793225
15475509 8 17988094314024030740
15475509 84 18048321037507541069
18785283 64 18334851762377680440
21503847 285 18059869336913798791
23398203 216 17045991278636137097
23559900 14 17385714769180667175
38570 142 18055370264509811460
56616090 278 18200049402902029917
57307002 182 18343580763868686905
633830 44 18130514144441334581
7288768 16 17908986852332897192

>  <PUBCHEM_SHAPE_MULTIPOLES>  (1) 
459.58
11.04
4.93
1.89
12.38
6.54
0.27
1.09
-6.87
-9.59
-1.69
1.83
-0.08
-1.17

>  <PUBCHEM_SHAPE_SELFOVERLAP>  (1) 
935.566

>  <PUBCHEM_SHAPE_VOLUME>  (1) 
266.3

>  <PUBCHEM_COORDINATE_TYPE>  (1) 
2
5
10

$$$$
