32188
     RDKit          3D

 19 19  0  0  0  0  0  0  0  0999 V2000
   -0.7253    0.0659    0.0718 O   0  0  0  0  0  0  0  0  0  0  0  0
    5.1211   -0.4344   -0.6243 O   0  0  0  0  0  0  0  0  0  0  0  0
    0.2379   -2.0248    0.0856 O   0  0  0  0  0  0  0  0  0  0  0  0
    2.7509   -1.8315   -0.8961 O   0  0  0  0  0  0  0  0  0  0  0  0
   -4.3967    0.0525   -0.2540 N   0  0  0  0  0  0  0  0  0  0  0  0
   -3.0496    0.6022   -0.1058 C   0  0  0  0  0  0  0  0  0  0  0  0
   -4.7123   -0.8356    0.8641 C   0  0  0  0  0  0  0  0  0  0  0  0
   -5.3812    1.1301   -0.3445 C   0  0  0  0  0  0  0  0  0  0  0  0
   -2.0174   -0.5130   -0.0550 C   0  0  0  0  0  0  0  0  0  0  0  0
   -6.0853   -1.4640    0.6956 C   0  0  0  0  0  0  0  0  0  0  0  0
   -5.0688    2.0635   -1.5019 C   0  0  0  0  0  0  0  0  0  0  0  0
    1.6059   -0.0800    0.2639 C   0  0  0  0  0  0  0  0  0  0  0  0
    0.3181   -0.8070    0.1312 C   0  0  0  0  0  0  0  0  0  0  0  0
    2.7618   -0.6263   -0.2574 C   0  0  0  0  0  0  0  0  0  0  0  0
    1.6000    1.1387    0.9143 C   0  0  0  0  0  0  0  0  0  0  0  0
    3.9609    0.0737   -0.1228 C   0  0  0  0  0  0  0  0  0  0  0  0
    2.7989    1.8386    1.0488 C   0  0  0  0  0  0  0  0  0  0  0  0
    3.9794    1.3062    0.5303 C   0  0  0  0  0  0  0  0  0  0  0  0
    6.3016    0.3454   -0.4436 C   0  0  0  0  0  0  0  0  0  0  0  0
  1  9  1  0
  1 13  1  0
  2 16  1  0
  2 19  1  0
  3 13  2  0
  4 14  1  0
  5  6  1  0
  5  7  1  0
  5  8  1  0
  6  9  1  0
  7 10  1  0
  8 11  1  0
 12 13  1  0
 12 14  2  0
 12 15  1  0
 14 16  1  0
 15 17  2  0
 16 18  2  0
 17 18  1  0
M  END
>  <PUBCHEM_COMPOUND_CID>  (1) 
32188

>  <PUBCHEM_CONFORMER_RMSD>  (1) 
0.8

>  <PUBCHEM_CONFORMER_DIVERSEORDER>  (1) 
1
206
13
234
248
147
157
156
74
194
56
186
192
207
219
28
154
204
152
65
160
257
33
9
181
231
171
3
55
131
4
177
150
40
78
137
127
111
59
220
246
213
122
228
23
199
114
110
98
187
229
10
221
71
5
245
143
101
205
200
25
184
142
95
202
230
178
183
175
242
109
162
197
235
117
262
225
237
107
85
106
35
243
83
208
165
48
174
92
155
195
209
172
130
179
259
258
90
129
29
30
49
144
42
64
140
44
121
88
51
210
102
239
113
80
126
236
253
163
105
89
14
96
16
203
166
201
215
99
69
2
60
193
132
97
81
249
32
119
170
169
12
141
87
57
223
94
31
100
46
214
77
103
180
250
128
19
188
232
52
238
17
227
53
161
24
108
116
133
11
233
164
148
251
82
66
22
112
45
76
124
79
39
264
118
120
189
190
265
15
211
176
8
123
63
18
6
196
261
91
104
222
185
146
50
41
254
218
182
67
84
247
244
26
38
20
36
7
54
135
145
86
212
27
151
125
256
173
168
240
263
134
70
191
159
252
47
75
226
21
266
139
115
62
224
43
138
241
149
58
136
37
153
93
260
68
217
61
255
216
73
158
34
72
167
198

>  <PUBCHEM_MMFF94_PARTIAL_CHARGES>  (1) 
21
1 -0.43
12 0.09
13 0.63
14 0.08
15 -0.15
16 0.08
17 -0.15
18 -0.15
19 0.28
2 -0.36
3 -0.57
34 0.15
35 0.15
36 0.15
37 0.45
4 -0.53
5 -0.81
6 0.27
7 0.27
8 0.27
9 0.28

>  <PUBCHEM_EFFECTIVE_ROTOR_COUNT>  (1) 
8

>  <PUBCHEM_PHARMACOPHORE_FEATURES>  (1) 
5
1 2 acceptor
1 3 acceptor
1 4 donor
1 5 cation
6 12 14 15 16 17 18 rings

>  <PUBCHEM_HEAVY_ATOM_COUNT>  (1) 
19

>  <PUBCHEM_ATOM_DEF_STEREO_COUNT>  (1) 
0

>  <PUBCHEM_ATOM_UDEF_STEREO_COUNT>  (1) 
0

>  <PUBCHEM_BOND_DEF_STEREO_COUNT>  (1) 
0

>  <PUBCHEM_BOND_UDEF_STEREO_COUNT>  (1) 
0

>  <PUBCHEM_ISOTOPIC_ATOM_COUNT>  (1) 
0

>  <PUBCHEM_COMPONENT_COUNT>  (1) 
1

>  <PUBCHEM_CACTVS_TAUTO_COUNT>  (1) 
4

>  <PUBCHEM_CONFORMER_ID>  (1) 
00007DBC00000001

>  <PUBCHEM_MMFF94_ENERGY>  (1) 
53.9792

>  <PUBCHEM_FEATURE_SELFOVERLAP>  (1) 
25.371

>  <PUBCHEM_SHAPE_FINGERPRINT>  (1) 
10366900 7 16153423978430686577
10693767 8 17417532385511270598
10912923 1 16081083788339731009
11471102 20 18131069346758881168
11595378 159 15792004507744381957
12236239 1 15502373435071557570
12403259 415 18411132567418876041
12596602 18 14923948925184776613
12616971 3 16271929346046284225
12730499 353 18341899610131238354
13533116 47 14548748262129384246
13760787 5 17060618915011395185
15081414 286 18130506447987216304
17844677 252 18334582364780752601
19433438 28 18408039637204891361
19489759 90 17531245072077156145
200 152 17132119034836196050
20645477 70 17917437509772648758
21033648 29 18339630218390030329
21267235 1 17988373619609707234
21709351 56 18410568513853908821
221357 26 18131063792971100081
22224240 67 12468640577755738908
22289505 5 18343015545787774860
23402539 116 17530682108843278527
23402655 69 18202560657426539629
23557571 272 18186524298132435461
23559900 14 18273208720533868112
2916195 48 18335134332085878408
29717793 49 16415482636082505460
3060560 45 17775849004308202846
3545911 37 18343023315320043387
4072396 5 18271513223029593986
5104073 3 18334293124703216003
542803 24 16877942737104503457
59755656 215 18341332214986561358
59755656 520 17822006540559504771
90127 26 18187086186891630057

>  <PUBCHEM_SHAPE_MULTIPOLES>  (1) 
362.55
15.26
1.84
0.99
7.64
0.17
0.03
1.86
1.74
1.19
0.14
0.3
0.29
2.3

>  <PUBCHEM_SHAPE_SELFOVERLAP>  (1) 
735.385

>  <PUBCHEM_SHAPE_VOLUME>  (1) 
212.9

>  <PUBCHEM_COORDINATE_TYPE>  (1) 
2
5
10

$$$$
