32181
     RDKit          3D

 24 26  0  0  0  0  0  0  0  0999 V2000
    0.7309    3.5980   -0.3058 S   0  0  0  0  0  0  0  0  0  0  0  0
   -3.1383    1.0410    0.9045 O   0  0  0  0  0  0  0  0  0  0  0  0
    3.0671    2.1210   -0.2528 O   0  0  0  0  0  0  0  0  0  0  0  0
    1.0241    0.9834   -0.0088 N   0  0  0  0  0  0  0  0  0  0  0  0
   -1.5989   -0.2923   -0.2702 N   0  0  0  0  0  0  0  0  0  0  0  0
   -0.7489    4.3543   -0.2740 N   0  0  0  0  0  0  0  0  0  0  0  0
   -1.2434    2.0766    0.0477 C   0  0  0  0  0  0  0  0  0  0  0  0
    0.1074    2.0380   -0.0615 C   0  0  0  0  0  0  0  0  0  0  0  0
   -1.6825    3.4254   -0.0810 C   0  0  0  0  0  0  0  0  0  0  0  0
   -2.0754    0.9219    0.2594 C   0  0  0  0  0  0  0  0  0  0  0  0
   -2.1960   -1.5539   -0.1829 C   0  0  0  0  0  0  0  0  0  0  0  0
   -3.0903    3.8757   -0.0178 C   0  0  0  0  0  0  0  0  0  0  0  0
    3.1388   -0.1859    0.0126 C   0  0  0  0  0  0  0  0  0  0  0  0
    2.4192    1.0723   -0.1041 C   0  0  0  0  0  0  0  0  0  0  0  0
   -3.4056   -1.7044    0.4920 C   0  0  0  0  0  0  0  0  0  0  0  0
   -1.5797   -2.6557   -0.7721 C   0  0  0  0  0  0  0  0  0  0  0  0
    4.4498   -0.1982    0.4888 C   0  0  0  0  0  0  0  0  0  0  0  0
    2.5180   -1.3806   -0.3518 C   0  0  0  0  0  0  0  0  0  0  0  0
   -4.0016   -2.9626    0.5781 C   0  0  0  0  0  0  0  0  0  0  0  0
   -2.1756   -3.9139   -0.6860 C   0  0  0  0  0  0  0  0  0  0  0  0
    5.1401   -1.4052    0.6005 C   0  0  0  0  0  0  0  0  0  0  0  0
    3.2081   -2.5876   -0.2400 C   0  0  0  0  0  0  0  0  0  0  0  0
   -3.3866   -4.0674   -0.0109 C   0  0  0  0  0  0  0  0  0  0  0  0
    4.5192   -2.5998    0.2361 C   0  0  0  0  0  0  0  0  0  0  0  0
  1  6  1  0
  1  8  1  0
  2 10  2  0
  3 14  2  0
  4  8  1  0
  4 14  1  0
  5 10  1  0
  5 11  1  0
  6  9  2  0
  7  8  2  0
  7  9  1  0
  7 10  1  0
  9 12  1  0
 11 15  2  0
 11 16  1  0
 13 14  1  0
 13 17  2  0
 13 18  1  0
 15 19  1  0
 16 20  2  0
 17 21  1  0
 18 22  2  0
 19 23  2  0
 20 23  1  0
 21 24  2  0
 22 24  1  0
M  END
>  <PUBCHEM_COMPOUND_CID>  (1) 
32181

>  <PUBCHEM_CONFORMER_RMSD>  (1) 
0.8

>  <PUBCHEM_CONFORMER_DIVERSEORDER>  (1) 
3
22
8
7
17
18
23
21
19
10
6
15
20
5
16
9
13
11
4
12
2
14
1

>  <PUBCHEM_MMFF94_PARTIAL_CHARGES>  (1) 
36
1 0.18
10 0.72
11 0.12
12 0.18
13 0.09
14 0.54
15 -0.15
16 -0.15
17 -0.15
18 -0.15
19 -0.15
2 -0.57
20 -0.15
21 -0.15
22 -0.15
23 -0.15
24 -0.15
25 0.37
26 0.37
3 -0.57
30 0.15
31 0.15
32 0.15
33 0.15
34 0.15
35 0.15
36 0.15
37 0.15
38 0.15
39 0.15
4 -0.49
5 -0.55
6 -0.51
7 -0.09
8 0.1
9 0.11

>  <PUBCHEM_EFFECTIVE_ROTOR_COUNT>  (1) 
6

>  <PUBCHEM_PHARMACOPHORE_FEATURES>  (1) 
8
1 2 acceptor
1 3 acceptor
1 4 donor
1 5 donor
1 6 acceptor
5 1 6 7 8 9 rings
6 11 15 16 19 20 23 rings
6 13 17 18 21 22 24 rings

>  <PUBCHEM_HEAVY_ATOM_COUNT>  (1) 
24

>  <PUBCHEM_ATOM_DEF_STEREO_COUNT>  (1) 
0

>  <PUBCHEM_ATOM_UDEF_STEREO_COUNT>  (1) 
0

>  <PUBCHEM_BOND_DEF_STEREO_COUNT>  (1) 
0

>  <PUBCHEM_BOND_UDEF_STEREO_COUNT>  (1) 
0

>  <PUBCHEM_ISOTOPIC_ATOM_COUNT>  (1) 
0

>  <PUBCHEM_COMPONENT_COUNT>  (1) 
1

>  <PUBCHEM_CACTVS_TAUTO_COUNT>  (1) 
9

>  <PUBCHEM_CONFORMER_ID>  (1) 
00007DB500000003

>  <PUBCHEM_MMFF94_ENERGY>  (1) 
74.6081

>  <PUBCHEM_FEATURE_SELFOVERLAP>  (1) 
40.599

>  <PUBCHEM_SHAPE_FINGERPRINT>  (1) 
10411042 1 18338234985031187610
10483366 6 18266720421773806637
10616163 171 18411984654792041206
107951 10 17172664462598261065
10940486 97 18117853105614112404
11014199 57 18410013268992974166
11370993 70 17835796392282936276
11720765 8 17411578736373695869
12107183 9 18268445688630586099
12293681 25 17977910748353706045
12422481 6 18126877957063380627
12553582 1 18195808693970019702
12788726 201 18262533553734647650
12990986 174 18410007724300770106
13004483 165 18411132580340597179
13140716 1 18412827984083376640
13785724 45 18196395777846473607
138480 1 15744722998971907446
14178342 30 18340760563382334944
14251757 5 18124054338072756526
14844126 61 18335694980158395242
14863182 85 17471293323651099556
14866123 147 18267019449659766059
15006816 218 17042605315017527614
15042514 8 18409733920045842857
15230672 131 17544484055565830206
15352361 1 18338232773064826066
15927050 60 17332239802416575501
16719943 64 17617658752889511722
16728300 4 17246107419728012971
17859628 97 17689152309993254074
19591789 44 17618223905696165775
19930381 70 17833266798037316275
20028762 73 18127404550234795805
20775438 99 17692764502592135213
20775530 9 18336822112663049662
21133410 171 17471232618826665218
21133410 52 17334758174065761782
21421861 104 17979657936886373163
21478907 32 18409729595113859561
21796203 349 17830208991960293058
2255824 54 17473827706774464781
22849339 104 18051995639995878222
229767 44 18341065016903012905
23559900 14 17907853260661301851
23728640 28 18193837046261817657
3298306 158 17186156462255335548
3421961 26 18050567640510446971
3882209 13 17907254992849667574
463206 1 18046630285024289938
5265222 85 17762352314514802606
5309563 4 18194683897843742478
56633871 153 18340498815433099019
59682541 52 17621570124325572695
613672 6 18194659665764891474
6443956 14 18120371222910830863
7097593 13 18125168383706071339
79837 15 18051981316216629241
9709674 26 18198059179966557718
9981440 41 17615972110552306513

>  <PUBCHEM_SHAPE_MULTIPOLES>  (1) 
471.08
8.72
6.81
0.75
8.01
2.15
0.01
-7.9
1.68
-6.45
-0.79
-0.12
-0.2
-0.33

>  <PUBCHEM_SHAPE_SELFOVERLAP>  (1) 
1014.787

>  <PUBCHEM_SHAPE_VOLUME>  (1) 
260.4

>  <PUBCHEM_COORDINATE_TYPE>  (1) 
2
5
10

$$$$
