32198
     RDKit          3D

 34 36  0  0  0  0  0  0  0  0999 V2000
    3.0155   -0.5419    0.5285 O   0  0  0  0  0  0  0  0  0  0  0  0
    4.1508   -2.3483    1.3929 O   0  0  0  0  0  0  0  0  0  0  0  0
    8.9862   -0.9658    0.5162 O   0  0  0  0  0  0  0  0  0  0  0  0
    6.2943    2.6147   -1.1778 O   0  0  0  0  0  0  0  0  0  0  0  0
    8.7902    1.5072   -0.7152 O   0  0  0  0  0  0  0  0  0  0  0  0
   -1.7808    0.1062    0.3405 N   0  0  0  0  0  0  0  0  0  0  0  0
   -5.6161    0.0032    0.5279 C   0  0  0  0  0  0  0  0  0  0  0  0
   -4.1925    0.5255    0.2005 C   0  0  0  0  0  0  0  0  0  0  0  0
   -3.0930   -0.4397    0.6582 C   0  0  0  0  0  0  0  0  0  0  0  0
   -6.0806   -1.1219   -0.3883 C   0  0  0  0  0  0  0  0  0  0  0  0
   -6.6584    1.1147    0.6097 C   0  0  0  0  0  0  0  0  0  0  0  0
   -0.7223   -0.7959    0.7774 C   0  0  0  0  0  0  0  0  0  0  0  0
    0.6453   -0.2062    0.4482 C   0  0  0  0  0  0  0  0  0  0  0  0
   -5.8205   -2.4497   -0.0493 C   0  0  0  0  0  0  0  0  0  0  0  0
   -6.5089    2.2688   -0.1591 C   0  0  0  0  0  0  0  0  0  0  0  0
   -6.7662   -0.8242   -1.5659 C   0  0  0  0  0  0  0  0  0  0  0  0
   -7.7608    0.9764    1.4530 C   0  0  0  0  0  0  0  0  0  0  0  0
    1.7725   -1.1374    0.8736 C   0  0  0  0  0  0  0  0  0  0  0  0
   -6.2459   -3.4798   -0.8881 C   0  0  0  0  0  0  0  0  0  0  0  0
   -7.4618    3.2847   -0.0846 C   0  0  0  0  0  0  0  0  0  0  0  0
   -7.1919   -1.8544   -2.4047 C   0  0  0  0  0  0  0  0  0  0  0  0
   -8.7138    1.9922    1.5275 C   0  0  0  0  0  0  0  0  0  0  0  0
   -6.9317   -3.1820   -2.0657 C   0  0  0  0  0  0  0  0  0  0  0  0
   -8.5642    3.1464    0.7586 C   0  0  0  0  0  0  0  0  0  0  0  0
    4.1307   -1.2566    0.8458 C   0  0  0  0  0  0  0  0  0  0  0  0
    5.3578   -0.5282    0.4361 C   0  0  0  0  0  0  0  0  0  0  0  0
    5.2554    0.7165   -0.1848 C   0  0  0  0  0  0  0  0  0  0  0  0
    6.6132   -1.0897    0.6700 C   0  0  0  0  0  0  0  0  0  0  0  0
    7.7660   -0.4065    0.2827 C   0  0  0  0  0  0  0  0  0  0  0  0
    6.4082    1.3998   -0.5721 C   0  0  0  0  0  0  0  0  0  0  0  0
    7.6634    0.8382   -0.3384 C   0  0  0  0  0  0  0  0  0  0  0  0
    9.0029   -2.2405    1.1557 C   0  0  0  0  0  0  0  0  0  0  0  0
    4.9748    3.1172   -1.3794 C   0  0  0  0  0  0  0  0  0  0  0  0
    9.2822    1.2567   -2.0295 C   0  0  0  0  0  0  0  0  0  0  0  0
  1 18  1  0
  1 25  1  0
  2 25  2  0
  3 29  1  0
  3 32  1  0
  4 30  1  0
  4 33  1  0
  5 31  1  0
  5 34  1  0
  6  9  1  0
  6 12  1  0
  7  8  1  0
  7 10  1  0
  7 11  1  0
  8  9  1  0
 10 14  2  0
 10 16  1  0
 11 15  2  0
 11 17  1  0
 12 13  1  0
 13 18  1  0
 14 19  1  0
 15 20  1  0
 16 21  2  0
 17 22  2  0
 19 23  2  0
 20 24  2  0
 21 23  1  0
 22 24  1  0
 25 26  1  0
 26 27  2  0
 26 28  1  0
 27 30  1  0
 28 29  2  0
 29 31  1  0
 30 31  2  0
M  END
>  <PUBCHEM_COMPOUND_CID>  (1) 
32198

>  <PUBCHEM_CONFORMER_RMSD>  (1) 
1.2

>  <PUBCHEM_CONFORMER_DIVERSEORDER>  (1) 
2
53
25
16
38
35
42
36
19
49
1
29
43
46
51
54
37
34
39
11
23
5
6
50
24
55
20
32
18
26
21
33
31
10
45
15
47
48
17
40
14
41
22
4
30
8
28
27
12
13
52
9
44
3
7

>  <PUBCHEM_MMFF94_PARTIAL_CHARGES>  (1) 
45
1 -0.43
10 -0.14
11 -0.14
12 0.27
14 -0.15
15 -0.15
16 -0.15
17 -0.15
18 0.28
19 -0.15
2 -0.57
20 -0.15
21 -0.15
22 -0.15
23 -0.15
24 -0.15
25 0.63
26 0.09
27 -0.15
28 -0.15
29 0.08
3 -0.36
30 0.08
31 0.08
32 0.28
33 0.28
34 0.28
4 -0.36
40 0.36
45 0.15
46 0.15
47 0.15
48 0.15
5 -0.36
51 0.15
52 0.15
53 0.15
54 0.15
55 0.15
56 0.15
57 0.15
58 0.15
6 -0.9
7 0.29
9 0.27

>  <PUBCHEM_EFFECTIVE_ROTOR_COUNT>  (1) 
14

>  <PUBCHEM_PHARMACOPHORE_FEATURES>  (1) 
9
1 2 acceptor
1 3 acceptor
1 4 acceptor
1 5 acceptor
1 6 cation
1 6 donor
6 10 14 16 19 21 23 rings
6 11 15 17 20 22 24 rings
6 26 27 28 29 30 31 rings

>  <PUBCHEM_HEAVY_ATOM_COUNT>  (1) 
34

>  <PUBCHEM_ATOM_DEF_STEREO_COUNT>  (1) 
0

>  <PUBCHEM_ATOM_UDEF_STEREO_COUNT>  (1) 
0

>  <PUBCHEM_BOND_DEF_STEREO_COUNT>  (1) 
0

>  <PUBCHEM_BOND_UDEF_STEREO_COUNT>  (1) 
0

>  <PUBCHEM_ISOTOPIC_ATOM_COUNT>  (1) 
0

>  <PUBCHEM_COMPONENT_COUNT>  (1) 
1

>  <PUBCHEM_CACTVS_TAUTO_COUNT>  (1) 
1

>  <PUBCHEM_CONFORMER_ID>  (1) 
00007DC600000002

>  <PUBCHEM_MMFF94_ENERGY>  (1) 
114.4212

>  <PUBCHEM_FEATURE_SELFOVERLAP>  (1) 
45.681

>  <PUBCHEM_SHAPE_FINGERPRINT>  (1) 
11135926 11 17313100831113257051
11315181 36 18333728036320674275
12082328 90 18334859429195367795
12089408 11 18411979166108803498
12144603 126 18410293584660304993
12539765 74 18411144606297122470
15198563 99 15913058564503288568
15461852 350 18201721777246653687
15510794 2 15052012373049766023
15554971 5 18342452642899392570
1577012 14 18410008827854164147
16989713 51 17488733614842040127
1754911 235 18411140247105049612
18335252 114 18113332038549693278
22164985 6 18130784551313573704
24771293 8 18187366545150125876
335507 130 18410860975515302283
4169191 19 17894629275205084023
44389302 135 18199741455003265858
4625314 4 18342739594001655322
68570916 9 18408602582652407031
99344 41 18412544292930532118

>  <PUBCHEM_SHAPE_MULTIPOLES>  (1) 
665.38
40.79
3.76
1.64
32.62
0.34
-0.75
9.75
-4.76
-7.63
-1.2
-0.82
-0.4
-8.75

>  <PUBCHEM_SHAPE_SELFOVERLAP>  (1) 
1398.174

>  <PUBCHEM_SHAPE_VOLUME>  (1) 
375.1

>  <PUBCHEM_COORDINATE_TYPE>  (1) 
2
5
10

$$$$
