32192
     RDKit          3D

 21 23  0  0  1  0  0  0  0  0999 V2000
   -4.5548    2.2475   -0.4988 O   0  0  0  0  0  0  0  0  0  0  0  0
   -1.6689    0.3886   -0.0877 C   0  0  0  0  0  0  0  0  0  0  0  0
   -0.8701   -0.8981    0.3337 C   0  0  0  0  0  0  0  0  0  0  0  0
   -3.2234    0.2578   -0.1490 C   0  0  0  0  0  0  0  0  0  0  0  0
   -1.3751   -2.0779   -0.5424 C   0  0  0  0  0  0  0  0  0  0  0  0
   -1.1767    1.6034    0.7156 C   0  0  0  0  0  0  0  0  0  0  0  0
   -3.6215   -0.9984   -0.9517 C   0  0  0  0  0  0  0  0  0  0  0  0
   -2.8919   -2.2586   -0.5097 C   0  0  0  0  0  0  0  0  0  0  0  0
    0.6401   -0.6285    0.1352 C   0  0  0  0  0  0  0  0  0  0  0  0
    0.2823    1.9006    0.3808 C   0  0  0  0  0  0  0  0  0  0  0  0
   -1.0117   -1.2865    1.8259 C   0  0  0  0  0  0  0  0  0  0  0  0
    1.1577    0.6841    0.2079 C   0  0  0  0  0  0  0  0  0  0  0  0
   -3.9494    0.2913    1.2030 C   0  0  0  0  0  0  0  0  0  0  0  0
   -3.7438    1.4409   -0.9419 C   0  0  0  0  0  0  0  0  0  0  0  0
    1.5491   -1.6899   -0.0486 C   0  0  0  0  0  0  0  0  0  0  0  0
    2.5407    0.8997    0.0635 C   0  0  0  0  0  0  0  0  0  0  0  0
    3.4155   -0.1650   -0.1315 C   0  0  0  0  0  0  0  0  0  0  0  0
    2.9194   -1.4603   -0.1850 C   0  0  0  0  0  0  0  0  0  0  0  0
    4.8780    0.0843   -0.2792 C   0  0  0  0  0  0  0  0  0  0  0  0
    5.4962    0.7259    0.9777 C   0  0  0  0  0  0  0  0  0  0  0  0
    5.2082    0.9392   -1.5176 C   0  0  0  0  0  0  0  0  0  0  0  0
  1 14  2  0
  2  3  1  0
  2  4  1  0
  2  6  1  0
  3  5  1  0
  3  9  1  0
  3 11  1  0
  4  7  1  0
  4 13  1  0
  4 14  1  0
  5  8  1  0
  6 10  1  0
  7  8  1  0
  9 12  2  0
  9 15  1  0
 10 12  1  0
 12 16  1  0
 15 18  2  0
 16 17  2  0
 17 18  1  0
 17 19  1  0
 19 20  1  0
 19 21  1  0
M  END
>  <PUBCHEM_COMPOUND_CID>  (1) 
32192

>  <PUBCHEM_CONFORMER_RMSD>  (1) 
0.6

>  <PUBCHEM_CONFORMER_DIVERSEORDER>  (1) 
1
2
3
4

>  <PUBCHEM_MMFF94_PARTIAL_CHARGES>  (1) 
16
1 -0.57
10 0.14
12 -0.14
14 0.45
15 -0.15
16 -0.15
17 -0.14
18 -0.15
19 0.14
3 0.14
39 0.06
4 0.06
40 0.15
41 0.15
42 0.15
9 -0.14

>  <PUBCHEM_EFFECTIVE_ROTOR_COUNT>  (1) 
3.2

>  <PUBCHEM_PHARMACOPHORE_FEATURES>  (1) 
5
1 1 acceptor
3 19 20 21 hydrophobe
6 2 3 4 5 7 8 rings
6 2 3 6 9 10 12 rings
6 9 12 15 16 17 18 rings

>  <PUBCHEM_HEAVY_ATOM_COUNT>  (1) 
21

>  <PUBCHEM_ATOM_DEF_STEREO_COUNT>  (1) 
3

>  <PUBCHEM_ATOM_UDEF_STEREO_COUNT>  (1) 
0

>  <PUBCHEM_BOND_DEF_STEREO_COUNT>  (1) 
0

>  <PUBCHEM_BOND_UDEF_STEREO_COUNT>  (1) 
0

>  <PUBCHEM_ISOTOPIC_ATOM_COUNT>  (1) 
0

>  <PUBCHEM_COMPONENT_COUNT>  (1) 
1

>  <PUBCHEM_CACTVS_TAUTO_COUNT>  (1) 
1

>  <PUBCHEM_CONFORMER_ID>  (1) 
00007DC000000001

>  <PUBCHEM_MMFF94_ENERGY>  (1) 
72.0922

>  <PUBCHEM_FEATURE_SELFOVERLAP>  (1) 
25.408

>  <PUBCHEM_SHAPE_FINGERPRINT>  (1) 
10014705 185 18408321094532325196
10062212 137 18409439314963977986
10498660 4 18343304769138266260
11132069 177 18411978061795591720
11315181 36 17418095434316776408
11578080 2 17058635490634977267
11961588 58 17896583034822683869
12236239 1 18040149626847095088
12403259 415 18272929470387153088
12403814 3 17676201364493253717
12553582 1 18272370862508530785
12788726 201 17559396855588013681
13140716 1 18268715093799492560
13224815 77 18272370884563388530
14790565 3 17983021050787850345
15196674 1 18412260610324449710
15375358 24 18411418414867134882
15415430 112 18342739632487484646
15788980 27 18113898256398304842
1601671 61 18410573985789988636
16945 1 18342732979920590859
17349148 13 18187364337890304616
17959699 21 18186523215616353012
17980427 23 18114462370483231308
18186145 218 17989203754772247473
200 152 15841554080542813794
20871999 31 18341884204431447671
21267235 1 18270125728605602991
21421861 104 17679007219800068842
22182313 1 18200050489560664223
22393880 68 18272930548787908742
23175994 123 16558754554568813323
23227448 37 18186810213424835461
23402539 116 18408877439116059244
23402655 69 18340205198071781980
23493267 7 17967250909796295657
23557571 272 18129675200142692582
23559900 14 18272930493317226442
25 1 18260543386064122747
2748010 2 18125435568846482072
293599 30 18339079281449534077
296302 2 18413389830393836950
335352 9 18268426828600734694
34797466 226 17203330069730542828
34934 24 18410848828767352114
350125 39 18339927116836445427
3545911 37 18341898484928622726
3759504 43 17749393663231893675
394222 165 17754167584090692177
4028521 119 18410573959460853180
4340502 62 16878232952661357097
474 4 17894634755546339606
5104073 3 18411698759961966634
5283173 99 18412535522839441776
542803 24 17894633660482679380
633830 44 17894910672550863803
7226269 152 18335975407390153072
9709674 26 18413112757927715230
9981440 41 18333729130756873682

>  <PUBCHEM_SHAPE_MULTIPOLES>  (1) 
426.3
10.08
2.21
1.17
8.74
0.19
-0.17
-3.09
1.96
-1.77
0.21
-0.05
0.01
-0.02

>  <PUBCHEM_SHAPE_SELFOVERLAP>  (1) 
903.864

>  <PUBCHEM_SHAPE_VOLUME>  (1) 
237.5

>  <PUBCHEM_COORDINATE_TYPE>  (1) 
2
5
10

$$$$
