32199
     RDKit          3D

 13 13  0  0  0  0  0  0  0  0999 V2000
    0.7496    0.0516    0.6715 N   0  0  0  0  0  0  0  0  0  0  0  0
    2.9891    0.0734   -0.2202 N   0  0  0  0  0  0  0  0  0  0  0  0
   -0.6044    0.0157    0.2972 C   0  0  0  0  0  0  0  0  0  0  0  0
   -1.2976    1.2051    0.0818 C   0  0  0  0  0  0  0  0  0  0  0  0
   -1.2499   -1.2095    0.1426 C   0  0  0  0  0  0  0  0  0  0  0  0
   -2.6415    1.1692   -0.2897 C   0  0  0  0  0  0  0  0  0  0  0  0
   -2.5939   -1.2454   -0.2289 C   0  0  0  0  0  0  0  0  0  0  0  0
   -3.2898   -0.0560   -0.4451 C   0  0  0  0  0  0  0  0  0  0  0  0
   -0.6267    2.5304    0.2416 C   0  0  0  0  0  0  0  0  0  0  0  0
   -0.5276   -2.4978    0.3673 C   0  0  0  0  0  0  0  0  0  0  0  0
    1.6083    0.0441   -0.2996 C   0  0  0  0  0  0  0  0  0  0  0  0
    3.6666    0.1169    1.0679 C   0  0  0  0  0  0  0  0  0  0  0  0
    3.8178   -0.1977   -1.3863 C   0  0  0  0  0  0  0  0  0  0  0  0
  1  3  1  0
  1 11  2  0
  2 11  1  0
  2 12  1  0
  2 13  1  0
  3  4  2  0
  3  5  1  0
  4  6  1  0
  4  9  1  0
  5  7  2  0
  5 10  1  0
  6  8  2  0
  7  8  1  0
M  END
>  <PUBCHEM_COMPOUND_CID>  (1) 
32199

>  <PUBCHEM_CONFORMER_RMSD>  (1) 
0.6

>  <PUBCHEM_CONFORMER_DIVERSEORDER>  (1) 
1
2

>  <PUBCHEM_MMFF94_PARTIAL_CHARGES>  (1) 
17
1 -0.63
10 0.14
11 0.44
12 0.37
13 0.37
14 0.15
15 0.15
16 0.15
2 -0.79
23 0.06
3 0.18
4 -0.14
5 -0.14
6 -0.15
7 -0.15
8 -0.15
9 0.14

>  <PUBCHEM_EFFECTIVE_ROTOR_COUNT>  (1) 
2

>  <PUBCHEM_PHARMACOPHORE_FEATURES>  (1) 
2
3 1 2 11 cation
6 3 4 5 6 7 8 rings

>  <PUBCHEM_HEAVY_ATOM_COUNT>  (1) 
13

>  <PUBCHEM_ATOM_DEF_STEREO_COUNT>  (1) 
0

>  <PUBCHEM_ATOM_UDEF_STEREO_COUNT>  (1) 
0

>  <PUBCHEM_BOND_DEF_STEREO_COUNT>  (1) 
0

>  <PUBCHEM_BOND_UDEF_STEREO_COUNT>  (1) 
0

>  <PUBCHEM_ISOTOPIC_ATOM_COUNT>  (1) 
0

>  <PUBCHEM_COMPONENT_COUNT>  (1) 
1

>  <PUBCHEM_CACTVS_TAUTO_COUNT>  (1) 
1

>  <PUBCHEM_CONFORMER_ID>  (1) 
00007DC700000001

>  <PUBCHEM_MMFF94_ENERGY>  (1) 
34.8413

>  <PUBCHEM_FEATURE_SELFOVERLAP>  (1) 
10.148

>  <PUBCHEM_SHAPE_FINGERPRINT>  (1) 
11206711 2 18336252510084348909
11578080 2 12677749928914949346
12716758 59 18341334405340721914
13024252 1 17967535679434862919
14614273 12 18116142269341610037
14911166 2 18338222843748595949
14993402 34 18113056042975384565
15669948 3 18334857272662628022
15775835 57 17531250543306413188
16945 1 18410004438592460921
17846911 113 18411691076207093777
18186145 218 18130227064648216760
193761 8 17762332518630739649
20201158 50 18060702792682267742
20279233 1 17989205962802279198
20510252 161 18343300349079232176
20645476 183 17749115520944368382
20828058 34 18409169878748657239
20871999 31 18337958994748137799
22802520 49 18130235839181987030
23402539 116 18341315747781164212
23557571 272 18271246131492247072
23559900 14 18343300345622599204
2748010 2 17976243962035398475
43471831 8 18262795168730042299
6333449 129 18341889692803403257
77492 1 17603579725353750520
81228 2 18341905064650027328

>  <PUBCHEM_SHAPE_MULTIPOLES>  (1) 
257.57
5.92
2.09
0.94
5.35
0.02
-0.1
-0.06
-1.2
-1.39
0.28
0.87
-0.03
0.14

>  <PUBCHEM_SHAPE_SELFOVERLAP>  (1) 
522.641

>  <PUBCHEM_SHAPE_VOLUME>  (1) 
151.6

>  <PUBCHEM_COORDINATE_TYPE>  (1) 
2
5
10

$$$$
