32206
     RDKit          3D

 12 13  0  0  0  0  0  0  0  0999 V2000
    3.4389    1.4938    0.0002 Cl  0  0  0  0  0  0  0  0  0  0  0  0
    3.2556   -1.7264   -0.0005 Cl  0  0  0  0  0  0  0  0  0  0  0  0
   -2.0639    1.4754   -0.0003 S   0  0  0  0  0  0  0  0  0  0  0  0
   -1.8794   -1.0972    0.0001 N   0  0  0  0  0  0  0  0  0  0  0  0
   -4.0833   -0.2484    0.0000 N   0  0  0  0  0  0  0  0  0  0  0  0
   -0.4805    0.7929   -0.0001 C   0  0  0  0  0  0  0  0  0  0  0  0
   -0.5838   -0.6015    0.0000 C   0  0  0  0  0  0  0  0  0  0  0  0
    0.7633    1.4443   -0.0001 C   0  0  0  0  0  0  0  0  0  0  0  0
    0.6014   -1.3687    0.0002 C   0  0  0  0  0  0  0  0  0  0  0  0
    1.9207    0.6617    0.0001 C   0  0  0  0  0  0  0  0  0  0  0  0
    1.8431   -0.7267    0.0002 C   0  0  0  0  0  0  0  0  0  0  0  0
   -2.7320   -0.0992    0.0001 C   0  0  0  0  0  0  0  0  0  0  0  0
  1 10  1  0
  2 11  1  0
  3  6  1  0
  3 12  1  0
  4  7  1  0
  4 12  2  0
  5 12  1  0
  6  7  2  0
  6  8  1  0
  7  9  1  0
  8 10  2  0
  9 11  2  0
 10 11  1  0
M  END
>  <PUBCHEM_COMPOUND_CID>  (1) 
32206

>  <PUBCHEM_CONFORMER_RMSD>  (1) 
0.4

>  <PUBCHEM_CONFORMER_DIVERSEORDER>  (1) 
1

>  <PUBCHEM_MMFF94_PARTIAL_CHARGES>  (1) 
16
1 -0.18
10 0.18
11 0.18
12 0.46
13 0.15
14 0.15
15 0.4
16 0.4
2 -0.18
3 -0.08
4 -0.57
5 -0.88
6 0.04
7 0.23
8 -0.15
9 -0.15

>  <PUBCHEM_EFFECTIVE_ROTOR_COUNT>  (1) 
0

>  <PUBCHEM_PHARMACOPHORE_FEATURES>  (1) 
4
1 5 donor
3 4 5 12 cation
5 3 4 6 7 12 rings
6 6 7 8 9 10 11 rings

>  <PUBCHEM_HEAVY_ATOM_COUNT>  (1) 
12

>  <PUBCHEM_ATOM_DEF_STEREO_COUNT>  (1) 
0

>  <PUBCHEM_ATOM_UDEF_STEREO_COUNT>  (1) 
0

>  <PUBCHEM_BOND_DEF_STEREO_COUNT>  (1) 
0

>  <PUBCHEM_BOND_UDEF_STEREO_COUNT>  (1) 
0

>  <PUBCHEM_ISOTOPIC_ATOM_COUNT>  (1) 
0

>  <PUBCHEM_COMPONENT_COUNT>  (1) 
1

>  <PUBCHEM_CACTVS_TAUTO_COUNT>  (1) 
2

>  <PUBCHEM_CONFORMER_ID>  (1) 
00007DCE00000001

>  <PUBCHEM_MMFF94_ENERGY>  (1) 
21.9916

>  <PUBCHEM_FEATURE_SELFOVERLAP>  (1) 
20.368

>  <PUBCHEM_SHAPE_FINGERPRINT>  (1) 
10608611 8 18409163281673992525
10967382 1 18410855498898989956
11471102 20 18410288112560843669
12032990 46 18338521837137660591
12932764 1 17417802971996343641
13380535 76 18336826506551340866
14144814 61 18411420600641634697
14325111 11 18410856546786835009
14576447 43 17913473912558000775
14897335 6 18339920514965296302
15219456 202 18335977593005987677
15442244 35 18267868281015100256
15536298 74 18343019982741731328
15775835 57 18272373121687507149
161256 15 18335700503607468212
16945 1 18266458887343910916
17844478 74 18113345202065468137
18186145 218 17822289050696497815
20201158 50 18408885161124320587
20645477 70 18411695465938301887
20871998 22 18127414441106569870
21501502 16 18340209596113128664
21501925 9 18338223887051316706
23235685 24 18337102487943262848
2334 1 18410573976793839492
23402655 69 18341602716801943821
23463225 33 18409729521904243106
23552423 10 18334014964966529254
23559900 14 18197213634546379158
2748010 2 18409727327060046916
449060 62 18341054102911266416
5084963 1 18271805683498477979
5104073 3 18410576167480271593
528886 8 18339075007466100489
53812653 166 18199746006739333536
63268167 104 18412547621413635400
7364860 26 18342738516455182048
8809292 202 18259992569478066243

>  <PUBCHEM_SHAPE_MULTIPOLES>  (1) 
244.58
5.73
1.89
0.62
1.29
0.11
0
-0.29
0
-1.19
0
-0.05
0.02
0

>  <PUBCHEM_SHAPE_SELFOVERLAP>  (1) 
501.997

>  <PUBCHEM_SHAPE_VOLUME>  (1) 
145.2

>  <PUBCHEM_COORDINATE_TYPE>  (1) 
2
5
10

$$$$
