32205
     RDKit          3D

  7  7  0  0  1  0  0  0  0  0999 V2000
    1.1188    1.7707   -0.1706 O   0  0  0  0  0  0  0  0  0  0  0  0
    0.5404   -0.5820   -0.3303 C   0  0  0  0  0  0  0  0  0  0  0  0
    0.2780    0.7590    0.3500 C   0  0  0  0  0  0  0  0  0  0  0  0
   -0.7185   -1.3736    0.0133 C   0  0  0  0  0  0  0  0  0  0  0  0
   -1.1871    1.0287    0.0279 C   0  0  0  0  0  0  0  0  0  0  0  0
   -1.8509   -0.3469   -0.0314 C   0  0  0  0  0  0  0  0  0  0  0  0
    1.8194   -1.2560    0.1410 C   0  0  0  0  0  0  0  0  0  0  0  0
  1  3  1  0
  2  3  1  0
  2  4  1  0
  2  7  1  0
  3  5  1  0
  4  6  1  0
  5  6  1  0
M  END
>  <PUBCHEM_COMPOUND_CID>  (1) 
32205

>  <PUBCHEM_CONFORMER_RMSD>  (1) 
0.4

>  <PUBCHEM_CONFORMER_DIVERSEORDER>  (1) 
1
3
5
8
4
2
6
7

>  <PUBCHEM_MMFF94_PARTIAL_CHARGES>  (1) 
3
1 -0.68
19 0.4
3 0.28

>  <PUBCHEM_EFFECTIVE_ROTOR_COUNT>  (1) 
1

>  <PUBCHEM_PHARMACOPHORE_FEATURES>  (1) 
3
1 1 acceptor
1 1 donor
5 2 3 4 5 6 rings

>  <PUBCHEM_HEAVY_ATOM_COUNT>  (1) 
7

>  <PUBCHEM_ATOM_DEF_STEREO_COUNT>  (1) 
0

>  <PUBCHEM_ATOM_UDEF_STEREO_COUNT>  (1) 
2

>  <PUBCHEM_BOND_DEF_STEREO_COUNT>  (1) 
0

>  <PUBCHEM_BOND_UDEF_STEREO_COUNT>  (1) 
0

>  <PUBCHEM_ISOTOPIC_ATOM_COUNT>  (1) 
0

>  <PUBCHEM_COMPONENT_COUNT>  (1) 
1

>  <PUBCHEM_CACTVS_TAUTO_COUNT>  (1) 
1

>  <PUBCHEM_CONFORMER_ID>  (1) 
00007DCD00000001

>  <PUBCHEM_MMFF94_ENERGY>  (1) 
11.8229

>  <PUBCHEM_FEATURE_SELFOVERLAP>  (1) 
15.223

>  <PUBCHEM_SHAPE_FINGERPRINT>  (1) 
16714656 1 17979921510085907566
18185500 45 18192714449148116450
20096714 4 18267870660305480917
21040471 1 17835800081369680161
23552423 10 18263083386778462078
29004967 10 18265059032921790883

>  <PUBCHEM_SHAPE_MULTIPOLES>  (1) 
138.19
2.1
1.74
0.64
0.34
0.51
0.01
-0.5
0.05
0.12
-0.04
0.01
-0.01
-0.05

>  <PUBCHEM_SHAPE_SELFOVERLAP>  (1) 
266.62

>  <PUBCHEM_SHAPE_VOLUME>  (1) 
86.9

>  <PUBCHEM_COORDINATE_TYPE>  (1) 
2
5
10

$$$$
