32207
     RDKit          3D

 10  9  0  0  1  0  0  0  0  0999 V2000
    1.9070    0.3147   -1.4287 O   0  0  0  0  0  0  0  0  0  0  0  0
    0.2853    0.9196    0.2607 C   0  0  0  0  0  0  0  0  0  0  0  0
    1.7249    0.4299   -0.0153 C   0  0  0  0  0  0  0  0  0  0  0  0
   -0.8062   -0.0765   -0.1589 C   0  0  0  0  0  0  0  0  0  0  0  0
   -2.1977    0.4364    0.2212 C   0  0  0  0  0  0  0  0  0  0  0  0
   -3.2895   -0.5348   -0.2270 C   0  0  0  0  0  0  0  0  0  0  0  0
    2.7343    1.4664    0.4942 C   0  0  0  0  0  0  0  0  0  0  0  0
    1.9976   -0.8942    0.6665 C   0  0  0  0  0  0  0  0  0  0  0  0
   -4.6752   -0.0133    0.1185 C   0  0  0  0  0  0  0  0  0  0  0  0
    2.3196   -2.0483    0.0687 C   0  0  0  0  0  0  0  0  0  0  0  0
  1  3  1  0
  2  3  1  0
  2  4  1  0
  3  7  1  0
  3  8  1  0
  4  5  1  0
  5  6  1  0
  6  9  1  0
  8 10  2  0
M  END
>  <PUBCHEM_COMPOUND_CID>  (1) 
32207

>  <PUBCHEM_CONFORMER_RMSD>  (1) 
0.6

>  <PUBCHEM_CONFORMER_DIVERSEORDER>  (1) 
1
51
50
65
61
6
63
22
60
48
14
16
67
57
5
64
28
69
52
2
58
33
55
35
62
26
30
44
66
3
40
56
10
47
68
42
37
23
54
59
12
43
15
49
7
36
46
9
20
34
13
38
45
41
11
39
53
25
21
17
24
19
27
29
32
4
31
8
18

>  <PUBCHEM_MMFF94_PARTIAL_CHARGES>  (1) 
8
1 -0.68
10 -0.3
22 0.15
26 0.4
27 0.15
28 0.15
3 0.42
8 -0.29

>  <PUBCHEM_EFFECTIVE_ROTOR_COUNT>  (1) 
5

>  <PUBCHEM_PHARMACOPHORE_FEATURES>  (1) 
5
1 1 acceptor
1 1 donor
1 10 hydrophobe
1 9 hydrophobe
4 2 4 5 6 hydrophobe

>  <PUBCHEM_HEAVY_ATOM_COUNT>  (1) 
10

>  <PUBCHEM_ATOM_DEF_STEREO_COUNT>  (1) 
0

>  <PUBCHEM_ATOM_UDEF_STEREO_COUNT>  (1) 
1

>  <PUBCHEM_BOND_DEF_STEREO_COUNT>  (1) 
0

>  <PUBCHEM_BOND_UDEF_STEREO_COUNT>  (1) 
0

>  <PUBCHEM_ISOTOPIC_ATOM_COUNT>  (1) 
0

>  <PUBCHEM_COMPONENT_COUNT>  (1) 
1

>  <PUBCHEM_CACTVS_TAUTO_COUNT>  (1) 
1

>  <PUBCHEM_CONFORMER_ID>  (1) 
00007DCF00000001

>  <PUBCHEM_MMFF94_ENERGY>  (1) 
9.8715

>  <PUBCHEM_FEATURE_SELFOVERLAP>  (1) 
25.372

>  <PUBCHEM_SHAPE_FINGERPRINT>  (1) 
11062470 55 18201719591609303953
12346645 6 18412542124029446174
12616999 72 17822587091224977695
12932764 1 18343021103591247085
14144814 61 18342741814895185025
14251717 144 18410005516629797883
14325111 11 18411135844747636273
15775835 57 18342455984473606391
170605 34 17917149523831160984
177051 138 18342736282777087859
190213 19 17749106699693017337
20201158 50 18259985950690668643
20279233 1 18187365467255752619
20645477 70 18411694362263562543
20653091 64 18271810060544938920
20871998 22 18126845993642423798
21730867 7 18335135410206805832
22485316 2 18341045298676533631
23552333 60 18131915957552995464
3248919 1 17530688723056146913
522135 26 18408887317688474523
581208 293 18334852848561223251
7364860 26 18343018887419660354
8030462 33 18336560351485689081

>  <PUBCHEM_SHAPE_MULTIPOLES>  (1) 
199.93
6.85
1.51
0.85
9.07
0.51
-0.18
0.55
0.33
-1.73
0.17
-0.4
-0.04
-0.09

>  <PUBCHEM_SHAPE_SELFOVERLAP>  (1) 
363.328

>  <PUBCHEM_SHAPE_VOLUME>  (1) 
128.9

>  <PUBCHEM_COORDINATE_TYPE>  (1) 
2
5
10

$$$$
