32202
     RDKit          3D

  9  8  0  0  0  0  0  0  0  0999 V2000
    4.3302    0.7225    0.0108 S   0  0  0  0  0  0  0  0  0  0  0  0
   -1.6403    0.4729   -0.0050 O   0  0  0  0  0  0  0  0  0  0  0  0
   -0.6150   -1.5936    0.0031 O   0  0  0  0  0  0  0  0  0  0  0  0
    1.8309   -0.4684   -0.0019 N   0  0  0  0  0  0  0  0  0  0  0  0
   -2.9230   -0.1619    0.0075 C   0  0  0  0  0  0  0  0  0  0  0  0
   -3.9999    0.9021    0.0068 C   0  0  0  0  0  0  0  0  0  0  0  0
    0.6949    0.4503   -0.0189 C   0  0  0  0  0  0  0  0  0  0  0  0
   -0.5657   -0.3711   -0.0057 C   0  0  0  0  0  0  0  0  0  0  0  0
    2.8878    0.0472    0.0033 C   0  0  0  0  0  0  0  0  0  0  0  0
  1  9  2  0
  2  5  1  0
  2  8  1  0
  3  8  2  0
  4  7  1  0
  4  9  2  0
  5  6  1  0
  7  8  1  0
M  END
>  <PUBCHEM_COMPOUND_CID>  (1) 
32202

>  <PUBCHEM_CONFORMER_RMSD>  (1) 
0.6

>  <PUBCHEM_CONFORMER_DIVERSEORDER>  (1) 
1
25
14
47
21
42
23
46
20
3
32
10
45
29
51
6
50
60
58
9
2
44
37
8
11
19
59
22
12
54
5
41
31
17
30
40
28
52
55
53
27
33
34
57
38
24
49
4
15
16
7
13
43
48
26
39
56
36
18
35

>  <PUBCHEM_MMFF94_PARTIAL_CHARGES>  (1) 
8
1 -0.27
2 -0.43
3 -0.57
4 -0.55
5 0.28
7 0.31
8 0.66
9 0.57

>  <PUBCHEM_EFFECTIVE_ROTOR_COUNT>  (1) 
4

>  <PUBCHEM_PHARMACOPHORE_FEATURES>  (1) 
3
1 1 acceptor
1 3 acceptor
1 4 acceptor

>  <PUBCHEM_HEAVY_ATOM_COUNT>  (1) 
9

>  <PUBCHEM_ATOM_DEF_STEREO_COUNT>  (1) 
0

>  <PUBCHEM_ATOM_UDEF_STEREO_COUNT>  (1) 
0

>  <PUBCHEM_BOND_DEF_STEREO_COUNT>  (1) 
0

>  <PUBCHEM_BOND_UDEF_STEREO_COUNT>  (1) 
0

>  <PUBCHEM_ISOTOPIC_ATOM_COUNT>  (1) 
0

>  <PUBCHEM_COMPONENT_COUNT>  (1) 
1

>  <PUBCHEM_CACTVS_TAUTO_COUNT>  (1) 
1

>  <PUBCHEM_CONFORMER_ID>  (1) 
00007DCA00000001

>  <PUBCHEM_MMFF94_ENERGY>  (1) 
5.7244

>  <PUBCHEM_FEATURE_SELFOVERLAP>  (1) 
15.235

>  <PUBCHEM_SHAPE_FINGERPRINT>  (1) 
11062470 55 18059857268192976576
14325111 11 18410856542665746151
177051 138 9295291638305389840
18342897 14 18408323276354820441
20211469 26 7997972370870429141
20645477 70 17774445971072434310
20719005 15 18410574002663649192
21119208 17 15195284222453164985
21293036 1 18131913766824313992
22485316 2 8286200530729527216
23235685 24 18412821382644776518
23402539 116 18273205400502997260
366044 4 18411699889480199435

>  <PUBCHEM_SHAPE_MULTIPOLES>  (1) 
172.35
7.83
1.06
0.6
1.59
0.21
0
-2.94
-0.04
-0.28
0
0.06
-0.02
0

>  <PUBCHEM_SHAPE_SELFOVERLAP>  (1) 
313.439

>  <PUBCHEM_SHAPE_VOLUME>  (1) 
110.5

>  <PUBCHEM_COORDINATE_TYPE>  (1) 
2
5
10

$$$$
