32204
     RDKit          3D

 11 11  0  0  0  0  0  0  0  0999 V2000
    3.7663    0.0002   -0.4534 O   0  0  0  0  0  0  0  0  0  0  0  0
   -1.6318   -0.0007    0.8333 N   0  0  0  0  0  0  0  0  0  0  0  0
   -3.8624   -0.0001    0.1405 N   0  0  0  0  0  0  0  0  0  0  0  0
   -2.2676    0.0010   -1.4919 N   0  0  0  0  0  0  0  0  0  0  0  0
   -0.2717   -0.0005    0.5083 C   0  0  0  0  0  0  0  0  0  0  0  0
    0.4067    1.2077    0.3471 C   0  0  0  0  0  0  0  0  0  0  0  0
    0.4070   -1.2083    0.3459 C   0  0  0  0  0  0  0  0  0  0  0  0
    2.4420    0.0003   -0.1391 C   0  0  0  0  0  0  0  0  0  0  0  0
    1.7634    1.2081    0.0233 C   0  0  0  0  0  0  0  0  0  0  0  0
    1.7637   -1.2078    0.0223 C   0  0  0  0  0  0  0  0  0  0  0  0
   -2.5155    0.0001   -0.1362 C   0  0  0  0  0  0  0  0  0  0  0  0
  1  8  1  0
  2  5  1  0
  2 11  2  3
  3 11  1  0
  4 11  1  0
  5  6  2  0
  5  7  1  0
  6  9  1  0
  7 10  2  0
  8  9  2  0
  8 10  1  0
M  END
>  <PUBCHEM_COMPOUND_CID>  (1) 
32204

>  <PUBCHEM_CONFORMER_RMSD>  (1) 
0.4

>  <PUBCHEM_CONFORMER_DIVERSEORDER>  (1) 
1

>  <PUBCHEM_MMFF94_PARTIAL_CHARGES>  (1) 
20
1 -0.53
10 -0.15
11 0.55
12 0.15
13 0.15
14 0.15
15 0.15
16 0.45
17 0.4
18 0.4
19 0.4
2 -0.63
20 0.4
3 -0.85
4 -0.85
5 0.18
6 -0.15
7 -0.15
8 0.08
9 -0.15

>  <PUBCHEM_EFFECTIVE_ROTOR_COUNT>  (1) 
1

>  <PUBCHEM_PHARMACOPHORE_FEATURES>  (1) 
5
1 1 donor
1 3 donor
1 4 donor
4 2 3 4 11 cation
6 5 6 7 8 9 10 rings

>  <PUBCHEM_HEAVY_ATOM_COUNT>  (1) 
11

>  <PUBCHEM_ATOM_DEF_STEREO_COUNT>  (1) 
0

>  <PUBCHEM_ATOM_UDEF_STEREO_COUNT>  (1) 
0

>  <PUBCHEM_BOND_DEF_STEREO_COUNT>  (1) 
0

>  <PUBCHEM_BOND_UDEF_STEREO_COUNT>  (1) 
0

>  <PUBCHEM_ISOTOPIC_ATOM_COUNT>  (1) 
0

>  <PUBCHEM_COMPONENT_COUNT>  (1) 
1

>  <PUBCHEM_CACTVS_TAUTO_COUNT>  (1) 
4

>  <PUBCHEM_CONFORMER_ID>  (1) 
00007DCC00000001

>  <PUBCHEM_MMFF94_ENERGY>  (1) 
34.2339

>  <PUBCHEM_FEATURE_SELFOVERLAP>  (1) 
25.427

>  <PUBCHEM_SHAPE_FINGERPRINT>  (1) 
11062470 55 16200152096865147489
11401426 45 18342733014428061128
12897270 3 18408881836872406917
12932764 1 17775556525171540297
13839132 238 16299213619398741751
14128692 85 17489298728477178549
14325111 11 18337674221167900289
14911166 2 18410584993759246990
14993402 34 17989207044638009958
15775835 57 18334295383297064703
16945 1 18410576188828357330
17844478 74 17821736022386620473
20201158 50 18261114062468491875
21119208 17 17775287153333522445
21293036 1 18408046225415567990
23235685 24 18335138708620402392
23402539 116 16226042327614483195
23402655 69 18410004404428148437
2748010 2 18050861206104795976
5084963 1 17676775360907368177
528886 8 18411980269129233226

>  <PUBCHEM_SHAPE_MULTIPOLES>  (1) 
205.56
5.21
1.17
0.87
1.82
0
-0.19
0
-0.96
-0.62
0.1
0.41
0
0

>  <PUBCHEM_SHAPE_SELFOVERLAP>  (1) 
427.816

>  <PUBCHEM_SHAPE_VOLUME>  (1) 
115.9

>  <PUBCHEM_COORDINATE_TYPE>  (1) 
2
5
10

$$$$
