32219
     RDKit          3D

 16 17  0  0  1  0  0  0  0  0999 V2000
    3.6086    1.1276   -0.1016 Cl  0  0  0  0  0  0  0  0  0  0  0  0
    1.2110    2.4179   -1.1730 Cl  0  0  0  0  0  0  0  0  0  0  0  0
   -0.0752    1.6451    1.8674 Cl  0  0  0  0  0  0  0  0  0  0  0  0
   -4.8417    0.0057   -0.0169 Cl  0  0  0  0  0  0  0  0  0  0  0  0
    1.7231   -0.2458   -1.5315 O   0  0  0  0  0  0  0  0  0  0  0  0
    2.0668   -1.0569    1.8104 O   0  0  0  0  0  0  0  0  0  0  0  0
    1.8403   -2.5275    0.0554 N   0  0  0  0  0  0  0  0  0  0  0  0
    1.1538   -0.2604   -0.2214 C   0  0  0  0  0  0  0  0  0  0  0  0
    1.9686    0.8976   -0.7026 C   0  0  0  0  0  0  0  0  0  0  0  0
   -0.3362   -0.1734   -0.1476 C   0  0  0  0  0  0  0  0  0  0  0  0
    1.7215   -1.2965    0.6560 C   0  0  0  0  0  0  0  0  0  0  0  0
   -0.9745    0.6632    0.7680 C   0  0  0  0  0  0  0  0  0  0  0  0
   -1.0913   -0.9544   -1.0227 C   0  0  0  0  0  0  0  0  0  0  0  0
   -2.3677    0.7189    0.8085 C   0  0  0  0  0  0  0  0  0  0  0  0
   -2.4845   -0.8989   -0.9820 C   0  0  0  0  0  0  0  0  0  0  0  0
   -3.1227   -0.0622   -0.0664 C   0  0  0  0  0  0  0  0  0  0  0  0
  1  9  1  0
  2  9  1  0
  3 12  1  0
  4 16  1  0
  5  8  1  0
  5  9  1  0
  6 11  2  0
  7 11  1  0
  8  9  1  0
  8 10  1  0
  8 11  1  0
 10 12  2  0
 10 13  1  0
 12 14  1  0
 13 15  2  0
 14 16  2  0
 15 16  1  0
M  END
>  <PUBCHEM_COMPOUND_CID>  (1) 
32219

>  <PUBCHEM_CONFORMER_RMSD>  (1) 
0.6

>  <PUBCHEM_CONFORMER_DIVERSEORDER>  (1) 
1
2
15
13
12
11
3
17
5
16
14
9
6
10
4
7
8

>  <PUBCHEM_MMFF94_PARTIAL_CHARGES>  (1) 
21
1 -0.23
10 -0.03
11 0.63
12 0.18
13 -0.15
14 -0.15
15 -0.15
16 0.18
17 0.15
18 0.15
19 0.15
2 -0.23
20 0.37
21 0.37
3 -0.18
4 -0.18
5 -0.3
6 -0.57
7 -0.8
8 0.18
9 0.6

>  <PUBCHEM_EFFECTIVE_ROTOR_COUNT>  (1) 
2.6

>  <PUBCHEM_PHARMACOPHORE_FEATURES>  (1) 
4
1 5 acceptor
1 6 acceptor
1 7 donor
6 10 12 13 14 15 16 rings

>  <PUBCHEM_HEAVY_ATOM_COUNT>  (1) 
16

>  <PUBCHEM_ATOM_DEF_STEREO_COUNT>  (1) 
0

>  <PUBCHEM_ATOM_UDEF_STEREO_COUNT>  (1) 
1

>  <PUBCHEM_BOND_DEF_STEREO_COUNT>  (1) 
0

>  <PUBCHEM_BOND_UDEF_STEREO_COUNT>  (1) 
0

>  <PUBCHEM_ISOTOPIC_ATOM_COUNT>  (1) 
0

>  <PUBCHEM_COMPONENT_COUNT>  (1) 
1

>  <PUBCHEM_CACTVS_TAUTO_COUNT>  (1) 
2

>  <PUBCHEM_CONFORMER_ID>  (1) 
00007DDB00000001

>  <PUBCHEM_MMFF94_ENERGY>  (1) 
30.4212

>  <PUBCHEM_FEATURE_SELFOVERLAP>  (1) 
20.297

>  <PUBCHEM_SHAPE_FINGERPRINT>  (1) 
11578080 2 18125407905068344736
12326174 3 17822008688285238818
12423570 1 15693473155973604194
13538477 17 18201716288584333183
14817 1 14566213140251990240
15775835 57 18341333370190371509
16945 1 18262537968760275653
1813 80 18121221970302627334
19765921 60 18124039197695761521
20233049 118 17988927786139172137
20559304 39 18343018861402001659
20645476 183 18340488958519844079
20645477 70 18187080629520570119
20820808 20 18192155004056950133
21947302 44 17240488017477068073
22802520 49 16413546383052071028
23402539 116 17275101760432610500
23419403 2 17837446879216244432
23526113 38 14907640989773764565
23557571 272 16486712306470528920
23559900 14 17274829077776135636
23598291 2 18194133914543878265
2748010 2 15967404941815225681
3286 77 16878217563714634659
4340502 62 18041285464976055579
474 4 18190184674909372596
7364860 26 18341897363973963022
77492 1 18413390929657414966
9981440 41 17263561510211680312

>  <PUBCHEM_SHAPE_MULTIPOLES>  (1) 
320.03
5.82
1.99
1.48
5.14
0.07
0.33
-0.34
-0.47
-1.41
0.08
-0.53
-0.31
-0.99

>  <PUBCHEM_SHAPE_SELFOVERLAP>  (1) 
647.905

>  <PUBCHEM_SHAPE_VOLUME>  (1) 
187.6

>  <PUBCHEM_COORDINATE_TYPE>  (1) 
2
5
10

$$$$
