32214
     RDKit          3D

 14 15  0  0  0  0  0  0  0  0999 V2000
   -0.6379    1.0528   -0.2233 O   0  0  0  0  0  0  0  0  0  0  0  0
    0.4388    0.3121    1.6780 O   0  0  0  0  0  0  0  0  0  0  0  0
    4.0672    0.1657   -0.5487 N   0  0  0  0  0  0  0  0  0  0  0  0
   -1.8954    0.5258    0.1861 C   0  0  0  0  0  0  0  0  0  0  0  0
    5.2611   -0.2855    0.1517 C   0  0  0  0  0  0  0  0  0  0  0  0
    4.5156   -1.2010   -0.7748 C   0  0  0  0  0  0  0  0  0  0  0  0
   -3.0055    1.1128   -0.6848 C   0  0  0  0  0  0  0  0  0  0  0  0
   -1.8633   -0.9996    0.1044 C   0  0  0  0  0  0  0  0  0  0  0  0
   -4.3632    0.5043   -0.3491 C   0  0  0  0  0  0  0  0  0  0  0  0
   -3.2209   -1.6083    0.4402 C   0  0  0  0  0  0  0  0  0  0  0  0
   -4.3306   -1.0202   -0.4283 C   0  0  0  0  0  0  0  0  0  0  0  0
    2.9206    0.1872    0.3510 C   0  0  0  0  0  0  0  0  0  0  0  0
    1.6656    0.6228   -0.3995 C   0  0  0  0  0  0  0  0  0  0  0  0
    0.4479    0.6312    0.4971 C   0  0  0  0  0  0  0  0  0  0  0  0
  1  4  1  0
  1 14  1  0
  2 14  2  0
  3  5  1  0
  3  6  1  0
  3 12  1  0
  4  7  1  0
  4  8  1  0
  5  6  1  0
  7  9  1  0
  8 10  1  0
  9 11  1  0
 10 11  1  0
 12 13  1  0
 13 14  1  0
M  END
>  <PUBCHEM_COMPOUND_CID>  (1) 
32214

>  <PUBCHEM_CONFORMER_RMSD>  (1) 
0.8

>  <PUBCHEM_CONFORMER_DIVERSEORDER>  (1) 
1
29
16
53
33
55
46
18
40
21
28
4
5
8
20
24
2
34
51
57
39
56
48
30
42
6
9
17
45
7
22
49
15
36
12
32
41
11
52
35
37
47
10
31
19
50
13
44
26
14
23
27
43
54
38
3
25

>  <PUBCHEM_MMFF94_PARTIAL_CHARGES>  (1) 
13
1 -0.43
12 0.27
13 0.06
14 0.66
16 0.1
17 0.1
18 0.1
19 0.1
2 -0.57
3 -0.59
4 0.28
5 -0.04
6 -0.04

>  <PUBCHEM_EFFECTIVE_ROTOR_COUNT>  (1) 
6.8

>  <PUBCHEM_PHARMACOPHORE_FEATURES>  (1) 
3
1 2 acceptor
1 3 cation
6 4 7 8 9 10 11 rings

>  <PUBCHEM_HEAVY_ATOM_COUNT>  (1) 
14

>  <PUBCHEM_ATOM_DEF_STEREO_COUNT>  (1) 
0

>  <PUBCHEM_ATOM_UDEF_STEREO_COUNT>  (1) 
0

>  <PUBCHEM_BOND_DEF_STEREO_COUNT>  (1) 
0

>  <PUBCHEM_BOND_UDEF_STEREO_COUNT>  (1) 
0

>  <PUBCHEM_ISOTOPIC_ATOM_COUNT>  (1) 
0

>  <PUBCHEM_COMPONENT_COUNT>  (1) 
1

>  <PUBCHEM_CACTVS_TAUTO_COUNT>  (1) 
1

>  <PUBCHEM_CONFORMER_ID>  (1) 
00007DD600000001

>  <PUBCHEM_MMFF94_ENERGY>  (1) 
19.0718

>  <PUBCHEM_FEATURE_SELFOVERLAP>  (1) 
15.223

>  <PUBCHEM_SHAPE_FINGERPRINT>  (1) 
10465860 250 17775284958510425184
10680689 15 18040438780508126953
11128504 68 16950288429206502774
11287383 113 18410853296071585520
114248 4 18334575750398838756
11543360 7 18187372064336250516
12186901 62 18186513290009878133
12251169 10 12535627180488547856
124424 183 17561081410723353337
12596602 18 14333120888563403502
13081056 2 7853572413915680150
13214271 11 7997970172295482211
13288520 33 18411420605005063348
14123255 352 9079124340653969955
14251731 8 18410292493095130823
14252887 29 16056889013785600372
15209294 21 11455896853470144989
17834072 33 18334018332637790076
17834072 8 18260542321144127863
17834074 16 18413672409119328462
17870717 6 18409457963864867407
18186145 218 16588302838590949852
1986462 14 18334858316054630141
200 152 17632857516414190006
20279233 1 17918280852307302902
20325693 3 18113617881059783639
20374829 77 18410851070682329699
20432913 95 16917072152729637534
20645477 70 18131634470071243038
20671657 53 18272939344543560960
20681677 155 18259701177690543649
20871999 31 18187082857985682389
21119208 17 17967250901185183620
21499 59 14634867552390948552
21652331 79 8718820977517994758
22094290 60 18333731316762890085
22485316 2 18131067151719330502
22926399 37 14056716846610427071
23175994 123 17775568645653918633
23402539 116 18113613469627438340
23402655 69 16878495752877762157
23403322 49 18343585135575857055
23557571 272 18339644438625950716
23559900 14 18340760533180400712
26918003 58 17917711288515708578
4214541 1 18408885113837833172
4921388 177 16950856893808690355
4990 188 18187083940728832592
53428517 29 11167946848541341754
559249 180 18188765046504962882
58051976 100 18186237350987659407
81539 233 13117993384228485400

>  <PUBCHEM_SHAPE_MULTIPOLES>  (1) 
271.39
10.97
1.33
0.93
8.18
0.34
-0.19
2.99
2.23
-0.94
0.09
0.17
-0.02
0.55

>  <PUBCHEM_SHAPE_SELFOVERLAP>  (1) 
536.13

>  <PUBCHEM_SHAPE_VOLUME>  (1) 
161.5

>  <PUBCHEM_COORDINATE_TYPE>  (1) 
2
5
10

$$$$
