32217
     RDKit          3D

 15 15  0  0  0  0  0  0  0  0999 V2000
    2.5409    1.4943    0.8079 F   0  0  0  0  0  0  0  0  0  0  0  0
    2.6544    0.7772   -1.2490 F   0  0  0  0  0  0  0  0  0  0  0  0
    4.9924    0.5993    0.0877 F   0  0  0  0  0  0  0  0  0  0  0  0
    4.1811   -1.3443   -0.4632 F   0  0  0  0  0  0  0  0  0  0  0  0
    0.2796    0.1585   -0.0402 O   0  0  0  0  0  0  0  0  0  0  0  0
   -0.9636   -1.6929    0.5511 O   0  0  0  0  0  0  0  0  0  0  0  0
   -4.4809    0.4711   -0.4932 N   0  0  0  0  0  0  0  0  0  0  0  0
   -5.7570   -0.2083   -0.3214 C   0  0  0  0  0  0  0  0  0  0  0  0
   -5.2822    0.8092    0.6745 C   0  0  0  0  0  0  0  0  0  0  0  0
   -3.3774   -0.4059   -0.1218 C   0  0  0  0  0  0  0  0  0  0  0  0
   -2.0464    0.3261   -0.2667 C   0  0  0  0  0  0  0  0  0  0  0  0
   -0.8781   -0.5452    0.1364 C   0  0  0  0  0  0  0  0  0  0  0  0
    1.4825   -0.5385    0.3003 C   0  0  0  0  0  0  0  0  0  0  0  0
    2.6640    0.3770    0.0476 C   0  0  0  0  0  0  0  0  0  0  0  0
    3.9906   -0.2777    0.3501 C   0  0  0  0  0  0  0  0  0  0  0  0
  1 14  1  0
  2 14  1  0
  3 15  1  0
  4 15  1  0
  5 12  1  0
  5 13  1  0
  6 12  2  0
  7  8  1  0
  7  9  1  0
  7 10  1  0
  8  9  1  0
 10 11  1  0
 11 12  1  0
 13 14  1  0
 14 15  1  0
M  END
>  <PUBCHEM_COMPOUND_CID>  (1) 
32217

>  <PUBCHEM_CONFORMER_RMSD>  (1) 
0.8

>  <PUBCHEM_CONFORMER_DIVERSEORDER>  (1) 
1
204
27
199
164
33
188
87
205
212
202
62
12
24
191
88
110
123
21
206
156
173
197
109
134
157
128
106
214
203
71
160
76
39
61
165
175
207
161
105
91
215
40
63
112
29
198
16
138
174
52
2
196
59
74
50
6
122
45
80
101
125
65
135
89
118
77
10
201
169
42
211
159
120
5
73
129
133
155
98
130
3
22
148
58
19
177
111
213
172
183
200
64
70
192
115
114
84
179
18
78
150
189
35
68
66
151
28
31
90
154
79
43
136
145
186
11
166
113
86
38
85
132
82
83
181
141
54
69
142
184
23
14
60
72
104
108
9
190
127
176
178
124
152
55
75
149
180
36
26
51
153
100
158
107
7
41
185
81
167
4
116
17
147
37
143
126
131
8
97
49
56
53
99
209
117
93
25
119
57
137
48
30
67
168
162
96
210
13
94
92
146
170
34
15
193
139
195
103
187
208
44
144
182
140
47
20
95
163
194
121
171
102
46
32

>  <PUBCHEM_MMFF94_PARTIAL_CHARGES>  (1) 
19
1 -0.34
10 0.27
11 0.06
12 0.66
13 0.28
14 0.68
15 0.68
16 0.1
17 0.1
18 0.1
19 0.1
2 -0.34
3 -0.34
4 -0.34
5 -0.43
6 -0.57
7 -0.59
8 -0.04
9 -0.04

>  <PUBCHEM_EFFECTIVE_ROTOR_COUNT>  (1) 
7.6

>  <PUBCHEM_PHARMACOPHORE_FEATURES>  (1) 
2
1 6 acceptor
1 7 cation

>  <PUBCHEM_HEAVY_ATOM_COUNT>  (1) 
15

>  <PUBCHEM_ATOM_DEF_STEREO_COUNT>  (1) 
0

>  <PUBCHEM_ATOM_UDEF_STEREO_COUNT>  (1) 
0

>  <PUBCHEM_BOND_DEF_STEREO_COUNT>  (1) 
0

>  <PUBCHEM_BOND_UDEF_STEREO_COUNT>  (1) 
0

>  <PUBCHEM_ISOTOPIC_ATOM_COUNT>  (1) 
0

>  <PUBCHEM_COMPONENT_COUNT>  (1) 
1

>  <PUBCHEM_CACTVS_TAUTO_COUNT>  (1) 
1

>  <PUBCHEM_CONFORMER_ID>  (1) 
00007DD900000001

>  <PUBCHEM_MMFF94_ENERGY>  (1) 
14.7879

>  <PUBCHEM_FEATURE_SELFOVERLAP>  (1) 
10.148

>  <PUBCHEM_SHAPE_FINGERPRINT>  (1) 
10354089 29 17240202131537211505
11287383 113 16988838419404805367
114248 4 16200149902664282361
12815109 37 10664100052002603995
12916748 109 18333734598001807665
13081056 2 18408600362207186037
13533116 47 18059856117511454730
14123238 8 15554727772244763481
1420 363 17967257503362430947
14252887 29 9295292776128754012
15048467 5 18114746031804172892
15375358 24 11383827186390138829
17834072 33 18060132168070622983
17834072 8 18408892810952003598
17834076 25 18410854369211743366
18186145 218 18338504309771498173
187816 3 17561083613983560531
200 152 17346880044278443099
20279233 1 12751239237320676565
20645477 56 18260263092087315476
20645477 70 17988365871425915422
20767249 13 11527945655947394725
212847 35 18408324397409791444
21354914 41 18412545392657904879
23402539 116 17918268749495754909
23402655 69 18201999940819117486
23536379 177 17418094295781359523
23557571 272 12247411093645720074
23559900 14 18271804666097605080
351380 180 18273494572298485497
366044 4 18334293175968899547
4047638 21 18334576849947363850
42788 4 18344144787115441361
4990 188 17989490718938799399
522135 26 17312820464052946034
542803 24 18334577945032226973
68521 5 11167952355138425619

>  <PUBCHEM_SHAPE_MULTIPOLES>  (1) 
262.88
12.59
1.13
0.79
6.69
0.14
-0.04
-1.6
-0.26
-0.44
0.13
-0.03
-0.09
-0.02

>  <PUBCHEM_SHAPE_SELFOVERLAP>  (1) 
519.706

>  <PUBCHEM_SHAPE_VOLUME>  (1) 
157.7

>  <PUBCHEM_COORDINATE_TYPE>  (1) 
2
5
10

$$$$
