32215
     RDKit          3D

 15 16  0  0  0  0  0  0  0  0999 V2000
    0.1363    0.2036   -0.0003 O   0  0  0  0  0  0  0  0  0  0  0  0
   -1.3537    1.8506   -0.6249 O   0  0  0  0  0  0  0  0  0  0  0  0
   -4.5309   -0.7253    0.5647 N   0  0  0  0  0  0  0  0  0  0  0  0
   -5.8894   -0.2288    0.3982 C   0  0  0  0  0  0  0  0  0  0  0  0
   -5.2993   -1.2082   -0.5739 C   0  0  0  0  0  0  0  0  0  0  0  0
   -3.5615    0.2775    0.1412 C   0  0  0  0  0  0  0  0  0  0  0  0
   -2.1421   -0.2647    0.2814 C   0  0  0  0  0  0  0  0  0  0  0  0
   -1.1081    0.7399   -0.1748 C   0  0  0  0  0  0  0  0  0  0  0  0
    1.2289    1.0426   -0.3890 C   0  0  0  0  0  0  0  0  0  0  0  0
    2.5310    0.3597   -0.1559 C   0  0  0  0  0  0  0  0  0  0  0  0
    3.1861    0.5001    1.0692 C   0  0  0  0  0  0  0  0  0  0  0  0
    3.1012   -0.4232   -1.1617 C   0  0  0  0  0  0  0  0  0  0  0  0
    4.4061   -0.1396    1.2877 C   0  0  0  0  0  0  0  0  0  0  0  0
    4.3214   -1.0629   -0.9433 C   0  0  0  0  0  0  0  0  0  0  0  0
    4.9738   -0.9212    0.2814 C   0  0  0  0  0  0  0  0  0  0  0  0
  1  8  1  0
  1  9  1  0
  2  8  2  0
  3  4  1  0
  3  5  1  0
  3  6  1  0
  4  5  1  0
  6  7  1  0
  7  8  1  0
  9 10  1  0
 10 11  2  0
 10 12  1  0
 11 13  1  0
 12 14  2  0
 13 15  2  0
 14 15  1  0
M  END
>  <PUBCHEM_COMPOUND_CID>  (1) 
32215

>  <PUBCHEM_CONFORMER_RMSD>  (1) 
0.8

>  <PUBCHEM_CONFORMER_DIVERSEORDER>  (1) 
1
42
50
11
2
14
25
45
31
28
49
37
34
35
8
44
6
23
52
21
47
22
9
5
30
53
51
24
19
33
12
29
26
46
32
27
4
10
20
41
13
15
36
40
17
18
3
38
7
48
16
43
39

>  <PUBCHEM_MMFF94_PARTIAL_CHARGES>  (1) 
24
1 -0.43
10 -0.14
11 -0.15
12 -0.15
13 -0.15
14 -0.15
15 -0.15
16 0.1
17 0.1
18 0.1
19 0.1
2 -0.57
26 0.15
27 0.15
28 0.15
29 0.15
3 -0.59
30 0.15
4 -0.04
5 -0.04
6 0.27
7 0.06
8 0.66
9 0.42

>  <PUBCHEM_EFFECTIVE_ROTOR_COUNT>  (1) 
6.6

>  <PUBCHEM_PHARMACOPHORE_FEATURES>  (1) 
3
1 2 acceptor
1 3 cation
6 10 11 12 13 14 15 rings

>  <PUBCHEM_HEAVY_ATOM_COUNT>  (1) 
15

>  <PUBCHEM_ATOM_DEF_STEREO_COUNT>  (1) 
0

>  <PUBCHEM_ATOM_UDEF_STEREO_COUNT>  (1) 
0

>  <PUBCHEM_BOND_DEF_STEREO_COUNT>  (1) 
0

>  <PUBCHEM_BOND_UDEF_STEREO_COUNT>  (1) 
0

>  <PUBCHEM_ISOTOPIC_ATOM_COUNT>  (1) 
0

>  <PUBCHEM_COMPONENT_COUNT>  (1) 
1

>  <PUBCHEM_CACTVS_TAUTO_COUNT>  (1) 
1

>  <PUBCHEM_CONFORMER_ID>  (1) 
00007DD700000001

>  <PUBCHEM_MMFF94_ENERGY>  (1) 
29.5832

>  <PUBCHEM_FEATURE_SELFOVERLAP>  (1) 
15.223

>  <PUBCHEM_SHAPE_FINGERPRINT>  (1) 
100836 57 10807932678237711474
10354089 29 15554446306195623738
10378564 45 12613016280803437658
10688039 33 16988847159204558409
12596602 18 15913329104572565039
12730499 353 11025797565628716801
13533116 47 16630253523712092126
13675066 3 17561083583623487525
13760787 5 16660653937867123613
13836976 161 15791731897664371426
13862211 1 18261107487332718483
14123238 8 12895072916534797827
1420 369 18410293609860656031
14251752 14 17095515163872890669
14252887 29 17917716773215397350
14366163 111 12468353565685027415
14528608 73 11818993002427673659
14848160 23 18059852874794873727
15242439 84 11602823484388866448
15880784 105 17632296808840333995
15885798 251 18412827988452651641
17834076 25 9727633903628666155
18222031 100 18335422387110677229
19141452 34 18131068272932927735
200 152 17168141230569715893
20369508 70 17603583058406952476
20374829 77 18260547836024573351
20432913 95 18060425711425510723
20645477 56 10519982664618772953
20645477 70 14129050392566317552
212847 35 10159702382779140006
21354914 88 18409731768098331393
221357 26 13407069301632703686
22224240 67 17988069089628541994
22289505 5 12829203382470315102
23402539 116 18411695487760940597
23402655 69 12685092592097662888
23559900 14 17458631180304859212
23590187 198 18343022207614184799
23590187 302 14923943461980425764
26918003 58 17489588969946448571
2767999 5 11383833745053100147
2916195 48 8862940555097717975
29717793 49 16805603629862596022
3004659 81 16298382449033019370
3060560 45 14129062504685198538
314173 85 18409171008794794745
32948 21 15936680515332236373
3472631 163 11095585823996920850
351380 3 18040434399731123579
3545911 37 11240002265178725544
4047638 21 9583519815465364700
42 15 17775289356651706161
465052 167 18187091671343353075
49783359 22 17847058900534926311
5104073 3 17559954312710578810
522135 26 14779263116364273672
5374978 207 18411135861664105760
542803 24 11383832670957692163
5924683 9 16558175134006798943
960060 61 16153710933484726566

>  <PUBCHEM_SHAPE_MULTIPOLES>  (1) 
291.97
13.89
1.22
1.05
11.85
0.04
-0.06
-5.47
-2.48
0.02
0.27
-0.9
0.02
0.51

>  <PUBCHEM_SHAPE_SELFOVERLAP>  (1) 
595.863

>  <PUBCHEM_SHAPE_VOLUME>  (1) 
170.4

>  <PUBCHEM_COORDINATE_TYPE>  (1) 
2
5
10

$$$$
