32222
     RDKit          3D

 26 27  0  0  1  0  0  0  0  0999 V2000
   -5.8338   -0.2793    0.3439 O   0  0  0  0  0  0  0  0  0  0  0  0
   -5.5456    1.9667    0.8026 O   0  0  0  0  0  0  0  0  0  0  0  0
    8.8810   -0.9250   -0.2489 O   0  0  0  0  0  0  0  0  0  0  0  0
    2.7408    0.8118   -0.6789 N   0  0  0  0  0  0  0  0  0  0  0  0
   -7.9272   -1.5203    0.3875 C   0  0  0  0  0  0  0  0  0  0  0  0
   -7.8087   -2.0637   -1.0495 C   0  0  0  0  0  0  0  0  0  0  0  0
   -7.2298   -0.1674    0.5833 C   0  0  0  0  0  0  0  0  0  0  0  0
   -7.3652   -2.5563    1.3678 C   0  0  0  0  0  0  0  0  0  0  0  0
   -8.4070   -1.1395   -2.1002 C   0  0  0  0  0  0  0  0  0  0  0  0
   -5.1109    0.8696    0.4901 C   0  0  0  0  0  0  0  0  0  0  0  0
   -3.6928    0.5579    0.2009 C   0  0  0  0  0  0  0  0  0  0  0  0
   -1.3324    1.3411    0.0360 C   0  0  0  0  0  0  0  0  0  0  0  0
   -2.7720    1.5283    0.2885 C   0  0  0  0  0  0  0  0  0  0  0  0
   -0.9100    0.2483   -0.7033 C   0  0  0  0  0  0  0  0  0  0  0  0
   -0.4293    2.2617    0.5426 C   0  0  0  0  0  0  0  0  0  0  0  0
    1.3745    0.9893   -0.4392 C   0  0  0  0  0  0  0  0  0  0  0  0
    0.4529    0.0712   -0.9425 C   0  0  0  0  0  0  0  0  0  0  0  0
    0.9334    2.0845    0.3033 C   0  0  0  0  0  0  0  0  0  0  0  0
    4.8337   -0.1589    0.0823 C   0  0  0  0  0  0  0  0  0  0  0  0
    3.3910    0.1126    0.2003 C   0  0  0  0  0  0  0  0  0  0  0  0
    5.4645   -0.9119    1.0598 C   0  0  0  0  0  0  0  0  0  0  0  0
    5.5333    0.3428   -1.0037 C   0  0  0  0  0  0  0  0  0  0  0  0
    7.5483   -0.6717   -0.1390 C   0  0  0  0  0  0  0  0  0  0  0  0
    6.8308   -1.1699    0.9483 C   0  0  0  0  0  0  0  0  0  0  0  0
    6.8995    0.0846   -1.1151 C   0  0  0  0  0  0  0  0  0  0  0  0
    9.4808   -1.7065    0.7832 C   0  0  0  0  0  0  0  0  0  0  0  0
  1  7  1  0
  1 10  1  0
  2 10  2  0
  3 23  1  0
  3 26  1  0
  4 16  1  0
  4 20  2  0
  5  6  1  0
  5  7  1  0
  5  8  1  0
  6  9  1  0
 10 11  1  0
 11 13  2  0
 12 13  1  0
 12 14  2  0
 12 15  1  0
 14 17  1  0
 15 18  2  0
 16 17  2  0
 16 18  1  0
 19 20  1  0
 19 21  2  0
 19 22  1  0
 21 24  1  0
 22 25  2  0
 23 24  2  0
 23 25  1  0
M  END
>  <PUBCHEM_COMPOUND_CID>  (1) 
32222

>  <PUBCHEM_CONFORMER_RMSD>  (1) 
1

>  <PUBCHEM_CONFORMER_DIVERSEORDER>  (1) 
1
11
27
32
30
28
24
19
3
31
13
5
12
16
7
26
14
29
18
6
17
8
21
10
22
23
20
2
9
25
4
15

>  <PUBCHEM_MMFF94_PARTIAL_CHARGES>  (1) 
33
1 -0.43
10 0.71
11 -0.14
12 0.03
13 -0.18
14 -0.15
15 -0.15
16 0.18
17 -0.15
18 -0.15
19 0.09
2 -0.57
20 0.3
21 -0.15
22 -0.15
23 0.08
24 -0.15
25 -0.15
26 0.28
3 -0.36
38 0.15
39 0.15
4 -0.63
40 0.15
41 0.15
42 0.15
43 0.15
44 0.15
45 0.15
46 0.06
47 0.15
48 0.15
7 0.28

>  <PUBCHEM_EFFECTIVE_ROTOR_COUNT>  (1) 
9

>  <PUBCHEM_PHARMACOPHORE_FEATURES>  (1) 
7
1 2 acceptor
1 3 acceptor
1 4 acceptor
1 8 hydrophobe
1 9 hydrophobe
6 12 14 15 16 17 18 rings
6 19 21 22 23 24 25 rings

>  <PUBCHEM_HEAVY_ATOM_COUNT>  (1) 
26

>  <PUBCHEM_ATOM_DEF_STEREO_COUNT>  (1) 
0

>  <PUBCHEM_ATOM_UDEF_STEREO_COUNT>  (1) 
1

>  <PUBCHEM_BOND_DEF_STEREO_COUNT>  (1) 
0

>  <PUBCHEM_BOND_UDEF_STEREO_COUNT>  (1) 
1

>  <PUBCHEM_ISOTOPIC_ATOM_COUNT>  (1) 
0

>  <PUBCHEM_COMPONENT_COUNT>  (1) 
1

>  <PUBCHEM_CACTVS_TAUTO_COUNT>  (1) 
1

>  <PUBCHEM_CONFORMER_ID>  (1) 
00007DDE00000001

>  <PUBCHEM_MMFF94_ENERGY>  (1) 
74.2468

>  <PUBCHEM_FEATURE_SELFOVERLAP>  (1) 
35.522

>  <PUBCHEM_SHAPE_FINGERPRINT>  (1) 
10162869 55 17749392586007349212
10299344 5 18187651288713031792
10533779 47 15698011704267016302
106641 1 18060416920334272808
11135609 99 18338239366060872791
11181472 205 8574441941432704022
11386260 185 15574723529763241854
11456790 92 13614525130340463822
11578821 258 9150583813980173402
12089408 11 18334861589574161484
12236239 1 18188495675637713932
12498461 61 18131062728362750918
12539765 74 9151175372304162688
12592606 108 18261111876588685442
12838863 1 17987792055991563423
13383668 90 16515399704071519099
13692114 37 18186518818276971178
14178184 131 18270965777618779159
14251764 18 18408888451079825399
15183329 4 16153705423052378609
15198563 99 14923939003688835974
155225 1 9727636098995563307
15690457 1 18334294258585202298
1754908 1 16630526236839538903
1768 4 9007062392363119095
1818759 1 18409174311244921715
195137 175 8430317935382918047
20105231 36 17560806503347841822
20721686 146 9222963551817754643
21095123 145 16917067784695214989
21095123 293 11527946768460671210
21267235 1 18341898480855474316
21315763 28 18333454227317372164
21585482 111 10807672064440248699
22224240 67 16200429152310253877
23389318 12 17894918451284899740
23522609 53 18046099048920050045
23576562 1 13985522459922585011
3383291 50 18271810150824446927
3711267 37 10663823009216833443
4169191 19 9295299318234306107
4339292 15 18271798030615843085
44389302 135 18267018367951019922
5718773 13 18410011061711658315
5758199 1 12751239190129102189
5937810 71 13118272656398812735
59682541 35 18060697295572288128
636775 8 18410864235485014462
6691757 9 15410885263538387397
9953998 17 15985107427758672223
9962374 69 18341890823123769732

>  <PUBCHEM_SHAPE_MULTIPOLES>  (1) 
512.48
32.69
2.2
1.25
3.99
0.08
0.33
26.57
0.34
-3.03
-0.59
-1.41
0.45
-1.65

>  <PUBCHEM_SHAPE_SELFOVERLAP>  (1) 
1067.86

>  <PUBCHEM_SHAPE_VOLUME>  (1) 
291.8

>  <PUBCHEM_COORDINATE_TYPE>  (1) 
2
5
10

$$$$
