32228
     RDKit          3D

 18 19  0  0  1  0  0  0  0  0999 V2000
   -1.7210   -1.2299    0.6619 O   0  0  0  0  0  0  0  0  0  0  0  0
    2.3340   -0.4209    0.0554 O   0  0  0  0  0  0  0  0  0  0  0  0
   -4.9395    0.2761   -1.5775 O   0  0  0  0  0  0  0  0  0  0  0  0
    5.7913   -0.2321   -0.4178 O   0  0  0  0  0  0  0  0  0  0  0  0
    4.4298   -1.9502   -0.2376 O   0  0  0  0  0  0  0  0  0  0  0  0
   -3.8884   -0.4667    0.3644 N   0  0  0  0  0  0  0  0  0  0  0  0
   -0.8342    1.2871    0.4961 N   0  0  0  0  0  0  0  0  0  0  0  0
   -0.3486   -1.0350    0.4072 N   0  0  0  0  0  0  0  0  0  0  0  0
    4.6257   -0.6998   -0.2598 N   0  0  0  0  0  0  0  0  0  0  0  0
   -2.5328   -0.3378   -0.0763 C   0  0  0  0  0  0  0  0  0  0  0  0
    1.4231    0.5807    0.1844 C   0  0  0  0  0  0  0  0  0  0  0  0
    0.0167    0.2128    0.3750 C   0  0  0  0  0  0  0  0  0  0  0  0
   -2.0805    1.0430    0.2643 C   0  0  0  0  0  0  0  0  0  0  0  0
    2.0436    1.8074    0.1051 C   0  0  0  0  0  0  0  0  0  0  0  0
    3.5458    0.1717   -0.1074 C   0  0  0  0  0  0  0  0  0  0  0  0
    3.4207    1.5414   -0.0842 C   0  0  0  0  0  0  0  0  0  0  0  0
   -4.9882   -0.1477   -0.4258 C   0  0  0  0  0  0  0  0  0  0  0  0
   -6.2974   -0.4003    0.2727 C   0  0  0  0  0  0  0  0  0  0  0  0
  1  8  1  0
  1 10  1  0
  2 11  1  0
  2 15  1  0
  3 17  2  0
  4  9  1  0
  5  9  2  0
  6 10  1  0
  6 17  1  0
  7 12  1  0
  7 13  2  0
  8 12  2  0
  9 15  1  0
 10 13  1  0
 11 12  1  0
 11 14  2  0
 14 16  1  0
 15 16  2  0
 17 18  1  0
M  CHG  2   4  -1   9   1
M  END
>  <PUBCHEM_COMPOUND_CID>  (1) 
32228

>  <PUBCHEM_CONFORMER_RMSD>  (1) 
0.6

>  <PUBCHEM_CONFORMER_DIVERSEORDER>  (1) 
1
17
13
2
18
12
6
22
28
19
16
20
26
15
14
5
11
21
3
4
24
23
27
29
7
25
9
10
8

>  <PUBCHEM_MMFF94_PARTIAL_CHARGES>  (1) 
22
1 -0.22
10 0.64
11 0.05
12 0.75
13 0.33
14 -0.15
15 0.22
16 -0.15
17 0.57
18 0.06
2 -0.28
20 0.06
21 0.37
22 0.15
23 0.15
3 -0.57
4 -0.52
5 -0.52
6 -0.73
7 -0.66
8 -0.51
9 0.96

>  <PUBCHEM_EFFECTIVE_ROTOR_COUNT>  (1) 
4.4

>  <PUBCHEM_PHARMACOPHORE_FEATURES>  (1) 
10
1 2 acceptor
1 3 acceptor
1 4 acceptor
1 4 anion
1 5 acceptor
1 6 donor
1 7 acceptor
3 7 8 12 cation
5 2 11 14 15 16 rings
6 1 7 8 10 12 13 rings

>  <PUBCHEM_HEAVY_ATOM_COUNT>  (1) 
18

>  <PUBCHEM_ATOM_DEF_STEREO_COUNT>  (1) 
0

>  <PUBCHEM_ATOM_UDEF_STEREO_COUNT>  (1) 
1

>  <PUBCHEM_BOND_DEF_STEREO_COUNT>  (1) 
0

>  <PUBCHEM_BOND_UDEF_STEREO_COUNT>  (1) 
0

>  <PUBCHEM_ISOTOPIC_ATOM_COUNT>  (1) 
0

>  <PUBCHEM_COMPONENT_COUNT>  (1) 
1

>  <PUBCHEM_CACTVS_TAUTO_COUNT>  (1) 
2

>  <PUBCHEM_CONFORMER_ID>  (1) 
00007DE400000001

>  <PUBCHEM_MMFF94_ENERGY>  (1) 
35.6791

>  <PUBCHEM_FEATURE_SELFOVERLAP>  (1) 
50.838

>  <PUBCHEM_SHAPE_FINGERPRINT>  (1) 
10354089 29 8430315740712586926
11089746 13 13695873644597527958
11471102 20 18411136965423046072
12236239 1 17846501452640164049
12403259 415 18113610197279343469
12555020 224 18412541016160505831
12670543 26 18335976485526761757
13081056 2 18186798106471404797
13237642 15 10952051164885367679
13533116 47 18131632283763986762
13690532 89 18412827971282890192
13760787 5 18272370901717013721
13862211 1 18412823568778199802
14251752 14 17095795534657838454
14252887 29 10880002383946472036
14350574 20 18408605868107177261
14573314 32 18040149587332494695
14911166 2 18334012800107748897
15048467 5 11602542026296639022
15099037 51 18409167718527930151
15242439 84 18113619001545094443
17834072 8 18260265252677307567
17834076 25 13912322386807569681
18186145 218 17968366944421669681
200 152 18060700580747665057
20369508 70 18272367590350028160
20645477 70 18411984663165814838
21150785 3 17167870784894844406
21267235 1 18340778082242185450
21354914 41 18334856126000980727
221357 26 18408597055140605013
23402539 116 17918274238553818217
23402655 69 18411698820001642357
23557571 272 17313103025914800415
23559900 14 18339922739996148520
2871803 45 18261392226431462714
29717793 49 17989491809512495428
3004659 81 18260548927020210488
3286 77 17275099543981630969
32948 21 17895188874709500796
3545911 37 18261394480888366448
465052 167 18202289116809587134
542803 24 14129055915646235789
633830 44 17386282211464060123
69090 78 18343581867005420471
90127 26 17313107479569526193

>  <PUBCHEM_SHAPE_MULTIPOLES>  (1) 
321.16
13.09
1.46
0.78
6.29
0.08
0.16
-3.13
2.64
-1.56
-0.07
0.68
0.03
0.34

>  <PUBCHEM_SHAPE_SELFOVERLAP>  (1) 
682.801

>  <PUBCHEM_SHAPE_VOLUME>  (1) 
177.9

>  <PUBCHEM_COORDINATE_TYPE>  (1) 
2
5
10

$$$$
