3222
     RDKit          2D

 27 28  0  0  1  0  0  0  0  0999 V2000
    0.0000    0.0000    0.0000 O   0  0  0  0  0  0  0  0  0  0  0  0
    0.0000    0.0000    0.0000 O   0  0  0  0  0  0  0  0  0  0  0  0
    0.0000    0.0000    0.0000 O   0  0  0  0  0  0  0  0  0  0  0  0
    0.0000    0.0000    0.0000 O   0  0  0  0  0  0  0  0  0  0  0  0
    0.0000    0.0000    0.0000 O   0  0  0  0  0  0  0  0  0  0  0  0
    0.0000    0.0000    0.0000 N   0  0  0  0  0  0  0  0  0  0  0  0
    0.0000    0.0000    0.0000 N   0  0  0  0  0  0  0  0  0  0  0  0
    0.0000    0.0000    0.0000 C   0  0  0  0  0  0  0  0  0  0  0  0
    0.0000    0.0000    0.0000 C   0  0  0  0  0  0  0  0  0  0  0  0
    0.0000    0.0000    0.0000 C   0  0  0  0  0  0  0  0  0  0  0  0
    0.0000    0.0000    0.0000 C   0  0  0  0  0  0  0  0  0  0  0  0
    0.0000    0.0000    0.0000 C   0  0  0  0  0  0  0  0  0  0  0  0
    0.0000    0.0000    0.0000 C   0  0  0  0  0  0  0  0  0  0  0  0
    0.0000    0.0000    0.0000 C   0  0  0  0  0  0  0  0  0  0  0  0
    0.0000    0.0000    0.0000 C   0  0  0  0  0  0  0  0  0  0  0  0
    0.0000    0.0000    0.0000 C   0  0  0  0  0  0  0  0  0  0  0  0
    0.0000    0.0000    0.0000 C   0  0  0  0  0  0  0  0  0  0  0  0
    0.0000    0.0000    0.0000 C   0  0  0  0  0  0  0  0  0  0  0  0
    0.0000    0.0000    0.0000 C   0  0  0  0  0  0  0  0  0  0  0  0
    0.0000    0.0000    0.0000 C   0  0  0  0  0  0  0  0  0  0  0  0
    0.0000    0.0000    0.0000 C   0  0  0  0  0  0  0  0  0  0  0  0
    0.0000    0.0000    0.0000 C   0  0  0  0  0  0  0  0  0  0  0  0
    0.0000    0.0000    0.0000 C   0  0  0  0  0  0  0  0  0  0  0  0
    0.0000    0.0000    0.0000 C   0  0  0  0  0  0  0  0  0  0  0  0
    0.0000    0.0000    0.0000 C   0  0  0  0  0  0  0  0  0  0  0  0
    0.0000    0.0000    0.0000 C   0  0  0  0  0  0  0  0  0  0  0  0
    0.0000    0.0000    0.0000 C   0  0  0  0  0  0  0  0  0  0  0  0
  1 12  2  0
  2 14  1  0
  3 14  2  0
  4 19  1  0
  4 23  1  0
  5 19  2  0
  6  8  1  0
  6 11  1  0
  6 12  1  0
  7 13  1  0
  7 15  1  0
  8  9  1  0
  8 14  1  0
  9 10  1  0
 10 11  1  0
 12 13  1  0
 13 17  1  0
 15 16  1  0
 15 19  1  0
 16 18  1  0
 18 20  1  0
 20 21  2  0
 20 22  1  0
 21 24  1  0
 22 25  2  0
 23 27  1  0
 24 26  2  0
 25 26  1  0
M  END
>  <PUBCHEM_COMPOUND_CID>  (1) 
3222

>  <PUBCHEM_CONFORMER_RMSD>  (1) 
1

>  <PUBCHEM_CONFORMER_DIVERSEORDER>  (1) 
17
117
187
96
137
72
68
39
2
186
140
152
147
139
20
130
11
92
106
149
16
170
174
108
182
169
27
29
59
83
5
44
188
168
184
73
122
8
123
113
128
162
79
69
125
3
56
49
179
62
57
24
183
40
30
101
118
88
165
60
58
71
61
76
91
90
7
158
66
119
4
185
190
94
143
177
99
115
153
67
95
42
157
135
192
120
22
34
77
53
85
131
146
171
172
21
80
75
43
144
111
50
32
98
100
36
121
138
41
129
175
48
9
133
132
134
104
93
103
63
35
127
173
167
26
155
54
89
33
19
124
112
15
160
102
181
176
74
116
78
151
109
23
161
10
114
12
166
64
84
86
150
163
154
65
189
110
105
159
51
70
13
55
25
178
142
87
37
145
107
31
28
191
126
180
136
6
164
141
38
14
46
1
45
148
47
18
156
52
81
97
82

>  <PUBCHEM_MMFF94_PARTIAL_CHARGES>  (1) 
29
1 -0.57
11 0.3
12 0.57
13 0.33
14 0.66
15 0.33
18 0.14
19 0.66
2 -0.65
20 -0.14
21 -0.15
22 -0.15
23 0.28
24 -0.15
25 -0.15
26 -0.15
3 -0.57
37 0.36
4 -0.43
45 0.5
46 0.15
47 0.15
5 -0.57
50 0.15
51 0.15
52 0.15
6 -0.66
7 -0.9
8 0.36

>  <PUBCHEM_EFFECTIVE_ROTOR_COUNT>  (1) 
12

>  <PUBCHEM_PHARMACOPHORE_FEATURES>  (1) 
9
1 1 acceptor
1 2 acceptor
1 3 acceptor
1 5 acceptor
1 7 cation
1 7 donor
3 2 3 14 anion
5 6 8 9 10 11 rings
6 20 21 22 24 25 26 rings

>  <PUBCHEM_HEAVY_ATOM_COUNT>  (1) 
27

>  <PUBCHEM_ATOM_DEF_STEREO_COUNT>  (1) 
0

>  <PUBCHEM_ATOM_UDEF_STEREO_COUNT>  (1) 
3

>  <PUBCHEM_BOND_DEF_STEREO_COUNT>  (1) 
0

>  <PUBCHEM_BOND_UDEF_STEREO_COUNT>  (1) 
0

>  <PUBCHEM_ISOTOPIC_ATOM_COUNT>  (1) 
0

>  <PUBCHEM_COMPONENT_COUNT>  (1) 
1

>  <PUBCHEM_CACTVS_TAUTO_COUNT>  (1) 
1

$$$$
