32221
     RDKit          3D

 21 21  0  0  0  0  0  0  0  0999 V2000
    3.5870   -0.9529   -0.0122 O   0  0  0  0  0  0  0  0  0  0  0  0
    5.8783   -1.2727   -0.0158 N   0  0  0  0  0  0  0  0  0  0  0  0
    4.9296    0.9312    0.0005 N   0  0  0  0  0  0  0  0  0  0  0  0
    7.3127    0.6509   -0.0035 N   0  0  0  0  0  0  0  0  0  0  0  0
    8.2107   -1.5153   -0.0195 N   0  0  0  0  0  0  0  0  0  0  0  0
    6.3565    2.7921    0.0119 N   0  0  0  0  0  0  0  0  0  0  0  0
   -3.8996   -0.5753    0.0207 C   0  0  0  0  0  0  0  0  0  0  0  0
   -5.1490    0.3120    0.0080 C   0  0  0  0  0  0  0  0  0  0  0  0
   -2.5919    0.2199    0.0291 C   0  0  0  0  0  0  0  0  0  0  0  0
   -6.4929   -0.4211    0.0888 C   0  0  0  0  0  0  0  0  0  0  0  0
   -1.3432   -0.6679    0.0291 C   0  0  0  0  0  0  0  0  0  0  0  0
   -7.7021    0.5145    0.0119 C   0  0  0  0  0  0  0  0  0  0  0  0
   -0.0345    0.1262    0.0129 C   0  0  0  0  0  0  0  0  0  0  0  0
   -9.0434   -0.2263    0.0040 C   0  0  0  0  0  0  0  0  0  0  0  0
    1.1794   -0.8085   -0.0148 C   0  0  0  0  0  0  0  0  0  0  0  0
  -10.2532    0.7034   -0.0996 C   0  0  0  0  0  0  0  0  0  0  0  0
    2.4968   -0.0425   -0.0051 C   0  0  0  0  0  0  0  0  0  0  0  0
  -11.5580   -0.0756   -0.0270 C   0  0  0  0  0  0  0  0  0  0  0  0
    4.8463   -0.4109   -0.0091 C   0  0  0  0  0  0  0  0  0  0  0  0
    7.0789   -0.6713   -0.0128 C   0  0  0  0  0  0  0  0  0  0  0  0
    6.1915    1.3900    0.0026 C   0  0  0  0  0  0  0  0  0  0  0  0
  1 17  1  0
  1 19  1  0
  2 19  2  0
  2 20  1  0
  3 19  1  0
  3 21  2  0
  4 20  2  0
  4 21  1  0
  5 20  1  0
  6 21  1  0
  7  8  1  0
  7  9  1  0
  8 10  1  0
  9 11  1  0
 10 12  1  0
 11 13  1  0
 12 14  1  0
 13 15  1  0
 14 16  1  0
 15 17  1  0
 16 18  1  0
M  END
>  <PUBCHEM_COMPOUND_CID>  (1) 
32221

>  <PUBCHEM_CONFORMER_RMSD>  (1) 
1.2

>  <PUBCHEM_CONFORMER_DIVERSEORDER>  (1) 
1
141
89
146
12
56
147
99
124
105
114
162
13
29
98
25
109
80
130
33
4
24
15
115
148
7
121
152
95
84
5
68
75
139
138
143
96
67
38
3
48
61
136
74
31
44
86
55
51
53
144
117
161
160
20
40
35
70
58
43
156
151
81
17
65
158
23
47
110
73
2
26
90
9
154
111
49
159
41
106
34
37
137
66
91
52
129
135
150
30
78
101
87
21
127
134
39
76
149
94
153
60
59
77
122
63
145
11
46
100
155
128
140
88
131
112
82
28
45
142
120
32
72
6
54
103
113
8
93
64
116
79
104
18
132
157
62
126
69
97
71
36
42
118
10
83
16
125
22
107
119
14
85
27
108
133
92
57
50
123
19
102

>  <PUBCHEM_MMFF94_PARTIAL_CHARGES>  (1) 
14
1 -0.36
17 0.28
19 0.7
2 -0.62
20 0.72
21 0.72
3 -0.62
4 -0.62
47 0.4
48 0.4
49 0.4
5 -0.9
50 0.4
6 -0.9

>  <PUBCHEM_EFFECTIVE_ROTOR_COUNT>  (1) 
12

>  <PUBCHEM_PHARMACOPHORE_FEATURES>  (1) 
6
1 18 hydrophobe
1 5 donor
1 6 donor
4 2 4 5 20 cation
4 3 4 6 21 cation
6 2 3 4 19 20 21 rings

>  <PUBCHEM_HEAVY_ATOM_COUNT>  (1) 
21

>  <PUBCHEM_ATOM_DEF_STEREO_COUNT>  (1) 
0

>  <PUBCHEM_ATOM_UDEF_STEREO_COUNT>  (1) 
0

>  <PUBCHEM_BOND_DEF_STEREO_COUNT>  (1) 
0

>  <PUBCHEM_BOND_UDEF_STEREO_COUNT>  (1) 
0

>  <PUBCHEM_ISOTOPIC_ATOM_COUNT>  (1) 
0

>  <PUBCHEM_COMPONENT_COUNT>  (1) 
1

>  <PUBCHEM_CACTVS_TAUTO_COUNT>  (1) 
5

>  <PUBCHEM_CONFORMER_ID>  (1) 
00007DDD00000001

>  <PUBCHEM_MMFF94_ENERGY>  (1) 
30.6428

>  <PUBCHEM_FEATURE_SELFOVERLAP>  (1) 
30.489

>  <PUBCHEM_SHAPE_FINGERPRINT>  (1) 
10299344 5 18131912667708377223
11315181 36 18273218608882933459
11638347 137 16515397452500184754
14123256 10 15051733079979758191
14251764 18 17775007886539779361
14251764 46 16343702128413628439
14251920 1 18409448073620781634
15510794 2 18334862723598924419
155225 1 18411419548923753920
15840311 113 18333734645468280420
16120349 18 18412261761549894677
20812841 46 18259702306961214504
21150785 3 17632859724723634415
21315763 28 18411982442751962888
21362267 2 18337939182750920877
21362267 313 18265610980097317611
21792934 111 18201431485461675192
22224240 67 17822009818030663827
232437 2 18410856560721503503
23521765 1 18341894082982776651
23581129 1 18409449176171849287
246663 6 12463571786217569867
249057 3 15267054870511751321
33684 2 18272088284648189491
5283156 175 17775004570566635054
59682541 35 17821451270871901265
67123 10 18411699890466383167
8209 1 18412544306495376651

>  <PUBCHEM_SHAPE_MULTIPOLES>  (1) 
401.4
39.75
1.39
0.59
69.44
0.75
0
4
0.55
-3.93
0
0.17
0
0.08

>  <PUBCHEM_SHAPE_SELFOVERLAP>  (1) 
772.487

>  <PUBCHEM_SHAPE_VOLUME>  (1) 
240.9

>  <PUBCHEM_COORDINATE_TYPE>  (1) 
2
5
10

$$$$
