32235
     RDKit          3D

 14 15  0  0  0  0  0  0  0  0999 V2000
    0.3161    1.5404    0.0200 O   0  0  0  0  0  0  0  0  0  0  0  0
    2.2399   -0.4251    0.0269 N   0  0  0  0  0  0  0  0  0  0  0  0
    4.2307    0.1223   -0.7349 N   0  0  0  0  0  0  0  0  0  0  0  0
    0.8285   -0.8136    0.0178 C   0  0  0  0  0  0  0  0  0  0  0  0
   -0.1388    0.3785    0.0129 C   0  0  0  0  0  0  0  0  0  0  0  0
   -1.5740    0.1428    0.0019 C   0  0  0  0  0  0  0  0  0  0  0  0
    2.9924   -0.2171    1.1329 C   0  0  0  0  0  0  0  0  0  0  0  0
    3.0055   -0.2155   -1.0708 C   0  0  0  0  0  0  0  0  0  0  0  0
   -2.0676   -1.1618   -0.0043 C   0  0  0  0  0  0  0  0  0  0  0  0
   -2.4570    1.2225   -0.0011 C   0  0  0  0  0  0  0  0  0  0  0  0
    4.2294    0.1225    0.6376 C   0  0  0  0  0  0  0  0  0  0  0  0
   -3.4442   -1.3866   -0.0131 C   0  0  0  0  0  0  0  0  0  0  0  0
   -3.8337    0.9976   -0.0099 C   0  0  0  0  0  0  0  0  0  0  0  0
   -4.3273   -0.3070   -0.0159 C   0  0  0  0  0  0  0  0  0  0  0  0
  1  5  2  0
  2  4  1  0
  2  7  1  0
  2  8  1  0
  3  8  2  0
  3 11  1  0
  4  5  1  0
  5  6  1  0
  6  9  2  0
  6 10  1  0
  7 11  2  0
  9 12  1  0
 10 13  2  0
 12 14  2  0
 13 14  1  0
M  END
>  <PUBCHEM_COMPOUND_CID>  (1) 
32235

>  <PUBCHEM_CONFORMER_RMSD>  (1) 
0.6

>  <PUBCHEM_CONFORMER_DIVERSEORDER>  (1) 
1
37
16
9
34
2
40
15
39
6
3
7
41
38
27
10
26
42
31
23
8
36
28
25
29
24
35
21
32
11
22
30
4
33
13
5
14
12
20
19
17
18

>  <PUBCHEM_MMFF94_PARTIAL_CHARGES>  (1) 
22
1 -0.57
10 -0.15
11 0.08
12 -0.15
13 -0.15
14 -0.15
17 0.15
18 0.15
19 0.15
2 0.05
20 0.15
21 0.15
22 0.15
23 0.15
24 0.15
3 -0.57
4 0.32
5 0.42
6 0.09
7 -0.3
8 0.04
9 -0.15

>  <PUBCHEM_EFFECTIVE_ROTOR_COUNT>  (1) 
3

>  <PUBCHEM_PHARMACOPHORE_FEATURES>  (1) 
4
1 1 acceptor
3 2 3 8 cation
5 2 3 7 8 11 rings
6 6 9 10 12 13 14 rings

>  <PUBCHEM_HEAVY_ATOM_COUNT>  (1) 
14

>  <PUBCHEM_ATOM_DEF_STEREO_COUNT>  (1) 
0

>  <PUBCHEM_ATOM_UDEF_STEREO_COUNT>  (1) 
0

>  <PUBCHEM_BOND_DEF_STEREO_COUNT>  (1) 
0

>  <PUBCHEM_BOND_UDEF_STEREO_COUNT>  (1) 
0

>  <PUBCHEM_ISOTOPIC_ATOM_COUNT>  (1) 
0

>  <PUBCHEM_COMPONENT_COUNT>  (1) 
1

>  <PUBCHEM_CACTVS_TAUTO_COUNT>  (1) 
2

>  <PUBCHEM_CONFORMER_ID>  (1) 
00007DEB00000001

>  <PUBCHEM_MMFF94_ENERGY>  (1) 
27.414

>  <PUBCHEM_FEATURE_SELFOVERLAP>  (1) 
20.297

>  <PUBCHEM_SHAPE_FINGERPRINT>  (1) 
11062470 55 17603586322196748118
11132069 177 18410854347736913391
11615757 297 15267339634584247291
12236239 1 17749389265470101890
13296908 3 17988925561055579286
14144814 61 18408321068899515675
14252887 29 17918001580780891470
15375358 24 18130786750336809359
15375462 189 17967809431643676969
15536298 74 18269836569942975256
17804303 29 18341332275306007401
18175812 5 17846777412340783468
18186145 218 13262679210006284380
19026448 4 17418093213001117082
19026448 5 17458062655404337638
19050596 39 17967812738873944176
1986462 14 18342459231495132559
200 152 16153420649540478878
20279233 1 17846499227235356846
20281475 54 18114176445350780155
20645477 56 18338800010007337045
22485316 2 18342173362593012550
22854114 59 17346595287683039114
23402539 116 16515677840623361303
23557571 272 18271253720087620588
23559900 14 18270964536134944518
449060 50 17060333067625978512
474 4 16879362322991880996
573450 72 18187353307865740603
7364860 26 18126847328939675921

>  <PUBCHEM_SHAPE_MULTIPOLES>  (1) 
272.28
9.05
1.25
0.84
2.32
0.07
0
-0.29
0.01
-1.14
0
0.8
-0.03
0.01

>  <PUBCHEM_SHAPE_SELFOVERLAP>  (1) 
584.209

>  <PUBCHEM_SHAPE_VOLUME>  (1) 
152

>  <PUBCHEM_COORDINATE_TYPE>  (1) 
2
5
10

$$$$
