32248
     RDKit          3D

 25 28  0  0  0  0  0  0  0  0999 V2000
   -3.5810    0.8867   -0.1919 S   0  0  0  0  0  0  0  0  0  0  0  0
   -2.6677    4.2007   -1.5619 O   0  0  0  0  0  0  0  0  0  0  0  0
    1.0316   -0.2586    0.6619 N   0  0  0  0  0  0  0  0  0  0  0  0
    4.6620   -0.6945   -0.0853 N   0  0  0  0  0  0  0  0  0  0  0  0
    0.2472   -1.3544    0.5807 N   0  0  0  0  0  0  0  0  0  0  0  0
   -0.9473    0.5502    0.2802 C   0  0  0  0  0  0  0  0  0  0  0  0
    0.3660    0.9239    0.4886 C   0  0  0  0  0  0  0  0  0  0  0  0
    2.4448   -0.4227    0.9127 C   0  0  0  0  0  0  0  0  0  0  0  0
   -0.9735   -0.8561    0.3453 C   0  0  0  0  0  0  0  0  0  0  0  0
    3.2416   -0.5570   -0.3817 C   0  0  0  0  0  0  0  0  0  0  0  0
   -1.9448    1.4987    0.0608 C   0  0  0  0  0  0  0  0  0  0  0  0
   -2.2040   -1.6122    0.1695 C   0  0  0  0  0  0  0  0  0  0  0  0
   -1.5738    2.8460    0.0581 C   0  0  0  0  0  0  0  0  0  0  0  0
    0.7673    2.2593    0.4918 C   0  0  0  0  0  0  0  0  0  0  0  0
   -3.4176   -0.9190   -0.0748 C   0  0  0  0  0  0  0  0  0  0  0  0
    5.1528    0.4766    0.6438 C   0  0  0  0  0  0  0  0  0  0  0  0
    5.4304   -0.8835   -1.3171 C   0  0  0  0  0  0  0  0  0  0  0  0
   -0.2378    3.2145    0.2706 C   0  0  0  0  0  0  0  0  0  0  0  0
   -2.2019   -3.0122    0.2388 C   0  0  0  0  0  0  0  0  0  0  0  0
   -2.5805    3.9277   -0.1699 C   0  0  0  0  0  0  0  0  0  0  0  0
   -4.5988   -1.6581   -0.2433 C   0  0  0  0  0  0  0  0  0  0  0  0
    6.6166    0.3169    1.0177 C   0  0  0  0  0  0  0  0  0  0  0  0
    4.9380   -2.0947   -2.0909 C   0  0  0  0  0  0  0  0  0  0  0  0
   -3.3877   -3.7262    0.0684 C   0  0  0  0  0  0  0  0  0  0  0  0
   -4.5819   -3.0518   -0.1720 C   0  0  0  0  0  0  0  0  0  0  0  0
  1 11  1  0
  1 15  1  0
  2 20  1  0
  3  5  1  0
  3  7  1  0
  3  8  1  0
  4 10  1  0
  4 16  1  0
  4 17  1  0
  5  9  2  0
  6  7  1  0
  6  9  1  0
  6 11  2  0
  7 14  2  0
  8 10  1  0
  9 12  1  0
 11 13  1  0
 12 15  2  0
 12 19  1  0
 13 18  2  0
 13 20  1  0
 14 18  1  0
 15 21  1  0
 16 22  1  0
 17 23  1  0
 19 24  2  0
 21 25  2  0
 24 25  1  0
M  END
>  <PUBCHEM_COMPOUND_CID>  (1) 
32248

>  <PUBCHEM_CONFORMER_RMSD>  (1) 
0.8

>  <PUBCHEM_CONFORMER_DIVERSEORDER>  (1) 
3
19
1
18
20
4
13
14
17
21
10
12
11
16
6
2
15
7
9
8
5

>  <PUBCHEM_MMFF94_PARTIAL_CHARGES>  (1) 
29
1 -0.2
10 0.27
11 0.1
12 0.05
13 -0.14
14 -0.15
15 0.1
16 0.27
17 0.27
18 -0.15
19 -0.15
2 -0.68
20 0.42
21 -0.15
24 -0.15
25 -0.15
3 0.31
30 0.15
35 0.15
36 0.15
39 0.15
4 -0.81
46 0.15
47 0.15
48 0.4
5 -0.71
7 -0.15
8 0.26
9 0.23

>  <PUBCHEM_EFFECTIVE_ROTOR_COUNT>  (1) 
6.2

>  <PUBCHEM_PHARMACOPHORE_FEATURES>  (1) 
8
1 2 acceptor
1 2 donor
1 4 cation
1 5 acceptor
5 3 5 6 7 9 rings
6 1 6 9 11 12 15 rings
6 12 15 19 21 24 25 rings
6 6 7 11 13 14 18 rings

>  <PUBCHEM_HEAVY_ATOM_COUNT>  (1) 
25

>  <PUBCHEM_ATOM_DEF_STEREO_COUNT>  (1) 
0

>  <PUBCHEM_ATOM_UDEF_STEREO_COUNT>  (1) 
0

>  <PUBCHEM_BOND_DEF_STEREO_COUNT>  (1) 
0

>  <PUBCHEM_BOND_UDEF_STEREO_COUNT>  (1) 
0

>  <PUBCHEM_ISOTOPIC_ATOM_COUNT>  (1) 
0

>  <PUBCHEM_COMPONENT_COUNT>  (1) 
1

>  <PUBCHEM_CACTVS_TAUTO_COUNT>  (1) 
1

>  <PUBCHEM_CONFORMER_ID>  (1) 
00007DF800000003

>  <PUBCHEM_MMFF94_ENERGY>  (1) 
57.6599

>  <PUBCHEM_FEATURE_SELFOVERLAP>  (1) 
40.819

>  <PUBCHEM_SHAPE_FINGERPRINT>  (1) 
10254770 206 16750159390312896070
10319926 262 18196911341989468090
10411042 1 18193271012828235635
10967382 1 17688301709580541633
1100329 8 18411420618518219625
11056379 131 18338521841490435868
11069576 57 16904101493583768511
12553582 1 18336818780016439211
12788726 201 18260539018056217579
13140716 1 18339355383559145577
138480 1 15961173966592375849
14251757 5 18408045095886875919
14508225 48 18267009726053995317
14790565 3 17836369242141880073
14866123 147 18341620265922075763
14910302 57 18341056212056973726
15927050 60 17982451487180131909
15961568 22 18264208200797810788
16087824 20 18408879604745304333
17492 89 17618499222323868131
1813 80 18198637698702108486
19301676 85 16902732051635660926
19427546 20 18334858303381101604
19958102 18 18192428563318978390
20101258 96 18263093244065932411
21033650 10 18188226303551503330
21267235 1 18265051521826395667
22182313 1 18199165438629655960
23557571 272 18343017788150762328
23559900 14 18195797699344307027
23929065 36 18265309812178999480
255183 451 18053105318049276447
283562 15 18407755936923646147
3103668 31 18334286553746475597
335352 9 18338510946102872559
394222 165 17175459369548070449
4280585 95 18265603454386401170
4409770 3 18262788585019541309
5283173 99 18411136892804162916
58779409 8 18265333897938636117
5969126 39 18341882039530423534
7237137 82 18187362129602031020
7399639 24 18058719351653306040
9709674 26 18272091544354196566

>  <PUBCHEM_SHAPE_MULTIPOLES>  (1) 
497.53
11.73
4.86
1.1
19.64
2.98
-0.45
-7.62
-1.6
-7.3
-1.18
1.45
-0.1
2.07

>  <PUBCHEM_SHAPE_SELFOVERLAP>  (1) 
1069.01

>  <PUBCHEM_SHAPE_VOLUME>  (1) 
278.6

>  <PUBCHEM_COORDINATE_TYPE>  (1) 
2
5
10

$$$$
