32242
     RDKit          3D

 45 51  0  0  1  0  0  0  0  0999 V2000
    2.1078    0.4256   -0.4894 O   0  0  0  0  0  0  0  0  0  0  0  0
   -0.2843    2.5615   -1.5907 O   0  0  0  0  0  0  0  0  0  0  0  0
    0.1534    0.1214   -2.1908 O   0  0  0  0  0  0  0  0  0  0  0  0
    4.1572    1.6489   -0.3900 O   0  0  0  0  0  0  0  0  0  0  0  0
   -4.4825    0.0927   -1.8857 O   0  0  0  0  0  0  0  0  0  0  0  0
   -4.4014    2.4269   -0.2340 O   0  0  0  0  0  0  0  0  0  0  0  0
    4.5610   -0.9700   -1.2063 O   0  0  0  0  0  0  0  0  0  0  0  0
   -2.9480   -0.2725    1.4232 O   0  0  0  0  0  0  0  0  0  0  0  0
    5.7553    1.3798    1.2565 O   0  0  0  0  0  0  0  0  0  0  0  0
   -3.7714    4.5602   -0.8577 O   0  0  0  0  0  0  0  0  0  0  0  0
    5.5686   -2.9368   -0.5331 O   0  0  0  0  0  0  0  0  0  0  0  0
   -2.4285   -2.4841   -0.5782 N   0  0  0  0  0  0  0  0  0  0  0  0
    1.0686    0.3015    0.5268 C   0  0  0  0  0  0  0  0  0  0  0  0
    1.8370   -0.0609    1.8180 C   0  0  0  0  0  0  0  0  0  0  0  0
    0.3615    1.6707    0.6332 C   0  0  0  0  0  0  0  0  0  0  0  0
   -0.6879    1.7030   -0.5234 C   0  0  0  0  0  0  0  0  0  0  0  0
   -0.7504    0.2356   -1.0574 C   0  0  0  0  0  0  0  0  0  0  0  0
    2.9772    0.9606    1.6314 C   0  0  0  0  0  0  0  0  0  0  0  0
   -0.0629   -0.6080    0.0419 C   0  0  0  0  0  0  0  0  0  0  0  0
    3.3753    0.6118    0.1836 C   0  0  0  0  0  0  0  0  0  0  0  0
   -2.1197   -0.2397   -1.6213 C   0  0  0  0  0  0  0  0  0  0  0  0
    1.3777    2.8060    0.7436 C   0  0  0  0  0  0  0  0  0  0  0  0
    2.4934    2.4370    1.7426 C   0  0  0  0  0  0  0  0  0  0  0  0
   -3.4051    0.2920   -0.9362 C   0  0  0  0  0  0  0  0  0  0  0  0
    2.4161   -1.5095    1.8068 C   0  0  0  0  0  0  0  0  0  0  0  0
   -2.0218    2.2472    0.0219 C   0  0  0  0  0  0  0  0  0  0  0  0
   -3.2386    1.8283   -0.7953 C   0  0  0  0  0  0  0  0  0  0  0  0
    4.1373   -0.7202    0.1337 C   0  0  0  0  0  0  0  0  0  0  0  0
    1.0627    0.0822    3.1373 C   0  0  0  0  0  0  0  0  0  0  0  0
    3.2488   -1.8736    0.5830 C   0  0  0  0  0  0  0  0  0  0  0  0
   -3.8174   -0.5560    0.3274 C   0  0  0  0  0  0  0  0  0  0  0  0
   -2.2021   -1.7597   -1.8315 C   0  0  0  0  0  0  0  0  0  0  0  0
   -3.7245   -2.1106    0.0360 C   0  0  0  0  0  0  0  0  0  0  0  0
   -5.2574   -0.2384    0.8031 C   0  0  0  0  0  0  0  0  0  0  0  0
   -3.9494   -2.9452    1.3278 C   0  0  0  0  0  0  0  0  0  0  0  0
   -2.3285   -3.9297   -0.8433 C   0  0  0  0  0  0  0  0  0  0  0  0
   -2.4552   -4.7721    0.4292 C   0  0  0  0  0  0  0  0  0  0  0  0
   -3.7810   -4.4465    1.1118 C   0  0  0  0  0  0  0  0  0  0  0  0
    5.3315    1.9333    0.2509 C   0  0  0  0  0  0  0  0  0  0  0  0
   -4.3739    3.7892   -0.1232 C   0  0  0  0  0  0  0  0  0  0  0  0
    5.2708   -2.1202   -1.3942 C   0  0  0  0  0  0  0  0  0  0  0  0
   -1.2586   -4.5739    1.3654 C   0  0  0  0  0  0  0  0  0  0  0  0
    6.0465    3.0407   -0.4622 C   0  0  0  0  0  0  0  0  0  0  0  0
   -5.2028    4.2212    1.0484 C   0  0  0  0  0  0  0  0  0  0  0  0
    5.6457   -2.2501   -2.8394 C   0  0  0  0  0  0  0  0  0  0  0  0
  1 13  1  0
  1 20  1  0
  2 16  1  0
  3 17  1  0
  4 20  1  0
  4 39  1  0
  5 24  1  0
  6 27  1  0
  6 40  1  0
  7 28  1  0
  7 41  1  0
  8 31  1  0
  9 39  2  0
 10 40  2  0
 11 41  2  0
 12 32  1  0
 12 33  1  0
 12 36  1  0
 13 14  1  0
 13 15  1  0
 13 19  1  0
 14 18  1  0
 14 25  1  0
 14 29  1  0
 15 16  1  0
 15 22  1  0
 16 17  1  0
 16 26  1  0
 17 19  1  0
 17 21  1  0
 18 20  1  0
 18 23  1  0
 20 28  1  0
 21 24  1  0
 21 32  1  0
 22 23  1  0
 24 27  1  0
 24 31  1  0
 25 30  1  0
 26 27  1  0
 28 30  1  0
 31 33  1  0
 31 34  1  0
 33 35  1  0
 35 38  1  0
 36 37  1  0
 37 38  1  0
 37 42  1  0
 39 43  1  0
 40 44  1  0
 41 45  1  0
M  END
>  <PUBCHEM_COMPOUND_CID>  (1) 
32242

>  <PUBCHEM_CONFORMER_RMSD>  (1) 
1.2

>  <PUBCHEM_CONFORMER_DIVERSEORDER>  (1) 
1
4
2
3

>  <PUBCHEM_MMFF94_PARTIAL_CHARGES>  (1) 
33
1 -0.56
10 -0.57
11 -0.57
12 -0.81
13 0.28
16 0.28
17 0.28
2 -0.68
20 0.56
24 0.28
27 0.28
28 0.28
3 -0.68
31 0.28
32 0.27
33 0.27
36 0.27
39 0.66
4 -0.43
40 0.66
41 0.66
43 0.06
44 0.06
45 0.06
5 -0.68
6 -0.43
69 0.4
7 -0.43
70 0.4
71 0.4
79 0.4
8 -0.68
9 -0.57

>  <PUBCHEM_EFFECTIVE_ROTOR_COUNT>  (1) 
9

>  <PUBCHEM_PHARMACOPHORE_FEATURES>  (1) 
19
1 1 acceptor
1 10 acceptor
1 11 acceptor
1 12 cation
1 2 acceptor
1 2 donor
1 3 acceptor
1 3 donor
1 5 acceptor
1 5 donor
1 8 acceptor
1 8 donor
1 9 acceptor
5 13 15 16 17 19 rings
6 12 21 24 31 32 33 rings
6 12 33 35 36 37 38 rings
6 16 17 21 24 26 27 rings
8 1 13 14 15 18 20 22 23 rings
8 1 13 14 18 20 25 28 30 rings

>  <PUBCHEM_HEAVY_ATOM_COUNT>  (1) 
45

>  <PUBCHEM_ATOM_DEF_STEREO_COUNT>  (1) 
11

>  <PUBCHEM_ATOM_UDEF_STEREO_COUNT>  (1) 
3

>  <PUBCHEM_BOND_DEF_STEREO_COUNT>  (1) 
0

>  <PUBCHEM_BOND_UDEF_STEREO_COUNT>  (1) 
0

>  <PUBCHEM_ISOTOPIC_ATOM_COUNT>  (1) 
0

>  <PUBCHEM_COMPONENT_COUNT>  (1) 
1

>  <PUBCHEM_CACTVS_TAUTO_COUNT>  (1) 
1

>  <PUBCHEM_CONFORMER_ID>  (1) 
00007DF200000001

>  <PUBCHEM_MMFF94_ENERGY>  (1) 
192.0449

>  <PUBCHEM_FEATURE_SELFOVERLAP>  (1) 
97.625

>  <PUBCHEM_SHAPE_FINGERPRINT>  (1) 
10462674 296 17334771376015047518
11434127 23 18193544795660781846
11621639 254 17611776761187297532
12156800 1 16014716055601969491
12422481 6 14763245340861234246
12633046 712 17775573043684391138
12788726 201 18265873909236568443
13008946 113 17040087442181400125
13224815 77 17313644040789869186
13782708 43 17847058891913486623
14790565 3 18192991526394957069
14856354 85 18193838377849495934
15001296 14 17896321496430468391
15200665 1 18269273461539715033
15230672 131 18046352920790613846
15357212 105 18337691762015817268
15361156 5 18270679878170873054
15927050 60 18123749756541186703
16112460 7 18272942604676446633
17349148 13 11311767427546593416
17909252 39 18050294961800786458
19304144 158 18341322410231183576
19315092 285 15049442895611079710
19319366 153 17242735277463031611
20764821 26 17903340525412438739
20775530 9 17757257555378463507
21033648 29 18201424849515981537
22440779 20 17827113810598486723
23559900 14 18410005554846309580
3737641 26 18271251646225103774
4058900 60 17763191241534133817
4073 2 18410853274796929668
4144715 1 18411706499646092040
460360 51 18272942608887445980
463206 1 17466223446082369267
469060 322 15430310369572693147
5265222 85 18264781964571041613
6086070 43 16271913918144163120
6371380 46 18198059184019074641
6695519 79 17129008671640458650

>  <PUBCHEM_SHAPE_MULTIPOLES>  (1) 
856.54
12.6
5.99
2.11
10.31
1.8
-0.06
-1.61
2.01
-6.86
-0.57
1.16
0.7
2.55

>  <PUBCHEM_SHAPE_SELFOVERLAP>  (1) 
1869.097

>  <PUBCHEM_SHAPE_VOLUME>  (1) 
457.8

>  <PUBCHEM_COORDINATE_TYPE>  (1) 
2
5
10

$$$$
