32253
     RDKit          3D

 17 18  0  0  0  0  0  0  0  0999 V2000
   -3.8776    2.3877   -0.5629 Cl  0  0  0  0  0  0  0  0  0  0  0  0
   -3.3566   -2.8804    0.4880 Cl  0  0  0  0  0  0  0  0  0  0  0  0
    2.7699    1.1344    0.2950 O   0  0  0  0  0  0  0  0  0  0  0  0
    1.4548   -1.9064   -0.7508 O   0  0  0  0  0  0  0  0  0  0  0  0
    0.9829    2.4134    0.8060 O   0  0  0  0  0  0  0  0  0  0  0  0
    0.7483    0.2019    0.0453 N   0  0  0  0  0  0  0  0  0  0  0  0
    3.0293   -0.2203   -0.0800 C   0  0  0  0  0  0  0  0  0  0  0  0
    1.6486   -0.7843   -0.3035 C   0  0  0  0  0  0  0  0  0  0  0  0
    3.8502   -0.2337   -1.3606 C   0  0  0  0  0  0  0  0  0  0  0  0
    3.7296   -0.9324    1.0684 C   0  0  0  0  0  0  0  0  0  0  0  0
    1.4217    1.3436    0.4061 C   0  0  0  0  0  0  0  0  0  0  0  0
   -0.6753    0.0555    0.0176 C   0  0  0  0  0  0  0  0  0  0  0  0
   -1.2574   -1.1953    0.2397 C   0  0  0  0  0  0  0  0  0  0  0  0
   -1.4906    1.1629   -0.2308 C   0  0  0  0  0  0  0  0  0  0  0  0
   -2.8780    1.0206   -0.2567 C   0  0  0  0  0  0  0  0  0  0  0  0
   -2.6448   -1.3376    0.2137 C   0  0  0  0  0  0  0  0  0  0  0  0
   -3.4550   -0.2297   -0.0345 C   0  0  0  0  0  0  0  0  0  0  0  0
  1 15  1  0
  2 16  1  0
  3  7  1  0
  3 11  1  0
  4  8  2  0
  5 11  2  0
  6  8  1  0
  6 11  1  0
  6 12  1  0
  7  8  1  0
  7  9  1  0
  7 10  1  0
 12 13  2  0
 12 14  1  0
 13 16  1  0
 14 15  2  0
 15 17  1  0
 16 17  2  0
M  END
>  <PUBCHEM_COMPOUND_CID>  (1) 
32253

>  <PUBCHEM_CONFORMER_RMSD>  (1) 
0.6

>  <PUBCHEM_CONFORMER_DIVERSEORDER>  (1) 
1
3
2

>  <PUBCHEM_MMFF94_PARTIAL_CHARGES>  (1) 
18
1 -0.18
11 0.78
12 0.12
13 -0.15
14 -0.15
15 0.18
16 0.18
17 -0.15
2 -0.18
24 0.15
25 0.15
26 0.15
3 -0.43
4 -0.57
5 -0.57
6 -0.24
7 0.34
8 0.57

>  <PUBCHEM_EFFECTIVE_ROTOR_COUNT>  (1) 
1.6

>  <PUBCHEM_PHARMACOPHORE_FEATURES>  (1) 
5
1 4 acceptor
1 5 acceptor
3 7 9 10 hydrophobe
5 3 6 7 8 11 rings
6 12 13 14 15 16 17 rings

>  <PUBCHEM_HEAVY_ATOM_COUNT>  (1) 
17

>  <PUBCHEM_ATOM_DEF_STEREO_COUNT>  (1) 
0

>  <PUBCHEM_ATOM_UDEF_STEREO_COUNT>  (1) 
0

>  <PUBCHEM_BOND_DEF_STEREO_COUNT>  (1) 
0

>  <PUBCHEM_BOND_UDEF_STEREO_COUNT>  (1) 
0

>  <PUBCHEM_ISOTOPIC_ATOM_COUNT>  (1) 
0

>  <PUBCHEM_COMPONENT_COUNT>  (1) 
1

>  <PUBCHEM_CACTVS_TAUTO_COUNT>  (1) 
1

>  <PUBCHEM_CONFORMER_ID>  (1) 
00007DFD00000001

>  <PUBCHEM_MMFF94_ENERGY>  (1) 
45.9332

>  <PUBCHEM_FEATURE_SELFOVERLAP>  (1) 
25.371

>  <PUBCHEM_SHAPE_FINGERPRINT>  (1) 
10608611 8 18411976992291044017
10967382 1 18195526987259980809
1100329 8 16468118134467369713
12032990 46 18272380780031024878
12403259 226 18268709583546232003
124424 183 18337101281067748880
12500047 106 18335417920523907541
12654215 9 18272647914127758340
12730499 353 17756701941762206701
13140716 1 18413385457858914096
13296908 3 17988928872591487030
13380535 76 18340480050535943847
13760787 19 18040720234141772450
14115302 16 18261962821368700844
14144814 61 18411418401507498963
14965852 173 18408603686485168019
15219456 202 18341891939187506057
15375358 24 18200866279938103884
15653759 3 18335138721610766923
16945 1 18341899536894942944
17804303 29 18410299133388831311
18186145 218 18201723941899374505
18522853 266 18334017168100252991
19026448 5 17530685403067435142
19049666 15 18412544275955754601
19422 9 17894349981887214914
200 152 17632569470723033671
20201158 50 18342457010765042311
20233049 118 18409733945952809764
20279233 1 18272086063258534551
20281475 54 18259702302613369754
20645477 56 18335704893275275117
20645477 70 17346319250282482462
20871999 31 18335149703784107694
21501502 16 18335139833896662989
21524375 3 18043243540687497301
221490 88 18339931531614660138
2334 1 18196931286699316201
23402539 116 18268694035511445492
23557571 272 18342470222406120655
23558518 356 18187645868559509665
23559900 14 18410567414004722464
25 1 18195241114527208445
2748010 2 18270392922705148112
2871803 45 18264765635527738743
3084891 72 18123742063616332465
31174 14 17913211150452734825
3312278 4 18340774762279944936
5104073 3 18411979182581616312
5902787 121 18409724080154364138
6049 1 18270686483962351545
69090 78 18341325631160399095
7364860 26 18127413577681025688
74978 22 18409443687419942457
81228 2 17771354075903720512
8809292 202 18408326605049297107
9709674 26 18341612603357956991

>  <PUBCHEM_SHAPE_MULTIPOLES>  (1) 
331
7.48
2.59
0.91
0.88
0.3
0.08
0.43
0.58
-2.88
-0.27
0.72
0.02
0.76

>  <PUBCHEM_SHAPE_SELFOVERLAP>  (1) 
694.838

>  <PUBCHEM_SHAPE_VOLUME>  (1) 
191.4

>  <PUBCHEM_COORDINATE_TYPE>  (1) 
2
5
10

$$$$
