32255
     RDKit          3D

 30 33  0  0  1  0  0  0  0  0999 V2000
    0.0684    1.8431   -0.6815 S   0  0  0  0  0  0  0  0  0  0  0  0
   -4.5401    0.5233   -1.0000 S   0  0  0  0  0  0  0  0  0  0  0  0
   -7.5451    0.6578   -1.4700 S   0  0  0  0  0  0  0  0  0  0  0  0
    0.9153   -2.7280   -0.6757 O   0  0  0  0  0  0  0  0  0  0  0  0
   -2.2375   -2.5224    1.3737 O   0  0  0  0  0  0  0  0  0  0  0  0
    3.9311    1.5620    0.1957 O   0  0  0  0  0  0  0  0  0  0  0  0
   -2.5210   -2.5744   -0.8950 O   0  0  0  0  0  0  0  0  0  0  0  0
    8.1425   -0.4120   -0.9217 O   0  0  0  0  0  0  0  0  0  0  0  0
    9.1978    1.6452   -0.6846 O   0  0  0  0  0  0  0  0  0  0  0  0
   -0.1163   -0.7171   -0.0032 N   0  0  0  0  0  0  0  0  0  0  0  0
    3.0908   -0.5954    0.3455 N   0  0  0  0  0  0  0  0  0  0  0  0
    6.4222    0.1011    0.5762 N   0  0  0  0  0  0  0  0  0  0  0  0
    6.9443   -0.9583   -0.2699 N   0  0  0  0  0  0  0  0  0  0  0  0
   -6.4759    0.6245    0.8586 N   0  0  0  0  0  0  0  0  0  0  0  0
   -7.8414    0.6884    1.0749 N   0  0  0  0  0  0  0  0  0  0  0  0
    0.7203    0.4409    0.2539 C   0  0  0  0  0  0  0  0  0  0  0  0
    1.8628   -0.3569   -0.4121 C   0  0  0  0  0  0  0  0  0  0  0  0
    0.8706   -1.5545   -0.3893 C   0  0  0  0  0  0  0  0  0  0  0  0
   -1.4641   -0.7261    0.1620 C   0  0  0  0  0  0  0  0  0  0  0  0
   -2.1677    0.4232    0.2977 C   0  0  0  0  0  0  0  0  0  0  0  0
   -1.5413    1.8108    0.1777 C   0  0  0  0  0  0  0  0  0  0  0  0
   -3.6519    0.4930    0.5657 C   0  0  0  0  0  0  0  0  0  0  0  0
    4.0348    0.4009    0.5883 C   0  0  0  0  0  0  0  0  0  0  0  0
   -2.1324   -2.0354    0.1217 C   0  0  0  0  0  0  0  0  0  0  0  0
    5.2202   -0.0782    1.3895 C   0  0  0  0  0  0  0  0  0  0  0  0
    7.1982    1.1077    0.5011 C   0  0  0  0  0  0  0  0  0  0  0  0
   -6.2083    0.6036   -0.4170 C   0  0  0  0  0  0  0  0  0  0  0  0
    8.3229    0.8457   -0.4354 C   0  0  0  0  0  0  0  0  0  0  0  0
   -8.5142    0.7118   -0.0557 C   0  0  0  0  0  0  0  0  0  0  0  0
   -9.9849    0.7757   -0.1713 C   0  0  0  0  0  0  0  0  0  0  0  0
  1 16  1  0
  1 21  1  0
  2 22  1  0
  2 27  1  0
  3 27  1  0
  3 29  1  0
  4 18  2  0
  5 24  1  0
  6 23  2  0
  7 24  2  0
  8 13  1  0
  8 28  1  0
  9 28  2  0
 10 16  1  0
 10 18  1  0
 10 19  1  0
 11 17  1  0
 11 23  1  0
 12 13  1  0
 12 25  1  0
 12 26  2  0
 14 15  1  0
 14 27  2  0
 15 29  2  0
 16 17  1  0
 17 18  1  0
 19 20  2  0
 19 24  1  0
 20 21  1  0
 20 22  1  0
 23 25  1  0
 26 28  1  0
 29 30  1  0
M  CHG  1  12   1
M  END
>  <PUBCHEM_COMPOUND_CID>  (1) 
32255

>  <PUBCHEM_CONFORMER_RMSD>  (1) 
1.2

>  <PUBCHEM_CONFORMER_DIVERSEORDER>  (1) 
1
341
48
370
102
514
124
108
409
49
12
469
73
336
408
156
266
35
515
252
239
74
481
525
5
229
11
55
225
533
410
345
425
220
112
198
399
358
157
37
452
42
114
177
45
376
510
76
441
405
303
406
153
115
101
319
479
250
30
53
361
442
217
70
84
416
338
189
476
359
236
128
448
293
397
94
99
201
281
151
434
318
15
314
423
254
492
46
172
349
258
3
97
287
294
312
28
91
50
23
223
272
67
119
324
77
107
216
146
503
274
262
136
10
218
130
100
17
59
162
353
269
403
21
72
244
154
14
290
163
139
131
122
149
83
58
56
431
264
118
169
80
116
25
165
26
9
29
138
57
248
2
7
302
20

>  <PUBCHEM_MMFF94_PARTIAL_CHARGES>  (1) 
34
1 -0.45
10 -0.39
11 -0.65
12 0.08
13 -0.29
14 -0.34
15 -0.34
16 0.44
17 0.28
18 0.58
19 0.12
2 -0.29
20 -0.28
21 0.37
22 0.37
23 0.57
24 0.71
25 0.41
26 0.34
27 0.43
28 0.72
29 0.2
3 -0.08
30 0.18
35 0.37
4 -0.57
40 0.5
41 0.06
42 0.36
5 -0.65
6 -0.57
7 -0.57
8 -0.05
9 -0.57

>  <PUBCHEM_EFFECTIVE_ROTOR_COUNT>  (1) 
8.6

>  <PUBCHEM_PHARMACOPHORE_FEATURES>  (1) 
13
1 11 donor
1 14 acceptor
1 15 acceptor
1 4 acceptor
1 5 acceptor
1 6 acceptor
1 7 acceptor
1 9 acceptor
3 5 7 24 anion
4 10 16 17 18 rings
5 3 14 15 27 29 rings
5 8 12 13 26 28 rings
6 1 10 16 19 20 21 rings

>  <PUBCHEM_HEAVY_ATOM_COUNT>  (1) 
30

>  <PUBCHEM_ATOM_DEF_STEREO_COUNT>  (1) 
0

>  <PUBCHEM_ATOM_UDEF_STEREO_COUNT>  (1) 
2

>  <PUBCHEM_BOND_DEF_STEREO_COUNT>  (1) 
0

>  <PUBCHEM_BOND_UDEF_STEREO_COUNT>  (1) 
0

>  <PUBCHEM_ISOTOPIC_ATOM_COUNT>  (1) 
0

>  <PUBCHEM_COMPONENT_COUNT>  (1) 
1

>  <PUBCHEM_CACTVS_TAUTO_COUNT>  (1) 
2

>  <PUBCHEM_CONFORMER_ID>  (1) 
00007DFF00000001

>  <PUBCHEM_MMFF94_ENERGY>  (1) 
66.9623

>  <PUBCHEM_FEATURE_SELFOVERLAP>  (1) 
67.785

>  <PUBCHEM_SHAPE_FINGERPRINT>  (1) 
10 15 17894628149839126651
10050765 1 18119531196127715841
106641 1 15936411147509772993
12522641 33 17846780685412189087
12838862 33 18338500998125093545
13914758 101 15698006219129184794
14117953 113 18411703183720252460
14251764 46 18187083949181948453
15131766 46 15938972026086552340
15461852 350 17917146199805977639
15840311 113 17894354398058042868
15849732 13 17603585223070177517
16087824 20 18337670820567340325
16120349 18 12829500254783313358
18335252 98 8358264743291082809
21033648 29 18129927001680576240
22224240 67 18343858922476426115
22311459 1 18412824681311924945
23559900 14 18270673281691930248
24771293 8 18341900658599306249
249057 3 18334575771663055452
335352 9 18412542132762091581
4325135 7 17704351061499070605
4340502 62 16950281776766632067
439807 62 9871748001484370902
5283156 175 12103846757006496420
5758199 1 18202561766060845547
59755656 215 18272370841861882366
67123 10 16153428346306840465

>  <PUBCHEM_SHAPE_MULTIPOLES>  (1) 
563.83
29
2.04
1.06
4.67
1.28
0
-13.1
2.49
0.25
0.2
-0.48
0.05
0.1

>  <PUBCHEM_SHAPE_SELFOVERLAP>  (1) 
1161.298

>  <PUBCHEM_SHAPE_VOLUME>  (1) 
325.8

>  <PUBCHEM_COORDINATE_TYPE>  (1) 
2
5
10

$$$$
