32258
     RDKit          3D

 17 18  0  0  0  0  0  0  0  0999 V2000
    1.9716    1.1764    0.3142 S   0  0  0  0  0  0  0  0  0  0  0  0
   -4.5051    1.6861   -1.1371 O   0  0  0  0  0  0  0  0  0  0  0  0
    5.4312   -0.4534   -0.3161 O   0  0  0  0  0  0  0  0  0  0  0  0
    4.8584    1.5999    0.2083 O   0  0  0  0  0  0  0  0  0  0  0  0
   -2.8663   -0.0221    0.3961 N   0  0  0  0  0  0  0  0  0  0  0  0
   -1.5857   -1.8284   -0.1369 N   0  0  0  0  0  0  0  0  0  0  0  0
   -0.5242    0.2578    0.2776 N   0  0  0  0  0  0  0  0  0  0  0  0
    1.2355   -1.2474   -0.2015 N   0  0  0  0  0  0  0  0  0  0  0  0
    4.5398    0.4034   -0.0501 N   0  0  0  0  0  0  0  0  0  0  0  0
   -3.8496   -1.0740    0.3626 C   0  0  0  0  0  0  0  0  0  0  0  0
   -3.0155   -2.2495   -0.1541 C   0  0  0  0  0  0  0  0  0  0  0  0
   -3.2133    1.3043    0.8395 C   0  0  0  0  0  0  0  0  0  0  0  0
   -1.6202   -0.5490    0.1662 C   0  0  0  0  0  0  0  0  0  0  0  0
   -3.4508    2.2226   -0.3487 C   0  0  0  0  0  0  0  0  0  0  0  0
    0.7888   -0.0508    0.1115 C   0  0  0  0  0  0  0  0  0  0  0  0
    3.1922    0.0255   -0.0421 C   0  0  0  0  0  0  0  0  0  0  0  0
    2.6131   -1.2014   -0.2894 C   0  0  0  0  0  0  0  0  0  0  0  0
  1 15  1  0
  1 16  1  0
  2 14  1  0
  3  9  1  0
  4  9  2  0
  5 10  1  0
  5 12  1  0
  5 13  1  0
  6 11  1  0
  6 13  2  0
  7 13  1  0
  7 15  1  0
  8 15  2  0
  8 17  1  0
  9 16  1  0
 10 11  1  0
 12 14  1  0
 16 17  2  0
M  CHG  2   3  -1   9   1
M  END
>  <PUBCHEM_COMPOUND_CID>  (1) 
32258

>  <PUBCHEM_CONFORMER_RMSD>  (1) 
0.8

>  <PUBCHEM_CONFORMER_DIVERSEORDER>  (1) 
1
17
13
4
8
22
27
26
9
24
16
18
20
7
21
11
3
23
25
2
14
15
12
19
5
10
6

>  <PUBCHEM_MMFF94_PARTIAL_CHARGES>  (1) 
20
1 -0.08
10 0.37
11 0.25
12 0.37
13 0.55
14 0.28
15 0.46
16 0.12
17 0.08
2 -0.68
26 0.4
27 0.4
28 0.15
3 -0.52
4 -0.52
5 -0.79
6 -0.7
7 -0.53
8 -0.57
9 0.96

>  <PUBCHEM_EFFECTIVE_ROTOR_COUNT>  (1) 
5.6

>  <PUBCHEM_PHARMACOPHORE_FEATURES>  (1) 
9
1 2 acceptor
1 2 donor
1 3 acceptor
1 3 anion
1 4 acceptor
1 7 donor
4 5 6 7 13 cation
5 1 8 15 16 17 rings
5 5 6 10 11 13 rings

>  <PUBCHEM_HEAVY_ATOM_COUNT>  (1) 
17

>  <PUBCHEM_ATOM_DEF_STEREO_COUNT>  (1) 
0

>  <PUBCHEM_ATOM_UDEF_STEREO_COUNT>  (1) 
0

>  <PUBCHEM_BOND_DEF_STEREO_COUNT>  (1) 
0

>  <PUBCHEM_BOND_UDEF_STEREO_COUNT>  (1) 
0

>  <PUBCHEM_ISOTOPIC_ATOM_COUNT>  (1) 
0

>  <PUBCHEM_COMPONENT_COUNT>  (1) 
1

>  <PUBCHEM_CACTVS_TAUTO_COUNT>  (1) 
3

>  <PUBCHEM_CONFORMER_ID>  (1) 
00007E0200000001

>  <PUBCHEM_MMFF94_ENERGY>  (1) 
34.39

>  <PUBCHEM_FEATURE_SELFOVERLAP>  (1) 
45.752

>  <PUBCHEM_SHAPE_FINGERPRINT>  (1) 
10014705 185 18334293162904487029
10608611 8 18341611542215931785
10680689 15 18335710458935498002
12500047 106 18411696573744107531
13167823 11 18408039624325712498
14123255 352 18407758123051410900
15196674 1 18412829105570987704
15239154 128 18408609162574147940
15375358 24 18201440246698904438
17834072 32 18337955593303214293
18186145 218 18271818860500437459
200 152 16917064460685686267
20645477 56 18408888404320676569
20645477 70 17346329146130212822
21267235 1 18340780332826602306
21426921 1 18410575115355772851
21709351 56 18411981382127195252
2306618 200 18201730565382393779
23402539 116 17821727234862355988
23402655 69 18272368642047192972
23557571 272 18412270544567792893
23559900 14 18201160928297338966
3545911 37 18412548691029257977
4028521 119 18408881807145499325
4214541 1 18412266137968237808
5104073 3 18411702084535419330
559249 180 18336542725298966410
573450 72 18261381257000814010
633830 44 17385730214188855586
77779 3 18413111679948660266
90127 26 18261121794053151048
9709674 26 18342185487280888758

>  <PUBCHEM_SHAPE_MULTIPOLES>  (1) 
311.19
10.4
2.18
0.74
8.07
0.07
-0.03
2.78
-0.91
-2.33
-0.24
-0.49
0.18
0.66

>  <PUBCHEM_SHAPE_SELFOVERLAP>  (1) 
635.595

>  <PUBCHEM_SHAPE_VOLUME>  (1) 
182.9

>  <PUBCHEM_COORDINATE_TYPE>  (1) 
2
5
10

$$$$
