32251
     RDKit          3D

 15 16  0  0  0  0  0  0  0  0999 V2000
    5.6344   -0.4175   -0.0185 Cl  0  0  0  0  0  0  0  0  0  0  0  0
   -0.7549    1.5630    0.0176 O   0  0  0  0  0  0  0  0  0  0  0  0
   -2.6317   -0.4476    0.0250 N   0  0  0  0  0  0  0  0  0  0  0  0
   -4.6347    0.0550   -0.7356 N   0  0  0  0  0  0  0  0  0  0  0  0
   -1.2115   -0.8025    0.0150 C   0  0  0  0  0  0  0  0  0  0  0  0
   -0.2724    0.4122    0.0136 C   0  0  0  0  0  0  0  0  0  0  0  0
    1.1678    0.2105    0.0060 C   0  0  0  0  0  0  0  0  0  0  0  0
   -3.3889   -0.2604    1.1315 C   0  0  0  0  0  0  0  0  0  0  0  0
   -3.4018   -0.2525   -1.0723 C   0  0  0  0  0  0  0  0  0  0  0  0
    1.6904   -1.0828    0.0000 C   0  0  0  0  0  0  0  0  0  0  0  0
    2.0267    1.3096    0.0038 C   0  0  0  0  0  0  0  0  0  0  0  0
   -4.6334    0.0522    0.6368 C   0  0  0  0  0  0  0  0  0  0  0  0
    3.0716   -1.2769   -0.0083 C   0  0  0  0  0  0  0  0  0  0  0  0
    3.4080    1.1155   -0.0045 C   0  0  0  0  0  0  0  0  0  0  0  0
    3.9304   -0.1778   -0.0104 C   0  0  0  0  0  0  0  0  0  0  0  0
  1 15  1  0
  2  6  2  0
  3  5  1  0
  3  8  1  0
  3  9  1  0
  4  9  2  0
  4 12  1  0
  5  6  1  0
  6  7  1  0
  7 10  2  0
  7 11  1  0
  8 12  2  0
 10 13  1  0
 11 14  2  0
 13 15  2  0
 14 15  1  0
M  END
>  <PUBCHEM_COMPOUND_CID>  (1) 
32251

>  <PUBCHEM_CONFORMER_RMSD>  (1) 
0.6

>  <PUBCHEM_CONFORMER_DIVERSEORDER>  (1) 
2
37
6
7
16
38
1
8
15
35
3
36
29
30
32
10
28
39
9
34
27
11
12
26
33
23
31
24
25
4
14
22
13
19
5
20
21
18
17

>  <PUBCHEM_MMFF94_PARTIAL_CHARGES>  (1) 
22
1 -0.18
10 -0.15
11 -0.15
12 0.08
13 -0.15
14 -0.15
15 0.18
18 0.15
19 0.15
2 -0.57
20 0.15
21 0.15
22 0.15
23 0.15
24 0.15
3 0.05
4 -0.57
5 0.32
6 0.42
7 0.09
8 -0.3
9 0.04

>  <PUBCHEM_EFFECTIVE_ROTOR_COUNT>  (1) 
3

>  <PUBCHEM_PHARMACOPHORE_FEATURES>  (1) 
4
1 2 acceptor
3 3 4 9 cation
5 3 4 8 9 12 rings
6 7 10 11 13 14 15 rings

>  <PUBCHEM_HEAVY_ATOM_COUNT>  (1) 
15

>  <PUBCHEM_ATOM_DEF_STEREO_COUNT>  (1) 
0

>  <PUBCHEM_ATOM_UDEF_STEREO_COUNT>  (1) 
0

>  <PUBCHEM_BOND_DEF_STEREO_COUNT>  (1) 
0

>  <PUBCHEM_BOND_UDEF_STEREO_COUNT>  (1) 
0

>  <PUBCHEM_ISOTOPIC_ATOM_COUNT>  (1) 
0

>  <PUBCHEM_COMPONENT_COUNT>  (1) 
1

>  <PUBCHEM_CACTVS_TAUTO_COUNT>  (1) 
2

>  <PUBCHEM_CONFORMER_ID>  (1) 
00007DFB00000002

>  <PUBCHEM_MMFF94_ENERGY>  (1) 
28.2257

>  <PUBCHEM_FEATURE_SELFOVERLAP>  (1) 
20.297

>  <PUBCHEM_SHAPE_FINGERPRINT>  (1) 
10680689 15 17240202153523699003
11287383 113 16588313812611978292
11401426 45 18272083907206024874
11471102 20 18410572907526175004
12236239 1 17704353272890035990
12815109 37 18411417302291302586
13675066 3 18113620126990140721
13760787 5 18411983589144364116
13862211 1 18411413991309724526
14123238 8 8430316835723486486
14251717 144 18343018887103428638
14252887 29 18131076996201247286
15242439 84 17822007610026680503
15375358 24 18187082866554661051
17834072 33 16988556948448748960
17834076 25 18408604759831463559
18186145 218 17530960310828134121
18522853 276 18342457032804348864
200 152 18273211984640252600
20279233 1 17967254204284293531
20645477 56 16515677815618396757
20645477 70 18336824208433094870
21267235 1 18411428297418227266
22485316 2 18187363237920059323
23402539 116 17561080289283299213
23402655 69 18412260614540146452
23557571 272 17095517353715270804
23559900 14 18186239554738269146
26918003 58 18259705605247788459
2871803 45 18261110734449079498
300161 21 17561360660643117563
42 15 18408046212404065555
4990 188 13190339041696231194
5104073 3 18340204214793349282
542803 24 17203612596493985328
573450 72 16988843856796628243

>  <PUBCHEM_SHAPE_MULTIPOLES>  (1) 
294.73
10.87
1.22
0.83
0.27
0.19
0
-1.16
-0.02
-0.86
0
0.81
-0.04
0

>  <PUBCHEM_SHAPE_SELFOVERLAP>  (1) 
623.136

>  <PUBCHEM_SHAPE_VOLUME>  (1) 
167.3

>  <PUBCHEM_COORDINATE_TYPE>  (1) 
2
5
10

$$$$
