32252
     RDKit          3D

 18 20  0  0  1  0  0  0  0  0999 V2000
   -0.5687   -0.4873    1.8191 O   0  0  0  0  0  0  0  0  0  0  0  0
    0.6055   -2.6332   -1.6655 O   0  0  0  0  0  0  0  0  0  0  0  0
    0.0818   -2.8593    0.5279 O   0  0  0  0  0  0  0  0  0  0  0  0
   -1.4204    1.2956    0.4400 C   0  0  0  0  0  0  0  0  0  0  0  0
   -1.0256   -0.2020    0.4936 C   0  0  0  0  0  0  0  0  0  0  0  0
   -3.3667    0.2588    0.1275 C   0  0  0  0  0  0  0  0  0  0  0  0
   -2.7962    1.2683    1.1218 C   0  0  0  0  0  0  0  0  0  0  0  0
   -2.3742   -0.9165    0.2509 C   0  0  0  0  0  0  0  0  0  0  0  0
   -1.8156    1.7285   -0.9812 C   0  0  0  0  0  0  0  0  0  0  0  0
   -3.1313    0.9721   -1.2164 C   0  0  0  0  0  0  0  0  0  0  0  0
    0.0707   -0.6273   -0.4743 C   0  0  0  0  0  0  0  0  0  0  0  0
    1.3942    0.0844   -0.2239 C   0  0  0  0  0  0  0  0  0  0  0  0
    0.2442   -2.1418   -0.4508 C   0  0  0  0  0  0  0  0  0  0  0  0
    1.6012    1.3240   -0.7923 C   0  0  0  0  0  0  0  0  0  0  0  0
    2.3434   -0.5329    0.5636 C   0  0  0  0  0  0  0  0  0  0  0  0
    2.8128    1.9759   -0.5630 C   0  0  0  0  0  0  0  0  0  0  0  0
    3.5551    0.1192    0.7930 C   0  0  0  0  0  0  0  0  0  0  0  0
    3.7896    1.3735    0.2297 C   0  0  0  0  0  0  0  0  0  0  0  0
  1  5  1  0
  2 13  1  0
  3 13  2  0
  4  5  1  0
  4  7  1  0
  4  9  1  0
  5  8  1  0
  5 11  1  0
  6  7  1  0
  6  8  1  0
  6 10  1  0
  9 10  1  0
 11 12  1  0
 11 13  1  0
 12 14  2  0
 12 15  1  0
 14 16  1  0
 15 17  2  0
 16 18  2  0
 17 18  1  0
M  END
>  <PUBCHEM_COMPOUND_CID>  (1) 
32252

>  <PUBCHEM_CONFORMER_RMSD>  (1) 
0.6

>  <PUBCHEM_CONFORMER_DIVERSEORDER>  (1) 
1
14
19
15
21
2
16
7
17
22
18
8
13
9
20
12
3
4
10
6
5
11

>  <PUBCHEM_MMFF94_PARTIAL_CHARGES>  (1) 
19
1 -0.68
11 0.2
12 -0.14
13 0.66
14 -0.15
15 -0.15
16 -0.15
17 -0.15
18 -0.15
2 -0.65
3 -0.57
30 0.4
31 0.15
32 0.15
33 0.5
34 0.15
35 0.15
36 0.15
5 0.28

>  <PUBCHEM_EFFECTIVE_ROTOR_COUNT>  (1) 
4

>  <PUBCHEM_PHARMACOPHORE_FEATURES>  (1) 
7
1 1 acceptor
1 1 donor
1 2 acceptor
1 3 acceptor
3 2 3 13 anion
6 12 14 15 16 17 18 rings
7 4 5 6 7 8 9 10 rings

>  <PUBCHEM_HEAVY_ATOM_COUNT>  (1) 
18

>  <PUBCHEM_ATOM_DEF_STEREO_COUNT>  (1) 
0

>  <PUBCHEM_ATOM_UDEF_STEREO_COUNT>  (1) 
4

>  <PUBCHEM_BOND_DEF_STEREO_COUNT>  (1) 
0

>  <PUBCHEM_BOND_UDEF_STEREO_COUNT>  (1) 
0

>  <PUBCHEM_ISOTOPIC_ATOM_COUNT>  (1) 
0

>  <PUBCHEM_COMPONENT_COUNT>  (1) 
1

>  <PUBCHEM_CACTVS_TAUTO_COUNT>  (1) 
1

>  <PUBCHEM_CONFORMER_ID>  (1) 
00007DFC00000001

>  <PUBCHEM_MMFF94_ENERGY>  (1) 
67.3233

>  <PUBCHEM_FEATURE_SELFOVERLAP>  (1) 
35.584

>  <PUBCHEM_SHAPE_FINGERPRINT>  (1) 
10871710 139 16963527893314191516
11132069 177 18408323302230015321
11640471 11 17702388351349059385
12077114 3 17603857880120658157
121448 382 17773571970970881103
12173636 292 18130510815894648113
12592029 89 18334854991723744931
13140716 1 18409453561391325240
13464514 151 17465644707275227725
13538477 17 18191864746188188538
14181834 199 17984693420594394174
14614273 12 18407476657144474973
15309172 13 18409451396770122664
15490181 8 18341345421684078578
15775835 57 18409452526425798736
15906896 17 18195808694112840686
16945 1 18262803939036838557
17492 54 18048024461794472863
18186145 218 18342745087343935204
192875 21 18337934728009328925
19786989 88 18410296869951823729
20361792 2 11097856327992201208
20510252 161 18199476643216586482
21296965 12 18334857233743918597
21452121 103 18118402839795264945
21524375 3 18412542136956721418
21731228 192 18409735075096561976
23184049 59 18337945693672226210
23402539 116 18270109253131648103
23419403 2 14929530977940801763
2748010 2 18336563662789299998
4340502 62 18270696290084578907
474 4 18338521837406796641
5706482 22 18341044202816522338
633830 44 17988933240541909916
69090 78 18335976570808922440
7364860 26 17985553251429525510
7832392 63 17620479004250962921
81228 2 17837201954474233738
83771 10 8862941692947338772
84936 31 17630319732003456198
90525 40 18338237175627343950

>  <PUBCHEM_SHAPE_MULTIPOLES>  (1) 
352.82
5.64
2.46
1.25
1.71
1.46
0
-3.12
-0.55
0.43
0.68
-0.33
0.14
0.04

>  <PUBCHEM_SHAPE_SELFOVERLAP>  (1) 
773.872

>  <PUBCHEM_SHAPE_VOLUME>  (1) 
194.4

>  <PUBCHEM_COORDINATE_TYPE>  (1) 
2
5
10

$$$$
