32265
     RDKit          3D

 23 25  0  0  0  0  0  0  0  0999 V2000
    2.4334   -1.6397   -0.7515 O   0  0  0  0  0  0  0  0  0  0  0  0
    4.6525   -0.0890    0.5028 O   0  0  0  0  0  0  0  0  0  0  0  0
    4.2535    0.4434   -1.5892 O   0  0  0  0  0  0  0  0  0  0  0  0
   -0.9213    0.2554    0.4903 N   0  0  0  0  0  0  0  0  0  0  0  0
   -4.2167    1.7704   -0.3789 N   0  0  0  0  0  0  0  0  0  0  0  0
    3.9315    0.4323   -0.3787 N   0  0  0  0  0  0  0  0  0  0  0  0
   -2.1765    0.9775    0.7166 C   0  0  0  0  0  0  0  0  0  0  0  0
    0.2876    0.9878    0.4676 C   0  0  0  0  0  0  0  0  0  0  0  0
   -0.9638   -1.1505    0.3503 C   0  0  0  0  0  0  0  0  0  0  0  0
    1.4779    0.3493    0.0683 C   0  0  0  0  0  0  0  0  0  0  0  0
   -2.9516    1.0786   -0.5910 C   0  0  0  0  0  0  0  0  0  0  0  0
    0.1950   -1.8429   -0.0519 C   0  0  0  0  0  0  0  0  0  0  0  0
    1.4445   -1.0863   -0.2882 C   0  0  0  0  0  0  0  0  0  0  0  0
    0.3874    2.3407    0.8409 C   0  0  0  0  0  0  0  0  0  0  0  0
    2.7001    1.0343    0.0093 C   0  0  0  0  0  0  0  0  0  0  0  0
   -2.1094   -1.9259    0.6068 C   0  0  0  0  0  0  0  0  0  0  0  0
    0.2020   -3.2344   -0.2247 C   0  0  0  0  0  0  0  0  0  0  0  0
    1.6055    3.0272    0.7881 C   0  0  0  0  0  0  0  0  0  0  0  0
    2.7590    2.3766    0.3671 C   0  0  0  0  0  0  0  0  0  0  0  0
   -2.1063   -3.3153    0.4401 C   0  0  0  0  0  0  0  0  0  0  0  0
   -0.9538   -3.9678    0.0193 C   0  0  0  0  0  0  0  0  0  0  0  0
   -5.2008    0.8717    0.2276 C   0  0  0  0  0  0  0  0  0  0  0  0
   -4.7297    2.3067   -1.6410 C   0  0  0  0  0  0  0  0  0  0  0  0
  1 13  2  0
  2  6  1  0
  3  6  2  0
  4  7  1  0
  4  8  1  0
  4  9  1  0
  5 11  1  0
  5 22  1  0
  5 23  1  0
  6 15  1  0
  7 11  1  0
  8 10  2  0
  8 14  1  0
  9 12  2  0
  9 16  1  0
 10 13  1  0
 10 15  1  0
 12 13  1  0
 12 17  1  0
 14 18  2  0
 15 19  2  0
 16 20  2  0
 17 21  2  0
 18 19  1  0
 20 21  1  0
M  CHG  2   2  -1   6   1
M  END
>  <PUBCHEM_COMPOUND_CID>  (1) 
32265

>  <PUBCHEM_CONFORMER_RMSD>  (1) 
0.6

>  <PUBCHEM_CONFORMER_DIVERSEORDER>  (1) 
3
7
4
6
5
2
1

>  <PUBCHEM_MMFF94_PARTIAL_CHARGES>  (1) 
30
1 -0.57
10 0.09
11 0.27
12 0.09
13 0.4
14 -0.15
15 0.13
16 -0.15
17 -0.15
18 -0.15
19 -0.15
2 -0.52
20 -0.15
21 -0.15
22 0.27
23 0.27
28 0.15
29 0.15
3 -0.52
30 0.15
31 0.15
32 0.15
33 0.15
34 0.15
4 -0.57
5 -0.81
6 0.91
7 0.37
8 0.1
9 0.1

>  <PUBCHEM_EFFECTIVE_ROTOR_COUNT>  (1) 
4

>  <PUBCHEM_PHARMACOPHORE_FEATURES>  (1) 
9
1 1 acceptor
1 2 acceptor
1 2 anion
1 3 acceptor
1 4 cation
1 5 cation
6 4 8 9 10 12 13 rings
6 8 10 14 15 18 19 rings
6 9 12 16 17 20 21 rings

>  <PUBCHEM_HEAVY_ATOM_COUNT>  (1) 
23

>  <PUBCHEM_ATOM_DEF_STEREO_COUNT>  (1) 
0

>  <PUBCHEM_ATOM_UDEF_STEREO_COUNT>  (1) 
0

>  <PUBCHEM_BOND_DEF_STEREO_COUNT>  (1) 
0

>  <PUBCHEM_BOND_UDEF_STEREO_COUNT>  (1) 
0

>  <PUBCHEM_ISOTOPIC_ATOM_COUNT>  (1) 
0

>  <PUBCHEM_COMPONENT_COUNT>  (1) 
1

>  <PUBCHEM_CACTVS_TAUTO_COUNT>  (1) 
1

>  <PUBCHEM_CONFORMER_ID>  (1) 
00007E0900000003

>  <PUBCHEM_MMFF94_ENERGY>  (1) 
91.3898

>  <PUBCHEM_FEATURE_SELFOVERLAP>  (1) 
45.799

>  <PUBCHEM_SHAPE_FINGERPRINT>  (1) 
10165383 225 18261682488890558701
10688039 33 17829330534010331579
10693767 8 17843955949524483007
10764073 3 15520598673668870289
10906281 52 18202015317403924088
10967382 1 18268719324553184386
1100329 8 18265045847652345298
11578080 2 17608337428553735140
12035758 1 18411417319202355041
12403259 226 17909553096499588123
12553582 1 17259347666241545035
12730499 353 18263083220071543249
12769317 202 18120077408736133245
13140716 1 18270964669289616904
13540713 4 18057047032932675816
13583140 156 17458357337442797232
138480 1 17690278210259020163
14223421 5 17837211845957742976
14790565 3 18124898784003367312
16728300 4 17173462712472196202
16752209 62 18338789147307155915
16945 1 18270696311153440984
18219364 16 18338531780387715593
19591789 44 18267591216864125683
21524375 3 18260265231234119715
22182313 1 17985552397374793600
22907989 373 17974007542198953157
23184049 29 18053105317937648882
2334 1 18341061769412403402
23558518 356 18045497783609561032
23559900 14 18272096011431654548
238 59 17902193799472292229
25 1 18338513041455978173
2748010 2 18341631312061398770
3060560 45 18339353072286530333
3084891 72 18340764845321992256
3298306 158 18337951195203605071
335352 9 18341339988756119190
350125 39 18266469874244631809
352729 6 18342749541056131872
484989 97 18338801233978103343
70251023 43 17409660852628709135
7471813 234 17475774478243013831
81228 2 17683796988681870385
9709674 26 18126563659207783429

>  <PUBCHEM_SHAPE_MULTIPOLES>  (1) 
440.78
7.77
4.42
1.01
2.64
3.29
-0.27
-5.71
-2.28
2.1
0.22
0.17
-0.43
1.52

>  <PUBCHEM_SHAPE_SELFOVERLAP>  (1) 
959.594

>  <PUBCHEM_SHAPE_VOLUME>  (1) 
240.9

>  <PUBCHEM_COORDINATE_TYPE>  (1) 
2
5
10

$$$$
