32274
     RDKit          3D

 13 13  0  0  1  0  0  0  0  0999 V2000
    1.3790   -1.0098   -0.1748 O   0  0  0  0  0  0  0  0  0  0  0  0
   -0.6198    0.2383    1.7729 O   0  0  0  0  0  0  0  0  0  0  0  0
   -2.0406    1.7585   -0.7719 O   0  0  0  0  0  0  0  0  0  0  0  0
   -0.5312    0.2932    0.3557 C   0  0  0  0  0  0  0  0  0  0  0  0
   -0.0663   -1.0502   -0.2291 C   0  0  0  0  0  0  0  0  0  0  0  0
    1.8294    0.3507   -0.0245 C   0  0  0  0  0  0  0  0  0  0  0  0
    0.5816    1.2402   -0.0542 C   0  0  0  0  0  0  0  0  0  0  0  0
   -0.4355   -1.2408   -1.7092 C   0  0  0  0  0  0  0  0  0  0  0  0
   -0.5236   -2.2714    0.5703 C   0  0  0  0  0  0  0  0  0  0  0  0
    2.5779    0.4437    1.3076 C   0  0  0  0  0  0  0  0  0  0  0  0
    2.7822    0.6749   -1.1741 C   0  0  0  0  0  0  0  0  0  0  0  0
   -1.8861    0.7290   -0.1167 C   0  0  0  0  0  0  0  0  0  0  0  0
   -3.0469   -0.1562    0.2480 C   0  0  0  0  0  0  0  0  0  0  0  0
  1  5  1  0
  1  6  1  0
  2  4  1  0
  3 12  2  0
  4  5  1  0
  4  7  1  0
  4 12  1  0
  5  8  1  0
  5  9  1  0
  6  7  1  0
  6 10  1  0
  6 11  1  0
 12 13  1  0
M  END
>  <PUBCHEM_COMPOUND_CID>  (1) 
32274

>  <PUBCHEM_CONFORMER_RMSD>  (1) 
0.6

>  <PUBCHEM_CONFORMER_DIVERSEORDER>  (1) 
2
6
5
3
7
1
4

>  <PUBCHEM_MMFF94_PARTIAL_CHARGES>  (1) 
9
1 -0.56
12 0.45
13 0.06
2 -0.68
28 0.4
3 -0.57
4 0.34
5 0.28
6 0.28

>  <PUBCHEM_EFFECTIVE_ROTOR_COUNT>  (1) 
2

>  <PUBCHEM_PHARMACOPHORE_FEATURES>  (1) 
7
1 1 acceptor
1 2 acceptor
1 2 donor
1 3 acceptor
3 5 8 9 hydrophobe
3 6 10 11 hydrophobe
5 1 4 5 6 7 rings

>  <PUBCHEM_HEAVY_ATOM_COUNT>  (1) 
13

>  <PUBCHEM_ATOM_DEF_STEREO_COUNT>  (1) 
0

>  <PUBCHEM_ATOM_UDEF_STEREO_COUNT>  (1) 
1

>  <PUBCHEM_BOND_DEF_STEREO_COUNT>  (1) 
0

>  <PUBCHEM_BOND_UDEF_STEREO_COUNT>  (1) 
0

>  <PUBCHEM_ISOTOPIC_ATOM_COUNT>  (1) 
0

>  <PUBCHEM_COMPONENT_COUNT>  (1) 
1

>  <PUBCHEM_CACTVS_TAUTO_COUNT>  (1) 
2

>  <PUBCHEM_CONFORMER_ID>  (1) 
00007E1200000002

>  <PUBCHEM_MMFF94_ENERGY>  (1) 
40.7888

>  <PUBCHEM_FEATURE_SELFOVERLAP>  (1) 
35.522

>  <PUBCHEM_SHAPE_FINGERPRINT>  (1) 
10702982 57 18192403377546429379
12138202 97 18041284365074199623
12423570 1 11224867826655793011
13024252 1 16951129628394629526
13538477 17 17968655059354587914
13571099 52 18266728108842392065
13839132 238 17532379655891192581
15775835 57 18342741810020111837
16945 1 18410291458092427775
18186145 218 17561084691746233505
20511035 2 17834938790034470205
21028194 46 18343022172753085206
21040471 1 18410291406600273492
21922407 69 17460034217587474056
23235685 24 18201731651386860680
23419403 2 15746626360984196624
2748010 2 18265897956072435831
369184 2 18337376245116729600
5084963 1 18341905047374783470
528886 8 18410571756316853017
81228 2 17981882257067015635

>  <PUBCHEM_SHAPE_MULTIPOLES>  (1) 
249.93
3.59
1.72
1.36
0.42
0.59
0
-1.12
0.05
-0.63
0.15
0.32
0.11
0.14

>  <PUBCHEM_SHAPE_SELFOVERLAP>  (1) 
508.09

>  <PUBCHEM_SHAPE_VOLUME>  (1) 
149.4

>  <PUBCHEM_COORDINATE_TYPE>  (1) 
2
5
10

$$$$
