32272
     RDKit          3D

 11 13  0  0  1  0  0  0  0  0999 V2000
    1.9387    0.5757    0.0067 N   0  0  0  0  0  0  0  0  0  0  0  0
   -1.0922   -0.0504   -1.2353 C   0  0  0  0  0  0  0  0  0  0  0  0
   -1.0448    0.2506    1.2465 C   0  0  0  0  0  0  0  0  0  0  0  0
    0.4485   -1.5425    0.1568 C   0  0  0  0  0  0  0  0  0  0  0  0
   -1.9464    0.1979    0.0105 C   0  0  0  0  0  0  0  0  0  0  0  0
    0.7556    1.4070   -0.1706 C   0  0  0  0  0  0  0  0  0  0  0  0
   -0.4102   -1.4120   -1.1081 C   0  0  0  0  0  0  0  0  0  0  0  0
   -0.2999   -1.0803    1.4160 C   0  0  0  0  0  0  0  0  0  0  0  0
   -0.0798    1.0883   -1.4202 C   0  0  0  0  0  0  0  0  0  0  0  0
   -0.0878    1.4379    1.1123 C   0  0  0  0  0  0  0  0  0  0  0  0
    1.8183   -0.8720   -0.0146 C   0  0  0  0  0  0  0  0  0  0  0  0
  1  6  1  0
  1 11  1  0
  2  5  1  0
  2  7  1  0
  2  9  1  0
  3  5  1  0
  3  8  1  0
  3 10  1  0
  4  7  1  0
  4  8  1  0
  4 11  1  0
  6  9  1  0
  6 10  1  0
M  END
>  <PUBCHEM_COMPOUND_CID>  (1) 
32272

>  <PUBCHEM_CONFORMER_RMSD>  (1) 
0.4

>  <PUBCHEM_CONFORMER_DIVERSEORDER>  (1) 
1

>  <PUBCHEM_MMFF94_PARTIAL_CHARGES>  (1) 
4
1 -0.9
11 0.27
28 0.36
6 0.27

>  <PUBCHEM_EFFECTIVE_ROTOR_COUNT>  (1) 
1.4

>  <PUBCHEM_PHARMACOPHORE_FEATURES>  (1) 
6
1 1 cation
1 1 donor
6 2 3 4 5 7 8 rings
6 2 3 5 6 9 10 rings
7 1 2 4 6 7 9 11 rings
7 1 3 4 6 8 10 11 rings

>  <PUBCHEM_HEAVY_ATOM_COUNT>  (1) 
11

>  <PUBCHEM_ATOM_DEF_STEREO_COUNT>  (1) 
0

>  <PUBCHEM_ATOM_UDEF_STEREO_COUNT>  (1) 
2

>  <PUBCHEM_BOND_DEF_STEREO_COUNT>  (1) 
0

>  <PUBCHEM_BOND_UDEF_STEREO_COUNT>  (1) 
0

>  <PUBCHEM_ISOTOPIC_ATOM_COUNT>  (1) 
0

>  <PUBCHEM_COMPONENT_COUNT>  (1) 
1

>  <PUBCHEM_CACTVS_TAUTO_COUNT>  (1) 
1

>  <PUBCHEM_CONFORMER_ID>  (1) 
00007E1000000001

>  <PUBCHEM_MMFF94_ENERGY>  (1) 
24.7392

>  <PUBCHEM_FEATURE_SELFOVERLAP>  (1) 
40.337

>  <PUBCHEM_SHAPE_FINGERPRINT>  (1) 
10702982 57 17989210347473200021
12423570 1 15736255294880356758
13024252 1 16878798067167700470
137420 1 13004206437418528499
14817 1 15625073353452771045
15557651 10 18042944588787356269
16945 1 18408604725614059021
18185500 45 18131059442020932102
369184 2 17703780427743298090
5084963 1 18116423924511449783

>  <PUBCHEM_SHAPE_MULTIPOLES>  (1) 
221.39
1.85
1.71
1.5
0.33
0.09
0
-0.05
0.01
0.29
-0.02
-0.41
-0.04
-0.08

>  <PUBCHEM_SHAPE_SELFOVERLAP>  (1) 
471.674

>  <PUBCHEM_SHAPE_VOLUME>  (1) 
115

>  <PUBCHEM_COORDINATE_TYPE>  (1) 
2
5
10

$$$$
