32275
     RDKit          3D

 26 28  0  0  0  0  0  0  0  0999 V2000
    1.0102   -4.3715   -0.3933 Cl  0  0  0  0  0  0  0  0  0  0  0  0
    7.7306    1.9680    0.5227 Cl  0  0  0  0  0  0  0  0  0  0  0  0
   -7.5379    1.6286    0.1048 F   0  0  0  0  0  0  0  0  0  0  0  0
    1.3025    1.4925   -0.1426 O   0  0  0  0  0  0  0  0  0  0  0  0
   -1.1868    1.4015   -0.9611 O   0  0  0  0  0  0  0  0  0  0  0  0
   -2.3777   -0.3481    0.0517 N   0  0  0  0  0  0  0  0  0  0  0  0
    2.4079   -0.6319   -0.1114 C   0  0  0  0  0  0  0  0  0  0  0  0
    0.0051   -0.4999   -0.3484 C   0  0  0  0  0  0  0  0  0  0  0  0
    1.2411    0.1294   -0.2003 C   0  0  0  0  0  0  0  0  0  0  0  0
    3.7005    0.0000    0.0423 C   0  0  0  0  0  0  0  0  0  0  0  0
   -3.7053    0.1454    0.0718 C   0  0  0  0  0  0  0  0  0  0  0  0
    2.3344   -2.0247   -0.1715 C   0  0  0  0  0  0  0  0  0  0  0  0
   -1.2247    0.2751   -0.4429 C   0  0  0  0  0  0  0  0  0  0  0  0
   -4.7249   -0.6232    0.6085 C   0  0  0  0  0  0  0  0  0  0  0  0
   -0.0663   -1.8917   -0.4080 C   0  0  0  0  0  0  0  0  0  0  0  0
    1.0985   -2.6542   -0.3195 C   0  0  0  0  0  0  0  0  0  0  0  0
    4.4441    0.3499   -1.0845 C   0  0  0  0  0  0  0  0  0  0  0  0
    4.2031    0.2585    1.3176 C   0  0  0  0  0  0  0  0  0  0  0  0
   -3.9499    1.4035   -0.4540 C   0  0  0  0  0  0  0  0  0  0  0  0
   -6.0259   -0.1200    0.6197 C   0  0  0  0  0  0  0  0  0  0  0  0
   -4.4725   -1.9812    1.1785 C   0  0  0  0  0  0  0  0  0  0  0  0
   -5.2507    1.9068   -0.4428 C   0  0  0  0  0  0  0  0  0  0  0  0
   -6.2889    1.1451    0.0940 C   0  0  0  0  0  0  0  0  0  0  0  0
    5.6905    0.9582   -0.9363 C   0  0  0  0  0  0  0  0  0  0  0  0
    5.4496    0.8669    1.4659 C   0  0  0  0  0  0  0  0  0  0  0  0
    6.1933    1.2169    0.3389 C   0  0  0  0  0  0  0  0  0  0  0  0
  1 16  1  0
  2 26  1  0
  3 23  1  0
  4  9  1  0
  5 13  2  0
  6 11  1  0
  6 13  1  0
  7  9  2  0
  7 10  1  0
  7 12  1  0
  8  9  1  0
  8 13  1  0
  8 15  2  0
 10 17  2  0
 10 18  1  0
 11 14  2  0
 11 19  1  0
 12 16  2  0
 14 20  1  0
 14 21  1  0
 15 16  1  0
 17 24  1  0
 18 25  2  0
 19 22  2  0
 20 23  2  0
 22 23  1  0
 24 26  2  0
 25 26  1  0
M  END
>  <PUBCHEM_COMPOUND_CID>  (1) 
32275

>  <PUBCHEM_CONFORMER_RMSD>  (1) 
0.8

>  <PUBCHEM_CONFORMER_DIVERSEORDER>  (1) 
4
5
1
12
8
15
13
9
7
3
2
11
6
14
10

>  <PUBCHEM_MMFF94_PARTIAL_CHARGES>  (1) 
35
1 -0.18
11 0.12
12 -0.15
13 0.54
14 -0.14
15 -0.15
16 0.18
17 -0.15
18 -0.15
19 -0.15
2 -0.18
20 -0.15
21 0.14
22 -0.15
23 0.19
24 -0.15
25 -0.15
26 0.18
27 0.15
28 0.15
29 0.37
3 -0.19
30 0.15
31 0.15
32 0.15
33 0.15
37 0.15
38 0.15
39 0.15
4 -0.53
40 0.45
5 -0.57
6 -0.55
8 0.09
9 0.08

>  <PUBCHEM_EFFECTIVE_ROTOR_COUNT>  (1) 
4

>  <PUBCHEM_PHARMACOPHORE_FEATURES>  (1) 
6
1 4 donor
1 5 acceptor
1 6 donor
6 10 17 18 24 25 26 rings
6 11 14 19 20 22 23 rings
6 7 8 9 12 15 16 rings

>  <PUBCHEM_HEAVY_ATOM_COUNT>  (1) 
26

>  <PUBCHEM_ATOM_DEF_STEREO_COUNT>  (1) 
0

>  <PUBCHEM_ATOM_UDEF_STEREO_COUNT>  (1) 
0

>  <PUBCHEM_BOND_DEF_STEREO_COUNT>  (1) 
0

>  <PUBCHEM_BOND_UDEF_STEREO_COUNT>  (1) 
0

>  <PUBCHEM_ISOTOPIC_ATOM_COUNT>  (1) 
0

>  <PUBCHEM_COMPONENT_COUNT>  (1) 
1

>  <PUBCHEM_CACTVS_TAUTO_COUNT>  (1) 
7

>  <PUBCHEM_CONFORMER_ID>  (1) 
00007E1300000004

>  <PUBCHEM_MMFF94_ENERGY>  (1) 
85.8989

>  <PUBCHEM_FEATURE_SELFOVERLAP>  (1) 
30.446

>  <PUBCHEM_SHAPE_FINGERPRINT>  (1) 
10 15 18260548935124985113
10165383 225 18412824694887676376
10411042 1 17619913860065853310
10493431 412 18412260670802132110
10835480 77 18335978654728463021
10906281 52 17968396579590614517
11297750 10 17465097150527079214
11488393 25 17915197723209935310
11719270 70 18410009910064798082
12645989 146 8790591603574386665
12730499 353 18341619178773590838
13533116 47 18128535964789657027
13631057 29 17986944336468041783
13685833 64 8142083165210669396
14251764 18 17894914048927733049
14341114 328 17530964691800173842
14790565 3 18264496267931453868
15183329 4 13973970904455441296
15475509 35 16444461279341287130
15927050 60 17688601871528239948
16992610 120 18262531390168279748
17980427 23 17603873350724812095
18006028 8 8646774391765634650
18222031 100 8286199470373563830
19784866 170 18408887325988473327
20554085 129 17846484938623215450
21033648 29 18200018664253674472
21130935 74 18338524015846850411
21150785 3 15841548587348616941
21756936 100 18341887554326869766
22149856 69 18264230045000893889
22224240 67 18411978087280539366
23198884 109 14333129689030052769
23559900 14 18117006481086231215
249999 5 18339641123370445498
3411729 13 18335137553596557450
4073 2 18334582322147558651
4340502 62 18411418393350334454
4403749 210 18338510975297134107
5104073 3 18263366889327909667
5385378 56 18340209587533821675
5486654 2 18342178886211014604
5758199 1 18343585144302818233
59682541 35 18335423512708522817
59682541 52 16630537202703143820
59755656 520 18341886429356707166
6669772 16 18060145323598318590
9658208 31 18272370931982641230

>  <PUBCHEM_SHAPE_MULTIPOLES>  (1) 
514.81
18.64
3
1.02
2.96
3.78
0.17
-14.98
3.93
-0.22
-0.36
-0.72
-0.06
1.36

>  <PUBCHEM_SHAPE_SELFOVERLAP>  (1) 
1114.787

>  <PUBCHEM_SHAPE_VOLUME>  (1) 
285.4

>  <PUBCHEM_COORDINATE_TYPE>  (1) 
2
5
10

$$$$
