32278
     RDKit          3D

 14 14  0  0  0  0  0  0  0  0999 V2000
    1.6433   -2.7624    0.4287 Cl  0  0  0  0  0  0  0  0  0  0  0  0
    2.1731    2.6277   -0.0544 Cl  0  0  0  0  0  0  0  0  0  0  0  0
    3.1311   -0.1853    0.2169 O   0  0  0  0  0  0  0  0  0  0  0  0
   -3.0493   -0.7505   -0.4677 O   0  0  0  0  0  0  0  0  0  0  0  0
   -3.0693    1.3412    0.4932 O   0  0  0  0  0  0  0  0  0  0  0  0
   -1.0036    0.2122    0.1147 C   0  0  0  0  0  0  0  0  0  0  0  0
    1.7724   -0.0542    0.1832 C   0  0  0  0  0  0  0  0  0  0  0  0
   -0.4273   -1.0519    0.2389 C   0  0  0  0  0  0  0  0  0  0  0  0
   -0.1920    1.3431    0.0246 C   0  0  0  0  0  0  0  0  0  0  0  0
    0.9608   -1.1851    0.2732 C   0  0  0  0  0  0  0  0  0  0  0  0
    1.1961    1.2098    0.0587 C   0  0  0  0  0  0  0  0  0  0  0  0
   -2.4507    0.3512    0.0803 C   0  0  0  0  0  0  0  0  0  0  0  0
    3.7933   -0.3626   -1.0322 C   0  0  0  0  0  0  0  0  0  0  0  0
   -4.4780   -0.7330   -0.5581 C   0  0  0  0  0  0  0  0  0  0  0  0
  1 10  1  0
  2 11  1  0
  3  7  1  0
  3 13  1  0
  4 12  1  0
  4 14  1  0
  5 12  2  0
  6  8  2  0
  6  9  1  0
  6 12  1  0
  7 10  2  0
  7 11  1  0
  8 10  1  0
  9 11  2  0
M  END
>  <PUBCHEM_COMPOUND_CID>  (1) 
32278

>  <PUBCHEM_CONFORMER_RMSD>  (1) 
0.6

>  <PUBCHEM_CONFORMER_DIVERSEORDER>  (1) 
1
3
2

>  <PUBCHEM_MMFF94_PARTIAL_CHARGES>  (1) 
16
1 -0.18
10 0.18
11 0.18
12 0.63
13 0.28
14 0.28
15 0.15
16 0.15
2 -0.18
3 -0.36
4 -0.43
5 -0.57
6 0.09
7 0.08
8 -0.15
9 -0.15

>  <PUBCHEM_EFFECTIVE_ROTOR_COUNT>  (1) 
3

>  <PUBCHEM_PHARMACOPHORE_FEATURES>  (1) 
3
1 3 acceptor
1 5 acceptor
6 6 7 8 9 10 11 rings

>  <PUBCHEM_HEAVY_ATOM_COUNT>  (1) 
14

>  <PUBCHEM_ATOM_DEF_STEREO_COUNT>  (1) 
0

>  <PUBCHEM_ATOM_UDEF_STEREO_COUNT>  (1) 
0

>  <PUBCHEM_BOND_DEF_STEREO_COUNT>  (1) 
0

>  <PUBCHEM_BOND_UDEF_STEREO_COUNT>  (1) 
0

>  <PUBCHEM_ISOTOPIC_ATOM_COUNT>  (1) 
0

>  <PUBCHEM_COMPONENT_COUNT>  (1) 
1

>  <PUBCHEM_CACTVS_TAUTO_COUNT>  (1) 
1

>  <PUBCHEM_CONFORMER_ID>  (1) 
00007E1600000001

>  <PUBCHEM_MMFF94_ENERGY>  (1) 
47.4853

>  <PUBCHEM_FEATURE_SELFOVERLAP>  (1) 
15.223

>  <PUBCHEM_SHAPE_FINGERPRINT>  (1) 
10967382 1 18409728503770134242
11206711 2 18261957349322143308
11471102 20 18408880754456304357
11806522 49 18341327885459060263
12032990 46 18341900696515007279
12138202 97 17240493536552501867
13140716 1 18264489657865885730
13380535 76 18123747823315234376
13380536 305 18336828697026814248
14251717 144 18410288146503811596
14325111 11 18411418457611456289
14576447 43 18341320176357157303
14911166 2 18408327704761196590
14993402 34 18408888442632380582
15375462 189 18337959978316676107
15442244 35 18124031230926800209
15536298 74 18272651294003432080
15757776 16 18408878525431782583
16945 1 18408040693302544512
18186145 218 18409447007350579949
19021347 11 18408882919183430330
19026448 4 16630522904065716944
193761 8 17833272304485498378
19422 9 18060426841133719917
20201158 50 18333731308130796563
20645477 70 18343016735725597407
21501502 16 18192712237303074235
221490 88 18265057005876860915
2255824 54 18336546105189931500
2334 1 18048600618487355722
23402539 116 18342175510746456966
23402655 69 18337383847604644877
23552423 10 18411135835867674761
23598291 2 18055353544249184771
2748010 2 18046636869277005306
2871803 45 18410003369251300815
3060560 45 18409724084407399830
58051976 100 18411417289875983893
63268167 104 18265053539779867217
7364860 26 18201438150892416688
7832392 63 18197781003282513969

>  <PUBCHEM_SHAPE_MULTIPOLES>  (1) 
274.25
6.27
2.42
0.76
4.89
0.12
-0.09
0.48
-1.65
-1.77
0.32
-0.16
0.08
-0.35

>  <PUBCHEM_SHAPE_SELFOVERLAP>  (1) 
552.389

>  <PUBCHEM_SHAPE_VOLUME>  (1) 
163.9

>  <PUBCHEM_COORDINATE_TYPE>  (1) 
2
5
10

$$$$
