32282
     RDKit          3D

 14 14  0  0  0  0  0  0  0  0999 V2000
   -4.8279   -0.3360   -0.0961 O   0  0  0  0  0  0  0  0  0  0  0  0
   -3.4115    1.4566    0.2204 O   0  0  0  0  0  0  0  0  0  0  0  0
    0.0118   -1.2249   -0.0692 C   0  0  0  0  0  0  0  0  0  0  0  0
   -1.1134   -0.1855    0.0405 C   0  0  0  0  0  0  0  0  0  0  0  0
    1.4036   -0.6478   -0.0422 C   0  0  0  0  0  0  0  0  0  0  0  0
   -2.5201   -0.7850   -0.0150 C   0  0  0  0  0  0  0  0  0  0  0  0
    2.0133   -0.2824   -1.2333 C   0  0  0  0  0  0  0  0  0  0  0  0
    2.0536   -0.4919    1.1732 C   0  0  0  0  0  0  0  0  0  0  0  0
    3.9662    0.4134    0.0073 C   0  0  0  0  0  0  0  0  0  0  0  0
    3.3018    0.2512   -1.2083 C   0  0  0  0  0  0  0  0  0  0  0  0
    3.3421    0.0416    1.1981 C   0  0  0  0  0  0  0  0  0  0  0  0
   -3.6104    0.2591    0.0633 C   0  0  0  0  0  0  0  0  0  0  0  0
    5.3439    0.9834    0.0340 C   0  0  0  0  0  0  0  0  0  0  0  0
   -5.9530    0.5482   -0.0726 C   0  0  0  0  0  0  0  0  0  0  0  0
  1 12  1  0
  1 14  1  0
  2 12  2  0
  3  4  1  0
  3  5  1  0
  4  6  1  0
  5  7  2  0
  5  8  1  0
  6 12  1  0
  7 10  1  0
  8 11  2  0
  9 10  2  0
  9 11  1  0
  9 13  1  0
M  END
>  <PUBCHEM_COMPOUND_CID>  (1) 
32282

>  <PUBCHEM_CONFORMER_RMSD>  (1) 
0.6

>  <PUBCHEM_CONFORMER_DIVERSEORDER>  (1) 
1
6
47
43
54
40
7
46
18
41
19
28
53
45
52
36
22
31
21
48
39
25
10
11
33
42
30
26
15
12
49
44
32
24
13
2
51
37
17
29
20
9
23
38
14
50
34
35
27
16
3
8
4
5

>  <PUBCHEM_MMFF94_PARTIAL_CHARGES>  (1) 
17
1 -0.43
10 -0.15
11 -0.15
12 0.66
13 0.14
14 0.28
2 -0.57
21 0.15
22 0.15
23 0.15
24 0.15
3 0.14
5 -0.14
6 0.06
7 -0.15
8 -0.15
9 -0.14

>  <PUBCHEM_EFFECTIVE_ROTOR_COUNT>  (1) 
5

>  <PUBCHEM_PHARMACOPHORE_FEATURES>  (1) 
2
1 2 acceptor
6 5 7 8 9 10 11 rings

>  <PUBCHEM_HEAVY_ATOM_COUNT>  (1) 
14

>  <PUBCHEM_ATOM_DEF_STEREO_COUNT>  (1) 
0

>  <PUBCHEM_ATOM_UDEF_STEREO_COUNT>  (1) 
0

>  <PUBCHEM_BOND_DEF_STEREO_COUNT>  (1) 
0

>  <PUBCHEM_BOND_UDEF_STEREO_COUNT>  (1) 
0

>  <PUBCHEM_ISOTOPIC_ATOM_COUNT>  (1) 
0

>  <PUBCHEM_COMPONENT_COUNT>  (1) 
1

>  <PUBCHEM_CACTVS_TAUTO_COUNT>  (1) 
1

>  <PUBCHEM_CONFORMER_ID>  (1) 
00007E1A00000001

>  <PUBCHEM_MMFF94_ENERGY>  (1) 
26.1686

>  <PUBCHEM_FEATURE_SELFOVERLAP>  (1) 
10.148

>  <PUBCHEM_SHAPE_FINGERPRINT>  (1) 
10354089 29 17168145645948908092
10498660 4 18129102230020351537
11287383 113 16917065594383193591
114248 4 16845855697876771431
11471102 20 15841554089544263546
117890 112 17749103353971691757
12236239 1 17967530194381993290
12251169 10 16081369669799893434
12507557 5 17603870035268346501
12714333 28 17418093234797745936
12730499 353 17203613713175374758
14123238 8 17917710206226095965
14251718 22 17704070720414526503
14252887 29 15430027735086324162
14576447 43 13398637143175492212
14911166 2 15482675706146282654
15242439 84 16774079591658413895
15477762 27 14045750313725091558
17834076 25 18411136943715925571
18186145 218 16056873628648522627
19050596 39 16588027947735793787
20279233 1 17703795833406328159
20432913 95 14562529565876860297
20645477 56 18202563995027643703
20645477 70 16271939168462339358
20767249 213 18334857234044585773
20871999 31 16844998117810134535
21119208 17 14405185079554520434
212847 35 18343298154714641794
221357 26 16128377051836048049
22224240 67 15357977914986928080
22289505 5 16773798056525924272
22485316 2 9007054660435366906
23048698 100 17168145620031372401
23402539 116 18201151139739356246
23402655 69 16056884619464311562
23557571 272 17775571918519244177
23590187 302 14620793803645196682
26918003 58 14562530686879187637
300161 21 17894624860247748483
3060560 45 15626223524699988052
3268164 11 18272640235016409869
351380 180 15936407836569951493
351380 3 11167943554333314685
4047638 21 18411702101894473222
42 15 13695586650519289287
522135 26 14764347128336172318
5281201 14 16702030746363515896
5374978 207 15647053759228652189

>  <PUBCHEM_SHAPE_MULTIPOLES>  (1) 
276.37
12.31
1.06
1.04
11.57
0
0.05
4.22
-1.82
-0.09
-0.06
-0.81
0.01
-0.58

>  <PUBCHEM_SHAPE_SELFOVERLAP>  (1) 
555.55

>  <PUBCHEM_SHAPE_VOLUME>  (1) 
163.9

>  <PUBCHEM_COORDINATE_TYPE>  (1) 
2
5
10

$$$$
