32284
     RDKit          3D

 15 16  0  0  0  0  0  0  0  0999 V2000
    0.8299   -1.6579   -0.0587 O   0  0  0  0  0  0  0  0  0  0  0  0
    3.8090    1.7970   -0.1602 O   0  0  0  0  0  0  0  0  0  0  0  0
    4.5798    0.0632    1.0914 O   0  0  0  0  0  0  0  0  0  0  0  0
   -0.8888   -0.6970   -1.4362 C   0  0  0  0  0  0  0  0  0  0  0  0
    0.4689   -0.5833   -0.7715 C   0  0  0  0  0  0  0  0  0  0  0  0
   -2.0101   -0.2016   -0.5864 C   0  0  0  0  0  0  0  0  0  0  0  0
    1.3823    0.4026   -0.7665 C   0  0  0  0  0  0  0  0  0  0  0  0
    2.4396   -0.0922    0.0336 C   0  0  0  0  0  0  0  0  0  0  0  0
   -2.3988    1.1363   -0.6554 C   0  0  0  0  0  0  0  0  0  0  0  0
   -2.6699   -1.0759    0.2771 C   0  0  0  0  0  0  0  0  0  0  0  0
    2.0553   -1.3489    0.4401 C   0  0  0  0  0  0  0  0  0  0  0  0
   -3.4472    1.5997    0.1393 C   0  0  0  0  0  0  0  0  0  0  0  0
   -3.7184   -0.6123    1.0718 C   0  0  0  0  0  0  0  0  0  0  0  0
   -4.1072    0.7255    1.0029 C   0  0  0  0  0  0  0  0  0  0  0  0
    3.6755    0.5448    0.3787 C   0  0  0  0  0  0  0  0  0  0  0  0
  1  5  1  0
  1 11  1  0
  2 15  1  0
  3 15  2  0
  4  5  1  0
  4  6  1  0
  5  7  2  0
  6  9  2  0
  6 10  1  0
  7  8  1  0
  8 11  2  0
  8 15  1  0
  9 12  1  0
 10 13  2  0
 12 14  2  0
 13 14  1  0
M  END
>  <PUBCHEM_COMPOUND_CID>  (1) 
32284

>  <PUBCHEM_CONFORMER_RMSD>  (1) 
0.6

>  <PUBCHEM_CONFORMER_DIVERSEORDER>  (1) 
2
11
4
3
14
12
13
7
8
6
1
5
9
10

>  <PUBCHEM_MMFF94_PARTIAL_CHARGES>  (1) 
23
1 -0.28
10 -0.15
11 -0.01
12 -0.15
13 -0.15
14 -0.15
15 0.81
18 0.15
19 0.15
2 -0.65
20 0.15
21 0.15
22 0.15
23 0.15
24 0.15
25 0.5
3 -0.57
4 0.32
5 -0.04
6 -0.14
7 -0.15
8 -0.09
9 -0.15

>  <PUBCHEM_EFFECTIVE_ROTOR_COUNT>  (1) 
3

>  <PUBCHEM_PHARMACOPHORE_FEATURES>  (1) 
6
1 1 acceptor
1 2 acceptor
1 3 acceptor
3 2 3 15 anion
5 1 5 7 8 11 rings
6 6 9 10 12 13 14 rings

>  <PUBCHEM_HEAVY_ATOM_COUNT>  (1) 
15

>  <PUBCHEM_ATOM_DEF_STEREO_COUNT>  (1) 
0

>  <PUBCHEM_ATOM_UDEF_STEREO_COUNT>  (1) 
0

>  <PUBCHEM_BOND_DEF_STEREO_COUNT>  (1) 
0

>  <PUBCHEM_BOND_UDEF_STEREO_COUNT>  (1) 
0

>  <PUBCHEM_ISOTOPIC_ATOM_COUNT>  (1) 
0

>  <PUBCHEM_COMPONENT_COUNT>  (1) 
1

>  <PUBCHEM_CACTVS_TAUTO_COUNT>  (1) 
1

>  <PUBCHEM_CONFORMER_ID>  (1) 
00007E1C00000002

>  <PUBCHEM_MMFF94_ENERGY>  (1) 
24.1813

>  <PUBCHEM_FEATURE_SELFOVERLAP>  (1) 
30.505

>  <PUBCHEM_SHAPE_FINGERPRINT>  (1) 
10465860 228 18342458093503002326
10498660 4 15985102964543892521
11046707 91 13190336859567994872
11127187 94 9007054660978757313
11132069 177 18187370917564015279
11137873 295 9007060188385422061
11543360 7 11455879282816985378
11769659 78 10953455228396549980
12186901 62 12607403265912817105
12251169 10 18113623391191640023
12363563 72 13767931217086753111
12382932 28 18260830362999285253
12507560 40 18336830775643318623
12670546 177 11383827190811512026
13549 16 11383840354580292695
13675066 3 18271801329008314170
13693222 15 16877661274986217215
13705890 14 8646763396253822038
13897977 13 18410858793392315101
14123260 362 16845574214452616049
14178342 30 17386296406726788003
14289901 80 18408039623840045603
15775835 57 18060418010533090831
17870717 6 8069754026176276369
1798214 20 8286203833659643728
18186145 218 15984825969217876206
19050596 39 18186805789740421377
193927 3 12829491394170680160
19862831 5 11167944653691734341
200 152 18189322615370875279
201361 129 18411698764462401570
20279233 1 17022896827078123359
20361792 2 14201410386688171063
20871999 31 10879992458614368763
21065199 12 18260270707301591379
21119208 17 10952050039751564083
21650355 55 17894919555239226369
21713013 43 10087341306463210417
22854114 59 18408324384566834215
231179 274 17632859707032146904
23402539 116 18336258042319191815
23402655 69 12175632758365644371
23403322 49 11241965984308617201
25 1 14548748291355482383
27216 239 18272370880273715553
3082319 5 11455889148430710647
4028521 119 14692573187118741155
4921388 177 13829842556742378117
633830 44 18341895216727412916
90316 7 17386291995785144189
93112 12 10879986952313372883
9882013 296 17530966925072443260

>  <PUBCHEM_SHAPE_MULTIPOLES>  (1) 
291.09
8.48
1.54
1.13
2.59
0.19
-0.07
2.93
3.55
-0.03
0.01
-0.32
-0.09
0.02

>  <PUBCHEM_SHAPE_SELFOVERLAP>  (1) 
629.903

>  <PUBCHEM_SHAPE_VOLUME>  (1) 
160.6

>  <PUBCHEM_COORDINATE_TYPE>  (1) 
2
5
10

$$$$
