32289
     RDKit          3D

 19 19  0  0  1  0  0  0  0  0999 V2000
   -2.0062   -1.8656   -0.0345 S   0  0  0  0  0  0  0  0  0  0  0  0
    2.9581    0.5371   -0.1580 O   0  0  0  0  0  0  0  0  0  0  0  0
   -0.9838   -1.9558    0.9955 O   0  0  0  0  0  0  0  0  0  0  0  0
   -3.1658   -2.7419    0.0115 O   0  0  0  0  0  0  0  0  0  0  0  0
    2.1546    0.2462    1.9885 O   0  0  0  0  0  0  0  0  0  0  0  0
   -1.2659   -2.0091   -1.5663 N   0  0  0  0  0  0  0  0  0  0  0  0
    4.1237   -0.2481    0.0769 C   0  0  0  0  0  0  0  0  0  0  0  0
    5.1110   -0.0368   -1.0727 C   0  0  0  0  0  0  0  0  0  0  0  0
    3.7163   -1.7109    0.1918 C   0  0  0  0  0  0  0  0  0  0  0  0
   -2.5720   -0.2081   -0.0983 C   0  0  0  0  0  0  0  0  0  0  0  0
   -1.7964    0.8579    0.3314 C   0  0  0  0  0  0  0  0  0  0  0  0
    5.5043    1.4257   -1.2342 C   0  0  0  0  0  0  0  0  0  0  0  0
   -3.8505    0.0333   -0.6015 C   0  0  0  0  0  0  0  0  0  0  0  0
   -0.4408    0.6496    0.8701 C   0  0  0  0  0  0  0  0  0  0  0  0
   -2.2699    2.1605    0.2694 C   0  0  0  0  0  0  0  0  0  0  0  0
    1.9888    0.4567    0.7975 C   0  0  0  0  0  0  0  0  0  0  0  0
    0.6812    0.6695    0.1365 C   0  0  0  0  0  0  0  0  0  0  0  0
   -4.3385    1.3381   -0.6695 C   0  0  0  0  0  0  0  0  0  0  0  0
   -3.5483    2.4017   -0.2340 C   0  0  0  0  0  0  0  0  0  0  0  0
  1  3  2  0
  1  4  2  0
  1  6  1  0
  1 10  1  0
  2  7  1  0
  2 16  1  0
  5 16  2  0
  7  8  1  0
  7  9  1  0
  8 12  1  0
 10 11  2  0
 10 13  1  0
 11 14  1  0
 11 15  1  0
 13 18  2  0
 14 17  2  0
 15 19  2  0
 16 17  1  0
 18 19  1  0
M  END
>  <PUBCHEM_COMPOUND_CID>  (1) 
32289

>  <PUBCHEM_CONFORMER_RMSD>  (1) 
0.8

>  <PUBCHEM_CONFORMER_DIVERSEORDER>  (1) 
1
60
12
63
36
6
14
55
8
39
45
54
25
52
34
62
40
64
26
42
28
38
57
48
41
43
18
5
7
44
21
13
10
46
3
33
4
59
58
22
29
50
37
2
51
32
53
30
15
35
11
9
49
47
16
27
23
19
24
20
61
31
17
65
56

>  <PUBCHEM_MMFF94_PARTIAL_CHARGES>  (1) 
24
1 1.45
10 -0.01
11 0.03
13 -0.15
14 -0.18
15 -0.15
16 0.71
17 -0.14
18 -0.15
19 -0.15
2 -0.43
29 0.15
3 -0.65
30 0.15
31 0.15
32 0.15
33 0.15
34 0.15
35 0.42
36 0.42
4 -0.65
5 -0.57
6 -0.98
7 0.28

>  <PUBCHEM_EFFECTIVE_ROTOR_COUNT>  (1) 
6

>  <PUBCHEM_PHARMACOPHORE_FEATURES>  (1) 
6
1 12 hydrophobe
1 3 acceptor
1 4 acceptor
1 5 acceptor
1 6 donor
6 10 11 13 15 18 19 rings

>  <PUBCHEM_HEAVY_ATOM_COUNT>  (1) 
19

>  <PUBCHEM_ATOM_DEF_STEREO_COUNT>  (1) 
0

>  <PUBCHEM_ATOM_UDEF_STEREO_COUNT>  (1) 
0

>  <PUBCHEM_BOND_DEF_STEREO_COUNT>  (1) 
0

>  <PUBCHEM_BOND_UDEF_STEREO_COUNT>  (1) 
1

>  <PUBCHEM_ISOTOPIC_ATOM_COUNT>  (1) 
0

>  <PUBCHEM_COMPONENT_COUNT>  (1) 
1

>  <PUBCHEM_CACTVS_TAUTO_COUNT>  (1) 
1

>  <PUBCHEM_CONFORMER_ID>  (1) 
00007E2100000001

>  <PUBCHEM_MMFF94_ENERGY>  (1) 
33.1895

>  <PUBCHEM_FEATURE_SELFOVERLAP>  (1) 
30.463

>  <PUBCHEM_SHAPE_FINGERPRINT>  (1) 
10366900 7 17632576032974379172
10616163 171 18412547626025399558
10759866 29 18410296891738117638
107951 10 18333738996064773123
11543360 7 18408610283834821392
12236239 1 17749107768728703229
12363563 72 16343704313945652288
12500047 106 18341044142718524720
12707595 3 17203327823615433216
12788726 201 18042400408158050019
14251757 5 18410579512885150376
15163728 17 17535171264881151533
15415430 112 18409169926257171360
16752209 62 18339628023440124315
17349148 13 13614518571714023092
17870717 6 18202294584302753564
18186145 218 17774428413515101465
192875 21 13326565285007933314
200 152 15626504994817235225
20325693 3 18411704279137138613
20645476 183 18040433287408271515
20693207 138 17989198274436695520
20871999 31 18409167744350338528
22393880 68 18412270553970000334
22849339 104 18342189889543168558
23402539 116 18272078358546615805
23402655 69 18259709986879509580
23419403 2 14330555831421069191
23559900 14 18272079526772439264
2748736 6 17026017417942272972
2838139 119 16228269788186236741
3004659 81 18266740187060737050
474 4 17023194863696803292
4921388 177 17531254988392239162
559249 180 18267016159846718538
58051976 100 18411419526931563220
59755656 215 18201995483492319309
633830 44 17095251302467201504
67856867 119 18333445461758340208
9709674 26 18129365154864044329

>  <PUBCHEM_SHAPE_MULTIPOLES>  (1) 
366.4
10.52
2.53
1.19
11.84
1
-0.09
-2.99
3.92
-2.5
0.26
0.74
0.05
-0.52

>  <PUBCHEM_SHAPE_SELFOVERLAP>  (1) 
738.924

>  <PUBCHEM_SHAPE_VOLUME>  (1) 
214.7

>  <PUBCHEM_COORDINATE_TYPE>  (1) 
2
5
10

$$$$
