32294
     RDKit          3D

 21 21  0  0  0  0  0  0  0  0999 V2000
    0.4005    2.3409   -0.6804 I   0  0  0  0  0  0  0  0  0  0  0  0
   -2.9330   -2.5958    0.7650 I   0  0  0  0  0  0  0  0  0  0  0  0
    2.9283   -3.1699   -0.1821 I   0  0  0  0  0  0  0  0  0  0  0  0
    2.5730    0.0022   -0.6684 O   0  0  0  0  0  0  0  0  0  0  0  0
   -3.4481    1.9052    1.5179 O   0  0  0  0  0  0  0  0  0  0  0  0
    5.4037    1.5247    0.9201 O   0  0  0  0  0  0  0  0  0  0  0  0
    4.9934    1.0919   -1.2779 O   0  0  0  0  0  0  0  0  0  0  0  0
   -2.1603    0.5075    0.0907 N   0  0  0  0  0  0  0  0  0  0  0  0
   -2.8749    0.7518   -1.1390 C   0  0  0  0  0  0  0  0  0  0  0  0
   -4.3365    0.3371   -1.0057 C   0  0  0  0  0  0  0  0  0  0  0  0
   -0.9652   -0.3316    0.0231 C   0  0  0  0  0  0  0  0  0  0  0  0
    0.2221    0.2650   -0.2923 C   0  0  0  0  0  0  0  0  0  0  0  0
   -2.5188    1.1169    1.3267 C   0  0  0  0  0  0  0  0  0  0  0  0
   -1.1137   -1.6652    0.2795 C   0  0  0  0  0  0  0  0  0  0  0  0
   -5.1466    0.6168   -2.2640 C   0  0  0  0  0  0  0  0  0  0  0  0
    1.3588   -0.5409   -0.3564 C   0  0  0  0  0  0  0  0  0  0  0  0
    0.0229   -2.4710    0.2152 C   0  0  0  0  0  0  0  0  0  0  0  0
    1.2592   -1.9089   -0.1027 C   0  0  0  0  0  0  0  0  0  0  0  0
   -1.6857    0.7046    2.5188 C   0  0  0  0  0  0  0  0  0  0  0  0
    3.3674    0.4707    0.4172 C   0  0  0  0  0  0  0  0  0  0  0  0
    4.6537    1.0478   -0.1052 C   0  0  0  0  0  0  0  0  0  0  0  0
  1 12  1  0
  2 14  1  0
  3 18  1  0
  4 16  1  0
  4 20  1  0
  5 13  2  0
  6 21  1  0
  7 21  2  0
  8  9  1  0
  8 11  1  0
  8 13  1  0
  9 10  1  0
 10 15  1  0
 11 12  2  0
 11 14  1  0
 12 16  1  0
 13 19  1  0
 14 17  2  0
 16 18  2  0
 17 18  1  0
 20 21  1  0
M  END
>  <PUBCHEM_COMPOUND_CID>  (1) 
32294

>  <PUBCHEM_CONFORMER_RMSD>  (1) 
0.8

>  <PUBCHEM_CONFORMER_DIVERSEORDER>  (1) 
1
14
26
35
7
38
10
15
36
19
30
29
34
31
22
39
28
6
16
25
11
9
12
23
5
20
33
32
37
17
24
21
4
27
8
3
18
2
13

>  <PUBCHEM_MMFF94_PARTIAL_CHARGES>  (1) 
21
1 -0.08
11 0.12
12 0.08
13 0.57
14 0.08
16 0.08
17 -0.15
18 0.08
19 0.06
2 -0.08
20 0.34
21 0.66
29 0.15
3 -0.08
35 0.5
4 -0.36
5 -0.57
6 -0.65
7 -0.57
8 -0.48
9 0.3

>  <PUBCHEM_EFFECTIVE_ROTOR_COUNT>  (1) 
7

>  <PUBCHEM_PHARMACOPHORE_FEATURES>  (1) 
10
1 1 hydrophobe
1 15 hydrophobe
1 2 hydrophobe
1 3 hydrophobe
1 4 acceptor
1 5 acceptor
1 6 acceptor
1 7 acceptor
3 6 7 21 anion
6 11 12 14 16 17 18 rings

>  <PUBCHEM_HEAVY_ATOM_COUNT>  (1) 
21

>  <PUBCHEM_ATOM_DEF_STEREO_COUNT>  (1) 
0

>  <PUBCHEM_ATOM_UDEF_STEREO_COUNT>  (1) 
0

>  <PUBCHEM_BOND_DEF_STEREO_COUNT>  (1) 
0

>  <PUBCHEM_BOND_UDEF_STEREO_COUNT>  (1) 
0

>  <PUBCHEM_ISOTOPIC_ATOM_COUNT>  (1) 
0

>  <PUBCHEM_COMPONENT_COUNT>  (1) 
1

>  <PUBCHEM_CACTVS_TAUTO_COUNT>  (1) 
1

>  <PUBCHEM_CONFORMER_ID>  (1) 
00007E2600000001

>  <PUBCHEM_MMFF94_ENERGY>  (1) 
87.0496

>  <PUBCHEM_FEATURE_SELFOVERLAP>  (1) 
50.81

>  <PUBCHEM_SHAPE_FINGERPRINT>  (1) 
10498660 4 18335424595082466124
11132069 177 18333733541930456908
11543360 7 16272211881747963604
11582403 64 16951384586665312759
11725454 13 17096067135515311517
12236239 1 18059855009678638421
12390115 104 18197238008274436560
12403259 415 17896044252344294759
12403260 363 18120922919886665890
13140716 1 18265626561405671928
13583140 156 16660648474626661412
13911987 19 18261961837753170996
14142880 1 18412550924607469801
14178342 30 18337968860298579042
14787075 74 17775280607629725641
16945 1 18261968353138800421
18219364 16 18261403272844995169
20510252 161 18127982012465647570
22182313 1 18337126621354417622
23402539 116 18269549610372051702
23419403 2 17699843231471040059
23559900 14 18408326562711612518
23566358 2 18409169922121012071
25147074 1 17916586410626537667
2748010 2 18336281066879528630
283562 15 18123472940929168162
3286 77 17344605081310822978
3380486 145 18114191838814080309
350125 39 18047484588405089045
469060 322 18118704324586544003
474 4 18413108376981867424
5104073 3 18335991869730702291
59554788 191 18116429443417805476
70251023 43 17977660909947776815

>  <PUBCHEM_SHAPE_MULTIPOLES>  (1) 
439.52
9.27
3.32
1.64
4.67
2.28
-0.48
-3.91
2.33
1.35
-0.03
-2.04
-0.75
0.63

>  <PUBCHEM_SHAPE_SELFOVERLAP>  (1) 
838.275

>  <PUBCHEM_SHAPE_VOLUME>  (1) 
277.8

>  <PUBCHEM_COORDINATE_TYPE>  (1) 
2
5
10

$$$$
