32299
     RDKit          3D

 24 24  0  0  1  0  0  0  0  0999 V2000
   -0.6699    2.1729   -1.1309 I   0  0  0  0  0  0  0  0  0  0  0  0
    2.0198   -3.0228    0.5319 I   0  0  0  0  0  0  0  0  0  0  0  0
   -3.9307   -2.6683    0.7360 I   0  0  0  0  0  0  0  0  0  0  0  0
    1.5869    0.0057   -0.4978 O   0  0  0  0  0  0  0  0  0  0  0  0
    2.1825    2.9620    1.3046 O   0  0  0  0  0  0  0  0  0  0  0  0
    2.5354    2.5921   -0.9047 O   0  0  0  0  0  0  0  0  0  0  0  0
   -4.8088    1.8468    0.5162 O   0  0  0  0  0  0  0  0  0  0  0  0
   -3.2206    0.3306   -0.3467 N   0  0  0  0  0  0  0  0  0  0  0  0
    3.5613    0.0057    0.8922 C   0  0  0  0  0  0  0  0  0  0  0  0
    4.5695   -0.1160   -0.2594 C   0  0  0  0  0  0  0  0  0  0  0  0
    2.2251    0.6853    0.5709 C   0  0  0  0  0  0  0  0  0  0  0  0
    5.8084   -0.9439    0.0760 C   0  0  0  0  0  0  0  0  0  0  0  0
    0.3642   -0.5577   -0.2338 C   0  0  0  0  0  0  0  0  0  0  0  0
   -2.0406   -0.4017   -0.1564 C   0  0  0  0  0  0  0  0  0  0  0  0
    6.7612   -1.0208   -1.1079 C   0  0  0  0  0  0  0  0  0  0  0  0
   -0.8013    0.1785   -0.4267 C   0  0  0  0  0  0  0  0  0  0  0  0
    2.3481    2.1571    0.2243 C   0  0  0  0  0  0  0  0  0  0  0  0
   -3.8295    0.3454   -1.7097 C   0  0  0  0  0  0  0  0  0  0  0  0
    0.3005   -1.8695    0.2273 C   0  0  0  0  0  0  0  0  0  0  0  0
   -2.1093   -1.7160    0.3059 C   0  0  0  0  0  0  0  0  0  0  0  0
   -0.9387   -2.4500    0.4977 C   0  0  0  0  0  0  0  0  0  0  0  0
   -3.8154    1.1342    0.6816 C   0  0  0  0  0  0  0  0  0  0  0  0
   -4.8891   -0.7271   -1.8556 C   0  0  0  0  0  0  0  0  0  0  0  0
   -3.2092    1.0777    2.0651 C   0  0  0  0  0  0  0  0  0  0  0  0
  1 16  1  0
  2 19  1  0
  3 20  1  0
  4 11  1  0
  4 13  1  0
  5 17  1  0
  6 17  2  0
  7 22  2  0
  8 14  1  0
  8 18  1  0
  8 22  1  0
  9 10  1  0
  9 11  1  0
 10 12  1  0
 11 17  1  0
 12 15  1  0
 13 16  2  0
 13 19  1  0
 14 16  1  0
 14 20  2  0
 18 23  1  0
 19 21  2  0
 20 21  1  0
 22 24  1  0
M  END
>  <PUBCHEM_COMPOUND_CID>  (1) 
32299

>  <PUBCHEM_CONFORMER_RMSD>  (1) 
1

>  <PUBCHEM_CONFORMER_DIVERSEORDER>  (1) 
1
26
6
79
82
76
27
71
31
74
63
5
91
9
15
24
70
48
49
56
80
32
11
41
39
17
29
85
86
59
83
51
25
50
52
81
77
88
30
90
84
10
89
3
57
61
22
87
53
72
78
75
23
33
58
36
62
73
60
28
46
8
35
34
67
21
18
12
13
38
4
66
69
16
7
54
64
20
65
2
37
45
47
44
55
68
14
40
42
19
43

>  <PUBCHEM_MMFF94_PARTIAL_CHARGES>  (1) 
21
1 -0.08
11 0.34
13 0.08
14 0.12
16 0.08
17 0.66
18 0.3
19 0.08
2 -0.08
20 0.08
21 -0.15
22 0.57
24 0.06
3 -0.08
37 0.15
4 -0.36
44 0.5
5 -0.65
6 -0.57
7 -0.57
8 -0.48

>  <PUBCHEM_EFFECTIVE_ROTOR_COUNT>  (1) 
9

>  <PUBCHEM_PHARMACOPHORE_FEATURES>  (1) 
10
1 1 hydrophobe
1 15 hydrophobe
1 2 hydrophobe
1 3 hydrophobe
1 4 acceptor
1 5 acceptor
1 6 acceptor
1 7 acceptor
3 5 6 17 anion
6 13 14 16 19 20 21 rings

>  <PUBCHEM_HEAVY_ATOM_COUNT>  (1) 
24

>  <PUBCHEM_ATOM_DEF_STEREO_COUNT>  (1) 
0

>  <PUBCHEM_ATOM_UDEF_STEREO_COUNT>  (1) 
1

>  <PUBCHEM_BOND_DEF_STEREO_COUNT>  (1) 
0

>  <PUBCHEM_BOND_UDEF_STEREO_COUNT>  (1) 
0

>  <PUBCHEM_ISOTOPIC_ATOM_COUNT>  (1) 
0

>  <PUBCHEM_COMPONENT_COUNT>  (1) 
1

>  <PUBCHEM_CACTVS_TAUTO_COUNT>  (1) 
1

>  <PUBCHEM_CONFORMER_ID>  (1) 
00007E2B00000001

>  <PUBCHEM_MMFF94_ENERGY>  (1) 
100.2052

>  <PUBCHEM_FEATURE_SELFOVERLAP>  (1) 
50.811

>  <PUBCHEM_SHAPE_FINGERPRINT>  (1) 
10366900 7 18260257534394210338
11578080 2 16589695756504354750
12011746 2 18334286548739085198
12166972 35 17560795567590823224
12403259 415 18188201108909179351
12553582 1 18261384521365765248
12633257 1 18336259072488532488
12760667 363 18198342858757830990
13140716 1 18336266837647089080
14178342 30 18334862753277936873
14790565 3 18335148622075217868
15099037 51 18409728456989880150
15183329 4 18335139766042570526
1601671 61 18336265661453862370
16945 1 18334293128449595319
17349148 13 18201433701020967635
17804303 29 18335702771487421886
19591789 44 18263083369699163858
20510252 161 18051414264674896195
20600515 1 18337687351052197484
21267235 1 18335146435551976123
2334 1 18046342208687340364
23402539 116 18130784538381166124
23559900 14 18262509411575478692
2748010 2 18189894408012787518
3004659 81 18114183009253253086
312423 11 18117287049592155310
3286 77 17631721776843196080
335352 9 18409731737954510908
350125 39 18336554922652568219
437815 12 18130791140568748468
474 4 18411980235265295489
5104073 3 18335978766149082744
59755656 215 18260823795921118887
59755656 520 18408604739132366419
6328613 192 18411990178489749080
7164475 11 17626086908906033062

>  <PUBCHEM_SHAPE_MULTIPOLES>  (1) 
501.26
11.44
3.49
1.44
10.55
0.45
0.01
1.74
2.2
-0.11
-0.63
-1.28
-0.52
0.33

>  <PUBCHEM_SHAPE_SELFOVERLAP>  (1) 
955.394

>  <PUBCHEM_SHAPE_VOLUME>  (1) 
315.8

>  <PUBCHEM_COORDINATE_TYPE>  (1) 
2
5
10

$$$$
