32302
     RDKit          3D

 22 22  0  0  1  0  0  0  0  0999 V2000
    0.0447   -1.9056    1.3523 I   0  0  0  0  0  0  0  0  0  0  0  0
    3.2925    2.9781   -0.4288 I   0  0  0  0  0  0  0  0  0  0  0  0
   -2.6672    3.2133   -0.5052 I   0  0  0  0  0  0  0  0  0  0  0  0
   -2.2222    0.2066    0.5843 O   0  0  0  0  0  0  0  0  0  0  0  0
   -2.7239   -2.7632   -1.2067 O   0  0  0  0  0  0  0  0  0  0  0  0
    2.7044   -0.8929   -1.5160 O   0  0  0  0  0  0  0  0  0  0  0  0
   -3.1678   -2.3838    0.9917 O   0  0  0  0  0  0  0  0  0  0  0  0
    2.5921   -0.0222    0.6616 N   0  0  0  0  0  0  0  0  0  0  0  0
   -2.7961   -0.5026   -0.5097 C   0  0  0  0  0  0  0  0  0  0  0  0
   -4.1339    0.1382   -0.8832 C   0  0  0  0  0  0  0  0  0  0  0  0
    1.3684    0.7081    0.3989 C   0  0  0  0  0  0  0  0  0  0  0  0
   -1.0051    0.7898    0.3721 C   0  0  0  0  0  0  0  0  0  0  0  0
    0.1694    0.0823    0.6278 C   0  0  0  0  0  0  0  0  0  0  0  0
    1.4725    1.9938   -0.0686 C   0  0  0  0  0  0  0  0  0  0  0  0
   -0.9408    2.0994   -0.1039 C   0  0  0  0  0  0  0  0  0  0  0  0
    3.1664   -0.7890   -0.3768 C   0  0  0  0  0  0  0  0  0  0  0  0
   -5.1425    0.1658    0.2598 C   0  0  0  0  0  0  0  0  0  0  0  0
    0.2980    2.7014   -0.3243 C   0  0  0  0  0  0  0  0  0  0  0  0
    4.4299   -1.5632   -0.0120 C   0  0  0  0  0  0  0  0  0  0  0  0
    3.1958    0.0591    2.0009 C   0  0  0  0  0  0  0  0  0  0  0  0
   -2.9319   -1.9621   -0.1315 C   0  0  0  0  0  0  0  0  0  0  0  0
    4.9972   -2.3514   -1.1828 C   0  0  0  0  0  0  0  0  0  0  0  0
  1 13  1  0
  2 14  1  0
  3 15  1  0
  4  9  1  0
  4 12  1  0
  5 21  1  0
  6 16  2  0
  7 21  2  0
  8 11  1  0
  8 16  1  0
  8 20  1  0
  9 10  1  0
  9 21  1  0
 10 17  1  0
 11 13  2  0
 11 14  1  0
 12 13  1  0
 12 15  2  0
 14 18  2  0
 15 18  1  0
 16 19  1  0
 19 22  1  0
M  END
>  <PUBCHEM_COMPOUND_CID>  (1) 
32302

>  <PUBCHEM_CONFORMER_RMSD>  (1) 
0.8

>  <PUBCHEM_CONFORMER_DIVERSEORDER>  (1) 
3
63
22
62
60
28
29
64
71
18
31
50
68
69
61
37
66
55
32
70
48
57
26
58
38
12
24
47
65
7
72
52
20
25
13
54
34
44
53
35
21
10
40
59
2
43
27
6
56
16
49
17
30
5
23
45
41
4
51
67
36
39
11
9
19
33
42
15
8
46
1
14

>  <PUBCHEM_MMFF94_PARTIAL_CHARGES>  (1) 
21
1 -0.08
11 0.12
12 0.08
13 0.08
14 0.08
15 0.08
16 0.57
18 -0.15
19 0.06
2 -0.08
20 0.3
21 0.66
29 0.15
3 -0.08
38 0.5
4 -0.36
5 -0.65
6 -0.57
7 -0.57
8 -0.48
9 0.34

>  <PUBCHEM_EFFECTIVE_ROTOR_COUNT>  (1) 
7

>  <PUBCHEM_PHARMACOPHORE_FEATURES>  (1) 
11
1 1 hydrophobe
1 17 hydrophobe
1 2 hydrophobe
1 22 hydrophobe
1 3 hydrophobe
1 4 acceptor
1 5 acceptor
1 6 acceptor
1 7 acceptor
3 5 7 21 anion
6 11 12 13 14 15 18 rings

>  <PUBCHEM_HEAVY_ATOM_COUNT>  (1) 
22

>  <PUBCHEM_ATOM_DEF_STEREO_COUNT>  (1) 
0

>  <PUBCHEM_ATOM_UDEF_STEREO_COUNT>  (1) 
1

>  <PUBCHEM_BOND_DEF_STEREO_COUNT>  (1) 
0

>  <PUBCHEM_BOND_UDEF_STEREO_COUNT>  (1) 
0

>  <PUBCHEM_ISOTOPIC_ATOM_COUNT>  (1) 
0

>  <PUBCHEM_COMPONENT_COUNT>  (1) 
1

>  <PUBCHEM_CACTVS_TAUTO_COUNT>  (1) 
1

>  <PUBCHEM_CONFORMER_ID>  (1) 
00007E2E00000003

>  <PUBCHEM_MMFF94_ENERGY>  (1) 
96.9549

>  <PUBCHEM_FEATURE_SELFOVERLAP>  (1) 
55.885

>  <PUBCHEM_SHAPE_FINGERPRINT>  (1) 
10906281 52 18189621725335785568
11578080 2 17631435908252170577
116883 192 18411698781368068116
12553582 1 18334848386274936147
12596599 1 18271818946531847211
13140716 1 18262509424919336313
13583140 156 14620503476993973075
14178342 30 18119788245419900864
14251757 5 18263651679602705981
14790565 3 18336271150464920621
15163728 17 16156542318135126596
16752209 62 18188767232511220553
16945 1 18334289825746572761
17492 89 18268147750279656487
18186145 218 17822282535183656407
19141452 34 18130785659758156847
19591789 44 17473543547427681713
20600515 1 18121193438961370576
20645477 70 18337104674208002733
20871999 31 18262809458460074276
21634736 98 18335138708815633036
221490 88 18336552728050549082
23184049 29 18335129925507513528
2334 1 18046057435545206569
23402539 116 18191307075045070734
23557571 272 18270104739506479848
23558518 356 18333740121372390160
23559900 14 18411417328382905280
23566358 2 18117557537989658364
2748010 2 18116437140136479833
3052486 1 18116986698529545576
335352 9 18410293567427974045
4280585 95 18335699396007007302
559249 180 18047750399836823578
633830 44 18188483678928879803
9709674 26 18411414024936220468

>  <PUBCHEM_SHAPE_MULTIPOLES>  (1) 
460.1
8.94
4
1.3
0.45
1.7
0.15
-3.57
-2.22
-0.07
-0.66
0.81
-0.67
0.62

>  <PUBCHEM_SHAPE_SELFOVERLAP>  (1) 
881.619

>  <PUBCHEM_SHAPE_VOLUME>  (1) 
290.2

>  <PUBCHEM_COORDINATE_TYPE>  (1) 
2
5
10

$$$$
