32304
     RDKit          3D

 24 24  0  0  1  0  0  0  0  0999 V2000
   -0.2965    1.1964    2.1205 I   0  0  0  0  0  0  0  0  0  0  0  0
    3.3584   -2.4300   -1.2032 I   0  0  0  0  0  0  0  0  0  0  0  0
   -2.5613   -3.0191   -1.6339 I   0  0  0  0  0  0  0  0  0  0  0  0
   -2.3756   -0.6205    0.5183 O   0  0  0  0  0  0  0  0  0  0  0  0
    3.9125    1.6651    0.6334 O   0  0  0  0  0  0  0  0  0  0  0  0
   -3.1502    2.7604   -0.0705 O   0  0  0  0  0  0  0  0  0  0  0  0
   -3.5320    1.5559    1.8208 O   0  0  0  0  0  0  0  0  0  0  0  0
    2.4039   -0.1145    0.8937 N   0  0  0  0  0  0  0  0  0  0  0  0
    1.2462   -0.7720    0.3215 C   0  0  0  0  0  0  0  0  0  0  0  0
    2.9883   -0.6535    2.1318 C   0  0  0  0  0  0  0  0  0  0  0  0
    2.1892    1.4827   -1.0070 C   0  0  0  0  0  0  0  0  0  0  0  0
    2.9340    1.0226    0.2442 C   0  0  0  0  0  0  0  0  0  0  0  0
   -2.9872    0.4067   -0.2562 C   0  0  0  0  0  0  0  0  0  0  0  0
   -0.0021   -0.3602    0.7129 C   0  0  0  0  0  0  0  0  0  0  0  0
   -1.1125   -0.9968    0.1582 C   0  0  0  0  0  0  0  0  0  0  0  0
    2.8229    2.7165   -1.6513 C   0  0  0  0  0  0  0  0  0  0  0  0
   -4.2629   -0.1383   -0.9005 C   0  0  0  0  0  0  0  0  0  0  0  0
    1.4600   -1.7776   -0.5871 C   0  0  0  0  0  0  0  0  0  0  0  0
    4.0562   -1.6866    1.8375 C   0  0  0  0  0  0  0  0  0  0  0  0
   -0.9365   -2.0238   -0.7691 C   0  0  0  0  0  0  0  0  0  0  0  0
    0.3497   -2.4142   -1.1418 C   0  0  0  0  0  0  0  0  0  0  0  0
    2.0792    3.1319   -2.9104 C   0  0  0  0  0  0  0  0  0  0  0  0
   -5.3381   -0.5352    0.1050 C   0  0  0  0  0  0  0  0  0  0  0  0
   -3.2456    1.6042    0.6331 C   0  0  0  0  0  0  0  0  0  0  0  0
  1 14  1  0
  2 18  1  0
  3 20  1  0
  4 13  1  0
  4 15  1  0
  5 12  2  0
  6 24  1  0
  7 24  2  0
  8  9  1  0
  8 10  1  0
  8 12  1  0
  9 14  2  0
  9 18  1  0
 10 19  1  0
 11 12  1  0
 11 16  1  0
 13 17  1  0
 13 24  1  0
 14 15  1  0
 15 20  2  0
 16 22  1  0
 17 23  1  0
 18 21  2  0
 20 21  1  0
M  END
>  <PUBCHEM_COMPOUND_CID>  (1) 
32304

>  <PUBCHEM_CONFORMER_RMSD>  (1) 
1

>  <PUBCHEM_CONFORMER_DIVERSEORDER>  (1) 
2
29
15
39
67
14
69
60
62
49
54
28
22
51
5
35
63
36
23
24
32
47
10
44
17
6
53
34
65
48
45
58
71
38
37
9
18
50
30
40
12
16
57
25
55
31
52
3
59
42
64
56
8
13
61
70
19
7
68
43
41
21
1
46
33
4
66
27
20
26
11

>  <PUBCHEM_MMFF94_PARTIAL_CHARGES>  (1) 
21
1 -0.08
10 0.3
11 0.06
12 0.57
13 0.34
14 0.08
15 0.08
18 0.08
2 -0.08
20 0.08
21 -0.15
24 0.66
3 -0.08
37 0.15
4 -0.36
44 0.5
5 -0.57
6 -0.65
7 -0.57
8 -0.48
9 0.12

>  <PUBCHEM_EFFECTIVE_ROTOR_COUNT>  (1) 
9

>  <PUBCHEM_PHARMACOPHORE_FEATURES>  (1) 
11
1 1 hydrophobe
1 2 hydrophobe
1 22 hydrophobe
1 23 hydrophobe
1 3 hydrophobe
1 4 acceptor
1 5 acceptor
1 6 acceptor
1 7 acceptor
3 6 7 24 anion
6 9 14 15 18 20 21 rings

>  <PUBCHEM_HEAVY_ATOM_COUNT>  (1) 
24

>  <PUBCHEM_ATOM_DEF_STEREO_COUNT>  (1) 
0

>  <PUBCHEM_ATOM_UDEF_STEREO_COUNT>  (1) 
1

>  <PUBCHEM_BOND_DEF_STEREO_COUNT>  (1) 
0

>  <PUBCHEM_BOND_UDEF_STEREO_COUNT>  (1) 
0

>  <PUBCHEM_ISOTOPIC_ATOM_COUNT>  (1) 
0

>  <PUBCHEM_COMPONENT_COUNT>  (1) 
1

>  <PUBCHEM_CACTVS_TAUTO_COUNT>  (1) 
1

>  <PUBCHEM_CONFORMER_ID>  (1) 
00007E3000000002

>  <PUBCHEM_MMFF94_ENERGY>  (1) 
104.987

>  <PUBCHEM_FEATURE_SELFOVERLAP>  (1) 
55.885

>  <PUBCHEM_SHAPE_FINGERPRINT>  (1) 
10291535 26 16676146370689456804
11640471 11 18191031303321043316
12422481 6 18264466431474208736
12788726 201 18051405464161072347
13009979 54 18266160894002399978
13134695 92 17386554787611470270
13140716 1 17557424284905162219
13583140 156 17458348545860799091
16945 1 17917424393121861779
17349148 13 18341884173902595707
1813 80 18188485745367416002
18186145 218 17914897543655093187
20600515 1 18198607853512439018
20715895 44 17976243657230630813
20739085 24 18114731682149358818
21756936 100 17029676652346747852
21860390 5 17676494951404755460
22149856 69 18130239220487528187
23419403 2 17195987273651359382
23526113 38 16558203725224136576
23557571 272 17275389810745554361
23558518 356 18336829804881327266
23559900 14 17560517292866323274
23598291 2 18263063531508948426
2748010 2 17704354393993279062
3286 77 16877656833963724507
350125 39 18130233636375648783
474 4 17750233780204468844
513202 73 17538266351506439242
6287921 2 18196951993232516293

>  <PUBCHEM_SHAPE_MULTIPOLES>  (1) 
501.26
8.31
3.8
2.31
5.28
0.5
-0.53
-0.74
0.35
-0.47
-2.32
-2.23
-1.54
-2.45

>  <PUBCHEM_SHAPE_SELFOVERLAP>  (1) 
960.522

>  <PUBCHEM_SHAPE_VOLUME>  (1) 
314.4

>  <PUBCHEM_COORDINATE_TYPE>  (1) 
2
5
10

$$$$
