32309
     RDKit          3D

 15 16  0  0  0  0  0  0  0  0999 V2000
   -1.0285   -2.5369    0.2730 O   0  0  0  0  0  0  0  0  0  0  0  0
    2.5251   -0.2228   -0.0081 N   0  0  0  0  0  0  0  0  0  0  0  0
    1.3116   -0.6483   -0.3949 N   0  0  0  0  0  0  0  0  0  0  0  0
    4.7958    0.3318   -0.4087 C   0  0  0  0  0  0  0  0  0  0  0  0
    4.1739    1.2927    0.5940 C   0  0  0  0  0  0  0  0  0  0  0  0
    3.6585   -0.5788   -0.8580 C   0  0  0  0  0  0  0  0  0  0  0  0
    2.6827    1.1853    0.3418 C   0  0  0  0  0  0  0  0  0  0  0  0
    0.5248   -0.8546    0.6022 C   0  0  0  0  0  0  0  0  0  0  0  0
   -0.8604   -1.3274    0.3170 C   0  0  0  0  0  0  0  0  0  0  0  0
   -1.9508   -0.3493    0.1133 C   0  0  0  0  0  0  0  0  0  0  0  0
   -1.6659    1.0016    0.1912 C   0  0  0  0  0  0  0  0  0  0  0  0
   -3.2276   -0.8101   -0.1505 C   0  0  0  0  0  0  0  0  0  0  0  0
   -2.6942    1.9243   -0.0011 C   0  0  0  0  0  0  0  0  0  0  0  0
   -4.2558    0.1127   -0.3429 C   0  0  0  0  0  0  0  0  0  0  0  0
   -3.9890    1.4798   -0.2683 C   0  0  0  0  0  0  0  0  0  0  0  0
  1  9  2  0
  2  3  1  0
  2  6  1  0
  2  7  1  0
  3  8  2  0
  4  5  1  0
  4  6  1  0
  5  7  1  0
  8  9  1  0
  9 10  1  0
 10 11  2  0
 10 12  1  0
 11 13  1  0
 12 14  2  0
 13 15  2  0
 14 15  1  0
M  END
>  <PUBCHEM_COMPOUND_CID>  (1) 
32309

>  <PUBCHEM_CONFORMER_RMSD>  (1) 
0.6

>  <PUBCHEM_CONFORMER_DIVERSEORDER>  (1) 
1
15
11
9
16
17
19
12
5
14
10
13
18
2
8
4
6
3
7

>  <PUBCHEM_MMFF94_PARTIAL_CHARGES>  (1) 
19
1 -0.57
10 0.09
11 -0.15
12 -0.15
13 -0.15
14 -0.15
15 -0.15
2 -0.49
24 0.06
25 0.15
26 0.15
27 0.15
28 0.15
29 0.15
3 -0.5
6 0.27
7 0.27
8 0.39
9 0.48

>  <PUBCHEM_EFFECTIVE_ROTOR_COUNT>  (1) 
4

>  <PUBCHEM_PHARMACOPHORE_FEATURES>  (1) 
4
1 1 acceptor
1 3 acceptor
5 2 4 5 6 7 rings
6 10 11 12 13 14 15 rings

>  <PUBCHEM_HEAVY_ATOM_COUNT>  (1) 
15

>  <PUBCHEM_ATOM_DEF_STEREO_COUNT>  (1) 
0

>  <PUBCHEM_ATOM_UDEF_STEREO_COUNT>  (1) 
0

>  <PUBCHEM_BOND_DEF_STEREO_COUNT>  (1) 
0

>  <PUBCHEM_BOND_UDEF_STEREO_COUNT>  (1) 
1

>  <PUBCHEM_ISOTOPIC_ATOM_COUNT>  (1) 
0

>  <PUBCHEM_COMPONENT_COUNT>  (1) 
1

>  <PUBCHEM_CACTVS_TAUTO_COUNT>  (1) 
1

>  <PUBCHEM_CONFORMER_ID>  (1) 
00007E3500000001

>  <PUBCHEM_MMFF94_ENERGY>  (1) 
31.0175

>  <PUBCHEM_FEATURE_SELFOVERLAP>  (1) 
20.298

>  <PUBCHEM_SHAPE_FINGERPRINT>  (1) 
10498660 4 18335696096834359677
10608611 8 18341612667829692168
10646746 165 18409730668808262684
11046707 91 10447927265335364087
11132069 177 18334857220780142285
11543360 7 17060046077716158965
12173636 292 18410006628894075807
12346645 44 18334574595089624403
12500047 106 18410294744143660678
12788726 201 16882748883251305970
12916748 109 18408890632944297739
13081056 2 18413672417556145632
14123255 52 18335979792113437755
14897335 6 18335417958973164074
15196674 1 18411418405823889880
15775835 57 18187083914531871449
1741750 31 18408885131028200050
17802600 8 18411696603956864008
18186145 218 18201164260495102314
200 152 16271932601483593322
20281407 28 9007057980545339494
20300324 65 18201997742260046645
20510252 161 18341897398344056257
20645477 56 18410296942839498346
20645477 70 17275117106883496374
20671657 53 14117792505461910642
20871999 31 17703494580832973311
212847 35 18260829268067539224
21524375 3 18261673675353857819
22485316 2 10015868669374117420
23402539 116 18340760515910464583
23402655 69 18131351890887146820
23557571 272 18269846469768648663
23559900 14 18343865503099747746
3268164 11 18410282636393067735
328317 168 18408317796087106205
351380 180 18342453746922258668
3545911 37 18412267246317661478
4028521 119 18411697673298076349
474 4 17603872208310561142
5104073 3 18408604734088099434
6430166 295 18335699429934105464
69090 78 18343862238143965638
7364860 26 18122059801983030771
83771 10 10159693594790865954
9709674 26 18342744047993719206

>  <PUBCHEM_SHAPE_MULTIPOLES>  (1) 
292.86
9.54
1.91
0.76
5.19
0.22
0.02
-3.55
1.39
-1.02
-0.2
0.31
0.01
0.52

>  <PUBCHEM_SHAPE_SELFOVERLAP>  (1) 
614.456

>  <PUBCHEM_SHAPE_VOLUME>  (1) 
166.5

>  <PUBCHEM_COORDINATE_TYPE>  (1) 
2
5
10

$$$$
