32308
     RDKit          3D

 18 18  0  0  0  0  0  0  0  0999 V2000
    1.0758    2.6417    0.2336 O   0  0  0  0  0  0  0  0  0  0  0  0
   -4.7582   -1.6321    0.5193 O   0  0  0  0  0  0  0  0  0  0  0  0
   -5.2703   -0.0096   -0.8679 O   0  0  0  0  0  0  0  0  0  0  0  0
    3.5776   -0.8025   -0.0196 N   0  0  0  0  0  0  0  0  0  0  0  0
    2.5669    0.0225   -0.3981 N   0  0  0  0  0  0  0  0  0  0  0  0
   -4.4496   -0.6003   -0.1248 N   0  0  0  0  0  0  0  0  0  0  0  0
    3.4540   -2.1920   -0.4796 C   0  0  0  0  0  0  0  0  0  0  0  0
    4.9066   -0.3010   -0.3792 C   0  0  0  0  0  0  0  0  0  0  0  0
    2.0908   -2.7661   -0.1326 C   0  0  0  0  0  0  0  0  0  0  0  0
    5.0916    1.1373    0.0736 C   0  0  0  0  0  0  0  0  0  0  0  0
   -0.5645    0.9175    0.2170 C   0  0  0  0  0  0  0  0  0  0  0  0
    0.8082    1.4541    0.3383 C   0  0  0  0  0  0  0  0  0  0  0  0
    1.9491    0.5336    0.6091 C   0  0  0  0  0  0  0  0  0  0  0  0
   -0.9076   -0.2191    0.9255 C   0  0  0  0  0  0  0  0  0  0  0  0
   -1.4707    1.5662   -0.6016 C   0  0  0  0  0  0  0  0  0  0  0  0
   -3.1316   -0.0853   -0.0090 C   0  0  0  0  0  0  0  0  0  0  0  0
   -2.2024   -0.7251    0.8116 C   0  0  0  0  0  0  0  0  0  0  0  0
   -2.7656    1.0603   -0.7156 C   0  0  0  0  0  0  0  0  0  0  0  0
  1 12  2  0
  2  6  1  0
  3  6  2  0
  4  5  1  0
  4  7  1  0
  4  8  1  0
  5 13  2  0
  6 16  1  0
  7  9  1  0
  8 10  1  0
 11 12  1  0
 11 14  2  0
 11 15  1  0
 12 13  1  0
 14 17  1  0
 15 18  2  0
 16 17  2  0
 16 18  1  0
M  CHG  2   2  -1   6   1
M  END
>  <PUBCHEM_COMPOUND_CID>  (1) 
32308

>  <PUBCHEM_CONFORMER_RMSD>  (1) 
0.8

>  <PUBCHEM_CONFORMER_DIVERSEORDER>  (1) 
1
11
10
6
5
4
13
8
14
9
3
2
7
12

>  <PUBCHEM_MMFF94_PARTIAL_CHARGES>  (1) 
21
1 -0.57
11 0.09
12 0.48
13 0.39
14 -0.15
15 -0.15
16 0.13
17 -0.15
18 -0.15
2 -0.52
29 0.06
3 -0.52
30 0.15
31 0.15
32 0.15
33 0.15
4 -0.49
5 -0.5
6 0.91
7 0.27
8 0.27

>  <PUBCHEM_EFFECTIVE_ROTOR_COUNT>  (1) 
6

>  <PUBCHEM_PHARMACOPHORE_FEATURES>  (1) 
6
1 1 acceptor
1 2 acceptor
1 2 anion
1 3 acceptor
1 5 acceptor
6 11 14 15 16 17 18 rings

>  <PUBCHEM_HEAVY_ATOM_COUNT>  (1) 
18

>  <PUBCHEM_ATOM_DEF_STEREO_COUNT>  (1) 
0

>  <PUBCHEM_ATOM_UDEF_STEREO_COUNT>  (1) 
0

>  <PUBCHEM_BOND_DEF_STEREO_COUNT>  (1) 
0

>  <PUBCHEM_BOND_UDEF_STEREO_COUNT>  (1) 
1

>  <PUBCHEM_ISOTOPIC_ATOM_COUNT>  (1) 
0

>  <PUBCHEM_COMPONENT_COUNT>  (1) 
1

>  <PUBCHEM_CACTVS_TAUTO_COUNT>  (1) 
1

>  <PUBCHEM_CONFORMER_ID>  (1) 
00007E3400000001

>  <PUBCHEM_MMFF94_ENERGY>  (1) 
40.178

>  <PUBCHEM_FEATURE_SELFOVERLAP>  (1) 
30.53

>  <PUBCHEM_SHAPE_FINGERPRINT>  (1) 
10447042 23 18410284792672768086
11045977 3 11023821786541361933
12251169 10 12607401096099777472
12596602 18 16702302385886205003
12670546 177 17822294599635989060
14251764 18 17989491819083520777
14252887 29 17489314066301200092
14386348 63 18408044021802121490
14790565 3 17473544651472290109
15196674 1 18339081484524923414
15375358 24 18260832596572202874
15375462 189 17774996873948064046
15635459 17 18411420588062908802
19433438 38 18260825977769026366
200 152 18131350817134695393
20281475 54 18270965618387549344
20374829 77 18259980487813637937
20645477 70 18335979873934035817
20871999 31 18187083914548007589
212847 35 10015580619330081898
21285901 2 18041274374853311935
2215653 11 18411409601842150733
23402539 116 17603579742259319663
23557571 272 17749103370571591868
23559900 14 18336540629107031993
2871803 45 18409732824966488174
3004659 81 18114461146364888170
33824 294 18412544319322373338
474229 33 18411701007010303978
4990 188 18113614599525395417
5104073 3 18340768126813923282
5283173 99 18114736015265523868
5486654 2 18341618170247281252
7364860 26 18266458887539693976
83771 10 18344146977517354296
90316 7 14333123036146914819
9709674 26 18263651684214379010

>  <PUBCHEM_SHAPE_MULTIPOLES>  (1) 
337.88
10.5
2.34
0.84
0.99
0.64
0.03
2.94
-1.69
-1.55
-0.08
0.32
0
0.83

>  <PUBCHEM_SHAPE_SELFOVERLAP>  (1) 
691.431

>  <PUBCHEM_SHAPE_VOLUME>  (1) 
196.1

>  <PUBCHEM_COORDINATE_TYPE>  (1) 
2
5
10

$$$$
