32305
     RDKit          3D

 24 24  0  0  1  0  0  0  0  0999 V2000
   -0.7188    1.8959   -1.5717 I   0  0  0  0  0  0  0  0  0  0  0  0
    2.1033   -2.9654    0.7517 I   0  0  0  0  0  0  0  0  0  0  0  0
   -3.8515   -2.9828    0.4130 I   0  0  0  0  0  0  0  0  0  0  0  0
    1.5921   -0.0629   -0.5651 O   0  0  0  0  0  0  0  0  0  0  0  0
    1.8501    3.0599    1.0239 O   0  0  0  0  0  0  0  0  0  0  0  0
    2.4231    2.5389   -1.1075 O   0  0  0  0  0  0  0  0  0  0  0  0
   -4.9661    1.3781   -0.1650 O   0  0  0  0  0  0  0  0  0  0  0  0
   -3.2199   -0.0398   -0.8556 N   0  0  0  0  0  0  0  0  0  0  0  0
    3.4286    0.1759    0.9842 C   0  0  0  0  0  0  0  0  0  0  0  0
    4.5428    0.0286   -0.0620 C   0  0  0  0  0  0  0  0  0  0  0  0
    2.0903    0.7395    0.4927 C   0  0  0  0  0  0  0  0  0  0  0  0
    5.7916   -0.6878    0.4478 C   0  0  0  0  0  0  0  0  0  0  0  0
    0.3849   -0.6817   -0.3602 C   0  0  0  0  0  0  0  0  0  0  0  0
    6.8509   -0.7967   -0.6391 C   0  0  0  0  0  0  0  0  0  0  0  0
    2.1593    2.1840    0.0342 C   0  0  0  0  0  0  0  0  0  0  0  0
   -2.0218   -0.6765   -0.5031 C   0  0  0  0  0  0  0  0  0  0  0  0
   -0.7986   -0.0403   -0.7144 C   0  0  0  0  0  0  0  0  0  0  0  0
    0.3553   -1.9541    0.2036 C   0  0  0  0  0  0  0  0  0  0  0  0
   -2.0565   -1.9515    0.0617 C   0  0  0  0  0  0  0  0  0  0  0  0
   -0.8679   -2.5904    0.4149 C   0  0  0  0  0  0  0  0  0  0  0  0
   -3.9099    0.7943    0.0907 C   0  0  0  0  0  0  0  0  0  0  0  0
   -3.2683    0.9820    1.4626 C   0  0  0  0  0  0  0  0  0  0  0  0
   -3.8001   -0.2168   -2.2199 C   0  0  0  0  0  0  0  0  0  0  0  0
   -4.0928    1.8697    2.3825 C   0  0  0  0  0  0  0  0  0  0  0  0
  1 17  1  0
  2 18  1  0
  3 19  1  0
  4 11  1  0
  4 13  1  0
  5 15  1  0
  6 15  2  0
  7 21  2  0
  8 16  1  0
  8 21  1  0
  8 23  1  0
  9 10  1  0
  9 11  1  0
 10 12  1  0
 11 15  1  0
 12 14  1  0
 13 17  2  0
 13 18  1  0
 16 17  1  0
 16 19  2  0
 18 20  2  0
 19 20  1  0
 21 22  1  0
 22 24  1  0
M  END
>  <PUBCHEM_COMPOUND_CID>  (1) 
32305

>  <PUBCHEM_CONFORMER_RMSD>  (1) 
1

>  <PUBCHEM_CONFORMER_DIVERSEORDER>  (1) 
1
57
12
81
71
62
30
65
98
54
82
21
77
89
90
55
69
56
9
111
15
41
33
103
10
43
20
88
66
3
106
91
86
68
35
96
93
95
8
107
31
61
14
6
24
64
13
94
84
92
22
36
101
50
19
53
87
72
46
48
109
104
16
80
29
63
17
42
25
85
32
75
70
49
83
79
102
7
23
59
37
73
18
4
108
34
100
28
51
60
76
38
39
78
47
45
11
2
110
44
52
74
97
105
67
40
27
58
26
99
5

>  <PUBCHEM_MMFF94_PARTIAL_CHARGES>  (1) 
21
1 -0.08
11 0.34
13 0.08
15 0.66
16 0.12
17 0.08
18 0.08
19 0.08
2 -0.08
20 -0.15
21 0.57
22 0.06
23 0.3
3 -0.08
35 0.15
4 -0.36
44 0.5
5 -0.65
6 -0.57
7 -0.57
8 -0.48

>  <PUBCHEM_EFFECTIVE_ROTOR_COUNT>  (1) 
9

>  <PUBCHEM_PHARMACOPHORE_FEATURES>  (1) 
11
1 1 hydrophobe
1 14 hydrophobe
1 2 hydrophobe
1 24 hydrophobe
1 3 hydrophobe
1 4 acceptor
1 5 acceptor
1 6 acceptor
1 7 acceptor
3 5 6 15 anion
6 13 16 17 18 19 20 rings

>  <PUBCHEM_HEAVY_ATOM_COUNT>  (1) 
24

>  <PUBCHEM_ATOM_DEF_STEREO_COUNT>  (1) 
0

>  <PUBCHEM_ATOM_UDEF_STEREO_COUNT>  (1) 
1

>  <PUBCHEM_BOND_DEF_STEREO_COUNT>  (1) 
0

>  <PUBCHEM_BOND_UDEF_STEREO_COUNT>  (1) 
0

>  <PUBCHEM_ISOTOPIC_ATOM_COUNT>  (1) 
0

>  <PUBCHEM_COMPONENT_COUNT>  (1) 
1

>  <PUBCHEM_CACTVS_TAUTO_COUNT>  (1) 
1

>  <PUBCHEM_CONFORMER_ID>  (1) 
00007E3100000001

>  <PUBCHEM_MMFF94_ENERGY>  (1) 
96.2506

>  <PUBCHEM_FEATURE_SELFOVERLAP>  (1) 
55.887

>  <PUBCHEM_SHAPE_FINGERPRINT>  (1) 
10366900 7 17967801747883847987
10906281 52 18270417052833412308
11640471 11 18059583434538280617
12011746 2 18261380131608372318
12553582 1 18188475918228612720
12633257 1 18409446981670323440
13140716 1 18335136556847133220
14178342 30 18336557083490499359
14466204 15 18410288108413641210
14790565 3 18048598114532160060
15183329 4 18409728431563279370
15537594 2 17749387045067118306
1601671 61 18335979801315561962
16945 1 18261104149778918383
17804303 29 18334289916225670510
19591789 44 18189331441148899030
20510252 161 17978791534592711323
20600515 1 18410023130211538644
20739085 24 18049456850240380018
21033648 29 17346303917634831850
21267235 1 18261395610713419127
21756936 100 17988932128662085395
2334 1 17900814161065373846
23558518 356 18118686762227990630
23559900 14 18189883382873800430
2748010 2 17972304377096737566
3004659 81 18113051620399311634
312423 11 18116440434218185454
335352 9 18408318882639791182
350125 39 18263367039293490483
392239 28 18198925750175485867
4340502 62 18410019828240958897
474 4 18412543189497801305
5104073 3 18336258050739886688
59755656 215 18339643318224782494
59755656 520 18409162204380967439
6328613 192 18341900718876586960
7226269 152 17917153801761175592

>  <PUBCHEM_SHAPE_MULTIPOLES>  (1) 
501.26
11.08
3.62
1.58
11.82
0.99
-0.19
0.55
-0.73
-0.89
-0.63
-1.83
-0.99
-0.67

>  <PUBCHEM_SHAPE_SELFOVERLAP>  (1) 
954.704

>  <PUBCHEM_SHAPE_VOLUME>  (1) 
316

>  <PUBCHEM_COORDINATE_TYPE>  (1) 
2
5
10

$$$$
