32303
     RDKit          3D

 23 23  0  0  1  0  0  0  0  0999 V2000
   -0.2064   -1.8319    1.5621 I   0  0  0  0  0  0  0  0  0  0  0  0
    3.4925    2.4435   -0.8074 I   0  0  0  0  0  0  0  0  0  0  0  0
   -2.4064    3.3285   -0.7919 I   0  0  0  0  0  0  0  0  0  0  0  0
   -2.2546    0.4263    0.6157 O   0  0  0  0  0  0  0  0  0  0  0  0
    3.9214   -2.0186   -0.1908 O   0  0  0  0  0  0  0  0  0  0  0  0
   -3.1386   -2.6414   -0.8288 O   0  0  0  0  0  0  0  0  0  0  0  0
   -3.4626   -1.9837    1.3244 O   0  0  0  0  0  0  0  0  0  0  0  0
    2.5066   -0.3281    0.6169 N   0  0  0  0  0  0  0  0  0  0  0  0
    1.3613    0.5018    0.3009 C   0  0  0  0  0  0  0  0  0  0  0  0
   -2.9397   -0.3258   -0.3813 C   0  0  0  0  0  0  0  0  0  0  0  0
    3.1582   -0.1726    1.9268 C   0  0  0  0  0  0  0  0  0  0  0  0
   -0.9891    0.8436    0.3139 C   0  0  0  0  0  0  0  0  0  0  0  0
    0.1096    0.0410    0.6215 C   0  0  0  0  0  0  0  0  0  0  0  0
   -4.2116    0.4178   -0.7926 C   0  0  0  0  0  0  0  0  0  0  0  0
    2.9607   -1.2598   -0.3430 C   0  0  0  0  0  0  0  0  0  0  0  0
    1.5889    1.7110   -0.3062 C   0  0  0  0  0  0  0  0  0  0  0  0
    2.2053   -1.2712   -1.6690 C   0  0  0  0  0  0  0  0  0  0  0  0
   -0.7987    2.0798   -0.3035 C   0  0  0  0  0  0  0  0  0  0  0  0
    0.4903    2.5134   -0.6136 C   0  0  0  0  0  0  0  0  0  0  0  0
    4.2637    0.8680    1.8700 C   0  0  0  0  0  0  0  0  0  0  0  0
   -5.1714    0.6793    0.3631 C   0  0  0  0  0  0  0  0  0  0  0  0
   -3.2209   -1.7125    0.1570 C   0  0  0  0  0  0  0  0  0  0  0  0
    2.7412   -2.3086   -2.6440 C   0  0  0  0  0  0  0  0  0  0  0  0
  1 13  1  0
  2 16  1  0
  3 18  1  0
  4 10  1  0
  4 12  1  0
  5 15  2  0
  6 22  1  0
  7 22  2  0
  8  9  1  0
  8 11  1  0
  8 15  1  0
  9 13  2  0
  9 16  1  0
 10 14  1  0
 10 22  1  0
 11 20  1  0
 12 13  1  0
 12 18  2  0
 14 21  1  0
 15 17  1  0
 16 19  2  0
 17 23  1  0
 18 19  1  0
M  END
>  <PUBCHEM_COMPOUND_CID>  (1) 
32303

>  <PUBCHEM_CONFORMER_RMSD>  (1) 
0.8

>  <PUBCHEM_CONFORMER_DIVERSEORDER>  (1) 
3
98
25
32
81
97
83
76
84
109
79
86
53
45
102
56
64
69
55
78
37
14
65
105
89
51
67
108
90
94
24
87
44
52
58
106
104
82
103
46
31
36
20
68
13
50
42
93
47
41
101
19
91
75
100
59
33
48
39
57
96
72
71
26
30
74
22
73
21
6
54
17
63
95
66
92
62
60
43
12
99
29
1
10
80
28
16
107
4
85
61
7
35
23
70
27
88
2
11
38
34
77
18
49
5
40
9
15
8

>  <PUBCHEM_MMFF94_PARTIAL_CHARGES>  (1) 
21
1 -0.08
10 0.34
11 0.3
12 0.08
13 0.08
15 0.57
16 0.08
17 0.06
18 0.08
19 -0.15
2 -0.08
22 0.66
3 -0.08
31 0.15
4 -0.36
41 0.5
5 -0.57
6 -0.65
7 -0.57
8 -0.48
9 0.12

>  <PUBCHEM_EFFECTIVE_ROTOR_COUNT>  (1) 
8

>  <PUBCHEM_PHARMACOPHORE_FEATURES>  (1) 
11
1 1 hydrophobe
1 2 hydrophobe
1 21 hydrophobe
1 23 hydrophobe
1 3 hydrophobe
1 4 acceptor
1 5 acceptor
1 6 acceptor
1 7 acceptor
3 6 7 22 anion
6 9 12 13 16 18 19 rings

>  <PUBCHEM_HEAVY_ATOM_COUNT>  (1) 
23

>  <PUBCHEM_ATOM_DEF_STEREO_COUNT>  (1) 
0

>  <PUBCHEM_ATOM_UDEF_STEREO_COUNT>  (1) 
1

>  <PUBCHEM_BOND_DEF_STEREO_COUNT>  (1) 
0

>  <PUBCHEM_BOND_UDEF_STEREO_COUNT>  (1) 
0

>  <PUBCHEM_ISOTOPIC_ATOM_COUNT>  (1) 
0

>  <PUBCHEM_COMPONENT_COUNT>  (1) 
1

>  <PUBCHEM_CACTVS_TAUTO_COUNT>  (1) 
1

>  <PUBCHEM_CONFORMER_ID>  (1) 
00007E2F00000003

>  <PUBCHEM_MMFF94_ENERGY>  (1) 
104.8771

>  <PUBCHEM_FEATURE_SELFOVERLAP>  (1) 
55.885

>  <PUBCHEM_SHAPE_FINGERPRINT>  (1) 
10906281 52 18262809574234910864
116883 192 18339646642007256061
12422481 6 18270947038633164618
12553582 1 18260263010867831537
12596599 1 18340216240775663075
12788726 201 18334861606195530769
13083527 12 18044355331310703368
13140716 1 18188204411960894697
13533116 47 17346324756784171439
13583140 156 16343697759651147667
14022347 108 18261684662080323313
14178342 30 18045201761800658880
14289901 80 16917058954099789355
14790565 3 18262243210109945989
15163728 17 16084495710502040780
16752209 62 18042690490143251833
16945 1 18188209780168815585
17980427 23 18192975231420969800
18186145 218 17748821942928775875
19141452 34 18343861113479627923
19591789 44 17255399319532682985
20600515 1 17968368061050155720
20645477 70 18342178881879033471
20691752 17 17240757432322625273
20693207 138 18059020453960627068
20905425 154 18262238936284683364
21285901 2 18341609292222787973
22182313 1 18270112384142058669
23184049 29 18260260858736139080
2334 1 18044374057483866209
23402539 116 18262219119268124008
23557571 272 18340764828374426392
23558518 356 18261398818932520568
23559900 14 18409449172520271882
3052486 1 17970063340365600756
4280585 95 18267033756586180822
5104073 3 18115302414172512985
81228 2 18265340512357265529
9709674 26 18411695461347798909

>  <PUBCHEM_SHAPE_MULTIPOLES>  (1) 
480.68
8.45
3.66
1.8
3.79
1.43
0.46
-0.83
-0.11
0.7
1.02
-2.07
-1.22
1.06

>  <PUBCHEM_SHAPE_SELFOVERLAP>  (1) 
922.52

>  <PUBCHEM_SHAPE_VOLUME>  (1) 
301.7

>  <PUBCHEM_COORDINATE_TYPE>  (1) 
2
5
10

$$$$
