3231
     RDKit          3D

 29 30  0  0  1  0  0  0  0  0999 V2000
    3.8194    1.1689   -1.5072 O   0  0  0  0  0  0  0  0  0  0  0  0
    3.6949    2.3078    2.5144 O   0  0  0  0  0  0  0  0  0  0  0  0
   -2.1169    3.3634   -2.1837 O   0  0  0  0  0  0  0  0  0  0  0  0
   -3.4069    1.1719   -1.0143 O   0  0  0  0  0  0  0  0  0  0  0  0
    1.7453   -3.2964   -2.0145 O   0  0  0  0  0  0  0  0  0  0  0  0
    3.3499   -1.9611   -1.0280 O   0  0  0  0  0  0  0  0  0  0  0  0
    1.7174    1.4279   -0.3084 C   0  0  0  0  0  0  0  0  0  0  0  0
    2.2432    0.9932    1.0780 C   0  0  0  0  0  0  0  0  0  0  0  0
    2.9243    2.1303   -0.9519 C   0  0  0  0  0  0  0  0  0  0  0  0
    3.6099    2.9007    0.1779 C   0  0  0  0  0  0  0  0  0  0  0  0
    3.2353    2.0945    1.3991 C   0  0  0  0  0  0  0  0  0  0  0  0
    1.1985    0.7934    2.1617 C   0  0  0  0  0  0  0  0  0  0  0  0
    0.5307    2.3454   -0.2797 C   0  0  0  0  0  0  0  0  0  0  0  0
   -0.6421    2.0679   -0.8680 C   0  0  0  0  0  0  0  0  0  0  0  0
    0.2016   -0.2577    1.7761 C   0  0  0  0  0  0  0  0  0  0  0  0
   -1.8292    2.9895   -0.8389 C   0  0  0  0  0  0  0  0  0  0  0  0
   -3.0556    2.3078   -0.2378 C   0  0  0  0  0  0  0  0  0  0  0  0
    0.4944   -1.5058    1.5517 C   0  0  0  0  0  0  0  0  0  0  0  0
    0.7645   -2.7584    1.3227 C   0  0  0  0  0  0  0  0  0  0  0  0
    2.1359   -3.3635    1.4084 C   0  0  0  0  0  0  0  0  0  0  0  0
   -3.9932    0.1251   -0.3506 C   0  0  0  0  0  0  0  0  0  0  0  0
    2.5881   -3.9670    0.0816 C   0  0  0  0  0  0  0  0  0  0  0  0
   -4.7682    0.3732    0.7761 C   0  0  0  0  0  0  0  0  0  0  0  0
   -3.8054   -1.1724   -0.8117 C   0  0  0  0  0  0  0  0  0  0  0  0
    2.6258   -2.9484   -1.0329 C   0  0  0  0  0  0  0  0  0  0  0  0
   -5.3640   -0.6918    1.4517 C   0  0  0  0  0  0  0  0  0  0  0  0
   -4.4012   -2.2374   -0.1362 C   0  0  0  0  0  0  0  0  0  0  0  0
   -5.1805   -1.9970    0.9955 C   0  0  0  0  0  0  0  0  0  0  0  0
    1.6841   -2.4040   -3.1314 C   0  0  0  0  0  0  0  0  0  0  0  0
  1  9  1  0
  2 11  2  0
  3 16  1  0
  4 17  1  0
  4 21  1  0
  5 25  1  0
  5 29  1  0
  6 25  2  0
  7  8  1  0
  7  9  1  0
  7 13  1  0
  8 11  1  0
  8 12  1  0
  9 10  1  0
 10 11  1  0
 12 15  1  0
 13 14  2  0
 14 16  1  0
 15 18  2  0
 16 17  1  0
 18 19  2  0
 19 20  1  0
 20 22  1  0
 21 23  2  0
 21 24  1  0
 22 25  1  0
 23 26  1  0
 24 27  2  0
 26 28  2  0
 27 28  1  0
M  END
>  <PUBCHEM_COMPOUND_CID>  (1) 
3231

>  <PUBCHEM_CONFORMER_RMSD>  (1) 
1.6

>  <PUBCHEM_CONFORMER_DIVERSEORDER>  (1) 
1
30
215
137
224
57
131
73
204
223
12
149
162
198
84
34
36
167
69
53
157
47
64
111
173
2
96
94
163
155
78
143
177
6
218
207
50
219
200
61
101
191
232
166
44
225
4
5
165
7
174
108
121
126
52
11
92
103
193
75
74
202
72
164
41
156
185
140
9
90
77
231
150
130
76
206
93
89
46
70
158
118
114
105
8
28
187
38
102
226
22
3
159
179
145
184
135
43
196
210
18
115
45
80
60
171
194
33
212
228
110
71
220
117
20
148
59
16
221
17
147
141
168
122
136
197
222
119
42
209
14
170
151
109
86
124
133
63
37
128
123
58
203
79
205
227
112
113
134
88
81
26
116
104
216
83
35
106
214
55
32
181
127
175
49
180
82
182
146
87
23
229
138
189
217
40
31
139
144
183
201
51
29
67
190
107
160
15
120
153
161
100
152
66
125
48
176
99
24
178
97
192
39
188
208
132
95
13
56
68
186
169
91
211
195
230
10
154
19
142
85
172
98
62
199
25
21
129
65
27
213
54

>  <PUBCHEM_MMFF94_PARTIAL_CHARGES>  (1) 
40
1 -0.68
10 0.06
11 0.45
12 0.14
13 -0.29
14 -0.29
15 -0.22
16 0.42
17 0.28
18 -0.13
19 -0.22
2 -0.57
20 0.14
21 0.08
22 0.06
23 -0.15
24 -0.15
25 0.66
26 -0.15
27 -0.15
28 -0.15
29 0.28
3 -0.68
37 0.15
38 0.4
39 0.15
4 -0.36
40 0.15
44 0.4
45 0.15
5 -0.43
50 0.15
51 0.15
52 0.15
53 0.15
54 0.15
6 -0.57
7 0.14
8 0.06
9 0.28

>  <PUBCHEM_EFFECTIVE_ROTOR_COUNT>  (1) 
11.8

>  <PUBCHEM_PHARMACOPHORE_FEATURES>  (1) 
9
1 1 acceptor
1 1 donor
1 2 acceptor
1 3 acceptor
1 3 donor
1 4 acceptor
1 6 acceptor
5 7 8 9 10 11 rings
6 21 23 24 26 27 28 rings

>  <PUBCHEM_HEAVY_ATOM_COUNT>  (1) 
29

>  <PUBCHEM_ATOM_DEF_STEREO_COUNT>  (1) 
0

>  <PUBCHEM_ATOM_UDEF_STEREO_COUNT>  (1) 
4

>  <PUBCHEM_BOND_DEF_STEREO_COUNT>  (1) 
0

>  <PUBCHEM_BOND_UDEF_STEREO_COUNT>  (1) 
1

>  <PUBCHEM_ISOTOPIC_ATOM_COUNT>  (1) 
0

>  <PUBCHEM_COMPONENT_COUNT>  (1) 
1

>  <PUBCHEM_CACTVS_TAUTO_COUNT>  (1) 
3

>  <PUBCHEM_CONFORMER_ID>  (1) 
00000C9F00000001

>  <PUBCHEM_MMFF94_ENERGY>  (1) 
55.4277

>  <PUBCHEM_FEATURE_SELFOVERLAP>  (1) 
45.677

>  <PUBCHEM_SHAPE_FINGERPRINT>  (1) 
11488393 25 18341614768105831226
12147406 95 18338223908864082119
12422481 6 18124563502082100058
12788726 201 16901297759964300126
17809404 112 18042100155969078983
17909252 39 18410862018648997666
20028762 73 17979076308188928535
20764821 26 17899435334808864263
238918 7 18266173010263144754
255183 313 17909801539373468856
3737641 26 18409740555875810361
4280585 95 17756125805414732754
6287921 2 18335698325974549385
6823239 73 18190454965959543041

>  <PUBCHEM_SHAPE_MULTIPOLES>  (1) 
561.59
9.64
5.43
2.39
12.62
2.43
-0.51
0.74
1.37
-4.13
-1.51
-1.68
0.66
2.48

>  <PUBCHEM_SHAPE_SELFOVERLAP>  (1) 
1153.989

>  <PUBCHEM_SHAPE_VOLUME>  (1) 
322.8

>  <PUBCHEM_COORDINATE_TYPE>  (1) 
2
5
10

$$$$
