32318
     RDKit          3D

 16 17  0  0  0  0  0  0  0  0999 V2000
    4.7493    0.9743    0.1076 O   0  0  0  0  0  0  0  0  0  0  0  0
   -1.3941   -2.5336   -0.3726 O   0  0  0  0  0  0  0  0  0  0  0  0
    2.2116   -0.3225    0.0558 N   0  0  0  0  0  0  0  0  0  0  0  0
    0.9750   -0.7322    0.4068 N   0  0  0  0  0  0  0  0  0  0  0  0
    3.2900   -0.7736    0.9410 C   0  0  0  0  0  0  0  0  0  0  0  0
    2.3564    1.1017   -0.2667 C   0  0  0  0  0  0  0  0  0  0  0  0
    4.6535   -0.4285    0.3524 C   0  0  0  0  0  0  0  0  0  0  0  0
    3.7476    1.3922   -0.8190 C   0  0  0  0  0  0  0  0  0  0  0  0
    0.1995   -0.8735   -0.6101 C   0  0  0  0  0  0  0  0  0  0  0  0
   -2.2704   -0.3350   -0.1274 C   0  0  0  0  0  0  0  0  0  0  0  0
   -1.2003   -1.3271   -0.3676 C   0  0  0  0  0  0  0  0  0  0  0  0
   -1.9532    1.0109   -0.1315 C   0  0  0  0  0  0  0  0  0  0  0  0
   -3.5613   -0.7781    0.0946 C   0  0  0  0  0  0  0  0  0  0  0  0
   -2.9623    1.9467    0.0948 C   0  0  0  0  0  0  0  0  0  0  0  0
   -4.5705    0.1579    0.3208 C   0  0  0  0  0  0  0  0  0  0  0  0
   -4.2709    1.5203    0.3209 C   0  0  0  0  0  0  0  0  0  0  0  0
  1  7  1  0
  1  8  1  0
  2 11  2  0
  3  4  1  0
  3  5  1  0
  3  6  1  0
  4  9  2  0
  5  7  1  0
  6  8  1  0
  9 11  1  0
 10 11  1  0
 10 12  2  0
 10 13  1  0
 12 14  1  0
 13 15  2  0
 14 16  2  0
 15 16  1  0
M  END
>  <PUBCHEM_COMPOUND_CID>  (1) 
32318

>  <PUBCHEM_CONFORMER_RMSD>  (1) 
0.6

>  <PUBCHEM_CONFORMER_DIVERSEORDER>  (1) 
1
31
17
11
12
10
15
36
34
16
23
32
8
4
35
19
24
20
26
14
22
30
6
33
18
7
29
27
9
21
13
25
5
28
3
2

>  <PUBCHEM_MMFF94_PARTIAL_CHARGES>  (1) 
22
1 -0.56
10 0.09
11 0.48
12 -0.15
13 -0.15
14 -0.15
15 -0.15
16 -0.15
2 -0.57
25 0.06
26 0.15
27 0.15
28 0.15
29 0.15
3 -0.49
30 0.15
4 -0.5
5 0.27
6 0.27
7 0.28
8 0.28
9 0.39

>  <PUBCHEM_EFFECTIVE_ROTOR_COUNT>  (1) 
4.2

>  <PUBCHEM_PHARMACOPHORE_FEATURES>  (1) 
5
1 1 acceptor
1 2 acceptor
1 4 acceptor
6 1 3 5 6 7 8 rings
6 10 12 13 14 15 16 rings

>  <PUBCHEM_HEAVY_ATOM_COUNT>  (1) 
16

>  <PUBCHEM_ATOM_DEF_STEREO_COUNT>  (1) 
0

>  <PUBCHEM_ATOM_UDEF_STEREO_COUNT>  (1) 
0

>  <PUBCHEM_BOND_DEF_STEREO_COUNT>  (1) 
0

>  <PUBCHEM_BOND_UDEF_STEREO_COUNT>  (1) 
1

>  <PUBCHEM_ISOTOPIC_ATOM_COUNT>  (1) 
0

>  <PUBCHEM_COMPONENT_COUNT>  (1) 
1

>  <PUBCHEM_CACTVS_TAUTO_COUNT>  (1) 
1

>  <PUBCHEM_CONFORMER_ID>  (1) 
00007E3E00000001

>  <PUBCHEM_MMFF94_ENERGY>  (1) 
35.6755

>  <PUBCHEM_FEATURE_SELFOVERLAP>  (1) 
25.373

>  <PUBCHEM_SHAPE_FINGERPRINT>  (1) 
10354089 29 18113902658718736256
12107183 9 17685203980912343160
12173636 292 18341324599751310182
122479 349 18407763633536571763
12251169 10 18334010596895125086
12390115 104 17987535736036541497
13897977 58 18408888468338893757
14252887 29 14923942323877434866
14341114 176 18186527595997308344
15196674 1 18410012130441414861
15775835 57 18408608058382333521
17802600 8 18411694400490941593
17834072 32 18412546474932050449
20233049 118 18202841046156482280
20645477 56 18272370897052638374
20645477 70 16200166369758904118
21524375 3 18342736291330177239
21652331 79 18334858328834361677
22485316 2 9655576305359074402
22854114 59 16950281806097906690
23402539 116 18272080613298451119
23557571 272 17846224417968807559
23559900 14 18130512912260746958
351380 180 18335138683067006329
3545911 37 18413673513210474142
38570 142 17388287721412018652
4214541 1 18410573989667964520
474 4 17531813592387252956
474229 33 18412545427519102071
4921388 177 15123214572879881333
5104073 3 18335136509908377480
6430166 295 18413105052634637988
76465 3 11531066113313837113
77779 3 18408041818747584210

>  <PUBCHEM_SHAPE_MULTIPOLES>  (1) 
307.57
10.29
1.93
0.78
4.43
0.14
-0.01
-3.42
-1.4
-0.9
0.21
0.31
0.02
-0.77

>  <PUBCHEM_SHAPE_SELFOVERLAP>  (1) 
642.368

>  <PUBCHEM_SHAPE_VOLUME>  (1) 
173.5

>  <PUBCHEM_COORDINATE_TYPE>  (1) 
2
5
10

$$$$
