32317
     RDKit          3D

 16 16  0  0  0  0  0  0  0  0999 V2000
    5.2549    1.2283   -0.2274 Cl  0  0  0  0  0  0  0  0  0  0  0  0
   -0.2615   -2.5816    0.1493 O   0  0  0  0  0  0  0  0  0  0  0  0
   -3.0271    0.6623    0.0314 N   0  0  0  0  0  0  0  0  0  0  0  0
   -1.9620   -0.0706   -0.3854 N   0  0  0  0  0  0  0  0  0  0  0  0
   -3.0196    2.0693   -0.3907 C   0  0  0  0  0  0  0  0  0  0  0  0
   -4.3191    0.0685   -0.3227 C   0  0  0  0  0  0  0  0  0  0  0  0
   -1.7224    2.7304   -0.0547 C   0  0  0  0  0  0  0  0  0  0  0  0
   -4.3864   -1.3679    0.0835 C   0  0  0  0  0  0  0  0  0  0  0  0
    1.2394   -0.7347    0.1576 C   0  0  0  0  0  0  0  0  0  0  0  0
   -1.2894   -0.5592    0.5976 C   0  0  0  0  0  0  0  0  0  0  0  0
   -0.0852   -1.3800    0.2838 C   0  0  0  0  0  0  0  0  0  0  0  0
    1.5046    0.4057    0.8934 C   0  0  0  0  0  0  0  0  0  0  0  0
    2.1789   -1.2860   -0.6940 C   0  0  0  0  0  0  0  0  0  0  0  0
    2.7531    1.0161    0.7732 C   0  0  0  0  0  0  0  0  0  0  0  0
    3.4274   -0.6757   -0.8142 C   0  0  0  0  0  0  0  0  0  0  0  0
    3.7144    0.4754   -0.0806 C   0  0  0  0  0  0  0  0  0  0  0  0
  1 16  1  0
  2 11  2  0
  3  4  1  0
  3  5  1  0
  3  6  1  0
  4 10  2  0
  5  7  1  0
  6  8  1  0
  9 11  1  0
  9 12  2  0
  9 13  1  0
 10 11  1  0
 12 14  1  0
 13 15  2  0
 14 16  2  0
 15 16  1  0
M  END
>  <PUBCHEM_COMPOUND_CID>  (1) 
32317

>  <PUBCHEM_CONFORMER_RMSD>  (1) 
0.6

>  <PUBCHEM_CONFORMER_DIVERSEORDER>  (1) 
1
50
9
23
33
38
56
3
54
34
51
45
27
28
49
20
25
12
24
32
42
17
53
36
18
35
16
13
26
37
46
40
15
21
41
4
55
14
2
19
10
31
44
39
22
52
7
8
30
43
5
48
29
6
47
11

>  <PUBCHEM_MMFF94_PARTIAL_CHARGES>  (1) 
19
1 -0.18
10 0.39
11 0.48
12 -0.15
13 -0.15
14 -0.15
15 -0.15
16 0.18
2 -0.57
27 0.06
28 0.15
29 0.15
3 -0.49
30 0.15
31 0.15
4 -0.5
5 0.27
6 0.27
9 0.09

>  <PUBCHEM_EFFECTIVE_ROTOR_COUNT>  (1) 
5

>  <PUBCHEM_PHARMACOPHORE_FEATURES>  (1) 
3
1 2 acceptor
1 4 acceptor
6 9 12 13 14 15 16 rings

>  <PUBCHEM_HEAVY_ATOM_COUNT>  (1) 
16

>  <PUBCHEM_ATOM_DEF_STEREO_COUNT>  (1) 
0

>  <PUBCHEM_ATOM_UDEF_STEREO_COUNT>  (1) 
0

>  <PUBCHEM_BOND_DEF_STEREO_COUNT>  (1) 
0

>  <PUBCHEM_BOND_UDEF_STEREO_COUNT>  (1) 
1

>  <PUBCHEM_ISOTOPIC_ATOM_COUNT>  (1) 
0

>  <PUBCHEM_COMPONENT_COUNT>  (1) 
1

>  <PUBCHEM_CACTVS_TAUTO_COUNT>  (1) 
1

>  <PUBCHEM_CONFORMER_ID>  (1) 
00007E3D00000001

>  <PUBCHEM_MMFF94_ENERGY>  (1) 
29.3673

>  <PUBCHEM_FEATURE_SELFOVERLAP>  (1) 
15.224

>  <PUBCHEM_SHAPE_FINGERPRINT>  (1) 
10498660 4 18262514789001588669
10608611 8 18412543184722889968
10646746 165 18337389331845202532
11715629 250 18272358759322098621
12251169 10 12685090397575116082
12596602 18 16950278563719780744
12670546 177 17918273181569623830
12916748 109 18335707152074333034
13081056 2 18413109463450090924
13764800 53 18040729047287855881
15196674 1 18410855421558222484
18186145 218 18129949978990965026
200 152 15913336788511170170
20281475 54 10303517420954417259
20510252 161 18411702075797752025
20645477 56 18339643455452342912
20645477 70 17417827114856899678
21524375 3 18411698777094362282
21652331 79 18410573972588569037
221357 26 18131069307571672301
22169311 14 10665232557168273343
23402539 116 18338227262536954238
23402655 69 17988644081688923212
23526113 38 17988934353270820378
23557571 272 18341057396945337343
23559900 14 18200595775284216118
25 1 18272934886509575122
2871803 45 18411974733433314261
3268164 11 18261383451929315517
3524813 1 18343013428210733552
4028521 119 18336257960313691733
474 4 16661782148978088020
5281201 14 18202008689962924844
58051976 378 18411697694656699519
6333272 397 18333732450412541162

>  <PUBCHEM_SHAPE_MULTIPOLES>  (1) 
315.31
9.29
2.34
0.83
1.09
0.63
0.03
2.33
-1.36
-1.39
-0.1
0.33
0
0.57

>  <PUBCHEM_SHAPE_SELFOVERLAP>  (1) 
632.271

>  <PUBCHEM_SHAPE_VOLUME>  (1) 
187.9

>  <PUBCHEM_COORDINATE_TYPE>  (1) 
2
5
10

$$$$
