32321
     RDKit          3D

 19 19  0  0  0  0  0  0  0  0999 V2000
   -2.7203   -3.6491    0.9280 Cl  0  0  0  0  0  0  0  0  0  0  0  0
    1.8870   -0.0588   -0.2358 O   0  0  0  0  0  0  0  0  0  0  0  0
   -0.3218   -3.0005   -0.4446 O   0  0  0  0  0  0  0  0  0  0  0  0
   -0.3894   -0.6552   -0.4301 N   0  0  0  0  0  0  0  0  0  0  0  0
    4.1967    0.5429    0.1507 C   0  0  0  0  0  0  0  0  0  0  0  0
   -1.1592    0.5301   -0.1113 C   0  0  0  0  0  0  0  0  0  0  0  0
    3.1401    0.1314   -0.8783 C   0  0  0  0  0  0  0  0  0  0  0  0
    0.8779   -0.4589   -1.1599 C   0  0  0  0  0  0  0  0  0  0  0  0
   -0.9780    1.1090    1.1177 C   0  0  0  0  0  0  0  0  0  0  0  0
   -2.0289    1.0110   -1.0554 C   0  0  0  0  0  0  0  0  0  0  0  0
    4.3839   -0.5361    1.2193 C   0  0  0  0  0  0  0  0  0  0  0  0
    5.5253    0.8417   -0.5403 C   0  0  0  0  0  0  0  0  0  0  0  0
   -0.8845   -1.9485   -0.1325 C   0  0  0  0  0  0  0  0  0  0  0  0
   -1.7191    2.2503    1.4245 C   0  0  0  0  0  0  0  0  0  0  0  0
   -2.7699    2.1522   -0.7486 C   0  0  0  0  0  0  0  0  0  0  0  0
   -0.0263    0.5743    2.1384 C   0  0  0  0  0  0  0  0  0  0  0  0
   -2.2166    0.3703   -2.3925 C   0  0  0  0  0  0  0  0  0  0  0  0
   -2.6151    2.7719    0.4914 C   0  0  0  0  0  0  0  0  0  0  0  0
   -2.1818   -1.9780    0.6592 C   0  0  0  0  0  0  0  0  0  0  0  0
  1 19  1  0
  2  7  1  0
  2  8  1  0
  3 13  2  0
  4  6  1  0
  4  8  1  0
  4 13  1  0
  5  7  1  0
  5 11  1  0
  5 12  1  0
  6  9  2  0
  6 10  1  0
  9 14  1  0
  9 16  1  0
 10 15  2  0
 10 17  1  0
 13 19  1  0
 14 18  2  0
 15 18  1  0
M  END
>  <PUBCHEM_COMPOUND_CID>  (1) 
32321

>  <PUBCHEM_CONFORMER_RMSD>  (1) 
0.8

>  <PUBCHEM_CONFORMER_DIVERSEORDER>  (1) 
3
34
4
22
6
25
17
24
30
21
32
10
28
7
27
31
13
12
19
29
1
11
18
2
14
15
20
23
26
16
5
8
33
9

>  <PUBCHEM_MMFF94_PARTIAL_CHARGES>  (1) 
19
1 -0.29
10 -0.14
13 0.57
14 -0.15
15 -0.15
16 0.14
17 0.14
18 -0.15
19 0.35
2 -0.56
3 -0.57
31 0.15
32 0.15
39 0.15
4 -0.48
6 0.12
7 0.28
8 0.58
9 -0.14

>  <PUBCHEM_EFFECTIVE_ROTOR_COUNT>  (1) 
7

>  <PUBCHEM_PHARMACOPHORE_FEATURES>  (1) 
4
1 2 acceptor
1 3 acceptor
3 5 11 12 hydrophobe
6 6 9 10 14 15 18 rings

>  <PUBCHEM_HEAVY_ATOM_COUNT>  (1) 
19

>  <PUBCHEM_ATOM_DEF_STEREO_COUNT>  (1) 
0

>  <PUBCHEM_ATOM_UDEF_STEREO_COUNT>  (1) 
0

>  <PUBCHEM_BOND_DEF_STEREO_COUNT>  (1) 
0

>  <PUBCHEM_BOND_UDEF_STEREO_COUNT>  (1) 
0

>  <PUBCHEM_ISOTOPIC_ATOM_COUNT>  (1) 
0

>  <PUBCHEM_COMPONENT_COUNT>  (1) 
1

>  <PUBCHEM_CACTVS_TAUTO_COUNT>  (1) 
1

>  <PUBCHEM_CONFORMER_ID>  (1) 
00007E4100000003

>  <PUBCHEM_MMFF94_ENERGY>  (1) 
68.8869

>  <PUBCHEM_FEATURE_SELFOVERLAP>  (1) 
20.297

>  <PUBCHEM_SHAPE_FINGERPRINT>  (1) 
10764073 3 16553176637665983787
11578080 2 12378950072044265489
11582403 64 16010968923978948895
11725454 13 16806711881458780269
121448 382 18340756045229265277
12173636 292 18339931411102511316
12714826 92 18268428104364367778
12788726 201 18189616219103335738
13583140 156 17385449816975162400
14787075 74 18130787824627415385
14817 1 13367984494249510229
16945 1 18193307189601195367
19765921 60 17985260768720699569
20510252 161 18341337794170437458
20600515 1 17696221435220732471
20645476 183 18338223869555014392
21330990 113 18269854123822298699
21524375 3 17843121402987209508
22907989 373 18341051933974024308
23419403 2 17981878954695594197
23557571 272 18342748446039892662
283562 15 18189336934459810018
394222 165 17337881426495239953
4340502 62 18194693566590371625
474 4 18053662482285253316
59755656 520 18337678498976380798
81228 2 18119838977536644783
84936 182 17695909921437763824
9981440 41 17845355692525450458

>  <PUBCHEM_SHAPE_MULTIPOLES>  (1) 
376.16
7.34
3.39
1.76
15.12
2.52
0.06
-1.46
0.25
-5.05
-0.97
-0.71
-0.46
0.21

>  <PUBCHEM_SHAPE_SELFOVERLAP>  (1) 
748.282

>  <PUBCHEM_SHAPE_VOLUME>  (1) 
225.7

>  <PUBCHEM_COORDINATE_TYPE>  (1) 
2
5
10

$$$$
