32335
     RDKit          3D

 21 22  0  0  1  0  0  0  0  0999 V2000
    4.1472    0.4335    2.1812 Cl  0  0  0  0  0  0  0  0  0  0  0  0
   -0.7773    1.3301   -1.5820 S   0  0  0  0  0  0  0  0  0  0  0  0
   -1.1563    2.7223   -1.4787 O   0  0  0  0  0  0  0  0  0  0  0  0
   -0.4873    0.7278   -2.8650 O   0  0  0  0  0  0  0  0  0  0  0  0
    2.8068   -2.5116   -0.2123 O   0  0  0  0  0  0  0  0  0  0  0  0
    4.6582   -1.2271   -0.5107 O   0  0  0  0  0  0  0  0  0  0  0  0
   -1.9456    0.3724   -0.7712 N   0  0  0  0  0  0  0  0  0  0  0  0
   -2.8611   -1.8637   -0.2524 C   0  0  0  0  0  0  0  0  0  0  0  0
   -3.7273    0.1954    0.9324 C   0  0  0  0  0  0  0  0  0  0  0  0
   -3.4561   -1.3110    1.0504 C   0  0  0  0  0  0  0  0  0  0  0  0
   -1.6073   -1.0763   -0.6484 C   0  0  0  0  0  0  0  0  0  0  0  0
   -2.4563    0.9408    0.5112 C   0  0  0  0  0  0  0  0  0  0  0  0
   -2.5422   -3.3504   -0.1123 C   0  0  0  0  0  0  0  0  0  0  0  0
   -4.2669    0.7512    2.2484 C   0  0  0  0  0  0  0  0  0  0  0  0
    0.6159    1.0691   -0.5303 C   0  0  0  0  0  0  0  0  0  0  0  0
    1.4726    0.0113   -0.7881 C   0  0  0  0  0  0  0  0  0  0  0  0
    0.8283    1.9251    0.5380 C   0  0  0  0  0  0  0  0  0  0  0  0
    2.5719   -0.1963    0.0450 C   0  0  0  0  0  0  0  0  0  0  0  0
    1.9276    1.7177    1.3713 C   0  0  0  0  0  0  0  0  0  0  0  0
    2.7993    0.6569    1.1250 C   0  0  0  0  0  0  0  0  0  0  0  0
    3.4559   -1.3173   -0.2514 C   0  0  0  0  0  0  0  0  0  0  0  0
  1 20  1  0
  2  3  2  0
  2  4  2  0
  2  7  1  0
  2 15  1  0
  5 21  1  0
  6 21  2  0
  7 11  1  0
  7 12  1  0
  8 10  1  0
  8 11  1  0
  8 13  1  0
  9 10  1  0
  9 12  1  0
  9 14  1  0
 15 16  2  0
 15 17  1  0
 16 18  1  0
 17 19  2  0
 18 20  2  0
 18 21  1  0
 19 20  1  0
M  END
>  <PUBCHEM_COMPOUND_CID>  (1) 
32335

>  <PUBCHEM_CONFORMER_RMSD>  (1) 
0.6

>  <PUBCHEM_CONFORMER_DIVERSEORDER>  (1) 
3
56
18
32
23
31
30
35
19
21
57
8
13
47
6
36
41
22
53
26
37
4
33
44
45
39
15
49
16
63
24
14
54
11
29
43
59
2
52
40
5
62
60
48
10
50
12
1
34
58
20
25
9
51
46
17
42
55
7
27
38
28
61

>  <PUBCHEM_MMFF94_PARTIAL_CHARGES>  (1) 
20
1 -0.18
11 0.36
12 0.36
15 -0.01
16 -0.15
17 -0.15
18 0.09
19 -0.15
2 1.45
20 0.18
21 0.63
3 -0.65
36 0.15
37 0.15
38 0.15
39 0.5
4 -0.65
5 -0.65
6 -0.57
7 -0.85

>  <PUBCHEM_EFFECTIVE_ROTOR_COUNT>  (1) 
4.2

>  <PUBCHEM_PHARMACOPHORE_FEATURES>  (1) 
7
1 3 acceptor
1 4 acceptor
1 5 acceptor
1 6 acceptor
3 5 6 21 anion
6 15 16 17 18 19 20 rings
6 7 8 9 10 11 12 rings

>  <PUBCHEM_HEAVY_ATOM_COUNT>  (1) 
21

>  <PUBCHEM_ATOM_DEF_STEREO_COUNT>  (1) 
2

>  <PUBCHEM_ATOM_UDEF_STEREO_COUNT>  (1) 
0

>  <PUBCHEM_BOND_DEF_STEREO_COUNT>  (1) 
0

>  <PUBCHEM_BOND_UDEF_STEREO_COUNT>  (1) 
0

>  <PUBCHEM_ISOTOPIC_ATOM_COUNT>  (1) 
0

>  <PUBCHEM_COMPONENT_COUNT>  (1) 
1

>  <PUBCHEM_CACTVS_TAUTO_COUNT>  (1) 
1

>  <PUBCHEM_CONFORMER_ID>  (1) 
00007E4F00000003

>  <PUBCHEM_MMFF94_ENERGY>  (1) 
40.0612

>  <PUBCHEM_FEATURE_SELFOVERLAP>  (1) 
35.598

>  <PUBCHEM_SHAPE_FINGERPRINT>  (1) 
10366900 7 17628632248063832155
11221954 11 9943514245962711182
11370993 144 17988927738788757706
11552529 35 17987796461540941631
11640471 11 13973966467585322189
12160290 23 17315329472083396173
12202030 40 18262503836887185612
12363563 72 17024287816476533699
12403259 327 17988937660300192649
12553582 1 17821729450569803587
12596599 1 18262232343377918235
12633257 1 18059305270464202099
12670546 177 12757153484622995408
12707595 3 16660926694191754329
12714826 92 17967809405810822717
12841375 7 18114462369897603655
12892183 10 17845936341685235699
13103583 49 17988376861756446603
13533116 47 18129943515693185267
13583140 156 17203037616437447291
14178342 30 18270396216960888731
14251764 30 17313968353876269251
14957384 54 15410888587352048048
15527383 91 17775005653051127904
17804303 29 18341908384780773831
1813 80 17603590759014035725
20361792 2 17096079311647336229
21033648 29 18339637833493887105
21475661 188 16986048782364759609
21524375 3 12391249204891635437
21731516 1 17313379062888030869
21756936 100 16913398860966060136
23419403 2 17405103767847123053
23598288 3 16516518876877284725
25 1 10374776829632714036
3797600 57 16697529573540159673
7097593 13 18272094954136314513
7970288 3 17167868586014514867
81228 2 17677874795574347725

>  <PUBCHEM_SHAPE_MULTIPOLES>  (1) 
409.43
7.91
2.74
2.02
1.7
1.53
0.32
2.76
-4.83
-0.83
0.27
-0.38
-1.12
0.53

>  <PUBCHEM_SHAPE_SELFOVERLAP>  (1) 
832.824

>  <PUBCHEM_SHAPE_VOLUME>  (1) 
240.1

>  <PUBCHEM_COORDINATE_TYPE>  (1) 
2
5
10

$$$$
