32331
     RDKit          3D

 22 23  0  0  1  0  0  0  0  0999 V2000
   -0.1609    0.2985   -0.0486 O   0  0  0  0  0  0  0  0  0  0  0  0
   -0.9053   -1.2759   -1.5538 O   0  0  0  0  0  0  0  0  0  0  0  0
    1.8839    2.3273    0.0775 N   0  0  0  0  0  0  0  0  0  0  0  0
    2.1482    0.9215    0.3820 C   0  0  0  0  0  0  0  0  0  0  0  0
    1.1926    0.0064   -0.3934 C   0  0  0  0  0  0  0  0  0  0  0  0
    2.7393    3.1951    0.8862 C   0  0  0  0  0  0  0  0  0  0  0  0
    2.0901    2.5893   -1.3463 C   0  0  0  0  0  0  0  0  0  0  0  0
    1.4537   -1.4525   -0.0893 C   0  0  0  0  0  0  0  0  0  0  0  0
    2.5381    2.9364    2.3697 C   0  0  0  0  0  0  0  0  0  0  0  0
    1.7607    4.0316   -1.6925 C   0  0  0  0  0  0  0  0  0  0  0  0
    2.3594   -2.1535   -0.8668 C   0  0  0  0  0  0  0  0  0  0  0  0
    0.7817   -2.0551    0.9604 C   0  0  0  0  0  0  0  0  0  0  0  0
   -1.1086   -0.4189   -0.7078 C   0  0  0  0  0  0  0  0  0  0  0  0
    2.6004   -3.4985   -0.5864 C   0  0  0  0  0  0  0  0  0  0  0  0
    1.0228   -3.4002    1.2408 C   0  0  0  0  0  0  0  0  0  0  0  0
    1.9322   -4.1218    0.4674 C   0  0  0  0  0  0  0  0  0  0  0  0
   -2.4678   -0.0214   -0.2617 C   0  0  0  0  0  0  0  0  0  0  0  0
   -3.4799   -0.9590   -0.2902 C   0  0  0  0  0  0  0  0  0  0  0  0
   -2.6767    1.2731    0.1680 C   0  0  0  0  0  0  0  0  0  0  0  0
   -4.7568   -0.5857    0.1292 C   0  0  0  0  0  0  0  0  0  0  0  0
   -3.9536    1.6463    0.5875 C   0  0  0  0  0  0  0  0  0  0  0  0
   -4.9936    0.7168    0.5680 C   0  0  0  0  0  0  0  0  0  0  0  0
  1  5  1  0
  1 13  1  0
  2 13  2  0
  3  4  1  0
  3  6  1  0
  3  7  1  0
  4  5  1  0
  5  8  1  0
  6  9  1  0
  7 10  1  0
  8 11  2  0
  8 12  1  0
 11 14  1  0
 12 15  2  0
 13 17  1  0
 14 16  2  0
 15 16  1  0
 17 18  2  0
 17 19  1  0
 18 20  1  0
 19 21  2  0
 20 22  2  0
 21 22  1  0
M  END
>  <PUBCHEM_COMPOUND_CID>  (1) 
32331

>  <PUBCHEM_CONFORMER_RMSD>  (1) 
0.8

>  <PUBCHEM_CONFORMER_DIVERSEORDER>  (1) 
1
17
6
32
37
62
59
77
75
50
4
81
73
29
79
54
67
41
47
44
55
14
78
38
66
26
21
70
51
74
69
39
5
18
20
40
65
7
12
13
31
3
24
28
15
76
19
43
27
25
61
82
45
42
8
49
22
9
63
10
34
30
16
46
35
58
60
36
56
11
48
52
64
33
23
72
68
2
57
53
71
80

>  <PUBCHEM_MMFF94_PARTIAL_CHARGES>  (1) 
30
1 -0.43
11 -0.15
12 -0.15
13 0.63
14 -0.15
15 -0.15
16 -0.15
17 0.09
18 -0.15
19 -0.15
2 -0.57
20 -0.15
21 -0.15
22 -0.15
3 -0.81
36 0.15
37 0.15
38 0.15
39 0.15
4 0.27
40 0.15
41 0.15
42 0.15
43 0.15
44 0.15
45 0.15
5 0.42
6 0.27
7 0.27
8 -0.14

>  <PUBCHEM_EFFECTIVE_ROTOR_COUNT>  (1) 
8

>  <PUBCHEM_PHARMACOPHORE_FEATURES>  (1) 
4
1 2 acceptor
1 3 cation
6 17 18 19 20 21 22 rings
6 8 11 12 14 15 16 rings

>  <PUBCHEM_HEAVY_ATOM_COUNT>  (1) 
22

>  <PUBCHEM_ATOM_DEF_STEREO_COUNT>  (1) 
0

>  <PUBCHEM_ATOM_UDEF_STEREO_COUNT>  (1) 
1

>  <PUBCHEM_BOND_DEF_STEREO_COUNT>  (1) 
0

>  <PUBCHEM_BOND_UDEF_STEREO_COUNT>  (1) 
0

>  <PUBCHEM_ISOTOPIC_ATOM_COUNT>  (1) 
0

>  <PUBCHEM_COMPONENT_COUNT>  (1) 
1

>  <PUBCHEM_CACTVS_TAUTO_COUNT>  (1) 
1

>  <PUBCHEM_CONFORMER_ID>  (1) 
00007E4B00000001

>  <PUBCHEM_MMFF94_ENERGY>  (1) 
61.2652

>  <PUBCHEM_FEATURE_SELFOVERLAP>  (1) 
20.297

>  <PUBCHEM_SHAPE_FINGERPRINT>  (1) 
10090160 65 18120644988795843591
11578080 2 17606393259455507868
12160290 23 17398936667040133662
12173636 292 17907296907234347941
12553582 1 17976535018699739303
12788726 201 17398681103443468290
13140716 1 18267857453407672474
13533116 47 18409735037349334459
13583140 156 18261111812791891255
13878862 14 18265318535853975253
13955234 65 18413110563262471051
14178342 30 18265889344937430719
14251757 5 17254276722191674333
14955137 171 18129667391892375734
17868525 174 18121220875059404785
17980427 23 17557974049266786393
18785283 64 18261117408495909258
20567600 347 18267295624424930443
20600515 1 17555176852487244865
20739085 24 18334004000253113568
21033648 29 16412079497618934371
21524375 3 18199189662107866820
21731228 192 18122891286334546400
2255824 54 18335990804409825239
22907989 373 17038670734216848796
23366157 5 18334580135555134351
23558518 356 18050842522950124990
23559900 14 18261114050279818099
3091708 16 9401263668296268818
3380486 145 17550621627801499338
345986 75 17249487275564496779
352729 6 17615964847630519006
394222 165 18201717392216868235
474 4 18262519320228781693
5104073 3 18342749477675946025
6442390 28 18050861210067590403
7097593 13 18268425742269504915
7164475 11 17470177951247189406
7364860 26 18342175544341232510
79837 15 18050839224230476082
81228 2 17115493053483221722
84936 182 18272373108792283569
9981440 41 18194115450547960681

>  <PUBCHEM_SHAPE_MULTIPOLES>  (1) 
436.03
7.23
5.61
1.47
12.41
0.3
-0.29
1.04
-1.12
-8.29
-0.32
-1.17
1.14
0.03

>  <PUBCHEM_SHAPE_SELFOVERLAP>  (1) 
914.18

>  <PUBCHEM_SHAPE_VOLUME>  (1) 
246.4

>  <PUBCHEM_COORDINATE_TYPE>  (1) 
2
5
10

$$$$
