32345
     RDKit          3D

 30 33  0  0  0  0  0  0  0  0999 V2000
    5.3104    0.9471   -1.8806 O   0  0  0  0  0  0  0  0  0  0  0  0
   -4.2690    2.9741    0.5781 O   0  0  0  0  0  0  0  0  0  0  0  0
   -6.7001    1.9593   -0.2672 O   0  0  0  0  0  0  0  0  0  0  0  0
    1.2148   -1.3888   -0.1233 N   0  0  0  0  0  0  0  0  0  0  0  0
    3.8374   -0.2986    0.1810 N   0  0  0  0  0  0  0  0  0  0  0  0
   -4.5225   -2.4114   -0.4202 N   0  0  0  0  0  0  0  0  0  0  0  0
    2.0970   -1.2413   -1.2876 C   0  0  0  0  0  0  0  0  0  0  0  0
    1.4613   -0.3009    0.8308 C   0  0  0  0  0  0  0  0  0  0  0  0
    3.5687   -1.2876   -0.8705 C   0  0  0  0  0  0  0  0  0  0  0  0
    2.9123   -0.3147    1.3182 C   0  0  0  0  0  0  0  0  0  0  0  0
   -0.1870   -1.3978   -0.5400 C   0  0  0  0  0  0  0  0  0  0  0  0
   -1.1146   -1.6449    0.6523 C   0  0  0  0  0  0  0  0  0  0  0  0
   -2.5588   -1.6824    0.2472 C   0  0  0  0  0  0  0  0  0  0  0  0
    5.1596    0.1199    0.3676 C   0  0  0  0  0  0  0  0  0  0  0  0
   -3.4248   -0.5709    0.2000 C   0  0  0  0  0  0  0  0  0  0  0  0
   -3.2410   -2.7990   -0.1335 C   0  0  0  0  0  0  0  0  0  0  0  0
   -4.6633   -1.0559   -0.2256 C   0  0  0  0  0  0  0  0  0  0  0  0
    5.8917    0.7419   -0.6649 C   0  0  0  0  0  0  0  0  0  0  0  0
   -3.2929    0.8050    0.4736 C   0  0  0  0  0  0  0  0  0  0  0  0
    5.8013   -0.0717    1.6082 C   0  0  0  0  0  0  0  0  0  0  0  0
   -2.8269   -4.2092   -0.2614 C   0  0  0  0  0  0  0  0  0  0  0  0
   -5.7811   -0.2304   -0.3917 C   0  0  0  0  0  0  0  0  0  0  0  0
   -4.4025    1.6427    0.3119 C   0  0  0  0  0  0  0  0  0  0  0  0
   -5.6264    1.1308   -0.1143 C   0  0  0  0  0  0  0  0  0  0  0  0
    7.2091    1.1545   -0.4646 C   0  0  0  0  0  0  0  0  0  0  0  0
    7.1186    0.3409    1.8082 C   0  0  0  0  0  0  0  0  0  0  0  0
    7.8226    0.9539    0.7718 C   0  0  0  0  0  0  0  0  0  0  0  0
    4.6196    2.1803   -2.0680 C   0  0  0  0  0  0  0  0  0  0  0  0
   -3.8720    3.8127   -0.5039 C   0  0  0  0  0  0  0  0  0  0  0  0
   -7.5415    2.1422    0.8684 C   0  0  0  0  0  0  0  0  0  0  0  0
  1 18  1  0
  1 28  1  0
  2 23  1  0
  2 29  1  0
  3 24  1  0
  3 30  1  0
  4  7  1  0
  4  8  1  0
  4 11  1  0
  5  9  1  0
  5 10  1  0
  5 14  1  0
  6 16  1  0
  6 17  1  0
  7  9  1  0
  8 10  1  0
 11 12  1  0
 12 13  1  0
 13 15  1  0
 13 16  2  0
 14 18  2  0
 14 20  1  0
 15 17  2  0
 15 19  1  0
 16 21  1  0
 17 22  1  0
 18 25  1  0
 19 23  2  0
 20 26  2  0
 22 24  2  0
 23 24  1  0
 25 27  2  0
 26 27  1  0
M  END
>  <PUBCHEM_COMPOUND_CID>  (1) 
32345

>  <PUBCHEM_CONFORMER_RMSD>  (1) 
1

>  <PUBCHEM_CONFORMER_DIVERSEORDER>  (1) 
1
89
15
54
116
92
108
123
16
93
96
42
58
27
82
104
26
56
43
97
117
44
41
124
95
57
24
61
75
64
109
49
3
110
101
37
115
118
83
34
32
31
71
111
80
102
79
122
65
100
73
40
39
11
18
67
60
29
86
87
68
106
91
25
14
59
55
94
52
76
50
9
2
22
81
36
6
112
51
45
28
21
8
35
62
90
19
121
103
4
23
53
70
63
47
48
113
119
120
99
114
7
72
107
12
85
77
66
98
74
38
46
33
5
78
88
20
17
10
13
30
105
69
84

>  <PUBCHEM_MMFF94_PARTIAL_CHARGES>  (1) 
36
1 -0.36
10 0.37
11 0.27
12 0.18
13 -0.18
14 0.1
16 -0.33
17 -0.15
18 0.08
19 -0.15
2 -0.36
20 -0.15
21 0.18
22 -0.15
23 0.08
24 0.08
25 -0.15
26 -0.15
27 -0.15
28 0.28
29 0.28
3 -0.36
30 0.28
4 -0.81
43 0.27
44 0.15
45 0.15
49 0.15
5 -0.84
50 0.15
51 0.15
52 0.15
6 0.03
7 0.27
8 0.27
9 0.37

>  <PUBCHEM_EFFECTIVE_ROTOR_COUNT>  (1) 
8.2

>  <PUBCHEM_PHARMACOPHORE_FEATURES>  (1) 
11
1 1 acceptor
1 2 acceptor
1 3 acceptor
1 4 cation
1 5 cation
1 6 cation
1 6 donor
5 6 13 15 16 17 rings
6 14 18 20 25 26 27 rings
6 15 17 19 22 23 24 rings
6 4 5 7 8 9 10 rings

>  <PUBCHEM_HEAVY_ATOM_COUNT>  (1) 
30

>  <PUBCHEM_ATOM_DEF_STEREO_COUNT>  (1) 
0

>  <PUBCHEM_ATOM_UDEF_STEREO_COUNT>  (1) 
0

>  <PUBCHEM_BOND_DEF_STEREO_COUNT>  (1) 
0

>  <PUBCHEM_BOND_UDEF_STEREO_COUNT>  (1) 
0

>  <PUBCHEM_ISOTOPIC_ATOM_COUNT>  (1) 
0

>  <PUBCHEM_COMPONENT_COUNT>  (1) 
1

>  <PUBCHEM_CACTVS_TAUTO_COUNT>  (1) 
1

>  <PUBCHEM_CONFORMER_ID>  (1) 
00007E5900000001

>  <PUBCHEM_MMFF94_ENERGY>  (1) 
111.4659

>  <PUBCHEM_FEATURE_SELFOVERLAP>  (1) 
55.921

>  <PUBCHEM_SHAPE_FINGERPRINT>  (1) 
10 15 18334016077595135521
10087517 78 18407755937050187861
10411042 1 17907573985252289407
10816530 145 17458623454164732519
10883706 163 18259982652467522189
11135609 149 15624838045939791164
11315181 36 17968652838978373819
11475781 23 18131356297776644310
11991303 11 16629956763252380166
12107183 9 18118394056386918994
12596602 18 17240205464711278683
12760667 363 8286190644537530441
12838862 33 18336252454698796885
13167372 99 18260829324171081012
13911987 19 16343703231608664351
14747281 78 16628578899310890025
14856354 85 18338518667694883327
15183329 4 18412546526629712512
15513586 35 17901413369144037321
155225 5 18268991994800251681
15604295 49 18198898305609706136
1577012 14 18114183064501628878
16126227 98 18271531897441967177
16989713 51 17416115316470065119
19302320 297 17967824850677197980
20691028 202 18197789808245312113
21033648 29 18338245881858868835
21859007 373 18130775790213455008
22122407 14 18041289862959574624
23081809 10 17895754123235634518
23522609 53 17677347116266440140
23559900 14 18059847402801044897
23569914 152 15979219305946136076
23569943 247 16154802710493855290
24771293 8 18342460293413000825
249057 25 18041559264914643558
3178227 256 14923937956570973792
394071 54 16515677841478254730
4073 2 18334859441785266874
44249763 50 17560222726438566622
44555599 121 18040718108407508348
5104073 3 16805888519401474674
58083652 198 16588575522133375652
6327066 14 18337104558956036013
6700243 42 17623610765385623775
7808743 9 18409729543537393787
999808 66 11815608740350649957

>  <PUBCHEM_SHAPE_MULTIPOLES>  (1) 
584.83
22.69
3.59
1.37
16.2
0.23
0.15
-14.47
-2.95
-7.82
0.71
2.81
-0.41
-1.44

>  <PUBCHEM_SHAPE_SELFOVERLAP>  (1) 
1252.79

>  <PUBCHEM_SHAPE_VOLUME>  (1) 
327.2

>  <PUBCHEM_COORDINATE_TYPE>  (1) 
2
5
10

$$$$
