32355
     RDKit          3D

 19 21  0  0  0  0  0  0  0  0999 V2000
    0.4755    3.0707   -0.3456 O   0  0  0  0  0  0  0  0  0  0  0  0
   -3.9466    1.1212    1.2565 O   0  0  0  0  0  0  0  0  0  0  0  0
    0.0720    0.7631   -0.7936 N   0  0  0  0  0  0  0  0  0  0  0  0
   -1.4912    1.9300    0.2933 N   0  0  0  0  0  0  0  0  0  0  0  0
   -1.0003   -0.0797   -0.5068 C   0  0  0  0  0  0  0  0  0  0  0  0
    1.2890    0.4074   -1.4847 C   0  0  0  0  0  0  0  0  0  0  0  0
   -1.9350    0.6333    0.1474 C   0  0  0  0  0  0  0  0  0  0  0  0
   -0.2122    2.0628   -0.2922 C   0  0  0  0  0  0  0  0  0  0  0  0
    2.3533   -0.0694   -0.5391 C   0  0  0  0  0  0  0  0  0  0  0  0
   -1.0122   -1.4633   -0.8889 C   0  0  0  0  0  0  0  0  0  0  0  0
   -3.2571    0.2726    0.6905 C   0  0  0  0  0  0  0  0  0  0  0  0
    2.4406   -1.4211   -0.2274 C   0  0  0  0  0  0  0  0  0  0  0  0
    3.2407    0.8456    0.0153 C   0  0  0  0  0  0  0  0  0  0  0  0
   -1.9779   -2.3607   -0.6628 C   0  0  0  0  0  0  0  0  0  0  0  0
   -3.7824   -1.1079    0.5727 C   0  0  0  0  0  0  0  0  0  0  0  0
   -3.2385   -2.1904    0.0084 C   0  0  0  0  0  0  0  0  0  0  0  0
    3.4293   -1.8641    0.6512 C   0  0  0  0  0  0  0  0  0  0  0  0
    4.2294    0.4024    0.8939 C   0  0  0  0  0  0  0  0  0  0  0  0
    4.3237   -0.9524    1.2118 C   0  0  0  0  0  0  0  0  0  0  0  0
  1  8  2  0
  2 11  2  0
  3  5  1  0
  3  6  1  0
  3  8  1  0
  4  7  1  0
  4  8  1  0
  5  7  2  0
  5 10  1  0
  6  9  1  0
  7 11  1  0
  9 12  2  0
  9 13  1  0
 10 14  2  0
 11 15  1  0
 12 17  1  0
 13 18  2  0
 14 16  1  0
 15 16  2  0
 17 19  2  0
 18 19  1  0
M  END
>  <PUBCHEM_COMPOUND_CID>  (1) 
32355

>  <PUBCHEM_CONFORMER_RMSD>  (1) 
0.6

>  <PUBCHEM_CONFORMER_DIVERSEORDER>  (1) 
1
5
9
7
8
4
6
2
3

>  <PUBCHEM_MMFF94_PARTIAL_CHARGES>  (1) 
29
1 -0.57
10 -0.15
11 0.54
12 -0.15
13 -0.15
14 -0.15
15 -0.14
16 -0.15
17 -0.15
18 -0.15
19 -0.15
2 -0.57
22 0.37
23 0.15
24 0.15
25 0.15
26 0.15
27 0.15
28 0.15
29 0.15
3 -0.47
30 0.15
31 0.15
4 -0.54
5 0.11
6 0.44
7 0.12
8 0.69
9 -0.14

>  <PUBCHEM_EFFECTIVE_ROTOR_COUNT>  (1) 
2

>  <PUBCHEM_PHARMACOPHORE_FEATURES>  (1) 
6
1 1 acceptor
1 2 acceptor
1 4 donor
5 3 4 5 7 8 rings
6 9 12 13 17 18 19 rings
7 5 7 10 11 14 15 16 rings

>  <PUBCHEM_HEAVY_ATOM_COUNT>  (1) 
19

>  <PUBCHEM_ATOM_DEF_STEREO_COUNT>  (1) 
0

>  <PUBCHEM_ATOM_UDEF_STEREO_COUNT>  (1) 
0

>  <PUBCHEM_BOND_DEF_STEREO_COUNT>  (1) 
0

>  <PUBCHEM_BOND_UDEF_STEREO_COUNT>  (1) 
0

>  <PUBCHEM_ISOTOPIC_ATOM_COUNT>  (1) 
0

>  <PUBCHEM_COMPONENT_COUNT>  (1) 
1

>  <PUBCHEM_CACTVS_TAUTO_COUNT>  (1) 
5

>  <PUBCHEM_CONFORMER_ID>  (1) 
00007E6300000001

>  <PUBCHEM_MMFF94_ENERGY>  (1) 
67.2962

>  <PUBCHEM_FEATURE_SELFOVERLAP>  (1) 
30.477

>  <PUBCHEM_SHAPE_FINGERPRINT>  (1) 
10618630 7 18187363216587511062
11132069 177 18341619183189539551
11221954 11 13972031275517766459
11552529 35 17846208990467762254
11578080 2 17895737612643150820
12202030 40 16517101837373267555
12251169 10 18342173345776899892
12363563 72 15574709180119320670
12382932 28 18342459235653079774
12553582 1 18337399321691278430
12633257 1 18130780132092750626
13083527 12 17698709634687520671
13140716 1 18411981330197476430
14081887 123 18201712964158034616
14178342 30 18272097105883547495
14223421 5 18341328882229135030
14341114 328 18338515343869730888
14420673 8 17980484456293851758
14787075 74 18042123318632578552
15375462 189 18262525912823843172
16945 1 18269293342922118797
17780758 139 17974262367420868666
17804303 29 18052829048403642710
1813 80 17531251638686701550
19050596 39 18410569596227780690
20291156 8 18260828194088409882
20361792 2 16660648419097632878
20442098 301 18409726232091501034
21421861 104 17978805828196601051
21650355 55 18410848828778096384
22445834 79 18337394966726282903
2255824 54 17827930838058656004
23366157 5 17972887144035070069
23419403 2 17340924075695648285
23559900 14 18059312975804304236
2637199 183 10519715517853304868
2748010 2 17835547933004751381
34934 24 18408602565245684573
4072396 5 18338243639980522249
5262128 65 12035735254239955394
58807428 26 18268725921971357739
7064713 232 18201439138317774010
7097593 13 18410295843111579766
7471813 234 17483656168248749119
90316 7 18336831900803742613

>  <PUBCHEM_SHAPE_MULTIPOLES>  (1) 
369.31
7.85
2.64
1.12
2.61
0.52
-0.02
-2.76
3.66
-0.88
-0.16
0.19
-0.04
-0.87

>  <PUBCHEM_SHAPE_SELFOVERLAP>  (1) 
809.286

>  <PUBCHEM_SHAPE_VOLUME>  (1) 
197.2

>  <PUBCHEM_COORDINATE_TYPE>  (1) 
2
5
10

$$$$
