32363
     RDKit          3D

 15 17  0  0  0  0  0  0  0  0999 V2000
    4.9326   -0.1378    0.0001 Cl  0  0  0  0  0  0  0  0  0  0  0  0
    0.3736   -0.3719    0.0000 C   0  0  0  0  0  0  0  0  0  0  0  0
   -1.0662   -0.3942    0.0001 C   0  0  0  0  0  0  0  0  0  0  0  0
    1.0469    0.8776    0.0000 C   0  0  0  0  0  0  0  0  0  0  0  0
   -1.7773    0.8343    0.0000 C   0  0  0  0  0  0  0  0  0  0  0  0
    0.3118    2.0659    0.0002 C   0  0  0  0  0  0  0  0  0  0  0  0
   -1.0791    2.0444    0.0001 C   0  0  0  0  0  0  0  0  0  0  0  0
    1.1867   -1.5329    0.0001 C   0  0  0  0  0  0  0  0  0  0  0  0
   -1.8437   -1.5795    0.0001 C   0  0  0  0  0  0  0  0  0  0  0  0
    2.4512    0.9331   -0.0001 C   0  0  0  0  0  0  0  0  0  0  0  0
   -3.1827    0.8468   -0.0002 C   0  0  0  0  0  0  0  0  0  0  0  0
    2.5825   -1.4636   -0.0001 C   0  0  0  0  0  0  0  0  0  0  0  0
   -3.2408   -1.5529    0.0001 C   0  0  0  0  0  0  0  0  0  0  0  0
    3.2149   -0.2301   -0.0003 C   0  0  0  0  0  0  0  0  0  0  0  0
   -3.9104   -0.3392   -0.0002 C   0  0  0  0  0  0  0  0  0  0  0  0
  1 14  1  0
  2  3  2  0
  2  4  1  0
  2  8  1  0
  3  5  1  0
  3  9  1  0
  4  6  2  0
  4 10  1  0
  5  7  2  0
  5 11  1  0
  6  7  1  0
  8 12  2  0
  9 13  2  0
 10 14  2  0
 11 15  2  0
 12 14  1  0
 13 15  1  0
M  END
>  <PUBCHEM_COMPOUND_CID>  (1) 
32363

>  <PUBCHEM_CONFORMER_RMSD>  (1) 
0.4

>  <PUBCHEM_CONFORMER_DIVERSEORDER>  (1) 
1

>  <PUBCHEM_MMFF94_PARTIAL_CHARGES>  (1) 
20
1 -0.18
10 -0.15
11 -0.15
12 -0.15
13 -0.15
14 0.18
15 -0.15
16 0.15
17 0.15
18 0.15
19 0.15
20 0.15
21 0.15
22 0.15
23 0.15
24 0.15
6 -0.15
7 -0.15
8 -0.15
9 -0.15

>  <PUBCHEM_EFFECTIVE_ROTOR_COUNT>  (1) 
0

>  <PUBCHEM_PHARMACOPHORE_FEATURES>  (1) 
3
6 2 3 4 5 6 7 rings
6 2 4 8 10 12 14 rings
6 3 5 9 11 13 15 rings

>  <PUBCHEM_HEAVY_ATOM_COUNT>  (1) 
15

>  <PUBCHEM_ATOM_DEF_STEREO_COUNT>  (1) 
0

>  <PUBCHEM_ATOM_UDEF_STEREO_COUNT>  (1) 
0

>  <PUBCHEM_BOND_DEF_STEREO_COUNT>  (1) 
0

>  <PUBCHEM_BOND_UDEF_STEREO_COUNT>  (1) 
0

>  <PUBCHEM_ISOTOPIC_ATOM_COUNT>  (1) 
0

>  <PUBCHEM_COMPONENT_COUNT>  (1) 
1

>  <PUBCHEM_CACTVS_TAUTO_COUNT>  (1) 
1

>  <PUBCHEM_CONFORMER_ID>  (1) 
00007E6B00000001

>  <PUBCHEM_MMFF94_ENERGY>  (1) 
48.3143

>  <PUBCHEM_FEATURE_SELFOVERLAP>  (1) 
15.272

>  <PUBCHEM_SHAPE_FINGERPRINT>  (1) 
10608611 8 18411132537137865913
10967382 1 18338797921972398407
11132069 177 18411696586739720904
11471102 20 18410288151062568541
11543360 7 15647060416285724203
11806522 49 18410291457981768478
12032990 46 18411141358926546531
12251169 10 18343027687812911721
12382932 28 18341331110868645411
13140716 1 18339366395417390529
13214271 11 18342452642777956286
13221675 6 18411419501087834766
13288520 33 18412547587681585902
13862211 1 18410568509385134058
14115302 16 17967823776824077807
14144814 61 18411700967564281715
15196674 1 18410574028101182561
15375462 189 18187646886028811843
15442244 35 18122062005459216906
15536298 74 18271525407208260264
16945 1 18338517443380738084
17804303 29 18342178885936759984
18522853 276 18412825789323465808
19107657 46 18411699880789875783
193761 8 17762338011677737251
200 152 18059567006003244455
20201158 50 18409166614721341619
20510252 161 18128818547124281296
20871998 184 18201999889305858023
21029758 11 18342731919101020593
21029758 27 18260556653191758901
21267235 1 18410583902347371907
21501502 16 18266459793824577650
221490 88 18119534481429615779
22721475 48 18410578391940942597
2297311 6 18271538528628391612
2334 1 18122626325301178337
23402539 116 18341041969364898414
23402655 69 18340478972562495285
23463225 33 18409449189072322164
23557571 272 18201166455692928068
23559900 14 18268988679617631686
2748010 2 18194398024893970989
2871803 45 18335698330153692726
3312278 4 18410293592506512184
335352 9 18122624950879963061
34934 24 18337383851414172235
427121 178 15765317092932423449
43471831 8 18262514793576169794
5104073 3 18410856576861896736
528886 8 18411976966341600010
7364860 26 18197497539456461289
8809292 202 18188213211879463555
9709674 26 18411986832045470414

>  <PUBCHEM_SHAPE_MULTIPOLES>  (1) 
310.56
7.05
2.04
0.62
3.35
0.36
0
-1.65
0
-0.57
0
0.01
0
0

>  <PUBCHEM_SHAPE_SELFOVERLAP>  (1) 
691.113

>  <PUBCHEM_SHAPE_VOLUME>  (1) 
157.1

>  <PUBCHEM_COORDINATE_TYPE>  (1) 
2
5
10

$$$$
