32369
     RDKit          3D

 10  9  0  0  0  0  0  0  0  0999 V2000
   -3.6125    1.4893   -0.3101 Cl  0  0  0  0  0  0  0  0  0  0  0  0
    3.3091    1.9226   -0.1735 Cl  0  0  0  0  0  0  0  0  0  0  0  0
   -0.0445   -0.2221    0.4410 N   0  0  0  0  0  0  0  0  0  0  0  0
    0.4836   -1.5435    0.1036 C   0  0  0  0  0  0  0  0  0  0  0  0
   -1.4014   -0.0653   -0.0812 C   0  0  0  0  0  0  0  0  0  0  0  0
    0.8294    0.8267   -0.0834 C   0  0  0  0  0  0  0  0  0  0  0  0
    0.5218   -1.7270   -1.4109 C   0  0  0  0  0  0  0  0  0  0  0  0
   -0.3751   -2.6173    0.7642 C   0  0  0  0  0  0  0  0  0  0  0  0
   -1.9534    1.2981    0.3053 C   0  0  0  0  0  0  0  0  0  0  0  0
    2.2430    0.6385    0.4449 C   0  0  0  0  0  0  0  0  0  0  0  0
  1  9  1  0
  2 10  1  0
  3  4  1  0
  3  5  1  0
  3  6  1  0
  4  7  1  0
  4  8  1  0
  5  9  1  0
  6 10  1  0
M  END
>  <PUBCHEM_COMPOUND_CID>  (1) 
32369

>  <PUBCHEM_CONFORMER_RMSD>  (1) 
0.6

>  <PUBCHEM_CONFORMER_DIVERSEORDER>  (1) 
1
6
12
9
5
3
8
11
10
2
7
4

>  <PUBCHEM_MMFF94_PARTIAL_CHARGES>  (1) 
8
1 -0.29
10 0.29
2 -0.29
3 -0.81
4 0.27
5 0.27
6 0.27
9 0.29

>  <PUBCHEM_EFFECTIVE_ROTOR_COUNT>  (1) 
5

>  <PUBCHEM_PHARMACOPHORE_FEATURES>  (1) 
2
1 3 cation
3 4 7 8 hydrophobe

>  <PUBCHEM_HEAVY_ATOM_COUNT>  (1) 
10

>  <PUBCHEM_ATOM_DEF_STEREO_COUNT>  (1) 
0

>  <PUBCHEM_ATOM_UDEF_STEREO_COUNT>  (1) 
0

>  <PUBCHEM_BOND_DEF_STEREO_COUNT>  (1) 
0

>  <PUBCHEM_BOND_UDEF_STEREO_COUNT>  (1) 
0

>  <PUBCHEM_ISOTOPIC_ATOM_COUNT>  (1) 
0

>  <PUBCHEM_COMPONENT_COUNT>  (1) 
1

>  <PUBCHEM_CACTVS_TAUTO_COUNT>  (1) 
1

>  <PUBCHEM_CONFORMER_ID>  (1) 
00007E7100000001

>  <PUBCHEM_MMFF94_ENERGY>  (1) 
18.0291

>  <PUBCHEM_FEATURE_SELFOVERLAP>  (1) 
10.148

>  <PUBCHEM_SHAPE_FINGERPRINT>  (1) 
1 1 18338511933080018332
12138202 97 18058736947638653420
12932764 1 17901676964772696293
13380535 76 18412543206187111921
170605 34 18340204094592318837
19021347 4 18408323319309404531
20645477 70 18126839392752242573
20653091 64 17910673159809191001
20711985 327 17691119340622136611
20711985 344 17835222816437954570
20871998 184 17910686688966800654
21040471 1 18410855494735898096
21499 59 18409440393301547213
21524375 3 18413099567713780048
23552423 10 18052536578363232561
23552449 11 17979347556673972907
2748010 2 18264227879614637699
3250762 1 18267606708906874390
4369600 1 17620490007820038167
58734985 102 17557714555304527454
68250623 7 18341322353489013654
81228 2 17763167434097272025
81539 233 18336259046829699765

>  <PUBCHEM_SHAPE_MULTIPOLES>  (1) 
204.55
4.47
2.78
0.94
0.92
1.44
-0.23
-5.07
-0.29
-0.24
0.07
-0.08
0.45
0.23

>  <PUBCHEM_SHAPE_SELFOVERLAP>  (1) 
356.141

>  <PUBCHEM_SHAPE_VOLUME>  (1) 
137.1

>  <PUBCHEM_COORDINATE_TYPE>  (1) 
2
5
10

$$$$
