32361
     RDKit          3D

 23 24  0  0  1  0  0  0  0  0999 V2000
   -1.3908   -0.8455   -1.2410 O   0  0  0  0  0  0  0  0  0  0  0  0
    1.1401   -1.4676    0.5753 O   0  0  0  0  0  0  0  0  0  0  0  0
    0.0562    2.8714   -0.0370 N   0  0  0  0  0  0  0  0  0  0  0  0
   -1.0898    2.0271   -0.3868 C   0  0  0  0  0  0  0  0  0  0  0  0
    1.1798    2.0563    0.3933 C   0  0  0  0  0  0  0  0  0  0  0  0
   -1.4594    1.1380    0.8146 C   0  0  0  0  0  0  0  0  0  0  0  0
    1.5398    1.0501   -0.7151 C   0  0  0  0  0  0  0  0  0  0  0  0
   -2.2414    2.9344   -0.8202 C   0  0  0  0  0  0  0  0  0  0  0  0
    2.3429    2.9854    0.7413 C   0  0  0  0  0  0  0  0  0  0  0  0
   -2.6088    0.1980    0.5401 C   0  0  0  0  0  0  0  0  0  0  0  0
    2.6753    0.1255   -0.3468 C   0  0  0  0  0  0  0  0  0  0  0  0
   -2.5117   -0.7432   -0.4733 C   0  0  0  0  0  0  0  0  0  0  0  0
    2.4133   -1.0838    0.2786 C   0  0  0  0  0  0  0  0  0  0  0  0
   -3.7515    0.2994    1.3193 C   0  0  0  0  0  0  0  0  0  0  0  0
    3.9726    0.5129   -0.6469 C   0  0  0  0  0  0  0  0  0  0  0  0
   -3.5830   -1.6038   -0.7133 C   0  0  0  0  0  0  0  0  0  0  0  0
    3.4741   -1.9262    0.6119 C   0  0  0  0  0  0  0  0  0  0  0  0
   -4.8227   -0.5613    1.0790 C   0  0  0  0  0  0  0  0  0  0  0  0
    5.0331   -0.3296   -0.3135 C   0  0  0  0  0  0  0  0  0  0  0  0
   -4.7384   -1.5128    0.0628 C   0  0  0  0  0  0  0  0  0  0  0  0
    4.7839   -1.5490    0.3160 C   0  0  0  0  0  0  0  0  0  0  0  0
   -1.3907   -1.8459   -2.2573 C   0  0  0  0  0  0  0  0  0  0  0  0
    0.9772   -2.7297    1.2190 C   0  0  0  0  0  0  0  0  0  0  0  0
  1 12  1  0
  1 22  1  0
  2 13  1  0
  2 23  1  0
  3  4  1  0
  3  5  1  0
  4  6  1  0
  4  8  1  0
  5  7  1  0
  5  9  1  0
  6 10  1  0
  7 11  1  0
 10 12  2  0
 10 14  1  0
 11 13  2  0
 11 15  1  0
 12 16  1  0
 13 17  1  0
 14 18  2  0
 15 19  2  0
 16 20  2  0
 17 21  2  0
 18 20  1  0
 19 21  1  0
M  END
>  <PUBCHEM_COMPOUND_CID>  (1) 
32361

>  <PUBCHEM_CONFORMER_RMSD>  (1) 
0.8

>  <PUBCHEM_CONFORMER_DIVERSEORDER>  (1) 
2
166
214
77
204
239
155
163
230
19
48
4
39
72
213
182
35
165
195
209
144
71
238
8
216
96
73
231
175
10
178
15
184
167
107
180
156
199
83
76
82
60
17
176
133
146
225
243
149
169
56
173
177
58
123
5
32
23
117
13
88
101
110
105
196
218
153
81
18
132
63
236
112
164
111
28
151
159
16
62
99
134
93
187
150
43
203
79
226
14
142
131
172
37
190
207
200
181
94
59
114
53
244
235
229
97
193
29
40
47
42
202
223
118
126
21
1
113
147
158
241
232
25
109
106
6
78
31
115
143
191
135
67
24
185
89
46
92
87
161
240
237
171
168
246
141
128
55
217
75
3
124
211
154
22
136
91
41
189
208
160
90
224
7
104
205
120
227
186
64
121
174
222
26
152
228
45
129
197
57
198
137
130
49
66
95
148
103
157
127
122
162
125
140
108
245
38
9
201
138
74
80
139
221
44
98
27
11
12
233
68
215
102
219
116
85
183
70
33
30
145
34
69
212
192
86
20
179
51
54
100
50
206
242
220
52
188
61
84
119
194
210
234
170
36
65

>  <PUBCHEM_MMFF94_PARTIAL_CHARGES>  (1) 
30
1 -0.36
10 -0.14
11 -0.14
12 0.08
13 0.08
14 -0.15
15 -0.15
16 -0.15
17 -0.15
18 -0.15
19 -0.15
2 -0.36
20 -0.15
21 -0.15
22 0.28
23 0.28
26 0.36
3 -0.9
37 0.15
38 0.15
39 0.15
4 0.27
40 0.15
41 0.15
42 0.15
43 0.15
44 0.15
5 0.27
6 0.14
7 0.14

>  <PUBCHEM_EFFECTIVE_ROTOR_COUNT>  (1) 
8

>  <PUBCHEM_PHARMACOPHORE_FEATURES>  (1) 
6
1 1 acceptor
1 2 acceptor
1 3 cation
1 3 donor
6 10 12 14 16 18 20 rings
6 11 13 15 17 19 21 rings

>  <PUBCHEM_HEAVY_ATOM_COUNT>  (1) 
23

>  <PUBCHEM_ATOM_DEF_STEREO_COUNT>  (1) 
0

>  <PUBCHEM_ATOM_UDEF_STEREO_COUNT>  (1) 
2

>  <PUBCHEM_BOND_DEF_STEREO_COUNT>  (1) 
0

>  <PUBCHEM_BOND_UDEF_STEREO_COUNT>  (1) 
0

>  <PUBCHEM_ISOTOPIC_ATOM_COUNT>  (1) 
0

>  <PUBCHEM_COMPONENT_COUNT>  (1) 
1

>  <PUBCHEM_CACTVS_TAUTO_COUNT>  (1) 
1

>  <PUBCHEM_CONFORMER_ID>  (1) 
00007E6900000002

>  <PUBCHEM_MMFF94_ENERGY>  (1) 
75.1001

>  <PUBCHEM_FEATURE_SELFOVERLAP>  (1) 
30.446

>  <PUBCHEM_SHAPE_FINGERPRINT>  (1) 
10366900 7 18114187453246393499
10616163 171 18192431866285835432
10675989 125 16464723951132884836
11244481 83 15480972661081684355
11578080 2 17987210340413428777
12236239 1 18272093811596041707
12553582 1 18411130342467424550
12596599 1 17916324842654497267
12633257 1 17775292676730199261
13140716 1 18267588090028032259
14251751 93 18340205163965342142
14787075 74 18336273405300846552
15196674 1 18335141938831454336
15209289 33 18408325497026791010
15375462 189 18411704283416236168
15537594 2 18339093652114246230
17492 89 18191024487324470042
20261772 1 18272934907968691286
20291156 8 18411699885105870504
20691752 17 18191574448895146744
21634736 98 18270678800476641220
23559900 14 17968094248506110525
23598288 3 18195232330775847214
2871803 45 18334011700648985488
34934 24 18046623413144772312
463206 1 18335426810853230203
465052 167 18339937016725889987
5104073 3 17987531475518414747
7064713 232 17632587019780135123

>  <PUBCHEM_SHAPE_MULTIPOLES>  (1) 
456.61
9.51
3.35
1.31
0.98
1.81
-0.37
-4.42
1.19
0.51
0.12
-0.81
-0.5
-0.57

>  <PUBCHEM_SHAPE_SELFOVERLAP>  (1) 
950.461

>  <PUBCHEM_SHAPE_VOLUME>  (1) 
260.9

>  <PUBCHEM_COORDINATE_TYPE>  (1) 
2
5
10

$$$$
