32366
     RDKit          3D

 13 14  0  0  0  0  0  0  0  0999 V2000
    0.2597    1.0778   -0.0078 N   0  0  0  0  0  0  0  0  0  0  0  0
    0.2812   -1.1447    0.0050 N   0  0  0  0  0  0  0  0  0  0  0  0
    2.4939    0.0068   -0.0003 C   0  0  0  0  0  0  0  0  0  0  0  0
    1.0205   -0.0580   -0.0007 C   0  0  0  0  0  0  0  0  0  0  0  0
    3.1543   -1.4181    0.0078 C   0  0  0  0  0  0  0  0  0  0  0  0
    3.0577    0.7734    1.2489 C   0  0  0  0  0  0  0  0  0  0  0  0
    3.1468    0.7348   -1.2347 C   0  0  0  0  0  0  0  0  0  0  0  0
   -1.0583    0.6991   -0.0063 C   0  0  0  0  0  0  0  0  0  0  0  0
   -1.0183   -0.6925    0.0016 C   0  0  0  0  0  0  0  0  0  0  0  0
   -2.2457    1.4318   -0.0111 C   0  0  0  0  0  0  0  0  0  0  0  0
   -2.2252   -1.4122    0.0049 C   0  0  0  0  0  0  0  0  0  0  0  0
   -3.4373    0.6993   -0.0075 C   0  0  0  0  0  0  0  0  0  0  0  0
   -3.4294   -0.6974    0.0002 C   0  0  0  0  0  0  0  0  0  0  0  0
  1  4  1  0
  1  8  1  0
  2  4  2  0
  2  9  1  0
  3  4  1  0
  3  5  1  0
  3  6  1  0
  3  7  1  0
  8  9  2  0
  8 10  1  0
  9 11  1  0
 10 12  2  0
 11 13  2  0
 12 13  1  0
M  END
>  <PUBCHEM_COMPOUND_CID>  (1) 
32366

>  <PUBCHEM_CONFORMER_RMSD>  (1) 
0.4

>  <PUBCHEM_CONFORMER_DIVERSEORDER>  (1) 
1

>  <PUBCHEM_MMFF94_PARTIAL_CHARGES>  (1) 
15
1 0.03
10 -0.15
11 -0.15
12 -0.15
13 -0.15
2 -0.57
23 0.27
24 0.15
25 0.15
26 0.15
27 0.15
3 0.18
4 0.01
8 -0.15
9 0.23

>  <PUBCHEM_EFFECTIVE_ROTOR_COUNT>  (1) 
1

>  <PUBCHEM_PHARMACOPHORE_FEATURES>  (1) 
5
1 1 donor
3 1 2 4 cation
4 3 5 6 7 hydrophobe
5 1 2 4 8 9 rings
6 8 9 10 11 12 13 rings

>  <PUBCHEM_HEAVY_ATOM_COUNT>  (1) 
13

>  <PUBCHEM_ATOM_DEF_STEREO_COUNT>  (1) 
0

>  <PUBCHEM_ATOM_UDEF_STEREO_COUNT>  (1) 
0

>  <PUBCHEM_BOND_DEF_STEREO_COUNT>  (1) 
0

>  <PUBCHEM_BOND_UDEF_STEREO_COUNT>  (1) 
0

>  <PUBCHEM_ISOTOPIC_ATOM_COUNT>  (1) 
0

>  <PUBCHEM_COMPONENT_COUNT>  (1) 
1

>  <PUBCHEM_CACTVS_TAUTO_COUNT>  (1) 
1

>  <PUBCHEM_CONFORMER_ID>  (1) 
00007E6E00000001

>  <PUBCHEM_MMFF94_ENERGY>  (1) 
27.5991

>  <PUBCHEM_FEATURE_SELFOVERLAP>  (1) 
25.479

>  <PUBCHEM_SHAPE_FINGERPRINT>  (1) 
10608611 8 18342733005332075248
10922523 26 18338797814598281302
11132069 177 18408879633643965321
12032990 46 18410860953644768363
12932764 1 17989207079034827310
13296908 3 18060420235199556158
14144814 61 18409729564595420889
14325111 11 18410575071783477765
15219456 202 18131063840331089946
15669948 3 18339360867646949767
16945 1 18338516455722759403
17804303 29 18268993085990300738
18175812 5 18060137647747214244
18186145 218 17775571930992455704
19026448 4 16415482661957349501
19026448 5 16370721543616955809
19422 9 18259990361584898170
19786989 88 16558744663485957524
20279233 1 18060697299339870790
20281407 28 18341053011920988587
20510252 161 18272651242637813889
20645476 183 18042138685482524318
20715346 28 17917712447819235832
20871998 184 18201722911666756663
21501502 16 18410578340248497206
2255824 54 17821732706867293858
23402539 116 18201428174157635357
23402655 69 18196636425422829005
23463225 33 18335138640048839446
23552423 10 18187647968524236706
23559900 14 18342173345998445948
2748010 2 18193842544215556359
3248919 1 17895191133999448330
369184 2 18060414720466829363
474 4 16662346224112857148
5104073 3 18411982446894021763
57096353 35 18335142050136763567
57812782 119 18131346384517312782
6333449 129 18342734113818330549
69090 78 18059564798300558935
7364860 26 18412265056301221364
77492 1 17676203593470510064

>  <PUBCHEM_SHAPE_MULTIPOLES>  (1) 
257.57
6.38
1.48
0.85
0.35
0.17
-0.01
-0.05
0.05
-0.24
-0.01
0.76
-0.19
0.01

>  <PUBCHEM_SHAPE_SELFOVERLAP>  (1) 
550.586

>  <PUBCHEM_SHAPE_VOLUME>  (1) 
144.3

>  <PUBCHEM_COORDINATE_TYPE>  (1) 
2
5
10

$$$$
