3236
     RDKit          3D

 19 20  0  0  1  0  0  0  0  0999 V2000
    0.7264   -3.1592   -0.3226 O   0  0  0  0  0  0  0  0  0  0  0  0
   -2.7224    0.0124   -0.3535 N   0  0  0  0  0  0  0  0  0  0  0  0
   -2.8281    0.5937    0.9921 C   0  0  0  0  0  0  0  0  0  0  0  0
   -3.1445    0.9735   -1.3821 C   0  0  0  0  0  0  0  0  0  0  0  0
   -4.2627    1.0301    1.2934 C   0  0  0  0  0  0  0  0  0  0  0  0
   -4.5896    1.4222   -1.1585 C   0  0  0  0  0  0  0  0  0  0  0  0
   -4.7802    2.0015    0.2386 C   0  0  0  0  0  0  0  0  0  0  0  0
   -1.3557   -0.4424   -0.6084 C   0  0  0  0  0  0  0  0  0  0  0  0
   -0.9338   -1.5521    0.3655 C   0  0  0  0  0  0  0  0  0  0  0  0
   -1.8778   -2.7582    0.3076 C   0  0  0  0  0  0  0  0  0  0  0  0
    0.4870   -2.0030    0.0237 C   0  0  0  0  0  0  0  0  0  0  0  0
    1.6130   -1.0262    0.0945 C   0  0  0  0  0  0  0  0  0  0  0  0
    1.5351    0.0055    1.0018 C   0  0  0  0  0  0  0  0  0  0  0  0
    2.6864   -1.1950   -0.7504 C   0  0  0  0  0  0  0  0  0  0  0  0
    3.6898    0.7744    0.2252 C   0  0  0  0  0  0  0  0  0  0  0  0
    2.5877    0.9183    1.0681 C   0  0  0  0  0  0  0  0  0  0  0  0
    3.7391   -0.2823   -0.6842 C   0  0  0  0  0  0  0  0  0  0  0  0
    4.8150    1.7511    0.2956 C   0  0  0  0  0  0  0  0  0  0  0  0
    4.6153    2.9355   -0.6463 C   0  0  0  0  0  0  0  0  0  0  0  0
  1 11  2  0
  2  3  1  0
  2  4  1  0
  2  8  1  0
  3  5  1  0
  4  6  1  0
  5  7  1  0
  6  7  1  0
  8  9  1  0
  9 10  1  0
  9 11  1  0
 11 12  1  0
 12 13  2  0
 12 14  1  0
 13 16  1  0
 14 17  2  0
 15 16  2  0
 15 17  1  0
 15 18  1  0
 18 19  1  0
M  END
>  <PUBCHEM_COMPOUND_CID>  (1) 
3236

>  <PUBCHEM_CONFORMER_RMSD>  (1) 
0.8

>  <PUBCHEM_CONFORMER_DIVERSEORDER>  (1) 
1
34
44
8
33
26
49
42
40
16
18
28
45
30
9
31
41
5
43
20
47
25
32
35
19
23
38
36
27
3
6
21
48
46
13
39
15
22
7
10
24
17
29
2
14
37
12
11
4

>  <PUBCHEM_MMFF94_PARTIAL_CHARGES>  (1) 
18
1 -0.57
11 0.42
12 0.09
13 -0.15
14 -0.15
15 -0.14
16 -0.15
17 -0.15
18 0.14
2 -0.81
3 0.27
36 0.15
37 0.15
38 0.15
39 0.15
4 0.27
8 0.27
9 0.06

>  <PUBCHEM_EFFECTIVE_ROTOR_COUNT>  (1) 
6.2

>  <PUBCHEM_PHARMACOPHORE_FEATURES>  (1) 
6
1 1 acceptor
1 10 hydrophobe
1 19 hydrophobe
1 2 cation
6 12 13 14 15 16 17 rings
6 2 3 4 5 6 7 rings

>  <PUBCHEM_HEAVY_ATOM_COUNT>  (1) 
19

>  <PUBCHEM_ATOM_DEF_STEREO_COUNT>  (1) 
0

>  <PUBCHEM_ATOM_UDEF_STEREO_COUNT>  (1) 
1

>  <PUBCHEM_BOND_DEF_STEREO_COUNT>  (1) 
0

>  <PUBCHEM_BOND_UDEF_STEREO_COUNT>  (1) 
0

>  <PUBCHEM_ISOTOPIC_ATOM_COUNT>  (1) 
0

>  <PUBCHEM_COMPONENT_COUNT>  (1) 
1

>  <PUBCHEM_CACTVS_TAUTO_COUNT>  (1) 
2

>  <PUBCHEM_CONFORMER_ID>  (1) 
00000CA400000001

>  <PUBCHEM_MMFF94_ENERGY>  (1) 
34.2301

>  <PUBCHEM_FEATURE_SELFOVERLAP>  (1) 
30.446

>  <PUBCHEM_SHAPE_FINGERPRINT>  (1) 
10498660 4 18409726261818629597
11796584 16 13110956488193366541
12390115 104 18338530749489971628
12403259 118 17167866370032656197
12730499 353 18339368465976904763
12788726 201 18051955206995138879
12892183 10 16153700990651338697
13103583 49 11531031928946285892
13544653 18 9439401332822675154
13583140 156 16226032414597784261
13965767 371 17749660814545257380
14123255 52 18409165493687268145
1420 369 8935000377865132136
14251764 30 13407622262304221040
14251764 75 18411991264388663345
14848178 5 11815353559106248604
14848178 96 18413668006777947432
15163728 17 18045240468715726748
15342168 16 18411138000837335477
15352361 1 9367348132494255264
1741750 31 18411696621105058898
17834072 32 18336546113864528564
1798214 55 18408885122432808612
1813 80 16980684166064184623
18186145 218 18342458097354922886
18219364 16 18410578392093884881
18785283 64 18335702681172283210
193927 3 10663821901130334812
19784866 34 18341611503460830419
204376 136 18409165506820070435
20645477 56 18259705592468466006
20871998 22 9223221957908042967
21388113 180 18188481381190462101
21401589 2 18334577992108160209
21864079 5 18268709411816371873
22182937 141 18339364174945477179
2255824 54 17983290431210339287
231179 274 18261109638794439368
23227448 37 18335702809767711373
23402655 69 17846495928779529684
23403322 49 10375876272741570705
23559900 14 18273502261065580766
25 1 18343022146909870186
27216 239 18187367683326969579
283562 15 18192425501340488667
350125 39 18194688296290654225
474 4 18341046346142275085
5104073 3 18260548913539502818
56616090 163 18411709798275485734
633830 44 18200879448713859565
6442390 28 18335994124683802371
76465 3 9151184129689185460
7808743 9 18335419135931463536

>  <PUBCHEM_SHAPE_MULTIPOLES>  (1) 
380.16
10.53
3.06
1.17
0.82
1.03
0
-10.37
-0.65
-0.82
-0.29
0.71
-0.37
0.26

>  <PUBCHEM_SHAPE_SELFOVERLAP>  (1) 
779.992

>  <PUBCHEM_SHAPE_VOLUME>  (1) 
220.3

>  <PUBCHEM_COORDINATE_TYPE>  (1) 
2
5
10

$$$$
