3238
     RDKit          3D

 22 22  0  0  1  0  0  0  0  0999 V2000
   -0.9001    1.7021    2.0790 O   0  0  0  0  0  0  0  0  0  0  0  0
    1.7232    1.3162    1.9126 O   0  0  0  0  0  0  0  0  0  0  0  0
    2.9143    1.8222   -1.3504 O   0  0  0  0  0  0  0  0  0  0  0  0
    4.9246    0.8446   -1.0114 O   0  0  0  0  0  0  0  0  0  0  0  0
    1.5567   -0.0047    0.0111 N   0  0  0  0  0  0  0  0  0  0  0  0
   -0.2189    2.8976   -0.4599 N   0  0  0  0  0  0  0  0  0  0  0  0
    3.2281   -1.6713   -0.7224 C   0  0  0  0  0  0  0  0  0  0  0  0
    2.5436   -2.8755   -0.0367 C   0  0  0  0  0  0  0  0  0  0  0  0
    2.9629   -0.2740   -0.1422 C   0  0  0  0  0  0  0  0  0  0  0  0
   -0.9145    1.6078   -0.3505 C   0  0  0  0  0  0  0  0  0  0  0  0
   -0.4702    0.9337    0.9650 C   0  0  0  0  0  0  0  0  0  0  0  0
   -2.4448    1.8130   -0.4216 C   0  0  0  0  0  0  0  0  0  0  0  0
    1.0468    0.7779    1.0386 C   0  0  0  0  0  0  0  0  0  0  0  0
    2.9806   -2.9355    1.4319 C   0  0  0  0  0  0  0  0  0  0  0  0
    1.0187   -2.8438   -0.1115 C   0  0  0  0  0  0  0  0  0  0  0  0
   -3.2282    0.5221   -0.3708 C   0  0  0  0  0  0  0  0  0  0  0  0
    3.7051    0.8265   -0.8840 C   0  0  0  0  0  0  0  0  0  0  0  0
   -3.5334   -0.1327   -1.5529 C   0  0  0  0  0  0  0  0  0  0  0  0
   -3.6257    0.0179    0.8568 C   0  0  0  0  0  0  0  0  0  0  0  0
   -4.2563   -1.3247   -1.5061 C   0  0  0  0  0  0  0  0  0  0  0  0
   -4.3487   -1.1741    0.9034 C   0  0  0  0  0  0  0  0  0  0  0  0
   -4.6639   -1.8453   -0.2781 C   0  0  0  0  0  0  0  0  0  0  0  0
  1 11  1  0
  2 13  2  0
  3 17  1  0
  4 17  2  0
  5  9  1  0
  5 13  1  0
  6 10  1  0
  7  8  1  0
  7  9  1  0
  8 14  1  0
  8 15  1  0
  9 17  1  0
 10 11  1  0
 10 12  1  0
 11 13  1  0
 12 16  1  0
 16 18  2  0
 16 19  1  0
 18 20  1  0
 19 21  2  0
 20 22  2  0
 21 22  1  0
M  END
>  <PUBCHEM_COMPOUND_CID>  (1) 
3238

>  <PUBCHEM_CONFORMER_RMSD>  (1) 
1

>  <PUBCHEM_CONFORMER_DIVERSEORDER>  (1) 
1
57
377
29
594
558
102
32
16
762
254
176
705
341
62
771
375
208
272
744
205
694
80
8
170
247
722
522
769
351
508
434
761
607
101
283
560
264
530
603
290
289
337
820
145
81
682
433
187
321
374
479
369
56
617
185
399
328
352
73
370
79
347
7
149
575
95
590
285
51
495
655
237
444
26
231
368
155
34
602
587
609
17
252
179
270
299
4
232
266
11
648
455
358
30
346
224
774
13
413
611
792
123
573
345
767
66
21
486
201
238
581
652
93
86
10
298
799
180
324
96
213
318
45
525
198
235
36
432
118
793
489
190
133
663
158
510
20
14
308
54
309
85
12
72
447
544
693
608
515
110
600
156
82
178
87
649
134
64
612
564
111
458
227
135
243
63
478
144
267
323
713
661
233
246
284
286
197
263
535
25
65
483
417
129
125
459
249
273
634
43
706
480
130
124
628
122
140
44
280
137
538
37
115
329
454
177
53
171
529
52
141
60
619
5
42
741
400
310
2
199
570
343
291
33
50
643
404
746
826
41
297
31
142
313
59
104
108
411
452
6
131
633
94
27
90
234
281

>  <PUBCHEM_MMFF94_PARTIAL_CHARGES>  (1) 
28
1 -0.68
10 0.27
11 0.34
12 0.14
13 0.57
16 -0.14
17 0.66
18 -0.15
19 -0.15
2 -0.57
20 -0.15
21 -0.15
22 -0.15
3 -0.65
31 0.37
38 0.36
39 0.36
4 -0.57
40 0.4
41 0.15
42 0.15
43 0.15
44 0.15
45 0.5
46 0.15
5 -0.73
6 -0.99
9 0.36

>  <PUBCHEM_EFFECTIVE_ROTOR_COUNT>  (1) 
9

>  <PUBCHEM_PHARMACOPHORE_FEATURES>  (1) 
11
1 1 acceptor
1 1 donor
1 2 acceptor
1 3 acceptor
1 4 acceptor
1 5 donor
1 6 cation
1 6 donor
3 3 4 17 anion
3 8 14 15 hydrophobe
6 16 18 19 20 21 22 rings

>  <PUBCHEM_HEAVY_ATOM_COUNT>  (1) 
22

>  <PUBCHEM_ATOM_DEF_STEREO_COUNT>  (1) 
0

>  <PUBCHEM_ATOM_UDEF_STEREO_COUNT>  (1) 
3

>  <PUBCHEM_BOND_DEF_STEREO_COUNT>  (1) 
0

>  <PUBCHEM_BOND_UDEF_STEREO_COUNT>  (1) 
0

>  <PUBCHEM_ISOTOPIC_ATOM_COUNT>  (1) 
0

>  <PUBCHEM_COMPONENT_COUNT>  (1) 
1

>  <PUBCHEM_CACTVS_TAUTO_COUNT>  (1) 
2

>  <PUBCHEM_CONFORMER_ID>  (1) 
00000CA600000001

>  <PUBCHEM_MMFF94_ENERGY>  (1) 
42.7621

>  <PUBCHEM_FEATURE_SELFOVERLAP>  (1) 
55.892

>  <PUBCHEM_SHAPE_FINGERPRINT>  (1) 
10074138 170 16900419199019345608
10090160 65 18261398896594892324
10616163 171 18340489946035170415
10928967 22 18131347514368882935
12160290 23 16197343763837925432
12506688 2 18201432515562644731
12553582 1 17704069581995030823
12633257 1 17203613679469425975
12670546 177 17676486193923935397
12788726 201 17273141181145735673
12892183 10 12319155361435282741
13103583 49 16845028891398561411
13533116 47 17844520223187550207
13899415 180 17314787383228930862
14251757 17 17458347442122918523
14251764 30 17060355027572263086
14787075 74 18059012916509598612
15099037 8 18194120716109319120
15375462 189 18131071532601816079
15537594 2 18201445804613724687
18186145 218 16298391214734456345
20281475 54 18342175531725479569
20291156 8 18201436961228342331
20626108 58 17972020467153379082
21054139 6 18410576214946515814
21452121 199 18263065640063207560
21860390 5 8070036574979090202
22393880 68 18264780848496554462
235170 7 17603300462317261943
23557571 272 16805326608798490301
23559900 14 18263352595365505004
23598288 3 17844251726768616709
238 59 18260276239351577770
3052486 1 17978215381830915162
312425 83 17604982624791782677
351380 180 9295296006339780003
3737641 26 18200890503633138639
3797600 57 18131072615097118518
4280585 95 17759521063341926374
46194498 28 17531810302568612951
6913067 236 18336534002288881976

>  <PUBCHEM_SHAPE_MULTIPOLES>  (1) 
419.31
9.42
3.29
1.57
3.05
1.34
0.38
3.93
-2.67
-1.86
0.19
0.12
-0.28
-1.03

>  <PUBCHEM_SHAPE_SELFOVERLAP>  (1) 
846.776

>  <PUBCHEM_SHAPE_VOLUME>  (1) 
243.9

>  <PUBCHEM_COORDINATE_TYPE>  (1) 
2
5
10

$$$$
