32388
     RDKit          3D

 16 18  0  0  0  0  0  0  0  0999 V2000
    3.2286   -1.8856    0.0004 N   0  0  0  0  0  0  0  0  0  0  0  0
   -0.0856    0.7264   -0.0002 C   0  0  0  0  0  0  0  0  0  0  0  0
    1.0058   -0.1575    0.0002 C   0  0  0  0  0  0  0  0  0  0  0  0
    2.3144    0.3680    0.0001 C   0  0  0  0  0  0  0  0  0  0  0  0
   -1.4623    0.2604   -0.0004 C   0  0  0  0  0  0  0  0  0  0  0  0
    0.1189    2.1073   -0.0007 C   0  0  0  0  0  0  0  0  0  0  0  0
    2.5086    1.7592   -0.0004 C   0  0  0  0  0  0  0  0  0  0  0  0
    0.8336   -1.5465    0.0005 C   0  0  0  0  0  0  0  0  0  0  0  0
    1.4131    2.6226   -0.0008 C   0  0  0  0  0  0  0  0  0  0  0  0
   -2.1167    0.0381   -1.2083 C   0  0  0  0  0  0  0  0  0  0  0  0
   -2.1171    0.0415    1.2077 C   0  0  0  0  0  0  0  0  0  0  0  0
    3.3739   -0.5414    0.0005 C   0  0  0  0  0  0  0  0  0  0  0  0
    1.9618   -2.3525    0.0004 C   0  0  0  0  0  0  0  0  0  0  0  0
   -3.4385   -0.4072   -1.2077 C   0  0  0  0  0  0  0  0  0  0  0  0
   -3.4389   -0.4041    1.2082 C   0  0  0  0  0  0  0  0  0  0  0  0
   -4.0997   -0.6286    0.0004 C   0  0  0  0  0  0  0  0  0  0  0  0
  1 12  2  0
  1 13  1  0
  2  3  1  0
  2  5  1  0
  2  6  2  0
  3  4  2  0
  3  8  1  0
  4  7  1  0
  4 12  1  0
  5 10  2  0
  5 11  1  0
  6  9  1  0
  7  9  2  0
  8 13  2  0
 10 14  1  0
 11 15  2  0
 14 16  2  0
 15 16  1  0
M  END
>  <PUBCHEM_COMPOUND_CID>  (1) 
32388

>  <PUBCHEM_CONFORMER_RMSD>  (1) 
0.6

>  <PUBCHEM_CONFORMER_DIVERSEORDER>  (1) 
1

>  <PUBCHEM_MMFF94_PARTIAL_CHARGES>  (1) 
23
1 -0.62
10 -0.15
11 -0.15
12 0.16
13 0.16
14 -0.15
15 -0.15
16 -0.15
17 0.15
18 0.15
19 0.15
20 0.15
21 0.15
22 0.15
23 0.15
24 0.15
25 0.15
26 0.15
27 0.15
6 -0.15
7 -0.15
8 -0.15
9 -0.15

>  <PUBCHEM_EFFECTIVE_ROTOR_COUNT>  (1) 
1

>  <PUBCHEM_PHARMACOPHORE_FEATURES>  (1) 
4
1 1 acceptor
6 1 3 4 8 12 13 rings
6 2 3 4 6 7 9 rings
6 5 10 11 14 15 16 rings

>  <PUBCHEM_HEAVY_ATOM_COUNT>  (1) 
16

>  <PUBCHEM_ATOM_DEF_STEREO_COUNT>  (1) 
0

>  <PUBCHEM_ATOM_UDEF_STEREO_COUNT>  (1) 
0

>  <PUBCHEM_BOND_DEF_STEREO_COUNT>  (1) 
0

>  <PUBCHEM_BOND_UDEF_STEREO_COUNT>  (1) 
0

>  <PUBCHEM_ISOTOPIC_ATOM_COUNT>  (1) 
0

>  <PUBCHEM_COMPONENT_COUNT>  (1) 
1

>  <PUBCHEM_CACTVS_TAUTO_COUNT>  (1) 
1

>  <PUBCHEM_CONFORMER_ID>  (1) 
00007E8400000001

>  <PUBCHEM_MMFF94_ENERGY>  (1) 
56.2114

>  <PUBCHEM_FEATURE_SELFOVERLAP>  (1) 
20.324

>  <PUBCHEM_SHAPE_FINGERPRINT>  (1) 
10967382 1 18338517542507708356
10980938 120 18339361967200619412
11471102 20 18409727391384329485
11582403 64 16456224107747966349
12202030 40 17532392987622504483
12236239 1 17703793647673766473
12553582 1 18267590113121438102
13140716 1 18194959880089499232
13296908 3 18260827085944487079
13538477 17 17417809616806369631
13862211 1 18410570670291715146
14251717 144 18411415146006827383
15219456 202 18113897204036449717
15279307 12 17986109832183804495
15375462 189 17988646332689630003
15442244 35 18268997483926191721
15501101 241 18333454261059620317
16945 1 18410574024012105988
1813 80 18058466308938277294
18186145 218 18270405017385703933
19049666 15 17968648329309737597
19422 9 17917433163545027583
200 152 18272925029865430063
20201158 50 18259985963675615235
20361792 2 18342171120667401127
204376 136 18050002500261387288
20645477 70 18336254721918815631
20871998 22 18199476454575914782
21639500 275 18339354296425945597
21730867 7 18334294313718059639
22112679 90 17346319323402680753
221490 88 18263931097179747083
22445834 79 18273220802529871233
2255824 54 18341617078624020068
22802520 49 18114169805563637789
2334 1 17834113422180029556
23388829 49 18272369750222686304
23419403 2 14859411951608828290
23559900 14 16877936123150286330
23598291 2 18060144253644454845
23728640 28 16318079873011101819
2748010 2 18195798566890653940
33824 294 18336826514761447907
350125 39 17472425829417765648
458136 41 18046927122998362668
474 4 17556568078225999624
54173680 148 17545883729128896258
581208 293 18340200890298633856
6049 1 17894912936436297061
7364860 26 18341048609605903328
77492 1 17703794755738490021
81228 2 17689429391397899000
8272917 22 18412270553642959045
84936 182 17915738893183511105
9981440 41 15546266214236700952

>  <PUBCHEM_SHAPE_MULTIPOLES>  (1) 
324.29
6.33
2.31
0.98
3.68
0.4
0
-1.99
0
-2.58
0
1.03
-0.04
0

>  <PUBCHEM_SHAPE_SELFOVERLAP>  (1) 
728.436

>  <PUBCHEM_SHAPE_VOLUME>  (1) 
169.7

>  <PUBCHEM_COORDINATE_TYPE>  (1) 
2
5
10

$$$$
