32394
     RDKit          3D

 16 18  0  0  0  0  0  0  0  0999 V2000
    3.1772   -1.9101    0.3722 N   0  0  0  0  0  0  0  0  0  0  0  0
    0.9952   -0.1232   -0.0212 C   0  0  0  0  0  0  0  0  0  0  0  0
    0.7668   -1.6128    0.0147 C   0  0  0  0  0  0  0  0  0  0  0  0
    2.3033    0.3925   -0.0012 C   0  0  0  0  0  0  0  0  0  0  0  0
    2.0169   -2.4087   -0.3651 C   0  0  0  0  0  0  0  0  0  0  0  0
    3.4927   -0.5357   -0.0344 C   0  0  0  0  0  0  0  0  0  0  0  0
   -0.0963    0.7547   -0.0153 C   0  0  0  0  0  0  0  0  0  0  0  0
    2.4987    1.7800   -0.0130 C   0  0  0  0  0  0  0  0  0  0  0  0
   -1.4658    0.2754    0.0006 C   0  0  0  0  0  0  0  0  0  0  0  0
    0.1096    2.1340   -0.0161 C   0  0  0  0  0  0  0  0  0  0  0  0
    1.4053    2.6460   -0.0173 C   0  0  0  0  0  0  0  0  0  0  0  0
   -2.1348    0.0478   -1.1996 C   0  0  0  0  0  0  0  0  0  0  0  0
   -2.1046    0.0432    1.2162 C   0  0  0  0  0  0  0  0  0  0  0  0
   -3.4506   -0.4150   -1.1840 C   0  0  0  0  0  0  0  0  0  0  0  0
   -3.4203   -0.4195    1.2317 C   0  0  0  0  0  0  0  0  0  0  0  0
   -4.0934   -0.6488    0.0316 C   0  0  0  0  0  0  0  0  0  0  0  0
  1  5  1  0
  1  6  1  0
  2  3  1  0
  2  4  2  0
  2  7  1  0
  3  5  1  0
  4  6  1  0
  4  8  1  0
  7  9  1  0
  7 10  2  0
  8 11  2  0
  9 12  2  0
  9 13  1  0
 10 11  1  0
 12 14  1  0
 13 15  2  0
 14 16  2  0
 15 16  1  0
M  END
>  <PUBCHEM_COMPOUND_CID>  (1) 
32394

>  <PUBCHEM_CONFORMER_RMSD>  (1) 
0.6

>  <PUBCHEM_CONFORMER_DIVERSEORDER>  (1) 
1

>  <PUBCHEM_MMFF94_PARTIAL_CHARGES>  (1) 
23
1 -0.9
10 -0.15
11 -0.15
12 -0.15
13 -0.15
14 -0.15
15 -0.15
16 -0.15
2 -0.14
23 0.36
24 0.15
25 0.15
26 0.15
27 0.15
28 0.15
29 0.15
3 0.14
30 0.15
31 0.15
4 -0.14
5 0.27
6 0.41
8 -0.15

>  <PUBCHEM_EFFECTIVE_ROTOR_COUNT>  (1) 
1.8

>  <PUBCHEM_PHARMACOPHORE_FEATURES>  (1) 
5
1 1 cation
1 1 donor
6 1 2 3 4 5 6 rings
6 2 4 7 8 10 11 rings
6 9 12 13 14 15 16 rings

>  <PUBCHEM_HEAVY_ATOM_COUNT>  (1) 
16

>  <PUBCHEM_ATOM_DEF_STEREO_COUNT>  (1) 
0

>  <PUBCHEM_ATOM_UDEF_STEREO_COUNT>  (1) 
0

>  <PUBCHEM_BOND_DEF_STEREO_COUNT>  (1) 
0

>  <PUBCHEM_BOND_UDEF_STEREO_COUNT>  (1) 
0

>  <PUBCHEM_ISOTOPIC_ATOM_COUNT>  (1) 
0

>  <PUBCHEM_COMPONENT_COUNT>  (1) 
1

>  <PUBCHEM_CACTVS_TAUTO_COUNT>  (1) 
1

>  <PUBCHEM_CONFORMER_ID>  (1) 
00007E8A00000001

>  <PUBCHEM_MMFF94_ENERGY>  (1) 
46.4788

>  <PUBCHEM_FEATURE_SELFOVERLAP>  (1) 
25.393

>  <PUBCHEM_SHAPE_FINGERPRINT>  (1) 
10967382 1 18410855507731530676
10980938 120 18339644537393964564
11471102 20 18410008874940464221
11471102 22 18408610274564158113
11582403 64 16384166513704770189
116883 192 18194396684843381197
12202030 40 17604450581660451883
12236239 1 17703793647684315969
12363563 72 18263083210780177306
12553582 1 18340211782467883654
13140716 1 18194960975295590696
13296908 3 17967533484558875219
13538477 17 17345752022778984693
13862211 1 18410852149552830622
14251717 144 18411696620962439055
15219456 202 18113615729059752061
15279307 12 17986673877390822567
15309172 13 18121503719692650833
15375462 189 17988927807682197371
15501101 241 18333454261059639828
16945 1 18410856602758501468
1813 80 18058184833956304862
18186145 218 18270967971649962269
19049666 15 17968367958134353765
19422 9 17917715746633785175
200 152 18272925034181470391
20201158 50 18260267438657587635
20361792 2 18341890745186480999
204376 136 18050003599767740304
20645477 70 18336254726192657927
20871998 22 18198913508891060990
21639500 275 18339354296441763349
22112679 90 17346600798384666137
221490 88 18263648522712507643
22445834 79 18201444683484465193
2255824 54 18269560592692994204
22802520 49 18114452384352231261
2334 1 17834394897172564492
23388829 49 18272369750264884304
23419403 2 14859692327063368154
23559900 14 16877935023659744610
23598291 2 18060425737205857845
23728640 28 16318362443241415667
2748010 2 18124024638241580692
33824 294 18337390568521412306
458136 41 18046927127240562964
474 4 17484791963449226129
581208 293 18340483469071396568
6049 1 17894349986498706493
7364860 26 18340767134534253648
77492 1 17703794760044032813
81228 2 17689714164883086736
8272917 22 18412270553648246797
84936 182 17915738893215166089
9981440 41 15546267313732491472

>  <PUBCHEM_SHAPE_MULTIPOLES>  (1) 
324.29
6.36
2.37
1
3.47
0.35
-0.01
-2.06
-0.14
-2.65
0.07
0.99
-0.08
-0.03

>  <PUBCHEM_SHAPE_SELFOVERLAP>  (1) 
711.662

>  <PUBCHEM_SHAPE_VOLUME>  (1) 
171.1

>  <PUBCHEM_COORDINATE_TYPE>  (1) 
2
5
10

$$$$
