32402
     RDKit          3D

 17 19  0  0  1  0  0  0  0  0999 V2000
   -3.9661   -0.8942   -0.7362 N   0  0  0  0  0  0  0  0  0  0  0  0
   -2.6097   -1.3915   -0.4376 C   0  0  0  0  0  0  0  0  0  0  0  0
   -1.5959   -0.2907   -0.1856 C   0  0  0  0  0  0  0  0  0  0  0  0
   -2.0140    1.0230    0.0954 C   0  0  0  0  0  0  0  0  0  0  0  0
   -3.4776    1.3799    0.0787 C   0  0  0  0  0  0  0  0  0  0  0  0
   -4.3801    0.1534    0.1988 C   0  0  0  0  0  0  0  0  0  0  0  0
   -0.2228   -0.5804   -0.2138 C   0  0  0  0  0  0  0  0  0  0  0  0
   -2.6546   -2.3924    0.7232 C   0  0  0  0  0  0  0  0  0  0  0  0
   -1.0587    2.0220    0.3295 C   0  0  0  0  0  0  0  0  0  0  0  0
    0.7195    0.4187    0.0303 C   0  0  0  0  0  0  0  0  0  0  0  0
    0.3018    1.7188    0.3020 C   0  0  0  0  0  0  0  0  0  0  0  0
    2.1316    0.1060   -0.0007 C   0  0  0  0  0  0  0  0  0  0  0  0
    2.8428    0.2128   -1.1956 C   0  0  0  0  0  0  0  0  0  0  0  0
    2.7813   -0.3011    1.1642 C   0  0  0  0  0  0  0  0  0  0  0  0
    4.2046   -0.0877   -1.2258 C   0  0  0  0  0  0  0  0  0  0  0  0
    4.1431   -0.6016    1.1341 C   0  0  0  0  0  0  0  0  0  0  0  0
    4.8547   -0.4949   -0.0609 C   0  0  0  0  0  0  0  0  0  0  0  0
  1  2  1  0
  1  6  1  0
  2  3  1  0
  2  8  1  0
  3  4  2  0
  3  7  1  0
  4  5  1  0
  4  9  1  0
  5  6  1  0
  7 10  2  0
  9 11  2  0
 10 11  1  0
 10 12  1  0
 12 13  2  0
 12 14  1  0
 13 15  1  0
 14 16  2  0
 15 17  2  0
 16 17  1  0
M  END
>  <PUBCHEM_COMPOUND_CID>  (1) 
32402

>  <PUBCHEM_CONFORMER_RMSD>  (1) 
0.6

>  <PUBCHEM_CONFORMER_DIVERSEORDER>  (1) 
1
3
2

>  <PUBCHEM_MMFF94_PARTIAL_CHARGES>  (1) 
23
1 -0.9
11 -0.15
13 -0.15
14 -0.15
15 -0.15
16 -0.15
17 -0.15
2 0.41
23 0.36
24 0.15
28 0.15
29 0.15
3 -0.14
30 0.15
31 0.15
32 0.15
33 0.15
34 0.15
4 -0.14
5 0.14
6 0.27
7 -0.15
9 -0.15

>  <PUBCHEM_EFFECTIVE_ROTOR_COUNT>  (1) 
1.8

>  <PUBCHEM_PHARMACOPHORE_FEATURES>  (1) 
5
1 1 cation
1 1 donor
6 1 2 3 4 5 6 rings
6 12 13 14 15 16 17 rings
6 3 4 7 9 10 11 rings

>  <PUBCHEM_HEAVY_ATOM_COUNT>  (1) 
17

>  <PUBCHEM_ATOM_DEF_STEREO_COUNT>  (1) 
0

>  <PUBCHEM_ATOM_UDEF_STEREO_COUNT>  (1) 
1

>  <PUBCHEM_BOND_DEF_STEREO_COUNT>  (1) 
0

>  <PUBCHEM_BOND_UDEF_STEREO_COUNT>  (1) 
0

>  <PUBCHEM_ISOTOPIC_ATOM_COUNT>  (1) 
0

>  <PUBCHEM_COMPONENT_COUNT>  (1) 
1

>  <PUBCHEM_CACTVS_TAUTO_COUNT>  (1) 
1

>  <PUBCHEM_CONFORMER_ID>  (1) 
00007E9200000001

>  <PUBCHEM_MMFF94_ENERGY>  (1) 
46.3455

>  <PUBCHEM_FEATURE_SELFOVERLAP>  (1) 
25.393

>  <PUBCHEM_SHAPE_FINGERPRINT>  (1) 
10062212 137 18335136501165662551
10616163 171 18408888446869962122
11046707 91 18411698794316039609
11132069 177 18273214170973856469
11543360 7 16443346532588395519
12236239 1 17968098590886572380
12403814 3 17676488307264265821
12553582 1 18408884040317256425
13103583 49 17829086343839806475
13140716 1 18341897445636429145
13167823 11 17967534553974187418
13288520 33 18341614806359239806
13296908 3 17918273164574338052
13538477 17 18260831488344046224
13760787 19 17967535679049987986
13760787 5 17822011999314542989
13862211 1 18412539938524452575
14115302 16 18186524323221672726
14289901 80 16128649760636625592
14386348 63 17632580435589950054
15375358 24 17846777390633805974
15375462 189 18113894948803943506
15536298 74 18271522112794511376
15653759 3 18060134336628076800
15880784 105 16487248893761466478
16752209 62 18337098008471662827
16945 1 18412262805321789213
17804303 29 18343020012611609577
18186145 218 17821725074230029604
18915474 69 18186803603955612542
19141452 34 17418092152645563303
19422 9 18113620105573423870
19862831 5 17821729446601714758
200 152 17095240298455196220
20279233 1 17418094308471024350
20281475 54 18186515527192239850
20510252 161 17986955154546187385
21079973 296 18272368689571310624
21267235 1 18411426124265080227
22646028 1 18113616772710255810
22646028 28 18334010592890353522
22854114 59 15985101920729507118
2297311 6 18202012010051882676
23175994 123 16917351437273014505
232386 152 18411419539805837645
23366157 5 18044653337310938372
23402539 116 18343012264490588301
23402655 69 16805318877699004470
23557571 272 18130511834292397028
23559900 14 18201162053578160158
2748010 2 18197770205898183981
474 4 17459763712337767164
4921388 177 15647344090596849627
5104073 3 18342458183280584960
559249 180 18189327966562418202
573450 72 18335132055868970338
5902787 121 18339076094235374640
67856867 119 18188209922704901444
7364860 26 18057603381089125816
77492 1 17967536740360447756
81228 2 18129398011248139121
8809292 202 18337111262925348179
9709674 26 18343026549472966374

>  <PUBCHEM_SHAPE_MULTIPOLES>  (1) 
344.87
9.21
1.78
1.03
4.07
0.11
0.02
2.13
0.45
-1.97
-0.32
0.92
0.14
-0.31

>  <PUBCHEM_SHAPE_SELFOVERLAP>  (1) 
750.893

>  <PUBCHEM_SHAPE_VOLUME>  (1) 
186

>  <PUBCHEM_COORDINATE_TYPE>  (1) 
2
5
10

$$$$
