3241
     RDKit          3D

 19 22  0  0  1  0  0  0  0  0999 V2000
   -0.4582   -1.0870    0.2132 N   0  0  0  0  0  0  0  0  0  0  0  0
    0.6405   -3.0967    0.1273 N   0  0  0  0  0  0  0  0  0  0  0  0
   -0.9381   -2.6207   -1.5634 N   0  0  0  0  0  0  0  0  0  0  0  0
    0.6664   -0.8801    1.1184 C   0  0  0  0  0  0  0  0  0  0  0  0
    1.6458    0.0562    0.4401 C   0  0  0  0  0  0  0  0  0  0  0  0
    1.0958   -2.3463    1.3301 C   0  0  0  0  0  0  0  0  0  0  0  0
   -1.4929   -0.1426    0.0912 C   0  0  0  0  0  0  0  0  0  0  0  0
    1.2540    1.4026    0.2880 C   0  0  0  0  0  0  0  0  0  0  0  0
   -0.0493    1.8866    0.8776 C   0  0  0  0  0  0  0  0  0  0  0  0
   -1.3249    1.2438    0.3550 C   0  0  0  0  0  0  0  0  0  0  0  0
   -0.2764   -2.3118   -0.4085 C   0  0  0  0  0  0  0  0  0  0  0  0
    2.8720   -0.3559   -0.1018 C   0  0  0  0  0  0  0  0  0  0  0  0
    2.0967    2.3040   -0.3811 C   0  0  0  0  0  0  0  0  0  0  0  0
   -2.7867   -0.5715   -0.2879 C   0  0  0  0  0  0  0  0  0  0  0  0
   -2.4269    2.1185    0.2066 C   0  0  0  0  0  0  0  0  0  0  0  0
    3.7018    0.5506   -0.7647 C   0  0  0  0  0  0  0  0  0  0  0  0
    3.3152    1.8788   -0.9042 C   0  0  0  0  0  0  0  0  0  0  0  0
   -3.8583    0.3108   -0.4386 C   0  0  0  0  0  0  0  0  0  0  0  0
   -3.6764    1.6607   -0.1972 C   0  0  0  0  0  0  0  0  0  0  0  0
  1  4  1  0
  1  7  1  0
  1 11  1  0
  2  6  1  0
  2 11  2  0
  3 11  1  0
  4  5  1  0
  4  6  1  0
  5  8  2  0
  5 12  1  0
  7 10  2  0
  7 14  1  0
  8  9  1  0
  8 13  1  0
  9 10  1  0
 10 15  1  0
 12 16  2  0
 13 17  2  0
 14 18  2  0
 15 19  2  0
 16 17  1  0
 18 19  1  0
M  END
>  <PUBCHEM_COMPOUND_CID>  (1) 
3241

>  <PUBCHEM_CONFORMER_RMSD>  (1) 
0.6

>  <PUBCHEM_CONFORMER_DIVERSEORDER>  (1) 
1
3
2
4

>  <PUBCHEM_MMFF94_PARTIAL_CHARGES>  (1) 
29
1 -0.52
10 -0.14
11 0.55
12 -0.15
13 -0.15
14 -0.15
15 -0.15
16 -0.15
17 -0.15
18 -0.15
19 -0.15
2 -0.7
25 0.15
26 0.15
27 0.15
28 0.15
29 0.15
3 -0.85
30 0.15
31 0.15
32 0.15
33 0.4
34 0.4
4 0.51
5 -0.14
6 0.25
7 0.1
8 -0.14
9 0.29

>  <PUBCHEM_EFFECTIVE_ROTOR_COUNT>  (1) 
0.4

>  <PUBCHEM_PHARMACOPHORE_FEATURES>  (1) 
6
1 3 donor
4 1 2 3 11 cation
5 1 2 4 6 11 rings
6 5 8 12 13 16 17 rings
6 7 10 14 15 18 19 rings
7 1 4 5 7 8 9 10 rings

>  <PUBCHEM_HEAVY_ATOM_COUNT>  (1) 
19

>  <PUBCHEM_ATOM_DEF_STEREO_COUNT>  (1) 
0

>  <PUBCHEM_ATOM_UDEF_STEREO_COUNT>  (1) 
1

>  <PUBCHEM_BOND_DEF_STEREO_COUNT>  (1) 
0

>  <PUBCHEM_BOND_UDEF_STEREO_COUNT>  (1) 
0

>  <PUBCHEM_ISOTOPIC_ATOM_COUNT>  (1) 
0

>  <PUBCHEM_COMPONENT_COUNT>  (1) 
1

>  <PUBCHEM_CACTVS_TAUTO_COUNT>  (1) 
2

>  <PUBCHEM_CONFORMER_ID>  (1) 
00000CA900000001

>  <PUBCHEM_MMFF94_ENERGY>  (1) 
82.303

>  <PUBCHEM_FEATURE_SELFOVERLAP>  (1) 
30.51

>  <PUBCHEM_SHAPE_FINGERPRINT>  (1) 
10863032 1 17749113308946124722
10948715 1 18334017215429217700
10967382 1 18338515235873017129
12035759 4 18054801576242107800
12173636 292 18337390551531973677
12202030 40 14619651492953003597
12592029 89 18334865982666244809
12644460 14 18192726540082506945
13009979 54 17626101945380379355
13140716 1 18410851096700144865
13836976 161 18409722933519597293
14181834 199 17972041331587115717
14790565 3 18340220690694688665
15775835 57 18260833695651554260
16752209 62 18272358794151439421
16945 1 18260548874953121585
17134986 127 18335135401522224684
18186145 218 18411710884654700876
19591789 44 18267026252972248515
20645476 183 17896329175942295628
20645477 70 18263921030440874565
20905425 154 18052538768327029356
21501502 16 18194395598743864009
21524375 3 18334014994957434392
22802520 49 17766003079075263922
2334 1 17978502362791714323
23402539 116 18343294869270473076
23419403 2 17471634983972529954
23557571 272 17700121381995409450
238 59 17755823534169438973
25 1 18259988149787601520
2637199 183 18409741646280480236
2748010 2 15744435691508483433
298252 57 18410294722325731826
3060560 45 18334293149972281548
394222 165 18113614569313120376
4280585 95 17549828780838986582
53917941 68 18118113900065147740
6138700 20 18192721038514483862
7364860 26 18195245516330304673
81228 2 17619062176217828729
8272917 22 18194688060263014813
90525 40 18413109446259691845
9709674 26 18126011709272411844

>  <PUBCHEM_SHAPE_MULTIPOLES>  (1) 
376.07
5.56
3.28
1.05
1.33
1.64
-0.01
-3.36
-1.62
-0.43
-0.17
-0.23
0.38
-0.87

>  <PUBCHEM_SHAPE_SELFOVERLAP>  (1) 
840.976

>  <PUBCHEM_SHAPE_VOLUME>  (1) 
192.5

>  <PUBCHEM_COORDINATE_TYPE>  (1) 
2
5
10

$$$$
