32410
     RDKit          3D

 18 20  0  0  0  0  0  0  0  0999 V2000
    3.4473   -1.0317   -0.0006 N   0  0  0  0  0  0  0  0  0  0  0  0
    1.1726   -0.3537   -0.0001 C   0  0  0  0  0  0  0  0  0  0  0  0
    1.5920    0.9943    0.0002 C   0  0  0  0  0  0  0  0  0  0  0  0
    3.8754    0.2359   -0.0004 C   0  0  0  0  0  0  0  0  0  0  0  0
    2.1472   -1.3535   -0.0005 C   0  0  0  0  0  0  0  0  0  0  0  0
   -1.1462    0.3682    0.0004 C   0  0  0  0  0  0  0  0  0  0  0  0
    2.9628    1.2811    0.0002 C   0  0  0  0  0  0  0  0  0  0  0  0
   -0.1983   -0.6551    0.0000 C   0  0  0  0  0  0  0  0  0  0  0  0
    0.6241    2.0119    0.0008 C   0  0  0  0  0  0  0  0  0  0  0  0
   -0.7360    1.6990    0.0008 C   0  0  0  0  0  0  0  0  0  0  0  0
   -2.5570    0.0469    0.0004 C   0  0  0  0  0  0  0  0  0  0  0  0
    4.4185   -2.1268   -0.0008 C   0  0  0  0  0  0  0  0  0  0  0  0
    5.3394    0.5195    0.0008 C   0  0  0  0  0  0  0  0  0  0  0  0
   -3.2368   -0.1106    1.2082 C   0  0  0  0  0  0  0  0  0  0  0  0
   -3.2365   -0.1075   -1.2078 C   0  0  0  0  0  0  0  0  0  0  0  0
   -4.5963   -0.4224    1.2076 C   0  0  0  0  0  0  0  0  0  0  0  0
   -4.5962   -0.4190   -1.2084 C   0  0  0  0  0  0  0  0  0  0  0  0
   -5.2762   -0.5764   -0.0007 C   0  0  0  0  0  0  0  0  0  0  0  0
  1  4  2  0
  1  5  1  0
  1 12  1  0
  2  3  1  0
  2  5  2  0
  2  8  1  0
  3  7  2  0
  3  9  1  0
  4  7  1  0
  4 13  1  0
  6  8  2  0
  6 10  1  0
  6 11  1  0
  9 10  2  0
 11 14  2  0
 11 15  1  0
 14 16  1  0
 15 17  2  0
 16 18  2  0
 17 18  1  0
M  CHG  1   1   1
M  END
>  <PUBCHEM_COMPOUND_CID>  (1) 
32410

>  <PUBCHEM_CONFORMER_RMSD>  (1) 
0.6

>  <PUBCHEM_CONFORMER_DIVERSEORDER>  (1) 
1
2

>  <PUBCHEM_MMFF94_PARTIAL_CHARGES>  (1) 
24
1 -0.21
10 -0.15
12 0.49
13 0.14
14 -0.15
15 -0.15
16 -0.15
17 -0.15
18 -0.15
19 0.15
20 0.15
21 0.15
22 0.15
23 0.15
30 0.15
31 0.15
32 0.15
33 0.15
34 0.15
4 0.22
5 0.21
7 -0.15
8 -0.15
9 -0.15

>  <PUBCHEM_EFFECTIVE_ROTOR_COUNT>  (1) 
1

>  <PUBCHEM_PHARMACOPHORE_FEATURES>  (1) 
3
6 1 2 3 4 5 7 rings
6 11 14 15 16 17 18 rings
6 2 3 6 8 9 10 rings

>  <PUBCHEM_HEAVY_ATOM_COUNT>  (1) 
18

>  <PUBCHEM_ATOM_DEF_STEREO_COUNT>  (1) 
0

>  <PUBCHEM_ATOM_UDEF_STEREO_COUNT>  (1) 
0

>  <PUBCHEM_BOND_DEF_STEREO_COUNT>  (1) 
0

>  <PUBCHEM_BOND_UDEF_STEREO_COUNT>  (1) 
0

>  <PUBCHEM_ISOTOPIC_ATOM_COUNT>  (1) 
0

>  <PUBCHEM_COMPONENT_COUNT>  (1) 
1

>  <PUBCHEM_CACTVS_TAUTO_COUNT>  (1) 
1

>  <PUBCHEM_CONFORMER_ID>  (1) 
00007E9A00000001

>  <PUBCHEM_MMFF94_ENERGY>  (1) 
64.8199

>  <PUBCHEM_FEATURE_SELFOVERLAP>  (1) 
15.252

>  <PUBCHEM_SHAPE_FINGERPRINT>  (1) 
10912923 1 17561082522782272899
11287383 113 16877947173821570644
11471102 20 18408884057555160748
11796584 16 16732975410395307658
11806522 49 18410572885898442156
12032990 46 18334861593061909800
12107183 9 17340425730350123907
12236239 1 17775287179435570499
12596602 18 16988561337683981203
12670546 56 17489584580279064113
13134695 92 18341328976497356661
13140716 1 18123187072353407376
13544653 18 18408606941743538733
13760787 5 18412265042677776365
13862211 1 18411132533280651058
14252887 29 18201445757257996158
14386348 63 18040437711061017155
14573314 32 17530961363179537383
14576447 43 18200582713307169214
15196674 1 18338798914394790820
15375462 189 18130788970729451881
15788980 27 18409727357240687141
15961568 22 15792580819114150228
17357779 13 18114449115929494557
1813 80 18270696302015127444
18186145 218 17385723578095332513
18222031 100 18273205396134040286
19489759 90 16008744710571380533
200 152 18343298167620642393
20279233 1 17749110002116731755
20281475 54 18273209807160437815
20645477 70 18335979792245754846
21033648 29 18114165463414939893
21267235 1 18339649954075809566
21641784 216 18114479880896767956
221490 88 18118969328421702675
22646028 1 18060698394730617575
23175994 123 18113622292017895285
23402539 116 18272367559873761341
23559900 14 17676206862299435658
26918003 58 18187085070083737633
2871803 45 18187363195091530202
312423 11 18266753402331786780
314194 84 18342175574422237090
33824 294 18407757032694226706
34797466 226 16443360778979287351
465052 167 18342745121424410814
474 4 17700118091581664176
4990 188 17167579392806979072
5104073 3 18339638915756574136
5281201 14 17821447958486992725
542803 24 16988847193579814569
573450 72 17132115741055248075
602551 16 15267049393700494959
7495541 125 17240771738721720093
83771 10 18342174449166925953

>  <PUBCHEM_SHAPE_MULTIPOLES>  (1) 
365.45
11.27
1.65
0.94
1.86
0.1
0
-3.44
0
-1.85
0
1.29
-0.08
0

>  <PUBCHEM_SHAPE_SELFOVERLAP>  (1) 
810.869

>  <PUBCHEM_SHAPE_VOLUME>  (1) 
196.8

>  <PUBCHEM_COORDINATE_TYPE>  (1) 
2
5
10

$$$$
