32419
     RDKit          3D

 22 23  0  0  0  0  0  0  0  0999 V2000
    4.8552    0.1352   -1.4665 Cl  0  0  0  0  0  0  0  0  0  0  0  0
    4.4553    2.5800    0.0064 Cl  0  0  0  0  0  0  0  0  0  0  0  0
    4.8504    0.1187    1.4601 Cl  0  0  0  0  0  0  0  0  0  0  0  0
    1.1014   -3.3108    1.4650 Cl  0  0  0  0  0  0  0  0  0  0  0  0
   -1.3038   -2.7039   -0.0024 Cl  0  0  0  0  0  0  0  0  0  0  0  0
    1.1111   -3.3090   -1.4616 Cl  0  0  0  0  0  0  0  0  0  0  0  0
   -0.7568    2.4825    0.0034 S   0  0  0  0  0  0  0  0  0  0  0  0
   -0.0300   -0.0856    0.0013 N   0  0  0  0  0  0  0  0  0  0  0  0
    1.7388    1.5360    0.0017 N   0  0  0  0  0  0  0  0  0  0  0  0
    2.2587   -0.8066   -0.0029 N   0  0  0  0  0  0  0  0  0  0  0  0
   -2.2804    1.5582    0.0014 C   0  0  0  0  0  0  0  0  0  0  0  0
   -4.6660    0.1119   -0.0017 C   0  0  0  0  0  0  0  0  0  0  0  0
    0.4508    1.1654    0.0029 C   0  0  0  0  0  0  0  0  0  0  0  0
   -2.8777    1.1951    1.2086 C   0  0  0  0  0  0  0  0  0  0  0  0
   -2.8761    1.1981   -1.2075 C   0  0  0  0  0  0  0  0  0  0  0  0
    0.9331   -1.0212   -0.0014 C   0  0  0  0  0  0  0  0  0  0  0  0
    2.5874    0.4953   -0.0010 C   0  0  0  0  0  0  0  0  0  0  0  0
   -4.0704    0.4719    1.2070 C   0  0  0  0  0  0  0  0  0  0  0  0
   -4.0689    0.4750   -1.2089 C   0  0  0  0  0  0  0  0  0  0  0  0
   -5.9407   -0.6621   -0.0035 C   0  0  0  0  0  0  0  0  0  0  0  0
    4.0426    0.8192   -0.0002 C   0  0  0  0  0  0  0  0  0  0  0  0
    0.4859   -2.4435   -0.0003 C   0  0  0  0  0  0  0  0  0  0  0  0
  1 21  1  0
  2 21  1  0
  3 21  1  0
  4 22  1  0
  5 22  1  0
  6 22  1  0
  7 11  1  0
  7 13  1  0
  8 13  2  0
  8 16  1  0
  9 13  1  0
  9 17  2  0
 10 16  2  0
 10 17  1  0
 11 14  2  0
 11 15  1  0
 12 18  2  0
 12 19  1  0
 12 20  1  0
 14 18  1  0
 15 19  2  0
 16 22  1  0
 17 21  1  0
M  END
>  <PUBCHEM_COMPOUND_CID>  (1) 
32419

>  <PUBCHEM_CONFORMER_RMSD>  (1) 
0.6

>  <PUBCHEM_CONFORMER_DIVERSEORDER>  (1) 
1
6
27
25
23
21
22
14
28
7
15
11
17
18
19
29
12
36
5
33
32
31
8
30
34
35
4
26
13
9
24
20
3
2
10
16

>  <PUBCHEM_MMFF94_PARTIAL_CHARGES>  (1) 
26
1 -0.29
10 -0.62
11 0.1
12 -0.14
13 0.72
14 -0.15
15 -0.15
16 0.48
17 0.48
18 -0.15
19 -0.15
2 -0.29
20 0.14
21 1.01
22 1.01
23 0.15
24 0.15
25 0.15
26 0.15
3 -0.29
4 -0.29
5 -0.29
6 -0.29
7 -0.2
8 -0.62
9 -0.62

>  <PUBCHEM_EFFECTIVE_ROTOR_COUNT>  (1) 
4

>  <PUBCHEM_PHARMACOPHORE_FEATURES>  (1) 
5
3 8 10 16 cation
3 8 9 13 cation
3 9 10 17 cation
6 11 12 14 15 18 19 rings
6 8 9 10 13 16 17 rings

>  <PUBCHEM_HEAVY_ATOM_COUNT>  (1) 
22

>  <PUBCHEM_ATOM_DEF_STEREO_COUNT>  (1) 
0

>  <PUBCHEM_ATOM_UDEF_STEREO_COUNT>  (1) 
0

>  <PUBCHEM_BOND_DEF_STEREO_COUNT>  (1) 
0

>  <PUBCHEM_BOND_UDEF_STEREO_COUNT>  (1) 
0

>  <PUBCHEM_ISOTOPIC_ATOM_COUNT>  (1) 
0

>  <PUBCHEM_COMPONENT_COUNT>  (1) 
1

>  <PUBCHEM_CACTVS_TAUTO_COUNT>  (1) 
1

>  <PUBCHEM_CONFORMER_ID>  (1) 
00007EA300000001

>  <PUBCHEM_MMFF94_ENERGY>  (1) 
44.167

>  <PUBCHEM_FEATURE_SELFOVERLAP>  (1) 
28.155

>  <PUBCHEM_SHAPE_FINGERPRINT>  (1) 
10090160 65 18407757045041019245
10906281 52 18041861535996972169
1100329 8 18267019651291087865
11488393 25 17843706377570595742
11578080 2 17243577477673626005
12236239 1 17775571948837372193
12592029 89 18334009467434829586
12596602 18 17203613705334065337
12839892 36 18264471936941826154
13052359 8 18262235646128647298
13083527 12 18044358440460688266
13140716 1 18266735959910669209
13257819 37 18189921823401182622
13402501 40 18261960751648411187
13583140 156 17240483645506718952
13911987 19 18261115205056841925
14178342 30 18053376605141839520
14787075 74 18201999971010950521
14790565 3 18412271652670258033
14863182 85 18338811047450607743
15209289 33 18131350834341178737
17349148 13 18335703823453989024
19591789 44 18266463109755757342
200 152 18413103966451484993
20028762 73 18201717392090462559
204376 136 18409449214910899056
20567600 347 18410299081833958454
20645477 70 18195518208594780597
21236236 1 18268428121264642622
21344244 181 17774457047777507126
21521721 280 18340211911422534401
21524375 3 18412258437413720402
22393880 68 18193841440050245949
22956985 138 17826221892321214682
23557571 272 16660925461710526165
23558518 356 17901109620287224081
23559900 14 17902214633830941953
3052486 1 18189628304887877886
33824 294 18408886209497332451
352729 6 18339089275806452072
469060 322 17532354552023853151
474229 33 18410572911414966913
5486654 2 18411985792689544165
58260988 647 16557932034262145830
59755656 215 18412554210052171359
633830 44 18201445748557785580
6669772 16 18413110559374016998
81228 2 17905314483817222776
9709674 26 17977377240511705973

>  <PUBCHEM_SHAPE_MULTIPOLES>  (1) 
452.87
10.65
3.54
1.31
3.16
2.98
0
-4.17
-0.01
-1.63
0
-0.34
0.45
0

>  <PUBCHEM_SHAPE_SELFOVERLAP>  (1) 
882.301

>  <PUBCHEM_SHAPE_VOLUME>  (1) 
274.1

>  <PUBCHEM_COORDINATE_TYPE>  (1) 
2
5
10

$$$$
