32417
     RDKit          3D

 22 23  0  0  0  0  0  0  0  0999 V2000
    4.6313    0.4397   -1.4922 Cl  0  0  0  0  0  0  0  0  0  0  0  0
    4.1318    2.7386    0.1727 Cl  0  0  0  0  0  0  0  0  0  0  0  0
    4.7265    0.2071    1.4237 Cl  0  0  0  0  0  0  0  0  0  0  0  0
    1.1977   -3.4458    1.2780 Cl  0  0  0  0  0  0  0  0  0  0  0  0
   -1.2884   -2.8871   -0.0687 Cl  0  0  0  0  0  0  0  0  0  0  0  0
    1.1083   -3.2276   -1.6391 Cl  0  0  0  0  0  0  0  0  0  0  0  0
   -1.0615    2.3090    0.3140 S   0  0  0  0  0  0  0  0  0  0  0  0
   -0.1786   -0.2002    0.0963 N   0  0  0  0  0  0  0  0  0  0  0  0
    1.4861    1.5264    0.1680 N   0  0  0  0  0  0  0  0  0  0  0  0
    2.1485   -0.7713   -0.0291 N   0  0  0  0  0  0  0  0  0  0  0  0
   -3.1661    0.9515   -0.9087 C   0  0  0  0  0  0  0  0  0  0  0  0
   -2.5263    1.2830    0.2858 C   0  0  0  0  0  0  0  0  0  0  0  0
    0.2231    1.0762    0.1787 C   0  0  0  0  0  0  0  0  0  0  0  0
   -3.0272    0.8117    1.4993 C   0  0  0  0  0  0  0  0  0  0  0  0
   -4.3066    0.1486   -0.8893 C   0  0  0  0  0  0  0  0  0  0  0  0
    0.8395   -1.0697   -0.0054 C   0  0  0  0  0  0  0  0  0  0  0  0
    2.3965    0.5452    0.0618 C   0  0  0  0  0  0  0  0  0  0  0  0
   -2.6689    1.4322   -2.2347 C   0  0  0  0  0  0  0  0  0  0  0  0
   -4.1676    0.0088    1.5186 C   0  0  0  0  0  0  0  0  0  0  0  0
   -4.8073   -0.3227    0.3244 C   0  0  0  0  0  0  0  0  0  0  0  0
    3.8283    0.9604    0.0448 C   0  0  0  0  0  0  0  0  0  0  0  0
    0.4809   -2.5138   -0.0989 C   0  0  0  0  0  0  0  0  0  0  0  0
  1 21  1  0
  2 21  1  0
  3 21  1  0
  4 22  1  0
  5 22  1  0
  6 22  1  0
  7 12  1  0
  7 13  1  0
  8 13  2  0
  8 16  1  0
  9 13  1  0
  9 17  2  0
 10 16  2  0
 10 17  1  0
 11 12  2  0
 11 15  1  0
 11 18  1  0
 12 14  1  0
 14 19  2  0
 15 20  2  0
 16 22  1  0
 17 21  1  0
 19 20  1  0
M  END
>  <PUBCHEM_COMPOUND_CID>  (1) 
32417

>  <PUBCHEM_CONFORMER_RMSD>  (1) 
0.6

>  <PUBCHEM_CONFORMER_DIVERSEORDER>  (1) 
1
33
60
65
11
24
51
14
48
45
66
58
57
69
34
46
52
13
67
31
35
38
50
2
47
59
70
63
64
12
23
56
37
55
62
68
36
61
27
54
28
4
10
49
9
17
21
32
53
44
25
40
3
29
16
15
7
8
39
26
20
5
30
18
6
43
22
19
42
41

>  <PUBCHEM_MMFF94_PARTIAL_CHARGES>  (1) 
26
1 -0.29
10 -0.62
11 -0.14
12 0.1
13 0.72
14 -0.15
15 -0.15
16 0.48
17 0.48
18 0.14
19 -0.15
2 -0.29
20 -0.15
21 1.01
22 1.01
23 0.15
24 0.15
28 0.15
29 0.15
3 -0.29
4 -0.29
5 -0.29
6 -0.29
7 -0.2
8 -0.62
9 -0.62

>  <PUBCHEM_EFFECTIVE_ROTOR_COUNT>  (1) 
4

>  <PUBCHEM_PHARMACOPHORE_FEATURES>  (1) 
5
3 8 10 16 cation
3 8 9 13 cation
3 9 10 17 cation
6 11 12 14 15 19 20 rings
6 8 9 10 13 16 17 rings

>  <PUBCHEM_HEAVY_ATOM_COUNT>  (1) 
22

>  <PUBCHEM_ATOM_DEF_STEREO_COUNT>  (1) 
0

>  <PUBCHEM_ATOM_UDEF_STEREO_COUNT>  (1) 
0

>  <PUBCHEM_BOND_DEF_STEREO_COUNT>  (1) 
0

>  <PUBCHEM_BOND_UDEF_STEREO_COUNT>  (1) 
0

>  <PUBCHEM_ISOTOPIC_ATOM_COUNT>  (1) 
0

>  <PUBCHEM_COMPONENT_COUNT>  (1) 
1

>  <PUBCHEM_CACTVS_TAUTO_COUNT>  (1) 
1

>  <PUBCHEM_CONFORMER_ID>  (1) 
00007EA100000001

>  <PUBCHEM_MMFF94_ENERGY>  (1) 
46.1292

>  <PUBCHEM_FEATURE_SELFOVERLAP>  (1) 
28.152

>  <PUBCHEM_SHAPE_FINGERPRINT>  (1) 
10759866 29 17894632560913087834
11488393 25 18196097638269917662
11578080 2 17389106646340287013
121448 382 18200859768841438823
12236239 1 17489593376868094705
12592029 89 18334292050513148122
12788726 201 17763734791220336946
13052359 8 18263640826268140010
13140716 1 18267864063167305368
13224815 77 18338234869066486081
13583140 156 17458619051586364488
13911987 19 18335982059846309701
14787075 74 18059857319664402577
14790565 3 18341063985484192233
15209289 33 17988646332610775025
15238133 3 10231208112322177427
15309172 13 18410575097637996033
17349148 13 18343014472225052128
17980427 23 14129064716044853135
18186145 218 18343584049265798172
19591789 44 18339086965151080454
20028762 73 17916024758012411111
204376 136 18410575127649850680
20645477 70 18268983186074508887
21033648 29 18264190543602025568
21524375 3 18412822503995419602
23557571 272 17023471841710775861
23558518 356 17901951841904420992
23559900 14 17973147448869298923
23566358 27 17985846829850773767
238 59 18048564120161282151
352729 6 18340493356465868168
469060 322 17750782445402755783
474229 33 18411418444499376400
59755656 215 18409174281390984855
6287921 2 17630610011969344871
633830 44 18202572760829489732
6438718 38 17914898870647221446
6669772 16 18411985754715580718
81228 2 17689423206454848354

>  <PUBCHEM_SHAPE_MULTIPOLES>  (1) 
452.87
9.29
3.6
1.57
0.76
3.4
0.39
-4.7
-0.55
1.84
0.15
-0.43
0.16
0.36

>  <PUBCHEM_SHAPE_SELFOVERLAP>  (1) 
883.195

>  <PUBCHEM_SHAPE_VOLUME>  (1) 
274.3

>  <PUBCHEM_COORDINATE_TYPE>  (1) 
2
5
10

$$$$
