32411
     RDKit          3D

 17 19  0  0  0  0  0  0  0  0999 V2000
    1.8884   -2.3123    0.0892 N   0  0  0  0  0  0  0  0  0  0  0  0
    1.0534   -0.0189   -0.0940 C   0  0  0  0  0  0  0  0  0  0  0  0
    2.3538    0.5007   -0.0675 C   0  0  0  0  0  0  0  0  0  0  0  0
    3.5112   -0.4499   -0.1456 C   0  0  0  0  0  0  0  0  0  0  0  0
   -0.0512    0.8340   -0.0509 C   0  0  0  0  0  0  0  0  0  0  0  0
    3.1498   -1.7424    0.5745 C   0  0  0  0  0  0  0  0  0  0  0  0
    0.9249   -1.4958   -0.1845 C   0  0  0  0  0  0  0  0  0  0  0  0
    2.5429    1.8847   -0.0236 C   0  0  0  0  0  0  0  0  0  0  0  0
   -1.4328    0.4021    0.0169 C   0  0  0  0  0  0  0  0  0  0  0  0
    0.1477    2.2140    0.0089 C   0  0  0  0  0  0  0  0  0  0  0  0
    1.4406    2.7384    0.0194 C   0  0  0  0  0  0  0  0  0  0  0  0
   -0.3938   -2.0854   -0.6235 C   0  0  0  0  0  0  0  0  0  0  0  0
   -2.1748    0.2583   -1.1540 C   0  0  0  0  0  0  0  0  0  0  0  0
   -2.0166    0.1336    1.2536 C   0  0  0  0  0  0  0  0  0  0  0  0
   -3.5053   -0.1555   -1.0878 C   0  0  0  0  0  0  0  0  0  0  0  0
   -3.3469   -0.2805    1.3197 C   0  0  0  0  0  0  0  0  0  0  0  0
   -4.0914   -0.4251    0.1489 C   0  0  0  0  0  0  0  0  0  0  0  0
  1  6  1  0
  1  7  2  0
  2  3  2  0
  2  5  1  0
  2  7  1  0
  3  4  1  0
  3  8  1  0
  4  6  1  0
  5  9  1  0
  5 10  2  0
  7 12  1  0
  8 11  2  0
  9 13  2  0
  9 14  1  0
 10 11  1  0
 13 15  1  0
 14 16  2  0
 15 17  2  0
 16 17  1  0
M  END
>  <PUBCHEM_COMPOUND_CID>  (1) 
32411

>  <PUBCHEM_CONFORMER_RMSD>  (1) 
0.6

>  <PUBCHEM_CONFORMER_DIVERSEORDER>  (1) 
1

>  <PUBCHEM_MMFF94_PARTIAL_CHARGES>  (1) 
23
1 -0.7
10 -0.15
11 -0.15
12 0.06
13 -0.15
14 -0.15
15 -0.15
16 -0.15
17 -0.15
2 0.09
22 0.15
23 0.15
24 0.15
28 0.15
29 0.15
3 -0.14
30 0.15
31 0.15
32 0.15
4 0.14
6 0.25
7 0.3
8 -0.15

>  <PUBCHEM_EFFECTIVE_ROTOR_COUNT>  (1) 
1.4

>  <PUBCHEM_PHARMACOPHORE_FEATURES>  (1) 
4
1 1 acceptor
6 1 2 3 4 6 7 rings
6 2 3 5 8 10 11 rings
6 9 13 14 15 16 17 rings

>  <PUBCHEM_HEAVY_ATOM_COUNT>  (1) 
17

>  <PUBCHEM_ATOM_DEF_STEREO_COUNT>  (1) 
0

>  <PUBCHEM_ATOM_UDEF_STEREO_COUNT>  (1) 
0

>  <PUBCHEM_BOND_DEF_STEREO_COUNT>  (1) 
0

>  <PUBCHEM_BOND_UDEF_STEREO_COUNT>  (1) 
0

>  <PUBCHEM_ISOTOPIC_ATOM_COUNT>  (1) 
0

>  <PUBCHEM_COMPONENT_COUNT>  (1) 
1

>  <PUBCHEM_CACTVS_TAUTO_COUNT>  (1) 
1

>  <PUBCHEM_CONFORMER_ID>  (1) 
00007E9B00000001

>  <PUBCHEM_MMFF94_ENERGY>  (1) 
68.5316

>  <PUBCHEM_FEATURE_SELFOVERLAP>  (1) 
20.322

>  <PUBCHEM_SHAPE_FINGERPRINT>  (1) 
104564 63 18197224637561313108
10967382 1 18411134779379579468
10980938 120 18410293652826107696
11471102 20 18410008862060876085
11471102 22 18408612452202215491
11582403 64 16455379665627441733
12202030 40 17459212779332860259
12236239 1 17704074006064488229
12553582 1 18339929207984696470
13134695 92 18334570222601998556
13140716 1 18195242441645456464
13172582 1 18343303660567322382
13862211 1 18411133611576087150
14178342 30 17910945074067777776
14251717 144 18412260661969350911
14790565 3 18339379521233826188
15219456 202 18113898286399863309
15309172 13 18193562391841197121
16945 1 18411136956811953956
1813 80 17986690177013302598
18186145 218 18272093850145239485
19049666 15 17968369053335254885
200 152 18272925021296581501
204376 136 18121780805429296704
20645477 70 18409158926998751511
21639500 275 18339352075948907189
22112679 90 17346597499876182481
221490 88 18263648518443855635
2255824 54 18341055228187618180
22854114 111 18338518641734590533
23184049 59 18413390938247336570
2334 1 17906732853795980700
23388829 49 18272087158470056672
23463225 33 18412265008291560142
23559900 14 16950278477688422714
23728640 28 16101627802196104579
2748010 2 18052531067888277150
31174 14 18262247702243817137
3286 77 18333450950093327271
33824 294 18337109089328875137
350125 39 17617102842123315784
58807428 26 18123449834474159872
7364860 26 18340767130439733384
77492 1 17704075118339835013
81228 2 17618222802032261928
8272917 22 18342468019504557341
9981440 41 15690101018289194344

>  <PUBCHEM_SHAPE_MULTIPOLES>  (1) 
344.87
6.12
2.48
1.01
3.01
0.42
-0.08
-1.2
-0.41
-2.35
0.05
0.9
-0.08
-0.16

>  <PUBCHEM_SHAPE_SELFOVERLAP>  (1) 
762.837

>  <PUBCHEM_SHAPE_VOLUME>  (1) 
181

>  <PUBCHEM_COORDINATE_TYPE>  (1) 
2
5
10

$$$$
