32427
     RDKit          3D

 23 24  0  0  0  0  0  0  0  0999 V2000
   -4.4985   -0.6373   -2.0249 Cl  0  0  0  0  0  0  0  0  0  0  0  0
   -4.2946   -2.8104   -0.1427 Cl  0  0  0  0  0  0  0  0  0  0  0  0
   -5.1948   -0.2317    0.7886 Cl  0  0  0  0  0  0  0  0  0  0  0  0
   -1.7965    3.5408    1.1061 Cl  0  0  0  0  0  0  0  0  0  0  0  0
    0.9230    2.9900    0.3264 Cl  0  0  0  0  0  0  0  0  0  0  0  0
   -1.1144    3.1399   -1.7116 Cl  0  0  0  0  0  0  0  0  0  0  0  0
    2.5989   -0.0308    2.7063 Cl  0  0  0  0  0  0  0  0  0  0  0  0
    5.8750    0.4830   -1.5130 Cl  0  0  0  0  0  0  0  0  0  0  0  0
    0.7508   -2.1747    1.0133 S   0  0  0  0  0  0  0  0  0  0  0  0
   -2.4000    0.7534   -0.1736 N   0  0  0  0  0  0  0  0  0  0  0  0
   -0.1319    0.2804    0.4507 N   0  0  0  0  0  0  0  0  0  0  0  0
   -1.7326   -1.5012    0.3048 N   0  0  0  0  0  0  0  0  0  0  0  0
   -2.6277   -0.5639   -0.0462 C   0  0  0  0  0  0  0  0  0  0  0  0
   -1.1305    1.1025    0.0902 C   0  0  0  0  0  0  0  0  0  0  0  0
   -0.5090   -1.0037    0.5366 C   0  0  0  0  0  0  0  0  0  0  0  0
    2.2171   -1.3869    0.3495 C   0  0  0  0  0  0  0  0  0  0  0  0
   -4.0149   -1.0330   -0.3256 C   0  0  0  0  0  0  0  0  0  0  0  0
   -0.7944    2.5499   -0.0308 C   0  0  0  0  0  0  0  0  0  0  0  0
    2.9865   -0.4822    1.0811 C   0  0  0  0  0  0  0  0  0  0  0  0
    2.5795   -1.7137   -0.9573 C   0  0  0  0  0  0  0  0  0  0  0  0
    4.1181    0.0960    0.5057 C   0  0  0  0  0  0  0  0  0  0  0  0
    3.7108   -1.1356   -1.5325 C   0  0  0  0  0  0  0  0  0  0  0  0
    4.4802   -0.2307   -0.8011 C   0  0  0  0  0  0  0  0  0  0  0  0
  1 17  1  0
  2 17  1  0
  3 17  1  0
  4 18  1  0
  5 18  1  0
  6 18  1  0
  7 19  1  0
  8 23  1  0
  9 15  1  0
  9 16  1  0
 10 13  2  0
 10 14  1  0
 11 14  2  0
 11 15  1  0
 12 13  1  0
 12 15  2  0
 13 17  1  0
 14 18  1  0
 16 19  2  0
 16 20  1  0
 19 21  1  0
 20 22  2  0
 21 23  2  0
 22 23  1  0
M  END
>  <PUBCHEM_COMPOUND_CID>  (1) 
32427

>  <PUBCHEM_CONFORMER_RMSD>  (1) 
0.8

>  <PUBCHEM_CONFORMER_DIVERSEORDER>  (1) 
1
10
16
17
11
18
19
13
14
2
15
4
8
6
3
12
7
9
5

>  <PUBCHEM_MMFF94_PARTIAL_CHARGES>  (1) 
26
1 -0.29
10 -0.62
11 -0.62
12 -0.62
13 0.48
14 0.48
15 0.72
16 0.1
17 1.01
18 1.01
19 0.18
2 -0.29
20 -0.15
21 -0.15
22 -0.15
23 0.18
24 0.15
25 0.15
26 0.15
3 -0.29
4 -0.29
5 -0.29
6 -0.29
7 -0.18
8 -0.18
9 -0.2

>  <PUBCHEM_EFFECTIVE_ROTOR_COUNT>  (1) 
4

>  <PUBCHEM_PHARMACOPHORE_FEATURES>  (1) 
5
3 10 11 14 cation
3 10 12 13 cation
3 11 12 15 cation
6 10 11 12 13 14 15 rings
6 16 19 20 21 22 23 rings

>  <PUBCHEM_HEAVY_ATOM_COUNT>  (1) 
23

>  <PUBCHEM_ATOM_DEF_STEREO_COUNT>  (1) 
0

>  <PUBCHEM_ATOM_UDEF_STEREO_COUNT>  (1) 
0

>  <PUBCHEM_BOND_DEF_STEREO_COUNT>  (1) 
0

>  <PUBCHEM_BOND_UDEF_STEREO_COUNT>  (1) 
0

>  <PUBCHEM_ISOTOPIC_ATOM_COUNT>  (1) 
0

>  <PUBCHEM_COMPONENT_COUNT>  (1) 
1

>  <PUBCHEM_CACTVS_TAUTO_COUNT>  (1) 
1

>  <PUBCHEM_CONFORMER_ID>  (1) 
00007EAB00000001

>  <PUBCHEM_MMFF94_ENERGY>  (1) 
44.7189

>  <PUBCHEM_FEATURE_SELFOVERLAP>  (1) 
28.152

>  <PUBCHEM_SHAPE_FINGERPRINT>  (1) 
10366900 7 18272089405197076730
10369192 42 16627681916871128936
10498660 4 18336263440554700732
10670039 82 18261405412561304236
10871710 139 18261404294915485925
11640471 11 17240773830982534502
12166972 35 17458346342875002534
12236239 1 17312818290900123962
12553582 1 18409442588256441899
12788726 201 18334294232124536257
13009979 54 17825937136184123090
13140716 1 18264484168781760443
13899415 154 18336554892972399483
13911987 19 18187082883924785287
14787075 74 18188213207547488214
14790565 3 17834678193474884845
14955137 171 18269009707803971451
15849732 13 18131638868592461951
17357779 13 18341321249766301493
17492 54 18114755948709547140
1813 80 18408318913079218521
18222031 100 18200300130650973439
20197701 30 8718550480603812379
20642791 35 18411701019077762505
20715895 44 16736891746538806671
21304303 64 17385734599213802765
22907989 373 18266168436038896821
23352939 185 18272662250285539680
23402539 116 18411420617784918494
23557571 272 18342730780543913710
23558518 356 17754731629002798251
23559900 14 18270397329404871456
312423 11 18042969757507013186
3298306 158 17615694367775880708
350125 39 18047754797656507650
46194498 28 17846508054142327628
465052 167 13254792499242485295
469060 322 17750251239315319721
532947 4 18050846916216436753
6049 1 17702934838776867424
6287921 2 17558536169905969202
7164475 11 18189890916420971834
7399639 24 17988911293712285834
7615 1 17678732332991855962
81228 2 18337387120068914241

>  <PUBCHEM_SHAPE_MULTIPOLES>  (1) 
477.19
10.38
3.55
1.82
1.96
3.33
0.14
-4.45
-3.82
-2.59
0.02
1.06
0.19
-0.24

>  <PUBCHEM_SHAPE_SELFOVERLAP>  (1) 
918.442

>  <PUBCHEM_SHAPE_VOLUME>  (1) 
294

>  <PUBCHEM_COORDINATE_TYPE>  (1) 
2
5
10

$$$$
