32426
     RDKit          3D

 22 23  0  0  0  0  0  0  0  0999 V2000
   -4.8619    0.1105    1.4673 Cl  0  0  0  0  0  0  0  0  0  0  0  0
   -4.4807    2.5594   -0.0040 Cl  0  0  0  0  0  0  0  0  0  0  0  0
   -4.8625    0.0970   -1.4594 Cl  0  0  0  0  0  0  0  0  0  0  0  0
   -1.0879   -3.3140   -1.4637 Cl  0  0  0  0  0  0  0  0  0  0  0  0
    1.3112   -2.6885    0.0060 Cl  0  0  0  0  0  0  0  0  0  0  0  0
   -1.1017   -3.3067    1.4630 Cl  0  0  0  0  0  0  0  0  0  0  0  0
    6.1318   -0.7421    0.0030 Cl  0  0  0  0  0  0  0  0  0  0  0  0
    0.7340    2.4925   -0.0035 S   0  0  0  0  0  0  0  0  0  0  0  0
   -2.2633   -0.8132   -0.0021 N   0  0  0  0  0  0  0  0  0  0  0  0
    0.0214   -0.0797   -0.0009 N   0  0  0  0  0  0  0  0  0  0  0  0
   -1.7562    1.5322   -0.0016 N   0  0  0  0  0  0  0  0  0  0  0  0
   -2.5992    0.4870   -0.0020 C   0  0  0  0  0  0  0  0  0  0  0  0
   -0.9367   -1.0206   -0.0013 C   0  0  0  0  0  0  0  0  0  0  0  0
   -0.4662    1.1687   -0.0009 C   0  0  0  0  0  0  0  0  0  0  0  0
    2.2627    1.5765   -0.0016 C   0  0  0  0  0  0  0  0  0  0  0  0
   -4.0566    0.8013    0.0001 C   0  0  0  0  0  0  0  0  0  0  0  0
   -0.4801   -2.4398    0.0009 C   0  0  0  0  0  0  0  0  0  0  0  0
    2.8610    1.2157   -1.2088 C   0  0  0  0  0  0  0  0  0  0  0  0
    2.8609    1.2202    1.2071 C   0  0  0  0  0  0  0  0  0  0  0  0
    4.0573    0.4984   -1.2075 C   0  0  0  0  0  0  0  0  0  0  0  0
    4.0574    0.5030    1.2087 C   0  0  0  0  0  0  0  0  0  0  0  0
    4.6556    0.1422    0.0013 C   0  0  0  0  0  0  0  0  0  0  0  0
  1 16  1  0
  2 16  1  0
  3 16  1  0
  4 17  1  0
  5 17  1  0
  6 17  1  0
  7 22  1  0
  8 14  1  0
  8 15  1  0
  9 12  2  0
  9 13  1  0
 10 13  2  0
 10 14  1  0
 11 12  1  0
 11 14  2  0
 12 16  1  0
 13 17  1  0
 15 18  2  0
 15 19  1  0
 18 20  1  0
 19 21  2  0
 20 22  2  0
 21 22  1  0
M  END
>  <PUBCHEM_COMPOUND_CID>  (1) 
32426

>  <PUBCHEM_CONFORMER_RMSD>  (1) 
0.6

>  <PUBCHEM_CONFORMER_DIVERSEORDER>  (1) 
1
6
27
21
23
25
22
14
16
7
12
17
5
32
29
18
35
10
34
31
19
28
8
33
4
26
36
13
30
9
11
20
24
2
3
15

>  <PUBCHEM_MMFF94_PARTIAL_CHARGES>  (1) 
26
1 -0.29
10 -0.62
11 -0.62
12 0.48
13 0.48
14 0.72
15 0.1
16 1.01
17 1.01
18 -0.15
19 -0.15
2 -0.29
20 -0.15
21 -0.15
22 0.18
23 0.15
24 0.15
25 0.15
26 0.15
3 -0.29
4 -0.29
5 -0.29
6 -0.29
7 -0.18
8 -0.2
9 -0.62

>  <PUBCHEM_EFFECTIVE_ROTOR_COUNT>  (1) 
4

>  <PUBCHEM_PHARMACOPHORE_FEATURES>  (1) 
5
3 10 11 14 cation
3 9 10 13 cation
3 9 11 12 cation
6 15 18 19 20 21 22 rings
6 9 10 11 12 13 14 rings

>  <PUBCHEM_HEAVY_ATOM_COUNT>  (1) 
22

>  <PUBCHEM_ATOM_DEF_STEREO_COUNT>  (1) 
0

>  <PUBCHEM_ATOM_UDEF_STEREO_COUNT>  (1) 
0

>  <PUBCHEM_BOND_DEF_STEREO_COUNT>  (1) 
0

>  <PUBCHEM_BOND_UDEF_STEREO_COUNT>  (1) 
0

>  <PUBCHEM_ISOTOPIC_ATOM_COUNT>  (1) 
0

>  <PUBCHEM_COMPONENT_COUNT>  (1) 
1

>  <PUBCHEM_CACTVS_TAUTO_COUNT>  (1) 
1

>  <PUBCHEM_CONFORMER_ID>  (1) 
00007EAA00000001

>  <PUBCHEM_MMFF94_ENERGY>  (1) 
42.3239

>  <PUBCHEM_FEATURE_SELFOVERLAP>  (1) 
28.155

>  <PUBCHEM_SHAPE_FINGERPRINT>  (1) 
10366900 7 17131841992856948728
11578080 2 17271726392641733752
12035759 4 18127668604565522399
12236239 1 17748831800285324372
12346177 29 18200307869770421982
12553582 1 18260817216463276840
12555020 224 18411410730764558327
12592029 89 18335993007996781419
12715332 25 18341897419470719709
12788726 201 17833549372409376231
13140716 1 18194969762229186936
13402501 40 18270967847823943558
13544592 145 18202286905370843184
13583140 156 16515690000087479465
13726171 33 17904520563614026100
14115302 16 18335144211138510636
14251751 93 18336823203869391187
14790565 3 18409176493057244196
14866123 147 18409166653250129202
15042514 8 18265055919666808075
15099037 51 18410011039741176980
15295992 7 17988085611539470528
16752209 62 18338229474418529835
17093844 170 18339928121911579356
17349148 13 18342177786567778013
17859628 97 18334294253952949890
19591789 44 18266744760831388883
20028762 73 18129101298387040279
20600515 1 18342464772246421060
20642791 35 17764314938074793669
20681677 155 18334295396820205096
20905425 154 18053948342703115852
21279426 13 18196095439103458004
21478907 32 17909262830184141879
21524375 3 18408880746293663639
21781051 124 18188793732834437947
23402539 116 18201432558444194324
23419403 2 17318997352626407711
23558518 356 17828202430505100010
23559900 14 18271809077451569636
3084891 72 18341898454579287840
3298306 158 18335979788008394095
338550 245 18334861619132569598
340366 18 17967818292472666020
352729 6 18266468791960482221
38695281 34 18201719497130657807
404807 14 15405026867542361078
465052 167 17749967651298816569
532947 4 18200318693109587806
5385378 56 18125169234389502537
59755656 215 18339079263799932924
6138700 20 18339643322276994038
7164475 11 17837200841961562383
7226269 152 18131634461049246704
81228 2 17688860256944473697
9709674 26 18126560365236938192

>  <PUBCHEM_SHAPE_MULTIPOLES>  (1) 
454.74
10.87
3.54
1.31
3.95
2.95
0
-3.9
-0.01
-1.56
0
-0.35
0.45
0

>  <PUBCHEM_SHAPE_SELFOVERLAP>  (1) 
879.15

>  <PUBCHEM_SHAPE_VOLUME>  (1) 
278.1

>  <PUBCHEM_COORDINATE_TYPE>  (1) 
2
5
10

$$$$
