32422
     RDKit          3D

 24 25  0  0  0  0  0  0  0  0999 V2000
    4.6736    0.7551   -1.4225 Cl  0  0  0  0  0  0  0  0  0  0  0  0
    4.2546    2.6733    0.6874 Cl  0  0  0  0  0  0  0  0  0  0  0  0
    4.9814   -0.0322    1.3795 Cl  0  0  0  0  0  0  0  0  0  0  0  0
    1.5156   -3.6962    0.7624 Cl  0  0  0  0  0  0  0  0  0  0  0  0
   -1.0701   -2.9657   -0.2805 Cl  0  0  0  0  0  0  0  0  0  0  0  0
    1.2137   -2.9225   -2.0440 Cl  0  0  0  0  0  0  0  0  0  0  0  0
   -0.9070    2.0637    1.0895 S   0  0  0  0  0  0  0  0  0  0  0  0
   -2.6902    1.5930   -1.3530 O   0  0  0  0  0  0  0  0  0  0  0  0
    0.0016   -0.3279    0.3294 N   0  0  0  0  0  0  0  0  0  0  0  0
    1.6367    1.4033    0.6240 N   0  0  0  0  0  0  0  0  0  0  0  0
    2.3235   -0.7917   -0.0602 N   0  0  0  0  0  0  0  0  0  0  0  0
   -2.3516    1.0189    0.9606 C   0  0  0  0  0  0  0  0  0  0  0  0
   -3.0643    0.9105   -0.2334 C   0  0  0  0  0  0  0  0  0  0  0  0
   -2.7629    0.3042    2.0857 C   0  0  0  0  0  0  0  0  0  0  0  0
   -4.1883    0.0874   -0.3025 C   0  0  0  0  0  0  0  0  0  0  0  0
    0.3862    0.9204    0.6314 C   0  0  0  0  0  0  0  0  0  0  0  0
    1.0250   -1.1295   -0.0074 C   0  0  0  0  0  0  0  0  0  0  0  0
    2.5542    0.4897    0.2683 C   0  0  0  0  0  0  0  0  0  0  0  0
   -2.3633    0.8179   -2.5041 C   0  0  0  0  0  0  0  0  0  0  0  0
   -3.8868   -0.5191    2.0166 C   0  0  0  0  0  0  0  0  0  0  0  0
   -4.5995   -0.6274    0.8225 C   0  0  0  0  0  0  0  0  0  0  0  0
    3.9737    0.9445    0.2366 C   0  0  0  0  0  0  0  0  0  0  0  0
    0.6857   -2.5389   -0.3559 C   0  0  0  0  0  0  0  0  0  0  0  0
   -1.3414    1.5692   -3.3305 C   0  0  0  0  0  0  0  0  0  0  0  0
  1 22  1  0
  2 22  1  0
  3 22  1  0
  4 23  1  0
  5 23  1  0
  6 23  1  0
  7 12  1  0
  7 16  1  0
  8 13  1  0
  8 19  1  0
  9 16  2  0
  9 17  1  0
 10 16  1  0
 10 18  2  0
 11 17  2  0
 11 18  1  0
 12 13  2  0
 12 14  1  0
 13 15  1  0
 14 20  2  0
 15 21  2  0
 17 23  1  0
 18 22  1  0
 19 24  1  0
 20 21  1  0
M  END
>  <PUBCHEM_COMPOUND_CID>  (1) 
32422

>  <PUBCHEM_CONFORMER_RMSD>  (1) 
0.8

>  <PUBCHEM_CONFORMER_DIVERSEORDER>  (1) 
1
63
38
48
52
33
10
13
36
58
28
15
60
2
61
47
29
22
26
4
53
57
27
18
41
56
12
14
55
37
7
43
32
24
54
59
45
11
21
35
50
17
8
42
25
9
46
31
16
23
20
44
6
51
39
3
30
5
34
64
49
19
40
62

>  <PUBCHEM_MMFF94_PARTIAL_CHARGES>  (1) 
27
1 -0.29
10 -0.62
11 -0.62
12 0.1
13 0.08
14 -0.15
15 -0.15
16 0.72
17 0.48
18 0.48
19 0.28
2 -0.29
20 -0.15
21 -0.15
22 1.01
23 1.01
25 0.15
26 0.15
29 0.15
3 -0.29
30 0.15
4 -0.29
5 -0.29
6 -0.29
7 -0.2
8 -0.36
9 -0.62

>  <PUBCHEM_EFFECTIVE_ROTOR_COUNT>  (1) 
6

>  <PUBCHEM_PHARMACOPHORE_FEATURES>  (1) 
6
1 8 acceptor
3 10 11 18 cation
3 9 10 16 cation
3 9 11 17 cation
6 12 13 14 15 20 21 rings
6 9 10 11 16 17 18 rings

>  <PUBCHEM_HEAVY_ATOM_COUNT>  (1) 
24

>  <PUBCHEM_ATOM_DEF_STEREO_COUNT>  (1) 
0

>  <PUBCHEM_ATOM_UDEF_STEREO_COUNT>  (1) 
0

>  <PUBCHEM_BOND_DEF_STEREO_COUNT>  (1) 
0

>  <PUBCHEM_BOND_UDEF_STEREO_COUNT>  (1) 
0

>  <PUBCHEM_ISOTOPIC_ATOM_COUNT>  (1) 
0

>  <PUBCHEM_COMPONENT_COUNT>  (1) 
1

>  <PUBCHEM_CACTVS_TAUTO_COUNT>  (1) 
1

>  <PUBCHEM_CONFORMER_ID>  (1) 
00007EA600000001

>  <PUBCHEM_MMFF94_ENERGY>  (1) 
54.293

>  <PUBCHEM_FEATURE_SELFOVERLAP>  (1) 
33.226

>  <PUBCHEM_SHAPE_FINGERPRINT>  (1) 
11578080 2 17752781125096652516
121448 382 18059274557042272374
12156800 1 17623605298240025551
12236239 1 17131840884702567657
12403814 3 17968092075094305653
12788726 201 17695335272457736010
13140716 1 18199466747770179432
13583140 156 17677033720882152416
13911987 19 18410572933048682764
14787075 74 17845939640167553729
15209289 33 17775289408244185161
15238133 3 10663832870392419475
17349148 13 18201706337482393704
17980427 23 14851612076208774710
21033648 29 18337938087101451464
23557571 272 17313389972395204197
23559900 14 18120085087699626930
238 59 18123156084090247791
352729 6 18272097140559361946
469060 322 17897711292128807087
474229 33 18343023328157401418
57100710 210 17022614286611659977
57527293 21 17749687254210937801
59755656 520 18059860597267410662
633830 44 17988652891084085592
6669772 16 18342465842162503662
6913067 236 18113611322286026435
81228 2 17619614118106864234
9925002 15 17539985291247370557
9971528 1 12901547966312164778

>  <PUBCHEM_SHAPE_MULTIPOLES>  (1) 
488.16
8.88
3.43
2.36
3.49
3.48
1.99
-3.8
-2.22
2.02
0.27
-1.68
-0.65
0.86

>  <PUBCHEM_SHAPE_SELFOVERLAP>  (1) 
950.657

>  <PUBCHEM_SHAPE_VOLUME>  (1) 
297.2

>  <PUBCHEM_COORDINATE_TYPE>  (1) 
2
5
10

$$$$
