32439
     RDKit          3D

 19 19  0  0  0  0  0  0  0  0999 V2000
   -1.7727   -2.8048    1.6709 Cl  0  0  0  0  0  0  0  0  0  0  0  0
   -1.9755   -2.8069   -1.2589 Cl  0  0  0  0  0  0  0  0  0  0  0  0
   -3.8459   -0.0242   -1.0665 Cl  0  0  0  0  0  0  0  0  0  0  0  0
    2.9824   -2.0125   -1.6008 Cl  0  0  0  0  0  0  0  0  0  0  0  0
    4.1082    0.2451   -0.2072 Cl  0  0  0  0  0  0  0  0  0  0  0  0
    3.1751   -2.0189    1.3194 Cl  0  0  0  0  0  0  0  0  0  0  0  0
   -1.0594    3.2782    1.6142 Cl  0  0  0  0  0  0  0  0  0  0  0  0
    1.2576    3.7961   -0.0199 Cl  0  0  0  0  0  0  0  0  0  0  0  0
   -1.2717    3.2674   -1.3047 Cl  0  0  0  0  0  0  0  0  0  0  0  0
   -1.0906    0.5175    0.1496 N   0  0  0  0  0  0  0  0  0  0  0  0
    0.4099   -1.3522    0.0468 N   0  0  0  0  0  0  0  0  0  0  0  0
    1.2749    0.8851   -0.0146 N   0  0  0  0  0  0  0  0  0  0  0  0
   -1.9679   -1.7299    0.2117 C   0  0  0  0  0  0  0  0  0  0  0  0
   -0.8090   -0.7954    0.1309 C   0  0  0  0  0  0  0  0  0  0  0  0
    0.0000    1.2972    0.0735 C   0  0  0  0  0  0  0  0  0  0  0  0
    1.4033   -0.4514   -0.0228 C   0  0  0  0  0  0  0  0  0  0  0  0
   -3.3808   -1.0708    0.3092 C   0  0  0  0  0  0  0  0  0  0  0  0
    2.7901   -0.9901   -0.1189 C   0  0  0  0  0  0  0  0  0  0  0  0
   -0.2280    2.7704    0.0879 C   0  0  0  0  0  0  0  0  0  0  0  0
  1 13  1  0
  2 13  1  0
  3 17  1  0
  4 18  1  0
  5 18  1  0
  6 18  1  0
  7 19  1  0
  8 19  1  0
  9 19  1  0
 10 14  2  0
 10 15  1  0
 11 14  1  0
 11 16  2  0
 12 15  2  0
 12 16  1  0
 13 14  1  0
 13 17  1  0
 15 19  1  0
 16 18  1  0
M  END
>  <PUBCHEM_COMPOUND_CID>  (1) 
32439

>  <PUBCHEM_CONFORMER_RMSD>  (1) 
0.6

>  <PUBCHEM_CONFORMER_DIVERSEORDER>  (1) 
1
4
30
23
12
29
20
15
32
13
2
11
7
25
36
18
17
35
14
33
3
24
28
10
26
8
27
9
16
34
5
19
22
31
6
21

>  <PUBCHEM_MMFF94_PARTIAL_CHARGES>  (1) 
19
1 -0.29
10 -0.62
11 -0.62
12 -0.62
13 0.72
14 0.48
15 0.48
16 0.48
17 0.29
18 1.01
19 1.01
2 -0.29
3 -0.29
4 -0.29
5 -0.29
6 -0.29
7 -0.29
8 -0.29
9 -0.29

>  <PUBCHEM_EFFECTIVE_ROTOR_COUNT>  (1) 
4

>  <PUBCHEM_PHARMACOPHORE_FEATURES>  (1) 
4
3 10 11 14 cation
3 10 12 15 cation
3 11 12 16 cation
6 10 11 12 14 15 16 rings

>  <PUBCHEM_HEAVY_ATOM_COUNT>  (1) 
19

>  <PUBCHEM_ATOM_DEF_STEREO_COUNT>  (1) 
0

>  <PUBCHEM_ATOM_UDEF_STEREO_COUNT>  (1) 
0

>  <PUBCHEM_BOND_DEF_STEREO_COUNT>  (1) 
0

>  <PUBCHEM_BOND_UDEF_STEREO_COUNT>  (1) 
0

>  <PUBCHEM_ISOTOPIC_ATOM_COUNT>  (1) 
0

>  <PUBCHEM_COMPONENT_COUNT>  (1) 
1

>  <PUBCHEM_CACTVS_TAUTO_COUNT>  (1) 
1

>  <PUBCHEM_CONFORMER_ID>  (1) 
00007EB700000001

>  <PUBCHEM_MMFF94_ENERGY>  (1) 
34.4475

>  <PUBCHEM_FEATURE_SELFOVERLAP>  (1) 
23.07

>  <PUBCHEM_SHAPE_FINGERPRINT>  (1) 
11680986 33 18120373422081896249
116883 192 18271529680489626094
12160290 23 18194407688549099666
12553582 1 18411140246736154514
12788726 201 18337389331850516386
13140716 1 18194125346105390888
13294875 104 17610573727851222715
13583140 156 15009739737264882193
13681431 1 18195536015128301746
14022347 108 18265354861669077314
14648413 74 18047751787079228571
15309172 13 17545332882135112304
15490181 7 17329719721131962937
16752209 62 18118395142496296323
16945 1 18337678507434459299
17357779 13 18342166748459421653
19591789 44 16971692308141596951
20510252 161 18267581317022608760
20600515 1 17975937030233877537
20645476 183 17318480616769010646
20645477 70 17836080444209032391
20711985 344 18194981659536763198
21029758 11 18341325660855969841
21041028 32 18123775276482057033
21285901 2 18200593592770618679
21524375 3 17473553447179203122
22907989 373 18192732045808379676
2334 1 18122628528556065234
23402539 116 18198325287096778087
23419403 2 17699529689878698585
23557571 272 18340487769008730822
23558518 356 17760086220385986659
23559900 14 18335135385144286562
23598291 2 17913213345244547487
23598294 1 18192722146040494346
2748010 2 18194118753113956028
3071541 158 18263081191950135525
3084891 72 18263071133490532859
3091708 16 9426283055381024128
34934 24 18410850001494176182
352729 6 17833830473871469216
458136 41 16821956992403310811
5845 1 17702968970570777443
6992083 37 18059029370455651611
7364860 26 17909272721044664825
81228 2 18339930294458181976

>  <PUBCHEM_SHAPE_MULTIPOLES>  (1) 
392.9
5.63
4.95
1.44
2.36
4.28
0.11
-3.53
-0.95
-1.34
0.43
-0.23
-0.41
0.19

>  <PUBCHEM_SHAPE_SELFOVERLAP>  (1) 
719.189

>  <PUBCHEM_SHAPE_VOLUME>  (1) 
246.6

>  <PUBCHEM_COORDINATE_TYPE>  (1) 
2
5
10

$$$$
