32432
     RDKit          3D

 24 25  0  0  0  0  0  0  0  0999 V2000
   -5.3874   -0.0431    1.4676 Cl  0  0  0  0  0  0  0  0  0  0  0  0
   -5.1071    2.4193   -0.0039 Cl  0  0  0  0  0  0  0  0  0  0  0  0
   -5.3876   -0.0569   -1.4590 Cl  0  0  0  0  0  0  0  0  0  0  0  0
   -1.4764   -3.3102   -1.4632 Cl  0  0  0  0  0  0  0  0  0  0  0  0
    0.8951   -2.5868    0.0060 Cl  0  0  0  0  0  0  0  0  0  0  0  0
   -1.4902   -3.3032    1.4633 Cl  0  0  0  0  0  0  0  0  0  0  0  0
    0.1060    2.5662   -0.0039 S   0  0  0  0  0  0  0  0  0  0  0  0
    5.9048   -0.5869   -1.0955 O   0  0  0  0  0  0  0  0  0  0  0  0
    5.9055   -0.5817    1.0997 O   0  0  0  0  0  0  0  0  0  0  0  0
   -2.7533   -0.8595   -0.0019 N   0  0  0  0  0  0  0  0  0  0  0  0
   -0.5006   -0.0330   -0.0010 N   0  0  0  0  0  0  0  0  0  0  0  0
   -2.3427    1.5046   -0.0017 N   0  0  0  0  0  0  0  0  0  0  0  0
    5.3706   -0.2945    0.0015 N   0  0  0  0  0  0  0  0  0  0  0  0
    1.6709    1.7142   -0.0020 C   0  0  0  0  0  0  0  0  0  0  0  0
   -3.1422    0.4258   -0.0020 C   0  0  0  0  0  0  0  0  0  0  0  0
   -1.4192   -1.0124   -0.0012 C   0  0  0  0  0  0  0  0  0  0  0  0
   -1.0389    1.1943   -0.0010 C   0  0  0  0  0  0  0  0  0  0  0  0
    2.2833    1.3781   -1.2094 C   0  0  0  0  0  0  0  0  0  0  0  0
    2.2841    1.3841    1.2065 C   0  0  0  0  0  0  0  0  0  0  0  0
    4.1224    0.3825    0.0003 C   0  0  0  0  0  0  0  0  0  0  0  0
    3.5090    0.7125   -1.2082 C   0  0  0  0  0  0  0  0  0  0  0  0
    3.5099    0.7184    1.2077 C   0  0  0  0  0  0  0  0  0  0  0  0
   -4.6112    0.6800    0.0003 C   0  0  0  0  0  0  0  0  0  0  0  0
   -0.9048   -2.4117    0.0011 C   0  0  0  0  0  0  0  0  0  0  0  0
  1 23  1  0
  2 23  1  0
  3 23  1  0
  4 24  1  0
  5 24  1  0
  6 24  1  0
  7 14  1  0
  7 17  1  0
  8 13  1  0
  9 13  2  0
 10 15  2  0
 10 16  1  0
 11 16  2  0
 11 17  1  0
 12 15  1  0
 12 17  2  0
 13 20  1  0
 14 18  2  0
 14 19  1  0
 15 23  1  0
 16 24  1  0
 18 21  1  0
 19 22  2  0
 20 21  2  0
 20 22  1  0
M  CHG  2   8  -1  13   1
M  END
>  <PUBCHEM_COMPOUND_CID>  (1) 
32432

>  <PUBCHEM_CONFORMER_RMSD>  (1) 
0.8

>  <PUBCHEM_CONFORMER_DIVERSEORDER>  (1) 
1
4
12
14
13
11
7
8
6
15
5
16
3
2
9
10

>  <PUBCHEM_MMFF94_PARTIAL_CHARGES>  (1) 
28
1 -0.29
10 -0.62
11 -0.62
12 -0.62
13 0.91
14 0.1
15 0.48
16 0.48
17 0.72
18 -0.15
19 -0.15
2 -0.29
20 0.13
21 -0.15
22 -0.15
23 1.01
24 1.01
25 0.15
26 0.15
27 0.15
28 0.15
3 -0.29
4 -0.29
5 -0.29
6 -0.29
7 -0.2
8 -0.52
9 -0.52

>  <PUBCHEM_EFFECTIVE_ROTOR_COUNT>  (1) 
5

>  <PUBCHEM_PHARMACOPHORE_FEATURES>  (1) 
8
1 8 acceptor
1 8 anion
1 9 acceptor
3 10 11 16 cation
3 10 12 15 cation
3 11 12 17 cation
6 10 11 12 15 16 17 rings
6 14 18 19 20 21 22 rings

>  <PUBCHEM_HEAVY_ATOM_COUNT>  (1) 
24

>  <PUBCHEM_ATOM_DEF_STEREO_COUNT>  (1) 
0

>  <PUBCHEM_ATOM_UDEF_STEREO_COUNT>  (1) 
0

>  <PUBCHEM_BOND_DEF_STEREO_COUNT>  (1) 
0

>  <PUBCHEM_BOND_UDEF_STEREO_COUNT>  (1) 
0

>  <PUBCHEM_ISOTOPIC_ATOM_COUNT>  (1) 
0

>  <PUBCHEM_COMPONENT_COUNT>  (1) 
1

>  <PUBCHEM_CACTVS_TAUTO_COUNT>  (1) 
1

>  <PUBCHEM_CONFORMER_ID>  (1) 
00007EB000000001

>  <PUBCHEM_MMFF94_ENERGY>  (1) 
53.7051

>  <PUBCHEM_FEATURE_SELFOVERLAP>  (1) 
43.46

>  <PUBCHEM_SHAPE_FINGERPRINT>  (1) 
10366900 7 17131843096500052416
11578080 2 17343219928672183257
11646440 116 18130797758338112897
12011746 2 18409727348413401748
12236239 1 17676491635774482908
12553582 1 18261380166195197536
12555020 224 18411693314212012031
12592029 89 18335711541836826171
12633257 1 18271534181599547196
12715332 25 18341615953400448253
12788726 201 18201171983121523296
12838862 33 18337652158332565112
13140716 1 18267307723163290665
13402501 40 18271530810445872006
13544592 145 18273495689053377016
13726171 33 17832746643365080852
13862211 1 18410852170542097645
14115302 16 18335425694531121540
14466204 15 18341333271528229321
14790565 3 18409455760615839501
14866123 147 18336827593173532883
15042514 8 18265055919793376115
15099037 51 18410011043793473189
15295992 7 17988084516312241017
16752209 62 18335975402752384953
17349148 13 18272092725169970829
17859628 97 18334293162735844634
19141452 34 18272650190270306790
19591789 44 18266744769632268075
20642791 35 17836372540945294797
20681677 155 18333732446666343232
21279426 13 18196376918085024604
21478907 32 17837205244931320855
21781051 124 18189070831545396595
21859007 373 17824234091014483644
23402539 116 18201432567350620541
23558518 356 17900822965732597226
23559900 14 18271807982087255112
3004659 81 18333456430878045428
3298306 158 18335979792477460679
335352 9 18410573989536323516
3383291 50 18410291445213606691
338550 245 18334861631737844686
340366 18 17967817201281966972
38695281 34 18201719505873573207
404807 14 15692128049410319966
4093350 32 17416983733624970895
465052 167 17749967655778400153
5104073 3 18268995456368994416
5265222 85 18337684100283914380
532947 4 18200600176781734631
5385378 56 18196944258386994649
559249 180 18408600362033125618
59755656 215 18339924805431968437
6138700 20 18339924814037837574
7164475 11 17837482321454818911
7226269 152 18131635564723992441
81228 2 17688860265761235617
9709674 26 18125997419330499408

>  <PUBCHEM_SHAPE_MULTIPOLES>  (1) 
477.31
12.17
3.41
1.34
4.86
2.66
0
-3.02
-0.01
-2
0
-0.14
0.46
0

>  <PUBCHEM_SHAPE_SELFOVERLAP>  (1) 
939.54

>  <PUBCHEM_SHAPE_VOLUME>  (1) 
288.4

>  <PUBCHEM_COORDINATE_TYPE>  (1) 
2
5
10

$$$$
