32435
     RDKit          3D

 17 17  0  0  0  0  0  0  0  0999 V2000
    2.4408    2.7133   -1.4626 Cl  0  0  0  0  0  0  0  0  0  0  0  0
    2.4403    2.7127    1.4639 Cl  0  0  0  0  0  0  0  0  0  0  0  0
   -3.7635    0.0607    1.4631 Cl  0  0  0  0  0  0  0  0  0  0  0  0
   -3.7638    0.0604   -1.4635 Cl  0  0  0  0  0  0  0  0  0  0  0  0
    1.8587   -2.4667    1.4978 S   0  0  0  0  0  0  0  0  0  0  0  0
    1.8598   -2.4662   -1.4970 S   0  0  0  0  0  0  0  0  0  0  0  0
   -1.0816   -0.6827   -0.0004 N   0  0  0  0  0  0  0  0  0  0  0  0
    1.1248    0.2606   -0.0001 N   0  0  0  0  0  0  0  0  0  0  0  0
   -0.7953    1.6997   -0.0004 N   0  0  0  0  0  0  0  0  0  0  0  0
    0.8447   -2.1363    0.0000 C   0  0  0  0  0  0  0  0  0  0  0  0
    0.2494   -0.7439   -0.0002 C   0  0  0  0  0  0  0  0  0  0  0  0
   -1.5372    0.5805   -0.0004 C   0  0  0  0  0  0  0  0  0  0  0  0
    0.5264    1.4626   -0.0001 C   0  0  0  0  0  0  0  0  0  0  0  0
    1.4204    2.6556    0.0005 C   0  0  0  0  0  0  0  0  0  0  0  0
   -3.0174    0.7583   -0.0003 C   0  0  0  0  0  0  0  0  0  0  0  0
    0.5956   -2.2347    2.7741 C   0  0  0  0  0  0  0  0  0  0  0  0
    0.5979   -2.2340   -2.7745 C   0  0  0  0  0  0  0  0  0  0  0  0
  1 14  1  0
  2 14  1  0
  3 15  1  0
  4 15  1  0
  5 10  1  0
  5 16  1  0
  6 10  1  0
  6 17  1  0
  7 11  2  0
  7 12  1  0
  8 11  1  0
  8 13  2  0
  9 12  2  0
  9 13  1  0
 10 11  1  0
 12 15  1  0
 13 14  1  0
M  END
>  <PUBCHEM_COMPOUND_CID>  (1) 
32435

>  <PUBCHEM_CONFORMER_RMSD>  (1) 
0.6

>  <PUBCHEM_CONFORMER_DIVERSEORDER>  (1) 
1
154
156
180
57
81
158
63
7
84
138
150
113
159
10
172
119
171
120
99
82
62
98
42
104
72
169
52
175
27
177
71
152
173
95
14
144
9
38
100
26
126
176
8
30
137
164
129
3
166
55
44
179
32
136
91
178
89
74
135
174
61
79
161
115
12
36
132
5
153
56
160
2
43
101
143
97
70
147
88
25
112
114
122
149
105
20
76
163
60
69
85
139
13
125
90
155
162
4
37
165
107
121
128
28
33
59
133
127
141
78
40
130
45
157
145
31
131
170
117
168
111
151
108
51
19
58
167
11
73
23
146
140
83
106
75
94
124
18
148
134
66
118
68
87
64
142
35
41
123
15
103
34
116
49
46
86
110
17
65
6
39
109
92
29
80
22
47
67
102
24
54
53
93
48
16
21
96
50
77

>  <PUBCHEM_MMFF94_PARTIAL_CHARGES>  (1) 
17
1 -0.29
10 0.6
11 0.48
12 0.48
13 0.48
14 0.72
15 0.72
16 0.23
17 0.23
2 -0.29
3 -0.29
4 -0.29
5 -0.46
6 -0.46
7 -0.62
8 -0.62
9 -0.62

>  <PUBCHEM_EFFECTIVE_ROTOR_COUNT>  (1) 
5

>  <PUBCHEM_PHARMACOPHORE_FEATURES>  (1) 
6
1 16 hydrophobe
1 17 hydrophobe
3 7 8 11 cation
3 7 9 12 cation
3 8 9 13 cation
6 7 8 9 11 12 13 rings

>  <PUBCHEM_HEAVY_ATOM_COUNT>  (1) 
17

>  <PUBCHEM_ATOM_DEF_STEREO_COUNT>  (1) 
0

>  <PUBCHEM_ATOM_UDEF_STEREO_COUNT>  (1) 
0

>  <PUBCHEM_BOND_DEF_STEREO_COUNT>  (1) 
0

>  <PUBCHEM_BOND_UDEF_STEREO_COUNT>  (1) 
0

>  <PUBCHEM_ISOTOPIC_ATOM_COUNT>  (1) 
0

>  <PUBCHEM_COMPONENT_COUNT>  (1) 
1

>  <PUBCHEM_CACTVS_TAUTO_COUNT>  (1) 
1

>  <PUBCHEM_CONFORMER_ID>  (1) 
00007EB300000001

>  <PUBCHEM_MMFF94_ENERGY>  (1) 
26.4068

>  <PUBCHEM_FEATURE_SELFOVERLAP>  (1) 
33.256

>  <PUBCHEM_SHAPE_FINGERPRINT>  (1) 
107951 10 17681012973964419780
11578080 2 16881015734913026502
12160290 23 17473826607073212165
12553582 1 18049728412823357675
12707595 3 18191031101694931179
12716301 132 17319892698672781690
13083527 12 17977624759397521619
13681431 1 18266458711202876473
14022347 108 17473562252242033041
14181834 199 18267000826459797301
14787075 74 17968384450862005642
14817 1 16895651192272126818
15906896 17 17615119327467759216
16945 1 18410575080463174085
1813 80 17841447942168879759
20600515 1 17976535014129842051
20645476 183 17534898899065903212
20645477 70 18412820283945506485
20711985 344 17259068393934061175
21524375 3 18195802101205841069
23419403 2 17040989367858630790
23557571 272 17477487504379390902
23598288 3 17181110236750386932
2748010 2 18123201361266372428
3071541 236 17687732153192348808
5845 1 8691937806201224253
621550 5 16841358502125312694
7364860 26 18202004300226974549
81228 2 17187285664907794745
81539 233 18188200022282602773
9841814 1 18263924328901476443

>  <PUBCHEM_SHAPE_MULTIPOLES>  (1) 
350.09
4.72
4.05
2.39
6.27
1.04
0
1.2
0
-4.84
0
-0.79
-1.95
0

>  <PUBCHEM_SHAPE_SELFOVERLAP>  (1) 
637.818

>  <PUBCHEM_SHAPE_VOLUME>  (1) 
227.2

>  <PUBCHEM_COORDINATE_TYPE>  (1) 
2
5
10

$$$$
