32441
     RDKit          3D

 23 23  0  0  0  0  0  0  0  0999 V2000
    0.0199    3.1154    0.1743 Cl  0  0  0  0  0  0  0  0  0  0  0  0
    2.7294    3.5331    1.0639 Cl  0  0  0  0  0  0  0  0  0  0  0  0
    2.1716    3.5222   -1.7673 Cl  0  0  0  0  0  0  0  0  0  0  0  0
    5.1646   -2.1919    0.3465 Cl  0  0  0  0  0  0  0  0  0  0  0  0
    4.7261   -0.3096    2.4845 Cl  0  0  0  0  0  0  0  0  0  0  0  0
    2.9990   -2.6113    2.2701 Cl  0  0  0  0  0  0  0  0  0  0  0  0
    2.2608   -1.4190   -0.5127 N   0  0  0  0  0  0  0  0  0  0  0  0
    1.2062    0.6035   -1.2578 N   0  0  0  0  0  0  0  0  0  0  0  0
    2.7992    0.6713    0.5354 N   0  0  0  0  0  0  0  0  0  0  0  0
   -3.0054   -1.4064   -0.8949 C   0  0  0  0  0  0  0  0  0  0  0  0
   -3.9238   -0.2904   -0.3919 C   0  0  0  0  0  0  0  0  0  0  0  0
   -1.6477   -0.8984   -1.3903 C   0  0  0  0  0  0  0  0  0  0  0  0
   -5.2556   -0.8535    0.1122 C   0  0  0  0  0  0  0  0  0  0  0  0
   -0.7014   -2.0232   -1.8242 C   0  0  0  0  0  0  0  0  0  0  0  0
   -6.1584    0.2588    0.6508 C   0  0  0  0  0  0  0  0  0  0  0  0
    0.6506   -1.5040   -2.3284 C   0  0  0  0  0  0  0  0  0  0  0  0
   -7.5171   -0.2468    1.1404 C   0  0  0  0  0  0  0  0  0  0  0  0
    1.4242   -0.7209   -1.2975 C   0  0  0  0  0  0  0  0  0  0  0  0
   -8.3900    0.8439    1.7419 C   0  0  0  0  0  0  0  0  0  0  0  0
    2.9140   -0.6575    0.3798 C   0  0  0  0  0  0  0  0  0  0  0  0
    1.9278    1.2341   -0.3171 C   0  0  0  0  0  0  0  0  0  0  0  0
    1.7425    2.7094   -0.2082 C   0  0  0  0  0  0  0  0  0  0  0  0
    3.8634   -1.3588    1.2905 C   0  0  0  0  0  0  0  0  0  0  0  0
  1 22  1  0
  2 22  1  0
  3 22  1  0
  4 23  1  0
  5 23  1  0
  6 23  1  0
  7 18  2  0
  7 20  1  0
  8 18  1  0
  8 21  2  0
  9 20  2  0
  9 21  1  0
 10 11  1  0
 10 12  1  0
 11 13  1  0
 12 14  1  0
 13 15  1  0
 14 16  1  0
 15 17  1  0
 16 18  1  0
 17 19  1  0
 20 23  1  0
 21 22  1  0
M  END
>  <PUBCHEM_COMPOUND_CID>  (1) 
32441

>  <PUBCHEM_CONFORMER_RMSD>  (1) 
1

>  <PUBCHEM_CONFORMER_DIVERSEORDER>  (1) 
1
99
106
15
97
49
112
100
7
79
34
32
102
40
85
110
28
74
96
26
82
43
17
111
70
78
54
101
67
94
22
4
108
55
114
24
105
12
92
75
77
113
23
72
95
2
38
56
73
116
88
37
84
35
46
8
89
18
68
39
107
62
80
6
57
52
83
93
25
48
109
51
50
19
9
86
47
53
64
91
103
61
31
115
65
87
13
41
81
104
14
20
16
3
11
30
59
98
5
33
71
29
10
36
60
27
90
42
76
44
45
21
58
69
66
63

>  <PUBCHEM_MMFF94_PARTIAL_CHARGES>  (1) 
15
1 -0.29
16 0.14
18 0.48
2 -0.29
20 0.48
21 0.48
22 1.01
23 1.01
3 -0.29
4 -0.29
5 -0.29
6 -0.29
7 -0.62
8 -0.62
9 -0.62

>  <PUBCHEM_EFFECTIVE_ROTOR_COUNT>  (1) 
10

>  <PUBCHEM_PHARMACOPHORE_FEATURES>  (1) 
5
1 19 hydrophobe
3 7 8 18 cation
3 7 9 20 cation
3 8 9 21 cation
6 7 8 9 18 20 21 rings

>  <PUBCHEM_HEAVY_ATOM_COUNT>  (1) 
23

>  <PUBCHEM_ATOM_DEF_STEREO_COUNT>  (1) 
0

>  <PUBCHEM_ATOM_UDEF_STEREO_COUNT>  (1) 
0

>  <PUBCHEM_BOND_DEF_STEREO_COUNT>  (1) 
0

>  <PUBCHEM_BOND_UDEF_STEREO_COUNT>  (1) 
0

>  <PUBCHEM_ISOTOPIC_ATOM_COUNT>  (1) 
0

>  <PUBCHEM_COMPONENT_COUNT>  (1) 
1

>  <PUBCHEM_CACTVS_TAUTO_COUNT>  (1) 
3

>  <PUBCHEM_CONFORMER_ID>  (1) 
00007EB900000001

>  <PUBCHEM_MMFF94_ENERGY>  (1) 
22.5322

>  <PUBCHEM_FEATURE_SELFOVERLAP>  (1) 
28.144

>  <PUBCHEM_SHAPE_FINGERPRINT>  (1) 
10190108 129 18335695023740772074
10382601 240 18120917650405003092
11545043 162 17023172804849876575
12403259 118 18059852926614511271
12403259 327 18260270776116682599
12616971 3 18342737438698160823
12633257 1 18411133658609659783
12778500 126 18041562439016755585
13383661 66 16372953414692887450
13533116 47 17749114396321982235
13583140 156 18041540478664738375
13965767 371 17987219183550013260
15183329 4 12396291574877669527
15238133 3 17632295721944121475
15348495 7 18260558861717624339
15420108 30 17772177863346871860
15475509 35 17458058253295267339
17810953 82 18059302045334380141
17980427 23 17559937952541662805
1979834 28 17846787278297361439
20642791 268 17843094130503893192
20721686 146 16558460994118952944
20739085 24 17973415949626033908
21033648 29 17131534099062062362
21421861 104 18336817688957550280
21774942 28 13973414491500800067
312425 54 17822296829615767347
3472631 163 14692562226657775743
3680242 22 18341337743063022033
5104073 3 18337957913202667883
513532 50 15051462599961375541
5283268 108 18342179916644333461
57359948 33 10447379636227302307
58260988 114 17175442890260072762
58260988 587 16661789828189664060
6786 2 16883590027042194820
7097593 13 18194097824118540486
81228 2 17622113003837685716
960060 61 8935004759401505463

>  <PUBCHEM_SHAPE_MULTIPOLES>  (1) 
469.6
15.52
3.91
2.32
45.19
4.2
-0.15
-3.13
-13.18
-5.66
0.15
-0.98
-0.83
-2.28

>  <PUBCHEM_SHAPE_SELFOVERLAP>  (1) 
870.8

>  <PUBCHEM_SHAPE_VOLUME>  (1) 
290

>  <PUBCHEM_COORDINATE_TYPE>  (1) 
2
5
10

$$$$
