32449
     RDKit          3D

 21 22  0  0  0  0  0  0  0  0999 V2000
    6.5054    0.0002    0.0008 Br  0  0  0  0  0  0  0  0  0  0  0  0
   -1.8934    3.3385   -1.5891 Cl  0  0  0  0  0  0  0  0  0  0  0  0
   -4.1067    2.2758   -0.0795 Cl  0  0  0  0  0  0  0  0  0  0  0  0
   -1.8797    3.4439    1.3356 Cl  0  0  0  0  0  0  0  0  0  0  0  0
   -1.8927   -3.3361    1.5907 Cl  0  0  0  0  0  0  0  0  0  0  0  0
   -4.1069   -2.2760    0.0807 Cl  0  0  0  0  0  0  0  0  0  0  0  0
   -1.8804   -3.4460   -1.3338 Cl  0  0  0  0  0  0  0  0  0  0  0  0
   -0.2167   -1.1991    0.0433 N   0  0  0  0  0  0  0  0  0  0  0  0
   -0.2165    1.1989   -0.0456 N   0  0  0  0  0  0  0  0  0  0  0  0
   -2.2947    0.0001   -0.0005 N   0  0  0  0  0  0  0  0  0  0  0  0
    1.8257   -0.0002   -0.0007 C   0  0  0  0  0  0  0  0  0  0  0  0
    0.3791   -0.0002   -0.0014 C   0  0  0  0  0  0  0  0  0  0  0  0
   -1.5573   -1.1213    0.0407 C   0  0  0  0  0  0  0  0  0  0  0  0
   -1.5571    1.1213   -0.0424 C   0  0  0  0  0  0  0  0  0  0  0  0
    2.5236   -1.0682   -0.5646 C   0  0  0  0  0  0  0  0  0  0  0  0
    2.5229    1.0679    0.5639 C   0  0  0  0  0  0  0  0  0  0  0  0
   -2.3032    2.4111   -0.0890 C   0  0  0  0  0  0  0  0  0  0  0  0
   -2.3033   -2.4111    0.0895 C   0  0  0  0  0  0  0  0  0  0  0  0
    3.9185   -1.0680   -0.5639 C   0  0  0  0  0  0  0  0  0  0  0  0
    3.9178    1.0682    0.5645 C   0  0  0  0  0  0  0  0  0  0  0  0
    4.6156    0.0001    0.0007 C   0  0  0  0  0  0  0  0  0  0  0  0
  1 21  1  0
  2 17  1  0
  3 17  1  0
  4 17  1  0
  5 18  1  0
  6 18  1  0
  7 18  1  0
  8 12  2  0
  8 13  1  0
  9 12  1  0
  9 14  2  0
 10 13  2  0
 10 14  1  0
 11 12  1  0
 11 15  2  0
 11 16  1  0
 13 18  1  0
 14 17  1  0
 15 19  1  0
 16 20  2  0
 19 21  2  0
 20 21  1  0
M  END
>  <PUBCHEM_COMPOUND_CID>  (1) 
32449

>  <PUBCHEM_CONFORMER_RMSD>  (1) 
0.6

>  <PUBCHEM_CONFORMER_DIVERSEORDER>  (1) 
1
4
6
5
3
2

>  <PUBCHEM_MMFF94_PARTIAL_CHARGES>  (1) 
24
1 -0.11
10 -0.62
12 0.62
13 0.48
14 0.48
15 -0.15
16 -0.15
17 1.01
18 1.01
19 -0.15
2 -0.29
20 -0.15
21 0.11
22 0.15
23 0.15
24 0.15
25 0.15
3 -0.29
4 -0.29
5 -0.29
6 -0.29
7 -0.29
8 -0.62
9 -0.62

>  <PUBCHEM_EFFECTIVE_ROTOR_COUNT>  (1) 
3

>  <PUBCHEM_PHARMACOPHORE_FEATURES>  (1) 
6
1 1 hydrophobe
3 8 10 13 cation
3 8 9 12 cation
3 9 10 14 cation
6 11 15 16 19 20 21 rings
6 8 9 10 12 13 14 rings

>  <PUBCHEM_HEAVY_ATOM_COUNT>  (1) 
21

>  <PUBCHEM_ATOM_DEF_STEREO_COUNT>  (1) 
0

>  <PUBCHEM_ATOM_UDEF_STEREO_COUNT>  (1) 
0

>  <PUBCHEM_BOND_DEF_STEREO_COUNT>  (1) 
0

>  <PUBCHEM_BOND_UDEF_STEREO_COUNT>  (1) 
0

>  <PUBCHEM_ISOTOPIC_ATOM_COUNT>  (1) 
0

>  <PUBCHEM_COMPONENT_COUNT>  (1) 
1

>  <PUBCHEM_CACTVS_TAUTO_COUNT>  (1) 
1

>  <PUBCHEM_CONFORMER_ID>  (1) 
00007EC100000001

>  <PUBCHEM_MMFF94_ENERGY>  (1) 
45.6366

>  <PUBCHEM_FEATURE_SELFOVERLAP>  (1) 
33.23

>  <PUBCHEM_SHAPE_FINGERPRINT>  (1) 
10319926 262 18340468016786576562
10411042 1 18049725410441199427
11578080 2 16987136430981172971
11833330 49 18261951959428128925
12107183 9 17902221227418378386
12160290 23 18266153120369654465
12173636 292 18267864978122323133
12403259 226 18199461259224143216
12403259 415 17988919024980661320
12500047 106 18338794512237863924
12553582 1 17906744943781298654
12730499 353 17686621243470968829
12788726 201 18336255816893156107
13004483 165 18267575978447234095
13140716 1 18266187321014858667
13681431 1 17614838943560454201
138480 1 16538487987078762343
14178342 30 18334284358627640874
14508225 48 18265603459018855565
15042514 8 18408609184096164987
15463212 79 18114738231578801248
16087824 20 18410291394839153933
17844677 252 18340212977265143016
1813 80 17909286997695876751
18927931 339 18339366370075289830
19141452 34 17987241216896402279
19591789 44 17976824185988490747
20101258 96 18188505690683699248
20510252 161 18412825785287033073
20600515 1 18265349472038599743
20645477 56 18338235968710177440
20645477 70 17202484391002127726
21041028 32 18046356498450040979
21065198 57 18341894074524516032
21065201 7 18409443683842153234
21236236 1 18412544318583648079
21339142 126 18270116941060362879
21524375 3 18120657929168224815
22182313 1 17845950554381007934
22182937 141 18271250408667854808
22224240 67 18267875991252095505
23402539 116 18411131480792208663
23419403 2 17344895516174609793
23557571 272 18340773723235482516
23558518 356 18335990774255565070
23559900 14 18343293774101564720
23598288 3 18263937685806915175
23845131 108 17835536929436267697
283562 15 18410008802558932035
3091708 16 8914298773190222633
350125 39 18340772645404789672
352729 6 18340488842460423751
3545911 37 18341613668773603144
4214541 1 18411136922858429952
4409770 3 18410003347903136431
5104073 3 18341325640013929138
559249 180 18336823088121831394
59755656 520 18262796255155846837
633830 44 17626104139940284404
81228 2 18335707182234049849
9709674 26 18272373040521121710

>  <PUBCHEM_SHAPE_MULTIPOLES>  (1) 
434.39
9.84
4.53
1.13
17.11
0
0
0
0
-7.65
0
-0.65
0
0.63

>  <PUBCHEM_SHAPE_SELFOVERLAP>  (1) 
852.696

>  <PUBCHEM_SHAPE_VOLUME>  (1) 
272.7

>  <PUBCHEM_COORDINATE_TYPE>  (1) 
2
5
10

$$$$
