32445
     RDKit          3D

 17 17  0  0  0  0  0  0  0  0999 V2000
    3.5268    0.4534    1.4651 Cl  0  0  0  0  0  0  0  0  0  0  0  0
    3.2286   -2.0080   -0.0044 Cl  0  0  0  0  0  0  0  0  0  0  0  0
    3.5222    0.4655   -1.4615 Cl  0  0  0  0  0  0  0  0  0  0  0  0
   -2.8594   -1.8481   -1.4647 Cl  0  0  0  0  0  0  0  0  0  0  0  0
   -1.0591   -3.5531    0.0046 Cl  0  0  0  0  0  0  0  0  0  0  0  0
   -2.8625   -1.8353    1.4620 Cl  0  0  0  0  0  0  0  0  0  0  0  0
   -1.3626    0.4719   -0.0001 N   0  0  0  0  0  0  0  0  0  0  0  0
    0.8948    1.2854   -0.0005 N   0  0  0  0  0  0  0  0  0  0  0  0
    0.4706   -1.0764   -0.0005 N   0  0  0  0  0  0  0  0  0  0  0  0
   -0.9439    2.8485    0.0001 C   0  0  0  0  0  0  0  0  0  0  0  0
   -0.4294    1.4210   -0.0002 C   0  0  0  0  0  0  0  0  0  0  0  0
   -1.7567    3.1537    1.2606 C   0  0  0  0  0  0  0  0  0  0  0  0
   -1.7570    3.1541   -1.2603 C   0  0  0  0  0  0  0  0  0  0  0  0
   -0.8351   -0.7630    0.0000 C   0  0  0  0  0  0  0  0  0  0  0  0
    1.2762   -0.0021   -0.0004 C   0  0  0  0  0  0  0  0  0  0  0  0
    2.7435   -0.2657   -0.0004 C   0  0  0  0  0  0  0  0  0  0  0  0
   -1.7970   -1.9019    0.0006 C   0  0  0  0  0  0  0  0  0  0  0  0
  1 16  1  0
  2 16  1  0
  3 16  1  0
  4 17  1  0
  5 17  1  0
  6 17  1  0
  7 11  2  0
  7 14  1  0
  8 11  1  0
  8 15  2  0
  9 14  2  0
  9 15  1  0
 10 11  1  0
 10 12  1  0
 10 13  1  0
 14 17  1  0
 15 16  1  0
M  END
>  <PUBCHEM_COMPOUND_CID>  (1) 
32445

>  <PUBCHEM_CONFORMER_RMSD>  (1) 
0.6

>  <PUBCHEM_CONFORMER_DIVERSEORDER>  (1) 
1
5
4
6
2
3

>  <PUBCHEM_MMFF94_PARTIAL_CHARGES>  (1) 
15
1 -0.29
10 0.14
11 0.48
14 0.48
15 0.48
16 1.01
17 1.01
2 -0.29
3 -0.29
4 -0.29
5 -0.29
6 -0.29
7 -0.62
8 -0.62
9 -0.62

>  <PUBCHEM_EFFECTIVE_ROTOR_COUNT>  (1) 
3

>  <PUBCHEM_PHARMACOPHORE_FEATURES>  (1) 
5
3 10 12 13 hydrophobe
3 7 8 11 cation
3 7 9 14 cation
3 8 9 15 cation
6 7 8 9 11 14 15 rings

>  <PUBCHEM_HEAVY_ATOM_COUNT>  (1) 
17

>  <PUBCHEM_ATOM_DEF_STEREO_COUNT>  (1) 
0

>  <PUBCHEM_ATOM_UDEF_STEREO_COUNT>  (1) 
0

>  <PUBCHEM_BOND_DEF_STEREO_COUNT>  (1) 
0

>  <PUBCHEM_BOND_UDEF_STEREO_COUNT>  (1) 
0

>  <PUBCHEM_ISOTOPIC_ATOM_COUNT>  (1) 
0

>  <PUBCHEM_COMPONENT_COUNT>  (1) 
1

>  <PUBCHEM_CACTVS_TAUTO_COUNT>  (1) 
3

>  <PUBCHEM_CONFORMER_ID>  (1) 
00007EBD00000001

>  <PUBCHEM_MMFF94_ENERGY>  (1) 
27.7791

>  <PUBCHEM_FEATURE_SELFOVERLAP>  (1) 
28.189

>  <PUBCHEM_SHAPE_FINGERPRINT>  (1) 
1 1 17545600050353824100
12500047 106 18194674874818378490
12553582 1 18266185117665500098
12788726 201 18337375089549097763
13140716 1 18195244644478337232
13681431 1 17906731758357994949
14022347 108 18191042263893141754
14178342 30 18189043219232091506
15309172 13 17905335022008635896
15490181 7 18051972515633298027
15490181 8 17904484004413876615
16752209 62 18336254657098842454
16945 1 18338799034606415334
19591789 44 18051983515150135563
20097449 115 18192431002818210441
20510252 161 18341601594987219944
20600515 1 18194105546121305976
20645476 183 17972329408281962302
20645477 70 17185589664180892303
20711985 344 18341342140444940270
21524375 3 17907016175403075633
2255824 54 17399523810286058419
2334 1 17978791542739417144
23419403 2 17327684911698711252
23557571 272 18271518797432900780
23558518 356 18260831436878772722
23559900 14 18341319034227665488
23598291 2 17676777457563740550
23598294 1 18337123288707001184
2748010 2 18195518427179397277
3060560 45 17398384235350889540
3071541 236 18190443983411876728
3091708 16 9061223196004942265
31174 14 17540263463790473499
350125 39 18194412095291176818
352729 6 18122629349010889272
4175511 71 18050868885279688795
458136 41 17619936970677542433
6049 1 17989210339484730248
6992083 37 18057900227895973283
7364860 26 17332815353185994093
7615 1 17967251984208162156
81228 2 18409726261734162185
9981440 41 17053809622473820896

>  <PUBCHEM_SHAPE_MULTIPOLES>  (1) 
346.13
5.38
4.33
1.36
4.34
1.89
0
-2.44
0
-3.82
0
-0.14
0.24
0

>  <PUBCHEM_SHAPE_SELFOVERLAP>  (1) 
648.439

>  <PUBCHEM_SHAPE_VOLUME>  (1) 
212.3

>  <PUBCHEM_COORDINATE_TYPE>  (1) 
2
5
10

$$$$
