32459
     RDKit          3D

 23 24  0  0  0  0  0  0  0  0999 V2000
    5.1993   -1.7374    1.2760 Cl  0  0  0  0  0  0  0  0  0  0  0  0
    3.4503   -3.7435    0.1704 Cl  0  0  0  0  0  0  0  0  0  0  0  0
    4.7911   -1.9170   -1.6165 Cl  0  0  0  0  0  0  0  0  0  0  0  0
    3.2449    2.9217   -1.7296 Cl  0  0  0  0  0  0  0  0  0  0  0  0
    1.0849    3.7041    0.0109 Cl  0  0  0  0  0  0  0  0  0  0  0  0
    3.6645    3.1117    1.1606 Cl  0  0  0  0  0  0  0  0  0  0  0  0
   -7.8539   -0.5560    0.0764 Cl  0  0  0  0  0  0  0  0  0  0  0  0
   -0.9858   -1.0431    0.6225 S   0  0  0  0  0  0  0  0  0  0  0  0
    0.8978    0.8066    0.2305 N   0  0  0  0  0  0  0  0  0  0  0  0
    1.6251   -1.4794    0.2816 N   0  0  0  0  0  0  0  0  0  0  0  0
    3.2206    0.2800   -0.0606 N   0  0  0  0  0  0  0  0  0  0  0  0
   -3.3916    0.0596   -0.1570 C   0  0  0  0  0  0  0  0  0  0  0  0
   -1.9162    0.2638   -0.2345 C   0  0  0  0  0  0  0  0  0  0  0  0
    0.7003   -0.5129    0.3466 C   0  0  0  0  0  0  0  0  0  0  0  0
   -4.1170    0.6085    0.9004 C   0  0  0  0  0  0  0  0  0  0  0  0
   -4.0461   -0.6795   -1.1422 C   0  0  0  0  0  0  0  0  0  0  0  0
    2.1852    1.1302    0.0278 C   0  0  0  0  0  0  0  0  0  0  0  0
    2.8654   -1.0078    0.0755 C   0  0  0  0  0  0  0  0  0  0  0  0
   -5.4969    0.4181    0.9726 C   0  0  0  0  0  0  0  0  0  0  0  0
   -5.4261   -0.8701   -1.0700 C   0  0  0  0  0  0  0  0  0  0  0  0
    3.9587   -2.0176   -0.0125 C   0  0  0  0  0  0  0  0  0  0  0  0
    2.4969    2.5811   -0.1163 C   0  0  0  0  0  0  0  0  0  0  0  0
   -6.1515   -0.3212   -0.0127 C   0  0  0  0  0  0  0  0  0  0  0  0
  1 21  1  0
  2 21  1  0
  3 21  1  0
  4 22  1  0
  5 22  1  0
  6 22  1  0
  7 23  1  0
  8 13  1  0
  8 14  1  0
  9 14  2  0
  9 17  1  0
 10 14  1  0
 10 18  2  0
 11 17  2  0
 11 18  1  0
 12 13  1  0
 12 15  2  0
 12 16  1  0
 15 19  1  0
 16 20  2  0
 17 22  1  0
 18 21  1  0
 19 23  2  0
 20 23  1  0
M  END
>  <PUBCHEM_COMPOUND_CID>  (1) 
32459

>  <PUBCHEM_CONFORMER_RMSD>  (1) 
0.8

>  <PUBCHEM_CONFORMER_DIVERSEORDER>  (1) 
1
17
13
4
19
12
16
20
18
5
21
23
11
8
24
10
6
22
14
2
7
15
3
9

>  <PUBCHEM_MMFF94_PARTIAL_CHARGES>  (1) 
27
1 -0.29
10 -0.62
11 -0.62
12 -0.14
13 0.37
14 0.72
15 -0.15
16 -0.15
17 0.48
18 0.48
19 -0.15
2 -0.29
20 -0.15
21 1.01
22 1.01
23 0.18
26 0.15
27 0.15
28 0.15
29 0.15
3 -0.29
4 -0.29
5 -0.29
6 -0.29
7 -0.18
8 -0.33
9 -0.62

>  <PUBCHEM_EFFECTIVE_ROTOR_COUNT>  (1) 
5

>  <PUBCHEM_PHARMACOPHORE_FEATURES>  (1) 
5
3 10 11 18 cation
3 9 10 14 cation
3 9 11 17 cation
6 12 15 16 19 20 23 rings
6 9 10 11 14 17 18 rings

>  <PUBCHEM_HEAVY_ATOM_COUNT>  (1) 
23

>  <PUBCHEM_ATOM_DEF_STEREO_COUNT>  (1) 
0

>  <PUBCHEM_ATOM_UDEF_STEREO_COUNT>  (1) 
0

>  <PUBCHEM_BOND_DEF_STEREO_COUNT>  (1) 
0

>  <PUBCHEM_BOND_UDEF_STEREO_COUNT>  (1) 
0

>  <PUBCHEM_ISOTOPIC_ATOM_COUNT>  (1) 
0

>  <PUBCHEM_COMPONENT_COUNT>  (1) 
1

>  <PUBCHEM_CACTVS_TAUTO_COUNT>  (1) 
1

>  <PUBCHEM_CONFORMER_ID>  (1) 
00007ECB00000001

>  <PUBCHEM_MMFF94_ENERGY>  (1) 
43.4462

>  <PUBCHEM_FEATURE_SELFOVERLAP>  (1) 
28.157

>  <PUBCHEM_SHAPE_FINGERPRINT>  (1) 
10366900 7 17531251621670206731
10411042 1 18266458694703729746
10595046 47 18201435943669103393
12107183 9 18127419943365903873
12166972 35 18131070402904124595
12236239 1 18201720674521070841
12403259 415 17603860105667656399
12616971 3 18201717362816566255
12730499 353 18263935503900030225
13009979 54 17845662442994035673
13533116 47 18411420635518324653
13955234 65 18412258475762386944
14170010 4 18410290328911739456
14739800 52 17345743226190753736
15081414 286 18260828245649760077
15250474 111 17987503957484224791
15420108 30 17913471709677127112
17844677 252 18410014308759850325
1813 80 18199193892998819710
18222031 100 18270967839017769738
18785283 64 18260268585767095068
20028762 73 18272930501427880047
20369508 70 18335979792551599490
20554085 129 17773308153533730760
20612939 158 18409169926394236989
20645477 70 18335419079785366619
21033648 29 17458330949828050405
21049683 271 18334019372278195636
21344244 78 18201425965822149048
21478907 32 17977383837565680690
21641784 216 17824282409886264972
21709351 56 18340484461804778709
221357 26 18334012761817144205
23557571 272 14692301594561144091
23559900 14 18410008874861512138
24771293 8 18272920645036182624
249057 25 18060424595477741409
3004659 81 18060423499559609879
312423 11 18342750602256120609
338550 245 17561080310990648119
3421961 26 18410852149051443464
4073 2 18263083387089984531
46194498 28 17967253100308673164
474 4 18265049326660036433
5104073 3 18338518642272862899
513532 50 17917439773858795404
5281201 14 18333728005443409981
5385378 56 18338792433616624456
5912855 24 18056477490310424735
59755656 215 18408604799225212740
6025842 7 18409169947747598486
67856867 119 18272925059497730177
7495541 125 18040442078837405586
9841814 1 18260822675319179154
9971528 1 18343299245678506906
9981440 41 17691114259628476856

>  <PUBCHEM_SHAPE_MULTIPOLES>  (1) 
475.32
16
3.93
1.25
30.45
2.12
0.3
-6.31
0.29
-8.85
0.12
-0.81
0.16
-0.63

>  <PUBCHEM_SHAPE_SELFOVERLAP>  (1) 
917.516

>  <PUBCHEM_SHAPE_VOLUME>  (1) 
291.2

>  <PUBCHEM_COORDINATE_TYPE>  (1) 
2
5
10

$$$$
