32453
     RDKit          3D

 21 22  0  0  0  0  0  0  0  0999 V2000
   -2.1218    0.0004    2.5377 Cl  0  0  0  0  0  0  0  0  0  0  0  0
    1.7299   -3.3950   -1.5151 Cl  0  0  0  0  0  0  0  0  0  0  0  0
    3.8839   -2.2768    0.0394 Cl  0  0  0  0  0  0  0  0  0  0  0  0
    1.6016   -3.3919    1.4088 Cl  0  0  0  0  0  0  0  0  0  0  0  0
    1.6136    3.3930    1.4123 Cl  0  0  0  0  0  0  0  0  0  0  0  0
    3.8836    2.2778    0.0304 Cl  0  0  0  0  0  0  0  0  0  0  0  0
    1.7157    3.3942   -1.5126 Cl  0  0  0  0  0  0  0  0  0  0  0  0
   -0.0035    1.1997   -0.1191 N   0  0  0  0  0  0  0  0  0  0  0  0
   -0.0033   -1.1999   -0.1189 N   0  0  0  0  0  0  0  0  0  0  0  0
    2.0730    0.0000   -0.0371 N   0  0  0  0  0  0  0  0  0  0  0  0
   -2.0442   -0.0003   -0.1983 C   0  0  0  0  0  0  0  0  0  0  0  0
   -0.5946   -0.0002   -0.1423 C   0  0  0  0  0  0  0  0  0  0  0  0
    1.3361    1.1221   -0.0664 C   0  0  0  0  0  0  0  0  0  0  0  0
    1.3362   -1.1220   -0.0662 C   0  0  0  0  0  0  0  0  0  0  0  0
   -2.8249   -0.0006    0.9576 C   0  0  0  0  0  0  0  0  0  0  0  0
   -2.6550    0.0001   -1.4524 C   0  0  0  0  0  0  0  0  0  0  0  0
    2.0820   -2.4125   -0.0355 C   0  0  0  0  0  0  0  0  0  0  0  0
    2.0813    2.4128   -0.0364 C   0  0  0  0  0  0  0  0  0  0  0  0
   -4.2163   -0.0007    0.8594 C   0  0  0  0  0  0  0  0  0  0  0  0
   -4.0463    0.0001   -1.5506 C   0  0  0  0  0  0  0  0  0  0  0  0
   -4.8270   -0.0003   -0.3946 C   0  0  0  0  0  0  0  0  0  0  0  0
  1 15  1  0
  2 17  1  0
  3 17  1  0
  4 17  1  0
  5 18  1  0
  6 18  1  0
  7 18  1  0
  8 12  2  0
  8 13  1  0
  9 12  1  0
  9 14  2  0
 10 13  2  0
 10 14  1  0
 11 12  1  0
 11 15  2  0
 11 16  1  0
 13 18  1  0
 14 17  1  0
 15 19  1  0
 16 20  2  0
 19 21  2  0
 20 21  1  0
M  END
>  <PUBCHEM_COMPOUND_CID>  (1) 
32453

>  <PUBCHEM_CONFORMER_RMSD>  (1) 
0.6

>  <PUBCHEM_CONFORMER_DIVERSEORDER>  (1) 
1
12
8
9
4
5
6
2
11
7
3
10

>  <PUBCHEM_MMFF94_PARTIAL_CHARGES>  (1) 
24
1 -0.18
10 -0.62
12 0.62
13 0.48
14 0.48
15 0.18
16 -0.15
17 1.01
18 1.01
19 -0.15
2 -0.29
20 -0.15
21 -0.15
22 0.15
23 0.15
24 0.15
25 0.15
3 -0.29
4 -0.29
5 -0.29
6 -0.29
7 -0.29
8 -0.62
9 -0.62

>  <PUBCHEM_EFFECTIVE_ROTOR_COUNT>  (1) 
3

>  <PUBCHEM_PHARMACOPHORE_FEATURES>  (1) 
5
3 8 10 13 cation
3 8 9 12 cation
3 9 10 14 cation
6 11 15 16 19 20 21 rings
6 8 9 10 12 13 14 rings

>  <PUBCHEM_HEAVY_ATOM_COUNT>  (1) 
21

>  <PUBCHEM_ATOM_DEF_STEREO_COUNT>  (1) 
0

>  <PUBCHEM_ATOM_UDEF_STEREO_COUNT>  (1) 
0

>  <PUBCHEM_BOND_DEF_STEREO_COUNT>  (1) 
0

>  <PUBCHEM_BOND_UDEF_STEREO_COUNT>  (1) 
0

>  <PUBCHEM_ISOTOPIC_ATOM_COUNT>  (1) 
0

>  <PUBCHEM_COMPONENT_COUNT>  (1) 
1

>  <PUBCHEM_CACTVS_TAUTO_COUNT>  (1) 
1

>  <PUBCHEM_CONFORMER_ID>  (1) 
00007EC500000001

>  <PUBCHEM_MMFF94_ENERGY>  (1) 
48.4222

>  <PUBCHEM_FEATURE_SELFOVERLAP>  (1) 
28.163

>  <PUBCHEM_SHAPE_FINGERPRINT>  (1) 
10165383 225 17541141904307610513
11582403 64 16742209225342069309
12160290 23 16967463591069390270
12236239 1 17775003488424533719
12363563 72 18046908173560889987
12553582 1 18196657293614053854
12707595 3 18190745236903214111
12788726 201 17253154125257184970
13009979 54 17417258619394018371
13134695 92 18263073327812262662
13140716 1 18266170824066554186
133893 2 18338813250668505993
13533116 47 18412265056522780547
13583140 156 18271539692807453585
13681431 1 18338526226841825660
13911987 19 18043555866335869510
15502722 9 18408884057539271775
15842332 3 17775568641780619455
16945 1 18410857663488582750
17138139 8 17339532197107198023
17818456 19 17414723068692942713
1813 80 17984998002489863254
18219364 16 18191877935669238649
18785283 64 18260553376231763388
19049666 15 17822849771809831713
19765921 60 17700685439934575697
204376 136 18192995052288865476
20645477 70 18410566276065249207
20671657 53 18192426373139104651
20832881 197 17825949213673954187
21041028 32 18269563727808227760
21524375 3 18122624122130603212
2255824 54 18342176678334080622
22907989 373 17039799928253052092
23419403 2 17607773194230577294
23526113 38 17822014159841303259
23557571 272 17691676789218447406
23559900 14 17240486883764074655
23598288 3 17256552724531317742
23598291 2 17775014448595666653
2748010 2 18048608297936379750
3060560 45 18337950203282593756
3091708 16 9649183757835323994
350125 39 17905051704653855392
458136 41 18191883411762934501
474 4 18269273632911333601
5845 1 11749149914759780764
6049 1 17894352142677654317
633830 44 17914633871175932357
6992083 37 17413322273451022315
7364860 26 18413106165010023292
7471813 234 18058998502435855481
7615 1 17775006756831479129
77492 1 17775849012834618933
81228 2 17402327075537144096
8272917 22 18411421713264985325
84936 182 18129939104292436689

>  <PUBCHEM_SHAPE_MULTIPOLES>  (1) 
430.32
7.43
4.34
1.71
7.08
0
-0.49
0
0.67
-7.33
0.16
1.04
0
0

>  <PUBCHEM_SHAPE_SELFOVERLAP>  (1) 
850.256

>  <PUBCHEM_SHAPE_VOLUME>  (1) 
251.6

>  <PUBCHEM_COORDINATE_TYPE>  (1) 
2
5
10

$$$$
