32456
     RDKit          3D

 20 20  0  0  0  0  0  0  0  0999 V2000
   -4.6242   -0.9282   -1.4739 Cl  0  0  0  0  0  0  0  0  0  0  0  0
   -3.6773   -3.2155    0.0021 Cl  0  0  0  0  0  0  0  0  0  0  0  0
   -4.6304   -0.9102    1.4527 Cl  0  0  0  0  0  0  0  0  0  0  0  0
   -1.7687    3.2882    1.4636 Cl  0  0  0  0  0  0  0  0  0  0  0  0
    0.7151    3.2494    0.0022 Cl  0  0  0  0  0  0  0  0  0  0  0  0
   -1.7707    3.2836   -1.4630 Cl  0  0  0  0  0  0  0  0  0  0  0  0
    1.3732   -1.9242    0.0111 S   0  0  0  0  0  0  0  0  0  0  0  0
    0.0764    0.4085    0.0051 N   0  0  0  0  0  0  0  0  0  0  0  0
   -1.2730   -1.5756    0.0028 N   0  0  0  0  0  0  0  0  0  0  0  0
   -2.3167    0.5850   -0.0050 N   0  0  0  0  0  0  0  0  0  0  0  0
    5.1542   -0.2324    0.0227 C   0  0  0  0  0  0  0  0  0  0  0  0
    4.0552   -1.2983    0.0155 C   0  0  0  0  0  0  0  0  0  0  0  0
    6.5447   -0.8663   -0.0097 C   0  0  0  0  0  0  0  0  0  0  0  0
    2.6714   -0.6546    0.0118 C   0  0  0  0  0  0  0  0  0  0  0  0
    7.6379    0.1900   -0.0368 C   0  0  0  0  0  0  0  0  0  0  0  0
   -0.1066   -0.9181    0.0067 C   0  0  0  0  0  0  0  0  0  0  0  0
   -1.0759    1.0981   -0.0007 C   0  0  0  0  0  0  0  0  0  0  0  0
   -2.3378   -0.7577   -0.0027 C   0  0  0  0  0  0  0  0  0  0  0  0
   -3.6799   -1.4070   -0.0051 C   0  0  0  0  0  0  0  0  0  0  0  0
   -0.9670    2.5851    0.0004 C   0  0  0  0  0  0  0  0  0  0  0  0
  1 19  1  0
  2 19  1  0
  3 19  1  0
  4 20  1  0
  5 20  1  0
  6 20  1  0
  7 14  1  0
  7 16  1  0
  8 16  2  0
  8 17  1  0
  9 16  1  0
  9 18  2  0
 10 17  2  0
 10 18  1  0
 11 12  1  0
 11 13  1  0
 12 14  1  0
 13 15  1  0
 17 20  1  0
 18 19  1  0
M  END
>  <PUBCHEM_COMPOUND_CID>  (1) 
32456

>  <PUBCHEM_CONFORMER_RMSD>  (1) 
0.8

>  <PUBCHEM_CONFORMER_DIVERSEORDER>  (1) 
1
49
56
2
34
55
32
7
11
57
16
8
59
37
61
24
62
54
19
5
20
12
52
58
48
44
3
23
51
18
21
41
4
35
10
60
6
13
28
14
27
17
31
38
22
53
15
33
43
47
29
30
45
9
36
26
25
39
46
42
50
40

>  <PUBCHEM_MMFF94_PARTIAL_CHARGES>  (1) 
16
1 -0.29
10 -0.62
14 0.23
16 0.72
17 0.48
18 0.48
19 1.01
2 -0.29
20 1.01
3 -0.29
4 -0.29
5 -0.29
6 -0.29
7 -0.33
8 -0.62
9 -0.62

>  <PUBCHEM_EFFECTIVE_ROTOR_COUNT>  (1) 
7

>  <PUBCHEM_PHARMACOPHORE_FEATURES>  (1) 
6
1 15 hydrophobe
3 8 10 17 cation
3 8 9 16 cation
3 9 10 18 cation
5 7 11 12 13 14 hydrophobe
6 8 9 10 16 17 18 rings

>  <PUBCHEM_HEAVY_ATOM_COUNT>  (1) 
20

>  <PUBCHEM_ATOM_DEF_STEREO_COUNT>  (1) 
0

>  <PUBCHEM_ATOM_UDEF_STEREO_COUNT>  (1) 
0

>  <PUBCHEM_BOND_DEF_STEREO_COUNT>  (1) 
0

>  <PUBCHEM_BOND_UDEF_STEREO_COUNT>  (1) 
0

>  <PUBCHEM_ISOTOPIC_ATOM_COUNT>  (1) 
0

>  <PUBCHEM_COMPONENT_COUNT>  (1) 
1

>  <PUBCHEM_CACTVS_TAUTO_COUNT>  (1) 
1

>  <PUBCHEM_CONFORMER_ID>  (1) 
00007EC800000001

>  <PUBCHEM_MMFF94_ENERGY>  (1) 
24.5828

>  <PUBCHEM_FEATURE_SELFOVERLAP>  (1) 
33.233

>  <PUBCHEM_SHAPE_FINGERPRINT>  (1) 
10411042 1 18266459991303973995
10670039 82 18335718109422070806
11045515 52 18186518825785067789
11101153 10 18336833091232604164
11578080 2 15265958554023502921
12166972 35 17676209117468307982
12390115 104 18128268796248613840
12553582 1 18411141337937461495
12596602 18 17458059362087705226
12788726 201 18260822666265189954
13140716 1 18267593583555025995
13257819 101 13973139588023694179
14508225 48 18338223947133678765
14790565 3 17476643079038516688
16087824 20 18337670799229628005
167882 2 18047471419924843340
17492 89 17835238227166663195
20510252 161 18339643321860249786
20600515 1 18059029383219091303
21029758 27 18335426793931628571
21041028 32 18340782515482118953
21236236 1 18340487768723965488
21304253 13 18272094907124049473
21344244 246 17835789069168687223
2297311 6 18341339937701879734
23402539 116 18412823594595671358
23557571 272 18272653403011358934
23559900 14 18337944709787040378
283562 15 18337670824017931611
335352 9 18410570708977816447
350125 39 18411985763036346704
352729 6 17618215114410015163
68521 5 18408601439911434191
7364860 26 18052256495050767395
81228 2 18267869368116430411

>  <PUBCHEM_SHAPE_MULTIPOLES>  (1) 
411.72
13.06
4.07
1.09
30.21
3.78
-0.01
-7.59
-0.1
-4.09
0.01
-1.5
0.55
-0.02

>  <PUBCHEM_SHAPE_SELFOVERLAP>  (1) 
752.568

>  <PUBCHEM_SHAPE_VOLUME>  (1) 
263

>  <PUBCHEM_COORDINATE_TYPE>  (1) 
2
5
10

$$$$
