32455
     RDKit          3D

 19 19  0  0  0  0  0  0  0  0999 V2000
    4.1833    1.1377   -1.2039 Cl  0  0  0  0  0  0  0  0  0  0  0  0
    2.8898    3.3704    0.0801 Cl  0  0  0  0  0  0  0  0  0  0  0  0
    3.8424    1.1823    1.7025 Cl  0  0  0  0  0  0  0  0  0  0  0  0
    1.3401   -3.2356    1.5075 Cl  0  0  0  0  0  0  0  0  0  0  0  0
   -0.9473   -3.4314   -0.2350 Cl  0  0  0  0  0  0  0  0  0  0  0  0
    1.6901   -3.2928   -1.3976 Cl  0  0  0  0  0  0  0  0  0  0  0  0
   -2.0081    1.6697   -0.4621 S   0  0  0  0  0  0  0  0  0  0  0  0
   -0.5397   -0.5484   -0.2445 N   0  0  0  0  0  0  0  0  0  0  0  0
    0.6394    1.5393   -0.1501 N   0  0  0  0  0  0  0  0  0  0  0  0
    1.8439   -0.5281    0.0307 N   0  0  0  0  0  0  0  0  0  0  0  0
   -4.6481    0.9756    0.3273 C   0  0  0  0  0  0  0  0  0  0  0  0
   -3.1794    0.5183    0.3216 C   0  0  0  0  0  0  0  0  0  0  0  0
   -5.1951    1.2267   -1.0795 C   0  0  0  0  0  0  0  0  0  0  0  0
   -5.5625    0.0203    1.0972 C   0  0  0  0  0  0  0  0  0  0  0  0
   -0.4642    0.7889   -0.2625 C   0  0  0  0  0  0  0  0  0  0  0  0
    0.6558   -1.1411   -0.0943 C   0  0  0  0  0  0  0  0  0  0  0  0
    1.7585    0.8115   -0.0059 C   0  0  0  0  0  0  0  0  0  0  0  0
    3.0360    1.5684    0.1289 C   0  0  0  0  0  0  0  0  0  0  0  0
    0.6653   -2.6316   -0.0604 C   0  0  0  0  0  0  0  0  0  0  0  0
  1 18  1  0
  2 18  1  0
  3 18  1  0
  4 19  1  0
  5 19  1  0
  6 19  1  0
  7 12  1  0
  7 15  1  0
  8 15  2  0
  8 16  1  0
  9 15  1  0
  9 17  2  0
 10 16  2  0
 10 17  1  0
 11 12  1  0
 11 13  1  0
 11 14  1  0
 16 19  1  0
 17 18  1  0
M  END
>  <PUBCHEM_COMPOUND_CID>  (1) 
32455

>  <PUBCHEM_CONFORMER_RMSD>  (1) 
0.6

>  <PUBCHEM_CONFORMER_DIVERSEORDER>  (1) 
1
23
40
45
27
22
39
24
4
44
35
6
25
18
26
36
43
14
2
34
19
8
37
12
28
16
20
42
11
7
38
10
17
15
29
33
5
9
41
30
3
13
31
32
21

>  <PUBCHEM_MMFF94_PARTIAL_CHARGES>  (1) 
16
1 -0.29
10 -0.62
12 0.23
15 0.72
16 0.48
17 0.48
18 1.01
19 1.01
2 -0.29
3 -0.29
4 -0.29
5 -0.29
6 -0.29
7 -0.33
8 -0.62
9 -0.62

>  <PUBCHEM_EFFECTIVE_ROTOR_COUNT>  (1) 
5

>  <PUBCHEM_PHARMACOPHORE_FEATURES>  (1) 
5
3 11 13 14 hydrophobe
3 8 10 16 cation
3 8 9 15 cation
3 9 10 17 cation
6 8 9 10 15 16 17 rings

>  <PUBCHEM_HEAVY_ATOM_COUNT>  (1) 
19

>  <PUBCHEM_ATOM_DEF_STEREO_COUNT>  (1) 
0

>  <PUBCHEM_ATOM_UDEF_STEREO_COUNT>  (1) 
0

>  <PUBCHEM_BOND_DEF_STEREO_COUNT>  (1) 
0

>  <PUBCHEM_BOND_UDEF_STEREO_COUNT>  (1) 
0

>  <PUBCHEM_ISOTOPIC_ATOM_COUNT>  (1) 
0

>  <PUBCHEM_COMPONENT_COUNT>  (1) 
1

>  <PUBCHEM_CACTVS_TAUTO_COUNT>  (1) 
1

>  <PUBCHEM_CONFORMER_ID>  (1) 
00007EC700000001

>  <PUBCHEM_MMFF94_ENERGY>  (1) 
30.5271

>  <PUBCHEM_FEATURE_SELFOVERLAP>  (1) 
28.155

>  <PUBCHEM_SHAPE_FINGERPRINT>  (1) 
10090160 65 18410848889329872021
12532896 13 18265894842537741660
12553582 1 17402054392442988231
12592029 89 18335419049868315032
12730499 353 18335990800731984265
12788726 201 17617370027880801010
13140716 1 18337102496728344072
13533116 47 18200032821077759305
13583140 156 16734642329984187605
13911882 115 18263103109864650987
14790565 3 18264497367338301093
14863182 85 18262817215023350479
14955137 171 18122899837857590970
15375358 24 18113898243777458889
19591789 44 18410016498734190054
204376 136 18339360872284814673
20600515 1 16172518363298165352
20645477 70 18266171748017292319
21054139 6 18128234853000585775
21197605 99 18193288605610762587
21524375 3 18409449197989388804
221490 88 18193282884243967975
2255824 54 18268149756129103879
22956985 138 17897719864841721938
23419403 2 17179466132027912490
23557571 272 17764881577785411204
23558518 356 17831857224378095868
23559900 14 18120083984346705465
2748010 2 17618483399478745974
3060560 45 18409451388554988244
33824 294 18409167684563674859
352729 6 18339364196283403780
458136 41 18412553097644578669
465052 167 17749111097159630944
58807428 26 18337371821479750178
59755656 215 18335983064931297580
633830 44 18201438120574587853
7364860 26 18269837514809036398
81228 2 17759794145640349264
81539 233 18334013873981428783
8272917 22 18341054000095925517
9709674 26 18191303780837004557
9841814 1 18047190748270534443
9999458 23 18407763638084811884

>  <PUBCHEM_SHAPE_MULTIPOLES>  (1) 
391.14
9.11
4.39
1.27
12.98
4.08
0.21
-7.23
0.93
-3.34
-0.23
-0.6
0.4
0.55

>  <PUBCHEM_SHAPE_SELFOVERLAP>  (1) 
716.665

>  <PUBCHEM_SHAPE_VOLUME>  (1) 
250.3

>  <PUBCHEM_COORDINATE_TYPE>  (1) 
2
5
10

$$$$
