32450
     RDKit          3D

 23 24  0  0  0  0  0  0  0  0999 V2000
    1.3688    0.0018    2.8346 Cl  0  0  0  0  0  0  0  0  0  0  0  0
   -2.0828    3.3950   -1.5627 Cl  0  0  0  0  0  0  0  0  0  0  0  0
   -4.3737    2.2773   -0.2175 Cl  0  0  0  0  0  0  0  0  0  0  0  0
   -2.2301    3.3922    1.3602 Cl  0  0  0  0  0  0  0  0  0  0  0  0
   -2.2437   -3.3928    1.3634 Cl  0  0  0  0  0  0  0  0  0  0  0  0
   -4.3734   -2.2772   -0.2260 Cl  0  0  0  0  0  0  0  0  0  0  0  0
   -2.0702   -3.3942   -1.5581 Cl  0  0  0  0  0  0  0  0  0  0  0  0
    4.5152   -0.0005   -2.5626 Cl  0  0  0  0  0  0  0  0  0  0  0  0
    6.0646    0.0010    0.2770 Cl  0  0  0  0  0  0  0  0  0  0  0  0
   -0.4893   -1.1998   -0.0093 N   0  0  0  0  0  0  0  0  0  0  0  0
   -0.4890    1.1996   -0.0094 N   0  0  0  0  0  0  0  0  0  0  0  0
   -2.5641    0.0001   -0.1231 N   0  0  0  0  0  0  0  0  0  0  0  0
    1.5500   -0.0003    0.1035 C   0  0  0  0  0  0  0  0  0  0  0  0
    0.1014   -0.0001    0.0229 C   0  0  0  0  0  0  0  0  0  0  0  0
   -1.8279   -1.1221   -0.0829 C   0  0  0  0  0  0  0  0  0  0  0  0
   -1.8276    1.1221   -0.0830 C   0  0  0  0  0  0  0  0  0  0  0  0
    2.2183    0.0001    1.3278 C   0  0  0  0  0  0  0  0  0  0  0  0
    2.2764   -0.0009   -1.0873 C   0  0  0  0  0  0  0  0  0  0  0  0
   -2.5726    2.4128   -0.1227 C   0  0  0  0  0  0  0  0  0  0  0  0
   -2.5729   -2.4126   -0.1231 C   0  0  0  0  0  0  0  0  0  0  0  0
    3.6708   -0.0010   -1.0538 C   0  0  0  0  0  0  0  0  0  0  0  0
    3.6128    0.0000    1.3614 C   0  0  0  0  0  0  0  0  0  0  0  0
    4.3390   -0.0007    0.1706 C   0  0  0  0  0  0  0  0  0  0  0  0
  1 17  1  0
  2 19  1  0
  3 19  1  0
  4 19  1  0
  5 20  1  0
  6 20  1  0
  7 20  1  0
  8 21  1  0
  9 23  1  0
 10 14  2  0
 10 15  1  0
 11 14  1  0
 11 16  2  0
 12 15  2  0
 12 16  1  0
 13 14  1  0
 13 17  2  0
 13 18  1  0
 15 20  1  0
 16 19  1  0
 17 22  1  0
 18 21  2  0
 21 23  1  0
 22 23  2  0
M  END
>  <PUBCHEM_COMPOUND_CID>  (1) 
32450

>  <PUBCHEM_CONFORMER_RMSD>  (1) 
0.6

>  <PUBCHEM_CONFORMER_DIVERSEORDER>  (1) 
1
7
5
6
2
3
4

>  <PUBCHEM_MMFF94_PARTIAL_CHARGES>  (1) 
24
1 -0.18
10 -0.62
11 -0.62
12 -0.62
14 0.62
15 0.48
16 0.48
17 0.18
18 -0.15
19 1.01
2 -0.29
20 1.01
21 0.18
22 -0.15
23 0.18
24 0.15
25 0.15
3 -0.29
4 -0.29
5 -0.29
6 -0.29
7 -0.29
8 -0.18
9 -0.18

>  <PUBCHEM_EFFECTIVE_ROTOR_COUNT>  (1) 
3

>  <PUBCHEM_PHARMACOPHORE_FEATURES>  (1) 
5
3 10 11 14 cation
3 10 12 15 cation
3 11 12 16 cation
6 10 11 12 14 15 16 rings
6 13 17 18 21 22 23 rings

>  <PUBCHEM_HEAVY_ATOM_COUNT>  (1) 
23

>  <PUBCHEM_ATOM_DEF_STEREO_COUNT>  (1) 
0

>  <PUBCHEM_ATOM_UDEF_STEREO_COUNT>  (1) 
0

>  <PUBCHEM_BOND_DEF_STEREO_COUNT>  (1) 
0

>  <PUBCHEM_BOND_UDEF_STEREO_COUNT>  (1) 
0

>  <PUBCHEM_ISOTOPIC_ATOM_COUNT>  (1) 
0

>  <PUBCHEM_COMPONENT_COUNT>  (1) 
1

>  <PUBCHEM_CACTVS_TAUTO_COUNT>  (1) 
1

>  <PUBCHEM_CONFORMER_ID>  (1) 
00007EC200000001

>  <PUBCHEM_MMFF94_ENERGY>  (1) 
51.5288

>  <PUBCHEM_FEATURE_SELFOVERLAP>  (1) 
28.163

>  <PUBCHEM_SHAPE_FINGERPRINT>  (1) 
10165383 225 17912390661491751761
10319926 262 18270095978237056346
11796584 16 18271527482342511926
12160290 23 18338786858637628469
12173636 292 18196934362165218133
12236239 1 17749387062083222848
12363563 72 18051125088527009103
12553582 1 18191585461539999027
12616971 3 17167584882513616356
12714826 92 18201731690321290558
12788726 201 18334284392829403347
13140716 1 18266744769363074145
133893 2 17257647825449265809
13583140 156 17917416632595797654
13681431 1 17616521196477558539
14022347 108 18191300679522704171
14508225 48 18265881639903356269
15042514 8 18408326596875976835
15463212 79 18187920638765048616
15842332 3 17676482831196534186
16752209 62 18335405890415729683
1813 80 17981615071689195927
20600515 1 17757807284979001043
20642791 239 17532939522406170821
20645477 56 18339923718905832784
21033650 10 18265638549392020476
21065201 7 18411983542685694270
21285901 2 18201169818615891839
21524375 3 18122900933047110907
21756936 100 17097245829513740524
21792961 116 17632866305035616100
22182313 1 17704078391347462630
22620623 9 18342747337664192511
22907989 373 18261384538492985045
23366157 5 17253999650194784305
23419403 2 17345457366626926801
23526113 38 17131266857748557570
23557571 272 18343018934543182760
23558518 356 17751656561199152836
23559900 14 18129946655672702214
23598288 3 18188221995340667935
23598291 2 17676204633068912726
25147074 1 17895462649258366378
266924 1 17749658636807135562
314173 85 18198914784454409603
458136 41 17765447452394971377
5486654 2 18340761530362029397
59755656 520 18267302032331694677
6049 1 17846500369854802848
621550 5 17773334519387829498
7615 1 17676198087744449380
77492 1 17676203568096228298
7970288 3 18047752886502361530
81228 2 18410853296050213747

>  <PUBCHEM_SHAPE_MULTIPOLES>  (1) 
475.21
9.7
4
1.99
11.09
0
0.28
0
-1.89
-8.43
-0.42
1.78
0
0.01

>  <PUBCHEM_SHAPE_SELFOVERLAP>  (1) 
928.587

>  <PUBCHEM_SHAPE_VOLUME>  (1) 
282.2

>  <PUBCHEM_COORDINATE_TYPE>  (1) 
2
5
10

$$$$
