32467
     RDKit          3D

 15 15  0  0  0  0  0  0  0  0999 V2000
   -3.1289   -0.4950    0.0230 O   0  0  0  0  0  0  0  0  0  0  0  0
   -2.9003    1.7594    0.3717 O   0  0  0  0  0  0  0  0  0  0  0  0
    3.1242   -0.0903   -0.7695 N   0  0  0  0  0  0  0  0  0  0  0  0
    5.2501   -0.5541    0.0791 N   0  0  0  0  0  0  0  0  0  0  0  0
    3.5253   -0.4976    1.5724 N   0  0  0  0  0  0  0  0  0  0  0  0
   -0.9741    0.4688   -0.1107 C   0  0  0  0  0  0  0  0  0  0  0  0
    1.7557    0.0960   -0.5490 C   0  0  0  0  0  0  0  0  0  0  0  0
   -0.1027    1.5561   -0.0469 C   0  0  0  0  0  0  0  0  0  0  0  0
   -0.4807   -0.8049   -0.3936 C   0  0  0  0  0  0  0  0  0  0  0  0
    1.2621    1.3697   -0.2661 C   0  0  0  0  0  0  0  0  0  0  0  0
    0.8843   -0.9914   -0.6128 C   0  0  0  0  0  0  0  0  0  0  0  0
   -2.3971    0.6631    0.1176 C   0  0  0  0  0  0  0  0  0  0  0  0
   -4.5397   -0.3753    0.2373 C   0  0  0  0  0  0  0  0  0  0  0  0
   -5.1777   -1.7407    0.0948 C   0  0  0  0  0  0  0  0  0  0  0  0
    3.8995   -0.3638    0.2527 C   0  0  0  0  0  0  0  0  0  0  0  0
  1 12  1  0
  1 13  1  0
  2 12  2  0
  3  7  1  0
  3 15  2  3
  4 15  1  0
  5 15  1  0
  6  8  2  0
  6  9  1  0
  6 12  1  0
  7 10  2  0
  7 11  1  0
  8 10  1  0
  9 11  2  0
 13 14  1  0
M  END
>  <PUBCHEM_COMPOUND_CID>  (1) 
32467

>  <PUBCHEM_CONFORMER_RMSD>  (1) 
0.6

>  <PUBCHEM_CONFORMER_DIVERSEORDER>  (1) 
1
5
2
6
3
12
8
10
11
7
13
4
9

>  <PUBCHEM_MMFF94_PARTIAL_CHARGES>  (1) 
22
1 -0.43
10 -0.15
11 -0.15
12 0.63
13 0.28
15 0.55
16 0.15
17 0.15
18 0.15
19 0.15
2 -0.57
25 0.4
26 0.4
27 0.4
28 0.4
3 -0.63
4 -0.85
5 -0.85
6 0.09
7 0.18
8 -0.15
9 -0.15

>  <PUBCHEM_EFFECTIVE_ROTOR_COUNT>  (1) 
4

>  <PUBCHEM_PHARMACOPHORE_FEATURES>  (1) 
5
1 2 acceptor
1 4 donor
1 5 donor
4 3 4 5 15 cation
6 6 7 8 9 10 11 rings

>  <PUBCHEM_HEAVY_ATOM_COUNT>  (1) 
15

>  <PUBCHEM_ATOM_DEF_STEREO_COUNT>  (1) 
0

>  <PUBCHEM_ATOM_UDEF_STEREO_COUNT>  (1) 
0

>  <PUBCHEM_BOND_DEF_STEREO_COUNT>  (1) 
0

>  <PUBCHEM_BOND_UDEF_STEREO_COUNT>  (1) 
0

>  <PUBCHEM_ISOTOPIC_ATOM_COUNT>  (1) 
0

>  <PUBCHEM_COMPONENT_COUNT>  (1) 
1

>  <PUBCHEM_CACTVS_TAUTO_COUNT>  (1) 
3

>  <PUBCHEM_CONFORMER_ID>  (1) 
00007ED300000001

>  <PUBCHEM_MMFF94_ENERGY>  (1) 
44.323

>  <PUBCHEM_FEATURE_SELFOVERLAP>  (1) 
25.427

>  <PUBCHEM_SHAPE_FINGERPRINT>  (1) 
100836 57 10303818696010073491
10354089 29 14117519856917292914
106641 1 18200307844448920322
11796584 16 17385441029572308579
11806522 49 18410295834848757823
12032990 46 18342465819737568452
12236239 1 18040716957239838406
12251169 10 18343299284116921686
12670543 26 11170182147270030602
13214271 11 18201153252663046189
13288520 33 18408324367191747415
13675066 3 17704356550161125029
13690532 89 18334013908309590039
13760787 5 17386300838579136469
13862211 1 18412261770314032735
14178342 30 18128267700763025393
14252887 29 17560533840652212871
14911166 2 11241971481681925310
14993402 34 13695867047501302729
15048467 5 11024109845402666170
17834072 33 18113622321850187508
17862501 102 18408321094685299523
18522853 276 18343586239603900649
18785283 64 17273117223453999520
19026448 5 17386012740847290412
200 152 16805321085074739525
20028762 73 18129943519772557535
21267235 1 18410583889557383222
21501925 9 18411699893759128141
21637258 2 17168129123521093738
22854114 59 17489870435911218387
23402539 116 18408881841673783135
23532345 42 18342454837875528864
23557571 272 18059306352938710333
23559900 14 16226338122022734516
26918003 58 18411139156431262979
3060560 45 13406788947816108352
3286 77 18335702779766367277
4047638 21 14476965596936568582
42 15 18411702084092098833
449060 50 16988840588400200180
465052 167 18261399987274310475
5104073 3 18058450906964189722
573450 72 18187922833551410921
76465 3 18040426689995639507

>  <PUBCHEM_SHAPE_MULTIPOLES>  (1) 
282.01
9.76
1.51
0.84
1.93
0.34
-0.16
-4.6
-1.81
1.19
-0.02
-0.62
-0.1
-0.26

>  <PUBCHEM_SHAPE_SELFOVERLAP>  (1) 
581.603

>  <PUBCHEM_SHAPE_VOLUME>  (1) 
160

>  <PUBCHEM_COORDINATE_TYPE>  (1) 
2
5
10

$$$$
