32462
     RDKit          3D

 21 24  0  0  1  0  0  0  0  0999 V2000
    2.6873    1.8417   -0.1623 O   0  0  0  0  0  0  0  0  0  0  0  0
    0.3883   -2.1254    0.2114 O   0  0  0  0  0  0  0  0  0  0  0  0
   -3.4072   -0.2524   -0.3078 N   0  0  0  0  0  0  0  0  0  0  0  0
   -0.9915   -0.1192    0.1611 C   0  0  0  0  0  0  0  0  0  0  0  0
   -2.1418   -0.9851   -0.3457 C   0  0  0  0  0  0  0  0  0  0  0  0
   -0.9150    1.1972   -0.6525 C   0  0  0  0  0  0  0  0  0  0  0  0
   -3.7306    0.1443    1.0698 C   0  0  0  0  0  0  0  0  0  0  0  0
   -4.4859   -1.0592   -0.8955 C   0  0  0  0  0  0  0  0  0  0  0  0
   -5.0268    0.9546    1.1210 C   0  0  0  0  0  0  0  0  0  0  0  0
   -5.8069   -0.2883   -0.9084 C   0  0  0  0  0  0  0  0  0  0  0  0
   -6.1841    0.1895    0.4892 C   0  0  0  0  0  0  0  0  0  0  0  0
    0.2482    2.1012   -0.2066 C   0  0  0  0  0  0  0  0  0  0  0  0
    0.3407   -0.9023    0.1215 C   0  0  0  0  0  0  0  0  0  0  0  0
    1.5441   -0.0961    0.0409 C   0  0  0  0  0  0  0  0  0  0  0  0
    1.4630    1.2688   -0.1057 C   0  0  0  0  0  0  0  0  0  0  0  0
    2.9281   -0.4050    0.0711 C   0  0  0  0  0  0  0  0  0  0  0  0
    3.5874    0.8193   -0.0551 C   0  0  0  0  0  0  0  0  0  0  0  0
    3.7045   -1.5718    0.1916 C   0  0  0  0  0  0  0  0  0  0  0  0
    4.9742    0.9604   -0.0696 C   0  0  0  0  0  0  0  0  0  0  0  0
    5.1014   -1.4583    0.1799 C   0  0  0  0  0  0  0  0  0  0  0  0
    5.7224   -0.2139    0.0516 C   0  0  0  0  0  0  0  0  0  0  0  0
  1 15  1  0
  1 17  1  0
  2 13  2  0
  3  5  1  0
  3  7  1  0
  3  8  1  0
  4  5  1  0
  4  6  1  0
  4 13  1  0
  6 12  1  0
  7  9  1  0
  8 10  1  0
  9 11  1  0
 10 11  1  0
 12 15  1  0
 13 14  1  0
 14 15  2  0
 14 16  1  0
 16 17  2  0
 16 18  1  0
 17 19  1  0
 18 20  2  0
 19 21  2  0
 20 21  1  0
M  END
>  <PUBCHEM_COMPOUND_CID>  (1) 
32462

>  <PUBCHEM_CONFORMER_RMSD>  (1) 
0.6

>  <PUBCHEM_CONFORMER_DIVERSEORDER>  (1) 
1
5
8
6
4
3
11
12
10
2
7
9

>  <PUBCHEM_MMFF94_PARTIAL_CHARGES>  (1) 
20
1 -0.28
12 0.18
13 0.6
14 -0.09
15 -0.04
17 0.14
18 -0.15
19 -0.15
2 -0.57
20 -0.15
21 -0.15
3 -0.81
39 0.15
4 0.06
40 0.15
41 0.15
42 0.15
5 0.27
7 0.27
8 0.27

>  <PUBCHEM_EFFECTIVE_ROTOR_COUNT>  (1) 
3.8

>  <PUBCHEM_PHARMACOPHORE_FEATURES>  (1) 
7
1 1 acceptor
1 2 acceptor
1 3 cation
5 1 14 15 16 17 rings
6 16 17 18 19 20 21 rings
6 3 7 8 9 10 11 rings
6 4 6 12 13 14 15 rings

>  <PUBCHEM_HEAVY_ATOM_COUNT>  (1) 
21

>  <PUBCHEM_ATOM_DEF_STEREO_COUNT>  (1) 
0

>  <PUBCHEM_ATOM_UDEF_STEREO_COUNT>  (1) 
1

>  <PUBCHEM_BOND_DEF_STEREO_COUNT>  (1) 
0

>  <PUBCHEM_BOND_UDEF_STEREO_COUNT>  (1) 
0

>  <PUBCHEM_ISOTOPIC_ATOM_COUNT>  (1) 
0

>  <PUBCHEM_COMPONENT_COUNT>  (1) 
1

>  <PUBCHEM_CACTVS_TAUTO_COUNT>  (1) 
2

>  <PUBCHEM_CONFORMER_ID>  (1) 
00007ECE00000001

>  <PUBCHEM_MMFF94_ENERGY>  (1) 
29.7964

>  <PUBCHEM_FEATURE_SELFOVERLAP>  (1) 
35.718

>  <PUBCHEM_SHAPE_FINGERPRINT>  (1) 
10688039 33 17894912897333588572
10906281 52 18338535109177130758
11089746 13 17847056675805319865
11471102 20 18335699464198904774
11578080 2 17272556494394152930
12107183 9 17552650149239639499
12166972 35 18130506422544005361
12236239 1 18059856173166135715
12516196 113 18342173379688537769
12596602 18 17275100652278183722
13167372 99 18271249322447232865
13533116 47 18060420184309165458
13590594 115 18409451367043773889
13685833 64 18187651314672765787
13760787 5 18261114092554323053
13862211 1 18408317766186034298
14251764 18 18343584061701943261
14341114 176 18333457538530889833
14739800 52 17202473588527090424
14790565 3 18409736144485779500
15099037 51 18408039632366728422
15183329 4 18412824681295795559
15196674 1 18337672022070921503
15527383 91 18411983559190518609
15788980 27 17313103068500586479
15848702 151 18202286861904329383
17834072 33 18059853982701101319
17844677 252 16225768523407094373
1813 80 18114476564732868644
19141452 34 18342737446359927463
19489759 90 16415481545592945747
200 152 18343861117436933137
20028762 73 18273491264931653062
20511986 3 18131056126701734057
20612939 158 18334295404692857957
20645477 70 18409163286433177046
21033648 29 17531511162185945109
21236236 1 18336263436539841085
21267235 1 18336550413780744082
21279426 13 18117552933837439047
21641784 216 17822589204592033612
23402539 116 17989485225612343653
23522609 53 18195275310635527500
23536379 177 17775287153286160027
23557571 272 14907913664721227441
23559900 14 18129091384932133816
2871803 45 18113614561018441210
3004659 81 18187081746359292550
335352 9 18409450306592189366
345986 75 18268136574742331632
34797466 226 16056603204606866449
34934 24 18338512071173053894
350125 39 18409731742302764524
4073 2 18114748247110616002
4340502 62 16008744715182879098
4463277 17 18408885131075575140
465052 167 18408890633160978246
5104073 3 18338795727202029931
542803 24 17775004595945899279
59755656 215 18261957349702178582
67856867 119 17988357195375725481
7495541 125 15625935504029600931
9971528 1 18409443721674419548

>  <PUBCHEM_SHAPE_MULTIPOLES>  (1) 
415.45
14.23
1.77
0.86
7.65
0.15
-0.05
-1.5
-0.72
-1.22
0.07
1.02
0.03
-0.84

>  <PUBCHEM_SHAPE_SELFOVERLAP>  (1) 
906.311

>  <PUBCHEM_SHAPE_VOLUME>  (1) 
226.4

>  <PUBCHEM_COORDINATE_TYPE>  (1) 
2
5
10

$$$$
