32465
     RDKit          3D

 27 28  0  0  1  0  0  0  0  0999 V2000
    1.9603   -0.0266   -0.1039 O   0  0  0  0  0  0  0  0  0  0  0  0
   -0.2010    1.3659    1.2636 O   0  0  0  0  0  0  0  0  0  0  0  0
   -2.2755    1.4862    2.8014 O   0  0  0  0  0  0  0  0  0  0  0  0
   -2.9814   -1.0255   -2.6226 O   0  0  0  0  0  0  0  0  0  0  0  0
   -5.1612   -0.9821   -1.1999 O   0  0  0  0  0  0  0  0  0  0  0  0
    1.1544   -1.9903   -1.0091 O   0  0  0  0  0  0  0  0  0  0  0  0
    1.2277    0.7322   -1.0598 C   0  0  0  0  0  0  0  0  0  0  0  0
   -0.2303    0.4262   -0.8959 C   0  0  0  0  0  0  0  0  0  0  0  0
    1.5709    2.2207   -0.9251 C   0  0  0  0  0  0  0  0  0  0  0  0
   -2.3019    0.5244    0.5734 C   0  0  0  0  0  0  0  0  0  0  0  0
   -0.8657    0.8172    0.3921 C   0  0  0  0  0  0  0  0  0  0  0  0
   -3.0345   -0.0998   -0.4374 C   0  0  0  0  0  0  0  0  0  0  0  0
   -0.9470   -0.1716   -1.8546 C   0  0  0  0  0  0  0  0  0  0  0  0
   -2.3842   -0.4775   -1.7042 C   0  0  0  0  0  0  0  0  0  0  0  0
    3.0205    2.5416   -1.1845 C   0  0  0  0  0  0  0  0  0  0  0  0
   -2.9319    0.8775    1.7729 C   0  0  0  0  0  0  0  0  0  0  0  0
   -4.3951   -0.3713   -0.2520 C   0  0  0  0  0  0  0  0  0  0  0  0
    4.0202    2.6318   -0.2868 C   0  0  0  0  0  0  0  0  0  0  0  0
   -4.2883    0.6055    1.9552 C   0  0  0  0  0  0  0  0  0  0  0  0
   -5.0183   -0.0176    0.9449 C   0  0  0  0  0  0  0  0  0  0  0  0
    1.8299   -1.3823   -0.1960 C   0  0  0  0  0  0  0  0  0  0  0  0
    5.4505    2.9570   -0.6123 C   0  0  0  0  0  0  0  0  0  0  0  0
    3.7507    2.4136    1.1782 C   0  0  0  0  0  0  0  0  0  0  0  0
    2.6439   -1.9851    0.8864 C   0  0  0  0  0  0  0  0  0  0  0  0
    3.2143   -3.2028    0.8468 C   0  0  0  0  0  0  0  0  0  0  0  0
    4.0185   -3.6898    2.0252 C   0  0  0  0  0  0  0  0  0  0  0  0
    3.1544   -4.1775   -0.2959 C   0  0  0  0  0  0  0  0  0  0  0  0
  1  7  1  0
  1 21  1  0
  2 11  2  0
  3 16  1  0
  4 14  2  0
  5 17  1  0
  6 21  2  0
  7  8  1  0
  7  9  1  0
  8 11  1  0
  8 13  2  0
  9 15  1  0
 10 11  1  0
 10 12  2  0
 10 16  1  0
 12 14  1  0
 12 17  1  0
 13 14  1  0
 15 18  2  3
 16 19  2  0
 17 20  2  0
 18 22  1  0
 18 23  1  0
 19 20  1  0
 21 24  1  0
 24 25  2  3
 25 26  1  0
 25 27  1  0
M  END
>  <PUBCHEM_COMPOUND_CID>  (1) 
32465

>  <PUBCHEM_CONFORMER_RMSD>  (1) 
0.8

>  <PUBCHEM_CONFORMER_DIVERSEORDER>  (1) 
3
243
77
278
15
124
30
198
45
176
7
156
287
8
65
264
94
38
258
101
267
275
154
102
199
68
153
222
213
137
300
281
110
255
196
253
245
193
53
221
54
238
230
108
261
27
239
160
40
276
117
143
171
247
279
55
78
133
260
58
187
282
87
301
219
75
266
244
283
226
188
90
175
270
286
146
144
89
61
21
79
295
211
25
119
116
298
215
206
29
145
166
131
277
107
83
113
250
6
212
63
271
231
60
80
19
173
33
223
139
208
227
13
234
128
232
209
195
152
103
69
248
296
191
240
36
299
99
50
81
285
241
269
185
52
22
82
236
294
28
49
290
237
204
254
268
149
192
18
216
190
180
91
98
159
262
114
165
259
297
92
210
292
2
170
189
67
177
272
225
85
72
291
48
169
23
123
12
84
280
86
157
207
14
229
34
122
246
182
120
218
47
174
288
214
97
178
17
224
20
88
242
44
129
155
233
228
35
167
51
4
235
5
9
73
62
24
140
164
104
130
205
11
181
304
265
106
66
109
256
136
184
257
303
118
186
74
263
112
96
32
93
151
41
200
202
141
163
293
150
302
10
142
162
220
183
59
64
42
125
168
1
252
172
26
111
76
273
57
203
126
194
132
16
274
71
201
70
37
249
179
46
31
147
148
127
56
115
95
100
158
161
135
197
105
289
134
121
251
39
217
284
43
138

>  <PUBCHEM_MMFF94_PARTIAL_CHARGES>  (1) 
34
1 -0.43
10 0.09
11 0.47
12 0.09
13 -0.14
14 0.47
15 -0.29
16 0.08
17 0.08
18 -0.28
19 -0.15
2 -0.57
20 -0.15
21 0.71
22 0.14
23 0.14
24 -0.14
25 -0.28
26 0.14
27 0.14
3 -0.53
31 0.15
32 0.15
33 0.15
34 0.15
4 -0.57
41 0.15
42 0.45
43 0.45
5 -0.53
6 -0.57
7 0.42
8 -0.12
9 0.14

>  <PUBCHEM_EFFECTIVE_ROTOR_COUNT>  (1) 
6

>  <PUBCHEM_PHARMACOPHORE_FEATURES>  (1) 
9
1 2 acceptor
1 3 donor
1 4 acceptor
1 5 donor
1 6 acceptor
3 18 22 23 hydrophobe
3 25 26 27 hydrophobe
6 10 12 16 17 19 20 rings
6 8 10 11 12 13 14 rings

>  <PUBCHEM_HEAVY_ATOM_COUNT>  (1) 
27

>  <PUBCHEM_ATOM_DEF_STEREO_COUNT>  (1) 
0

>  <PUBCHEM_ATOM_UDEF_STEREO_COUNT>  (1) 
1

>  <PUBCHEM_BOND_DEF_STEREO_COUNT>  (1) 
0

>  <PUBCHEM_BOND_UDEF_STEREO_COUNT>  (1) 
0

>  <PUBCHEM_ISOTOPIC_ATOM_COUNT>  (1) 
0

>  <PUBCHEM_COMPONENT_COUNT>  (1) 
1

>  <PUBCHEM_CACTVS_TAUTO_COUNT>  (1) 
12

>  <PUBCHEM_CONFORMER_ID>  (1) 
00007ED100000003

>  <PUBCHEM_MMFF94_ENERGY>  (1) 
68.9614

>  <PUBCHEM_FEATURE_SELFOVERLAP>  (1) 
45.692

>  <PUBCHEM_SHAPE_FINGERPRINT>  (1) 
11578080 2 18335137536406418341
12236239 1 18059020591363235244
12363563 72 17824825538038567794
12553582 1 18193559956827225966
12592029 89 18115576184014537852
133893 2 18335975398826039758
13533116 47 18189352224896071347
13583140 156 18340216305606510313
13631057 29 17980764058606299175
13726171 33 17131016242075537577
13911987 19 17825681202877184132
14739800 52 17560790065743050584
15219462 58 17899450586195280897
15842332 3 18059846268692197703
1813 80 18196094331092138054
18681886 176 16486700288983483016
18915476 22 18113610209741777972
20101258 96 17974000648997826108
20511986 3 18131629010693607933
20603629 256 18334299746867643330
20693207 138 17023188171805394543
21796203 349 18047776826934419242
22182313 1 17095238112116337327
23559900 14 15719395010218779630
244849 19 17531240622111340077
25147074 1 18131346419051189847
394222 165 18129956657744088634
4340502 62 18264505042834320195
474 4 18267593583565848260
59755656 520 18268998768348065548
7288768 16 17482251009837605680

>  <PUBCHEM_SHAPE_MULTIPOLES>  (1) 
520.43
10.32
4.18
2.17
3.34
3.42
0.36
-0.91
2.02
-10.77
0.75
1.98
0.08
-2.44

>  <PUBCHEM_SHAPE_SELFOVERLAP>  (1) 
1106.791

>  <PUBCHEM_SHAPE_VOLUME>  (1) 
286.8

>  <PUBCHEM_COORDINATE_TYPE>  (1) 
2
5
10

$$$$
