3246
     RDKit          3D

 17 19  0  0  1  0  0  0  0  0999 V2000
    4.0140   -0.0355   -1.1719 O   0  0  0  0  0  0  0  0  0  0  0  0
   -1.8222   -1.0897   -0.8759 N   0  0  0  0  0  0  0  0  0  0  0  0
   -0.5061    1.5420    0.0428 C   0  0  0  0  0  0  0  0  0  0  0  0
   -1.9476   -0.0598    1.4214 C   0  0  0  0  0  0  0  0  0  0  0  0
   -1.5479    1.3870    1.1736 C   0  0  0  0  0  0  0  0  0  0  0  0
   -1.2187    1.3899   -1.3272 C   0  0  0  0  0  0  0  0  0  0  0  0
    0.6473    0.5470    0.1981 C   0  0  0  0  0  0  0  0  0  0  0  0
   -0.7028   -0.8382    1.8800 C   0  0  0  0  0  0  0  0  0  0  0  0
   -2.6919   -0.7153    0.2370 C   0  0  0  0  0  0  0  0  0  0  0  0
    0.5382   -0.5694    1.0580 C   0  0  0  0  0  0  0  0  0  0  0  0
   -1.5485   -0.0224   -1.8392 C   0  0  0  0  0  0  0  0  0  0  0  0
    0.0120    3.0009    0.1500 C   0  0  0  0  0  0  0  0  0  0  0  0
    1.8256    0.6952   -0.5575 C   0  0  0  0  0  0  0  0  0  0  0  0
    1.6150   -1.4642    1.1799 C   0  0  0  0  0  0  0  0  0  0  0  0
   -2.3280   -2.2744   -1.5717 C   0  0  0  0  0  0  0  0  0  0  0  0
    2.8819   -0.2086   -0.4355 C   0  0  0  0  0  0  0  0  0  0  0  0
    2.7795   -1.2842    0.4380 C   0  0  0  0  0  0  0  0  0  0  0  0
  1 16  1  0
  2  9  1  0
  2 11  1  0
  2 15  1  0
  3  5  1  0
  3  6  1  0
  3  7  1  0
  3 12  1  0
  4  5  1  0
  4  8  1  0
  4  9  1  0
  6 11  1  0
  7 10  2  0
  7 13  1  0
  8 10  1  0
 10 14  1  0
 13 16  2  0
 14 17  2  0
 16 17  1  0
M  END
>  <PUBCHEM_COMPOUND_CID>  (1) 
3246

>  <PUBCHEM_CONFORMER_RMSD>  (1) 
0.6

>  <PUBCHEM_CONFORMER_DIVERSEORDER>  (1) 
2
5
1
4
3

>  <PUBCHEM_MMFF94_PARTIAL_CHARGES>  (1) 
17
1 -0.53
10 -0.14
11 0.27
13 -0.15
14 -0.15
15 0.27
16 0.08
17 -0.15
2 -0.81
3 0.14
32 0.15
33 0.15
37 0.15
38 0.45
7 -0.14
8 0.14
9 0.27

>  <PUBCHEM_EFFECTIVE_ROTOR_COUNT>  (1) 
1.2

>  <PUBCHEM_PHARMACOPHORE_FEATURES>  (1) 
5
1 1 donor
1 2 cation
6 3 4 5 7 8 10 rings
6 7 10 13 14 16 17 rings
7 2 3 4 5 6 9 11 rings

>  <PUBCHEM_HEAVY_ATOM_COUNT>  (1) 
17

>  <PUBCHEM_ATOM_DEF_STEREO_COUNT>  (1) 
0

>  <PUBCHEM_ATOM_UDEF_STEREO_COUNT>  (1) 
2

>  <PUBCHEM_BOND_DEF_STEREO_COUNT>  (1) 
0

>  <PUBCHEM_BOND_UDEF_STEREO_COUNT>  (1) 
0

>  <PUBCHEM_ISOTOPIC_ATOM_COUNT>  (1) 
0

>  <PUBCHEM_COMPONENT_COUNT>  (1) 
1

>  <PUBCHEM_CACTVS_TAUTO_COUNT>  (1) 
3

>  <PUBCHEM_CONFORMER_ID>  (1) 
00000CAE00000002

>  <PUBCHEM_MMFF94_ENERGY>  (1) 
57.5967

>  <PUBCHEM_FEATURE_SELFOVERLAP>  (1) 
26.383

>  <PUBCHEM_SHAPE_FINGERPRINT>  (1) 
10863032 1 16879068534248603197
10948715 1 17315633985369975757
11578080 2 17916001608048924057
12202030 40 16773219709425840030
12423570 1 15803843348656112169
13024252 1 17458922460754969921
13027679 85 17897751948093895977
13299463 15 17676196966283153485
141345 1 15895262221498928857
144361 1 17896864496133679395
14614273 12 15430042053869147858
14617773 55 18189331273544512784
14817 1 13233060991158273897
15001771 113 18128530659982716127
15906896 17 18048879593914874145
16945 1 17458350770527147160
17349148 13 17894900820734442810
19868273 325 18412829066473378296
200 152 18259702289918228938
20361792 2 18271234014830043575
20525323 117 18261117318470323328
21160774 45 17532389723336894826
21524375 3 17471008082146312784
21731516 1 18341602758992065183
22802520 49 17313374621886474655
2306618 200 17022910038376290204
23402539 116 18334019389410429446
23419403 2 17465116224402246995
25 1 15940613274819050765
2748010 2 17319875136588360000
305870 269 7925096765824626095
353137 74 17530969068356004768
427121 178 11461796614233273605
430814 3 17253421310798743001
535629 181 18264755584971404521
53812653 217 18266737987182770333
5845 1 16412626182045480197
90525 40 17907015080059619738

>  <PUBCHEM_SHAPE_MULTIPOLES>  (1) 
339
4.26
2.27
1.78
3.36
0.98
-0.09
-1.73
-1.37
-0.72
-0.17
-0.82
-0.47
-0.78

>  <PUBCHEM_SHAPE_SELFOVERLAP>  (1) 
725.969

>  <PUBCHEM_SHAPE_VOLUME>  (1) 
184.2

>  <PUBCHEM_COORDINATE_TYPE>  (1) 
2
5
10

$$$$
