32475
     RDKit          3D

 17 19  0  0  0  0  0  0  0  0999 V2000
    3.1074   -1.7390   -0.1931 S   0  0  0  0  0  0  0  0  0  0  0  0
    3.1077    1.7387    0.1935 S   0  0  0  0  0  0  0  0  0  0  0  0
    0.0928   -2.2946   -0.3268 O   0  0  0  0  0  0  0  0  0  0  0  0
    0.0934    2.2948    0.3281 O   0  0  0  0  0  0  0  0  0  0  0  0
   -0.3949    0.0002    0.0002 N   0  0  0  0  0  0  0  0  0  0  0  0
    1.7960   -0.6610   -0.0678 C   0  0  0  0  0  0  0  0  0  0  0  0
    1.7961    0.6609    0.0680 C   0  0  0  0  0  0  0  0  0  0  0  0
    0.3966   -1.1274   -0.1375 C   0  0  0  0  0  0  0  0  0  0  0  0
    0.3968    1.1276    0.1382 C   0  0  0  0  0  0  0  0  0  0  0  0
    4.4819   -0.6772    0.3483 C   0  0  0  0  0  0  0  0  0  0  0  0
    4.4815    0.6769   -0.3500 C   0  0  0  0  0  0  0  0  0  0  0  0
   -1.8274    0.0003    0.0003 C   0  0  0  0  0  0  0  0  0  0  0  0
   -2.5291   -1.1114    0.4730 C   0  0  0  0  0  0  0  0  0  0  0  0
   -2.5292    1.1117   -0.4730 C   0  0  0  0  0  0  0  0  0  0  0  0
   -3.9239   -1.1116    0.4726 C   0  0  0  0  0  0  0  0  0  0  0  0
   -3.9241    1.1113   -0.4734 C   0  0  0  0  0  0  0  0  0  0  0  0
   -4.6215   -0.0003   -0.0006 C   0  0  0  0  0  0  0  0  0  0  0  0
  1  6  1  0
  1 10  1  0
  2  7  1  0
  2 11  1  0
  3  8  2  0
  4  9  2  0
  5  8  1  0
  5  9  1  0
  5 12  1  0
  6  7  2  0
  6  8  1  0
  7  9  1  0
 10 11  1  0
 12 13  2  0
 12 14  1  0
 13 15  1  0
 14 16  2  0
 15 17  2  0
 16 17  1  0
M  END
>  <PUBCHEM_COMPOUND_CID>  (1) 
32475

>  <PUBCHEM_CONFORMER_RMSD>  (1) 
0.6

>  <PUBCHEM_CONFORMER_DIVERSEORDER>  (1) 
1
2

>  <PUBCHEM_MMFF94_PARTIAL_CHARGES>  (1) 
22
1 -0.33
10 0.23
11 0.23
12 0.12
13 -0.15
14 -0.15
15 -0.15
16 -0.15
17 -0.15
2 -0.33
22 0.15
23 0.15
24 0.15
25 0.15
26 0.15
3 -0.57
4 -0.57
5 -0.24
6 0.12
7 0.12
8 0.62
9 0.62

>  <PUBCHEM_EFFECTIVE_ROTOR_COUNT>  (1) 
2

>  <PUBCHEM_PHARMACOPHORE_FEATURES>  (1) 
5
1 3 acceptor
1 4 acceptor
5 5 6 7 8 9 rings
6 1 2 6 7 10 11 rings
6 12 13 14 15 16 17 rings

>  <PUBCHEM_HEAVY_ATOM_COUNT>  (1) 
17

>  <PUBCHEM_ATOM_DEF_STEREO_COUNT>  (1) 
0

>  <PUBCHEM_ATOM_UDEF_STEREO_COUNT>  (1) 
0

>  <PUBCHEM_BOND_DEF_STEREO_COUNT>  (1) 
0

>  <PUBCHEM_BOND_UDEF_STEREO_COUNT>  (1) 
0

>  <PUBCHEM_ISOTOPIC_ATOM_COUNT>  (1) 
0

>  <PUBCHEM_COMPONENT_COUNT>  (1) 
1

>  <PUBCHEM_CACTVS_TAUTO_COUNT>  (1) 
1

>  <PUBCHEM_CONFORMER_ID>  (1) 
00007EDB00000001

>  <PUBCHEM_MMFF94_ENERGY>  (1) 
47.192

>  <PUBCHEM_FEATURE_SELFOVERLAP>  (1) 
25.416

>  <PUBCHEM_SHAPE_FINGERPRINT>  (1) 
10608611 8 18408037395100249829
10967382 1 18411699897964301166
11471102 20 18412261731600778476
11615757 297 17989492934735612384
12032990 46 18411141320393199150
12236239 1 17203328910046902019
13296908 3 18409729551768573667
13675066 3 18411696621131133760
13862211 1 18412820274944550086
15196674 1 18410011035208579335
15219456 202 18408604760163707967
15375358 24 18410012113345902739
15536298 74 18342175570453862660
16945 1 17060621100780334080
18186145 218 18201447981813620088
19591789 44 18411136982592684006
200 152 18060412517855423343
20645477 56 18041558028117445797
20645477 70 18342738481452353078
21267235 1 18411146822209609418
221490 88 18263651812778431491
23402539 116 18272925038175815982
23402655 69 18343018878391979965
23463225 33 18409729556211207982
23557571 272 17530961359006097677
23559900 14 18265609880132391906
2748010 2 18411138038927311412
335352 9 18194401082778602973
34934 24 18341325699900831770
3545911 37 18407761443324731821
4072396 5 18265598923380468338
4214541 1 18335701615903913853
4990 188 18060427923460074228
5104073 3 18409168805460443201
537710 114 18412548721400127004
69090 78 18342173405484812710
77779 3 18334859419792581781
8809292 202 18260271854221623651
9709674 26 18408610274691330147

>  <PUBCHEM_SHAPE_MULTIPOLES>  (1) 
340.83
8.96
2.06
0.7
1.42
0
0
0
0
-0.75
0
0.05
0
0.47

>  <PUBCHEM_SHAPE_SELFOVERLAP>  (1) 
723.481

>  <PUBCHEM_SHAPE_VOLUME>  (1) 
191

>  <PUBCHEM_COORDINATE_TYPE>  (1) 
2
5
10

$$$$
