32486
     RDKit          3D

 16 17  0  0  0  0  0  0  0  0999 V2000
   -2.4938    2.3014    0.0001 S   0  0  0  0  0  0  0  0  0  0  0  0
    1.8271    0.5404    0.0005 O   0  0  0  0  0  0  0  0  0  0  0  0
    5.0867   -0.7258    0.0001 O   0  0  0  0  0  0  0  0  0  0  0  0
    4.3210    1.3315    0.0009 O   0  0  0  0  0  0  0  0  0  0  0  0
   -4.2146   -2.0582    0.0023 O   0  0  0  0  0  0  0  0  0  0  0  0
   -1.8499   -0.2022   -0.0012 N   0  0  0  0  0  0  0  0  0  0  0  0
   -4.2036    0.3148   -0.0010 N   0  0  0  0  0  0  0  0  0  0  0  0
    4.1118    0.0825    0.0005 N   0  0  0  0  0  0  0  0  0  0  0  0
    0.6420   -0.1247   -0.0003 C   0  0  0  0  0  0  0  0  0  0  0  0
   -0.6790    0.5305   -0.0001 C   0  0  0  0  0  0  0  0  0  0  0  0
    0.8509   -1.4842   -0.0010 C   0  0  0  0  0  0  0  0  0  0  0  0
    2.8032   -0.4047    0.0000 C   0  0  0  0  0  0  0  0  0  0  0  0
    2.2545   -1.6660   -0.0010 C   0  0  0  0  0  0  0  0  0  0  0  0
   -0.8260    1.9017    0.0007 C   0  0  0  0  0  0  0  0  0  0  0  0
   -2.8698    0.6271   -0.0011 C   0  0  0  0  0  0  0  0  0  0  0  0
   -4.7605   -0.9642    0.0007 C   0  0  0  0  0  0  0  0  0  0  0  0
  1 14  1  0
  1 15  1  0
  2  9  1  0
  2 12  1  0
  3  8  1  0
  4  8  2  0
  5 16  2  0
  6 10  1  0
  6 15  2  0
  7 15  1  0
  7 16  1  0
  8 12  1  0
  9 10  1  0
  9 11  2  0
 10 14  2  0
 11 13  1  0
 12 13  2  0
M  CHG  2   3  -1   8   1
M  END
>  <PUBCHEM_COMPOUND_CID>  (1) 
32486

>  <PUBCHEM_CONFORMER_RMSD>  (1) 
0.6

>  <PUBCHEM_CONFORMER_DIVERSEORDER>  (1) 
1
12
2
11
5
7
3
4
10
8
9
6

>  <PUBCHEM_MMFF94_PARTIAL_CHARGES>  (1) 
21
1 -0.08
10 0.23
11 -0.15
12 0.22
13 -0.15
14 -0.11
15 0.44
16 0.57
17 0.15
18 0.15
19 0.15
2 -0.28
20 0.37
21 0.06
3 -0.52
4 -0.52
5 -0.57
6 -0.57
7 -0.49
8 0.96
9 0.14

>  <PUBCHEM_EFFECTIVE_ROTOR_COUNT>  (1) 
4

>  <PUBCHEM_PHARMACOPHORE_FEATURES>  (1) 
8
1 2 acceptor
1 3 acceptor
1 3 anion
1 4 acceptor
1 5 acceptor
1 7 donor
5 1 6 10 14 15 rings
5 2 9 11 12 13 rings

>  <PUBCHEM_HEAVY_ATOM_COUNT>  (1) 
16

>  <PUBCHEM_ATOM_DEF_STEREO_COUNT>  (1) 
0

>  <PUBCHEM_ATOM_UDEF_STEREO_COUNT>  (1) 
0

>  <PUBCHEM_BOND_DEF_STEREO_COUNT>  (1) 
0

>  <PUBCHEM_BOND_UDEF_STEREO_COUNT>  (1) 
0

>  <PUBCHEM_ISOTOPIC_ATOM_COUNT>  (1) 
0

>  <PUBCHEM_COMPONENT_COUNT>  (1) 
1

>  <PUBCHEM_CACTVS_TAUTO_COUNT>  (1) 
3

>  <PUBCHEM_CONFORMER_ID>  (1) 
00007EE600000001

>  <PUBCHEM_MMFF94_ENERGY>  (1) 
17.744

>  <PUBCHEM_FEATURE_SELFOVERLAP>  (1) 
40.689

>  <PUBCHEM_SHAPE_FINGERPRINT>  (1) 
10608611 8 18265613169803047036
10616163 171 18412546483717144495
11806522 49 18335702771107555333
124424 183 12324247156638407999
12839892 36 18265315249544532874
13214271 11 18343016658368739125
14252887 29 17703801313800188415
14445660 50 18200038322239912033
14787075 74 18336547230239105193
15196674 1 18410855442958868100
17862501 102 18260543403417928970
18511873 20 9799687103883375733
200 152 18334011700975955159
20261772 1 17988921214739034847
20510252 161 18271527481635201553
20645477 56 18043813083268661877
20871999 31 18261662711109076653
21079973 296 18334579078882591699
21267235 1 18410864247668452054
21618674 54 18265331711810539495
221490 88 18046350992323073043
22213442 358 18410855486520574709
22485316 2 18335981987253176123
22959321 105 18261670389935842189
23402539 116 18260261945436484055
23557571 272 18200880569342062957
23559900 14 18124871253531524722
25610 137 18411982451146848521
2871803 45 18408317774749491175
3312278 4 18340486664891152657
4214541 1 18338798896898410532
474229 33 18411136965402154878
4990 188 18059301963745527286
5104073 3 18340485547819614514
58051976 378 18341048536406901735
6333272 397 18408322216004118608
77779 3 18340770334284765684
9709674 26 18337679606957175763

>  <PUBCHEM_SHAPE_MULTIPOLES>  (1) 
294.7
9.6
2.08
0.58
2.32
0.27
0
-2.14
0
-1.48
0
-0.05
0.02
0

>  <PUBCHEM_SHAPE_SELFOVERLAP>  (1) 
621.068

>  <PUBCHEM_SHAPE_VOLUME>  (1) 
167.7

>  <PUBCHEM_COORDINATE_TYPE>  (1) 
2
5
10

$$$$
