3248
     RDKit          3D

 14 14  0  0  0  0  0  0  0  0999 V2000
   -1.2745    2.6442   -0.1782 O   0  0  0  0  0  0  0  0  0  0  0  0
   -3.1280   -2.5395    0.1377 O   0  0  0  0  0  0  0  0  0  0  0  0
    3.7595   -0.9733   -0.3879 O   0  0  0  0  0  0  0  0  0  0  0  0
    3.4060    1.0956    0.5776 O   0  0  0  0  0  0  0  0  0  0  0  0
   -0.8237    0.3023    0.1189 C   0  0  0  0  0  0  0  0  0  0  0  0
   -1.7126    1.3555   -0.0968 C   0  0  0  0  0  0  0  0  0  0  0  0
   -1.2991   -1.0066    0.1977 C   0  0  0  0  0  0  0  0  0  0  0  0
   -2.6635   -1.2625    0.0611 C   0  0  0  0  0  0  0  0  0  0  0  0
   -3.0770    1.0997   -0.2335 C   0  0  0  0  0  0  0  0  0  0  0  0
    0.6054    0.5439    0.2651 C   0  0  0  0  0  0  0  0  0  0  0  0
   -3.5524   -0.2092   -0.1544 C   0  0  0  0  0  0  0  0  0  0  0  0
    1.5813   -0.3113   -0.1086 C   0  0  0  0  0  0  0  0  0  0  0  0
    3.0029    0.0548    0.0830 C   0  0  0  0  0  0  0  0  0  0  0  0
    5.1757   -0.7935   -0.2818 C   0  0  0  0  0  0  0  0  0  0  0  0
  1  6  1  0
  2  8  1  0
  3 13  1  0
  3 14  1  0
  4 13  2  0
  5  6  2  0
  5  7  1  0
  5 10  1  0
  6  9  1  0
  7  8  2  0
  8 11  1  0
  9 11  2  0
 10 12  2  0
 12 13  1  0
M  END
>  <PUBCHEM_COMPOUND_CID>  (1) 
3248

>  <PUBCHEM_CONFORMER_RMSD>  (1) 
0.6

>  <PUBCHEM_CONFORMER_DIVERSEORDER>  (1) 
1
3
6
4
5
2

>  <PUBCHEM_MMFF94_PARTIAL_CHARGES>  (1) 
21
1 -0.53
10 -0.18
11 -0.15
12 -0.14
13 0.71
14 0.28
15 0.15
16 0.15
17 0.15
18 0.15
19 0.15
2 -0.53
20 0.45
21 0.45
3 -0.43
4 -0.57
5 0.03
6 0.08
7 -0.15
8 0.08
9 -0.15

>  <PUBCHEM_EFFECTIVE_ROTOR_COUNT>  (1) 
3

>  <PUBCHEM_PHARMACOPHORE_FEATURES>  (1) 
4
1 1 donor
1 2 donor
1 4 acceptor
6 5 6 7 8 9 11 rings

>  <PUBCHEM_HEAVY_ATOM_COUNT>  (1) 
14

>  <PUBCHEM_ATOM_DEF_STEREO_COUNT>  (1) 
0

>  <PUBCHEM_ATOM_UDEF_STEREO_COUNT>  (1) 
0

>  <PUBCHEM_BOND_DEF_STEREO_COUNT>  (1) 
0

>  <PUBCHEM_BOND_UDEF_STEREO_COUNT>  (1) 
1

>  <PUBCHEM_ISOTOPIC_ATOM_COUNT>  (1) 
0

>  <PUBCHEM_COMPONENT_COUNT>  (1) 
1

>  <PUBCHEM_CACTVS_TAUTO_COUNT>  (1) 
13

>  <PUBCHEM_CONFORMER_ID>  (1) 
00000CB000000001

>  <PUBCHEM_MMFF94_ENERGY>  (1) 
36.1643

>  <PUBCHEM_FEATURE_SELFOVERLAP>  (1) 
20.297

>  <PUBCHEM_SHAPE_FINGERPRINT>  (1) 
10608611 8 18341607110052567688
10616163 171 18410576175817608302
10680689 15 18335148561670920856
12032990 46 18338238275065190107
12500047 106 18264202513469215932
12757275 245 18409169921725041598
12916754 54 18341898519251314520
12932764 1 17604139351044922952
13024252 1 16732706039137485793
13296908 3 18341331175493647242
14911166 2 18335971026855365725
17804303 29 18412829079273786596
17834072 33 18259992595859286620
17834074 16 18342177735186348046
17870717 6 18270133309581401654
18175812 5 18272932734609595220
18186145 218 16298385807428386740
19141452 34 18129948991829391127
1986462 14 18409169887713066750
200 152 17203321191526512541
20279233 1 18059861644680320470
20281475 54 18341338901960399753
20645477 56 18337112242083225405
20645477 70 17489586719499662998
20871998 184 18272653484689792071
20871998 22 18122344846499031443
20871999 31 18261381261685885479
21061003 4 17275105045860773017
21339142 51 18408599262748286445
221490 88 18339366370053599498
22213442 358 18266738172166894969
2297311 6 18341062851849150516
2306618 200 18201164256268934609
23402539 116 18343013377245690741
23557571 272 18271812293474602860
23559900 14 18412537704972517240
2748010 2 18194105538058956769
4214541 1 18410856517249389748
5104073 3 18341893008903194114
559249 180 18044650893927844578
573450 72 18115577154961827674
58051976 100 18410576158811331950
6333449 129 18411698755809078997
77779 3 18411420614006480420
8809292 202 18409451396712139546
93112 12 18410011014161114740
9709674 26 18270966743495271486

>  <PUBCHEM_SHAPE_MULTIPOLES>  (1) 
264.64
8.34
1.98
0.64
10.21
0.1
0
-2.51
-0.69
-1.92
0
0.09
0.01
0.48

>  <PUBCHEM_SHAPE_SELFOVERLAP>  (1) 
550.758

>  <PUBCHEM_SHAPE_VOLUME>  (1) 
151.2

>  <PUBCHEM_COORDINATE_TYPE>  (1) 
2
5
10

$$$$
