32484
     RDKit          3D

 13 13  0  0  0  0  0  0  0  0999 V2000
   -0.0002   -2.0306    0.0021 N   0  0  0  0  0  0  0  0  0  0  0  0
   -2.5176   -0.6384   -0.0001 C   0  0  0  0  0  0  0  0  0  0  0  0
    2.5176   -0.6385   -0.0001 C   0  0  0  0  0  0  0  0  0  0  0  0
   -1.2079    0.0811    0.0006 C   0  0  0  0  0  0  0  0  0  0  0  0
    1.2080    0.0811    0.0012 C   0  0  0  0  0  0  0  0  0  0  0  0
    0.0000   -0.6163    0.0015 C   0  0  0  0  0  0  0  0  0  0  0  0
   -1.2079    1.4760   -0.0003 C   0  0  0  0  0  0  0  0  0  0  0  0
    1.2080    1.4760    0.0003 C   0  0  0  0  0  0  0  0  0  0  0  0
   -3.3484   -0.3416   -1.2615 C   0  0  0  0  0  0  0  0  0  0  0  0
   -3.3508   -0.3403    1.2594 C   0  0  0  0  0  0  0  0  0  0  0  0
    3.3514   -0.3400    1.2590 C   0  0  0  0  0  0  0  0  0  0  0  0
    3.3480   -0.3421   -1.2619 C   0  0  0  0  0  0  0  0  0  0  0  0
    0.0000    2.1735   -0.0004 C   0  0  0  0  0  0  0  0  0  0  0  0
  1  6  1  0
  2  4  1  0
  2  9  1  0
  2 10  1  0
  3  5  1  0
  3 11  1  0
  3 12  1  0
  4  6  2  0
  4  7  1  0
  5  6  1  0
  5  8  2  0
  7 13  2  0
  8 13  1  0
M  END
>  <PUBCHEM_COMPOUND_CID>  (1) 
32484

>  <PUBCHEM_CONFORMER_RMSD>  (1) 
0.6

>  <PUBCHEM_CONFORMER_DIVERSEORDER>  (1) 
1
2

>  <PUBCHEM_MMFF94_PARTIAL_CHARGES>  (1) 
14
1 -0.9
13 -0.15
16 0.15
17 0.15
2 0.14
3 0.14
30 0.15
31 0.4
32 0.4
4 -0.14
5 -0.14
6 0.1
7 -0.15
8 -0.15

>  <PUBCHEM_EFFECTIVE_ROTOR_COUNT>  (1) 
2

>  <PUBCHEM_PHARMACOPHORE_FEATURES>  (1) 
5
1 1 cation
1 1 donor
3 2 9 10 hydrophobe
3 3 11 12 hydrophobe
6 4 5 6 7 8 13 rings

>  <PUBCHEM_HEAVY_ATOM_COUNT>  (1) 
13

>  <PUBCHEM_ATOM_DEF_STEREO_COUNT>  (1) 
0

>  <PUBCHEM_ATOM_UDEF_STEREO_COUNT>  (1) 
0

>  <PUBCHEM_BOND_DEF_STEREO_COUNT>  (1) 
0

>  <PUBCHEM_BOND_UDEF_STEREO_COUNT>  (1) 
0

>  <PUBCHEM_ISOTOPIC_ATOM_COUNT>  (1) 
0

>  <PUBCHEM_COMPONENT_COUNT>  (1) 
1

>  <PUBCHEM_CACTVS_TAUTO_COUNT>  (1) 
1

>  <PUBCHEM_CONFORMER_ID>  (1) 
00007EE400000001

>  <PUBCHEM_MMFF94_ENERGY>  (1) 
50.53

>  <PUBCHEM_FEATURE_SELFOVERLAP>  (1) 
25.371

>  <PUBCHEM_SHAPE_FINGERPRINT>  (1) 
10130415 120 18333448754953575977
10219947 1 18413387648328872059
10353120 184 18337120002756371733
11132069 177 18201433670840119602
11206711 2 18335981969677947877
11543360 7 15647344073053054210
12032990 46 18410582785539706979
124424 183 17894898621167731547
12524768 44 18270119153136831548
13172582 1 18413109480466462427
13380535 21 17909283385448571241
14289901 80 15697708306959528875
14614273 12 17972029254186864149
14993402 34 18411982489685412470
16945 1 18410575084663195846
20201158 50 18261385629356570615
20645476 183 17458635557108700942
20653085 51 14201396049717805477
21061003 4 18410301310979565521
22802520 49 17770229258338705078
2334 1 17978227493216527651
23380061 330 18343014493230234127
23402539 116 18342444929491504822
23419403 2 16261444501425599590
23559900 14 18412826864009555006
2748010 2 18121501524832240407
369184 2 15482667966119297512
449060 23 18060145314269080069
5084963 1 18060138742953279595
53812654 25 18129088077896733028
63268167 104 18269551818206579721
7364860 26 18057327403765337064
81228 2 18193557765961238688

>  <PUBCHEM_SHAPE_MULTIPOLES>  (1) 
262.55
5.58
1.7
1.11
0
0.65
0
-1.66
0
0
0
0
-0.18
0

>  <PUBCHEM_SHAPE_SELFOVERLAP>  (1) 
532.705

>  <PUBCHEM_SHAPE_VOLUME>  (1) 
155.1

>  <PUBCHEM_COORDINATE_TYPE>  (1) 
2
5
10

$$$$
