32489
     RDKit          3D

 25 28  0  0  0  0  0  0  0  0999 V2000
   -7.0906    0.7990   -0.2408 O   0  0  0  0  0  0  0  0  0  0  0  0
   -0.7372   -0.0239    0.0807 O   0  0  0  0  0  0  0  0  0  0  0  0
   -4.4013    0.2288    0.4967 N   0  0  0  0  0  0  0  0  0  0  0  0
    0.2671    0.9501    0.0893 N   0  0  0  0  0  0  0  0  0  0  0  0
   -4.7186    1.1831   -0.5747 C   0  0  0  0  0  0  0  0  0  0  0  0
   -5.4568   -0.7891    0.5933 C   0  0  0  0  0  0  0  0  0  0  0  0
   -3.0991   -0.3940    0.2680 C   0  0  0  0  0  0  0  0  0  0  0  0
   -6.0861    1.8108   -0.3203 C   0  0  0  0  0  0  0  0  0  0  0  0
   -6.8073   -0.1152    0.8191 C   0  0  0  0  0  0  0  0  0  0  0  0
   -1.9814    0.6328    0.2714 C   0  0  0  0  0  0  0  0  0  0  0  0
    1.4063    0.3568   -0.0843 C   0  0  0  0  0  0  0  0  0  0  0  0
    2.6430    1.1649   -0.1160 C   0  0  0  0  0  0  0  0  0  0  0  0
    1.4918   -1.1025   -0.3114 C   0  0  0  0  0  0  0  0  0  0  0  0
    3.7667    0.8461    0.6582 C   0  0  0  0  0  0  0  0  0  0  0  0
    2.3563   -1.9247    0.4235 C   0  0  0  0  0  0  0  0  0  0  0  0
    3.8180   -0.2626    1.6179 C   0  0  0  0  0  0  0  0  0  0  0  0
    3.2107   -1.4521    1.5185 C   0  0  0  0  0  0  0  0  0  0  0  0
    2.6454    2.2942   -0.9492 C   0  0  0  0  0  0  0  0  0  0  0  0
    0.6593   -1.6464   -1.3020 C   0  0  0  0  0  0  0  0  0  0  0  0
    4.8880    1.6900    0.5816 C   0  0  0  0  0  0  0  0  0  0  0  0
    2.3516   -3.3042    0.1547 C   0  0  0  0  0  0  0  0  0  0  0  0
    3.7727    3.1093   -1.0210 C   0  0  0  0  0  0  0  0  0  0  0  0
    0.6811   -3.0145   -1.5630 C   0  0  0  0  0  0  0  0  0  0  0  0
    4.8943    2.8073   -0.2561 C   0  0  0  0  0  0  0  0  0  0  0  0
    1.5262   -3.8439   -0.8342 C   0  0  0  0  0  0  0  0  0  0  0  0
  1  8  1  0
  1  9  1  0
  2  4  1  0
  2 10  1  0
  3  5  1  0
  3  6  1  0
  3  7  1  0
  4 11  2  3
  5  8  1  0
  6  9  1  0
  7 10  1  0
 11 12  1  0
 11 13  1  0
 12 14  2  0
 12 18  1  0
 13 15  2  0
 13 19  1  0
 14 16  1  0
 14 20  1  0
 15 17  1  0
 15 21  1  0
 16 17  2  0
 18 22  2  0
 19 23  2  0
 20 24  2  0
 21 25  2  0
 22 24  1  0
 23 25  1  0
M  END
>  <PUBCHEM_COMPOUND_CID>  (1) 
32489

>  <PUBCHEM_CONFORMER_RMSD>  (1) 
0.8

>  <PUBCHEM_CONFORMER_DIVERSEORDER>  (1) 
1
21
27
7
2
22
13
25
5
30
14
32
19
23
31
34
8
6
16
15
12
9
20
4
3
10
18
29
33
26
24
17
28
11

>  <PUBCHEM_MMFF94_PARTIAL_CHARGES>  (1) 
35
1 -0.56
10 0.28
11 0.28
12 0.09
13 0.09
14 0.03
15 0.03
16 -0.18
17 -0.18
18 -0.15
19 -0.15
2 -0.22
20 -0.15
21 -0.15
22 -0.15
23 -0.15
24 -0.15
25 -0.15
3 -0.81
38 0.15
39 0.15
4 -0.51
40 0.15
41 0.15
42 0.15
43 0.15
44 0.15
45 0.15
46 0.15
47 0.15
5 0.27
6 0.27
7 0.27
8 0.28
9 0.28

>  <PUBCHEM_EFFECTIVE_ROTOR_COUNT>  (1) 
5.2

>  <PUBCHEM_PHARMACOPHORE_FEATURES>  (1) 
7
1 1 acceptor
1 3 cation
1 4 acceptor
6 1 3 5 6 8 9 rings
6 12 14 18 20 22 24 rings
6 13 15 19 21 23 25 rings
7 11 12 13 14 15 16 17 rings

>  <PUBCHEM_HEAVY_ATOM_COUNT>  (1) 
25

>  <PUBCHEM_ATOM_DEF_STEREO_COUNT>  (1) 
0

>  <PUBCHEM_ATOM_UDEF_STEREO_COUNT>  (1) 
0

>  <PUBCHEM_BOND_DEF_STEREO_COUNT>  (1) 
0

>  <PUBCHEM_BOND_UDEF_STEREO_COUNT>  (1) 
0

>  <PUBCHEM_ISOTOPIC_ATOM_COUNT>  (1) 
0

>  <PUBCHEM_COMPONENT_COUNT>  (1) 
1

>  <PUBCHEM_CACTVS_TAUTO_COUNT>  (1) 
1

>  <PUBCHEM_CONFORMER_ID>  (1) 
00007EE900000001

>  <PUBCHEM_MMFF94_ENERGY>  (1) 
85.7369

>  <PUBCHEM_FEATURE_SELFOVERLAP>  (1) 
35.539

>  <PUBCHEM_SHAPE_FINGERPRINT>  (1) 
10411042 1 17906453221577524734
10554248 39 17915736476092564157
10835480 77 18335978684925076773
11719270 70 18412823594595145067
11823591 26 18270675489152080692
12730499 353 18411147947817770337
13533116 47 18059290964360733907
13583140 156 17387666372007576990
14790565 3 18194964282051299220
14955137 171 18338794525597766474
15961568 22 17968099733048031637
16990366 60 18046909277589668234
17844677 252 18264776467862234897
19377110 9 18059583464655669793
19427546 62 18335985362601806634
1979834 28 18412821361175273465
20157964 124 18409446969260142725
20645477 70 18337674118389495387
21049683 271 18126289632733772510
21197605 99 18262805202074449755
22149856 69 18130519570055823731
23559900 14 18266746792187682023
239999 70 18336547110112487547
3178227 256 18410008802617285802
3411729 13 18334015007905594304
4073 2 17458350792350273817
5104073 3 18186810145634079153
6025842 7 18411983542168645311
8272917 22 18334857212480052616
9999458 23 18408326584191717286

>  <PUBCHEM_SHAPE_MULTIPOLES>  (1) 
492.79
14.52
3.92
1.22
32.95
2.3
0.02
-9.9
2.84
-5.65
-1.66
-0.86
0.44
-0.29

>  <PUBCHEM_SHAPE_SELFOVERLAP>  (1) 
1068.623

>  <PUBCHEM_SHAPE_VOLUME>  (1) 
266.9

>  <PUBCHEM_COORDINATE_TYPE>  (1) 
2
5
10

$$$$
