32499
     RDKit          3D

 18 19  0  0  0  0  0  0  0  0999 V2000
   -5.2046    1.3289    0.2459 O   0  0  0  0  0  0  0  0  0  0  0  0
   -6.0566   -1.2976    0.9483 O   0  0  0  0  0  0  0  0  0  0  0  0
    1.1156    0.1116   -0.7231 C   0  0  0  0  0  0  0  0  0  0  0  0
    1.9169   -0.0867    0.5788 C   0  0  0  0  0  0  0  0  0  0  0  0
   -0.3620    0.1584   -0.5261 C   0  0  0  0  0  0  0  0  0  0  0  0
    3.4106   -0.0935    0.3624 C   0  0  0  0  0  0  0  0  0  0  0  0
   -1.1108   -1.0172   -0.5808 C   0  0  0  0  0  0  0  0  0  0  0  0
   -0.9952    1.3781   -0.2870 C   0  0  0  0  0  0  0  0  0  0  0  0
    4.0540   -1.2931    0.1009 C   0  0  0  0  0  0  0  0  0  0  0  0
    4.1126    1.0997    0.4291 C   0  0  0  0  0  0  0  0  0  0  0  0
   -3.1259    0.2464   -0.1570 C   0  0  0  0  0  0  0  0  0  0  0  0
   -2.4926   -0.9732   -0.3962 C   0  0  0  0  0  0  0  0  0  0  0  0
   -2.3771    1.4220   -0.1025 C   0  0  0  0  0  0  0  0  0  0  0  0
    5.4343   -1.2994   -0.0991 C   0  0  0  0  0  0  0  0  0  0  0  0
    5.4931    1.0933    0.2292 C   0  0  0  0  0  0  0  0  0  0  0  0
    6.1540   -0.1062   -0.0350 C   0  0  0  0  0  0  0  0  0  0  0  0
   -4.5669    0.2920    0.0340 C   0  0  0  0  0  0  0  0  0  0  0  0
   -5.3994   -0.9637   -0.0218 C   0  0  0  0  0  0  0  0  0  0  0  0
  1 17  2  0
  2 18  2  0
  3  4  1  0
  3  5  1  0
  4  6  1  0
  5  7  2  0
  5  8  1  0
  6  9  2  0
  6 10  1  0
  7 12  1  0
  8 13  2  0
  9 14  1  0
 10 15  2  0
 11 12  2  0
 11 13  1  0
 11 17  1  0
 14 16  2  0
 15 16  1  0
 17 18  1  0
M  END
>  <PUBCHEM_COMPOUND_CID>  (1) 
32499

>  <PUBCHEM_CONFORMER_RMSD>  (1) 
0.6

>  <PUBCHEM_CONFORMER_DIVERSEORDER>  (1) 
1
45
37
24
15
39
44
25
43
12
20
2
47
14
22
28
8
41
26
17
13
6
30
46
32
27
11
29
33
31
7
48
3
38
23
34
5
10
9
4
40
16
21
42
18
35
36
19

>  <PUBCHEM_MMFF94_PARTIAL_CHARGES>  (1) 
28
1 -0.57
10 -0.15
11 0.09
12 -0.15
13 -0.15
14 -0.15
15 -0.15
16 -0.15
17 0.48
18 0.51
2 -0.57
23 0.15
24 0.15
25 0.15
26 0.15
27 0.15
28 0.15
29 0.15
3 0.14
30 0.15
31 0.15
32 0.06
4 0.14
5 -0.14
6 -0.14
7 -0.15
8 -0.15
9 -0.15

>  <PUBCHEM_EFFECTIVE_ROTOR_COUNT>  (1) 
5

>  <PUBCHEM_PHARMACOPHORE_FEATURES>  (1) 
4
1 1 acceptor
1 2 acceptor
6 5 7 8 11 12 13 rings
6 6 9 10 14 15 16 rings

>  <PUBCHEM_HEAVY_ATOM_COUNT>  (1) 
18

>  <PUBCHEM_ATOM_DEF_STEREO_COUNT>  (1) 
0

>  <PUBCHEM_ATOM_UDEF_STEREO_COUNT>  (1) 
0

>  <PUBCHEM_BOND_DEF_STEREO_COUNT>  (1) 
0

>  <PUBCHEM_BOND_UDEF_STEREO_COUNT>  (1) 
0

>  <PUBCHEM_ISOTOPIC_ATOM_COUNT>  (1) 
0

>  <PUBCHEM_COMPONENT_COUNT>  (1) 
1

>  <PUBCHEM_CACTVS_TAUTO_COUNT>  (1) 
1

>  <PUBCHEM_CONFORMER_ID>  (1) 
00007EF300000001

>  <PUBCHEM_MMFF94_ENERGY>  (1) 
45.1062

>  <PUBCHEM_FEATURE_SELFOVERLAP>  (1) 
20.3

>  <PUBCHEM_SHAPE_FINGERPRINT>  (1) 
10354089 29 18343300384119237768
10366900 7 15791735178919366068
106641 1 18341897450136864875
10968037 39 18186522115650687069
12107183 9 17620193131432995866
12236239 1 18113618975896739924
12516196 113 17967533484390349660
12596602 18 18409450284452552513
12730499 353 18411420622892126226
12916748 109 18410293606050816488
13073987 5 18200872873477697176
13288520 33 18259704510943679311
13533116 47 16877931699671426480
13862211 1 18412543245570110471
1420 363 18333734623671371730
14251718 22 18113336409987662990
14251732 16 18409449227806149162
14341114 176 18343022203129287488
14933364 13 18412829083711256728
15042514 8 18340205323269899151
15716309 27 18341895203842750799
17834072 33 18413386553476150046
17844677 252 18411706477923277184
1813 80 17240485784452615222
18222031 100 16660364779441502758
19489759 90 16950559965771516541
200 152 13117999989560794228
20645477 70 18272088241709430134
21267235 1 18341336617834363806
2297311 6 18341901762067921028
23035841 295 17894347770232219778
23402539 116 18131624582877244573
23536379 177 18341894078154968698
23559900 14 18411411843192996056
29717793 49 12035720999564636554
3004659 81 18341613682043334574
34797466 226 18131080367972335564
3545911 37 18413669119764943924
4073 2 18187930633750396154
4214541 1 18341047432980153468
42788 4 18413106160614881092
4463277 17 18410011030956076453
465052 167 18272090470654876118
5104073 3 18341325587989148248
542803 24 16128655258337163152
77779 3 18413103953581926716

>  <PUBCHEM_SHAPE_MULTIPOLES>  (1) 
358.69
15.9
1.48
0.77
1.51
0.06
0.01
-2.17
2.64
-0.21
0.04
-0.16
-0.06
0.39

>  <PUBCHEM_SHAPE_SELFOVERLAP>  (1) 
764.426

>  <PUBCHEM_SHAPE_VOLUME>  (1) 
198.7

>  <PUBCHEM_COORDINATE_TYPE>  (1) 
2
5
10

$$$$
