32502
     RDKit          3D

 12 12  0  0  1  0  0  0  0  0999 V2000
   -0.0554    1.4134   -0.2002 O   0  0  0  0  0  0  0  0  0  0  0  0
    2.6351   -0.7542    0.5038 O   0  0  0  0  0  0  0  0  0  0  0  0
    2.4497    1.1817   -0.7432 O   0  0  0  0  0  0  0  0  0  0  0  0
   -0.1521   -0.9843   -0.1992 C   0  0  0  0  0  0  0  0  0  0  0  0
    0.5331    0.2522    0.3683 C   0  0  0  0  0  0  0  0  0  0  0  0
   -1.6594   -0.8740   -0.1307 C   0  0  0  0  0  0  0  0  0  0  0  0
   -2.2427    0.3226    0.0997 C   0  0  0  0  0  0  0  0  0  0  0  0
   -1.4072    1.5793    0.2358 C   0  0  0  0  0  0  0  0  0  0  0  0
   -2.3816   -2.1736   -0.3506 C   0  0  0  0  0  0  0  0  0  0  0  0
   -3.7196    0.5563    0.2571 C   0  0  0  0  0  0  0  0  0  0  0  0
    1.9695    0.3067   -0.0353 C   0  0  0  0  0  0  0  0  0  0  0  0
    4.0305   -0.8261    0.1946 C   0  0  0  0  0  0  0  0  0  0  0  0
  1  5  1  0
  1  8  1  0
  2 11  1  0
  2 12  1  0
  3 11  2  0
  4  5  1  0
  4  6  1  0
  5 11  1  0
  6  7  2  0
  6  9  1  0
  7  8  1  0
  7 10  1  0
M  END
>  <PUBCHEM_COMPOUND_CID>  (1) 
32502

>  <PUBCHEM_CONFORMER_RMSD>  (1) 
0.6

>  <PUBCHEM_CONFORMER_DIVERSEORDER>  (1) 
1
3
5
7
8
2
6
4
9

>  <PUBCHEM_MMFF94_PARTIAL_CHARGES>  (1) 
12
1 -0.56
10 0.14
11 0.66
12 0.28
2 -0.43
3 -0.57
4 0.14
5 0.34
6 -0.28
7 -0.28
8 0.42
9 0.14

>  <PUBCHEM_EFFECTIVE_ROTOR_COUNT>  (1) 
2.8

>  <PUBCHEM_PHARMACOPHORE_FEATURES>  (1) 
3
1 1 acceptor
1 3 acceptor
6 1 4 5 6 7 8 rings

>  <PUBCHEM_HEAVY_ATOM_COUNT>  (1) 
12

>  <PUBCHEM_ATOM_DEF_STEREO_COUNT>  (1) 
0

>  <PUBCHEM_ATOM_UDEF_STEREO_COUNT>  (1) 
1

>  <PUBCHEM_BOND_DEF_STEREO_COUNT>  (1) 
0

>  <PUBCHEM_BOND_UDEF_STEREO_COUNT>  (1) 
0

>  <PUBCHEM_ISOTOPIC_ATOM_COUNT>  (1) 
0

>  <PUBCHEM_COMPONENT_COUNT>  (1) 
1

>  <PUBCHEM_CACTVS_TAUTO_COUNT>  (1) 
1

>  <PUBCHEM_CONFORMER_ID>  (1) 
00007EF600000001

>  <PUBCHEM_MMFF94_ENERGY>  (1) 
17.1187

>  <PUBCHEM_FEATURE_SELFOVERLAP>  (1) 
15.236

>  <PUBCHEM_SHAPE_FINGERPRINT>  (1) 
10130415 120 18410290306893519128
11062470 55 13830126174458986417
11132069 177 18412820287449221714
11769659 78 18337947995215702942
12251169 10 18411418384448948992
12932764 1 17631173172048583042
13024252 1 15791736269745691441
13380535 76 18272089353657495367
14325111 11 18410013264307285393
14993402 34 18410006624810078845
15775835 57 18408611382734486908
16945 1 18271534117238230753
18186145 218 17022897990739706946
18511873 20 18335420140663270795
19422 9 18334580191078667559
20279233 1 16559033791841143382
20645476 183 17897185678083288879
207724 885 18333452053762798137
20871998 184 18131632317754804399
21501502 16 18339363088086662085
23402539 116 18130495350144436325
23463225 33 18409167688405123838
23552423 10 18189052152072671454
23559900 14 18273209782266158578
2748010 2 18125995212128739885
3248919 1 17274834557410528512
369184 2 18333449858907837873
7364860 26 18341050813393877880
9939556 21 18334860536568546380

>  <PUBCHEM_SHAPE_MULTIPOLES>  (1) 
229.35
5.87
1.76
0.69
3.12
0.4
0.01
0.91
-0.4
-0.94
0.17
0.1
-0.02
-0.49

>  <PUBCHEM_SHAPE_SELFOVERLAP>  (1) 
457.66

>  <PUBCHEM_SHAPE_VOLUME>  (1) 
135.1

>  <PUBCHEM_COORDINATE_TYPE>  (1) 
2
5
10

$$$$
