32505
     RDKit          3D

 13 14  0  0  0  0  0  0  0  0999 V2000
   -1.8391   -0.6332    1.5238 S   0  0  0  0  0  0  0  0  0  0  0  0
   -1.8495   -0.7097   -1.4663 S   0  0  0  0  0  0  0  0  0  0  0  0
   -0.1653    1.5557   -0.0422 O   0  0  0  0  0  0  0  0  0  0  0  0
   -0.9438   -1.2025    0.0384 C   0  0  0  0  0  0  0  0  0  0  0  0
    0.4979   -0.7468    0.0191 C   0  0  0  0  0  0  0  0  0  0  0  0
   -3.0487    0.4067    0.6643 C   0  0  0  0  0  0  0  0  0  0  0  0
   -3.4014   -0.2753   -0.6415 C   0  0  0  0  0  0  0  0  0  0  0  0
    0.8159    0.6107   -0.0210 C   0  0  0  0  0  0  0  0  0  0  0  0
    1.5150   -1.7010    0.0413 C   0  0  0  0  0  0  0  0  0  0  0  0
    2.1511    1.0139   -0.0392 C   0  0  0  0  0  0  0  0  0  0  0  0
    2.8503   -1.2978    0.0233 C   0  0  0  0  0  0  0  0  0  0  0  0
    3.1682    0.0597   -0.0170 C   0  0  0  0  0  0  0  0  0  0  0  0
    0.2495    2.9196   -0.0831 C   0  0  0  0  0  0  0  0  0  0  0  0
  1  4  1  0
  1  6  1  0
  2  4  1  0
  2  7  1  0
  3  8  1  0
  3 13  1  0
  4  5  1  0
  5  8  2  0
  5  9  1  0
  6  7  1  0
  8 10  1  0
  9 11  2  0
 10 12  2  0
 11 12  1  0
M  END
>  <PUBCHEM_COMPOUND_CID>  (1) 
32505

>  <PUBCHEM_CONFORMER_RMSD>  (1) 
0.6

>  <PUBCHEM_CONFORMER_DIVERSEORDER>  (1) 
3
1
5
4
2

>  <PUBCHEM_MMFF94_PARTIAL_CHARGES>  (1) 
17
1 -0.46
10 -0.15
11 -0.15
12 -0.15
13 0.28
19 0.15
2 -0.46
20 0.15
21 0.15
22 0.15
3 -0.36
4 0.6
5 -0.14
6 0.23
7 0.23
8 0.08
9 -0.15

>  <PUBCHEM_EFFECTIVE_ROTOR_COUNT>  (1) 
3

>  <PUBCHEM_PHARMACOPHORE_FEATURES>  (1) 
3
1 3 acceptor
5 1 2 4 6 7 rings
6 5 8 9 10 11 12 rings

>  <PUBCHEM_HEAVY_ATOM_COUNT>  (1) 
13

>  <PUBCHEM_ATOM_DEF_STEREO_COUNT>  (1) 
0

>  <PUBCHEM_ATOM_UDEF_STEREO_COUNT>  (1) 
0

>  <PUBCHEM_BOND_DEF_STEREO_COUNT>  (1) 
0

>  <PUBCHEM_BOND_UDEF_STEREO_COUNT>  (1) 
0

>  <PUBCHEM_ISOTOPIC_ATOM_COUNT>  (1) 
0

>  <PUBCHEM_COMPONENT_COUNT>  (1) 
1

>  <PUBCHEM_CACTVS_TAUTO_COUNT>  (1) 
1

>  <PUBCHEM_CONFORMER_ID>  (1) 
00007EF900000003

>  <PUBCHEM_MMFF94_ENERGY>  (1) 
39.1067

>  <PUBCHEM_FEATURE_SELFOVERLAP>  (1) 
15.223

>  <PUBCHEM_SHAPE_FINGERPRINT>  (1) 
10130415 120 18260260841693153690
10219947 1 18412547608560466186
10353120 184 18263373507550843326
11471102 20 18408316683511170135
11578080 2 17342900864310821097
124424 183 17894623764493102562
14648413 74 18045219590135817257
14993402 34 18202001031899196367
15775835 57 17917436423398688633
16945 1 18409450280342259358
17844478 74 17748831795620572439
193761 8 17617660303234886438
20201158 50 18187082845111557427
207724 885 18341894104003945519
21130352 189 18408041814289119097
21501502 16 18121786032493543152
23402539 116 18270387317825477158
23402655 69 18411972547337093949
23419403 2 14000040256298443873
25 1 18042112177381716359
2748010 2 17764588716491144014
3286 77 18188213220959793875
353137 74 18188200984149483692
528886 8 18411976983637708578
568465 68 17750252415898605779
63268167 104 18341047501435593817
6992083 37 18131636677278283559
74978 22 18268431402630108791
77492 1 17847063298270207283
81228 2 18191310364515603672

>  <PUBCHEM_SHAPE_MULTIPOLES>  (1) 
269.36
4.89
2.11
1.1
0.58
1.59
-0.04
-0.88
0.09
-0.84
0.06
0.96
-0.25
-0.15

>  <PUBCHEM_SHAPE_SELFOVERLAP>  (1) 
535.445

>  <PUBCHEM_SHAPE_VOLUME>  (1) 
160.8

>  <PUBCHEM_COORDINATE_TYPE>  (1) 
2
5
10

$$$$
