32514
     RDKit          3D

 21 22  0  0  0  0  0  0  0  0999 V2000
   -6.2920   -0.1955    0.1322 N   0  0  0  0  0  0  0  0  0  0  0  0
   -0.2461    0.6980   -0.4533 N   0  0  0  0  0  0  0  0  0  0  0  0
   -0.6948   -0.2874    0.1783 N   0  0  0  0  0  0  0  0  0  0  0  0
    5.9736   -0.5939    0.3592 C   0  0  0  0  0  0  0  0  0  0  0  0
    5.4325    0.6124   -0.4113 C   0  0  0  0  0  0  0  0  0  0  0  0
    7.5017   -0.5877    0.3957 C   0  0  0  0  0  0  0  0  0  0  0  0
    3.9254    0.6357   -0.4235 C   0  0  0  0  0  0  0  0  0  0  0  0
    8.0451   -1.7616    1.1944 C   0  0  0  0  0  0  0  0  0  0  0  0
    3.2417   -0.0057   -1.4455 C   0  0  0  0  0  0  0  0  0  0  0  0
    3.2466    1.2972    0.5890 C   0  0  0  0  0  0  0  0  0  0  0  0
    1.8471    0.0150   -1.4553 C   0  0  0  0  0  0  0  0  0  0  0  0
    1.8519    1.3177    0.5792 C   0  0  0  0  0  0  0  0  0  0  0  0
    1.1521    0.6766   -0.4430 C   0  0  0  0  0  0  0  0  0  0  0  0
   -4.8823   -0.2198    0.1451 C   0  0  0  0  0  0  0  0  0  0  0  0
   -4.1872   -0.8827   -0.8665 C   0  0  0  0  0  0  0  0  0  0  0  0
   -4.1827    0.4202    1.1680 C   0  0  0  0  0  0  0  0  0  0  0  0
   -2.1000   -0.2654    0.1678 C   0  0  0  0  0  0  0  0  0  0  0  0
   -2.7925   -0.9056   -0.8551 C   0  0  0  0  0  0  0  0  0  0  0  0
   -2.7880    0.3975    1.1794 C   0  0  0  0  0  0  0  0  0  0  0  0
   -7.0483   -1.4310    0.1821 C   0  0  0  0  0  0  0  0  0  0  0  0
   -7.0041    1.0662    0.0831 C   0  0  0  0  0  0  0  0  0  0  0  0
  1 14  1  0
  1 20  1  0
  1 21  1  0
  2  3  2  0
  2 13  1  0
  3 17  1  0
  4  5  1  0
  4  6  1  0
  5  7  1  0
  6  8  1  0
  7  9  2  0
  7 10  1  0
  9 11  1  0
 10 12  2  0
 11 13  2  0
 12 13  1  0
 14 15  2  0
 14 16  1  0
 15 18  1  0
 16 19  2  0
 17 18  2  0
 17 19  1  0
M  END
>  <PUBCHEM_COMPOUND_CID>  (1) 
32514

>  <PUBCHEM_CONFORMER_RMSD>  (1) 
0.8

>  <PUBCHEM_CONFORMER_DIVERSEORDER>  (1) 
1
6
2
3
8
5
7
4

>  <PUBCHEM_MMFF94_PARTIAL_CHARGES>  (1) 
26
1 -0.84
10 -0.15
11 -0.15
12 -0.15
13 0.18
14 0.1
15 -0.15
16 -0.15
17 0.18
18 -0.15
19 -0.15
2 -0.18
20 0.37
21 0.37
3 -0.18
31 0.15
32 0.15
33 0.15
34 0.15
35 0.15
36 0.15
37 0.15
38 0.15
5 0.14
7 -0.14
9 -0.15

>  <PUBCHEM_EFFECTIVE_ROTOR_COUNT>  (1) 
6

>  <PUBCHEM_PHARMACOPHORE_FEATURES>  (1) 
4
1 1 cation
1 8 hydrophobe
6 14 15 16 17 18 19 rings
6 7 9 10 11 12 13 rings

>  <PUBCHEM_HEAVY_ATOM_COUNT>  (1) 
21

>  <PUBCHEM_ATOM_DEF_STEREO_COUNT>  (1) 
0

>  <PUBCHEM_ATOM_UDEF_STEREO_COUNT>  (1) 
0

>  <PUBCHEM_BOND_DEF_STEREO_COUNT>  (1) 
0

>  <PUBCHEM_BOND_UDEF_STEREO_COUNT>  (1) 
0

>  <PUBCHEM_ISOTOPIC_ATOM_COUNT>  (1) 
0

>  <PUBCHEM_COMPONENT_COUNT>  (1) 
1

>  <PUBCHEM_CACTVS_TAUTO_COUNT>  (1) 
1

>  <PUBCHEM_CONFORMER_ID>  (1) 
00007F0200000001

>  <PUBCHEM_MMFF94_ENERGY>  (1) 
67.7174

>  <PUBCHEM_FEATURE_SELFOVERLAP>  (1) 
20.297

>  <PUBCHEM_SHAPE_FINGERPRINT>  (1) 
10 15 16487248890363025122
10299344 5 18186803578132944274
106641 1 12607398914862870709
11315181 36 17704077321652731481
11524674 6 17530969107211736387
11719270 70 17346602963348831942
12166972 35 18114747130841339421
12236239 1 18409169939395150925
12516196 113 14764351535199341579
12838862 33 16917058928878676413
13073987 5 16486707865415887347
13533116 47 18335700516207871586
13540713 4 16914547541732653868
13668630 136 17022904574840305971
13685833 64 17749107782072300746
13885169 127 17967529030372243620
13914758 101 18409731716537839409
14123256 10 10665230350140632522
14251752 14 18333730191407729093
14251764 18 18272651272850095684
14251764 46 18410856568235011927
14617045 38 13695585550886602521
15475509 35 18263628621025957914
15690457 1 18409163325029899394
15716309 27 18411416211707193604
17093844 174 15913334585741742579
17834072 8 15574713603840429962
19489759 90 17346884450872606353
200 152 15482681169508200381
20105231 36 14129347260431880937
2026 5 17458897121187162850
20735858 18 16917067759373557006
21095086 128 17240484728265414299
21637258 2 18113890543254141858
21792961 116 13118279236156691152
220451 1 12540692647737990465
221357 26 14707203336050953030
22224240 67 15554442999054897382
2297311 6 14706925142434595959
23035841 295 15791728611576481104
23402539 116 17561081436799144933
23559900 14 16988560243005104929
246663 6 16225768505942193194
26918003 58 17632300107221762263
28498 318 17749387040434442966
29717793 49 17095246925647600676
300161 21 15913329087191710181
33532 11 18040712555036004082
3545911 37 17203616999088827277
4073 2 18269838782004022478
4325135 7 8502655913544500186
4340502 62 15841835543262286204
5104073 3 17631173167769583546
559249 180 18342174492697140151
5758199 1 13470689252255288164
59682541 35 14979666724055909886
59755656 520 18187362168985249763
6438161 24 17022892442591494594
67856867 119 17274535554609285057

>  <PUBCHEM_SHAPE_MULTIPOLES>  (1) 
417.23
22.24
1.3
1.18
7.37
0.14
0.1
7.84
-5.7
0.49
-0.23
0.68
0.1
-1.27

>  <PUBCHEM_SHAPE_SELFOVERLAP>  (1) 
867.054

>  <PUBCHEM_SHAPE_VOLUME>  (1) 
240.4

>  <PUBCHEM_COORDINATE_TYPE>  (1) 
2
5
10

$$$$
