32517
     RDKit          3D

 28 30  0  0  1  0  0  0  0  0999 V2000
    1.3109    6.0647    0.5546 Cl  0  0  0  0  0  0  0  0  0  0  0  0
   -5.7895   -0.5352    1.2448 O   0  0  0  0  0  0  0  0  0  0  0  0
   -1.3183   -1.5995   -0.5362 O   0  0  0  0  0  0  0  0  0  0  0  0
    2.9833   -0.4016    1.9285 O   0  0  0  0  0  0  0  0  0  0  0  0
   -3.3387   -0.5244   -0.1457 N   0  0  0  0  0  0  0  0  0  0  0  0
   -0.2845    0.4701   -1.7561 N   0  0  0  0  0  0  0  0  0  0  0  0
    1.8202    0.2070   -0.0215 N   0  0  0  0  0  0  0  0  0  0  0  0
   -4.0824   -1.7689    0.0498 C   0  0  0  0  0  0  0  0  0  0  0  0
   -4.1631    0.6868   -0.0771 C   0  0  0  0  0  0  0  0  0  0  0  0
   -1.3348    0.7561   -0.8035 C   0  0  0  0  0  0  0  0  0  0  0  0
   -4.9392   -1.6833    1.3048 C   0  0  0  0  0  0  0  0  0  0  0  0
   -5.0218    0.6696    1.1813 C   0  0  0  0  0  0  0  0  0  0  0  0
   -1.9885   -0.5650   -0.4863 C   0  0  0  0  0  0  0  0  0  0  0  0
    0.4651    1.6860   -2.0952 C   0  0  0  0  0  0  0  0  0  0  0  0
    1.0469    2.3455   -0.8731 C   0  0  0  0  0  0  0  0  0  0  0  0
   -0.8307   -0.1348   -2.9771 C   0  0  0  0  0  0  0  0  0  0  0  0
    1.6909    1.5929    0.1009 C   0  0  0  0  0  0  0  0  0  0  0  0
    0.9242    3.7234   -0.7420 C   0  0  0  0  0  0  0  0  0  0  0  0
    2.2208    2.2277    1.2240 C   0  0  0  0  0  0  0  0  0  0  0  0
    1.4542    4.3584    0.3813 C   0  0  0  0  0  0  0  0  0  0  0  0
    2.1024    3.6105    1.3643 C   0  0  0  0  0  0  0  0  0  0  0  0
    2.4370   -0.6817    0.8669 C   0  0  0  0  0  0  0  0  0  0  0  0
    2.4384   -2.1063    0.4425 C   0  0  0  0  0  0  0  0  0  0  0  0
    2.4837   -3.0884    1.4096 C   0  0  0  0  0  0  0  0  0  0  0  0
    2.3939   -2.3993   -0.9044 C   0  0  0  0  0  0  0  0  0  0  0  0
    2.4848   -4.4253    1.0115 C   0  0  0  0  0  0  0  0  0  0  0  0
    2.3948   -3.7362   -1.3024 C   0  0  0  0  0  0  0  0  0  0  0  0
    2.4403   -4.7491   -0.3444 C   0  0  0  0  0  0  0  0  0  0  0  0
  1 20  1  0
  2 11  1  0
  2 12  1  0
  3 13  2  0
  4 22  2  0
  5  8  1  0
  5  9  1  0
  5 13  1  0
  6 10  1  0
  6 14  1  0
  6 16  1  0
  7 17  1  0
  7 22  1  0
  8 11  1  0
  9 12  1  0
 10 13  1  0
 14 15  1  0
 15 17  1  0
 15 18  2  0
 17 19  2  0
 18 20  1  0
 19 21  1  0
 20 21  2  0
 22 23  1  0
 23 24  2  0
 23 25  1  0
 24 26  1  0
 25 27  2  0
 26 28  2  0
 27 28  1  0
M  END
>  <PUBCHEM_COMPOUND_CID>  (1) 
32517

>  <PUBCHEM_CONFORMER_RMSD>  (1) 
1

>  <PUBCHEM_CONFORMER_DIVERSEORDER>  (1) 
1
19
26
4
18
32
38
3
21
8
20
16
34
27
10
11
5
28
24
29
12
25
9
17
33
7
6
37
36
31
40
35
2
23
39
30
14
15
22
13

>  <PUBCHEM_MMFF94_PARTIAL_CHARGES>  (1) 
37
1 -0.18
10 0.33
11 0.28
12 0.28
13 0.57
14 0.41
15 -0.14
16 0.27
17 0.12
18 -0.15
19 -0.15
2 -0.56
20 0.18
21 -0.15
22 0.54
23 0.09
24 -0.15
25 -0.15
26 -0.15
27 -0.15
28 -0.15
3 -0.57
4 -0.57
44 0.15
45 0.15
46 0.37
47 0.15
48 0.15
49 0.15
5 -0.66
50 0.15
51 0.15
52 0.15
6 -0.81
7 -0.55
8 0.3
9 0.3

>  <PUBCHEM_EFFECTIVE_ROTOR_COUNT>  (1) 
9.2

>  <PUBCHEM_PHARMACOPHORE_FEATURES>  (1) 
8
1 2 acceptor
1 3 acceptor
1 4 acceptor
1 6 cation
1 7 donor
6 15 17 18 19 20 21 rings
6 2 5 8 9 11 12 rings
6 23 24 25 26 27 28 rings

>  <PUBCHEM_HEAVY_ATOM_COUNT>  (1) 
28

>  <PUBCHEM_ATOM_DEF_STEREO_COUNT>  (1) 
0

>  <PUBCHEM_ATOM_UDEF_STEREO_COUNT>  (1) 
0

>  <PUBCHEM_BOND_DEF_STEREO_COUNT>  (1) 
0

>  <PUBCHEM_BOND_UDEF_STEREO_COUNT>  (1) 
0

>  <PUBCHEM_ISOTOPIC_ATOM_COUNT>  (1) 
0

>  <PUBCHEM_COMPONENT_COUNT>  (1) 
1

>  <PUBCHEM_CACTVS_TAUTO_COUNT>  (1) 
2

>  <PUBCHEM_CONFORMER_ID>  (1) 
00007F0500000001

>  <PUBCHEM_MMFF94_ENERGY>  (1) 
91.2076

>  <PUBCHEM_FEATURE_SELFOVERLAP>  (1) 
40.597

>  <PUBCHEM_SHAPE_FINGERPRINT>  (1) 
10064457 181 17761207017977072728
11421498 54 18265072274828392484
12160290 23 17254249251702162190
12788726 201 17832439604568794806
13135754 10 17548139926630351014
13533116 47 18335993038753064451
13583140 156 18411414055734150085
14363568 33 18411695483334299194
14866123 147 16897926064797851987
14955137 171 18411421734998167456
17868525 174 18339649932443062065
17974551 9 18342172207705830985
20642791 268 18271517671781937993
21120745 212 17906758924484896820
21756936 100 17191224652567472824
21796203 349 18116971451791843304
23466295 7 17472420946108794834
3117164 225 18266191552349014209
3380486 145 17981004619423484574
3737641 26 18337393717165405102
392239 28 15959764040145107017
445580 42 17112392435025323506
59755656 520 17689994961318885396
7097593 13 18411981356235967871
79837 15 17546443839633934656
9658208 31 17473562711593284476

>  <PUBCHEM_SHAPE_MULTIPOLES>  (1) 
545.55
7.87
7.7
1.93
10.68
10.06
0.91
-12.1
-4
-4.84
-2
-0.08
-0.05
1.29

>  <PUBCHEM_SHAPE_SELFOVERLAP>  (1) 
1150.417

>  <PUBCHEM_SHAPE_VOLUME>  (1) 
305.9

>  <PUBCHEM_COORDINATE_TYPE>  (1) 
2
5
10

$$$$
