32513
     RDKit          3D

 20 21  0  0  0  0  0  0  0  0999 V2000
    5.8385    0.0948    0.1232 N   0  0  0  0  0  0  0  0  0  0  0  0
   -0.2862   -0.0110    0.5615 N   0  0  0  0  0  0  0  0  0  0  0  0
    0.2845   -0.1234   -0.5487 N   0  0  0  0  0  0  0  0  0  0  0  0
   -5.9212   -0.2283   -0.1149 C   0  0  0  0  0  0  0  0  0  0  0  0
   -4.4415   -0.1712    0.0617 C   0  0  0  0  0  0  0  0  0  0  0  0
   -6.3683    0.2687   -1.5028 C   0  0  0  0  0  0  0  0  0  0  0  0
   -6.6759    0.5435    0.9841 C   0  0  0  0  0  0  0  0  0  0  0  0
   -3.7198   -1.3444    0.2807 C   0  0  0  0  0  0  0  0  0  0  0  0
   -3.7794    1.0555    0.0087 C   0  0  0  0  0  0  0  0  0  0  0  0
   -2.3359   -1.2912    0.4469 C   0  0  0  0  0  0  0  0  0  0  0  0
   -2.3954    1.1088    0.1748 C   0  0  0  0  0  0  0  0  0  0  0  0
   -1.6736   -0.0647    0.3938 C   0  0  0  0  0  0  0  0  0  0  0  0
    4.4393    0.0395   -0.0459 C   0  0  0  0  0  0  0  0  0  0  0  0
    3.7779   -1.1875    0.0076 C   0  0  0  0  0  0  0  0  0  0  0  0
    3.7167    1.2121   -0.2667 C   0  0  0  0  0  0  0  0  0  0  0  0
    1.6786   -0.0693   -0.3798 C   0  0  0  0  0  0  0  0  0  0  0  0
    2.3943   -1.2421   -0.1599 C   0  0  0  0  0  0  0  0  0  0  0  0
    2.3330    1.1575   -0.4340 C   0  0  0  0  0  0  0  0  0  0  0  0
    6.6713   -1.0199   -0.2822 C   0  0  0  0  0  0  0  0  0  0  0  0
    6.4630    1.2727    0.6918 C   0  0  0  0  0  0  0  0  0  0  0  0
  1 13  1  0
  1 19  1  0
  1 20  1  0
  2  3  2  0
  2 12  1  0
  3 16  1  0
  4  5  1  0
  4  6  1  0
  4  7  1  0
  5  8  2  0
  5  9  1  0
  8 10  1  0
  9 11  2  0
 10 12  2  0
 11 12  1  0
 13 14  2  0
 13 15  1  0
 14 17  1  0
 15 18  2  0
 16 17  2  0
 16 18  1  0
M  END
>  <PUBCHEM_COMPOUND_CID>  (1) 
32513

>  <PUBCHEM_CONFORMER_RMSD>  (1) 
0.6

>  <PUBCHEM_CONFORMER_DIVERSEORDER>  (1) 
1
2
3
4
8
5
6
7

>  <PUBCHEM_MMFF94_PARTIAL_CHARGES>  (1) 
26
1 -0.84
10 -0.15
11 -0.15
12 0.18
13 0.1
14 -0.15
15 -0.15
16 0.18
17 -0.15
18 -0.15
19 0.37
2 -0.18
20 0.37
28 0.15
29 0.15
3 -0.18
30 0.15
31 0.15
32 0.15
33 0.15
34 0.15
35 0.15
4 0.14
5 -0.14
8 -0.15
9 -0.15

>  <PUBCHEM_EFFECTIVE_ROTOR_COUNT>  (1) 
4

>  <PUBCHEM_PHARMACOPHORE_FEATURES>  (1) 
4
1 1 cation
3 4 6 7 hydrophobe
6 13 14 15 16 17 18 rings
6 5 8 9 10 11 12 rings

>  <PUBCHEM_HEAVY_ATOM_COUNT>  (1) 
20

>  <PUBCHEM_ATOM_DEF_STEREO_COUNT>  (1) 
0

>  <PUBCHEM_ATOM_UDEF_STEREO_COUNT>  (1) 
0

>  <PUBCHEM_BOND_DEF_STEREO_COUNT>  (1) 
0

>  <PUBCHEM_BOND_UDEF_STEREO_COUNT>  (1) 
0

>  <PUBCHEM_ISOTOPIC_ATOM_COUNT>  (1) 
0

>  <PUBCHEM_COMPONENT_COUNT>  (1) 
1

>  <PUBCHEM_CACTVS_TAUTO_COUNT>  (1) 
1

>  <PUBCHEM_CONFORMER_ID>  (1) 
00007F0100000001

>  <PUBCHEM_MMFF94_ENERGY>  (1) 
69.139

>  <PUBCHEM_FEATURE_SELFOVERLAP>  (1) 
20.297

>  <PUBCHEM_SHAPE_FINGERPRINT>  (1) 
10 15 18338227263565745520
10087517 78 17988649549979565385
10968037 39 18412825798483119047
11089746 13 17918272073447007497
11315181 36 18410016554352532601
11719270 70 18412540995007630350
12091667 2 17022621984000136619
12107183 9 17688871934607117728
12166972 35 18412266146701376896
12236239 1 17703790323126421494
12516196 113 18130786767416581713
13073987 5 18114743720541698161
13533116 47 18060137588061368218
14170010 4 18407760348435313860
14251764 18 18410014346649574025
14251764 46 18410855455843770002
15183329 4 18260261928530817421
17834076 25 17918275346143476291
19489759 90 18413108355522588977
200 152 17989205941269232075
20281389 69 18260829293384032644
20645477 70 18342179908171034502
21150785 3 16773792632150793717
21267235 1 18335148578439385250
220451 1 13623529073582187632
22224240 67 17989480832377972390
23035841 295 14836403631431230375
23402539 116 18408881867380400351
23559900 14 18339637953309469897
26918003 58 18334579065760215499
29717793 49 18060426802642362996
300161 21 18333726927084806467
3004659 81 18186521012234748312
34797466 226 17704078408522284172
351380 180 18409167731270257840
3545911 37 18407761430117940090
4073 2 18041003989936288338
4214541 1 18408325471109268013
4325135 7 17989485217259714757
5104073 3 18336270020149082987
542803 24 17274825748495739195
59755656 215 18040996211381230070
59755656 520 15936408970473161667
67856867 119 18263364861692311068

>  <PUBCHEM_SHAPE_MULTIPOLES>  (1) 
396.65
19.07
1.37
0.87
1.6
0.06
0.11
-1.5
0
0.78
-0.07
-0.9
-0.08
0.37

>  <PUBCHEM_SHAPE_SELFOVERLAP>  (1) 
833.026

>  <PUBCHEM_SHAPE_VOLUME>  (1) 
226.6

>  <PUBCHEM_COORDINATE_TYPE>  (1) 
2
5
10

$$$$
