32515
     RDKit          3D

 21 22  0  0  0  0  0  0  0  0999 V2000
    0.0167   -0.0641   -0.5622 N   0  0  0  0  0  0  0  0  0  0  0  0
    6.1421   -0.0165   -0.1224 N   0  0  0  0  0  0  0  0  0  0  0  0
    0.5842    0.0613    0.5483 N   0  0  0  0  0  0  0  0  0  0  0  0
   -5.6222    0.0105    0.1130 C   0  0  0  0  0  0  0  0  0  0  0  0
   -4.0955   -0.0098   -0.0689 C   0  0  0  0  0  0  0  0  0  0  0  0
   -6.2878    0.5999   -1.1494 C   0  0  0  0  0  0  0  0  0  0  0  0
   -5.9887    0.8817    1.3340 C   0  0  0  0  0  0  0  0  0  0  0  0
   -6.2426   -1.3857    0.3463 C   0  0  0  0  0  0  0  0  0  0  0  0
   -3.4495    1.1821   -0.2809 C   0  0  0  0  0  0  0  0  0  0  0  0
   -3.4486   -1.2189   -0.0115 C   0  0  0  0  0  0  0  0  0  0  0  0
   -2.0646    1.1638   -0.4468 C   0  0  0  0  0  0  0  0  0  0  0  0
   -2.0638   -1.2372   -0.1772 C   0  0  0  0  0  0  0  0  0  0  0  0
   -1.3716   -0.0457   -0.3948 C   0  0  0  0  0  0  0  0  0  0  0  0
    4.7419    0.0035    0.0464 C   0  0  0  0  0  0  0  0  0  0  0  0
    1.9793    0.0425    0.3797 C   0  0  0  0  0  0  0  0  0  0  0  0
    4.0499    1.2135   -0.0059 C   0  0  0  0  0  0  0  0  0  0  0  0
    4.0489   -1.1872    0.2658 C   0  0  0  0  0  0  0  0  0  0  0  0
    2.6652    1.2331    0.1613 C   0  0  0  0  0  0  0  0  0  0  0  0
    2.6643   -1.1676    0.4328 C   0  0  0  0  0  0  0  0  0  0  0  0
    6.9465    1.1184    0.2844 C   0  0  0  0  0  0  0  0  0  0  0  0
    6.7961   -1.1777   -0.6921 C   0  0  0  0  0  0  0  0  0  0  0  0
  1  3  2  0
  1 13  1  0
  2 14  1  0
  2 20  1  0
  2 21  1  0
  3 15  1  0
  4  5  1  0
  4  6  1  0
  4  7  1  0
  4  8  1  0
  5  9  2  0
  5 10  1  0
  9 11  1  0
 10 12  2  0
 11 13  2  0
 12 13  1  0
 14 16  2  0
 14 17  1  0
 15 18  2  0
 15 19  1  0
 16 18  1  0
 17 19  2  0
M  END
>  <PUBCHEM_COMPOUND_CID>  (1) 
32515

>  <PUBCHEM_CONFORMER_RMSD>  (1) 
0.6

>  <PUBCHEM_CONFORMER_DIVERSEORDER>  (1) 
1
3
2
4

>  <PUBCHEM_MMFF94_PARTIAL_CHARGES>  (1) 
26
1 -0.18
10 -0.15
11 -0.15
12 -0.15
13 0.18
14 0.1
15 0.18
16 -0.15
17 -0.15
18 -0.15
19 -0.15
2 -0.84
20 0.37
21 0.37
3 -0.18
31 0.15
32 0.15
33 0.15
34 0.15
35 0.15
36 0.15
37 0.15
38 0.15
4 0.14
5 -0.14
9 -0.15

>  <PUBCHEM_EFFECTIVE_ROTOR_COUNT>  (1) 
4

>  <PUBCHEM_PHARMACOPHORE_FEATURES>  (1) 
4
1 2 cation
4 4 6 7 8 hydrophobe
6 14 15 16 17 18 19 rings
6 5 9 10 11 12 13 rings

>  <PUBCHEM_HEAVY_ATOM_COUNT>  (1) 
21

>  <PUBCHEM_ATOM_DEF_STEREO_COUNT>  (1) 
0

>  <PUBCHEM_ATOM_UDEF_STEREO_COUNT>  (1) 
0

>  <PUBCHEM_BOND_DEF_STEREO_COUNT>  (1) 
0

>  <PUBCHEM_BOND_UDEF_STEREO_COUNT>  (1) 
0

>  <PUBCHEM_ISOTOPIC_ATOM_COUNT>  (1) 
0

>  <PUBCHEM_COMPONENT_COUNT>  (1) 
1

>  <PUBCHEM_CACTVS_TAUTO_COUNT>  (1) 
1

>  <PUBCHEM_CONFORMER_ID>  (1) 
00007F0300000001

>  <PUBCHEM_MMFF94_ENERGY>  (1) 
83.4159

>  <PUBCHEM_FEATURE_SELFOVERLAP>  (1) 
20.297

>  <PUBCHEM_SHAPE_FINGERPRINT>  (1) 
10 15 18187077404205853064
10299344 5 18342179963862768531
10354089 29 18334574642608473744
106641 1 18336274509560902049
10968037 39 18259703406720385311
11089746 13 17418371411044531097
11315181 36 18343302587600945569
11524674 6 16845573136537645151
12091667 2 17312821581081910109
12107183 9 17689150111096424329
12166972 35 18410577301236306928
12236239 1 17989489619405968608
12516196 113 18411980273529890232
12730499 353 18186241719412660842
13073987 5 18334853862563914864
13288520 33 18335138718191538263
13533116 47 13686029661444376692
14170010 4 18409728487418946688
1420 363 17603308150028756800
14251752 14 16272211851292698641
14251764 18 18202282519570742156
14251764 46 18411135844188480007
14341114 176 18409732867567943084
14617045 38 18334580126870747842
14933364 13 18412265038641375680
15183329 4 18413105035201645883
17093844 174 17603581933642310089
17844677 252 18409172107879420973
19489759 90 15482672377741865555
20281389 69 18411980256466260624
21267235 1 18408610261684517764
21315759 40 17060617811173002349
221357 26 18411416194443311604
22224240 67 15791729733132560344
2297311 6 18410015416128254837
23035841 295 18334295357695968458
23198884 109 17775568632805634707
23402539 116 17418370286438325981
23522609 53 18194430894195044796
23536379 177 18202003226722248154
23559900 14 18340480170494490889
29717793 49 17632302268107367852
300161 21 18334287673756837178
3004659 81 18408039611424531488
34797466 226 18131637803182350420
3545911 37 18408321090363815492
4073 2 18041846224549156834
4214541 1 18410009922933622357
4325135 7 17967534571470502926
4340502 62 16226043393272613146
4463277 17 18411136939663752776
5104073 3 18338230573988265171
542803 24 17561362881093704353
59755656 215 18335138665913790342

>  <PUBCHEM_SHAPE_MULTIPOLES>  (1) 
417.23
20.01
1.46
0.86
7.3
0.1
-0.03
-0.04
-0.01
0.17
-0.03
-0.77
-0.09
0.38

>  <PUBCHEM_SHAPE_SELFOVERLAP>  (1) 
879.399

>  <PUBCHEM_SHAPE_VOLUME>  (1) 
237.3

>  <PUBCHEM_COORDINATE_TYPE>  (1) 
2
5
10

$$$$
