32518
     RDKit          3D

 21 21  0  0  1  0  0  0  0  0999 V2000
    7.5745    0.5172    0.2652 O   0  0  0  0  0  0  0  0  0  0  0  0
    4.8456   -0.2480   -0.0239 N   0  0  0  0  0  0  0  0  0  0  0  0
    5.2473    0.7929    0.9322 C   0  0  0  0  0  0  0  0  0  0  0  0
    5.9313   -1.2283   -0.1668 C   0  0  0  0  0  0  0  0  0  0  0  0
    3.6121   -0.9015    0.4101 C   0  0  0  0  0  0  0  0  0  0  0  0
    6.5386    1.4836    0.4775 C   0  0  0  0  0  0  0  0  0  0  0  0
    7.2068   -0.5255   -0.6438 C   0  0  0  0  0  0  0  0  0  0  0  0
    2.4013   -0.0572    0.0131 C   0  0  0  0  0  0  0  0  0  0  0  0
    1.0652   -0.6825    0.4265 C   0  0  0  0  0  0  0  0  0  0  0  0
   -0.1517    0.1221   -0.0377 C   0  0  0  0  0  0  0  0  0  0  0  0
   -1.4568   -0.5839    0.3388 C   0  0  0  0  0  0  0  0  0  0  0  0
   -2.7121    0.1919   -0.0734 C   0  0  0  0  0  0  0  0  0  0  0  0
   -4.0485   -0.5052    0.2037 C   0  0  0  0  0  0  0  0  0  0  0  0
    6.3506    2.3810   -0.7450 C   0  0  0  0  0  0  0  0  0  0  0  0
    8.3729   -1.5041   -0.7133 C   0  0  0  0  0  0  0  0  0  0  0  0
   -5.2644    0.3427   -0.1777 C   0  0  0  0  0  0  0  0  0  0  0  0
   -6.5996   -0.3581    0.0930 C   0  0  0  0  0  0  0  0  0  0  0  0
   -7.8155    0.4792   -0.3103 C   0  0  0  0  0  0  0  0  0  0  0  0
   -9.1218   -0.2330    0.0474 C   0  0  0  0  0  0  0  0  0  0  0  0
  -10.3377    0.6176   -0.3194 C   0  0  0  0  0  0  0  0  0  0  0  0
  -11.6380   -0.1010    0.0038 C   0  0  0  0  0  0  0  0  0  0  0  0
  1  6  1  0
  1  7  1  0
  2  3  1  0
  2  4  1  0
  2  5  1  0
  3  6  1  0
  4  7  1  0
  5  8  1  0
  6 14  1  0
  7 15  1  0
  8  9  1  0
  9 10  1  0
 10 11  1  0
 11 12  1  0
 12 13  1  0
 13 16  1  0
 16 17  1  0
 17 18  1  0
 18 19  1  0
 19 20  1  0
 20 21  1  0
M  END
>  <PUBCHEM_COMPOUND_CID>  (1) 
32518

>  <PUBCHEM_CONFORMER_RMSD>  (1) 
1.4

>  <PUBCHEM_CONFORMER_DIVERSEORDER>  (1) 
1
69
14
54
7
3
65
56
10
17
22
55
43
41
34
52
8
61
66
20
15
47
37
28
58
59
21
68
67
45
2
27
51
73
16
48
35
31
36
50
64
29
42
71
24
13
46
57
63
70
5
44
11
38
72
60
39
18
49
12
4
6
25
19
26
30
9
40
53
33
62
23
32

>  <PUBCHEM_MMFF94_PARTIAL_CHARGES>  (1) 
7
1 -0.56
2 -0.81
3 0.27
4 0.27
5 0.27
6 0.28
7 0.28

>  <PUBCHEM_EFFECTIVE_ROTOR_COUNT>  (1) 
13.2

>  <PUBCHEM_PHARMACOPHORE_FEATURES>  (1) 
4
1 1 acceptor
1 2 cation
1 21 hydrophobe
6 1 2 3 4 6 7 rings

>  <PUBCHEM_HEAVY_ATOM_COUNT>  (1) 
21

>  <PUBCHEM_ATOM_DEF_STEREO_COUNT>  (1) 
0

>  <PUBCHEM_ATOM_UDEF_STEREO_COUNT>  (1) 
2

>  <PUBCHEM_BOND_DEF_STEREO_COUNT>  (1) 
0

>  <PUBCHEM_BOND_UDEF_STEREO_COUNT>  (1) 
0

>  <PUBCHEM_ISOTOPIC_ATOM_COUNT>  (1) 
0

>  <PUBCHEM_COMPONENT_COUNT>  (1) 
1

>  <PUBCHEM_CACTVS_TAUTO_COUNT>  (1) 
1

>  <PUBCHEM_CONFORMER_ID>  (1) 
00007F0600000001

>  <PUBCHEM_MMFF94_ENERGY>  (1) 
12.8618

>  <PUBCHEM_FEATURE_SELFOVERLAP>  (1) 
20.297

>  <PUBCHEM_SHAPE_FINGERPRINT>  (1) 
10299344 5 17561081406064389175
11315181 36 18343022199773064099
13533116 47 16660631931271968024
14251764 18 17775570840740721257
14251764 46 18410855455833207491
14344974 52 18260265288123716219
15061470 23 18131068222000053081
15510794 2 18413674617550488327
155225 1 18408885174732513080
15840311 113 18334016120571624108
16120349 18 18408884066129712925
1754911 235 18409725163087502935
21150785 3 18060700593948954563
21362267 2 18261940947539268989
21362267 313 18042114359620800489
22224240 67 17530963592536829923
232437 2 18131350809341443279
23521765 1 18342175562259696931
23581129 1 18409448076660176043
246663 6 13614521870654815283
33684 2 15985384478533926407
5283156 175 17275105016249753590
59521099 67 18060700603262609360
59682541 35 17167865271095768137
67123 10 18411136940449645323
8209 1 18411136931595979675

>  <PUBCHEM_SHAPE_MULTIPOLES>  (1) 
421.32
41.14
1.37
0.77
84.45
0.55
0
2.88
4.95
-3.94
0.19
-0.74
0.05
0.67

>  <PUBCHEM_SHAPE_SELFOVERLAP>  (1) 
786.289

>  <PUBCHEM_SHAPE_VOLUME>  (1) 
264.8

>  <PUBCHEM_COORDINATE_TYPE>  (1) 
2
5
10

$$$$
