32510
     RDKit          3D

 12 11  0  0  0  0  0  0  0  0999 V2000
    2.0599   -0.0792   -0.1044 Si  0  0  0  0  0  4  0  0  0  0  0  0
   -2.0065    1.3460   -0.4248 F   0  0  0  0  0  0  0  0  0  0  0  0
   -2.9234   -0.1214    0.8903 F   0  0  0  0  0  0  0  0  0  0  0  0
   -2.5048   -0.6223   -1.1996 F   0  0  0  0  0  0  0  0  0  0  0  0
   -0.5164   -1.6519    0.5919 O   0  0  0  0  0  0  0  0  0  0  0  0
    0.3784    0.4862    0.2600 N   0  0  0  0  0  0  0  0  0  0  0  0
    1.9718   -1.5757   -1.2290 C   0  0  0  0  0  0  0  0  0  0  0  0
    3.0544    1.2600   -0.9648 C   0  0  0  0  0  0  0  0  0  0  0  0
    2.9186   -0.5232    1.5013 C   0  0  0  0  0  0  0  0  0  0  0  0
    0.2317    1.9224    0.5068 C   0  0  0  0  0  0  0  0  0  0  0  0
   -0.6465   -0.4639    0.2821 C   0  0  0  0  0  0  0  0  0  0  0  0
   -2.0174    0.0231   -0.1098 C   0  0  0  0  0  0  0  0  0  0  0  0
  1  6  1  0
  1  7  1  0
  1  8  1  0
  1  9  1  0
  2 12  1  0
  3 12  1  0
  4 12  1  0
  5 11  2  0
  6 10  1  0
  6 11  1  0
 11 12  1  0
M  END
>  <PUBCHEM_COMPOUND_CID>  (1) 
32510

>  <PUBCHEM_CONFORMER_RMSD>  (1) 
0.6

>  <PUBCHEM_CONFORMER_DIVERSEORDER>  (1) 
4
2
1
3

>  <PUBCHEM_MMFF94_PARTIAL_CHARGES>  (1) 
12
1 0.58
10 0.3
11 0.57
12 1.08
2 -0.34
3 -0.34
4 -0.34
5 -0.57
6 -0.7
7 -0.08
8 -0.08
9 -0.08

>  <PUBCHEM_EFFECTIVE_ROTOR_COUNT>  (1) 
3

>  <PUBCHEM_PHARMACOPHORE_FEATURES>  (1) 
1
1 5 acceptor

>  <PUBCHEM_HEAVY_ATOM_COUNT>  (1) 
12

>  <PUBCHEM_ATOM_DEF_STEREO_COUNT>  (1) 
0

>  <PUBCHEM_ATOM_UDEF_STEREO_COUNT>  (1) 
0

>  <PUBCHEM_BOND_DEF_STEREO_COUNT>  (1) 
0

>  <PUBCHEM_BOND_UDEF_STEREO_COUNT>  (1) 
0

>  <PUBCHEM_ISOTOPIC_ATOM_COUNT>  (1) 
0

>  <PUBCHEM_COMPONENT_COUNT>  (1) 
1

>  <PUBCHEM_CACTVS_TAUTO_COUNT>  (1) 
1

>  <PUBCHEM_CONFORMER_ID>  (1) 
00007EFE00000004

>  <PUBCHEM_MMFF94_ENERGY>  (1) 
23.623

>  <PUBCHEM_FEATURE_SELFOVERLAP>  (1) 
5.074

>  <PUBCHEM_SHAPE_FINGERPRINT>  (1) 
12423570 1 9822899877916821994
12524768 44 18411989082634174468
12897270 3 18270136698410675276
12932764 1 16988567883203317546
15310529 11 17240484740464338208
15775835 57 17313110722111118148
16945 1 18060697299155358424
18186145 218 17968099685533553372
20201158 50 18413674608258414206
23235685 24 18342184392295648140
23552423 10 18266466407958285814
2748010 2 18197782093929530228
3248919 1 18411417297700910182
369184 2 17385442132887792474
4369600 1 18201446925573658992
5084963 1 18056768637146446106
528886 8 18200891667879998772

>  <PUBCHEM_SHAPE_MULTIPOLES>  (1) 
232.5
4.61
1.68
1.24
0.98
0.25
-0.08
0.02
0.24
-0.39
0.19
-0.67
-0.23
-0.14

>  <PUBCHEM_SHAPE_SELFOVERLAP>  (1) 
429.953

>  <PUBCHEM_SHAPE_VOLUME>  (1) 
149.3

>  <PUBCHEM_COORDINATE_TYPE>  (1) 
2
5
10

$$$$
