32528
     RDKit          3D

 14 15  0  0  1  0  0  0  0  0999 V2000
    1.5990   -0.3829    0.1268 N   0  0  0  0  0  0  0  0  0  0  0  0
    5.0165   -0.0533    0.3835 N   0  0  0  0  0  0  0  0  0  0  0  0
   -0.9237   -0.7055    0.3667 C   0  0  0  0  0  0  0  0  0  0  0  0
   -2.1209   -0.0332   -0.3801 C   0  0  0  0  0  0  0  0  0  0  0  0
   -1.4649    1.3674   -0.2571 C   0  0  0  0  0  0  0  0  0  0  0  0
    0.2949   -0.2741   -0.5132 C   0  0  0  0  0  0  0  0  0  0  0  0
   -0.8716    0.0957    1.7009 C   0  0  0  0  0  0  0  0  0  0  0  0
   -0.0642    1.1801   -0.8905 C   0  0  0  0  0  0  0  0  0  0  0  0
   -1.2360    1.5235    1.2621 C   0  0  0  0  0  0  0  0  0  0  0  0
   -1.0155   -2.2050    0.5879 C   0  0  0  0  0  0  0  0  0  0  0  0
   -3.4952   -0.1430    0.3110 C   0  0  0  0  0  0  0  0  0  0  0  0
   -2.3415   -0.5006   -1.8339 C   0  0  0  0  0  0  0  0  0  0  0  0
    2.6523    0.1120   -0.7492 C   0  0  0  0  0  0  0  0  0  0  0  0
    3.9710    0.0189   -0.1151 C   0  0  0  0  0  0  0  0  0  0  0  0
  1  6  1  0
  1 13  1  0
  2 14  3  0
  3  4  1  0
  3  6  1  0
  3  7  1  0
  3 10  1  0
  4  5  1  0
  4 11  1  0
  4 12  1  0
  5  8  1  0
  5  9  1  0
  6  8  1  0
  7  9  1  0
 13 14  1  0
M  END
>  <PUBCHEM_COMPOUND_CID>  (1) 
32528

>  <PUBCHEM_CONFORMER_RMSD>  (1) 
0.6

>  <PUBCHEM_CONFORMER_DIVERSEORDER>  (1) 
1
7
8
9
3
4
5
6
2

>  <PUBCHEM_MMFF94_PARTIAL_CHARGES>  (1) 
6
1 -0.9
13 0.47
14 0.36
2 -0.56
32 0.36
6 0.27

>  <PUBCHEM_EFFECTIVE_ROTOR_COUNT>  (1) 
3

>  <PUBCHEM_PHARMACOPHORE_FEATURES>  (1) 
5
1 1 cation
1 1 donor
1 2 acceptor
3 4 11 12 hydrophobe
7 3 4 5 6 7 8 9 rings

>  <PUBCHEM_HEAVY_ATOM_COUNT>  (1) 
14

>  <PUBCHEM_ATOM_DEF_STEREO_COUNT>  (1) 
0

>  <PUBCHEM_ATOM_UDEF_STEREO_COUNT>  (1) 
3

>  <PUBCHEM_BOND_DEF_STEREO_COUNT>  (1) 
0

>  <PUBCHEM_BOND_UDEF_STEREO_COUNT>  (1) 
0

>  <PUBCHEM_ISOTOPIC_ATOM_COUNT>  (1) 
0

>  <PUBCHEM_COMPONENT_COUNT>  (1) 
1

>  <PUBCHEM_CACTVS_TAUTO_COUNT>  (1) 
1

>  <PUBCHEM_CONFORMER_ID>  (1) 
00007F1000000001

>  <PUBCHEM_MMFF94_ENERGY>  (1) 
54.2678

>  <PUBCHEM_FEATURE_SELFOVERLAP>  (1) 
25.371

>  <PUBCHEM_SHAPE_FINGERPRINT>  (1) 
11315181 36 17749388162096127460
12423570 1 12646194701618072869
12932764 1 8358261389538413566
13024252 1 13984664763057744005
14142880 1 18270122283989350585
14577589 140 14273460266758866536
14713566 1 18259982708069149987
15048467 5 14979964648983899667
16945 1 18261096509295706205
187816 3 18412257346386486791
200 152 18131061645576454102
21339142 149 18131074826583301947
21452121 71 16986292044589571949
2306618 200 18259983743288461796
23236772 104 18272094842393201313
23402539 116 18410848863163975039
23419403 2 17909825771473171531
23559900 14 18336823187042800448
3248919 1 18340499919339342574
369184 2 18409454660850172709
4175511 318 17022900151203443062
528886 8 18260260829135299213

>  <PUBCHEM_SHAPE_MULTIPOLES>  (1) 
278.15
5.95
1.45
1.37
9.74
0.25
0.03
0.29
0.15
-0.8
-0.29
-0.79
-0.07
-0.2

>  <PUBCHEM_SHAPE_SELFOVERLAP>  (1) 
575.93

>  <PUBCHEM_SHAPE_VOLUME>  (1) 
162.8

>  <PUBCHEM_COORDINATE_TYPE>  (1) 
2
5
10

$$$$
