32523
     RDKit          3D

 20 22  0  0  1  0  0  0  0  0999 V2000
   -1.8173    1.9335    0.6797 O   0  0  0  0  0  0  0  0  0  0  0  0
   -4.0355    0.3377    0.7071 O   0  0  0  0  0  0  0  0  0  0  0  0
    1.6122   -2.5586    0.0683 N   0  0  0  0  0  0  0  0  0  0  0  0
    2.5768   -1.6982    0.7802 C   0  0  0  0  0  0  0  0  0  0  0  0
    1.9718   -0.4845    1.5012 C   0  0  0  0  0  0  0  0  0  0  0  0
    0.9101   -1.8729   -1.0279 C   0  0  0  0  0  0  0  0  0  0  0  0
   -0.3821   -1.2261   -0.5642 C   0  0  0  0  0  0  0  0  0  0  0  0
   -0.4555    0.1271   -0.1653 C   0  0  0  0  0  0  0  0  0  0  0  0
    1.8678    0.7401    0.6175 C   0  0  0  0  0  0  0  0  0  0  0  0
    0.7229    1.0133   -0.1634 C   0  0  0  0  0  0  0  0  0  0  0  0
   -1.7008    0.6368    0.2557 C   0  0  0  0  0  0  0  0  0  0  0  0
   -1.5402   -2.0261   -0.5113 C   0  0  0  0  0  0  0  0  0  0  0  0
    2.3082   -3.7450   -0.4428 C   0  0  0  0  0  0  0  0  0  0  0  0
    2.9680    1.6163    0.5626 C   0  0  0  0  0  0  0  0  0  0  0  0
    0.7175    2.1718   -0.9661 C   0  0  0  0  0  0  0  0  0  0  0  0
   -2.8403   -0.1670    0.2914 C   0  0  0  0  0  0  0  0  0  0  0  0
   -2.7593   -1.4998   -0.0900 C   0  0  0  0  0  0  0  0  0  0  0  0
    2.9399    2.7551   -0.2396 C   0  0  0  0  0  0  0  0  0  0  0  0
    1.8138    3.0338   -1.0032 C   0  0  0  0  0  0  0  0  0  0  0  0
   -4.8779    0.9128   -0.2898 C   0  0  0  0  0  0  0  0  0  0  0  0
  1 11  1  0
  2 16  1  0
  2 20  1  0
  3  4  1  0
  3  6  1  0
  3 13  1  0
  4  5  1  0
  5  9  1  0
  6  7  1  0
  7  8  2  0
  7 12  1  0
  8 10  1  0
  8 11  1  0
  9 10  2  0
  9 14  1  0
 10 15  1  0
 11 16  2  0
 12 17  2  0
 14 18  2  0
 15 19  2  0
 16 17  1  0
 18 19  1  0
M  END
>  <PUBCHEM_COMPOUND_CID>  (1) 
32523

>  <PUBCHEM_CONFORMER_RMSD>  (1) 
0.6

>  <PUBCHEM_CONFORMER_DIVERSEORDER>  (1) 
2
6
3
1
5
4

>  <PUBCHEM_MMFF94_PARTIAL_CHARGES>  (1) 
25
1 -0.53
11 0.08
12 -0.15
13 0.27
14 -0.15
15 -0.15
16 0.08
17 -0.15
18 -0.15
19 -0.15
2 -0.36
20 0.28
27 0.15
3 -0.81
31 0.15
32 0.15
33 0.15
34 0.15
35 0.15
36 0.45
4 0.27
5 0.14
6 0.41
7 -0.14
9 -0.14

>  <PUBCHEM_EFFECTIVE_ROTOR_COUNT>  (1) 
1.8

>  <PUBCHEM_PHARMACOPHORE_FEATURES>  (1) 
5
1 1 donor
1 2 acceptor
1 3 cation
6 7 8 11 12 16 17 rings
6 9 10 14 15 18 19 rings

>  <PUBCHEM_HEAVY_ATOM_COUNT>  (1) 
20

>  <PUBCHEM_ATOM_DEF_STEREO_COUNT>  (1) 
0

>  <PUBCHEM_ATOM_UDEF_STEREO_COUNT>  (1) 
0

>  <PUBCHEM_BOND_DEF_STEREO_COUNT>  (1) 
0

>  <PUBCHEM_BOND_UDEF_STEREO_COUNT>  (1) 
0

>  <PUBCHEM_ISOTOPIC_ATOM_COUNT>  (1) 
0

>  <PUBCHEM_COMPONENT_COUNT>  (1) 
1

>  <PUBCHEM_CACTVS_TAUTO_COUNT>  (1) 
3

>  <PUBCHEM_CONFORMER_ID>  (1) 
00007F0B00000002

>  <PUBCHEM_MMFF94_ENERGY>  (1) 
80.29

>  <PUBCHEM_FEATURE_SELFOVERLAP>  (1) 
25.371

>  <PUBCHEM_SHAPE_FINGERPRINT>  (1) 
10382601 240 18187080685059492872
10411042 1 17978511927705793407
10616163 171 18192713573307195075
10948715 1 18193560201434016048
10967382 1 18411418392912282925
11578080 2 16879055365757574678
11680986 33 18411143511127499331
12011746 2 18269272361537580758
12035758 1 17760357795336414841
12173636 292 17835518597718808173
12553582 1 18263912247053523218
12592029 89 18265063607293874947
12633257 1 17604973944578429434
12644460 14 18264227884094065777
12716301 132 16894252609360384010
13140716 1 18339352080407353002
13583140 156 17531518803285835011
14178342 30 18267568268780380627
14223421 5 18334579066081851859
14790565 3 18191309484274596572
15309172 13 18121222244599635777
15906896 17 17396710151804401794
16752209 62 17911512417841067687
16945 1 18341886359966953258
17357779 13 17907841917082844359
17492 89 18410573985906624275
19591789 44 17979078511079630154
20028762 73 16545540881362060279
20157964 124 18335974325595918917
20510252 161 17695921303100721345
20600515 1 17410221607642429518
20645476 183 17539421228882011180
20645477 70 18334288773690341209
20715895 44 18193264205938398805
20739085 24 18333725832400915488
21029758 27 18122918529201627286
21421861 104 18263086681483381683
22182313 1 18119793729997938604
2334 1 18051410970002268278
23352939 185 18057054510549898182
23366157 5 18261114075427591047
23419403 2 14893449533207546078
23559900 14 18341329990257078107
2748010 2 17764287458873936294
3091708 16 9040975689511686074
350125 39 18197227944923787361
394222 165 17898279752467318584
43471831 8 18267303320880068118
4409770 3 16966325596387228534
6138700 20 18338529573465518038
7364860 26 18411985754013466520
77492 1 17973716179954643580
81228 2 17333385501515295947
8272917 22 18407760348150223857
90316 7 17759800338814775138
90525 40 18122906692165770844

>  <PUBCHEM_SHAPE_MULTIPOLES>  (1) 
394.87
5.98
3.89
1.04
6.6
1.66
0.06
-2.24
0.83
-3.68
-1.1
-0.41
-0.03
-0.55

>  <PUBCHEM_SHAPE_SELFOVERLAP>  (1) 
854.504

>  <PUBCHEM_SHAPE_VOLUME>  (1) 
215.8

>  <PUBCHEM_COORDINATE_TYPE>  (1) 
2
5
10

$$$$
