32538
     RDKit          3D

 20 22  0  0  1  0  0  0  0  0999 V2000
   -4.7433    2.4127   -0.1171 Cl  0  0  0  0  0  0  0  0  0  0  0  0
   -5.9479   -0.2150   -0.7778 F   0  0  0  0  0  0  0  0  0  0  0  0
    0.2478   -0.4870   -0.0153 N   0  0  0  0  0  0  0  0  0  0  0  0
    2.7086   -0.4164   -0.6977 C   0  0  0  0  0  0  0  0  0  0  0  0
    3.9922   -0.0641    0.1217 C   0  0  0  0  0  0  0  0  0  0  0  0
    3.2926    1.1597    0.7698 C   0  0  0  0  0  0  0  0  0  0  0  0
    1.6333   -0.5684    0.4275 C   0  0  0  0  0  0  0  0  0  0  0  0
    2.4293    0.9094   -1.4652 C   0  0  0  0  0  0  0  0  0  0  0  0
    2.0133    0.5637    1.4072 C   0  0  0  0  0  0  0  0  0  0  0  0
    2.8248    1.9900   -0.4453 C   0  0  0  0  0  0  0  0  0  0  0  0
    2.7994   -1.6187   -1.6207 C   0  0  0  0  0  0  0  0  0  0  0  0
    5.2432    0.2960   -0.7050 C   0  0  0  0  0  0  0  0  0  0  0  0
    4.4487   -1.1374    1.1318 C   0  0  0  0  0  0  0  0  0  0  0  0
   -0.6662   -0.5657    1.1160 C   0  0  0  0  0  0  0  0  0  0  0  0
   -2.0755   -0.4669    0.6128 C   0  0  0  0  0  0  0  0  0  0  0  0
   -2.6813    0.7797    0.4969 C   0  0  0  0  0  0  0  0  0  0  0  0
   -2.7647   -1.6236    0.2640 C   0  0  0  0  0  0  0  0  0  0  0  0
   -3.9915    0.8706    0.0269 C   0  0  0  0  0  0  0  0  0  0  0  0
   -4.0747   -1.5328   -0.2059 C   0  0  0  0  0  0  0  0  0  0  0  0
   -4.6881   -0.2857   -0.3247 C   0  0  0  0  0  0  0  0  0  0  0  0
  1 18  1  0
  2 20  1  0
  3  7  1  0
  3 14  1  0
  4  5  1  0
  4  7  1  0
  4  8  1  0
  4 11  1  0
  5  6  1  0
  5 12  1  0
  5 13  1  0
  6  9  1  0
  6 10  1  0
  7  9  1  0
  8 10  1  0
 14 15  1  0
 15 16  2  0
 15 17  1  0
 16 18  1  0
 17 19  2  0
 18 20  2  0
 19 20  1  0
M  END
>  <PUBCHEM_COMPOUND_CID>  (1) 
32538

>  <PUBCHEM_CONFORMER_RMSD>  (1) 
0.6

>  <PUBCHEM_CONFORMER_DIVERSEORDER>  (1) 
1
10
16
22
8
24
21
14
18
12
26
19
15
9
7
20
25
23
11
4
6
17
2
13
3
5

>  <PUBCHEM_MMFF94_PARTIAL_CHARGES>  (1) 
15
1 -0.18
14 0.41
15 -0.14
16 -0.15
17 -0.15
18 0.18
19 -0.15
2 -0.19
20 0.19
3 -0.9
38 0.36
41 0.15
42 0.15
43 0.15
7 0.27

>  <PUBCHEM_EFFECTIVE_ROTOR_COUNT>  (1) 
4

>  <PUBCHEM_PHARMACOPHORE_FEATURES>  (1) 
5
1 3 cation
1 3 donor
3 5 12 13 hydrophobe
6 15 16 17 18 19 20 rings
7 4 5 6 7 8 9 10 rings

>  <PUBCHEM_HEAVY_ATOM_COUNT>  (1) 
20

>  <PUBCHEM_ATOM_DEF_STEREO_COUNT>  (1) 
0

>  <PUBCHEM_ATOM_UDEF_STEREO_COUNT>  (1) 
3

>  <PUBCHEM_BOND_DEF_STEREO_COUNT>  (1) 
0

>  <PUBCHEM_BOND_UDEF_STEREO_COUNT>  (1) 
0

>  <PUBCHEM_ISOTOPIC_ATOM_COUNT>  (1) 
0

>  <PUBCHEM_COMPONENT_COUNT>  (1) 
1

>  <PUBCHEM_CACTVS_TAUTO_COUNT>  (1) 
1

>  <PUBCHEM_CONFORMER_ID>  (1) 
00007F1A00000001

>  <PUBCHEM_MMFF94_ENERGY>  (1) 
71.5351

>  <PUBCHEM_FEATURE_SELFOVERLAP>  (1) 
25.371

>  <PUBCHEM_SHAPE_FINGERPRINT>  (1) 
10447042 23 15913043184235501254
10498660 4 18337105679605364097
10646746 165 18409729568853588305
11370993 70 18272370879820567767
11405975 8 18333452053609863323
12107183 9 17757260492671311987
12236239 1 17676202472948354091
12553582 1 13470403362215727347
128620 24 15339122346488731657
12916748 109 18334299769038753731
13167823 11 18334571360689529171
13224815 77 17632302288980824107
13533116 47 17967523554447281627
14251764 38 18408325518533821741
15537594 2 11959732681406532309
15788980 27 18260830410006672259
15880784 105 8069732010385030517
15961568 22 18189049974794395508
17349148 13 18343017796054868643
17844677 252 18187936118132982371
18186145 218 18260552220764313011
19489759 90 18341891892301451491
19862831 5 18272373078975243835
200 152 15913330182434796131
20279233 1 17775007903044629347
20645477 56 18411986845436189873
20645477 70 16988851557361682662
21503847 285 16805325509070630060
21709351 56 18343581862968883940
221357 26 18202280303990447593
22289505 5 18271526403714551980
23402539 116 18410006624419734092
23402655 69 18334297565219377280
23557571 272 18342739611339825665
23559900 14 18130509617635578718
2838139 119 18045792449212436852
3004659 81 18342458136215123138
351380 180 18334855030357162753
351380 3 13326852240937842093
3545911 37 18342744013575575027
4214541 1 18410855447686514577
474 4 17313106366987854241
5104073 3 18260267464311393113
5281201 14 18271815605089242021
542803 24 16950281819004011451
57724786 102 16009043781944811701
6328613 192 17894921771579787524
633830 44 17603868913923069211
9709674 26 18342746234026798519
9971528 1 17821443565336633676
9981440 41 17032483743443665224

>  <PUBCHEM_SHAPE_MULTIPOLES>  (1) 
401.21
12.47
1.86
1.25
8.7
0.57
0.09
1.32
1.85
1.09
0.22
-1.15
-0.14
-0.03

>  <PUBCHEM_SHAPE_SELFOVERLAP>  (1) 
850.42

>  <PUBCHEM_SHAPE_VOLUME>  (1) 
231.5

>  <PUBCHEM_COORDINATE_TYPE>  (1) 
2
5
10

$$$$
