32532
     RDKit          3D

 21 23  0  0  1  0  0  0  0  0999 V2000
   -6.3517   -0.8723   -0.6805 O   0  0  0  0  0  0  0  0  0  0  0  0
   -6.1736    1.3152   -0.5361 O   0  0  0  0  0  0  0  0  0  0  0  0
    0.6639   -0.3829   -0.0035 N   0  0  0  0  0  0  0  0  0  0  0  0
   -5.6859    0.1633   -0.4414 N   0  0  0  0  0  0  0  0  0  0  0  0
    3.1155   -0.4452   -0.7191 C   0  0  0  0  0  0  0  0  0  0  0  0
    4.4250   -0.1265    0.0724 C   0  0  0  0  0  0  0  0  0  0  0  0
    3.7905    1.1472    0.6907 C   0  0  0  0  0  0  0  0  0  0  0  0
    2.0504   -0.5135    0.4240 C   0  0  0  0  0  0  0  0  0  0  0  0
    2.8853    0.8677   -1.5242 C   0  0  0  0  0  0  0  0  0  0  0  0
    2.4948    0.6298    1.3627 C   0  0  0  0  0  0  0  0  0  0  0  0
    3.3434    1.9601   -0.5439 C   0  0  0  0  0  0  0  0  0  0  0  0
    3.1390   -1.6783   -1.6050 C   0  0  0  0  0  0  0  0  0  0  0  0
    5.6793    0.1507   -0.7810 C   0  0  0  0  0  0  0  0  0  0  0  0
    4.8471   -1.1878    1.1099 C   0  0  0  0  0  0  0  0  0  0  0  0
   -0.2367   -0.3851    1.1413 C   0  0  0  0  0  0  0  0  0  0  0  0
   -1.6758   -0.2402    0.7230 C   0  0  0  0  0  0  0  0  0  0  0  0
   -2.4268   -1.3758    0.4540 C   0  0  0  0  0  0  0  0  0  0  0  0
   -2.2310    1.0269    0.6127 C   0  0  0  0  0  0  0  0  0  0  0  0
   -3.7601   -1.2415    0.0665 C   0  0  0  0  0  0  0  0  0  0  0  0
   -3.5642    1.1612    0.2253 C   0  0  0  0  0  0  0  0  0  0  0  0
   -4.3286    0.0270   -0.0478 C   0  0  0  0  0  0  0  0  0  0  0  0
  1  4  1  0
  2  4  2  0
  3  8  1  0
  3 15  1  0
  4 21  1  0
  5  6  1  0
  5  8  1  0
  5  9  1  0
  5 12  1  0
  6  7  1  0
  6 13  1  0
  6 14  1  0
  7 10  1  0
  7 11  1  0
  8 10  1  0
  9 11  1  0
 15 16  1  0
 16 17  2  0
 16 18  1  0
 17 19  1  0
 18 20  2  0
 19 21  2  0
 20 21  1  0
M  CHG  2   1  -1   4   1
M  END
>  <PUBCHEM_COMPOUND_CID>  (1) 
32532

>  <PUBCHEM_CONFORMER_RMSD>  (1) 
0.8

>  <PUBCHEM_CONFORMER_DIVERSEORDER>  (1) 
1
8
6
16
17
10
14
12
5
3
2
15
11
13
4
9
7

>  <PUBCHEM_MMFF94_PARTIAL_CHARGES>  (1) 
17
1 -0.52
15 0.41
16 -0.14
17 -0.15
18 -0.15
19 -0.15
2 -0.52
20 -0.15
21 0.13
3 -0.9
39 0.36
4 0.91
42 0.15
43 0.15
44 0.15
45 0.15
8 0.27

>  <PUBCHEM_EFFECTIVE_ROTOR_COUNT>  (1) 
5

>  <PUBCHEM_PHARMACOPHORE_FEATURES>  (1) 
8
1 1 acceptor
1 1 anion
1 2 acceptor
1 3 cation
1 3 donor
3 6 13 14 hydrophobe
6 16 17 18 19 20 21 rings
7 5 6 7 8 9 10 11 rings

>  <PUBCHEM_HEAVY_ATOM_COUNT>  (1) 
21

>  <PUBCHEM_ATOM_DEF_STEREO_COUNT>  (1) 
0

>  <PUBCHEM_ATOM_UDEF_STEREO_COUNT>  (1) 
3

>  <PUBCHEM_BOND_DEF_STEREO_COUNT>  (1) 
0

>  <PUBCHEM_BOND_UDEF_STEREO_COUNT>  (1) 
0

>  <PUBCHEM_ISOTOPIC_ATOM_COUNT>  (1) 
0

>  <PUBCHEM_COMPONENT_COUNT>  (1) 
1

>  <PUBCHEM_CACTVS_TAUTO_COUNT>  (1) 
1

>  <PUBCHEM_CONFORMER_ID>  (1) 
00007F1400000001

>  <PUBCHEM_MMFF94_ENERGY>  (1) 
82.7132

>  <PUBCHEM_FEATURE_SELFOVERLAP>  (1) 
40.674

>  <PUBCHEM_SHAPE_FINGERPRINT>  (1) 
10354089 29 13262398860516681590
10366900 7 17846224370887496234
10447042 23 16773794766812849950
11089746 13 17676204684455506837
11135609 99 16773795858310031270
12166972 35 18259704501447098133
12236239 1 17749105586932575531
12516196 113 12319732579365032731
12633257 1 12251903728137187321
128620 24 15267064735418705632
13533116 47 17895185567801182010
13668630 136 15913332394200490085
14528608 73 18260264170530165169
15183329 4 17917994945647198153
15788980 27 18186523219415149250
17844677 252 18041571337882966211
18186145 218 16226044526468706666
200 152 16487257655668667699
20645477 70 17275111591691807398
21033648 29 14707195660807316351
212847 35 17095244722239758700
21503847 285 16298391270895968708
221357 26 18059856147196300977
22224240 67 13254785838249186846
22289505 5 18409450289111892948
23402539 116 18410568492479136391
23557571 272 18342737381951359105
23559900 14 18343582966585451386
239999 70 15339120160909579596
2838139 119 16733807724372070981
29717793 49 18413394220114053870
300161 21 17748826345449505098
3004659 81 18413671305449513154
3472631 163 17894916286009530677
34797466 226 18340774827311167973
351380 180 18260829301915652656
351380 3 13686295773133145221
3545911 37 18334860519409782667
474 4 17167866378253091497
5281201 14 18272097062743762580
5283173 99 18340764845818234585
542803 24 16515685550121331899
57724786 102 15357991091281844207
59755656 215 18342181033821633814
59755656 520 16877659072122097851
633830 44 17313103102654765674
7495541 125 17632292423367059915
960060 61 17561367292020030885
9971528 1 17676205775994365556

>  <PUBCHEM_SHAPE_MULTIPOLES>  (1) 
410.47
14.55
1.55
1.26
15.5
0.12
0.11
0.54
3.12
-0.31
0.2
-1.2
-0.11
0.04

>  <PUBCHEM_SHAPE_SELFOVERLAP>  (1) 
879.052

>  <PUBCHEM_SHAPE_VOLUME>  (1) 
234.1

>  <PUBCHEM_COORDINATE_TYPE>  (1) 
2
5
10

$$$$
