32540
     RDKit          3D

 20 22  0  0  1  0  0  0  0  0999 V2000
   -1.9541    2.4811    0.2614 Cl  0  0  0  0  0  0  0  0  0  0  0  0
   -6.4347   -0.2403   -0.9584 Cl  0  0  0  0  0  0  0  0  0  0  0  0
    0.1070   -0.4676    0.0547 N   0  0  0  0  0  0  0  0  0  0  0  0
    2.5721   -0.6587   -0.5879 C   0  0  0  0  0  0  0  0  0  0  0  0
    3.8651   -0.1730    0.1437 C   0  0  0  0  0  0  0  0  0  0  0  0
    3.2142    1.1965    0.4725 C   0  0  0  0  0  0  0  0  0  0  0  0
    1.4855   -0.4963    0.5250 C   0  0  0  0  0  0  0  0  0  0  0  0
    2.3528    0.4568   -1.6520 C   0  0  0  0  0  0  0  0  0  0  0  0
    1.9077    0.8202    1.2138 C   0  0  0  0  0  0  0  0  0  0  0  0
    2.7881    1.7322   -0.9117 C   0  0  0  0  0  0  0  0  0  0  0  0
    2.6170   -2.0485   -1.1980 C   0  0  0  0  0  0  0  0  0  0  0  0
    5.1344   -0.0695   -0.7259 C   0  0  0  0  0  0  0  0  0  0  0  0
    4.2708   -0.9927    1.3863 C   0  0  0  0  0  0  0  0  0  0  0  0
   -0.8154   -0.2389    1.1586 C   0  0  0  0  0  0  0  0  0  0  0  0
   -2.2166   -0.2068    0.6252 C   0  0  0  0  0  0  0  0  0  0  0  0
   -2.8053    0.9809    0.1991 C   0  0  0  0  0  0  0  0  0  0  0  0
   -2.9241   -1.4045    0.5643 C   0  0  0  0  0  0  0  0  0  0  0  0
   -4.1112    0.9708   -0.2911 C   0  0  0  0  0  0  0  0  0  0  0  0
   -4.2298   -1.4145    0.0741 C   0  0  0  0  0  0  0  0  0  0  0  0
   -4.8234   -0.2269   -0.3536 C   0  0  0  0  0  0  0  0  0  0  0  0
  1 16  1  0
  2 20  1  0
  3  7  1  0
  3 14  1  0
  4  5  1  0
  4  7  1  0
  4  8  1  0
  4 11  1  0
  5  6  1  0
  5 12  1  0
  5 13  1  0
  6  9  1  0
  6 10  1  0
  7  9  1  0
  8 10  1  0
 14 15  1  0
 15 16  2  0
 15 17  1  0
 16 18  1  0
 17 19  2  0
 18 20  2  0
 19 20  1  0
M  END
>  <PUBCHEM_COMPOUND_CID>  (1) 
32540

>  <PUBCHEM_CONFORMER_RMSD>  (1) 
0.6

>  <PUBCHEM_CONFORMER_DIVERSEORDER>  (1) 
1
10
7
22
17
21
16
15
14
20
19
8
18
3
24
11
23
9
13
4
5
12
2
6

>  <PUBCHEM_MMFF94_PARTIAL_CHARGES>  (1) 
15
1 -0.18
14 0.41
15 -0.14
16 0.18
17 -0.15
18 -0.15
19 -0.15
2 -0.18
20 0.18
3 -0.9
38 0.36
41 0.15
42 0.15
43 0.15
7 0.27

>  <PUBCHEM_EFFECTIVE_ROTOR_COUNT>  (1) 
4

>  <PUBCHEM_PHARMACOPHORE_FEATURES>  (1) 
5
1 3 cation
1 3 donor
3 5 12 13 hydrophobe
6 15 16 17 18 19 20 rings
7 4 5 6 7 8 9 10 rings

>  <PUBCHEM_HEAVY_ATOM_COUNT>  (1) 
20

>  <PUBCHEM_ATOM_DEF_STEREO_COUNT>  (1) 
0

>  <PUBCHEM_ATOM_UDEF_STEREO_COUNT>  (1) 
3

>  <PUBCHEM_BOND_DEF_STEREO_COUNT>  (1) 
0

>  <PUBCHEM_BOND_UDEF_STEREO_COUNT>  (1) 
0

>  <PUBCHEM_ISOTOPIC_ATOM_COUNT>  (1) 
0

>  <PUBCHEM_COMPONENT_COUNT>  (1) 
1

>  <PUBCHEM_CACTVS_TAUTO_COUNT>  (1) 
1

>  <PUBCHEM_CONFORMER_ID>  (1) 
00007F1C00000001

>  <PUBCHEM_MMFF94_ENERGY>  (1) 
74.0311

>  <PUBCHEM_FEATURE_SELFOVERLAP>  (1) 
25.371

>  <PUBCHEM_SHAPE_FINGERPRINT>  (1) 
10354089 29 12251901490459193566
10366900 7 18343306976197581650
10498660 4 18260832622236686741
10646746 165 18408041797125139136
11089746 13 16515681165139103415
11370993 70 18411982463958306847
12107183 9 17467057562541897016
12166972 35 17676206892327407133
12236239 1 17385438817753431723
128620 24 16486976193439630633
13224815 77 18271813436083258785
13533116 47 17968086487168034251
14252887 29 15338845265537845474
14386348 63 17989487433378456083
15238133 3 10665219346239605334
15788980 27 18060419118434336111
15961568 22 18189051061600482356
17349148 13 18334009493093687785
17802600 8 18411697681772063904
18186145 218 15936687146577144419
18681886 176 18342176713400557608
192875 21 17967253096035252565
19862831 5 17385726897914999057
200 152 17275385395809265995
20279233 1 18131072640598045939
20645477 70 17489311854008278246
21503847 285 12901552334083187542
221357 26 18272369754760409121
23402539 116 18334852831286434487
23557571 272 18060143098150773345
23559900 14 18410011069610574393
239999 70 16056880260383710020
2838139 119 16009568215628652271
2871803 45 18343022185543190971
3004659 81 18407758140236301401
351380 180 18334855021735547209
3545911 37 18260831501170958323
4028521 119 18187362108723351549
4325135 7 16916779729828619648
465052 167 13470404539527558877
474 4 16877948260390196193
5104073 3 18409451405396988025
5281201 14 18340775857612702093
5283173 99 18262226730420249101
542803 24 15357696396622635791
57724786 102 14201409291271187599
58051976 378 18413110545782154895
59755656 215 18412266103725102926
633830 44 13767931247062016067
67856867 119 18189051052846367436
6913067 236 17988627610726797819
9709674 26 18340495490769637311
9971528 1 17312819377626530838
9981440 41 17029954837046394576

>  <PUBCHEM_SHAPE_MULTIPOLES>  (1) 
410.35
12.24
1.83
1.28
10.25
0.48
0.1
-1.76
2.59
0.13
0.12
-0.91
-0.1
-0.02

>  <PUBCHEM_SHAPE_SELFOVERLAP>  (1) 
858.686

>  <PUBCHEM_SHAPE_VOLUME>  (1) 
238.8

>  <PUBCHEM_COORDINATE_TYPE>  (1) 
2
5
10

$$$$
