32548
     RDKit          3D

 17 19  0  0  1  0  0  0  0  0999 V2000
   -3.9202   -1.0995   -0.1736 O   0  0  0  0  0  0  0  0  0  0  0  0
   -0.6804   -0.1709    0.2389 N   0  0  0  0  0  0  0  0  0  0  0  0
    1.8399   -0.1996    0.7768 C   0  0  0  0  0  0  0  0  0  0  0  0
    3.0802   -0.3153   -0.1674 C   0  0  0  0  0  0  0  0  0  0  0  0
    2.4794    0.7226   -1.1517 C   0  0  0  0  0  0  0  0  0  0  0  0
    0.6598   -0.5491   -0.1881 C   0  0  0  0  0  0  0  0  0  0  0  0
    1.7913    1.3277    1.0760 C   0  0  0  0  0  0  0  0  0  0  0  0
    1.0870    0.1424   -1.5017 C   0  0  0  0  0  0  0  0  0  0  0  0
    2.2226    1.9562   -0.2591 C   0  0  0  0  0  0  0  0  0  0  0  0
    1.8671   -1.0429    2.0390 C   0  0  0  0  0  0  0  0  0  0  0  0
    4.4272    0.1113    0.4525 C   0  0  0  0  0  0  0  0  0  0  0  0
    3.3252   -1.7026   -0.7953 C   0  0  0  0  0  0  0  0  0  0  0  0
   -1.6674   -0.5184   -0.7745 C   0  0  0  0  0  0  0  0  0  0  0  0
   -3.0260   -0.1016   -0.2957 C   0  0  0  0  0  0  0  0  0  0  0  0
   -3.5407    1.1049    0.0442 C   0  0  0  0  0  0  0  0  0  0  0  0
   -4.8817    0.8450    0.4146 C   0  0  0  0  0  0  0  0  0  0  0  0
   -5.0634   -0.5101    0.2652 C   0  0  0  0  0  0  0  0  0  0  0  0
  1 14  1  0
  1 17  1  0
  2  6  1  0
  2 13  1  0
  3  4  1  0
  3  6  1  0
  3  7  1  0
  3 10  1  0
  4  5  1  0
  4 11  1  0
  4 12  1  0
  5  8  1  0
  5  9  1  0
  6  8  1  0
  7  9  1  0
 13 14  1  0
 14 15  2  0
 15 16  1  0
 16 17  2  0
M  END
>  <PUBCHEM_COMPOUND_CID>  (1) 
32548

>  <PUBCHEM_CONFORMER_RMSD>  (1) 
0.6

>  <PUBCHEM_CONFORMER_DIVERSEORDER>  (1) 
5
15
28
4
19
29
23
9
27
2
25
10
24
18
11
3
16
8
30
7
22
17
13
21
1
26
20
12
14
6

>  <PUBCHEM_MMFF94_PARTIAL_CHARGES>  (1) 
12
1 -0.28
13 0.45
14 -0.04
15 -0.15
16 -0.15
17 -0.01
2 -0.9
35 0.36
38 0.15
39 0.15
40 0.15
6 0.27

>  <PUBCHEM_EFFECTIVE_ROTOR_COUNT>  (1) 
4

>  <PUBCHEM_PHARMACOPHORE_FEATURES>  (1) 
6
1 1 acceptor
1 2 cation
1 2 donor
3 4 11 12 hydrophobe
5 1 14 15 16 17 rings
7 3 4 5 6 7 8 9 rings

>  <PUBCHEM_HEAVY_ATOM_COUNT>  (1) 
17

>  <PUBCHEM_ATOM_DEF_STEREO_COUNT>  (1) 
0

>  <PUBCHEM_ATOM_UDEF_STEREO_COUNT>  (1) 
3

>  <PUBCHEM_BOND_DEF_STEREO_COUNT>  (1) 
0

>  <PUBCHEM_BOND_UDEF_STEREO_COUNT>  (1) 
0

>  <PUBCHEM_ISOTOPIC_ATOM_COUNT>  (1) 
0

>  <PUBCHEM_COMPONENT_COUNT>  (1) 
1

>  <PUBCHEM_CACTVS_TAUTO_COUNT>  (1) 
1

>  <PUBCHEM_CONFORMER_ID>  (1) 
00007F2400000005

>  <PUBCHEM_MMFF94_ENERGY>  (1) 
55.9796

>  <PUBCHEM_FEATURE_SELFOVERLAP>  (1) 
30.446

>  <PUBCHEM_SHAPE_FINGERPRINT>  (1) 
10366900 7 16805326600060920825
11471102 20 14620795998399618150
11552529 35 17629775723589585067
11615757 297 16660648466421407205
12236239 1 18187364329031338091
12932764 1 17821717339078429567
13134695 92 16773789252154008672
13464513 79 14779271920741372694
13533116 47 17531519894318558227
13675066 3 18131066030643240911
13922767 16 15697994141480804970
14252887 29 15647051542825106056
14289901 80 18201719604520644615
14341114 176 18343591720024238483
15048467 5 17560794464390811504
15375358 24 9655569704263509045
15788980 27 16056598733730267965
16945 1 16878232957283306390
18186145 218 18114177536583417247
19050596 39 18186521020961495257
19078846 21 18262789658139016161
200 152 15140676990855950087
20233049 118 18131348600778784904
20279233 1 15554448513592471159
212847 35 17561367262118627929
21503847 285 18333454235395486877
2255824 54 17676491669964916182
22646028 1 17822007618949034875
22854114 111 18040151842237959837
22854114 59 17094961065440708805
23402539 116 17489580160641515933
23402655 69 13254805620393649363
23559900 14 18130791122661126015
296302 2 14692565537570931444
3060560 45 17022623087295379634
42 15 18411702067160312071
474 4 17605841540804966645
4990 188 18187370912857870558
5104073 3 18342178895001338619
522135 26 18341897389469232783
54040823 5 18131075931038730390
542803 24 18187088351850234245
633830 44 18408321086438210959
7495541 125 17274537749801653763
77779 3 18413110571899683039

>  <PUBCHEM_SHAPE_MULTIPOLES>  (1) 
339
9.6
1.45
1.3
12.17
0.27
-0.26
-0.27
-0.72
-0.71
-0.02
-1.02
-0.17
-0.16

>  <PUBCHEM_SHAPE_SELFOVERLAP>  (1) 
725.38

>  <PUBCHEM_SHAPE_VOLUME>  (1) 
195.8

>  <PUBCHEM_COORDINATE_TYPE>  (1) 
2
5
10

$$$$
