32546
     RDKit          3D

 20 22  0  0  1  0  0  0  0  0999 V2000
    6.7675   -0.6447   -0.9521 F   0  0  0  0  0  0  0  0  0  0  0  0
   -0.7001    0.7143    0.6939 N   0  0  0  0  0  0  0  0  0  0  0  0
   -3.2330    0.6767    0.2193 C   0  0  0  0  0  0  0  0  0  0  0  0
   -4.0715   -0.2089   -0.7583 C   0  0  0  0  0  0  0  0  0  0  0  0
   -3.3178   -1.4890   -0.3109 C   0  0  0  0  0  0  0  0  0  0  0  0
   -1.7682    0.3684   -0.2339 C   0  0  0  0  0  0  0  0  0  0  0  0
   -3.4774   -0.0190    1.5907 C   0  0  0  0  0  0  0  0  0  0  0  0
   -1.8261   -1.1440   -0.5432 C   0  0  0  0  0  0  0  0  0  0  0  0
   -3.5242   -1.5102    1.2193 C   0  0  0  0  0  0  0  0  0  0  0  0
   -3.5648    2.1580    0.2469 C   0  0  0  0  0  0  0  0  0  0  0  0
   -5.5896   -0.2439   -0.4841 C   0  0  0  0  0  0  0  0  0  0  0  0
   -3.9213    0.1121   -2.2594 C   0  0  0  0  0  0  0  0  0  0  0  0
    0.5993    0.3316    0.1582 C   0  0  0  0  0  0  0  0  0  0  0  0
    1.7251    0.7370    1.1103 C   0  0  0  0  0  0  0  0  0  0  0  0
    3.0781    0.3664    0.5571 C   0  0  0  0  0  0  0  0  0  0  0  0
    3.6162   -0.8771    0.8513 C   0  0  0  0  0  0  0  0  0  0  0  0
    3.7611    1.2752   -0.2366 C   0  0  0  0  0  0  0  0  0  0  0  0
    4.8679   -1.2200    0.3397 C   0  0  0  0  0  0  0  0  0  0  0  0
    5.0127    0.9324   -0.7481 C   0  0  0  0  0  0  0  0  0  0  0  0
    5.5660   -0.3152   -0.4601 C   0  0  0  0  0  0  0  0  0  0  0  0
  1 20  1  0
  2  6  1  0
  2 13  1  0
  3  4  1  0
  3  6  1  0
  3  7  1  0
  3 10  1  0
  4  5  1  0
  4 11  1  0
  4 12  1  0
  5  8  1  0
  5  9  1  0
  6  8  1  0
  7  9  1  0
 13 14  1  0
 14 15  1  0
 15 16  2  0
 15 17  1  0
 16 18  1  0
 17 19  2  0
 18 20  2  0
 19 20  1  0
M  END
>  <PUBCHEM_COMPOUND_CID>  (1) 
32546

>  <PUBCHEM_CONFORMER_RMSD>  (1) 
0.8

>  <PUBCHEM_CONFORMER_DIVERSEORDER>  (1) 
6
28
18
7
27
17
1
24
8
13
9
14
21
5
26
19
4
2
25
15
16
10
23
22
11
3
12
20

>  <PUBCHEM_MMFF94_PARTIAL_CHARGES>  (1) 
16
1 -0.19
13 0.27
14 0.14
15 -0.14
16 -0.15
17 -0.15
18 -0.15
19 -0.15
2 -0.9
20 0.19
38 0.36
43 0.15
44 0.15
45 0.15
46 0.15
6 0.27

>  <PUBCHEM_EFFECTIVE_ROTOR_COUNT>  (1) 
5

>  <PUBCHEM_PHARMACOPHORE_FEATURES>  (1) 
5
1 2 cation
1 2 donor
3 4 11 12 hydrophobe
6 15 16 17 18 19 20 rings
7 3 4 5 6 7 8 9 rings

>  <PUBCHEM_HEAVY_ATOM_COUNT>  (1) 
20

>  <PUBCHEM_ATOM_DEF_STEREO_COUNT>  (1) 
0

>  <PUBCHEM_ATOM_UDEF_STEREO_COUNT>  (1) 
3

>  <PUBCHEM_BOND_DEF_STEREO_COUNT>  (1) 
0

>  <PUBCHEM_BOND_UDEF_STEREO_COUNT>  (1) 
0

>  <PUBCHEM_ISOTOPIC_ATOM_COUNT>  (1) 
0

>  <PUBCHEM_COMPONENT_COUNT>  (1) 
1

>  <PUBCHEM_CACTVS_TAUTO_COUNT>  (1) 
1

>  <PUBCHEM_CONFORMER_ID>  (1) 
00007F2200000006

>  <PUBCHEM_MMFF94_ENERGY>  (1) 
69.1787

>  <PUBCHEM_FEATURE_SELFOVERLAP>  (1) 
25.371

>  <PUBCHEM_SHAPE_FINGERPRINT>  (1) 
10 15 11599997744444268118
10354089 29 10015864289267020282
10680689 15 18273215300497534057
11315181 36 18408041827073930600
11545043 162 15195284222685312698
12107183 9 17687460170335709104
128620 24 14490188310823990930
12916754 54 16486400118498831985
12969540 37 13607142124729521861
13167823 11 18409168818377025234
13288520 33 17989205954106765065
13668630 136 18131071545513358566
13675066 3 12895358806495386704
13914758 101 14979963528234649825
14528608 73 16805322223573388806
14849402 71 10519398833579656034
15183329 4 18260551096173945234
15188451 53 14835828608520094469
15348495 7 13542455488718433814
15788980 27 17989487416071999332
15880784 105 15769766996504215722
17093844 174 17132113507382091376
17349148 13 16917067784552698964
17844677 252 18202568388795447336
17857418 61 17632855326371356878
17870717 6 18413953884127544743
18186145 218 17385438830274538272
18222031 100 17489582385666839776
18927931 339 18341903990986915223
19489759 90 15051736382635646011
200 152 18131628984706941929
20325693 3 17675922106088965035
20645477 70 18334571313850960250
21267235 1 18271811241576555491
22061861 79 18187080633672924510
22646028 1 17703787041713475920
2297311 6 18040436611944956621
23198884 109 18113615673446794853
23402539 116 18273214175226853128
23559900 14 18270671094899559352
29717793 49 18273217491500528292
300161 21 17095234835066742416
3004659 81 18412545393206414162
34797466 226 17240208737450205166
351380 3 17918274259827999790
4214541 1 18411982442472654448
4921388 177 17168151169171622835
497634 4 17967534579991904741
531348 171 17917428662255673965
542803 24 14490188310908399748
559249 180 18059290959406253319
5924683 9 11527649908821422221
59755656 520 18410575068490863059
90127 26 18273494589494341840

>  <PUBCHEM_SHAPE_MULTIPOLES>  (1) 
399.34
14.93
1.51
1.36
16.72
0.1
-0.25
-1.46
-3.83
-0.54
0.2
-1.18
0.01
-0.02

>  <PUBCHEM_SHAPE_SELFOVERLAP>  (1) 
848.676

>  <PUBCHEM_SHAPE_VOLUME>  (1) 
229.8

>  <PUBCHEM_COORDINATE_TYPE>  (1) 
2
5
10

$$$$
