32554
     RDKit          3D

 37 42  0  0  1  0  0  0  0  0999 V2000
    0.1509    1.8334   -0.4656 N   0  0  0  0  0  0  0  0  0  0  0  0
    1.6224    3.5787    0.7305 C   0  0  0  0  0  0  0  0  0  0  0  0
    3.0228    4.1598    0.3512 C   0  0  0  0  0  0  0  0  0  0  0  0
    2.5897    4.3498   -1.1264 C   0  0  0  0  0  0  0  0  0  0  0  0
    1.4866    2.3771   -0.2614 C   0  0  0  0  0  0  0  0  0  0  0  0
    2.1075    2.9428   -1.5577 C   0  0  0  0  0  0  0  0  0  0  0  0
    0.6566    4.7084    0.2655 C   0  0  0  0  0  0  0  0  0  0  0  0
    1.3237    5.2273   -1.0188 C   0  0  0  0  0  0  0  0  0  0  0  0
    1.4179    3.1960    2.1854 C   0  0  0  0  0  0  0  0  0  0  0  0
    4.2135    3.1966    0.5396 C   0  0  0  0  0  0  0  0  0  0  0  0
    3.4262    5.4700    1.0580 C   0  0  0  0  0  0  0  0  0  0  0  0
   -0.3924    1.3111    0.7900 C   0  0  0  0  0  0  0  0  0  0  0  0
    0.1713    0.7818   -1.4848 C   0  0  0  0  0  0  0  0  0  0  0  0
   -1.7744    0.7415    0.6092 C   0  0  0  0  0  0  0  0  0  0  0  0
    1.0731   -0.3593   -1.0955 C   0  0  0  0  0  0  0  0  0  0  0  0
   -2.0900   -0.4808    1.1859 C   0  0  0  0  0  0  0  0  0  0  0  0
    2.4105   -0.3293   -1.4650 C   0  0  0  0  0  0  0  0  0  0  0  0
   -2.7130    1.4467   -0.1309 C   0  0  0  0  0  0  0  0  0  0  0  0
    0.5546   -1.4245   -0.3727 C   0  0  0  0  0  0  0  0  0  0  0  0
   -3.3704   -1.0085    1.0189 C   0  0  0  0  0  0  0  0  0  0  0  0
    3.2464   -1.3861   -1.1041 C   0  0  0  0  0  0  0  0  0  0  0  0
   -3.9934    0.9190   -0.2977 C   0  0  0  0  0  0  0  0  0  0  0  0
    1.3906   -2.4812   -0.0117 C   0  0  0  0  0  0  0  0  0  0  0  0
   -4.3221   -0.3086    0.2772 C   0  0  0  0  0  0  0  0  0  0  0  0
    2.7363   -2.4620   -0.3775 C   0  0  0  0  0  0  0  0  0  0  0  0
   -5.6499   -0.8567    0.1037 C   0  0  0  0  0  0  0  0  0  0  0  0
    3.6036   -3.5584   -0.0039 C   0  0  0  0  0  0  0  0  0  0  0  0
   -6.6550   -0.5533    1.0222 C   0  0  0  0  0  0  0  0  0  0  0  0
    4.2934   -3.5201    1.2079 C   0  0  0  0  0  0  0  0  0  0  0  0
   -5.9251   -1.6879   -0.9821 C   0  0  0  0  0  0  0  0  0  0  0  0
    3.7495   -4.6538   -0.8552 C   0  0  0  0  0  0  0  0  0  0  0  0
   -7.9351   -1.0812    0.8549 C   0  0  0  0  0  0  0  0  0  0  0  0
    5.1293   -4.5770    1.5684 C   0  0  0  0  0  0  0  0  0  0  0  0
   -7.2055   -2.2158   -1.1493 C   0  0  0  0  0  0  0  0  0  0  0  0
    4.5854   -5.7107   -0.4945 C   0  0  0  0  0  0  0  0  0  0  0  0
   -8.2105   -1.9124   -0.2307 C   0  0  0  0  0  0  0  0  0  0  0  0
    5.2752   -5.6723    0.7173 C   0  0  0  0  0  0  0  0  0  0  0  0
  1  5  1  0
  1 12  1  0
  1 13  1  0
  2  3  1  0
  2  5  1  0
  2  7  1  0
  2  9  1  0
  3  4  1  0
  3 10  1  0
  3 11  1  0
  4  6  1  0
  4  8  1  0
  5  6  1  0
  7  8  1  0
 12 14  1  0
 13 15  1  0
 14 16  2  0
 14 18  1  0
 15 17  2  0
 15 19  1  0
 16 20  1  0
 17 21  1  0
 18 22  2  0
 19 23  2  0
 20 24  2  0
 21 25  2  0
 22 24  1  0
 23 25  1  0
 24 26  1  0
 25 27  1  0
 26 28  2  0
 26 30  1  0
 27 29  2  0
 27 31  1  0
 28 32  1  0
 29 33  1  0
 30 34  2  0
 31 35  2  0
 32 36  2  0
 33 37  2  0
 34 36  1  0
 35 37  1  0
M  END
>  <PUBCHEM_COMPOUND_CID>  (1) 
32554

>  <PUBCHEM_CONFORMER_RMSD>  (1) 
1

>  <PUBCHEM_CONFORMER_DIVERSEORDER>  (1) 
1
2

>  <PUBCHEM_MMFF94_PARTIAL_CHARGES>  (1) 
42
1 -0.81
12 0.41
13 0.41
14 -0.14
15 -0.14
16 -0.15
17 -0.15
18 -0.15
19 -0.15
20 -0.15
21 -0.15
22 -0.15
23 -0.15
28 -0.15
29 -0.15
30 -0.15
31 -0.15
32 -0.15
33 -0.15
34 -0.15
35 -0.15
36 -0.15
37 -0.15
5 0.27
59 0.15
60 0.15
61 0.15
62 0.15
63 0.15
64 0.15
65 0.15
66 0.15
67 0.15
68 0.15
69 0.15
70 0.15
71 0.15
72 0.15
73 0.15
74 0.15
75 0.15
76 0.15

>  <PUBCHEM_EFFECTIVE_ROTOR_COUNT>  (1) 
8

>  <PUBCHEM_PHARMACOPHORE_FEATURES>  (1) 
7
1 1 cation
3 3 10 11 hydrophobe
6 14 16 18 20 22 24 rings
6 15 17 19 21 23 25 rings
6 26 28 30 32 34 36 rings
6 27 29 31 33 35 37 rings
7 2 3 4 5 6 7 8 rings

>  <PUBCHEM_HEAVY_ATOM_COUNT>  (1) 
37

>  <PUBCHEM_ATOM_DEF_STEREO_COUNT>  (1) 
0

>  <PUBCHEM_ATOM_UDEF_STEREO_COUNT>  (1) 
3

>  <PUBCHEM_BOND_DEF_STEREO_COUNT>  (1) 
0

>  <PUBCHEM_BOND_UDEF_STEREO_COUNT>  (1) 
0

>  <PUBCHEM_ISOTOPIC_ATOM_COUNT>  (1) 
0

>  <PUBCHEM_COMPONENT_COUNT>  (1) 
1

>  <PUBCHEM_CACTVS_TAUTO_COUNT>  (1) 
1

>  <PUBCHEM_CONFORMER_ID>  (1) 
00007F2A00000001

>  <PUBCHEM_MMFF94_ENERGY>  (1) 
173.2065

>  <PUBCHEM_FEATURE_SELFOVERLAP>  (1) 
35.524

>  <PUBCHEM_SHAPE_FINGERPRINT>  (1) 
10050765 1 18412263927062867905
10319688 140 18411136974097396243
10411042 1 18265618675750842262
10721379 63 18270413779293015441
11062273 23 17402062093108756400
11093857 51 17680454404228866236
11135609 149 18336813244008894517
11135926 11 18124306362764368223
11136131 41 18193830676873608755
11204353 107 18123761012807230167
11297750 10 18115020806320561893
11331351 85 17977958881935971927
11445158 3 18342448245354224175
11621639 208 18116411693289832053
11719270 70 18123468538656001433
11763715 3 18050028605151487230
11963148 33 18053936531791803231
12166972 35 18341614776727752187
12597179 24 18046909561372585099
12758862 56 18118689821083313803
12788726 201 17396700882869273384
131258 43 18197237866678179822
13782708 43 17967536740640750327
14068700 675 18272091535506260571
14150023 79 18266462194711322148
14394314 77 18122063105213847523
14844126 61 17542235553663412456
14910700 183 18339919446167578680
15890870 6 18264498442082087924
15968369 26 17825114954499148243
16096371 109 18267586990764415745
16114785 44 16973923221709163841
16993427 108 17970898973361392618
18393751 57 17906446985327176529
19319366 153 18127690654732135765
20721686 124 18192427704483858492
20775438 99 18191859235999466435
21049683 118 17128158761573262168
21360442 33 18408603678418343295
21796203 349 17978267952130762235
22311459 1 18338239366102797996
22956985 138 18410005516550455664
23559900 14 18042700570663545893
23569914 152 17905015116840331311
244849 19 18042103445808396837
249999 5 18339080509603991297
32027 91 18335143090395048947
3418910 222 18120656830733367470
3504750 166 17326050655627007114
4017518 198 18121224444625458268
4073 2 18052264183480122683
4149490 64 18263082288079815771
44317340 157 18408889568921296317
44426701 196 17825073087279514453
504843 32 17399520511672131828
508180 173 17897161322041203697
57527295 17 18266764448598061637
57527585 103 17615379495666297480
6058803 2 18201733868544832825
6376802 90 8139217847169455334
6669772 16 18264204902014650267
6673363 416 18196662783917147750
6679774 75 18117830217970677896
6697151 62 18192407720470711087

>  <PUBCHEM_SHAPE_MULTIPOLES>  (1) 
756.46
15.89
9.74
1.49
41.17
0.64
-0.12
-21.52
-1.67
-24.12
-1.06
-0.63
0.31
-1.05

>  <PUBCHEM_SHAPE_SELFOVERLAP>  (1) 
1678.072

>  <PUBCHEM_SHAPE_VOLUME>  (1) 
408.5

>  <PUBCHEM_COORDINATE_TYPE>  (1) 
2
5
10

$$$$
