32555
     RDKit          3D

 13 14  0  0  1  0  0  0  0  0999 V2000
    3.4151    0.9318    0.1921 O   0  0  0  0  0  0  0  0  0  0  0  0
    1.9374   -0.8750    0.0363 N   0  0  0  0  0  0  0  0  0  0  0  0
   -0.1841    0.3929   -0.4886 C   0  0  0  0  0  0  0  0  0  0  0  0
   -1.5280    0.5223    0.2991 C   0  0  0  0  0  0  0  0  0  0  0  0
   -1.5427   -0.9987    0.6054 C   0  0  0  0  0  0  0  0  0  0  0  0
    0.7596   -0.2533    0.5779 C   0  0  0  0  0  0  0  0  0  0  0  0
   -0.5270   -0.6871   -1.5567 C   0  0  0  0  0  0  0  0  0  0  0  0
   -0.1771   -1.2546    1.2892 C   0  0  0  0  0  0  0  0  0  0  0  0
   -1.4550   -1.6466   -0.7936 C   0  0  0  0  0  0  0  0  0  0  0  0
    0.3733    1.6687   -1.0932 C   0  0  0  0  0  0  0  0  0  0  0  0
   -2.7422    1.0078   -0.5182 C   0  0  0  0  0  0  0  0  0  0  0  0
   -1.4773    1.4175    1.5544 C   0  0  0  0  0  0  0  0  0  0  0  0
    3.1479   -0.2256   -0.1042 C   0  0  0  0  0  0  0  0  0  0  0  0
  1 13  2  0
  2  6  1  0
  2 13  1  0
  3  4  1  0
  3  6  1  0
  3  7  1  0
  3 10  1  0
  4  5  1  0
  4 11  1  0
  4 12  1  0
  5  8  1  0
  5  9  1  0
  6  8  1  0
  7  9  1  0
M  END
>  <PUBCHEM_COMPOUND_CID>  (1) 
32555

>  <PUBCHEM_CONFORMER_RMSD>  (1) 
0.6

>  <PUBCHEM_CONFORMER_DIVERSEORDER>  (1) 
1
5
6
3
4
2

>  <PUBCHEM_MMFF94_PARTIAL_CHARGES>  (1) 
6
1 -0.57
13 0.57
2 -0.73
31 0.37
32 0.06
6 0.3

>  <PUBCHEM_EFFECTIVE_ROTOR_COUNT>  (1) 
3

>  <PUBCHEM_PHARMACOPHORE_FEATURES>  (1) 
4
1 1 acceptor
1 2 donor
3 4 11 12 hydrophobe
7 3 4 5 6 7 8 9 rings

>  <PUBCHEM_HEAVY_ATOM_COUNT>  (1) 
13

>  <PUBCHEM_ATOM_DEF_STEREO_COUNT>  (1) 
0

>  <PUBCHEM_ATOM_UDEF_STEREO_COUNT>  (1) 
3

>  <PUBCHEM_BOND_DEF_STEREO_COUNT>  (1) 
0

>  <PUBCHEM_BOND_UDEF_STEREO_COUNT>  (1) 
0

>  <PUBCHEM_ISOTOPIC_ATOM_COUNT>  (1) 
0

>  <PUBCHEM_COMPONENT_COUNT>  (1) 
1

>  <PUBCHEM_CACTVS_TAUTO_COUNT>  (1) 
2

>  <PUBCHEM_CONFORMER_ID>  (1) 
00007F2B00000001

>  <PUBCHEM_MMFF94_ENERGY>  (1) 
54.008

>  <PUBCHEM_FEATURE_SELFOVERLAP>  (1) 
20.297

>  <PUBCHEM_SHAPE_FINGERPRINT>  (1) 
10702982 57 18334007268501218447
12138202 97 17988636376786697967
12423570 1 8639478350193987851
12491281 212 18058741207950818304
12524768 44 18264213521581217246
13024252 1 16370444436305565031
13214271 11 18259986006973252836
13839132 238 17486792791227773713
14713566 1 18342730815151572003
14993402 34 18338508656194084061
15557651 10 18195794185586227057
15775835 57 18261388906374302560
16945 1 18059849537193847699
19837323 101 17632027338001452969
20653085 51 17273714051977263664
23236772 104 18335417997437602019
23402539 116 17632289047913369445
2748010 2 17679026997660086583
369184 2 17894624851272679146
5084963 1 18336273392025554633
528886 8 17967802847400789513
68250623 7 18121790688243509655

>  <PUBCHEM_SHAPE_MULTIPOLES>  (1) 
256.68
3.69
1.67
1.38
3.43
0.06
0.04
0.81
0.1
-0.5
-0.05
-0.49
0.04
-0.28

>  <PUBCHEM_SHAPE_SELFOVERLAP>  (1) 
536.315

>  <PUBCHEM_SHAPE_VOLUME>  (1) 
151.5

>  <PUBCHEM_COORDINATE_TYPE>  (1) 
2
5
10

$$$$
