32566
     RDKit          3D

 30 31  0  0  1  0  0  0  0  0999 V2000
    1.8224    2.7829   -0.3507 O   0  0  0  0  0  0  0  0  0  0  0  0
    5.7849   -0.1710    0.1483 O   0  0  0  0  0  0  0  0  0  0  0  0
    8.9398   -0.5037    1.6140 O   0  0  0  0  0  0  0  0  0  0  0  0
    7.4524    1.1148    1.6922 O   0  0  0  0  0  0  0  0  0  0  0  0
   -3.5428    1.5066    0.5842 N   0  0  0  0  0  0  0  0  0  0  0  0
   -0.9960    2.0928   -0.6524 N   0  0  0  0  0  0  0  0  0  0  0  0
    2.0384    0.6988   -1.3414 N   0  0  0  0  0  0  0  0  0  0  0  0
    3.2663    0.4958   -0.8108 N   0  0  0  0  0  0  0  0  0  0  0  0
    7.8160   -0.0259    1.2809 N   0  0  0  0  0  0  0  0  0  0  0  0
   -4.5485    1.6646    1.6327 C   0  0  0  0  0  0  0  0  0  0  0  0
   -2.2878    0.9857    1.1398 C   0  0  0  0  0  0  0  0  0  0  0  0
   -3.3069    2.7794   -0.1083 C   0  0  0  0  0  0  0  0  0  0  0  0
   -5.9529    1.6044    1.0280 C   0  0  0  0  0  0  0  0  0  0  0  0
   -1.2322    0.8205    0.0410 C   0  0  0  0  0  0  0  0  0  0  0  0
   -2.2509    2.6154   -1.2068 C   0  0  0  0  0  0  0  0  0  0  0  0
   -6.2584    0.2746    0.3005 C   0  0  0  0  0  0  0  0  0  0  0  0
   -6.1429   -0.9362    1.2534 C   0  0  0  0  0  0  0  0  0  0  0  0
    0.0086    1.9333   -1.7019 C   0  0  0  0  0  0  0  0  0  0  0  0
   -7.6546    0.3655   -0.3266 C   0  0  0  0  0  0  0  0  0  0  0  0
   -6.4309   -2.3076    0.6229 C   0  0  0  0  0  0  0  0  0  0  0  0
    1.3782    1.8813   -1.0587 C   0  0  0  0  0  0  0  0  0  0  0  0
   -5.4536   -2.6633   -0.4627 C   0  0  0  0  0  0  0  0  0  0  0  0
   -4.2412   -3.2363   -0.3417 C   0  0  0  0  0  0  0  0  0  0  0  0
   -3.4115   -3.5222   -1.5660 C   0  0  0  0  0  0  0  0  0  0  0  0
   -3.5908   -3.6415    0.9503 C   0  0  0  0  0  0  0  0  0  0  0  0
    3.7971   -0.6402   -1.1321 C   0  0  0  0  0  0  0  0  0  0  0  0
    5.1126   -1.0351   -0.6568 C   0  0  0  0  0  0  0  0  0  0  0  0
    5.8549   -2.1730   -0.8710 C   0  0  0  0  0  0  0  0  0  0  0  0
    7.0609   -1.9967   -0.1515 C   0  0  0  0  0  0  0  0  0  0  0  0
    6.9694   -0.7636    0.4512 C   0  0  0  0  0  0  0  0  0  0  0  0
  1 21  2  0
  2 27  1  0
  2 30  1  0
  3  9  1  0
  4  9  2  0
  5 10  1  0
  5 11  1  0
  5 12  1  0
  6 14  1  0
  6 15  1  0
  6 18  1  0
  7  8  1  0
  7 21  1  0
  8 26  2  0
  9 30  1  0
 10 13  1  0
 11 14  1  0
 12 15  1  0
 13 16  1  0
 16 17  1  0
 16 19  1  0
 17 20  1  0
 18 21  1  0
 20 22  1  0
 22 23  2  3
 23 24  1  0
 23 25  1  0
 26 27  1  0
 27 28  2  0
 28 29  1  0
 29 30  2  0
M  CHG  2   3  -1   9   1
M  END
>  <PUBCHEM_COMPOUND_CID>  (1) 
32566

>  <PUBCHEM_CONFORMER_RMSD>  (1) 
1.4

>  <PUBCHEM_CONFORMER_DIVERSEORDER>  (1) 
3
64
89
80
17
49
71
29
75
90
60
88
46
38
18
73
33
51
77
92
70
39
87
4
6
72
62
53
32
79
30
37
81
27
56
1
61
43
91
66
59
65
82
57
86
67
50
76
41
44
19
54
45
40
12
2
85
63
78
7
15
36
58
48
55
28
74
9
52
69
26
24
47
5
21
8
14
84
83
16
25
35
34
31
68
13
10
22
42
23
20
11

>  <PUBCHEM_MMFF94_PARTIAL_CHARGES>  (1) 
31
1 -0.57
10 0.27
11 0.27
12 0.27
14 0.27
15 0.27
18 0.33
2 -0.28
20 0.14
21 0.57
22 -0.29
23 -0.28
24 0.14
25 0.14
26 0.47
27 0.05
28 -0.15
29 -0.15
3 -0.52
30 0.22
4 -0.52
5 -0.81
53 0.15
54 0.37
6 -0.81
61 0.06
62 0.15
63 0.15
7 -0.37
8 -0.51
9 0.96

>  <PUBCHEM_EFFECTIVE_ROTOR_COUNT>  (1) 
13.2

>  <PUBCHEM_PHARMACOPHORE_FEATURES>  (1) 
14
1 1 acceptor
1 19 hydrophobe
1 2 acceptor
1 3 acceptor
1 3 anion
1 4 acceptor
1 5 cation
1 6 cation
1 7 donor
1 8 acceptor
3 23 24 25 hydrophobe
5 13 16 17 20 22 hydrophobe
5 2 27 28 29 30 rings
6 5 6 11 12 14 15 rings

>  <PUBCHEM_HEAVY_ATOM_COUNT>  (1) 
30

>  <PUBCHEM_ATOM_DEF_STEREO_COUNT>  (1) 
0

>  <PUBCHEM_ATOM_UDEF_STEREO_COUNT>  (1) 
0

>  <PUBCHEM_BOND_DEF_STEREO_COUNT>  (1) 
0

>  <PUBCHEM_BOND_UDEF_STEREO_COUNT>  (1) 
1

>  <PUBCHEM_ISOTOPIC_ATOM_COUNT>  (1) 
0

>  <PUBCHEM_COMPONENT_COUNT>  (1) 
1

>  <PUBCHEM_CACTVS_TAUTO_COUNT>  (1) 
2

>  <PUBCHEM_CONFORMER_ID>  (1) 
00007F3600000003

>  <PUBCHEM_MMFF94_ENERGY>  (1) 
43.7309

>  <PUBCHEM_FEATURE_SELFOVERLAP>  (1) 
71.238

>  <PUBCHEM_SHAPE_FINGERPRINT>  (1) 
10 15 16343699906971732524
10254770 206 18342738572475276543
10391435 84 18410006650215892187
11135609 99 18411704296422444876
11211813 140 18186794794814548123
12498461 61 18261669256925021050
13008946 119 17910394984175901841
13165053 103 15793112807054190858
15183329 4 13407079180352805380
15728490 51 18411139156367823252
18603816 31 17603587447889831723
190975 80 18408605855892597540
19303781 99 17895760715693773443
208703 8 18189056546526394331
22864921 47 17531516595678141002
229767 44 18343308080516627159
3383291 50 18113625564197328571
397830 11 18131350817561930776
5080951 261 18411971456394288997
5085150 59 18201726141598441815
559249 180 18335990818175409123
5718773 13 18333737918212039573
9953998 17 18202003201221736185

>  <PUBCHEM_SHAPE_MULTIPOLES>  (1) 
569
25.59
4.25
1.55
42.02
2.51
-0.12
11.98
-10.87
-6.37
0.99
0.76
-0.22
-0.25

>  <PUBCHEM_SHAPE_SELFOVERLAP>  (1) 
1145.491

>  <PUBCHEM_SHAPE_VOLUME>  (1) 
333.9

>  <PUBCHEM_COORDINATE_TYPE>  (1) 
2
5
10

$$$$
