32578
     RDKit          3D

 20 22  0  0  1  0  0  0  0  0999 V2000
   -5.9590   -0.0025    0.5671 O   0  0  0  0  0  0  0  0  0  0  0  0
    0.3422   -0.3939    0.0983 N   0  0  0  0  0  0  0  0  0  0  0  0
    2.8354   -0.3342    0.7484 C   0  0  0  0  0  0  0  0  0  0  0  0
    4.1092   -0.0973   -0.1261 C   0  0  0  0  0  0  0  0  0  0  0  0
    3.4384    1.0982   -0.8527 C   0  0  0  0  0  0  0  0  0  0  0  0
    1.7257   -0.5317   -0.3358 C   0  0  0  0  0  0  0  0  0  0  0  0
    2.6262    1.0575    1.4147 C   0  0  0  0  0  0  0  0  0  0  0  0
    2.1218    0.5042   -1.4111 C   0  0  0  0  0  0  0  0  0  0  0  0
    3.0332    2.0385    0.3032 C   0  0  0  0  0  0  0  0  0  0  0  0
    2.9080   -1.4632    1.7609 C   0  0  0  0  0  0  0  0  0  0  0  0
    5.3877    0.2764    0.6527 C   0  0  0  0  0  0  0  0  0  0  0  0
    4.5098   -1.2537   -1.0647 C   0  0  0  0  0  0  0  0  0  0  0  0
   -0.5741   -0.5601   -1.0218 C   0  0  0  0  0  0  0  0  0  0  0  0
   -2.0111   -0.4112   -0.5976 C   0  0  0  0  0  0  0  0  0  0  0  0
   -2.6059    0.8422   -0.6280 C   0  0  0  0  0  0  0  0  0  0  0  0
   -2.7201   -1.5295   -0.1826 C   0  0  0  0  0  0  0  0  0  0  0  0
   -3.9372    0.9801   -0.2349 C   0  0  0  0  0  0  0  0  0  0  0  0
   -4.0513   -1.3917    0.2104 C   0  0  0  0  0  0  0  0  0  0  0  0
   -4.6598   -0.1368    0.1843 C   0  0  0  0  0  0  0  0  0  0  0  0
   -6.5190    1.3088    0.5151 C   0  0  0  0  0  0  0  0  0  0  0  0
  1 19  1  0
  1 20  1  0
  2  6  1  0
  2 13  1  0
  3  4  1  0
  3  6  1  0
  3  7  1  0
  3 10  1  0
  4  5  1  0
  4 11  1  0
  4 12  1  0
  5  8  1  0
  5  9  1  0
  6  8  1  0
  7  9  1  0
 13 14  1  0
 14 15  2  0
 14 16  1  0
 15 17  1  0
 16 18  2  0
 17 19  2  0
 18 19  1  0
M  END
>  <PUBCHEM_COMPOUND_CID>  (1) 
32578

>  <PUBCHEM_CONFORMER_RMSD>  (1) 
0.8

>  <PUBCHEM_CONFORMER_DIVERSEORDER>  (1) 
4
14
13
16
9
11
10
17
2
3
7
8
12
5
6
15
1

>  <PUBCHEM_MMFF94_PARTIAL_CHARGES>  (1) 
16
1 -0.36
13 0.41
14 -0.14
15 -0.15
16 -0.15
17 -0.15
18 -0.15
19 0.08
2 -0.9
20 0.28
38 0.36
41 0.15
42 0.15
43 0.15
44 0.15
6 0.27

>  <PUBCHEM_EFFECTIVE_ROTOR_COUNT>  (1) 
5

>  <PUBCHEM_PHARMACOPHORE_FEATURES>  (1) 
6
1 1 acceptor
1 2 cation
1 2 donor
3 4 11 12 hydrophobe
6 14 15 16 17 18 19 rings
7 3 4 5 6 7 8 9 rings

>  <PUBCHEM_HEAVY_ATOM_COUNT>  (1) 
20

>  <PUBCHEM_ATOM_DEF_STEREO_COUNT>  (1) 
0

>  <PUBCHEM_ATOM_UDEF_STEREO_COUNT>  (1) 
3

>  <PUBCHEM_BOND_DEF_STEREO_COUNT>  (1) 
0

>  <PUBCHEM_BOND_UDEF_STEREO_COUNT>  (1) 
0

>  <PUBCHEM_ISOTOPIC_ATOM_COUNT>  (1) 
0

>  <PUBCHEM_COMPONENT_COUNT>  (1) 
1

>  <PUBCHEM_CACTVS_TAUTO_COUNT>  (1) 
1

>  <PUBCHEM_CONFORMER_ID>  (1) 
00007F4200000004

>  <PUBCHEM_MMFF94_ENERGY>  (1) 
85.0197

>  <PUBCHEM_FEATURE_SELFOVERLAP>  (1) 
30.446

>  <PUBCHEM_SHAPE_FINGERPRINT>  (1) 
10354089 29 18040999531321994796
10366900 7 16225769622581215452
10447042 23 11314305083145238928
11089746 13 17917986183602573701
11405975 8 18342174492143102675
12107183 9 17465366526770268921
12236239 1 17894916239192034727
12516196 113 12252189580133939799
12553582 1 16660638587490328415
12596602 18 17531256092889846089
12616971 3 17385442158863493823
12778500 126 18335704884073294096
13134695 92 16702014263075359080
13167372 99 17417539012381641241
13167823 11 18186800292245858891
13464513 79 14923663078062558238
13533116 47 17676482801184751403
13583140 156 18041820870860927119
13955234 65 16877656873351646792
14251718 22 8862940572161282687
14252887 29 16008743598296241614
14341114 176 18334859393975298756
14849402 71 17896320397678872940
15142383 8 18337104579777004312
15238133 3 18412828010196441904
15537594 2 17240483611109849451
15788980 27 17989768907927938055
1813 80 15430039825024078623
18186145 218 18260820514512772550
19050596 39 18186516639678316751
200 152 12757146888017426079
20279233 1 11458422418757392748
21033648 29 17561069289924698265
21267235 1 17313104116725859690
212847 35 18059858376315715904
21503847 285 18410857689617381392
21521721 280 17458911535302453308
23402655 69 13039192519441440574
23559900 14 18343590624438605655
25222932 49 13623821578135232649
2838139 119 16056040122485392865
3060560 45 13614244797798297116
351380 180 17917992776234922301
351380 3 16081088195044469035
3545911 37 18409731746576048327
4340502 62 13118284819682501164
465052 167 14490191609311395032
5104073 3 18261390117280741609
5374978 207 18261109677755236413
54040823 5 13623526862206630540
542803 24 18408605876739167095
633830 44 18342451577694950615
9971528 1 12679189306179598618

>  <PUBCHEM_SHAPE_MULTIPOLES>  (1) 
400.74
13.87
1.59
1.26
15.36
0.15
-0.15
2.15
-2.39
-0.11
-0.18
-1.21
-0.11
-0.12

>  <PUBCHEM_SHAPE_SELFOVERLAP>  (1) 
851.928

>  <PUBCHEM_SHAPE_VOLUME>  (1) 
230.7

>  <PUBCHEM_COORDINATE_TYPE>  (1) 
2
5
10

$$$$
