32570
     RDKit          3D

 19 21  0  0  1  0  0  0  0  0999 V2000
   -0.0152    0.3623   -0.0040 N   0  0  0  0  0  0  0  0  0  0  0  0
    2.4463    0.4798    0.6693 C   0  0  0  0  0  0  0  0  0  0  0  0
    3.7472    0.1494   -0.1315 C   0  0  0  0  0  0  0  0  0  0  0  0
    3.1194   -1.1530   -0.6944 C   0  0  0  0  0  0  0  0  0  0  0  0
    1.3626    0.4947   -0.4581 C   0  0  0  0  0  0  0  0  0  0  0  0
    2.2456   -0.8066    1.5236 C   0  0  0  0  0  0  0  0  0  0  0  0
    1.8068   -0.6755   -1.3632 C   0  0  0  0  0  0  0  0  0  0  0  0
    2.7022   -1.9272    0.5750 C   0  0  0  0  0  0  0  0  0  0  0  0
    2.4679    1.7435    1.5109 C   0  0  0  0  0  0  0  0  0  0  0  0
    5.0181   -0.0822    0.7108 C   0  0  0  0  0  0  0  0  0  0  0  0
    4.1393    1.1785   -1.2122 C   0  0  0  0  0  0  0  0  0  0  0  0
   -0.9336    0.3131   -1.1335 C   0  0  0  0  0  0  0  0  0  0  0  0
   -2.3341    0.1661   -0.6178 C   0  0  0  0  0  0  0  0  0  0  0  0
   -3.0902    1.3003   -0.3420 C   0  0  0  0  0  0  0  0  0  0  0  0
   -2.8654   -1.1039   -0.4198 C   0  0  0  0  0  0  0  0  0  0  0  0
   -4.3927    1.1632    0.1378 C   0  0  0  0  0  0  0  0  0  0  0  0
   -4.1680   -1.2410    0.0599 C   0  0  0  0  0  0  0  0  0  0  0  0
   -4.9317   -0.1075    0.3386 C   0  0  0  0  0  0  0  0  0  0  0  0
   -6.3246   -0.2540    0.8505 C   0  0  0  0  0  0  0  0  0  0  0  0
  1  5  1  0
  1 12  1  0
  2  3  1  0
  2  5  1  0
  2  6  1  0
  2  9  1  0
  3  4  1  0
  3 10  1  0
  3 11  1  0
  4  7  1  0
  4  8  1  0
  5  7  1  0
  6  8  1  0
 12 13  1  0
 13 14  2  0
 13 15  1  0
 14 16  1  0
 15 17  2  0
 16 18  2  0
 17 18  1  0
 18 19  1  0
M  END
>  <PUBCHEM_COMPOUND_CID>  (1) 
32570

>  <PUBCHEM_CONFORMER_RMSD>  (1) 
0.6

>  <PUBCHEM_CONFORMER_DIVERSEORDER>  (1) 
1
10
15
5
4
6
11
13
9
16
12
2
14
3
8
7

>  <PUBCHEM_MMFF94_PARTIAL_CHARGES>  (1) 
15
1 -0.9
12 0.41
13 -0.14
14 -0.15
15 -0.15
16 -0.15
17 -0.15
18 -0.14
19 0.14
37 0.36
40 0.15
41 0.15
42 0.15
43 0.15
5 0.27

>  <PUBCHEM_EFFECTIVE_ROTOR_COUNT>  (1) 
4

>  <PUBCHEM_PHARMACOPHORE_FEATURES>  (1) 
5
1 1 cation
1 1 donor
3 3 10 11 hydrophobe
6 13 14 15 16 17 18 rings
7 2 3 4 5 6 7 8 rings

>  <PUBCHEM_HEAVY_ATOM_COUNT>  (1) 
19

>  <PUBCHEM_ATOM_DEF_STEREO_COUNT>  (1) 
0

>  <PUBCHEM_ATOM_UDEF_STEREO_COUNT>  (1) 
3

>  <PUBCHEM_BOND_DEF_STEREO_COUNT>  (1) 
0

>  <PUBCHEM_BOND_UDEF_STEREO_COUNT>  (1) 
0

>  <PUBCHEM_ISOTOPIC_ATOM_COUNT>  (1) 
0

>  <PUBCHEM_COMPONENT_COUNT>  (1) 
1

>  <PUBCHEM_CACTVS_TAUTO_COUNT>  (1) 
1

>  <PUBCHEM_CONFORMER_ID>  (1) 
00007F3A00000001

>  <PUBCHEM_MMFF94_ENERGY>  (1) 
73.1914

>  <PUBCHEM_FEATURE_SELFOVERLAP>  (1) 
25.371

>  <PUBCHEM_SHAPE_FINGERPRINT>  (1) 
10354089 29 17489590068983264169
10366900 7 18272365404084898399
11089746 13 13614237066698616243
11552529 35 17488458753787891007
12107183 9 17686053890832463409
12236239 1 17458065967420273989
12553582 1 17531239591350824351
12596602 18 17749395892631176065
12633257 1 17988636406946609015
128620 24 15936408940091709791
13167823 11 18186519874020760291
13224815 77 16805317778023833077
13464513 79 16226048890361252918
13533116 47 18410852123698702507
13583140 156 18339342098993157901
13955234 65 18113897174314427480
14252887 29 16732702727279766310
14289901 80 18114179722389675973
14341114 176 18273218586099951601
14341114 328 18334017215313075812
14849402 71 18189896595096309076
15048467 5 14907891713755151194
15788980 27 12107787410616664889
17349148 13 15285354007524560808
17834072 33 18186524327653972077
17844677 252 17967538947889658109
1813 80 16732991899075411279
18186145 218 15195279820280219117
200 152 14562527379907220805
21033648 29 16200143249675564953
21065199 12 18342454837938806481
21267235 1 18040722437365095254
21503847 285 17132116870246642320
22289505 5 10952051147821893954
22646028 1 16515683338582413621
22646028 28 17676486142510876035
22854114 59 17632578253904773735
23402539 116 15936683792112721324
23402655 69 10663819689011011862
23557571 272 13045932482775692807
23559900 14 18200322000260234015
239999 70 18335427842030639446
300161 21 18261104175917876781
351380 180 10807934855870604491
4028521 119 11095889246483353843
42 15 18408041793109577831
4214541 1 18408885101422338717
4340502 62 18333728040246026002
474 4 17096662078675223204
5104073 3 18337106753088362153
5374978 207 18272369772151041089
542803 24 18272654554083790573
57724786 102 16271923861267507385
5924683 9 17917140724060590831
633830 44 14405175171197052029
7495541 125 18411417340983159072
77779 3 18408042892478787341
8272917 22 16630254623065048831

>  <PUBCHEM_SHAPE_MULTIPOLES>  (1) 
386.03
12.38
1.53
1.29
13.19
0.09
0.1
0.18
2.3
-0.48
0.19
-0.98
-0.1
0.05

>  <PUBCHEM_SHAPE_SELFOVERLAP>  (1) 
821.948

>  <PUBCHEM_SHAPE_VOLUME>  (1) 
221.6

>  <PUBCHEM_COORDINATE_TYPE>  (1) 
2
5
10

$$$$
