32583
     RDKit          3D

 32 35  0  0  0  0  0  0  0  0999 V2000
    4.3445   -0.3270   -0.5602 N   0  0  0  0  0  0  0  0  0  0  0  0
   -5.4710   -1.4796    0.2786 N   0  0  0  0  0  0  0  0  0  0  0  0
    4.9469    0.3906    0.6461 C   0  0  0  0  0  0  0  0  0  0  0  0
   -6.1976   -0.3810    1.1166 C   0  0  0  0  0  0  0  0  0  0  0  0
    2.8299   -0.5052   -0.4304 C   0  0  0  0  0  0  0  0  0  0  0  0
   -4.0400   -1.3113    0.1564 C   0  0  0  0  0  0  0  0  0  0  0  0
    4.6357    0.5074   -1.8041 C   0  0  0  0  0  0  0  0  0  0  0  0
    4.9937   -1.7042   -0.6659 C   0  0  0  0  0  0  0  0  0  0  0  0
   -5.8349   -2.8226    0.9736 C   0  0  0  0  0  0  0  0  0  0  0  0
   -6.1737   -1.4574   -1.1088 C   0  0  0  0  0  0  0  0  0  0  0  0
    6.4319    0.5756    0.5389 C   0  0  0  0  0  0  0  0  0  0  0  0
   -6.0285    0.9981    0.5503 C   0  0  0  0  0  0  0  0  0  0  0  0
    2.2509   -0.0281    0.6974 C   0  0  0  0  0  0  0  0  0  0  0  0
   -3.2403   -1.2877    1.2991 C   0  0  0  0  0  0  0  0  0  0  0  0
    2.1958   -1.1248   -1.4546 C   0  0  0  0  0  0  0  0  0  0  0  0
   -3.4592   -1.1726   -1.1041 C   0  0  0  0  0  0  0  0  0  0  0  0
    0.1529   -0.8198   -0.2014 C   0  0  0  0  0  0  0  0  0  0  0  0
   -1.2792   -0.9867   -0.0793 C   0  0  0  0  0  0  0  0  0  0  0  0
    0.8706   -0.1904    0.8156 C   0  0  0  0  0  0  0  0  0  0  0  0
   -1.8599   -1.1254    1.1813 C   0  0  0  0  0  0  0  0  0  0  0  0
    0.8154   -1.2870   -1.3366 C   0  0  0  0  0  0  0  0  0  0  0  0
   -2.0788   -1.0104   -1.2221 C   0  0  0  0  0  0  0  0  0  0  0  0
    7.2855   -0.4027    1.0369 C   0  0  0  0  0  0  0  0  0  0  0  0
   -4.9546    1.7826    0.9566 C   0  0  0  0  0  0  0  0  0  0  0  0
    6.9416    1.7237   -0.0571 C   0  0  0  0  0  0  0  0  0  0  0  0
   -6.9473    1.4799   -0.3754 C   0  0  0  0  0  0  0  0  0  0  0  0
    8.6662   -0.2305    0.9377 C   0  0  0  0  0  0  0  0  0  0  0  0
   -4.7976    3.0649    0.4305 C   0  0  0  0  0  0  0  0  0  0  0  0
    8.3223    1.8959   -0.1565 C   0  0  0  0  0  0  0  0  0  0  0  0
   -6.7903    2.7622   -0.9016 C   0  0  0  0  0  0  0  0  0  0  0  0
    9.1845    0.9187    0.3410 C   0  0  0  0  0  0  0  0  0  0  0  0
   -5.7154    3.5547   -0.4985 C   0  0  0  0  0  0  0  0  0  0  0  0
  1  3  1  0
  1  5  1  0
  1  7  1  0
  1  8  1  0
  2  4  1  0
  2  6  1  0
  2  9  1  0
  2 10  1  0
  3 11  1  0
  4 12  1  0
  5 13  2  0
  5 15  1  0
  6 14  2  0
  6 16  1  0
 11 23  2  0
 11 25  1  0
 12 24  2  0
 12 26  1  0
 13 19  1  0
 14 20  1  0
 15 21  2  0
 16 22  2  0
 17 18  1  0
 17 19  2  0
 17 21  1  0
 18 20  2  0
 18 22  1  0
 23 27  1  0
 24 28  1  0
 25 29  2  0
 26 30  2  0
 27 31  2  0
 28 32  2  0
 29 31  1  0
 30 32  1  0
M  CHG  2   1   1   2   1
M  END
>  <PUBCHEM_COMPOUND_CID>  (1) 
32583

>  <PUBCHEM_CONFORMER_RMSD>  (1) 
1

>  <PUBCHEM_CONFORMER_DIVERSEORDER>  (1) 
31
57
19
58
7
20
64
17
8
5
61
18
59
1
63
6
62
2
4
60
15
66
3
27
13
65
50
43
28
23
25
46
16
53
26
33
51
49
24
14
21
9
52
47
45
42
54
35
34
12
48
10
22
44
32
38
36
39
40
29
41
11
37
55
56
30

>  <PUBCHEM_MMFF94_PARTIAL_CHARGES>  (1) 
48
1 -0.87
10 0.5
11 -0.14
12 -0.14
13 -0.15
14 -0.15
15 -0.15
16 -0.15
19 -0.15
2 -0.87
20 -0.15
21 -0.15
22 -0.15
23 -0.15
24 -0.15
25 -0.15
26 -0.15
27 -0.15
28 -0.15
29 -0.15
3 0.65
30 -0.15
31 -0.15
32 -0.15
4 0.65
49 0.15
5 0.36
50 0.15
51 0.15
52 0.15
53 0.15
54 0.15
55 0.15
56 0.15
57 0.15
58 0.15
59 0.15
6 0.36
60 0.15
61 0.15
62 0.15
63 0.15
64 0.15
65 0.15
66 0.15
7 0.5
8 0.5
9 0.5

>  <PUBCHEM_EFFECTIVE_ROTOR_COUNT>  (1) 
7

>  <PUBCHEM_PHARMACOPHORE_FEATURES>  (1) 
6
1 1 cation
1 2 cation
6 11 23 25 27 29 31 rings
6 12 24 26 28 30 32 rings
6 5 13 15 17 19 21 rings
6 6 14 16 18 20 22 rings

>  <PUBCHEM_HEAVY_ATOM_COUNT>  (1) 
32

>  <PUBCHEM_ATOM_DEF_STEREO_COUNT>  (1) 
0

>  <PUBCHEM_ATOM_UDEF_STEREO_COUNT>  (1) 
0

>  <PUBCHEM_BOND_DEF_STEREO_COUNT>  (1) 
0

>  <PUBCHEM_BOND_UDEF_STEREO_COUNT>  (1) 
0

>  <PUBCHEM_ISOTOPIC_ATOM_COUNT>  (1) 
0

>  <PUBCHEM_COMPONENT_COUNT>  (1) 
1

>  <PUBCHEM_CACTVS_TAUTO_COUNT>  (1) 
1

>  <PUBCHEM_CONFORMER_ID>  (1) 
00007F470000001F

>  <PUBCHEM_MMFF94_ENERGY>  (1) 
150.1032

>  <PUBCHEM_FEATURE_SELFOVERLAP>  (1) 
30.449

>  <PUBCHEM_SHAPE_FINGERPRINT>  (1) 
10 15 18413672413297926450
10076449 9 17203323439113343391
100830 39 18410292489090950521
10087517 78 18334858308024170141
10554248 39 16845017792991942590
10666366 153 18202292364843872406
10835480 77 18272370841065115270
11135926 11 14273726374221611355
11181472 205 18334018264419499060
11315181 36 18040432231073397267
11456790 92 18335132112632285392
11477941 20 18130495406596488901
11578821 258 17917993910386825800
12082328 90 18410008853376184214
125118 31 18408324398116673356
12664476 115 18201719570503746121
12838862 33 16988832883814466522
13111901 25 18186525423414764108
13673619 4 11602824605438978758
13811026 1 18131352982178092198
13885169 127 18335420183745072666
13911987 19 16774077341865599879
13914758 101 18409168805729448466
14150023 24 18131627881803187366
14251764 18 18113619010667772542
14294032 229 18059849606388033334
14598715 104 18201710760824455408
14849402 71 17823142396754421324
15021287 119 15213024855911286087
15183329 4 14836401423876289837
15264996 74 17604409857571933895
15289351 153 17703509888507970066
15328684 2 17968645051928308840
15461852 350 17775278396296009615
15510800 12 12468630583314289096
15604295 49 18129936897122722224
16989713 51 17416957521139267535
17093844 174 18186239529068886955
17324776 126 12110650608391657097
17686467 74 18199463449942508731
20982279 24 13407347388919650056
21130935 74 18113616781427733634
21150785 3 13254793538682339648
21424621 283 18334576836936050178
21756936 100 18333448734312358083
21781055 127 17313398764747179654
21792961 116 17489593325465117546
21792965 68 18114731643199605733
23522609 53 16806758155256793887
23569943 247 16009288943057613146
23576562 1 16127792192964675833
249057 25 17677342717528890879
3103668 31 15839837832933222103
3383291 50 13623531268558818360
3525247 154 17916860218829286993
3663271 9 18187080659273968986
4073 2 18408608050025014395
4169191 19 17917716777030239025
437795 83 17561085765662566697
44555599 121 18113624521042949956
44802255 64 17918272056895179087
54039377 194 11887660811398589213
54728670 133 14563078175683879567
57676310 108 17630296824309616341
58083652 198 15502376767834402359
59567204 34 18411698773406231833
6201320 215 18270113514119845576
636775 72 18409166614874913565
6691757 9 16370725967285864354
999808 66 11891335339574957489

>  <PUBCHEM_SHAPE_MULTIPOLES>  (1) 
648.58
28.16
2.87
1.37
37.34
2.13
-0.21
13.9
3.92
-6.77
-0.18
-0.16
-0.33
0.96

>  <PUBCHEM_SHAPE_SELFOVERLAP>  (1) 
1403.948

>  <PUBCHEM_SHAPE_VOLUME>  (1) 
355.3

>  <PUBCHEM_COORDINATE_TYPE>  (1) 
2
5
10

$$$$
