32589
     RDKit          3D

 28 30  0  0  0  0  0  0  0  0999 V2000
    9.8582    0.1652    0.2986 Cl  0  0  0  0  0  0  0  0  0  0  0  0
    3.5884    1.3099   -1.2905 O   0  0  0  0  0  0  0  0  0  0  0  0
   -2.4567   -0.8403   -1.6951 O   0  0  0  0  0  0  0  0  0  0  0  0
    1.1555   -0.4620    0.7069 N   0  0  0  0  0  0  0  0  0  0  0  0
   -8.1964    0.9850    0.2941 N   0  0  0  0  0  0  0  0  0  0  0  0
    3.8466    0.3740   -0.2333 C   0  0  0  0  0  0  0  0  0  0  0  0
    3.1791   -0.9658   -0.6159 C   0  0  0  0  0  0  0  0  0  0  0  0
    3.2049    0.8876    1.0764 C   0  0  0  0  0  0  0  0  0  0  0  0
    1.6474   -0.8990   -0.6041 C   0  0  0  0  0  0  0  0  0  0  0  0
    1.6712    0.8677    1.0482 C   0  0  0  0  0  0  0  0  0  0  0  0
   -0.3069   -0.4677    0.7341 C   0  0  0  0  0  0  0  0  0  0  0  0
    5.3693    0.3212   -0.0995 C   0  0  0  0  0  0  0  0  0  0  0  0
   -0.8358   -1.8732    0.4413 C   0  0  0  0  0  0  0  0  0  0  0  0
    6.0462   -0.8774   -0.3195 C   0  0  0  0  0  0  0  0  0  0  0  0
    6.0781    1.4718    0.2433 C   0  0  0  0  0  0  0  0  0  0  0  0
   -2.3657   -1.9326    0.4549 C   0  0  0  0  0  0  0  0  0  0  0  0
    7.4348   -0.9258   -0.1963 C   0  0  0  0  0  0  0  0  0  0  0  0
    7.4667    1.4237    0.3662 C   0  0  0  0  0  0  0  0  0  0  0  0
   -3.0135   -1.0794   -0.6263 C   0  0  0  0  0  0  0  0  0  0  0  0
    8.1452    0.2247    0.1464 C   0  0  0  0  0  0  0  0  0  0  0  0
   -4.3797   -0.5349   -0.3832 C   0  0  0  0  0  0  0  0  0  0  0  0
   -5.2428   -1.2486    0.4175 C   0  0  0  0  0  0  0  0  0  0  0  0
   -4.7283    0.6616   -0.9691 C   0  0  0  0  0  0  0  0  0  0  0  0
   -6.9036    0.4703    0.0647 C   0  0  0  0  0  0  0  0  0  0  0  0
   -6.5215   -0.7396    0.6444 C   0  0  0  0  0  0  0  0  0  0  0  0
   -6.0070    1.1708   -0.7423 C   0  0  0  0  0  0  0  0  0  0  0  0
   -9.1355    0.2647    1.1307 C   0  0  0  0  0  0  0  0  0  0  0  0
   -8.5983    2.2482   -0.2925 C   0  0  0  0  0  0  0  0  0  0  0  0
  1 20  1  0
  2  6  1  0
  3 19  2  0
  4  9  1  0
  4 10  1  0
  4 11  1  0
  5 24  1  0
  5 27  1  0
  5 28  1  0
  6  7  1  0
  6  8  1  0
  6 12  1  0
  7  9  1  0
  8 10  1  0
 11 13  1  0
 12 14  2  0
 12 15  1  0
 13 16  1  0
 14 17  1  0
 15 18  2  0
 16 19  1  0
 17 20  2  0
 18 20  1  0
 19 21  1  0
 21 22  2  0
 21 23  1  0
 22 25  1  0
 23 26  2  0
 24 25  2  0
 24 26  1  0
M  END
>  <PUBCHEM_COMPOUND_CID>  (1) 
32589

>  <PUBCHEM_CONFORMER_RMSD>  (1) 
1

>  <PUBCHEM_CONFORMER_DIVERSEORDER>  (1) 
1
121
115
81
21
159
65
62
119
205
177
67
124
160
106
165
7
153
97
190
60
26
24
15
14
187
51
19
87
169
174
109
105
117
85
6
88
4
34
99
198
146
157
161
120
104
181
33
183
123
112
171
59
78
79
150
134
55
92
71
184
94
189
129
164
95
116
118
38
32
31
167
68
156
28
149
111
144
56
180
145
100
49
204
9
110
122
11
89
143
154
86
46
103
188
166
40
196
52
195
90
194
36
76
128
22
200
44
43
27
136
42
30
172
158
185
108
83
5
152
41
12
207
148
10
93
17
57
35
96
102
2
147
126
84
186
101
142
16
80
50
176
206
13
107
182
39
64
37
54
135
74
98
139
162
91
75
130
23
113
82
29
202
133
155
141
138
72
173
193
8
114
61
131
58
45
203
163
179
192
18
70
201
137
63
127
191
69
20
73
151
3
197
53
199
48
170
25
140
175
77
178
168
132
125
47
66

>  <PUBCHEM_MMFF94_PARTIAL_CHARGES>  (1) 
34
1 -0.18
10 0.27
11 0.27
12 -0.14
14 -0.15
15 -0.15
16 0.06
17 -0.15
18 -0.15
19 0.42
2 -0.68
20 0.18
21 0.09
22 -0.15
23 -0.15
24 0.1
25 -0.15
26 -0.15
27 0.37
28 0.37
3 -0.57
4 -0.81
41 0.4
42 0.15
43 0.15
46 0.15
47 0.15
48 0.15
49 0.15
5 -0.84
50 0.15
51 0.15
6 0.42
9 0.27

>  <PUBCHEM_EFFECTIVE_ROTOR_COUNT>  (1) 
8.2

>  <PUBCHEM_PHARMACOPHORE_FEATURES>  (1) 
8
1 2 acceptor
1 2 donor
1 3 acceptor
1 4 cation
1 5 cation
6 12 14 15 17 18 20 rings
6 21 22 23 24 25 26 rings
6 4 6 7 8 9 10 rings

>  <PUBCHEM_HEAVY_ATOM_COUNT>  (1) 
28

>  <PUBCHEM_ATOM_DEF_STEREO_COUNT>  (1) 
0

>  <PUBCHEM_ATOM_UDEF_STEREO_COUNT>  (1) 
0

>  <PUBCHEM_BOND_DEF_STEREO_COUNT>  (1) 
0

>  <PUBCHEM_BOND_UDEF_STEREO_COUNT>  (1) 
0

>  <PUBCHEM_ISOTOPIC_ATOM_COUNT>  (1) 
0

>  <PUBCHEM_COMPONENT_COUNT>  (1) 
1

>  <PUBCHEM_CACTVS_TAUTO_COUNT>  (1) 
2

>  <PUBCHEM_CONFORMER_ID>  (1) 
00007F4D00000001

>  <PUBCHEM_MMFF94_ENERGY>  (1) 
85.9432

>  <PUBCHEM_FEATURE_SELFOVERLAP>  (1) 
40.596

>  <PUBCHEM_SHAPE_FINGERPRINT>  (1) 
10 15 17821445743212029041
10162869 55 11887669585921361826
10165383 225 18408039603140727371
10299344 5 13045942413108910898
10391435 84 11023812968715216133
106641 1 11241972586016021502
10670039 82 17275106090498058713
10674148 151 18334292076573108880
10883706 142 18333170574623190507
10904742 90 18407758127942704547
11135609 99 8646472034542127145
11211813 128 10953454120643478880
11315181 36 8718833098300748055
11719270 70 17632578245647837542
12643181 29 11815890172631193749
12664476 115 18411415103843534217
12838862 33 16630799998571690902
14117953 113 16200156508498570364
14118638 360 15625955196043397563
14150022 121 13479401744272655367
14251764 18 13623526862153934762
14251764 46 18334013895630552866
14849402 71 15792307010869911772
14933364 13 18333731325210276367
15142383 8 18273777155703617748
15183329 4 16774079566368567107
15728490 51 8430310234127112024
1577012 14 18187635904198609275
16087824 20 18131634460975393448
18335252 98 10665223749023968064
18608769 82 18335985350534627779
19841028 212 18261670378069870938
20105231 36 12829481525206363416
21033648 29 18339633559473322322
21095086 128 10953453029985295552
21150785 3 13902191486569021466
21267235 1 12251899296232266630
21365058 27 15791729706624305219
21585482 111 18191021206650184645
21756936 100 18333446565396467723
21792934 111 17775278375612652512
22224240 67 7925912573936453360
23389318 12 11239993490924426754
249057 3 16128653080709622907
3009799 131 17846498153994595434
3178227 256 13912325685643081510
4073 2 18187367687628023754
4098825 35 18411135865716395394
4325135 7 11095884874264629866
4339292 15 17202756142585162159
44280117 145 18267022950353940159
4760202 170 16702009916437010152
5385378 56 17604142645454099474
5758199 1 17240201028026074587
59682541 35 12396304767872172349
59755656 520 17676483977874389275
9689198 14 18259704493384080145
9953998 17 17603307055814416115
9962374 69 12396590675503013459

>  <PUBCHEM_SHAPE_MULTIPOLES>  (1) 
556.4
32.41
1.72
1.05
2.21
0.1
0.08
12.32
-2.92
1.46
0.02
0.62
0.04
0.9

>  <PUBCHEM_SHAPE_SELFOVERLAP>  (1) 
1163.203

>  <PUBCHEM_SHAPE_VOLUME>  (1) 
317.1

>  <PUBCHEM_COORDINATE_TYPE>  (1) 
2
5
10

$$$$
