32593
     RDKit          3D

 27 29  0  0  0  0  0  0  0  0999 V2000
   -8.2520   -0.9777    1.0671 F   0  0  0  0  0  0  0  0  0  0  0  0
    6.3769   -3.8309    0.1876 F   0  0  0  0  0  0  0  0  0  0  0  0
   -2.5513   -1.5867   -1.5181 O   0  0  0  0  0  0  0  0  0  0  0  0
    5.1530    2.3088   -0.2125 O   0  0  0  0  0  0  0  0  0  0  0  0
    0.0694    1.9981    0.2946 N   0  0  0  0  0  0  0  0  0  0  0  0
   -2.2962    0.6558   -0.7788 C   0  0  0  0  0  0  0  0  0  0  0  0
   -0.9194    0.5222   -1.4273 C   0  0  0  0  0  0  0  0  0  0  0  0
   -2.1546    0.9956    0.7037 C   0  0  0  0  0  0  0  0  0  0  0  0
   -0.0532    1.7518   -1.1490 C   0  0  0  0  0  0  0  0  0  0  0  0
   -1.2479    2.2103    0.9102 C   0  0  0  0  0  0  0  0  0  0  0  0
    0.9421    3.1448    0.5455 C   0  0  0  0  0  0  0  0  0  0  0  0
   -3.0564   -0.6231   -0.9466 C   0  0  0  0  0  0  0  0  0  0  0  0
    2.3429    2.8742   -0.0070 C   0  0  0  0  0  0  0  0  0  0  0  0
    2.9925    1.6445    0.6337 C   0  0  0  0  0  0  0  0  0  0  0  0
   -4.4431   -0.7177   -0.4092 C   0  0  0  0  0  0  0  0  0  0  0  0
    4.4174    1.3974    0.1589 C   0  0  0  0  0  0  0  0  0  0  0  0
   -5.2104    0.4246   -0.3535 C   0  0  0  0  0  0  0  0  0  0  0  0
   -4.9069   -1.9442    0.0121 C   0  0  0  0  0  0  0  0  0  0  0  0
    4.9406    0.0014    0.1666 C   0  0  0  0  0  0  0  0  0  0  0  0
   -6.5084    0.3359    0.1495 C   0  0  0  0  0  0  0  0  0  0  0  0
   -6.2050   -2.0330    0.5151 C   0  0  0  0  0  0  0  0  0  0  0  0
   -7.0058   -0.8929    0.5837 C   0  0  0  0  0  0  0  0  0  0  0  0
    4.4589   -0.8798    1.1086 C   0  0  0  0  0  0  0  0  0  0  0  0
    5.8862   -0.3552   -0.7688 C   0  0  0  0  0  0  0  0  0  0  0  0
    4.9484   -2.1860    1.1156 C   0  0  0  0  0  0  0  0  0  0  0  0
    6.3757   -1.6614   -0.7618 C   0  0  0  0  0  0  0  0  0  0  0  0
    5.9067   -2.5769    0.1804 C   0  0  0  0  0  0  0  0  0  0  0  0
  1 22  1  0
  2 27  1  0
  3 12  2  0
  4 16  2  0
  5  9  1  0
  5 10  1  0
  5 11  1  0
  6  7  1  0
  6  8  1  0
  6 12  1  0
  7  9  1  0
  8 10  1  0
 11 13  1  0
 12 15  1  0
 13 14  1  0
 14 16  1  0
 15 17  2  0
 15 18  1  0
 16 19  1  0
 17 20  1  0
 18 21  2  0
 19 23  2  0
 19 24  1  0
 20 22  2  0
 21 22  1  0
 23 25  1  0
 24 26  2  0
 25 27  2  0
 26 27  1  0
M  END
>  <PUBCHEM_COMPOUND_CID>  (1) 
32593

>  <PUBCHEM_CONFORMER_RMSD>  (1) 
1

>  <PUBCHEM_CONFORMER_DIVERSEORDER>  (1) 
1
401
367
324
57
175
163
410
79
342
165
5
452
181
24
459
109
83
136
58
317
137
176
345
298
197
332
194
282
437
238
416
129
59
464
306
138
429
397
419
319
430
128
126
365
202
182
364
183
155
219
390
45
174
188
424
108
425
308
2
140
156
377
461
78
340
123
251
84
467
391
33
421
428
20
454
115
116
177
362
93
381
379
31
291
226
315
158
94
360
278
376
9
442
444
393
293
234
449
265
320
166
336
111
329
204
118
354
388
436
40
44
357
272
412
112
473
4
42
147
146
408
373
446
117
36
120
102
389
296
180
63
468
127
232
460
423
173
279
17
205
51
469
242
186
338
356
69
400
61
363
64
370
277
237
198
160
457
441
236
131
339
270
3
210
75
371
309
124
169
67
384
255
76
162
343
179
114
225
406
46
43
164
190
290
462
98
330
47
193
37
159
223
450
80
207
348
350
144
97
269
402
246
34
266
471
292
212
466
62
39
259
244
52
374
260
16
440
74
184
267
133
458
249
283
77
6
15
208
222
53
209
328
443
321
318
167
378
95
433
399
65
141
448
229
107
185
30
326
418
101
60
349
250
273
431
191
142
254
281
337
403
302
355
264
213
451
398
472
132
105
385
199
200
214
256
395
49
252
358
311
262
287
335
86
54
299
307
352
334
261
275
366
100
447
217
258
224
22
453
432
413
172
221
470
239
220
206
434
333
203
263
13
189
369
422
344
426
113
11
303
18
143
23
228
7
392
88
230
92
145
297
48
427
286
119
353
12
382
361
280
323
347
195
284
301
215
231
411
435
314
310
90
151
240
70
135
56
276
313
409
85
253
96
417
19
268
380
14
304
106
216
227
149
294
81
300
25
68
28
201
26
341
383
192
404
394
125
257
439
245
247
122
110
274
327
368
438
463
372
29
235
325
87
305
346
154
465
21
445
248
82
351
35
285
148
387
32
72
150
171
218
178
8
168
170
289
414
241
89
456
322
134
455
27
405
152
288
10
386
50
38
187
316
121
331
103
71
407
99
359
243
420
73
157
196
130
161
415
312
139
41
233
375
91
153
66
396
295
104
211
271
55

>  <PUBCHEM_MMFF94_PARTIAL_CHARGES>  (1) 
32
1 -0.19
10 0.27
11 0.27
12 0.42
14 0.06
15 0.09
16 0.42
17 -0.15
18 -0.15
19 0.09
2 -0.19
20 -0.15
21 -0.15
22 0.19
23 -0.15
24 -0.15
25 -0.15
26 -0.15
27 0.19
3 -0.57
4 -0.57
43 0.15
44 0.15
45 0.15
46 0.15
47 0.15
48 0.15
49 0.15
5 -0.81
50 0.15
6 0.06
9 0.27

>  <PUBCHEM_EFFECTIVE_ROTOR_COUNT>  (1) 
8.2

>  <PUBCHEM_PHARMACOPHORE_FEATURES>  (1) 
6
1 3 acceptor
1 4 acceptor
1 5 cation
6 15 17 18 20 21 22 rings
6 19 23 24 25 26 27 rings
6 5 6 7 8 9 10 rings

>  <PUBCHEM_HEAVY_ATOM_COUNT>  (1) 
27

>  <PUBCHEM_ATOM_DEF_STEREO_COUNT>  (1) 
0

>  <PUBCHEM_ATOM_UDEF_STEREO_COUNT>  (1) 
0

>  <PUBCHEM_BOND_DEF_STEREO_COUNT>  (1) 
0

>  <PUBCHEM_BOND_UDEF_STEREO_COUNT>  (1) 
0

>  <PUBCHEM_ISOTOPIC_ATOM_COUNT>  (1) 
0

>  <PUBCHEM_COMPONENT_COUNT>  (1) 
1

>  <PUBCHEM_CACTVS_TAUTO_COUNT>  (1) 
4

>  <PUBCHEM_CONFORMER_ID>  (1) 
00007F5100000001

>  <PUBCHEM_MMFF94_ENERGY>  (1) 
60.3971

>  <PUBCHEM_FEATURE_SELFOVERLAP>  (1) 
30.447

>  <PUBCHEM_SHAPE_FINGERPRINT>  (1) 
11135926 11 18196355139071511076
11200772 71 11458714953845116769
11273773 46 18264765467875853759
11456790 92 17917164879330599795
117089 54 17983302526287002102
11991303 11 17389372719781533085
12107183 9 18131073770659721865
12166972 35 18040157292904828438
12422481 6 17203611471186583341
12592606 108 18343017818331772831
12633257 1 15410599424674358520
13533116 47 18411699932625246216
1361 4 18336265764026707843
13782708 43 18187076287186866543
13785724 45 18342183254177177556
13911987 19 12757147970571139745
13955234 65 18127122211632503368
14216079 64 18411136931205654527
14251764 30 18335419066942500230
14347424 109 17917990607113388704
14400156 162 18334303059395140267
14420673 8 18410012135401091871
14556957 393 12829748731748263943
14739800 52 13398366633092247367
14767858 380 12324235088202351213
15352257 5 18113900485280902195
15467298 65 17911227648472506751
15721738 202 18060421305305841906
15728490 83 18122621652910361410
15927050 60 17838333343755164004
16120349 189 9583219666298015954
16120349 21 18200319810017160961
16728300 4 18272086055064148197
17134984 74 17603304852258959890
1979834 28 17131838655471759292
19841028 212 18335420145575689954
20554085 129 15195575602326015831
208703 8 18265892467827587034
21130935 74 18269557316271166651
21344244 181 18040437702318576818
21585482 57 9439111023525355523
21641784 216 14635135812006582109
21682296 61 18408604777734071243
22223350 30 17487604463012028723
2748736 6 9079111146614708850
2838139 119 9943541707956675881
328310 630 10881669184225380031
345986 75 17846780719677170192
3472631 163 7853571323041680992
34797466 226 16588024662254819300
3680242 22 18343306993361723983
3886686 26 17338171701448158028
4072396 5 17060066990313369525
4073 2 18048315840454396065
4107672 100 17531804633101356853
439807 62 18333732382146842614
4435113 14 17968670439364236331
4461854 278 17847056680554553334
44880168 125 16988560165975386350
46194498 28 17458902751535599916
465052 167 18343303678079800044
474113 269 18201145673048381407
5104073 3 17917428705496069152
513202 73 18334579014875300729
5372103 7 15142107533373439004
54039377 194 18340770343787745966
56633871 153 18130498669800942974
57634706 306 10952051126526398729
6201460 15 17395001055786057322
6327066 14 8934702410867723514
6697151 62 18128230385934904501
7970288 3 18267299842684636586
9831232 110 18040994050806581855

>  <PUBCHEM_SHAPE_MULTIPOLES>  (1) 
524.38
21.41
3.59
1.15
9.4
0.18
-0.15
17.98
3.17
-5.45
0.58
0.14
0.09
-0.01

>  <PUBCHEM_SHAPE_SELFOVERLAP>  (1) 
1118.665

>  <PUBCHEM_SHAPE_VOLUME>  (1) 
291.4

>  <PUBCHEM_COORDINATE_TYPE>  (1) 
2
5
10

$$$$
