32608
     RDKit          3D

 18 18  0  0  0  0  0  0  0  0999 V2000
   -1.6812    0.5287   -0.7990 O   0  0  0  0  0  0  0  0  0  0  0  0
    3.6656   -0.3107    0.2569 O   0  0  0  0  0  0  0  0  0  0  0  0
    2.6666    2.2678    0.0962 O   0  0  0  0  0  0  0  0  0  0  0  0
    1.9652   -2.4654   -0.1152 O   0  0  0  0  0  0  0  0  0  0  0  0
   -4.1578    1.3543   -0.2017 O   0  0  0  0  0  0  0  0  0  0  0  0
   -4.9374   -0.7124    0.3825 N   0  0  0  0  0  0  0  0  0  0  0  0
   -6.2110   -0.2742    0.6837 N   0  0  0  0  0  0  0  0  0  0  0  0
    2.3435   -0.1031   -0.0043 C   0  0  0  0  0  0  0  0  0  0  0  0
   -0.3614    0.3216   -0.5384 C   0  0  0  0  0  0  0  0  0  0  0  0
    1.8442    1.1968   -0.0846 C   0  0  0  0  0  0  0  0  0  0  0  0
    1.4904   -1.1907   -0.1911 C   0  0  0  0  0  0  0  0  0  0  0  0
    0.4916    1.4092   -0.3516 C   0  0  0  0  0  0  0  0  0  0  0  0
    0.1379   -0.9784   -0.4582 C   0  0  0  0  0  0  0  0  0  0  0  0
   -2.5963   -0.4691   -0.3490 C   0  0  0  0  0  0  0  0  0  0  0  0
   -3.9524    0.1481   -0.0558 C   0  0  0  0  0  0  0  0  0  0  0  0
    4.5420   -0.3904   -0.8648 C   0  0  0  0  0  0  0  0  0  0  0  0
    2.8085    2.7583    1.4278 C   0  0  0  0  0  0  0  0  0  0  0  0
    1.9421   -3.0903    1.1665 C   0  0  0  0  0  0  0  0  0  0  0  0
  1  9  1  0
  1 14  1  0
  2  8  1  0
  2 16  1  0
  3 10  1  0
  3 17  1  0
  4 11  1  0
  4 18  1  0
  5 15  2  0
  6  7  1  0
  6 15  1  0
  8 10  2  0
  8 11  1  0
  9 12  2  0
  9 13  1  0
 10 12  1  0
 11 13  2  0
 14 15  1  0
M  END
>  <PUBCHEM_COMPOUND_CID>  (1) 
32608

>  <PUBCHEM_CONFORMER_RMSD>  (1) 
0.8

>  <PUBCHEM_CONFORMER_DIVERSEORDER>  (1) 
1
31
4
8
27
33
36
7
26
9
28
25
24
21
30
15
11
10
5
32
14
38
18
19
37
12
29
39
23
34
40
3
35
22
6
13
17
2
20
16

>  <PUBCHEM_MMFF94_PARTIAL_CHARGES>  (1) 
23
1 -0.36
10 0.08
11 0.08
12 -0.15
13 -0.15
14 0.34
15 0.57
16 0.28
17 0.28
18 0.28
19 0.15
2 -0.36
20 0.15
3 -0.36
32 0.37
33 0.36
34 0.36
4 -0.36
5 -0.57
6 -0.42
7 -0.73
8 0.08
9 0.08

>  <PUBCHEM_EFFECTIVE_ROTOR_COUNT>  (1) 
7

>  <PUBCHEM_PHARMACOPHORE_FEATURES>  (1) 
8
1 1 acceptor
1 2 acceptor
1 3 acceptor
1 4 acceptor
1 5 acceptor
1 6 donor
1 7 donor
6 8 9 10 11 12 13 rings

>  <PUBCHEM_HEAVY_ATOM_COUNT>  (1) 
18

>  <PUBCHEM_ATOM_DEF_STEREO_COUNT>  (1) 
0

>  <PUBCHEM_ATOM_UDEF_STEREO_COUNT>  (1) 
0

>  <PUBCHEM_BOND_DEF_STEREO_COUNT>  (1) 
0

>  <PUBCHEM_BOND_UDEF_STEREO_COUNT>  (1) 
0

>  <PUBCHEM_ISOTOPIC_ATOM_COUNT>  (1) 
0

>  <PUBCHEM_COMPONENT_COUNT>  (1) 
1

>  <PUBCHEM_CACTVS_TAUTO_COUNT>  (1) 
2

>  <PUBCHEM_CONFORMER_ID>  (1) 
00007F6000000001

>  <PUBCHEM_MMFF94_ENERGY>  (1) 
82.0311

>  <PUBCHEM_FEATURE_SELFOVERLAP>  (1) 
42.126

>  <PUBCHEM_SHAPE_FINGERPRINT>  (1) 
10366900 7 18259994768458603977
11471102 20 18411976957936320828
12107183 9 17763186835213524249
12251169 10 18413389834973712615
12596602 18 17845666970717922691
13140716 1 18266447884064992674
13533116 47 18335139757505299179
14178342 30 18118958328962906803
14252887 29 18040438793719816753
15375462 189 18338508660183342847
16945 1 18267282310363838254
18186145 218 18339915008685640236
20645477 70 18343018887266757943
21065199 12 18335422361973863033
21267235 1 18340497707193931575
2334 1 18049712216496033142
23557571 272 17095518466554905653
23558518 356 17906442578637483294
23559900 14 18187367653504901733
2748010 2 18192144022263041166
31174 14 18337384955078349255
33824 294 18334575745814039507
5104073 3 18341613784705896995
58807428 26 18194094517272979240
633830 44 18199746006533443084
7364860 26 18342735204734833582
9999458 23 18335985350149252892

>  <PUBCHEM_SHAPE_MULTIPOLES>  (1) 
331.12
9.62
2.66
0.95
16.08
0.45
0.21
-0.26
1.29
-3.3
1.22
-0.48
-0.05
0.54

>  <PUBCHEM_SHAPE_SELFOVERLAP>  (1) 
675.907

>  <PUBCHEM_SHAPE_VOLUME>  (1) 
192.5

>  <PUBCHEM_COORDINATE_TYPE>  (1) 
2
5
10

$$$$
