32606
     RDKit          3D

 11 10  0  0  1  0  0  0  0  0999 V2000
    2.9395    1.8950   -0.7748 Cl  0  0  0  0  0  0  0  0  0  0  0  0
    1.6517   -2.7967    0.2107 Cl  0  0  0  0  0  0  0  0  0  0  0  0
    0.9491    0.0058    0.1337 P   0  0  0  0  0  0  0  0  0  0  0  0
   -0.6074   -0.3549   -0.0971 O   0  0  0  0  0  0  0  0  0  0  0  0
    1.2905    0.1435    1.5913 O   0  0  0  0  0  0  0  0  0  0  0  0
   -1.6480    0.5372    0.2920 C   0  0  0  0  0  0  0  0  0  0  0  0
   -2.9988   -0.0701   -0.0927 C   0  0  0  0  0  0  0  0  0  0  0  0
   -1.5574    0.7736    1.7936 C   0  0  0  0  0  0  0  0  0  0  0  0
    1.2134    1.5027   -0.7913 C   0  0  0  0  0  0  0  0  0  0  0  0
    1.8673   -1.2829   -0.6795 C   0  0  0  0  0  0  0  0  0  0  0  0
   -3.0998   -0.3532   -1.5858 C   0  0  0  0  0  0  0  0  0  0  0  0
  1  9  1  0
  2 10  1  0
  3  4  1  0
  3  5  2  0
  3  9  1  0
  3 10  1  0
  4  6  1  0
  6  7  1  0
  6  8  1  0
  7 11  1  0
M  END
>  <PUBCHEM_COMPOUND_CID>  (1) 
32606

>  <PUBCHEM_CONFORMER_RMSD>  (1) 
0.6

>  <PUBCHEM_CONFORMER_DIVERSEORDER>  (1) 
1
33
6
68
48
63
55
34
18
54
29
23
30
50
8
31
57
41
65
62
35
47
42
14
7
69
39
36
59
25
12
49
3
40
9
16
21
27
60
58
61
77
72
15
10
4
74
67
56
20
44
75
5
66
45
51
37
19
46
38
28
53
43
52
26
73
22
70
64
24
17
13
2
32
71
76
11

>  <PUBCHEM_MMFF94_PARTIAL_CHARGES>  (1) 
8
1 -0.29
10 0.29
2 -0.29
3 0.97
4 -0.55
5 -0.7
6 0.28
9 0.29

>  <PUBCHEM_EFFECTIVE_ROTOR_COUNT>  (1) 
5

>  <PUBCHEM_PHARMACOPHORE_FEATURES>  (1) 
1
1 11 hydrophobe

>  <PUBCHEM_HEAVY_ATOM_COUNT>  (1) 
11

>  <PUBCHEM_ATOM_DEF_STEREO_COUNT>  (1) 
0

>  <PUBCHEM_ATOM_UDEF_STEREO_COUNT>  (1) 
1

>  <PUBCHEM_BOND_DEF_STEREO_COUNT>  (1) 
0

>  <PUBCHEM_BOND_UDEF_STEREO_COUNT>  (1) 
0

>  <PUBCHEM_ISOTOPIC_ATOM_COUNT>  (1) 
0

>  <PUBCHEM_COMPONENT_COUNT>  (1) 
1

>  <PUBCHEM_CACTVS_TAUTO_COUNT>  (1) 
1

>  <PUBCHEM_CONFORMER_ID>  (1) 
00007F5E00000001

>  <PUBCHEM_MMFF94_ENERGY>  (1) 
9.7366

>  <PUBCHEM_FEATURE_SELFOVERLAP>  (1) 
5.074

>  <PUBCHEM_SHAPE_FINGERPRINT>  (1) 
10857977 72 15123493831690142935
12326174 3 17967809440444562360
12932741 1 17313116236769959353
12932764 1 17561082518861767441
14128692 85 17987806189625770046
14817 1 9964592317747980010
20645464 45 16805324430981188385
20653085 51 18115585925322261405
20653091 64 18201159845411413130
20711985 327 18266743468109711654
20711985 344 17105649147301903890
21499 59 18264491865500467092
21524375 3 17535193563829138204
21947302 44 17385710409699352989
228727 97 17845948436355501369
23211744 25 17774172343021825184
23211744 41 17241904278721881392
232386 152 17203039682227227271
23419403 2 14422576008090371602
23552423 10 18341896255787855039
23598291 2 17985011222319844685
23598294 1 16916523483843032459
3248919 1 18408875244493162057
5084963 1 18271525295364718875
8030462 33 17988925582788917445
81228 2 17107344585794727226
88987 49 16558194778701796617

>  <PUBCHEM_SHAPE_MULTIPOLES>  (1) 
222.23
4.66
2.23
1.49
2.3
1.32
0.36
-0.71
-1.61
-2.76
-0.24
0.8
-0.25
-0.76

>  <PUBCHEM_SHAPE_SELFOVERLAP>  (1) 
375.779

>  <PUBCHEM_SHAPE_VOLUME>  (1) 
152.5

>  <PUBCHEM_COORDINATE_TYPE>  (1) 
2
5
10

$$$$
