32611
     RDKit          3D

 13 12  0  0  1  0  0  0  0  0999 V2000
    1.1038   -0.1990   -0.0193 O   0  0  0  0  0  0  0  0  0  0  0  0
   -1.6800   -0.0710   -0.2395 O   0  0  0  0  0  0  0  0  0  0  0  0
    3.2674    0.7664    1.4644 O   0  0  0  0  0  0  0  0  0  0  0  0
   -3.7674    1.3695   -1.4204 O   0  0  0  0  0  0  0  0  0  0  0  0
    0.3629   -1.2666   -0.6084 C   0  0  0  0  0  0  0  0  0  0  0  0
   -1.0197   -1.2980    0.0303 C   0  0  0  0  0  0  0  0  0  0  0  0
   -2.9769   -0.0381    0.3543 C   0  0  0  0  0  0  0  0  0  0  0  0
    2.3979   -0.0913   -0.5919 C   0  0  0  0  0  0  0  0  0  0  0  0
    1.1119   -2.5706   -0.3791 C   0  0  0  0  0  0  0  0  0  0  0  0
    3.1391    1.0609    0.0742 C   0  0  0  0  0  0  0  0  0  0  0  0
   -3.6334    1.2886   -0.0053 C   0  0  0  0  0  0  0  0  0  0  0  0
   -2.8329   -0.1979    1.8603 C   0  0  0  0  0  0  0  0  0  0  0  0
    4.5273    1.2472   -0.5196 C   0  0  0  0  0  0  0  0  0  0  0  0
  1  5  1  0
  1  8  1  0
  2  6  1  0
  2  7  1  0
  3 10  1  0
  4 11  1  0
  5  6  1  0
  5  9  1  0
  7 11  1  0
  7 12  1  0
  8 10  1  0
 10 13  1  0
M  END
>  <PUBCHEM_COMPOUND_CID>  (1) 
32611

>  <PUBCHEM_CONFORMER_RMSD>  (1) 
0.8

>  <PUBCHEM_CONFORMER_DIVERSEORDER>  (1) 
38
203
33
168
149
95
30
65
138
195
6
75
26
120
204
122
191
129
35
108
177
41
183
106
206
176
31
112
130
182
64
55
202
89
190
29
157
158
170
73
121
196
180
18
194
82
201
81
178
19
197
72
50
1
198
52
174
133
152
127
48
126
40
136
79
117
93
110
9
13
109
205
160
76
185
78
186
132
161
91
193
7
62
162
87
156
148
68
172
59
36
71
199
104
184
43
105
116
167
207
70
34
44
137
145
159
27
139
15
10
113
155
151
92
111
143
45
74
208
134
80
66
83
39
164
179
124
163
77
135
150
14
97
22
60
192
165
102
37
100
86
153
147
131
154
94
46
103
200
166
128
28
175
56
4
84
11
142
85
187
67
57
181
69
58
173
23
49
16
96
32
21
3
140
107
114
47
115
188
12
2
90
54
118
63
17
53
51
146
20
42
24
119
141
123
88
8
189
61
99
25
101
169
125
98
144
5
171

>  <PUBCHEM_MMFF94_PARTIAL_CHARGES>  (1) 
12
1 -0.56
10 0.28
11 0.28
2 -0.56
3 -0.68
32 0.4
33 0.4
4 -0.68
5 0.28
6 0.28
7 0.28
8 0.28

>  <PUBCHEM_EFFECTIVE_ROTOR_COUNT>  (1) 
7

>  <PUBCHEM_PHARMACOPHORE_FEATURES>  (1) 
6
1 1 acceptor
1 2 acceptor
1 3 acceptor
1 3 donor
1 4 acceptor
1 4 donor

>  <PUBCHEM_HEAVY_ATOM_COUNT>  (1) 
13

>  <PUBCHEM_ATOM_DEF_STEREO_COUNT>  (1) 
0

>  <PUBCHEM_ATOM_UDEF_STEREO_COUNT>  (1) 
3

>  <PUBCHEM_BOND_DEF_STEREO_COUNT>  (1) 
0

>  <PUBCHEM_BOND_UDEF_STEREO_COUNT>  (1) 
0

>  <PUBCHEM_ISOTOPIC_ATOM_COUNT>  (1) 
0

>  <PUBCHEM_COMPONENT_COUNT>  (1) 
1

>  <PUBCHEM_CACTVS_TAUTO_COUNT>  (1) 
1

>  <PUBCHEM_CONFORMER_ID>  (1) 
00007F6300000026

>  <PUBCHEM_MMFF94_ENERGY>  (1) 
29.8107

>  <PUBCHEM_FEATURE_SELFOVERLAP>  (1) 
30.46

>  <PUBCHEM_SHAPE_FINGERPRINT>  (1) 
11127187 94 11455896836654259721
11543360 7 14476957917376943648
12500047 106 18200593739263515326
13705890 14 12247679370514723738
14123255 352 18334856138638404780
14123255 52 18411135874675374228
14251710 61 10231746808257791661
14252887 29 12324236166292078388
14897335 6 18343295963917668191
15279308 16 18186806846634601109
17834072 32 18337392737628259004
18186145 218 17988936582184312318
18219364 16 18341339980176818769
19782 4 18337659858855551045
20281475 54 9799691514841325007
20361792 2 10665224869224565666
20645477 56 18055923336290957632
20715346 28 18115324275745725351
20767249 462 18408882940637012036
20871998 22 11602810286107301178
21499 59 18272650147183685423
21524375 3 18272936071873400982
21713013 43 12679460889356308665
22096605 113 18270392798599229751
22926399 37 18060702767339868377
231179 274 18410014329859991108
23382010 3 14908172092766407238
23402539 116 16200163079634684528
23403322 49 10231766564812070988
25 1 17845949484543714930
27216 239 18187087299367209113
305870 269 18409448081256090042
328317 168 18409719665218212229
449060 23 12035717730693636472
6430166 295 18411699911513925796
7615 1 17273413864218577467
81228 2 17622721338057149330
81539 233 18408323259433342718

>  <PUBCHEM_SHAPE_MULTIPOLES>  (1) 
244.06
8.12
1.94
1.23
1.74
1.08
-0.4
-5.77
0.04
0.5
0.41
-0.77
-0.28
0.81

>  <PUBCHEM_SHAPE_SELFOVERLAP>  (1) 
449.733

>  <PUBCHEM_SHAPE_VOLUME>  (1) 
155.9

>  <PUBCHEM_COORDINATE_TYPE>  (1) 
2
5
10

$$$$
