32612
     RDKit          3D

 19 19  0  0  0  0  0  0  0  0999 V2000
    3.8115    1.7336   -1.4332 Cl  0  0  0  0  0  0  0  0  0  0  0  0
    2.2582    3.6900    0.0045 Cl  0  0  0  0  0  0  0  0  0  0  0  0
    3.7666    1.7314    1.4931 Cl  0  0  0  0  0  0  0  0  0  0  0  0
    2.1368   -3.0840    1.4893 Cl  0  0  0  0  0  0  0  0  0  0  0  0
   -0.2382   -3.7164   -0.0160 Cl  0  0  0  0  0  0  0  0  0  0  0  0
    2.1931   -3.0864   -1.4369 Cl  0  0  0  0  0  0  0  0  0  0  0  0
   -1.9104    0.9713   -0.0561 N   0  0  0  0  0  0  0  0  0  0  0  0
   -0.3849   -0.8091   -0.0255 N   0  0  0  0  0  0  0  0  0  0  0  0
    0.3816    1.4647   -0.0218 N   0  0  0  0  0  0  0  0  0  0  0  0
    1.9673   -0.3360    0.0103 N   0  0  0  0  0  0  0  0  0  0  0  0
   -4.3532    0.8889   -0.0310 C   0  0  0  0  0  0  0  0  0  0  0  0
   -3.0531    0.0902   -0.0709 C   0  0  0  0  0  0  0  0  0  0  0  0
   -5.5948   -0.0059    0.0021 C   0  0  0  0  0  0  0  0  0  0  0  0
   -6.8695    0.8168    0.1079 C   0  0  0  0  0  0  0  0  0  0  0  0
   -0.5971    0.5285   -0.0338 C   0  0  0  0  0  0  0  0  0  0  0  0
    0.9100   -1.1637   -0.0034 C   0  0  0  0  0  0  0  0  0  0  0  0
    1.6269    0.9630    0.0001 C   0  0  0  0  0  0  0  0  0  0  0  0
    2.7454    1.9482    0.0146 C   0  0  0  0  0  0  0  0  0  0  0  0
    1.2038   -2.6251    0.0069 C   0  0  0  0  0  0  0  0  0  0  0  0
  1 18  1  0
  2 18  1  0
  3 18  1  0
  4 19  1  0
  5 19  1  0
  6 19  1  0
  7 12  1  0
  7 15  1  0
  8 15  2  0
  8 16  1  0
  9 15  1  0
  9 17  2  0
 10 16  2  0
 10 17  1  0
 11 12  1  0
 11 13  1  0
 13 14  1  0
 16 19  1  0
 17 18  1  0
M  END
>  <PUBCHEM_COMPOUND_CID>  (1) 
32612

>  <PUBCHEM_CONFORMER_RMSD>  (1) 
0.8

>  <PUBCHEM_CONFORMER_DIVERSEORDER>  (1) 
1
10
15
11
13
2
3
7
12
9
16
6
14
4
8
5

>  <PUBCHEM_MMFF94_PARTIAL_CHARGES>  (1) 
17
1 -0.29
10 -0.62
12 0.37
15 0.72
16 0.48
17 0.48
18 1.01
19 1.01
2 -0.29
26 0.4
3 -0.29
4 -0.29
5 -0.29
6 -0.29
7 -0.87
8 -0.62
9 -0.62

>  <PUBCHEM_EFFECTIVE_ROTOR_COUNT>  (1) 
6

>  <PUBCHEM_PHARMACOPHORE_FEATURES>  (1) 
4
1 14 hydrophobe
1 7 donor
4 7 8 9 15 cation
6 8 9 10 15 16 17 rings

>  <PUBCHEM_HEAVY_ATOM_COUNT>  (1) 
19

>  <PUBCHEM_ATOM_DEF_STEREO_COUNT>  (1) 
0

>  <PUBCHEM_ATOM_UDEF_STEREO_COUNT>  (1) 
0

>  <PUBCHEM_BOND_DEF_STEREO_COUNT>  (1) 
0

>  <PUBCHEM_BOND_UDEF_STEREO_COUNT>  (1) 
0

>  <PUBCHEM_ISOTOPIC_ATOM_COUNT>  (1) 
0

>  <PUBCHEM_COMPONENT_COUNT>  (1) 
1

>  <PUBCHEM_CACTVS_TAUTO_COUNT>  (1) 
3

>  <PUBCHEM_CONFORMER_ID>  (1) 
00007F6400000001

>  <PUBCHEM_MMFF94_ENERGY>  (1) 
30.493

>  <PUBCHEM_FEATURE_SELFOVERLAP>  (1) 
20.297

>  <PUBCHEM_SHAPE_FINGERPRINT>  (1) 
10090160 65 18338789113538085613
10411042 1 17906453229602885407
10693767 8 18059583433968718678
1100329 8 18409162221423861978
12532896 13 18122624113751886060
12553582 1 17762065337142075547
12730499 353 18335713758140235873
13140716 1 18264762349698091176
13533116 47 18342741772409774721
13836976 161 18408044026202584036
13955234 65 18410012113720170355
14790565 3 18048884292825451789
16752209 62 17977946018814745490
19427546 62 18337391660176477745
20369508 70 18190177889187949443
20645477 70 18337673019125748495
21054139 6 18127956715282211199
21197605 99 18193000542101524139
21524375 3 18335982077326254508
2255824 54 18338801100448956383
23419403 2 17177776221352898458
23557571 272 16733261253854898573
23558518 356 17614838943576629236
23559900 14 18266452110523724017
23598291 2 17842856438017752705
239999 70 18342462491650175655
2748010 2 18195542595440380846
3060560 45 18409736196341957052
3071541 37 18335424564474369444
312423 11 18057333799308945729
33824 294 18409448077119021139
3421961 26 18265330608447257619
352729 6 18195249051267919208
42630746 31 18413105044007812615
4340502 62 18341891926687505243
474 4 18411420652440153393
5104073 3 18337957771563647801
58807428 26 18265310959035033040
59755656 215 18335139769440622189
6025842 7 18411418393656107703
621550 34 18187358835990265301
633830 44 18199747118988391285
7364860 26 18342456993801450950
81228 2 17399796489533373576
81539 233 18334012808782079623
8272917 22 18412547591881607717
9841814 1 18191024495724110835
9999458 23 18408042935449786980

>  <PUBCHEM_SHAPE_MULTIPOLES>  (1) 
382.31
9.9
4.64
1.12
24.63
3.19
0.04
-6.83
0.21
-5.59
0.03
-1.48
0.35
-0.01

>  <PUBCHEM_SHAPE_SELFOVERLAP>  (1) 
710.054

>  <PUBCHEM_SHAPE_VOLUME>  (1) 
235.5

>  <PUBCHEM_COORDINATE_TYPE>  (1) 
2
5
10

$$$$
