32616
     RDKit          3D

 20 20  0  0  0  0  0  0  0  0999 V2000
    4.1726    1.7374   -1.5017 Cl  0  0  0  0  0  0  0  0  0  0  0  0
    2.6723    3.6865    0.0005 Cl  0  0  0  0  0  0  0  0  0  0  0  0
    4.2249    1.7144    1.4243 Cl  0  0  0  0  0  0  0  0  0  0  0  0
    2.5852   -3.0976    1.4408 Cl  0  0  0  0  0  0  0  0  0  0  0  0
    0.1601   -3.7146    0.0107 Cl  0  0  0  0  0  0  0  0  0  0  0  0
    2.5443   -3.0793   -1.4856 Cl  0  0  0  0  0  0  0  0  0  0  0  0
   -1.5021    0.9767    0.0593 N   0  0  0  0  0  0  0  0  0  0  0  0
    0.0196   -0.8070    0.0267 N   0  0  0  0  0  0  0  0  0  0  0  0
    0.7908    1.4652    0.0208 N   0  0  0  0  0  0  0  0  0  0  0  0
    2.3727   -0.3388   -0.0124 N   0  0  0  0  0  0  0  0  0  0  0  0
   -3.9450    0.8996    0.0374 C   0  0  0  0  0  0  0  0  0  0  0  0
   -5.1898    0.0073    0.0059 C   0  0  0  0  0  0  0  0  0  0  0  0
   -2.6466    0.0979    0.0762 C   0  0  0  0  0  0  0  0  0  0  0  0
   -6.4698    0.8432   -0.0211 C   0  0  0  0  0  0  0  0  0  0  0  0
   -7.7081   -0.0360   -0.0933 C   0  0  0  0  0  0  0  0  0  0  0  0
   -0.1898    0.5311    0.0348 C   0  0  0  0  0  0  0  0  0  0  0  0
    1.3138   -1.1643    0.0032 C   0  0  0  0  0  0  0  0  0  0  0  0
    2.0350    0.9609   -0.0021 C   0  0  0  0  0  0  0  0  0  0  0  0
    3.1556    1.9437   -0.0178 C   0  0  0  0  0  0  0  0  0  0  0  0
    1.6046   -2.6263   -0.0066 C   0  0  0  0  0  0  0  0  0  0  0  0
  1 19  1  0
  2 19  1  0
  3 19  1  0
  4 20  1  0
  5 20  1  0
  6 20  1  0
  7 13  1  0
  7 16  1  0
  8 16  2  0
  8 17  1  0
  9 16  1  0
  9 18  2  0
 10 17  2  0
 10 18  1  0
 11 12  1  0
 11 13  1  0
 12 14  1  0
 14 15  1  0
 17 20  1  0
 18 19  1  0
M  END
>  <PUBCHEM_COMPOUND_CID>  (1) 
32616

>  <PUBCHEM_CONFORMER_RMSD>  (1) 
0.8

>  <PUBCHEM_CONFORMER_DIVERSEORDER>  (1) 
1
9
16
12
15
19
27
21
32
34
38
24
3
37
29
25
22
33
28
10
11
6
13
35
17
31
14
20
2
26
36
30
7
8
18
5
23
4

>  <PUBCHEM_MMFF94_PARTIAL_CHARGES>  (1) 
17
1 -0.29
10 -0.62
13 0.37
16 0.72
17 0.48
18 0.48
19 1.01
2 -0.29
20 1.01
29 0.4
3 -0.29
4 -0.29
5 -0.29
6 -0.29
7 -0.87
8 -0.62
9 -0.62

>  <PUBCHEM_EFFECTIVE_ROTOR_COUNT>  (1) 
7

>  <PUBCHEM_PHARMACOPHORE_FEATURES>  (1) 
4
1 15 hydrophobe
1 7 donor
4 7 8 9 16 cation
6 8 9 10 16 17 18 rings

>  <PUBCHEM_HEAVY_ATOM_COUNT>  (1) 
20

>  <PUBCHEM_ATOM_DEF_STEREO_COUNT>  (1) 
0

>  <PUBCHEM_ATOM_UDEF_STEREO_COUNT>  (1) 
0

>  <PUBCHEM_BOND_DEF_STEREO_COUNT>  (1) 
0

>  <PUBCHEM_BOND_UDEF_STEREO_COUNT>  (1) 
0

>  <PUBCHEM_ISOTOPIC_ATOM_COUNT>  (1) 
0

>  <PUBCHEM_COMPONENT_COUNT>  (1) 
1

>  <PUBCHEM_CACTVS_TAUTO_COUNT>  (1) 
3

>  <PUBCHEM_CONFORMER_ID>  (1) 
00007F6800000001

>  <PUBCHEM_MMFF94_ENERGY>  (1) 
30.2686

>  <PUBCHEM_FEATURE_SELFOVERLAP>  (1) 
20.297

>  <PUBCHEM_SHAPE_FINGERPRINT>  (1) 
10411042 1 17978228262406602938
10693767 8 18059585628897460470
10835480 77 18335693924530428333
10912923 1 17988646268966792577
12553582 1 17762067535885769290
12730499 353 18335711563301171305
12788726 201 17274550841431541937
13073987 5 18412266109016829441
13140716 1 18193267714393520664
13533116 47 18271808991556881561
13692114 37 18200021975320531446
13836976 161 18408045125840825332
13955234 65 18409728448167661979
14461889 52 18262237837326684395
14790565 3 17977107082710471117
16728300 4 17462532097953629528
17844677 252 18338521812396569885
19427546 62 18337391668565971769
20157964 124 18410008828592525253
20369508 70 18190177893308862955
20554085 129 18059847420418731472
20645477 70 18337391544069942487
21049683 118 17981580961111582200
21054139 6 18127958909878643607
21197605 99 18265338502930191275
21344244 78 18057588902885668905
22224240 67 18341039830434586601
2255824 54 18338801100264340022
23419403 2 17462819031722937982
23557571 272 16877939396110636229
23558518 356 17614838943787586824
23559900 14 18266453218503863219
239999 70 18342742866978147479
3060560 45 18409737296048737644
3071541 37 18335425664249721796
312423 11 18057614174679076569
33824 294 18409448072702760539
3421961 26 18265329513088217803
4073 2 18187090590013635443
42630746 31 18412824672684742259
4340502 62 18341889718873841995
5104073 3 18338239246455975393
59755656 215 18334017180953571269
6025842 7 18411419501567811423
621550 34 18187639215607897181
633830 44 18199748218336482260
7364860 26 18342739568553507462
81228 2 17400080163744336392
81539 233 18334295383360088790
8272917 22 18412546500796371245
9841814 1 18191025599282799082
9999458 23 18408605889856457116

>  <PUBCHEM_SHAPE_MULTIPOLES>  (1) 
402.89
12.68
4.44
1.09
36.28
2.98
-0.04
-6.48
-0.29
-6.97
-0.02
-1.61
0.33
-0.03

>  <PUBCHEM_SHAPE_SELFOVERLAP>  (1) 
747.908

>  <PUBCHEM_SHAPE_VOLUME>  (1) 
248.2

>  <PUBCHEM_COORDINATE_TYPE>  (1) 
2
5
10

$$$$
