32628
     RDKit          3D

 16 16  0  0  0  0  0  0  0  0999 V2000
    0.3291   -3.4319    1.3803 Cl  0  0  0  0  0  0  0  0  0  0  0  0
   -1.8116   -3.0971   -0.5203 Cl  0  0  0  0  0  0  0  0  0  0  0  0
    0.9155   -3.0638   -1.4633 Cl  0  0  0  0  0  0  0  0  0  0  0  0
   -2.0566    1.8398    0.0627 N   0  0  0  0  0  0  0  0  0  0  0  0
    0.2350    1.5944    0.4947 N   0  0  0  0  0  0  0  0  0  0  0  0
   -1.1278   -0.3115   -0.0230 N   0  0  0  0  0  0  0  0  0  0  0  0
    1.2145   -0.5947    0.4140 N   0  0  0  0  0  0  0  0  0  0  0  0
   -3.3875    1.3467   -0.2690 C   0  0  0  0  0  0  0  0  0  0  0  0
   -0.9551    1.0201    0.1811 C   0  0  0  0  0  0  0  0  0  0  0  0
    1.2624    0.7353    0.5928 C   0  0  0  0  0  0  0  0  0  0  0  0
   -0.0122   -1.0471    0.1085 C   0  0  0  0  0  0  0  0  0  0  0  0
   -4.4015    2.4779   -0.2943 C   0  0  0  0  0  0  0  0  0  0  0  0
    2.5913    1.3174    0.9351 C   0  0  0  0  0  0  0  0  0  0  0  0
   -0.1496   -2.5158   -0.1064 C   0  0  0  0  0  0  0  0  0  0  0  0
    3.3651    1.7076   -0.2583 C   0  0  0  0  0  0  0  0  0  0  0  0
    3.9890    2.0228   -1.2344 C   0  0  0  0  0  0  0  0  0  0  0  0
  1 14  1  0
  2 14  1  0
  3 14  1  0
  4  8  1  0
  4  9  1  0
  5  9  2  0
  5 10  1  0
  6  9  1  0
  6 11  2  0
  7 10  2  0
  7 11  1  0
  8 12  1  0
 10 13  1  0
 11 14  1  0
 13 15  1  0
 15 16  3  0
M  END
>  <PUBCHEM_COMPOUND_CID>  (1) 
32628

>  <PUBCHEM_CONFORMER_RMSD>  (1) 
0.6

>  <PUBCHEM_CONFORMER_DIVERSEORDER>  (1) 
1
32
34
27
29
19
33
26
16
8
28
11
22
10
12
20
17
23
31
14
25
21
7
24
15
4
13
3
2
6
9
5
30
18

>  <PUBCHEM_MMFF94_PARTIAL_CHARGES>  (1) 
17
1 -0.29
10 0.48
11 0.48
13 0.34
14 1.01
15 -0.2
16 -0.18
19 0.4
2 -0.29
25 0.18
3 -0.29
4 -0.87
5 -0.62
6 -0.62
7 -0.62
8 0.37
9 0.72

>  <PUBCHEM_EFFECTIVE_ROTOR_COUNT>  (1) 
4

>  <PUBCHEM_PHARMACOPHORE_FEATURES>  (1) 
4
1 16 hydrophobe
1 4 donor
4 4 5 6 9 cation
6 5 6 7 9 10 11 rings

>  <PUBCHEM_HEAVY_ATOM_COUNT>  (1) 
16

>  <PUBCHEM_ATOM_DEF_STEREO_COUNT>  (1) 
0

>  <PUBCHEM_ATOM_UDEF_STEREO_COUNT>  (1) 
0

>  <PUBCHEM_BOND_DEF_STEREO_COUNT>  (1) 
0

>  <PUBCHEM_BOND_UDEF_STEREO_COUNT>  (1) 
0

>  <PUBCHEM_ISOTOPIC_ATOM_COUNT>  (1) 
0

>  <PUBCHEM_COMPONENT_COUNT>  (1) 
1

>  <PUBCHEM_CACTVS_TAUTO_COUNT>  (1) 
9

>  <PUBCHEM_CONFORMER_ID>  (1) 
00007F7400000001

>  <PUBCHEM_MMFF94_ENERGY>  (1) 
27.237

>  <PUBCHEM_FEATURE_SELFOVERLAP>  (1) 
20.297

>  <PUBCHEM_SHAPE_FINGERPRINT>  (1) 
116883 192 17765994287108631364
12532896 13 18409727395858670776
12788726 201 17975125754008892450
13836976 161 18266730303634003477
14022347 108 17615112721718738346
15906896 17 18192146216532588266
16752209 62 18195796590915579858
16945 1 18048869994530696218
17134986 127 18335986393731827780
17539 30 17910107246201741470
20600515 1 16602340522802564616
20645476 183 18335142041905706548
20645477 70 18123459481028780333
20671657 53 17402041207004074937
20711985 344 17977656838376406298
20871999 31 18196095671095476100
21285901 2 17769955784543526758
21524375 3 18410285896057265936
2255824 54 18051693235706583505
22620623 9 17985277514697895300
23366157 5 17900828149900697697
23419403 2 17543124109076594674
23530152 11 18412820261916814077
23557571 272 17910676789505825880
23558518 356 18335689594369996146
23598291 2 17968926617742481096
2748010 2 18411990160428333787
298252 57 18334856138585787432
3060560 45 18334859359969508340
3071541 37 18338233735242852465
3084891 8 18127414664081165111
352729 6 18412538808188086872
458136 41 18339935800896795497
559249 180 18409730690916056460
57210444 14 18341346543118832236
58779409 8 18339924912853766573
6025842 7 18195799679609404893
68521 5 17977666742307175143
7364860 26 17983288240412384777
81228 2 17906160007863538761
81539 233 18335978654216493477
9841814 1 17759804737177355849

>  <PUBCHEM_SHAPE_MULTIPOLES>  (1) 
314.96
5.66
4.78
1.13
0.59
3.86
0.09
-7.8
1.66
-2.62
0.42
0.64
0.7
-0.16

>  <PUBCHEM_SHAPE_SELFOVERLAP>  (1) 
605.885

>  <PUBCHEM_SHAPE_VOLUME>  (1) 
188.4

>  <PUBCHEM_COORDINATE_TYPE>  (1) 
2
5
10

$$$$
