32625
     RDKit          3D

 17 17  0  0  0  0  0  0  0  0999 V2000
    3.7705   -1.6318   -1.4324 Cl  0  0  0  0  0  0  0  0  0  0  0  0
    2.1827    2.5545   -1.3841 Cl  0  0  0  0  0  0  0  0  0  0  0  0
   -0.3510    3.4494   -0.3422 Cl  0  0  0  0  0  0  0  0  0  0  0  0
    1.8266    2.9734    1.4903 Cl  0  0  0  0  0  0  0  0  0  0  0  0
   -2.2132   -1.1448    0.1023 N   0  0  0  0  0  0  0  0  0  0  0  0
    0.0374   -1.6904    0.4694 N   0  0  0  0  0  0  0  0  0  0  0  0
   -0.6229    0.5774    0.0470 N   0  0  0  0  0  0  0  0  0  0  0  0
    1.6882    0.0504    0.4194 N   0  0  0  0  0  0  0  0  0  0  0  0
   -3.3075   -0.2446   -0.1710 C   0  0  0  0  0  0  0  0  0  0  0  0
   -4.6366   -0.9927   -0.1645 C   0  0  0  0  0  0  0  0  0  0  0  0
   -0.8919   -0.7400    0.2096 C   0  0  0  0  0  0  0  0  0  0  0  0
    2.3597   -2.2280    0.8450 C   0  0  0  0  0  0  0  0  0  0  0  0
    1.2940   -1.2255    0.5598 C   0  0  0  0  0  0  0  0  0  0  0  0
   -5.8300   -0.0781   -0.4038 C   0  0  0  0  0  0  0  0  0  0  0  0
    0.6763    0.8956    0.1648 C   0  0  0  0  0  0  0  0  0  0  0  0
    2.9863   -2.8581   -0.4055 C   0  0  0  0  0  0  0  0  0  0  0  0
    1.0314    2.3334   -0.0042 C   0  0  0  0  0  0  0  0  0  0  0  0
  1 16  1  0
  2 17  1  0
  3 17  1  0
  4 17  1  0
  5  9  1  0
  5 11  1  0
  6 11  2  0
  6 13  1  0
  7 11  1  0
  7 15  2  0
  8 13  2  0
  8 15  1  0
  9 10  1  0
 10 14  1  0
 12 13  1  0
 12 16  1  0
 15 17  1  0
M  END
>  <PUBCHEM_COMPOUND_CID>  (1) 
32625

>  <PUBCHEM_CONFORMER_RMSD>  (1) 
0.8

>  <PUBCHEM_CONFORMER_DIVERSEORDER>  (1) 
1
57
55
18
56
5
52
37
41
30
36
34
49
32
29
54
53
21
35
25
50
2
44
22
19
46
33
14
17
12
6
45
11
47
27
42
43
24
15
26
39
40
38
48
8
28
16
13
10
20
3
51
9
31
7
23
4

>  <PUBCHEM_MMFF94_PARTIAL_CHARGES>  (1) 
16
1 -0.29
11 0.72
12 0.14
13 0.48
15 0.48
16 0.29
17 1.01
2 -0.29
22 0.4
3 -0.29
4 -0.29
5 -0.87
6 -0.62
7 -0.62
8 -0.62
9 0.37

>  <PUBCHEM_EFFECTIVE_ROTOR_COUNT>  (1) 
6

>  <PUBCHEM_PHARMACOPHORE_FEATURES>  (1) 
4
1 14 hydrophobe
1 5 donor
4 5 6 7 11 cation
6 6 7 8 11 13 15 rings

>  <PUBCHEM_HEAVY_ATOM_COUNT>  (1) 
17

>  <PUBCHEM_ATOM_DEF_STEREO_COUNT>  (1) 
0

>  <PUBCHEM_ATOM_UDEF_STEREO_COUNT>  (1) 
0

>  <PUBCHEM_BOND_DEF_STEREO_COUNT>  (1) 
0

>  <PUBCHEM_BOND_UDEF_STEREO_COUNT>  (1) 
0

>  <PUBCHEM_ISOTOPIC_ATOM_COUNT>  (1) 
0

>  <PUBCHEM_COMPONENT_COUNT>  (1) 
1

>  <PUBCHEM_CACTVS_TAUTO_COUNT>  (1) 
9

>  <PUBCHEM_CONFORMER_ID>  (1) 
00007F7100000001

>  <PUBCHEM_MMFF94_ENERGY>  (1) 
27.1054

>  <PUBCHEM_FEATURE_SELFOVERLAP>  (1) 
20.297

>  <PUBCHEM_SHAPE_FINGERPRINT>  (1) 
12617007 42 18341056233030695598
12841375 25 18339359669298319966
13140716 1 18120640594653844962
14178000 15 18413386514689686089
14178000 29 18201439138524002423
15042514 8 17616806635356078091
15420108 30 17911774063085505322
17134986 127 17902232543850269741
1813 80 18200882759807136527
20388580 30 18341336612679852454
20645477 70 18410569630740863591
20671657 1 18341896350430077367
20671657 53 18340205189777454315
212916 134 17623831823025713129
21478907 32 17905886972856767339
21524375 3 17539391541946332249
221490 88 18263086659997768083
23352939 185 18273221863471183186
23419403 2 17754694387562413476
23557571 272 18125437511010865946
23559900 14 18341041982904291771
23598291 2 18272103668904597945
25 1 18117557551091039525
2748010 2 18193817281022729352
3071541 250 18410579461245381087
3084891 72 18050294957522318708
3091708 16 9502547406528855954
312423 11 18271818930016395467
352729 6 17183059683460879731
54173680 148 17761483690984803923
57210444 14 17757572006981833868
57262259 84 17980205184017341430
58779409 8 17256809992676410574
68521 5 18193276278178286119
7164475 11 17903361407696276014
7364860 26 18342454893456837866
81228 2 17976827484571133162
9841814 1 18188197732901718683
9925002 15 17829629261764915764
9971528 1 18272362049594354987

>  <PUBCHEM_SHAPE_MULTIPOLES>  (1) 
337.41
7.65
4.17
1.13
14.44
2.91
0.09
-4.83
2.3
-4.42
-0.01
-1.12
0.4
0.42

>  <PUBCHEM_SHAPE_SELFOVERLAP>  (1) 
634.925

>  <PUBCHEM_SHAPE_VOLUME>  (1) 
206.8

>  <PUBCHEM_COORDINATE_TYPE>  (1) 
2
5
10

$$$$
