32620
     RDKit          3D

 17 17  0  0  0  0  0  0  0  0999 V2000
   -0.3313    3.5308   -1.3836 Cl  0  0  0  0  0  0  0  0  0  0  0  0
   -2.3418    2.8911    0.5799 Cl  0  0  0  0  0  0  0  0  0  0  0  0
    0.3976    3.2027    1.4318 Cl  0  0  0  0  0  0  0  0  0  0  0  0
    0.2634   -1.4765   -0.5886 N   0  0  0  0  0  0  0  0  0  0  0  0
    0.9507    0.8209   -0.4998 N   0  0  0  0  0  0  0  0  0  0  0  0
   -1.9599   -2.0265   -0.0860 N   0  0  0  0  0  0  0  0  0  0  0  0
   -1.3177    0.2267    0.0088 N   0  0  0  0  0  0  0  0  0  0  0  0
    3.4687   -1.2085    0.0908 C   0  0  0  0  0  0  0  0  0  0  0  0
    2.5464   -0.8864   -1.1013 C   0  0  0  0  0  0  0  0  0  0  0  0
    3.5607   -0.0414    1.0770 C   0  0  0  0  0  0  0  0  0  0  0  0
    2.9609   -2.4571    0.8163 C   0  0  0  0  0  0  0  0  0  0  0  0
    1.1484   -0.4837   -0.6997 C   0  0  0  0  0  0  0  0  0  0  0  0
   -0.9560   -1.0443   -0.2288 C   0  0  0  0  0  0  0  0  0  0  0  0
   -0.3132    1.1042   -0.1457 C   0  0  0  0  0  0  0  0  0  0  0  0
   -3.3027   -1.7136    0.2915 C   0  0  0  0  0  0  0  0  0  0  0  0
   -0.6338    2.5389    0.1008 C   0  0  0  0  0  0  0  0  0  0  0  0
   -4.1404   -2.9772    0.3365 C   0  0  0  0  0  0  0  0  0  0  0  0
  1 16  1  0
  2 16  1  0
  3 16  1  0
  4 12  2  0
  4 13  1  0
  5 12  1  0
  5 14  2  0
  6 13  1  0
  6 15  1  0
  7 13  2  0
  7 14  1  0
  8  9  1  0
  8 10  1  0
  8 11  1  0
  9 12  1  0
 14 16  1  0
 15 17  1  0
M  END
>  <PUBCHEM_COMPOUND_CID>  (1) 
32620

>  <PUBCHEM_CONFORMER_RMSD>  (1) 
0.6

>  <PUBCHEM_CONFORMER_DIVERSEORDER>  (1) 
1
16
22
35
9
28
36
21
14
17
42
32
34
12
30
46
27
39
45
5
40
19
24
26
37
31
43
20
13
25
41
18
29
15
11
38
23
44
33
10
6
8
7
2
4
3

>  <PUBCHEM_MMFF94_PARTIAL_CHARGES>  (1) 
14
1 -0.29
12 0.48
13 0.72
14 0.48
15 0.37
16 1.01
2 -0.29
27 0.4
3 -0.29
4 -0.62
5 -0.62
6 -0.87
7 -0.62
9 0.14

>  <PUBCHEM_EFFECTIVE_ROTOR_COUNT>  (1) 
5

>  <PUBCHEM_PHARMACOPHORE_FEATURES>  (1) 
4
1 6 donor
3 8 10 11 hydrophobe
4 4 6 7 13 cation
6 4 5 7 12 13 14 rings

>  <PUBCHEM_HEAVY_ATOM_COUNT>  (1) 
17

>  <PUBCHEM_ATOM_DEF_STEREO_COUNT>  (1) 
0

>  <PUBCHEM_ATOM_UDEF_STEREO_COUNT>  (1) 
0

>  <PUBCHEM_BOND_DEF_STEREO_COUNT>  (1) 
0

>  <PUBCHEM_BOND_UDEF_STEREO_COUNT>  (1) 
0

>  <PUBCHEM_ISOTOPIC_ATOM_COUNT>  (1) 
0

>  <PUBCHEM_COMPONENT_COUNT>  (1) 
1

>  <PUBCHEM_CACTVS_TAUTO_COUNT>  (1) 
9

>  <PUBCHEM_CONFORMER_ID>  (1) 
00007F6C00000001

>  <PUBCHEM_MMFF94_ENERGY>  (1) 
31.1196

>  <PUBCHEM_FEATURE_SELFOVERLAP>  (1) 
20.297

>  <PUBCHEM_SHAPE_FINGERPRINT>  (1) 
121448 382 17834084486890814125
12553582 1 18337968890427270559
12644460 14 17904777917795432771
13052359 8 18191866708972470605
13140716 1 18341051834894110760
13538477 17 18189907409295562998
136203 1 18267023864574695675
14022347 108 18194151639811248623
14022349 108 17909822481354207952
14178342 30 18189886518786080066
14787075 74 18044370758975525522
15042514 8 18193565475759538995
15295992 7 17272264883284028642
15420108 30 17341811484378630647
16945 1 18191310368620342204
18186145 218 17264684716878057380
20097449 115 18338518650514435695
20369508 70 18192148424457599335
20510252 161 18198339550899322392
20671657 1 17694512841849028335
21041028 32 18340490083695474855
21296965 67 18410293657105465207
21524375 3 17478040562774956244
2255824 54 17904771324873193655
23402539 116 18268979891956022661
23419403 2 18048003506232518501
23557571 272 18200596891421331542
23598294 1 18339922610973056258
2748010 2 18341888619066945285
305870 269 17332803254463646337
3071541 236 18049717421442468790
3091708 16 9064030262181109595
3187 122 18119499211585683232
352729 6 18124599678047957375
54173680 148 18338239249996405511
57672749 33 18125435568893883490
58807428 26 17114941089845089010
7364860 26 17910399724868963247
81228 2 18267037071657075047
90316 7 18337115574882537851
9841814 1 18193286410212307571

>  <PUBCHEM_SHAPE_MULTIPOLES>  (1) 
335.54
5.64
4.77
1.15
1.94
1.8
0.02
-5.44
1.44
-5
0.51
0.43
0.77
0.17

>  <PUBCHEM_SHAPE_SELFOVERLAP>  (1) 
643.027

>  <PUBCHEM_SHAPE_VOLUME>  (1) 
203.3

>  <PUBCHEM_COORDINATE_TYPE>  (1) 
2
5
10

$$$$
