3262
     RDKit          3D

 28 32  0  0  1  0  0  0  0  0999 V2000
   -7.3129   -0.7318    1.0321 O   0  0  0  0  0  0  0  0  0  0  0  0
    3.3416    0.1266    0.6669 O   0  0  0  0  0  0  0  0  0  0  0  0
    3.6420   -0.8896   -1.4094 O   0  0  0  0  0  0  0  0  0  0  0  0
   -5.1796    0.3151    0.3760 C   0  0  0  0  0  0  0  0  0  0  0  0
   -4.4609    0.3852   -0.9912 C   0  0  0  0  0  0  0  0  0  0  0  0
   -2.9184    0.4501   -0.9653 C   0  0  0  0  0  0  0  0  0  0  0  0
   -2.2832   -0.5135    0.0664 C   0  0  0  0  0  0  0  0  0  0  0  0
   -6.5767   -0.1924   -0.0506 C   0  0  0  0  0  0  0  0  0  0  0  0
   -4.4738   -0.6610    1.3426 C   0  0  0  0  0  0  0  0  0  0  0  0
   -4.9648   -0.8686   -1.7413 C   0  0  0  0  0  0  0  0  0  0  0  0
   -2.9685   -0.4213    1.4419 C   0  0  0  0  0  0  0  0  0  0  0  0
   -6.3101   -1.2412   -1.1238 C   0  0  0  0  0  0  0  0  0  0  0  0
   -2.4009    1.8802   -0.7445 C   0  0  0  0  0  0  0  0  0  0  0  0
   -5.3398    1.6881    1.0495 C   0  0  0  0  0  0  0  0  0  0  0  0
   -0.7813   -0.3143    0.2056 C   0  0  0  0  0  0  0  0  0  0  0  0
   -0.8924    1.9418   -0.9690 C   0  0  0  0  0  0  0  0  0  0  0  0
   -0.1404    0.8526   -0.2502 C   0  0  0  0  0  0  0  0  0  0  0  0
   -0.0109   -1.3201    0.8159 C   0  0  0  0  0  0  0  0  0  0  0  0
    1.2489    0.9851   -0.0938 C   0  0  0  0  0  0  0  0  0  0  0  0
    1.3667   -1.1720    0.9737 C   0  0  0  0  0  0  0  0  0  0  0  0
    1.9965   -0.0186    0.5197 C   0  0  0  0  0  0  0  0  0  0  0  0
    4.0935   -0.3587   -0.4058 C   0  0  0  0  0  0  0  0  0  0  0  0
    5.5470   -0.1654   -0.1724 C   0  0  0  0  0  0  0  0  0  0  0  0
    6.4357   -1.0710   -0.7148 C   0  0  0  0  0  0  0  0  0  0  0  0
    5.9640    0.9141    0.5791 C   0  0  0  0  0  0  0  0  0  0  0  0
    7.8012   -0.8893   -0.4958 C   0  0  0  0  0  0  0  0  0  0  0  0
    7.3296    1.0958    0.7979 C   0  0  0  0  0  0  0  0  0  0  0  0
    8.2481    0.1941    0.2605 C   0  0  0  0  0  0  0  0  0  0  0  0
  1  8  1  0
  2 21  1  0
  2 22  1  0
  3 22  2  0
  4  5  1  0
  4  8  1  0
  4  9  1  0
  4 14  1  0
  5  6  1  0
  5 10  1  0
  6  7  1  0
  6 13  1  0
  7 11  1  0
  7 15  1  0
  8 12  1  0
  9 11  1  0
 10 12  1  0
 13 16  1  0
 15 17  2  0
 15 18  1  0
 16 17  1  0
 17 19  1  0
 18 20  2  0
 19 21  2  0
 20 21  1  0
 22 23  1  0
 23 24  2  0
 23 25  1  0
 24 26  1  0
 25 27  2  0
 26 28  2  0
 27 28  1  0
M  END
>  <PUBCHEM_COMPOUND_CID>  (1) 
3262

>  <PUBCHEM_CONFORMER_RMSD>  (1) 
1

>  <PUBCHEM_CONFORMER_DIVERSEORDER>  (1) 
2
143
201
106
340
397
51
418
257
125
264
53
491
160
477
421
468
146
163
213
323
141
127
15
352
371
360
85
37
193
144
133
66
162
4
461
233
283
186
210
372
3
154
148
253
467
7
316
472
1
433
140
13
289
78
295
89
229
190
153
20
150
390
194
240
14
223
112
464
26
178
492
288
393
145
239
116
62
86
434
287
286
169
32
202
5
103
58
281
117
124
49
375
321
313
207
17
310
392
176
10
6
396
455
342
226
462
130
164
34
94
82
81
137
9
265
171
274
113
236
68
254
203
218
147
407
19
172
47
67
59
123
138
65

>  <PUBCHEM_MMFF94_PARTIAL_CHARGES>  (1) 
28
1 -0.68
15 -0.14
16 0.14
17 -0.14
18 -0.15
19 -0.15
2 -0.23
20 -0.15
21 0.08
22 0.63
23 0.09
24 -0.15
25 -0.15
26 -0.15
27 -0.15
28 -0.15
3 -0.57
48 0.4
49 0.15
50 0.15
51 0.15
52 0.15
53 0.15
54 0.15
55 0.15
56 0.15
7 0.14
8 0.28

>  <PUBCHEM_EFFECTIVE_ROTOR_COUNT>  (1) 
4.4

>  <PUBCHEM_PHARMACOPHORE_FEATURES>  (1) 
8
1 1 acceptor
1 1 donor
1 3 acceptor
5 4 5 8 10 12 rings
6 15 17 18 19 20 21 rings
6 23 24 25 26 27 28 rings
6 4 5 6 7 9 11 rings
6 6 7 13 15 16 17 rings

>  <PUBCHEM_HEAVY_ATOM_COUNT>  (1) 
28

>  <PUBCHEM_ATOM_DEF_STEREO_COUNT>  (1) 
0

>  <PUBCHEM_ATOM_UDEF_STEREO_COUNT>  (1) 
5

>  <PUBCHEM_BOND_DEF_STEREO_COUNT>  (1) 
0

>  <PUBCHEM_BOND_UDEF_STEREO_COUNT>  (1) 
0

>  <PUBCHEM_ISOTOPIC_ATOM_COUNT>  (1) 
0

>  <PUBCHEM_COMPONENT_COUNT>  (1) 
1

>  <PUBCHEM_CACTVS_TAUTO_COUNT>  (1) 
1

>  <PUBCHEM_CONFORMER_ID>  (1) 
00000CBE00000002

>  <PUBCHEM_MMFF94_ENERGY>  (1) 
100.7276

>  <PUBCHEM_FEATURE_SELFOVERLAP>  (1) 
40.824

>  <PUBCHEM_SHAPE_FINGERPRINT>  (1) 
10 15 13254790244748527978
10050765 1 17899127218254972306
10076449 9 17312826000819600659
102385 1 17174636256413926274
10299344 5 17275103942465686390
11135926 11 17530680979251341539
11315181 36 11386372539018694623
11524674 6 15339113567665257093
11646440 116 18259991466035454716
11719270 70 16515677832803794538
11991303 11 16443636782563737490
12082328 90 17703789210798476621
12091667 2 18272090496092051995
12166972 35 17846214496547193248
12236239 1 15482673477316621410
12516196 113 18344144791574322312
13782708 43 18340205173014433750
14118638 360 17676764267650401418
14123256 10 17894347778368421486
14251764 18 16415478259552554694
14294032 229 17024022645265057060
14849402 71 17774718796238666872
14856354 85 15430044274794781011
14933364 13 17561081410406874848
15183329 4 18409162204212136226
15419008 47 18334289873340080580
15461852 350 15140965080225228499
15716309 27 17847061086135040838
1577012 14 17313660439439404204
15849732 13 18412262852249697958
17093844 174 18202281386332625697
18681886 176 17385723633919455348
21150785 3 18272367594059497818
21267235 1 18186806898517080593
21521721 280 17989202681621325530
21792961 116 16805321076416291899
22224240 67 17988922289087305582
23198884 109 17846779611179585099
23516275 137 16916247510303892758
23522609 53 18198931195577721488
23536379 177 17418093209001509938
23559900 14 17604149332253799124
23569943 247 18125725587046940378
249057 3 15647057087817977614
2747138 104 18187650227650823513
3383291 50 18041002868564747867
34797466 226 18341896303802739268
4073 2 18201435939232309046
4098825 35 17845938429477087280
4325135 7 18131068247368475372
4339292 15 15697703910052176957
5265222 85 15984530239297523076
54039377 194 18269269240252242239
57527295 17 17532628228130861255
59755656 215 17967813826044456802
9663363 56 18260542338482460301

>  <PUBCHEM_SHAPE_MULTIPOLES>  (1) 
558.62
22.82
1.49
1.32
26.9
0.46
-0.09
-2.5
-0.11
-0.6
-0.09
-1.35
-0.17
0.49

>  <PUBCHEM_SHAPE_SELFOVERLAP>  (1) 
1228.897

>  <PUBCHEM_SHAPE_VOLUME>  (1) 
297.4

>  <PUBCHEM_COORDINATE_TYPE>  (1) 
2
5
10

$$$$
