32627
     RDKit          3D

 18 18  0  0  0  0  0  0  0  0999 V2000
    2.3199    2.5114    1.6473 Cl  0  0  0  0  0  0  0  0  0  0  0  0
    2.4955    2.4647   -1.2840 Cl  0  0  0  0  0  0  0  0  0  0  0  0
    3.7127   -0.6599   -1.0963 Cl  0  0  0  0  0  0  0  0  0  0  0  0
    0.2910   -3.2677    1.6150 Cl  0  0  0  0  0  0  0  0  0  0  0  0
   -2.0957   -3.2679   -0.0008 Cl  0  0  0  0  0  0  0  0  0  0  0  0
    0.4778   -3.3080   -1.3054 Cl  0  0  0  0  0  0  0  0  0  0  0  0
   -2.4777    1.6937   -0.0992 N   0  0  0  0  0  0  0  0  0  0  0  0
   -0.1405    1.5698    0.0435 N   0  0  0  0  0  0  0  0  0  0  0  0
    0.9148   -0.5830    0.1414 N   0  0  0  0  0  0  0  0  0  0  0  0
   -1.4750   -0.4238   -0.0045 N   0  0  0  0  0  0  0  0  0  0  0  0
    2.2633    1.4176    0.1900 C   0  0  0  0  0  0  0  0  0  0  0  0
    0.9275    0.7596    0.1206 C   0  0  0  0  0  0  0  0  0  0  0  0
   -1.3285    0.9224   -0.0175 C   0  0  0  0  0  0  0  0  0  0  0  0
   -3.8090    1.1432   -0.1704 C   0  0  0  0  0  0  0  0  0  0  0  0
   -0.3206   -1.1050    0.0755 C   0  0  0  0  0  0  0  0  0  0  0  0
    3.4985    0.4652    0.2795 C   0  0  0  0  0  0  0  0  0  0  0  0
   -0.4206   -2.5922    0.0931 C   0  0  0  0  0  0  0  0  0  0  0  0
   -4.8336    2.2600   -0.2277 C   0  0  0  0  0  0  0  0  0  0  0  0
  1 11  1  0
  2 11  1  0
  3 16  1  0
  4 17  1  0
  5 17  1  0
  6 17  1  0
  7 13  1  0
  7 14  1  0
  8 12  2  0
  8 13  1  0
  9 12  1  0
  9 15  2  0
 10 13  2  0
 10 15  1  0
 11 12  1  0
 11 16  1  0
 14 18  1  0
 15 17  1  0
M  END
>  <PUBCHEM_COMPOUND_CID>  (1) 
32627

>  <PUBCHEM_CONFORMER_RMSD>  (1) 
0.6

>  <PUBCHEM_CONFORMER_DIVERSEORDER>  (1) 
1
125
84
71
102
72
98
48
110
38
121
127
73
123
34
94
42
131
80
112
95
130
96
82
46
129
97
86
43
103
122
68
128
111
22
119
100
61
126
69
70
30
120
93
81
89
25
41
118
88
65
104
105
117
58
62
113
15
78
107
63
27
79
67
99
114
36
106
124
28
20
11
75
16
14
35
64
24
83
21
33
52
77
44
76
4
59
32
116
5
9
87
13
45
74
60
2
51
31
56
39
12
115
19
47
85
50
6
8
55
29
101
57
7
17
23
40
53
26
109
18
66
49
108
37
54
10
91
92
3
90

>  <PUBCHEM_MMFF94_PARTIAL_CHARGES>  (1) 
18
1 -0.29
10 -0.62
11 0.72
12 0.48
13 0.72
14 0.37
15 0.48
16 0.29
17 1.01
2 -0.29
23 0.4
3 -0.29
4 -0.29
5 -0.29
6 -0.29
7 -0.87
8 -0.62
9 -0.62

>  <PUBCHEM_EFFECTIVE_ROTOR_COUNT>  (1) 
5

>  <PUBCHEM_PHARMACOPHORE_FEATURES>  (1) 
3
1 7 donor
4 7 8 10 13 cation
6 8 9 10 12 13 15 rings

>  <PUBCHEM_HEAVY_ATOM_COUNT>  (1) 
18

>  <PUBCHEM_ATOM_DEF_STEREO_COUNT>  (1) 
0

>  <PUBCHEM_ATOM_UDEF_STEREO_COUNT>  (1) 
0

>  <PUBCHEM_BOND_DEF_STEREO_COUNT>  (1) 
0

>  <PUBCHEM_BOND_UDEF_STEREO_COUNT>  (1) 
0

>  <PUBCHEM_ISOTOPIC_ATOM_COUNT>  (1) 
0

>  <PUBCHEM_COMPONENT_COUNT>  (1) 
1

>  <PUBCHEM_CACTVS_TAUTO_COUNT>  (1) 
4

>  <PUBCHEM_CONFORMER_ID>  (1) 
00007F7300000001

>  <PUBCHEM_MMFF94_ENERGY>  (1) 
36.039

>  <PUBCHEM_FEATURE_SELFOVERLAP>  (1) 
15.223

>  <PUBCHEM_SHAPE_FINGERPRINT>  (1) 
10693767 8 17771052809754529751
10967382 1 18266740173284038286
1100329 8 18192141612217481602
11322862 65 18409448128220792023
116883 192 18123474044534861430
12500047 106 18269270326097829936
12532896 13 18337382837670015208
12553582 1 17114105461503883499
12592029 89 18189899720961101593
12644460 14 18120379748647883897
12730499 353 18336550392258668777
12788726 201 17829885791117617539
13140716 1 18410001148230911065
13836976 161 18335421227680666485
14022347 108 17684653516466215874
14178342 30 18048580810367803296
15906896 17 18192431002839458695
16752209 62 18193831763483867203
16945 1 18200887166527464696
17134986 127 18334859398286408933
18186145 218 18410283692855412629
19591789 44 18410015450862474459
20510252 161 18125437772460078305
20511035 2 18270680999637267796
20600515 1 18339631262515261600
20645476 183 18188220891507523852
20645477 70 18122056504217943077
20711985 365 18266462199038067822
20905425 154 17619912760305039078
21285901 2 17840043049724027199
21524375 3 18411133632538889373
2255824 54 18122063096776178567
22713019 99 18128826248474980966
2334 1 18339079426982147209
23419403 2 17053640319015561167
23557571 272 17981047728258608816
23558518 356 18191298480214306546
23559900 14 18343587348512747036
23598291 2 17751355299503139092
2748010 2 18339646753501942460
3060560 45 18336543798671252596
3071541 37 18117561725804357053
3091708 16 9481763312907523667
352729 6 18411422829829881521
6138700 20 18050573946008299454
633830 44 18272643528956119645
7164475 11 18048876587083897525
7364860 26 18125999356629586885
81228 2 17903632226541886689
81539 233 18189053097271470765
8272917 22 18124034534062891717
9709674 26 18200028589906906988
9981440 41 16768410634513283312
9999458 23 18261397702235482925

>  <PUBCHEM_SHAPE_MULTIPOLES>  (1) 
361.73
6.19
4.67
1.24
2.67
3.26
0.21
-5.71
-1
2.48
0.19
-0.96
0.31
0.73

>  <PUBCHEM_SHAPE_SELFOVERLAP>  (1) 
674.101

>  <PUBCHEM_SHAPE_VOLUME>  (1) 
225.6

>  <PUBCHEM_COORDINATE_TYPE>  (1) 
2
5
10

$$$$
