32635
     RDKit          3D

 19 19  0  0  0  0  0  0  0  0999 V2000
   -2.6466    2.4161    1.6425 Cl  0  0  0  0  0  0  0  0  0  0  0  0
   -0.5828    3.8944    0.2777 Cl  0  0  0  0  0  0  0  0  0  0  0  0
   -2.6495    2.6147   -1.2774 Cl  0  0  0  0  0  0  0  0  0  0  0  0
   -2.6033   -2.4554   -1.6471 Cl  0  0  0  0  0  0  0  0  0  0  0  0
   -0.5211   -3.9016   -0.2759 Cl  0  0  0  0  0  0  0  0  0  0  0  0
   -2.6126   -2.6547    1.2727 Cl  0  0  0  0  0  0  0  0  0  0  0  0
    2.5304    0.0205    0.0057 N   0  0  0  0  0  0  0  0  0  0  0  0
    0.5252   -1.1920   -0.0833 N   0  0  0  0  0  0  0  0  0  0  0  0
    0.5063    1.2013    0.0893 N   0  0  0  0  0  0  0  0  0  0  0  0
   -1.5622   -0.0115   -0.0002 N   0  0  0  0  0  0  0  0  0  0  0  0
    3.2897   -1.2202   -0.0832 C   0  0  0  0  0  0  0  0  0  0  0  0
    3.2699    1.2739    0.0826 C   0  0  0  0  0  0  0  0  0  0  0  0
    1.1356    0.0095    0.0039 C   0  0  0  0  0  0  0  0  0  0  0  0
    3.3685   -1.8830    1.2787 C   0  0  0  0  0  0  0  0  0  0  0  0
    3.3421    1.9225   -1.2864 C   0  0  0  0  0  0  0  0  0  0  0  0
   -0.8159   -1.1250   -0.0799 C   0  0  0  0  0  0  0  0  0  0  0  0
   -0.8336    1.1134    0.0815 C   0  0  0  0  0  0  0  0  0  0  0  0
   -1.5891    2.3951    0.1728 C   0  0  0  0  0  0  0  0  0  0  0  0
   -1.5510   -2.4184   -0.1740 C   0  0  0  0  0  0  0  0  0  0  0  0
  1 18  1  0
  2 18  1  0
  3 18  1  0
  4 19  1  0
  5 19  1  0
  6 19  1  0
  7 11  1  0
  7 12  1  0
  7 13  1  0
  8 13  2  0
  8 16  1  0
  9 13  1  0
  9 17  2  0
 10 16  2  0
 10 17  1  0
 11 14  1  0
 12 15  1  0
 16 19  1  0
 17 18  1  0
M  END
>  <PUBCHEM_COMPOUND_CID>  (1) 
32635

>  <PUBCHEM_CONFORMER_RMSD>  (1) 
0.8

>  <PUBCHEM_CONFORMER_DIVERSEORDER>  (1) 
1
6
4
7
2
3
5

>  <PUBCHEM_MMFF94_PARTIAL_CHARGES>  (1) 
17
1 -0.29
10 -0.62
11 0.37
12 0.37
13 0.72
16 0.48
17 0.48
18 1.01
19 1.01
2 -0.29
3 -0.29
4 -0.29
5 -0.29
6 -0.29
7 -0.84
8 -0.62
9 -0.62

>  <PUBCHEM_EFFECTIVE_ROTOR_COUNT>  (1) 
5

>  <PUBCHEM_PHARMACOPHORE_FEATURES>  (1) 
2
4 7 8 9 13 cation
6 8 9 10 13 16 17 rings

>  <PUBCHEM_HEAVY_ATOM_COUNT>  (1) 
19

>  <PUBCHEM_ATOM_DEF_STEREO_COUNT>  (1) 
0

>  <PUBCHEM_ATOM_UDEF_STEREO_COUNT>  (1) 
0

>  <PUBCHEM_BOND_DEF_STEREO_COUNT>  (1) 
0

>  <PUBCHEM_BOND_UDEF_STEREO_COUNT>  (1) 
0

>  <PUBCHEM_ISOTOPIC_ATOM_COUNT>  (1) 
0

>  <PUBCHEM_COMPONENT_COUNT>  (1) 
1

>  <PUBCHEM_CACTVS_TAUTO_COUNT>  (1) 
1

>  <PUBCHEM_CONFORMER_ID>  (1) 
00007F7B00000001

>  <PUBCHEM_MMFF94_ENERGY>  (1) 
37.9324

>  <PUBCHEM_FEATURE_SELFOVERLAP>  (1) 
10.148

>  <PUBCHEM_SHAPE_FINGERPRINT>  (1) 
10967382 1 16393806120743780008
11578080 2 17416387978199406833
12553582 1 18051696834652261962
12788726 201 18342735256153316663
13140716 1 18410857620739363706
13583140 156 17169560609702505392
14178342 30 18263908991784675002
14790565 3 17615710843365529165
15309172 13 18050570642534682097
15420108 30 16973054624581127313
15490181 8 18195532475953891542
16945 1 17978234854816801280
19591789 44 18340208492749320401
20510252 161 18342452651388944459
20645477 70 17186148774760202493
21041028 32 17692836069536761481
21501502 16 18410856568746649860
21524375 3 18126000456078041121
21731228 192 18051979116945278417
23184049 29 18410849980309269242
2334 1 18410575119244356866
23419403 2 16099295063707147784
23557571 272 18129381665114215804
23558518 356 18260268555702694506
23559900 14 18057889044639787742
23598288 3 18410013247248917606
23598294 1 18410866481230599466
2748010 2 18413390938453051980
3060560 45 17831852456711196708
3091708 16 9204496175380210155
34934 24 18051969517831002190
352729 6 18339643317533380335
6992083 37 18116706306079746080
7164475 11 18339911680270693038
81228 2 18340761641313104929

>  <PUBCHEM_SHAPE_MULTIPOLES>  (1) 
382.31
5.42
5.34
1.31
4.78
0.34
0.01
-0.37
-0.07
-3.77
0.07
-0.72
0.02
-1.17

>  <PUBCHEM_SHAPE_SELFOVERLAP>  (1) 
715.29

>  <PUBCHEM_SHAPE_VOLUME>  (1) 
235

>  <PUBCHEM_COORDINATE_TYPE>  (1) 
2
5
10

$$$$
