32634
     RDKit          3D

 17 17  0  0  0  0  0  0  0  0999 V2000
    2.5480   -2.2318   -1.4638 Cl  0  0  0  0  0  0  0  0  0  0  0  0
    3.9079   -0.1574    0.0039 Cl  0  0  0  0  0  0  0  0  0  0  0  0
    2.5359   -2.2349    1.4628 Cl  0  0  0  0  0  0  0  0  0  0  0  0
   -2.5478   -2.2286    1.4667 Cl  0  0  0  0  0  0  0  0  0  0  0  0
   -3.9079   -0.1571   -0.0050 Cl  0  0  0  0  0  0  0  0  0  0  0  0
   -2.5365   -2.2377   -1.4600 Cl  0  0  0  0  0  0  0  0  0  0  0  0
    0.0001    2.9252   -0.0035 N   0  0  0  0  0  0  0  0  0  0  0  0
   -1.1997    0.9106   -0.0021 N   0  0  0  0  0  0  0  0  0  0  0  0
    1.1998    0.9104   -0.0020 N   0  0  0  0  0  0  0  0  0  0  0  0
    0.0000   -1.1675    0.0000 N   0  0  0  0  0  0  0  0  0  0  0  0
    0.0001    1.5303   -0.0025 C   0  0  0  0  0  0  0  0  0  0  0  0
   -1.1222   -0.4300   -0.0007 C   0  0  0  0  0  0  0  0  0  0  0  0
    1.1221   -0.4301   -0.0005 C   0  0  0  0  0  0  0  0  0  0  0  0
   -1.2496    3.6747   -0.0041 C   0  0  0  0  0  0  0  0  0  0  0  0
    1.2500    3.6746    0.0101 C   0  0  0  0  0  0  0  0  0  0  0  0
    2.4129   -1.1754    0.0006 C   0  0  0  0  0  0  0  0  0  0  0  0
   -2.4131   -1.1753    0.0001 C   0  0  0  0  0  0  0  0  0  0  0  0
  1 16  1  0
  2 16  1  0
  3 16  1  0
  4 17  1  0
  5 17  1  0
  6 17  1  0
  7 11  1  0
  7 14  1  0
  7 15  1  0
  8 11  2  0
  8 12  1  0
  9 11  1  0
  9 13  2  0
 10 12  2  0
 10 13  1  0
 12 17  1  0
 13 16  1  0
M  END
>  <PUBCHEM_COMPOUND_CID>  (1) 
32634

>  <PUBCHEM_CONFORMER_RMSD>  (1) 
0.6

>  <PUBCHEM_CONFORMER_DIVERSEORDER>  (1) 
1
3
5
4
6
2

>  <PUBCHEM_MMFF94_PARTIAL_CHARGES>  (1) 
17
1 -0.29
10 -0.62
11 0.72
12 0.48
13 0.48
14 0.37
15 0.37
16 1.01
17 1.01
2 -0.29
3 -0.29
4 -0.29
5 -0.29
6 -0.29
7 -0.84
8 -0.62
9 -0.62

>  <PUBCHEM_EFFECTIVE_ROTOR_COUNT>  (1) 
3

>  <PUBCHEM_PHARMACOPHORE_FEATURES>  (1) 
2
4 7 8 9 11 cation
6 8 9 10 11 12 13 rings

>  <PUBCHEM_HEAVY_ATOM_COUNT>  (1) 
17

>  <PUBCHEM_ATOM_DEF_STEREO_COUNT>  (1) 
0

>  <PUBCHEM_ATOM_UDEF_STEREO_COUNT>  (1) 
0

>  <PUBCHEM_BOND_DEF_STEREO_COUNT>  (1) 
0

>  <PUBCHEM_BOND_UDEF_STEREO_COUNT>  (1) 
0

>  <PUBCHEM_ISOTOPIC_ATOM_COUNT>  (1) 
0

>  <PUBCHEM_COMPONENT_COUNT>  (1) 
1

>  <PUBCHEM_CACTVS_TAUTO_COUNT>  (1) 
1

>  <PUBCHEM_CONFORMER_ID>  (1) 
00007F7A00000001

>  <PUBCHEM_MMFF94_ENERGY>  (1) 
41.2531

>  <PUBCHEM_FEATURE_SELFOVERLAP>  (1) 
10.148

>  <PUBCHEM_SHAPE_FINGERPRINT>  (1) 
108231 29 18116442616441659650
10967382 1 18410856585420168837
116883 192 18270120084933777551
12553582 1 18410849962570562094
12759256 9 18124880311248241398
12788726 201 18264490576851821234
13140716 1 18265615570441904457
13538477 17 17828204290315713770
14022347 108 18265634094841541039
14648413 74 18192430990376244835
15042514 8 17904764379773393275
15490181 7 17257941390278606793
15490181 8 17257927624892592368
16752209 62 17976255742666669155
16945 1 17762055840895160683
19591789 44 16608861781853279298
20510252 161 18125439709326876320
20645476 183 17248114037075405358
20645477 70 18051685848447893455
20711985 344 18121792629236697382
20871998 184 18199466554354290783
21041028 32 18265632024877950521
21285901 2 18058168315543616215
21524375 3 17111853665383791836
2255824 54 17980764058051943431
2334 1 18410293652667702737
23419403 2 17827319389587683980
23526114 1 18052536857003305052
23557571 272 18268996389030888358
23558518 356 18047476617035490914
23598291 2 17986679383744578823
23598294 1 18120092775690852738
2748010 2 18412821365507137916
305870 269 17834677475887688185
3060560 45 17473529730449299669
3071541 12 18122627411954693765
3071541 236 17830447285045444232
3091708 16 9500024005836865224
31174 14 17902531590013078643
34934 24 18410851062081968994
352729 6 17690278205489279624
6992083 37 18130518482780348043
7364860 26 18124035890686728333
81228 2 18267588996271185689

>  <PUBCHEM_SHAPE_MULTIPOLES>  (1) 
341.15
5.5
4.41
1.18
0
5.26
0
-3.73
0
0
0
0
-1.24
0.01

>  <PUBCHEM_SHAPE_SELFOVERLAP>  (1) 
637.446

>  <PUBCHEM_SHAPE_VOLUME>  (1) 
210

>  <PUBCHEM_COORDINATE_TYPE>  (1) 
2
5
10

$$$$
