32637
     RDKit          3D

 20 21  0  0  0  0  0  0  0  0999 V2000
    3.0086   -2.5389    1.5209 Cl  0  0  0  0  0  0  0  0  0  0  0  0
    0.9178   -3.9106    0.0878 Cl  0  0  0  0  0  0  0  0  0  0  0  0
    3.0024   -2.5869   -1.4054 Cl  0  0  0  0  0  0  0  0  0  0  0  0
    3.0398    2.4955   -1.5139 Cl  0  0  0  0  0  0  0  0  0  0  0  0
    0.9848    3.9035   -0.0643 Cl  0  0  0  0  0  0  0  0  0  0  0  0
    3.0582    2.5443    1.4123 Cl  0  0  0  0  0  0  0  0  0  0  0  0
   -2.1475    0.0231    0.0241 N   0  0  0  0  0  0  0  0  0  0  0  0
   -0.1061    1.2052   -0.0083 N   0  0  0  0  0  0  0  0  0  0  0  0
   -0.1267   -1.1938    0.0412 N   0  0  0  0  0  0  0  0  0  0  0  0
    1.9616   -0.0123    0.0081 N   0  0  0  0  0  0  0  0  0  0  0  0
   -5.0304    0.0263   -0.1118 C   0  0  0  0  0  0  0  0  0  0  0  0
   -4.2664    1.1529    0.5725 C   0  0  0  0  0  0  0  0  0  0  0  0
   -4.2414   -1.2743   -0.0214 C   0  0  0  0  0  0  0  0  0  0  0  0
   -2.8578    1.3070    0.0006 C   0  0  0  0  0  0  0  0  0  0  0  0
   -2.8367   -1.1157   -0.5991 C   0  0  0  0  0  0  0  0  0  0  0  0
   -0.7471    0.0111    0.0188 C   0  0  0  0  0  0  0  0  0  0  0  0
    1.2337    1.1159   -0.0120 C   0  0  0  0  0  0  0  0  0  0  0  0
    1.2145   -1.1278    0.0340 C   0  0  0  0  0  0  0  0  0  0  0  0
    1.9487   -2.4248    0.0572 C   0  0  0  0  0  0  0  0  0  0  0  0
    1.9900    2.4001   -0.0416 C   0  0  0  0  0  0  0  0  0  0  0  0
  1 19  1  0
  2 19  1  0
  3 19  1  0
  4 20  1  0
  5 20  1  0
  6 20  1  0
  7 14  1  0
  7 15  1  0
  7 16  1  0
  8 16  2  0
  8 17  1  0
  9 16  1  0
  9 18  2  0
 10 17  2  0
 10 18  1  0
 11 12  1  0
 11 13  1  0
 12 14  1  0
 13 15  1  0
 17 20  1  0
 18 19  1  0
M  END
>  <PUBCHEM_COMPOUND_CID>  (1) 
32637

>  <PUBCHEM_CONFORMER_RMSD>  (1) 
0.6

>  <PUBCHEM_CONFORMER_DIVERSEORDER>  (1) 
1
17
4
14
2
13
9
16
10
12
8
5
15
6
7
11
3

>  <PUBCHEM_MMFF94_PARTIAL_CHARGES>  (1) 
17
1 -0.29
10 -0.62
14 0.37
15 0.37
16 0.72
17 0.48
18 0.48
19 1.01
2 -0.29
20 1.01
3 -0.29
4 -0.29
5 -0.29
6 -0.29
7 -0.84
8 -0.62
9 -0.62

>  <PUBCHEM_EFFECTIVE_ROTOR_COUNT>  (1) 
4.2

>  <PUBCHEM_PHARMACOPHORE_FEATURES>  (1) 
3
4 7 8 9 16 cation
6 7 11 12 13 14 15 rings
6 8 9 10 16 17 18 rings

>  <PUBCHEM_HEAVY_ATOM_COUNT>  (1) 
20

>  <PUBCHEM_ATOM_DEF_STEREO_COUNT>  (1) 
0

>  <PUBCHEM_ATOM_UDEF_STEREO_COUNT>  (1) 
0

>  <PUBCHEM_BOND_DEF_STEREO_COUNT>  (1) 
0

>  <PUBCHEM_BOND_UDEF_STEREO_COUNT>  (1) 
0

>  <PUBCHEM_ISOTOPIC_ATOM_COUNT>  (1) 
0

>  <PUBCHEM_COMPONENT_COUNT>  (1) 
1

>  <PUBCHEM_CACTVS_TAUTO_COUNT>  (1) 
1

>  <PUBCHEM_CONFORMER_ID>  (1) 
00007F7D00000001

>  <PUBCHEM_MMFF94_ENERGY>  (1) 
40.1128

>  <PUBCHEM_FEATURE_SELFOVERLAP>  (1) 
15.223

>  <PUBCHEM_SHAPE_FINGERPRINT>  (1) 
1100329 8 18337103588140803538
11578080 2 17387114387189792756
12173636 292 17762337320151424133
12553582 1 18122345679432991191
12644460 14 18336274482841720641
12730499 353 18263375844434889643
12788726 201 17614572440729598250
12839892 36 18122043554073764547
13009979 54 17773328837409724281
13140716 1 18411413973718009307
13533116 47 18413392038777088911
138480 1 18338797797381319623
14022347 108 17905341627789636963
14178342 30 18197766898588568129
14790565 3 18336833116612387924
15420108 30 18057582417569271778
15442244 35 18268713810078926881
15502722 9 18410577318304555271
15664445 248 18127426548661686262
17492 89 18413389843796379215
1813 80 18198063569043800214
18186145 218 17915194622132309417
19591789 44 18049728721485619734
20097449 115 18192424165456940082
20600515 1 17835225758643682528
20645477 70 18409444795933026479
20671657 1 18342742909816537197
20739085 24 18336255791381723960
21524375 3 18044932613305993832
221490 88 18409177614428239195
2255824 54 18408325471004006863
23366157 5 18186803577695016431
23419403 2 17680675213261901446
23557571 272 17622718718559563622
23558518 356 17326327131303450500
23559900 14 18340197510628909403
23598291 2 18129395821178463913
2748010 2 17978492162339448700
3060560 45 18265054824123236700
3071541 37 18334861661818400892
3091708 16 9360952286271714594
312423 11 18272379655092315631
314173 41 18267313023406576655
352729 6 17761492895036220646
4409770 3 17107899834402639309
458136 41 18263097650343954317
474 4 18264205988303778873
5104073 3 18411141325558423523
54173680 148 17329428346297761512
58051976 378 18196931295647843191
59755656 215 18335976532281103308
6138700 20 18411991265263622796
633830 44 18056484091205419893
6443956 14 18411137992083838076
7097593 13 18268711606750057091
7164475 11 17542512630673259038
7364860 26 18342175565958467804
81228 2 17544479652600592714
81539 233 18261951971964715445
84936 182 18273214239677756377
9709674 26 18409732893802262859
9841814 1 18262516987850602154
9981440 41 18049434039869849953

>  <PUBCHEM_SHAPE_MULTIPOLES>  (1) 
402.89
7.63
4.89
1.13
10.97
0.12
0
-0.12
0.16
-5.95
0.04
-1.31
0.01
-0.37

>  <PUBCHEM_SHAPE_SELFOVERLAP>  (1) 
774.018

>  <PUBCHEM_SHAPE_VOLUME>  (1) 
240.4

>  <PUBCHEM_COORDINATE_TYPE>  (1) 
2
5
10

$$$$
