32633
     RDKit          3D

 27 27  0  0  0  0  0  0  0  0999 V2000
    7.4953   -1.7983    1.4261 Cl  0  0  0  0  0  0  0  0  0  0  0  0
    5.9125   -3.7228   -0.0223 Cl  0  0  0  0  0  0  0  0  0  0  0  0
    7.4606   -1.7874   -1.5003 Cl  0  0  0  0  0  0  0  0  0  0  0  0
    5.9169    3.0562   -1.4888 Cl  0  0  0  0  0  0  0  0  0  0  0  0
    3.5482    3.7268    0.0102 Cl  0  0  0  0  0  0  0  0  0  0  0  0
    5.9630    3.0498    1.4375 Cl  0  0  0  0  0  0  0  0  0  0  0  0
    1.8169   -0.9228    0.0313 N   0  0  0  0  0  0  0  0  0  0  0  0
    3.3498    0.8225    0.0111 N   0  0  0  0  0  0  0  0  0  0  0  0
    4.0757   -1.4646    0.0038 N   0  0  0  0  0  0  0  0  0  0  0  0
    5.6932    0.3077   -0.0180 N   0  0  0  0  0  0  0  0  0  0  0  0
   -5.7037   -0.5424    0.0598 C   0  0  0  0  0  0  0  0  0  0  0  0
   -4.3757    0.2203    0.0701 C   0  0  0  0  0  0  0  0  0  0  0  0
   -6.9312    0.3722    0.0243 C   0  0  0  0  0  0  0  0  0  0  0  0
   -3.1489   -0.6937    0.0315 C   0  0  0  0  0  0  0  0  0  0  0  0
   -8.2242   -0.4440   -0.0569 C   0  0  0  0  0  0  0  0  0  0  0  0
   -1.8515    0.1179    0.0755 C   0  0  0  0  0  0  0  0  0  0  0  0
   -9.4891    0.4195   -0.0733 C   0  0  0  0  0  0  0  0  0  0  0  0
   -0.6237   -0.7981    0.0666 C   0  0  0  0  0  0  0  0  0  0  0  0
  -10.7828   -0.3977   -0.0800 C   0  0  0  0  0  0  0  0  0  0  0  0
    0.6900   -0.0215    0.0445 C   0  0  0  0  0  0  0  0  0  0  0  0
  -12.0116    0.5109   -0.0225 C   0  0  0  0  0  0  0  0  0  0  0  0
  -13.2998   -0.2959    0.0099 C   0  0  0  0  0  0  0  0  0  0  0  0
    3.1380   -0.5035    0.0146 C   0  0  0  0  0  0  0  0  0  0  0  0
    4.6509    1.1541   -0.0056 C   0  0  0  0  0  0  0  0  0  0  0  0
    5.3298   -0.9850   -0.0125 C   0  0  0  0  0  0  0  0  0  0  0  0
    6.4306   -1.9900   -0.0259 C   0  0  0  0  0  0  0  0  0  0  0  0
    4.9707    2.6100   -0.0109 C   0  0  0  0  0  0  0  0  0  0  0  0
  1 26  1  0
  2 26  1  0
  3 26  1  0
  4 27  1  0
  5 27  1  0
  6 27  1  0
  7 20  1  0
  7 23  1  0
  8 23  2  0
  8 24  1  0
  9 23  1  0
  9 25  2  0
 10 24  2  0
 10 25  1  0
 11 12  1  0
 11 13  1  0
 12 14  1  0
 13 15  1  0
 14 16  1  0
 15 17  1  0
 16 18  1  0
 17 19  1  0
 18 20  1  0
 19 21  1  0
 21 22  1  0
 24 27  1  0
 25 26  1  0
M  END
>  <PUBCHEM_COMPOUND_CID>  (1) 
32633

>  <PUBCHEM_CONFORMER_RMSD>  (1) 
1.4

>  <PUBCHEM_CONFORMER_DIVERSEORDER>  (1) 
1
2
53
13
26
55
41
14
29
52
12
24
22
54
6
11
33
43
31
38
48
37
50
56
49
8
25
9
16
47
15
27
40
42
19
32
51
39
3
45
35
20
17
28
23
34
46
7
36
4
44
5
21
10
18
30

>  <PUBCHEM_MMFF94_PARTIAL_CHARGES>  (1) 
17
1 -0.29
10 -0.62
2 -0.29
20 0.37
23 0.72
24 0.48
25 0.48
26 1.01
27 1.01
3 -0.29
4 -0.29
5 -0.29
53 0.4
6 -0.29
7 -0.87
8 -0.62
9 -0.62

>  <PUBCHEM_EFFECTIVE_ROTOR_COUNT>  (1) 
14

>  <PUBCHEM_PHARMACOPHORE_FEATURES>  (1) 
4
1 22 hydrophobe
1 7 donor
4 7 8 9 23 cation
6 8 9 10 23 24 25 rings

>  <PUBCHEM_HEAVY_ATOM_COUNT>  (1) 
27

>  <PUBCHEM_ATOM_DEF_STEREO_COUNT>  (1) 
0

>  <PUBCHEM_ATOM_UDEF_STEREO_COUNT>  (1) 
0

>  <PUBCHEM_BOND_DEF_STEREO_COUNT>  (1) 
0

>  <PUBCHEM_BOND_UDEF_STEREO_COUNT>  (1) 
0

>  <PUBCHEM_ISOTOPIC_ATOM_COUNT>  (1) 
0

>  <PUBCHEM_COMPONENT_COUNT>  (1) 
1

>  <PUBCHEM_CACTVS_TAUTO_COUNT>  (1) 
3

>  <PUBCHEM_CONFORMER_ID>  (1) 
00007F7900000001

>  <PUBCHEM_MMFF94_ENERGY>  (1) 
30.1666

>  <PUBCHEM_FEATURE_SELFOVERLAP>  (1) 
20.297

>  <PUBCHEM_SHAPE_FINGERPRINT>  (1) 
10411042 1 18194683662875958122
12089408 11 18202282520884259519
13533116 47 18411702093457590860
13617811 41 15554456209995004881
13692115 27 18192993713493049230
14251764 46 14908177543982050591
14344974 52 18334573587027707275
15065858 18 10807935960885072353
15510794 2 18260553330032134971
15840311 113 18335422387480014085
16120349 18 18411417332899639453
20812841 46 18335417975984202272
21315763 28 18412263913744936121
21362267 2 18338502128789117949
21792934 111 18412257341806975537
22164985 6 18410288134869273447
232437 2 18411419498027497263
23378982 89 16451819554636503012
33684 2 18273214180645264643
4073 2 18041846241191079258
439807 62 18272370875905207289
4625314 4 18408884049677577607
58083652 198 18341341049840064393
59520647 147 16521899100837613069
59520647 33 17773328837901706145
59521099 67 18131632296787091664
67123 10 18411136945103308759

>  <PUBCHEM_SHAPE_MULTIPOLES>  (1) 
546.94
43.28
3.48
0.97
180.95
1.95
0.03
-5.42
0.87
-14.49
0.04
-2.37
0.22
0.03

>  <PUBCHEM_SHAPE_SELFOVERLAP>  (1) 
1013.453

>  <PUBCHEM_SHAPE_VOLUME>  (1) 
338.1

>  <PUBCHEM_COORDINATE_TYPE>  (1) 
2
5
10

$$$$
