32639
     RDKit          3D

 18 18  0  0  0  0  0  0  0  0999 V2000
   -3.1145    1.9638    1.5417 Cl  0  0  0  0  0  0  0  0  0  0  0  0
   -1.5411    3.7587   -0.0736 Cl  0  0  0  0  0  0  0  0  0  0  0  0
   -3.2968    1.8765   -1.3780 Cl  0  0  0  0  0  0  0  0  0  0  0  0
   -2.0211   -3.0445   -1.3353 Cl  0  0  0  0  0  0  0  0  0  0  0  0
    0.4120   -3.8087    0.0072 Cl  0  0  0  0  0  0  0  0  0  0  0  0
   -1.8504   -2.9610    1.5851 Cl  0  0  0  0  0  0  0  0  0  0  0  0
    4.9657    1.3429    0.7885 O   0  0  0  0  0  0  0  0  0  0  0  0
    2.4142    0.7416   -0.2359 N   0  0  0  0  0  0  0  0  0  0  0  0
    0.7670   -0.9210   -0.0919 N   0  0  0  0  0  0  0  0  0  0  0  0
    0.1676    1.4023   -0.1141 N   0  0  0  0  0  0  0  0  0  0  0  0
   -1.5408   -0.2762    0.0336 N   0  0  0  0  0  0  0  0  0  0  0  0
    3.4887   -0.2227   -0.2776 C   0  0  0  0  0  0  0  0  0  0  0  0
    1.0754    0.3971   -0.1445 C   0  0  0  0  0  0  0  0  0  0  0  0
   -0.5478   -1.1793   -0.0045 C   0  0  0  0  0  0  0  0  0  0  0  0
   -1.1085    0.9936   -0.0254 C   0  0  0  0  0  0  0  0  0  0  0  0
    4.8271    0.4931   -0.3432 C   0  0  0  0  0  0  0  0  0  0  0  0
   -2.1512    2.0583    0.0114 C   0  0  0  0  0  0  0  0  0  0  0  0
   -0.9455   -2.6146    0.0564 C   0  0  0  0  0  0  0  0  0  0  0  0
  1 17  1  0
  2 17  1  0
  3 17  1  0
  4 18  1  0
  5 18  1  0
  6 18  1  0
  7 16  1  0
  8 12  1  0
  8 13  1  0
  9 13  2  0
  9 14  1  0
 10 13  1  0
 10 15  2  0
 11 14  2  0
 11 15  1  0
 12 16  1  0
 14 18  1  0
 15 17  1  0
M  END
>  <PUBCHEM_COMPOUND_CID>  (1) 
32639

>  <PUBCHEM_CONFORMER_RMSD>  (1) 
0.6

>  <PUBCHEM_CONFORMER_DIVERSEORDER>  (1) 
1
17
6
18
9
19
13
5
4
7
11
16
14
3
8
12
15
10
2

>  <PUBCHEM_MMFF94_PARTIAL_CHARGES>  (1) 
20
1 -0.29
10 -0.62
11 -0.62
12 0.37
13 0.72
14 0.48
15 0.48
16 0.28
17 1.01
18 1.01
2 -0.29
21 0.4
24 0.4
3 -0.29
4 -0.29
5 -0.29
6 -0.29
7 -0.68
8 -0.87
9 -0.62

>  <PUBCHEM_EFFECTIVE_ROTOR_COUNT>  (1) 
5

>  <PUBCHEM_PHARMACOPHORE_FEATURES>  (1) 
5
1 7 acceptor
1 7 donor
1 8 donor
4 8 9 10 13 cation
6 9 10 11 13 14 15 rings

>  <PUBCHEM_HEAVY_ATOM_COUNT>  (1) 
18

>  <PUBCHEM_ATOM_DEF_STEREO_COUNT>  (1) 
0

>  <PUBCHEM_ATOM_UDEF_STEREO_COUNT>  (1) 
0

>  <PUBCHEM_BOND_DEF_STEREO_COUNT>  (1) 
0

>  <PUBCHEM_BOND_UDEF_STEREO_COUNT>  (1) 
0

>  <PUBCHEM_ISOTOPIC_ATOM_COUNT>  (1) 
0

>  <PUBCHEM_COMPONENT_COUNT>  (1) 
1

>  <PUBCHEM_CACTVS_TAUTO_COUNT>  (1) 
3

>  <PUBCHEM_CONFORMER_ID>  (1) 
00007F7F00000001

>  <PUBCHEM_MMFF94_ENERGY>  (1) 
33.585

>  <PUBCHEM_FEATURE_SELFOVERLAP>  (1) 
25.375

>  <PUBCHEM_SHAPE_FINGERPRINT>  (1) 
11357001 24 18263086663849227498
121448 382 18341316825976574821
12173636 292 18338515244769212444
12553582 1 17834410281898848030
12759256 9 17547290004405733383
12788726 201 18264754614224874026
13052359 8 18334572455800194055
13140716 1 18122073266884234931
13583140 156 17022903432638013440
14178342 30 18335131030105009658
14508225 48 18053372477271469180
15042514 8 18335431200167180362
16752209 62 18264755718337371978
16945 1 17761495781660451455
1741750 31 18411699859816069336
19591789 44 18195254316808244326
204376 136 18337677407949621000
20510252 161 18343023298071693656
20600515 1 17839485592906962019
20645477 56 18411143515617703916
20645477 70 17689146821705798437
21041028 32 17903654203895120483
21524375 3 18267019453537612021
22224240 67 18340782451094851489
2255824 54 17619624688110985375
23402539 116 18271519909623663527
23419403 2 17129282441113413427
23526113 38 17775284920383032128
23557571 272 18200327640185536492
23598288 3 18189349028934039590
257057 1 17762898066643905174
2748010 2 18193014628881383703
3071541 12 17618223901506881924
3091708 16 8983545976541476640
352729 6 18409455777604999300
474229 33 18409170987377824641
5104073 3 18410852205672132552
532947 4 17835801898637212486
53917941 68 18264182812385768245
58779409 54 18267571571694399983
633830 44 17914340069600702420
7364860 26 17546728149225802453
81228 2 18267301126209412595
84936 182 17838889344219982912
9709674 26 18272373070881194550

>  <PUBCHEM_SHAPE_MULTIPOLES>  (1) 
355.86
6.47
5.02
1.19
9.17
3.84
-0.15
-6.55
-0.2
-2.66
-0.18
-1.12
0.38
0.21

>  <PUBCHEM_SHAPE_SELFOVERLAP>  (1) 
664.718

>  <PUBCHEM_SHAPE_VOLUME>  (1) 
221.5

>  <PUBCHEM_COORDINATE_TYPE>  (1) 
2
5
10

$$$$
