32646
     RDKit          3D

 14 14  0  0  0  0  0  0  0  0999 V2000
   -2.6782   -1.4317    1.4691 Cl  0  0  0  0  0  0  0  0  0  0  0  0
   -3.2883    0.7873   -0.2660 Cl  0  0  0  0  0  0  0  0  0  0  0  0
   -2.4101   -1.7015   -1.4327 Cl  0  0  0  0  0  0  0  0  0  0  0  0
    0.1816   -1.2147    0.2273 N   0  0  0  0  0  0  0  0  0  0  0  0
    1.8962    0.4641    0.2290 N   0  0  0  0  0  0  0  0  0  0  0  0
   -0.4033    1.0979   -0.0325 N   0  0  0  0  0  0  0  0  0  0  0  0
    1.2939    2.7158   -0.0274 N   0  0  0  0  0  0  0  0  0  0  0  0
    2.4921   -1.8596    0.4906 C   0  0  0  0  0  0  0  0  0  0  0  0
    1.4575   -0.8028    0.3038 C   0  0  0  0  0  0  0  0  0  0  0  0
   -0.6932   -0.2100    0.0591 C   0  0  0  0  0  0  0  0  0  0  0  0
    0.9103    1.3601    0.0606 C   0  0  0  0  0  0  0  0  0  0  0  0
    3.0201   -2.3976   -0.8371 C   0  0  0  0  0  0  0  0  0  0  0  0
   -2.1328   -0.5848   -0.0356 C   0  0  0  0  0  0  0  0  0  0  0  0
    0.3541    3.7775   -0.2083 C   0  0  0  0  0  0  0  0  0  0  0  0
  1 13  1  0
  2 13  1  0
  3 13  1  0
  4  9  2  0
  4 10  1  0
  5  9  1  0
  5 11  2  0
  6 10  2  0
  6 11  1  0
  7 11  1  0
  7 14  1  0
  8  9  1  0
  8 12  1  0
 10 13  1  0
M  END
>  <PUBCHEM_COMPOUND_CID>  (1) 
32646

>  <PUBCHEM_CONFORMER_RMSD>  (1) 
0.6

>  <PUBCHEM_CONFORMER_DIVERSEORDER>  (1) 
1
3
7
6
2
4
8
5

>  <PUBCHEM_MMFF94_PARTIAL_CHARGES>  (1) 
14
1 -0.29
10 0.48
11 0.72
13 1.01
14 0.37
2 -0.29
20 0.4
3 -0.29
4 -0.62
5 -0.62
6 -0.62
7 -0.87
8 0.14
9 0.48

>  <PUBCHEM_EFFECTIVE_ROTOR_COUNT>  (1) 
3

>  <PUBCHEM_PHARMACOPHORE_FEATURES>  (1) 
4
1 12 hydrophobe
1 7 donor
4 5 6 7 11 cation
6 4 5 6 9 10 11 rings

>  <PUBCHEM_HEAVY_ATOM_COUNT>  (1) 
14

>  <PUBCHEM_ATOM_DEF_STEREO_COUNT>  (1) 
0

>  <PUBCHEM_ATOM_UDEF_STEREO_COUNT>  (1) 
0

>  <PUBCHEM_BOND_DEF_STEREO_COUNT>  (1) 
0

>  <PUBCHEM_BOND_UDEF_STEREO_COUNT>  (1) 
0

>  <PUBCHEM_ISOTOPIC_ATOM_COUNT>  (1) 
0

>  <PUBCHEM_COMPONENT_COUNT>  (1) 
1

>  <PUBCHEM_CACTVS_TAUTO_COUNT>  (1) 
9

>  <PUBCHEM_CONFORMER_ID>  (1) 
00007F8600000001

>  <PUBCHEM_MMFF94_ENERGY>  (1) 
27.7055

>  <PUBCHEM_FEATURE_SELFOVERLAP>  (1) 
20.297

>  <PUBCHEM_SHAPE_FINGERPRINT>  (1) 
1 1 18049163572720030500
12759256 9 18194112134780460010
14648413 74 18335135449062160073
14817 1 14674781259029942955
15279308 51 18272642450850262863
15490181 8 18048869998641105522
16945 1 18193837278142572107
17841504 4 18335147517909757971
17990270 104 18409442626446936867
18380122 1 17463696742433316539
20645477 70 18193826257879606679
20711985 344 17976536113842040186
20871998 184 17910673159724983166
21041028 32 18337126578483300809
21130352 189 18338230449650548985
21524375 3 17471568206026661984
2334 1 18409445890685151418
23419403 2 13853395139000771499
23526114 1 18411416232691536726
23552423 10 18197210558595012063
23557571 272 17982451491406780702
23598291 2 18202284710347227623
2748010 2 18339070506535487984
3084891 72 17902503792836753307
31174 14 18118421741724587579
4175511 71 18340213994338753937
559249 180 17040076438823496758
6992083 37 18130510721605528731
7364860 26 18339924942923773036
81228 2 18049157761729525496

>  <PUBCHEM_SHAPE_MULTIPOLES>  (1) 
273.8
4.62
3.62
1.04
0.77
3.98
0.01
-3.26
0.3
-1.72
0.49
0.65
-0.71
0.28

>  <PUBCHEM_SHAPE_SELFOVERLAP>  (1) 
524.269

>  <PUBCHEM_SHAPE_VOLUME>  (1) 
165.8

>  <PUBCHEM_COORDINATE_TYPE>  (1) 
2
5
10

$$$$
