32640
     RDKit          3D

 19 19  0  0  0  0  0  0  0  0999 V2000
   -3.7803    1.7374    1.4686 Cl  0  0  0  0  0  0  0  0  0  0  0  0
   -2.2550    3.6881   -0.0061 Cl  0  0  0  0  0  0  0  0  0  0  0  0
   -3.7884    1.7213   -1.4579 Cl  0  0  0  0  0  0  0  0  0  0  0  0
   -2.1548   -3.0928   -1.4609 Cl  0  0  0  0  0  0  0  0  0  0  0  0
    0.2477   -3.7163    0.0041 Cl  0  0  0  0  0  0  0  0  0  0  0  0
   -2.1580   -3.0813    1.4658 Cl  0  0  0  0  0  0  0  0  0  0  0  0
    6.7548    0.8271    0.0193 O   0  0  0  0  0  0  0  0  0  0  0  0
    1.9165    0.9729   -0.0083 N   0  0  0  0  0  0  0  0  0  0  0  0
    0.3920   -0.8088   -0.0029 N   0  0  0  0  0  0  0  0  0  0  0  0
   -0.3763    1.4644   -0.0033 N   0  0  0  0  0  0  0  0  0  0  0  0
   -1.9607   -0.3376    0.0018 N   0  0  0  0  0  0  0  0  0  0  0  0
    3.0601    0.0921   -0.0101 C   0  0  0  0  0  0  0  0  0  0  0  0
    4.3603    0.8875   -0.0023 C   0  0  0  0  0  0  0  0  0  0  0  0
    0.6035    0.5292   -0.0047 C   0  0  0  0  0  0  0  0  0  0  0  0
    5.5992   -0.0003   -0.0060 C   0  0  0  0  0  0  0  0  0  0  0  0
   -0.9028   -1.1644    0.0002 C   0  0  0  0  0  0  0  0  0  0  0  0
   -1.6214    0.9616   -0.0003 C   0  0  0  0  0  0  0  0  0  0  0  0
   -2.7408    1.9459    0.0008 C   0  0  0  0  0  0  0  0  0  0  0  0
   -1.1955   -2.6261    0.0022 C   0  0  0  0  0  0  0  0  0  0  0  0
  1 18  1  0
  2 18  1  0
  3 18  1  0
  4 19  1  0
  5 19  1  0
  6 19  1  0
  7 15  1  0
  8 12  1  0
  8 14  1  0
  9 14  2  0
  9 16  1  0
 10 14  1  0
 10 17  2  0
 11 16  2  0
 11 17  1  0
 12 13  1  0
 13 15  1  0
 16 19  1  0
 17 18  1  0
M  END
>  <PUBCHEM_COMPOUND_CID>  (1) 
32640

>  <PUBCHEM_CONFORMER_RMSD>  (1) 
0.8

>  <PUBCHEM_CONFORMER_DIVERSEORDER>  (1) 
1
15
8
9
11
14
13
3
12
6
5
2
7
10
4

>  <PUBCHEM_MMFF94_PARTIAL_CHARGES>  (1) 
20
1 -0.29
10 -0.62
11 -0.62
12 0.37
14 0.72
15 0.28
16 0.48
17 0.48
18 1.01
19 1.01
2 -0.29
24 0.4
27 0.4
3 -0.29
4 -0.29
5 -0.29
6 -0.29
7 -0.68
8 -0.87
9 -0.62

>  <PUBCHEM_EFFECTIVE_ROTOR_COUNT>  (1) 
6

>  <PUBCHEM_PHARMACOPHORE_FEATURES>  (1) 
5
1 7 acceptor
1 7 donor
1 8 donor
4 8 9 10 14 cation
6 9 10 11 14 16 17 rings

>  <PUBCHEM_HEAVY_ATOM_COUNT>  (1) 
19

>  <PUBCHEM_ATOM_DEF_STEREO_COUNT>  (1) 
0

>  <PUBCHEM_ATOM_UDEF_STEREO_COUNT>  (1) 
0

>  <PUBCHEM_BOND_DEF_STEREO_COUNT>  (1) 
0

>  <PUBCHEM_BOND_UDEF_STEREO_COUNT>  (1) 
0

>  <PUBCHEM_ISOTOPIC_ATOM_COUNT>  (1) 
0

>  <PUBCHEM_COMPONENT_COUNT>  (1) 
1

>  <PUBCHEM_CACTVS_TAUTO_COUNT>  (1) 
3

>  <PUBCHEM_CONFORMER_ID>  (1) 
00007F8000000001

>  <PUBCHEM_MMFF94_ENERGY>  (1) 
33.7115

>  <PUBCHEM_FEATURE_SELFOVERLAP>  (1) 
25.372

>  <PUBCHEM_SHAPE_FINGERPRINT>  (1) 
10411042 1 17906733952944482038
11357001 24 18336271261394910251
12500047 106 18412258433324500856
12553582 1 17762348306777961246
12788726 201 18336531820050038795
13052359 8 18335420183702672915
13140716 1 18265906941313162009
13257819 101 16806710786526735829
13583140 156 17095242501314964033
14508225 48 18053650649645150021
15042514 8 18335993068015618467
16752209 62 18265880523017030722
167882 2 18048026372585589486
16945 1 17834395619017207527
17539 30 18198893893654120711
20101258 96 18120947349903446856
20602899 9 16200142214192989878
20645477 56 18411140216961520720
20645477 70 17834104253026609989
21041028 32 17975709599120860875
21202864 24 18340218456947035417
21426921 1 18339360868116045236
21524375 3 18341049610438726337
22224240 67 18341062826565189601
23402539 116 18271801371852401487
23557571 272 18271814570429508572
23558518 356 17971479743660774448
23559900 14 18272934891664145142
23598288 3 18190189064196656903
2748010 2 18265913362489638439
3071541 12 17618504281335516789
3091708 16 9198875446285214499
352729 6 18410016545841719125
3759504 43 18261109651626593725
4409770 3 18262232330772662159
474229 33 18409452471034160233
532947 4 17980482261343426558
559249 180 18335132078040502746
58779409 54 18340758351209985151
59755656 520 18202287965932288273
633830 44 17912083854465580997
7364860 26 17691968159540955213
77188 2 17762058040055676775
81228 2 18123460837852921417
9709674 26 18272375265593691006

>  <PUBCHEM_SHAPE_MULTIPOLES>  (1) 
376.44
9.22
4.68
1.12
21.51
3.45
0
-7.04
-0.03
-4.97
0
-1.48
0.39
0

>  <PUBCHEM_SHAPE_SELFOVERLAP>  (1) 
701.971

>  <PUBCHEM_SHAPE_VOLUME>  (1) 
234.6

>  <PUBCHEM_COORDINATE_TYPE>  (1) 
2
5
10

$$$$
