32642
     RDKit          3D

 20 20  0  0  0  0  0  0  0  0999 V2000
   -3.1573   -2.2734   -1.7839 Cl  0  0  0  0  0  0  0  0  0  0  0  0
   -1.7019   -3.8706    0.1233 Cl  0  0  0  0  0  0  0  0  0  0  0  0
   -3.8245   -2.1566    1.0633 Cl  0  0  0  0  0  0  0  0  0  0  0  0
   -3.4718    2.6185    0.3388 Cl  0  0  0  0  0  0  0  0  0  0  0  0
   -0.8969    3.8043    0.8590 Cl  0  0  0  0  0  0  0  0  0  0  0  0
   -1.5724    3.0552   -1.8445 Cl  0  0  0  0  0  0  0  0  0  0  0  0
    4.4190   -0.5635   -0.4261 N   0  0  0  0  0  0  0  0  0  0  0  0
    1.8569   -0.4621    0.8231 N   0  0  0  0  0  0  0  0  0  0  0  0
    0.1005    1.0206    0.3595 N   0  0  0  0  0  0  0  0  0  0  0  0
   -0.2632   -1.3512    0.3614 N   0  0  0  0  0  0  0  0  0  0  0  0
   -2.0807    0.1407   -0.1163 N   0  0  0  0  0  0  0  0  0  0  0  0
    4.2251    0.0568    0.8841 C   0  0  0  0  0  0  0  0  0  0  0  0
    2.8098    0.6066    1.0062 C   0  0  0  0  0  0  0  0  0  0  0  0
    0.5236   -0.2580    0.5049 C   0  0  0  0  0  0  0  0  0  0  0  0
    5.7648   -1.1263   -0.5309 C   0  0  0  0  0  0  0  0  0  0  0  0
    4.1879    0.4106   -1.4921 C   0  0  0  0  0  0  0  0  0  0  0  0
   -1.2011    1.1413    0.0520 C   0  0  0  0  0  0  0  0  0  0  0  0
   -1.5412   -1.0770    0.0539 C   0  0  0  0  0  0  0  0  0  0  0  0
   -2.4540   -2.2432   -0.1157 C   0  0  0  0  0  0  0  0  0  0  0  0
   -1.7226    2.5272   -0.1199 C   0  0  0  0  0  0  0  0  0  0  0  0
  1 19  1  0
  2 19  1  0
  3 19  1  0
  4 20  1  0
  5 20  1  0
  6 20  1  0
  7 12  1  0
  7 15  1  0
  7 16  1  0
  8 13  1  0
  8 14  1  0
  9 14  2  0
  9 17  1  0
 10 14  1  0
 10 18  2  0
 11 17  2  0
 11 18  1  0
 12 13  1  0
 17 20  1  0
 18 19  1  0
M  END
>  <PUBCHEM_COMPOUND_CID>  (1) 
32642

>  <PUBCHEM_CONFORMER_RMSD>  (1) 
0.8

>  <PUBCHEM_CONFORMER_DIVERSEORDER>  (1) 
3
7
6
14
15
10
5
13
11
2
8
12
9
1
4

>  <PUBCHEM_MMFF94_PARTIAL_CHARGES>  (1) 
21
1 -0.29
10 -0.62
11 -0.62
12 0.27
13 0.37
14 0.72
15 0.27
16 0.27
17 0.48
18 0.48
19 1.01
2 -0.29
20 1.01
25 0.4
3 -0.29
4 -0.29
5 -0.29
6 -0.29
7 -0.81
8 -0.87
9 -0.62

>  <PUBCHEM_EFFECTIVE_ROTOR_COUNT>  (1) 
6

>  <PUBCHEM_PHARMACOPHORE_FEATURES>  (1) 
4
1 7 cation
1 8 donor
4 8 9 10 14 cation
6 9 10 11 14 17 18 rings

>  <PUBCHEM_HEAVY_ATOM_COUNT>  (1) 
20

>  <PUBCHEM_ATOM_DEF_STEREO_COUNT>  (1) 
0

>  <PUBCHEM_ATOM_UDEF_STEREO_COUNT>  (1) 
0

>  <PUBCHEM_BOND_DEF_STEREO_COUNT>  (1) 
0

>  <PUBCHEM_BOND_UDEF_STEREO_COUNT>  (1) 
0

>  <PUBCHEM_ISOTOPIC_ATOM_COUNT>  (1) 
0

>  <PUBCHEM_COMPONENT_COUNT>  (1) 
1

>  <PUBCHEM_CACTVS_TAUTO_COUNT>  (1) 
3

>  <PUBCHEM_CONFORMER_ID>  (1) 
00007F8200000003

>  <PUBCHEM_MMFF94_ENERGY>  (1) 
43.9408

>  <PUBCHEM_FEATURE_SELFOVERLAP>  (1) 
20.297

>  <PUBCHEM_SHAPE_FINGERPRINT>  (1) 
12160290 23 18265309769112852793
12173636 292 18124027936376102444
12553582 1 18265325282271579611
12788726 201 18261107482652785850
13583140 156 13901913340282324546
14022347 108 18043797900110572675
14251757 5 18334292097789625087
14508225 48 18267290092459742797
14790565 3 18196380221248243313
15042514 8 18409737248539898377
15842332 3 17677598796960157130
16752209 62 18336811052974491706
1813 80 18126297564735962719
18785283 64 17112985063112816601
20600515 1 18056490666673430883
20645477 56 18338518521918773904
20871999 31 18410295817922005180
21029758 27 18188777283156783683
21041028 32 18264496268358572275
21065201 7 18411692163630463490
21202864 24 18341344292656358473
21524375 3 18044941155974957320
22620623 9 18201998837049458927
22849341 161 18122927562061020883
22907989 373 18410571790703030772
22950370 63 18192444184015384859
23175994 123 18191019208967574091
23419403 2 17198785835512641433
23557571 272 18343868822861437396
23559900 14 18200869558142772282
23598294 1 18336254678737015027
2748010 2 18049416426277442609
3091708 16 9275710448421403233
314173 85 18269551804947300666
352729 6 18049987914504522843
44062 13 18270687455121138166
458136 41 17836371445480929065
5486654 2 18267300933448346993
58051976 100 18337675222348824422
6049 1 18130781291897678160
621550 34 17699554042770301008
7364860 26 17257645050615185723
81228 2 18337656607781345657

>  <PUBCHEM_SHAPE_MULTIPOLES>  (1) 
397.9
8.72
4.69
1.37
15.48
1.45
-0.61
-4.02
-1.27
-6.55
-0.25
-0.16
0.25
0.17

>  <PUBCHEM_SHAPE_SELFOVERLAP>  (1) 
744.244

>  <PUBCHEM_SHAPE_VOLUME>  (1) 
244.6

>  <PUBCHEM_COORDINATE_TYPE>  (1) 
2
5
10

$$$$
