32648
     RDKit          3D

 16 16  0  0  0  0  0  0  0  0999 V2000
    2.5408   -2.4695    1.4135 Cl  0  0  0  0  0  0  0  0  0  0  0  0
    0.3318   -3.3521   -0.2137 Cl  0  0  0  0  0  0  0  0  0  0  0  0
    2.6360   -2.1816   -1.4973 Cl  0  0  0  0  0  0  0  0  0  0  0  0
   -2.1270    0.9620    0.1270 N   0  0  0  0  0  0  0  0  0  0  0  0
    0.0441    1.8350    0.2757 N   0  0  0  0  0  0  0  0  0  0  0  0
   -0.3165   -0.5255    0.0404 N   0  0  0  0  0  0  0  0  0  0  0  0
    1.9173    0.3378    0.1896 N   0  0  0  0  0  0  0  0  0  0  0  0
   -3.0993   -0.0964   -0.0030 C   0  0  0  0  0  0  0  0  0  0  0  0
   -4.5134    0.4727   -0.0543 C   0  0  0  0  0  0  0  0  0  0  0  0
   -0.7573    0.7505    0.1483 C   0  0  0  0  0  0  0  0  0  0  0  0
    2.2877    2.7106    0.4262 C   0  0  0  0  0  0  0  0  0  0  0  0
    1.3571    1.5542    0.2884 C   0  0  0  0  0  0  0  0  0  0  0  0
   -5.5761   -0.6021   -0.2367 C   0  0  0  0  0  0  0  0  0  0  0  0
    1.0199   -0.6536    0.0682 C   0  0  0  0  0  0  0  0  0  0  0  0
    2.6928    3.2951   -0.9248 C   0  0  0  0  0  0  0  0  0  0  0  0
    1.5624   -2.0371   -0.0474 C   0  0  0  0  0  0  0  0  0  0  0  0
  1 16  1  0
  2 16  1  0
  3 16  1  0
  4  8  1  0
  4 10  1  0
  5 10  2  0
  5 12  1  0
  6 10  1  0
  6 14  2  0
  7 12  2  0
  7 14  1  0
  8  9  1  0
  9 13  1  0
 11 12  1  0
 11 15  1  0
 14 16  1  0
M  END
>  <PUBCHEM_COMPOUND_CID>  (1) 
32648

>  <PUBCHEM_CONFORMER_RMSD>  (1) 
0.6

>  <PUBCHEM_CONFORMER_DIVERSEORDER>  (1) 
1
24
46
4
58
17
59
35
37
29
45
51
48
15
42
30
49
32
22
56
47
3
60
21
28
20
27
31
26
8
57
53
36
19
43
34
25
16
9
41
18
11
33
52
14
12
40
23
50
39
38
10
13
54
2
5
55
6
44
7

>  <PUBCHEM_MMFF94_PARTIAL_CHARGES>  (1) 
14
1 -0.29
10 0.72
11 0.14
12 0.48
14 0.48
16 1.01
2 -0.29
21 0.4
3 -0.29
4 -0.87
5 -0.62
6 -0.62
7 -0.62
8 0.37

>  <PUBCHEM_EFFECTIVE_ROTOR_COUNT>  (1) 
5

>  <PUBCHEM_PHARMACOPHORE_FEATURES>  (1) 
5
1 13 hydrophobe
1 15 hydrophobe
1 4 donor
4 4 5 6 10 cation
6 5 6 7 10 12 14 rings

>  <PUBCHEM_HEAVY_ATOM_COUNT>  (1) 
16

>  <PUBCHEM_ATOM_DEF_STEREO_COUNT>  (1) 
0

>  <PUBCHEM_ATOM_UDEF_STEREO_COUNT>  (1) 
0

>  <PUBCHEM_BOND_DEF_STEREO_COUNT>  (1) 
0

>  <PUBCHEM_BOND_UDEF_STEREO_COUNT>  (1) 
0

>  <PUBCHEM_ISOTOPIC_ATOM_COUNT>  (1) 
0

>  <PUBCHEM_COMPONENT_COUNT>  (1) 
1

>  <PUBCHEM_CACTVS_TAUTO_COUNT>  (1) 
9

>  <PUBCHEM_CONFORMER_ID>  (1) 
00007F8800000001

>  <PUBCHEM_MMFF94_ENERGY>  (1) 
24.6795

>  <PUBCHEM_FEATURE_SELFOVERLAP>  (1) 
25.371

>  <PUBCHEM_SHAPE_FINGERPRINT>  (1) 
12532896 13 17978227493633440980
12553582 1 18051141293654440035
12730499 353 18264215862844575049
13140716 1 18194389220516956768
13533116 47 18273496793677350803
13836976 161 18337669827290015900
13911882 115 18046364178089196867
14178342 30 17839173013829711699
14251717 144 18412542111461198267
14252887 29 17845367748071479759
15422964 175 17909539567510965207
15502722 9 18410294731042422549
16945 1 17258498838742827832
17134986 127 18119535576883932636
20369508 70 18261385599307805891
20388580 30 18129670698742438919
20645476 183 17756995867210616380
20645477 70 18410570691644849143
20671657 53 18265893545331076227
20871998 22 18055913186639951190
21524375 3 18194680590971956808
221490 88 18410581703820086035
2255824 54 18411139117164718535
23419403 2 17606370225867405460
23530152 11 18267867378850240062
23557571 272 17478596920291337434
23558518 356 17399507322291867472
23559900 14 18340196398300925553
23598291 2 17987253157094876073
257057 1 17904194832876792794
2748010 2 18192449668793519090
3060560 45 18263085577265141548
3071541 37 18336266841910609117
312423 11 18130239177010002945
314173 41 18196379109003914807
33824 294 18338232769186044611
42630746 31 18341890822648872873
58051976 378 18411980299463087949
58779409 8 17978237388984546004
6025842 7 18411696621632202901
7364860 26 18342739615413155744
81228 2 17331395372790055944
81539 233 18263078971568107397
8272917 22 18413111662932340941
9709674 26 18409168818699006043
9841814 1 18335420102124779011
9999458 23 18260828250012688268

>  <PUBCHEM_SHAPE_MULTIPOLES>  (1) 
314.96
7.17
4.12
0.99
15.16
0.32
0.08
-0.22
0.76
-5.49
0.4
-0.96
-0.47
-0.37

>  <PUBCHEM_SHAPE_SELFOVERLAP>  (1) 
598.864

>  <PUBCHEM_SHAPE_VOLUME>  (1) 
191.7

>  <PUBCHEM_COORDINATE_TYPE>  (1) 
2
5
10

$$$$
