32649
     RDKit          3D

 16 16  0  0  0  0  0  0  0  0999 V2000
    2.4845    2.3557   -1.4719 Cl  0  0  0  0  0  0  0  0  0  0  0  0
    0.2853    3.3405    0.1094 Cl  0  0  0  0  0  0  0  0  0  0  0  0
    2.5351    2.1236    1.4451 Cl  0  0  0  0  0  0  0  0  0  0  0  0
   -2.3059   -0.8993   -0.1775 N   0  0  0  0  0  0  0  0  0  0  0  0
   -0.1621   -1.8437   -0.2814 N   0  0  0  0  0  0  0  0  0  0  0  0
   -0.4500    0.5314   -0.0972 N   0  0  0  0  0  0  0  0  0  0  0  0
    1.7568   -0.4053   -0.2009 N   0  0  0  0  0  0  0  0  0  0  0  0
   -3.2449    0.2170   -0.0771 C   0  0  0  0  0  0  0  0  0  0  0  0
   -3.3565    0.6858    1.3709 C   0  0  0  0  0  0  0  0  0  0  0  0
   -4.6042   -0.2123   -0.6203 C   0  0  0  0  0  0  0  0  0  0  0  0
   -0.9404   -0.7333   -0.1856 C   0  0  0  0  0  0  0  0  0  0  0  0
    1.1592   -1.6050   -0.2829 C   0  0  0  0  0  0  0  0  0  0  0  0
    2.0539   -2.7929   -0.3860 C   0  0  0  0  0  0  0  0  0  0  0  0
    0.8901    0.6164   -0.1105 C   0  0  0  0  0  0  0  0  0  0  0  0
    2.4238   -3.3627    0.9813 C   0  0  0  0  0  0  0  0  0  0  0  0
    1.4752    1.9841   -0.0153 C   0  0  0  0  0  0  0  0  0  0  0  0
  1 16  1  0
  2 16  1  0
  3 16  1  0
  4  8  1  0
  4 11  1  0
  5 11  2  0
  5 12  1  0
  6 11  1  0
  6 14  2  0
  7 12  2  0
  7 14  1  0
  8  9  1  0
  8 10  1  0
 12 13  1  0
 13 15  1  0
 14 16  1  0
M  END
>  <PUBCHEM_COMPOUND_CID>  (1) 
32649

>  <PUBCHEM_CONFORMER_RMSD>  (1) 
0.6

>  <PUBCHEM_CONFORMER_DIVERSEORDER>  (1) 
1
31
38
37
12
36
27
5
29
15
18
14
11
30
9
22
40
39
6
13
17
35
23
34
19
24
26
33
25
28
16
10
3
21
7
32
20
2
8
4

>  <PUBCHEM_MMFF94_PARTIAL_CHARGES>  (1) 
14
1 -0.29
11 0.72
12 0.48
13 0.14
14 0.48
16 1.01
18 0.4
2 -0.29
3 -0.29
4 -0.87
5 -0.62
6 -0.62
7 -0.62
8 0.37

>  <PUBCHEM_EFFECTIVE_ROTOR_COUNT>  (1) 
4

>  <PUBCHEM_PHARMACOPHORE_FEATURES>  (1) 
5
1 15 hydrophobe
1 4 donor
3 8 9 10 hydrophobe
4 4 5 6 11 cation
6 5 6 7 11 12 14 rings

>  <PUBCHEM_HEAVY_ATOM_COUNT>  (1) 
16

>  <PUBCHEM_ATOM_DEF_STEREO_COUNT>  (1) 
0

>  <PUBCHEM_ATOM_UDEF_STEREO_COUNT>  (1) 
0

>  <PUBCHEM_BOND_DEF_STEREO_COUNT>  (1) 
0

>  <PUBCHEM_BOND_UDEF_STEREO_COUNT>  (1) 
0

>  <PUBCHEM_ISOTOPIC_ATOM_COUNT>  (1) 
0

>  <PUBCHEM_COMPONENT_COUNT>  (1) 
1

>  <PUBCHEM_CACTVS_TAUTO_COUNT>  (1) 
9

>  <PUBCHEM_CONFORMER_ID>  (1) 
00007F8900000001

>  <PUBCHEM_MMFF94_ENERGY>  (1) 
28.1324

>  <PUBCHEM_FEATURE_SELFOVERLAP>  (1) 
25.371

>  <PUBCHEM_SHAPE_FINGERPRINT>  (1) 
10980938 120 18410856590042391693
11357001 24 17325488800441372962
12532896 13 17908703178511798564
12553582 1 18122635950560928159
13140716 1 18338794645286872266
13294875 104 18201432644649118496
14178000 15 18339918204341618853
15442244 35 18197500632333554593
15490181 8 17763741388110184038
16945 1 18408328773838807535
17134986 127 18120376720184627053
18186145 218 17843138140485441417
20097449 115 18193275178635094258
20645476 183 17755866672994915700
20671657 1 18342741840174514727
21041028 32 18049459053812070297
21160774 45 16966329990149484468
212916 134 17841691200442422352
21524375 3 18197781217798335039
21639500 275 18339631335176096069
2255824 54 18410017615304776983
2334 1 18051134992826432598
23419403 2 17901072293074055636
23526113 38 17749959847074194763
23557571 272 17767694850062721222
23558518 356 17474098182487701412
23598291 2 18059590040018373789
25 1 18266193883493051116
2748010 2 18122918782609660774
305870 269 18268704077192300352
3071541 37 18336830878690774917
3091708 16 9360673010413406362
352729 6 17402044994896516550
458136 41 18191327033146223885
474 4 18267584783399092865
54173680 148 17474106492890898390
58807428 26 18196070348083876048
7364860 26 18343299271100313270
7615 1 17988644056668160417
81228 2 17402343567958599978
81539 233 18261107542882060479

>  <PUBCHEM_SHAPE_MULTIPOLES>  (1) 
314.96
5.74
4.11
1.14
8.08
0.97
0.19
-0.25
0.16
-5.01
0.41
-0.41
-0.48
-0.64

>  <PUBCHEM_SHAPE_SELFOVERLAP>  (1) 
601.7

>  <PUBCHEM_SHAPE_VOLUME>  (1) 
191.2

>  <PUBCHEM_COORDINATE_TYPE>  (1) 
2
5
10

$$$$
