32656
     RDKit          3D

 17 17  0  0  0  0  0  0  0  0999 V2000
   -1.2317   -3.3945    1.3540 Cl  0  0  0  0  0  0  0  0  0  0  0  0
   -3.1167   -2.3841   -0.5780 Cl  0  0  0  0  0  0  0  0  0  0  0  0
   -0.5092   -3.2322   -1.4774 Cl  0  0  0  0  0  0  0  0  0  0  0  0
    0.3173    1.3938    0.5005 N   0  0  0  0  0  0  0  0  0  0  0  0
    0.5389   -0.9941    0.4208 N   0  0  0  0  0  0  0  0  0  0  0  0
   -1.7645    2.3667    0.0339 N   0  0  0  0  0  0  0  0  0  0  0  0
   -1.5787    0.0308   -0.0514 N   0  0  0  0  0  0  0  0  0  0  0  0
    3.3413    0.4942   -0.2615 C   0  0  0  0  0  0  0  0  0  0  0  0
    2.4501    0.3702    0.9763 C   0  0  0  0  0  0  0  0  0  0  0  0
    4.8176    0.5815    0.1255 C   0  0  0  0  0  0  0  0  0  0  0  0
    0.9944    0.2476    0.6051 C   0  0  0  0  0  0  0  0  0  0  0  0
    5.7115    0.6640   -1.1015 C   0  0  0  0  0  0  0  0  0  0  0  0
   -0.9701    1.2075    0.1675 C   0  0  0  0  0  0  0  0  0  0  0  0
   -0.7629   -1.0259    0.0930 C   0  0  0  0  0  0  0  0  0  0  0  0
   -3.1498    2.3214   -0.3156 C   0  0  0  0  0  0  0  0  0  0  0  0
   -1.3634   -2.3712   -0.1339 C   0  0  0  0  0  0  0  0  0  0  0  0
   -3.7242    3.7244   -0.3572 C   0  0  0  0  0  0  0  0  0  0  0  0
  1 16  1  0
  2 16  1  0
  3 16  1  0
  4 11  2  0
  4 13  1  0
  5 11  1  0
  5 14  2  0
  6 13  1  0
  6 15  1  0
  7 13  2  0
  7 14  1  0
  8  9  1  0
  8 10  1  0
  9 11  1  0
 10 12  1  0
 14 16  1  0
 15 17  1  0
M  END
>  <PUBCHEM_COMPOUND_CID>  (1) 
32656

>  <PUBCHEM_CONFORMER_RMSD>  (1) 
0.8

>  <PUBCHEM_CONFORMER_DIVERSEORDER>  (1) 
1
32
34
38
27
9
37
10
16
41
11
42
35
40
17
26
39
13
6
12
24
29
19
28
21
30
3
36
4
20
14
5
33
31
15
2
18
22
7
25
23
8

>  <PUBCHEM_MMFF94_PARTIAL_CHARGES>  (1) 
14
1 -0.29
11 0.48
13 0.72
14 0.48
15 0.37
16 1.01
2 -0.29
27 0.4
3 -0.29
4 -0.62
5 -0.62
6 -0.87
7 -0.62
9 0.14

>  <PUBCHEM_EFFECTIVE_ROTOR_COUNT>  (1) 
6

>  <PUBCHEM_PHARMACOPHORE_FEATURES>  (1) 
4
1 12 hydrophobe
1 6 donor
4 4 6 7 13 cation
6 4 5 7 11 13 14 rings

>  <PUBCHEM_HEAVY_ATOM_COUNT>  (1) 
17

>  <PUBCHEM_ATOM_DEF_STEREO_COUNT>  (1) 
0

>  <PUBCHEM_ATOM_UDEF_STEREO_COUNT>  (1) 
0

>  <PUBCHEM_BOND_DEF_STEREO_COUNT>  (1) 
0

>  <PUBCHEM_BOND_UDEF_STEREO_COUNT>  (1) 
0

>  <PUBCHEM_ISOTOPIC_ATOM_COUNT>  (1) 
0

>  <PUBCHEM_COMPONENT_COUNT>  (1) 
1

>  <PUBCHEM_CACTVS_TAUTO_COUNT>  (1) 
9

>  <PUBCHEM_CONFORMER_ID>  (1) 
00007F9000000001

>  <PUBCHEM_MMFF94_ENERGY>  (1) 
25.704

>  <PUBCHEM_FEATURE_SELFOVERLAP>  (1) 
20.297

>  <PUBCHEM_SHAPE_FINGERPRINT>  (1) 
107951 10 18261969448588225494
11833330 49 18192421089975928776
12500047 106 18413386519396220324
12532896 13 18336548200938715202
12553582 1 18121770896971484594
12788726 201 18335411426127557675
12954195 1 18343021086052688325
14022347 108 17974550692126539699
14508225 48 18195236948002821157
15842332 3 17749934619063812048
16752209 62 18339909502590366050
167882 2 18050852113516917414
17539 30 18270109253036838999
20645476 183 18408322155542306076
20645477 70 17619054037898991437
20711985 344 18265599052002640426
20871999 31 18411697712190178404
21285901 2 18058743523091438495
21426921 1 18337393850409312652
21524375 3 18194670476065232697
2255824 54 17476071329302818705
22620623 9 18202280346491383572
23366157 5 17398675597374210641
23419403 2 17055881046292663975
23530152 11 18196642996073509525
23557571 272 18342465880579559348
23558518 356 18335129860962100563
23559900 14 18202001002868413008
23598288 3 17970088783931151828
23598291 2 18040984117175129698
2748010 2 18268154162707306411
298252 57 18263081033078738832
3057174 1 18124584289259212207
3084891 8 18272083920508399311
3759504 43 18261676982373063761
394222 165 17827918425429104185
458136 41 18053105017147981169
559249 180 18338232666581953386
57210444 14 18271248201375989190
58779409 8 18340480093237794541
633830 44 17240776073351140968
68521 5 18337952423305691235
7364860 26 17478880598454220305
81228 2 18193258900925184225
81539 233 17976532819760567965

>  <PUBCHEM_SHAPE_MULTIPOLES>  (1) 
335.54
7.86
4.59
1.09
14.1
0.08
-0.06
4.77
-2.43
-7.87
-0.54
0.23
-0.81
0.22

>  <PUBCHEM_SHAPE_SELFOVERLAP>  (1) 
638.264

>  <PUBCHEM_SHAPE_VOLUME>  (1) 
204

>  <PUBCHEM_COORDINATE_TYPE>  (1) 
2
5
10

$$$$
