32659
     RDKit          3D

 18 18  0  0  0  0  0  0  0  0999 V2000
   -0.8246   -3.3408   -1.4987 Cl  0  0  0  0  0  0  0  0  0  0  0  0
    1.7023   -3.3008   -0.1131 Cl  0  0  0  0  0  0  0  0  0  0  0  0
   -0.7378   -3.3441    1.4267 Cl  0  0  0  0  0  0  0  0  0  0  0  0
   -3.5954    0.8589    1.5411 Cl  0  0  0  0  0  0  0  0  0  0  0  0
   -2.6993    3.1557    0.0483 Cl  0  0  0  0  0  0  0  0  0  0  0  0
   -3.6928    0.8560   -1.3839 Cl  0  0  0  0  0  0  0  0  0  0  0  0
    2.0466    1.6645   -0.1122 N   0  0  0  0  0  0  0  0  0  0  0  0
   -0.2926    1.5202   -0.0344 N   0  0  0  0  0  0  0  0  0  0  0  0
    1.0588   -0.4619   -0.0866 N   0  0  0  0  0  0  0  0  0  0  0  0
   -1.3327   -0.6419   -0.0067 N   0  0  0  0  0  0  0  0  0  0  0  0
    3.3955    1.1019   -0.1576 C   0  0  0  0  0  0  0  0  0  0  0  0
    3.8257    0.6461    1.2338 C   0  0  0  0  0  0  0  0  0  0  0  0
    4.3611    2.1424   -0.7162 C   0  0  0  0  0  0  0  0  0  0  0  0
    0.9108    0.8893   -0.0769 C   0  0  0  0  0  0  0  0  0  0  0  0
   -1.3556    0.7006   -0.0014 C   0  0  0  0  0  0  0  0  0  0  0  0
   -0.0918   -1.1533   -0.0501 C   0  0  0  0  0  0  0  0  0  0  0  0
    0.0197   -2.6398   -0.0585 C   0  0  0  0  0  0  0  0  0  0  0  0
   -2.6980    1.3471    0.0461 C   0  0  0  0  0  0  0  0  0  0  0  0
  1 17  1  0
  2 17  1  0
  3 17  1  0
  4 18  1  0
  5 18  1  0
  6 18  1  0
  7 11  1  0
  7 14  1  0
  8 14  2  0
  8 15  1  0
  9 14  1  0
  9 16  2  0
 10 15  2  0
 10 16  1  0
 11 12  1  0
 11 13  1  0
 15 18  1  0
 16 17  1  0
M  END
>  <PUBCHEM_COMPOUND_CID>  (1) 
32659

>  <PUBCHEM_CONFORMER_RMSD>  (1) 
0.6

>  <PUBCHEM_CONFORMER_DIVERSEORDER>  (1) 
1
14
6
16
5
13
9
8
4
15
10
17
11
18
2
7
3
12

>  <PUBCHEM_MMFF94_PARTIAL_CHARGES>  (1) 
17
1 -0.29
10 -0.62
11 0.37
14 0.72
15 0.48
16 0.48
17 1.01
18 1.01
2 -0.29
20 0.4
3 -0.29
4 -0.29
5 -0.29
6 -0.29
7 -0.87
8 -0.62
9 -0.62

>  <PUBCHEM_EFFECTIVE_ROTOR_COUNT>  (1) 
4

>  <PUBCHEM_PHARMACOPHORE_FEATURES>  (1) 
4
1 7 donor
3 11 12 13 hydrophobe
4 7 8 9 14 cation
6 8 9 10 14 15 16 rings

>  <PUBCHEM_HEAVY_ATOM_COUNT>  (1) 
18

>  <PUBCHEM_ATOM_DEF_STEREO_COUNT>  (1) 
0

>  <PUBCHEM_ATOM_UDEF_STEREO_COUNT>  (1) 
0

>  <PUBCHEM_BOND_DEF_STEREO_COUNT>  (1) 
0

>  <PUBCHEM_BOND_UDEF_STEREO_COUNT>  (1) 
0

>  <PUBCHEM_ISOTOPIC_ATOM_COUNT>  (1) 
0

>  <PUBCHEM_COMPONENT_COUNT>  (1) 
1

>  <PUBCHEM_CACTVS_TAUTO_COUNT>  (1) 
3

>  <PUBCHEM_CONFORMER_ID>  (1) 
00007F9300000001

>  <PUBCHEM_MMFF94_ENERGY>  (1) 
34.1253

>  <PUBCHEM_FEATURE_SELFOVERLAP>  (1) 
20.297

>  <PUBCHEM_SHAPE_FINGERPRINT>  (1) 
11357001 24 18119249720945192770
121448 382 18129643305699637141
12173636 292 18338795718939629692
12553582 1 17401772320703375622
12592029 89 18337398149228406400
12759256 9 18053100614774620215
12788726 201 18049151469650201714
13140716 1 17977951515887471153
13380535 76 18409724062716012282
13583140 156 17023179461363960760
13681431 1 17692815882631424219
14508225 48 17622157292612274388
14648413 74 17904767674346014841
15042514 8 18191876836057072266
15309172 13 18409168813697403825
15502708 68 18267020561744818952
16752209 62 18123177172511838054
16945 1 18337676308706719765
18186145 218 18130234761261532516
18785283 64 18119826710951649112
19591789 44 18411708659877154038
204376 136 18409733975569428041
20510252 161 18198910407808687360
20600515 1 17118637068196480594
20645476 183 18041845133305430700
20645477 70 18122897643360846317
21524375 3 18411410700631176065
21731228 192 18410859853900902505
2255824 54 18124311597585716119
2334 1 18411700967405909135
23366157 5 17972039136864089012
23402539 116 18056755653507841967
23419403 2 17684978701446359202
23557571 272 17623838429244394680
23558518 356 18337378396859162026
23598294 1 18120375621105022192
257057 1 17260457601079650174
2748010 2 18337968812964391287
305870 269 18339360743082374441
3071541 12 18050571746325264380
3071541 236 18336537339029623320
3091708 16 9122881600429924912
352729 6 18337957916568986308
458136 41 18268445567400641560
474229 33 18337393846098352337
633830 44 18200040542347880364
7364860 26 17981322292036314948
81228 2 17835794575189854537
81539 233 18262230019747525381
84936 182 18057595473906504752

>  <PUBCHEM_SHAPE_MULTIPOLES>  (1) 
361.73
6.42
4.62
1.26
1.93
4.12
-0.12
-6.9
-0.2
0.98
0.35
-0.65
0.57
-0.28

>  <PUBCHEM_SHAPE_SELFOVERLAP>  (1) 
675.012

>  <PUBCHEM_SHAPE_VOLUME>  (1) 
222.1

>  <PUBCHEM_COORDINATE_TYPE>  (1) 
2
5
10

$$$$
