32655
     RDKit          3D

 16 16  0  0  0  0  0  0  0  0999 V2000
   -1.5177   -2.8263   -1.4686 Cl  0  0  0  0  0  0  0  0  0  0  0  0
    0.8823   -3.4351    0.0064 Cl  0  0  0  0  0  0  0  0  0  0  0  0
   -1.5344   -2.8188    1.4580 Cl  0  0  0  0  0  0  0  0  0  0  0  0
    0.2225    1.7412    0.0036 N   0  0  0  0  0  0  0  0  0  0  0  0
   -1.3495   -0.0717   -0.0014 N   0  0  0  0  0  0  0  0  0  0  0  0
    2.5186    1.2656    0.0093 N   0  0  0  0  0  0  0  0  0  0  0  0
    1.0065   -0.5266    0.0039 N   0  0  0  0  0  0  0  0  0  0  0  0
   -2.1454    2.2063   -0.0017 C   0  0  0  0  0  0  0  0  0  0  0  0
   -0.9989    1.2122    0.0003 C   0  0  0  0  0  0  0  0  0  0  0  0
   -3.0070    2.0744    1.2566 C   0  0  0  0  0  0  0  0  0  0  0  0
   -3.0009    2.0765   -1.2643 C   0  0  0  0  0  0  0  0  0  0  0  0
    1.1844    0.8043    0.0054 C   0  0  0  0  0  0  0  0  0  0  0  0
   -0.2858   -0.8913    0.0007 C   0  0  0  0  0  0  0  0  0  0  0  0
    3.6439    0.3839    0.0116 C   0  0  0  0  0  0  0  0  0  0  0  0
   -0.5684   -2.3549   -0.0006 C   0  0  0  0  0  0  0  0  0  0  0  0
    4.9495    1.1603   -0.0193 C   0  0  0  0  0  0  0  0  0  0  0  0
  1 15  1  0
  2 15  1  0
  3 15  1  0
  4  9  2  0
  4 12  1  0
  5  9  1  0
  5 13  2  0
  6 12  1  0
  6 14  1  0
  7 12  2  0
  7 13  1  0
  8  9  1  0
  8 10  1  0
  8 11  1  0
 13 15  1  0
 14 16  1  0
M  END
>  <PUBCHEM_COMPOUND_CID>  (1) 
32655

>  <PUBCHEM_CONFORMER_RMSD>  (1) 
0.6

>  <PUBCHEM_CONFORMER_DIVERSEORDER>  (1) 
1
20
17
21
8
19
9
23
13
16
4
5
3
14
15
22
10
6
12
11
18
7
2

>  <PUBCHEM_MMFF94_PARTIAL_CHARGES>  (1) 
14
1 -0.29
12 0.72
13 0.48
14 0.37
15 1.01
2 -0.29
26 0.4
3 -0.29
4 -0.62
5 -0.62
6 -0.87
7 -0.62
8 0.14
9 0.48

>  <PUBCHEM_EFFECTIVE_ROTOR_COUNT>  (1) 
4

>  <PUBCHEM_PHARMACOPHORE_FEATURES>  (1) 
4
1 6 donor
3 8 10 11 hydrophobe
4 4 6 7 12 cation
6 4 5 7 9 12 13 rings

>  <PUBCHEM_HEAVY_ATOM_COUNT>  (1) 
16

>  <PUBCHEM_ATOM_DEF_STEREO_COUNT>  (1) 
0

>  <PUBCHEM_ATOM_UDEF_STEREO_COUNT>  (1) 
0

>  <PUBCHEM_BOND_DEF_STEREO_COUNT>  (1) 
0

>  <PUBCHEM_BOND_UDEF_STEREO_COUNT>  (1) 
0

>  <PUBCHEM_ISOTOPIC_ATOM_COUNT>  (1) 
0

>  <PUBCHEM_COMPONENT_COUNT>  (1) 
1

>  <PUBCHEM_CACTVS_TAUTO_COUNT>  (1) 
9

>  <PUBCHEM_CONFORMER_ID>  (1) 
00007F8F00000001

>  <PUBCHEM_MMFF94_ENERGY>  (1) 
30.1685

>  <PUBCHEM_FEATURE_SELFOVERLAP>  (1) 
20.297

>  <PUBCHEM_SHAPE_FINGERPRINT>  (1) 
11357001 24 18262803011339785674
12507560 14 17619642709678403427
12532896 13 18410296878378059262
12553582 1 17690289626408544086
12759256 9 17692246335950991165
12788726 201 18267006439966482122
13140716 1 17978238475690380147
13380535 76 18337950091254487520
15309172 13 18337112254678165360
16752209 62 18265880527443619906
16945 1 16681192050617110851
204376 136 18409451340946474088
20510252 161 18270681007910691392
20645477 70 17834103157646581629
20711985 344 18194668487627243458
20871998 184 18268721669568281190
21041028 32 17831875902974634131
21499 59 18337946771187252421
21524375 3 18338513041081451241
2255824 54 17837204870862184997
2334 1 18410853218345169847
23402539 116 18199463449393876127
23419403 2 17196907710237417639
23557571 272 18056495052521128300
23598294 1 18336261353480046816
257057 1 17548972707835338022
2748010 2 18266194849939625447
3071541 12 17762620590387482276
3071541 236 18335969939506122080
3091708 16 9125412680555381584
352729 6 18411141342015975528
474229 33 18409451392939333657
559249 180 18335412440762972162
58779409 54 18268977855624546548
633830 44 17986117305401025828
7364860 26 17764307245350471037
81228 2 18121771987549799097
81539 233 18116992170133504653

>  <PUBCHEM_SHAPE_MULTIPOLES>  (1) 
314.96
5.58
4.35
1.12
7.62
3.73
0.01
-5.28
0.01
-2.5
0.01
-1.07
0.44
0

>  <PUBCHEM_SHAPE_SELFOVERLAP>  (1) 
604.044

>  <PUBCHEM_SHAPE_VOLUME>  (1) 
191

>  <PUBCHEM_COORDINATE_TYPE>  (1) 
2
5
10

$$$$
