32665
     RDKit          3D

 24 24  0  0  0  0  0  0  0  0999 V2000
    6.9389    2.3490   -1.4821 Cl  0  0  0  0  0  0  0  0  0  0  0  0
    4.6153    3.1506    0.0229 Cl  0  0  0  0  0  0  0  0  0  0  0  0
    6.9855    2.3203    1.4440 Cl  0  0  0  0  0  0  0  0  0  0  0  0
    2.6079   -1.3866    0.0161 N   0  0  0  0  0  0  0  0  0  0  0  0
    4.2428    0.2636    0.0048 N   0  0  0  0  0  0  0  0  0  0  0  0
    4.8300   -2.0629   -0.0175 N   0  0  0  0  0  0  0  0  0  0  0  0
    6.5511   -0.3909   -0.0293 N   0  0  0  0  0  0  0  0  0  0  0  0
   -4.8763   -0.5554    0.0558 C   0  0  0  0  0  0  0  0  0  0  0  0
   -3.5048    0.1261    0.0693 C   0  0  0  0  0  0  0  0  0  0  0  0
   -6.0466    0.4315    0.0274 C   0  0  0  0  0  0  0  0  0  0  0  0
   -2.3352   -0.8597    0.0236 C   0  0  0  0  0  0  0  0  0  0  0  0
   -7.3864   -0.3050   -0.0573 C   0  0  0  0  0  0  0  0  0  0  0  0
   -0.9913   -0.1278    0.0710 C   0  0  0  0  0  0  0  0  0  0  0  0
   -8.5972    0.6329   -0.0669 C   0  0  0  0  0  0  0  0  0  0  0  0
    0.1792   -1.1158    0.0551 C   0  0  0  0  0  0  0  0  0  0  0  0
   -9.9376   -0.1050   -0.0771 C   0  0  0  0  0  0  0  0  0  0  0  0
  -11.1096    0.8754   -0.0126 C   0  0  0  0  0  0  0  0  0  0  0  0
    1.5372   -0.4194    0.0362 C   0  0  0  0  0  0  0  0  0  0  0  0
  -12.4439    0.1472    0.0163 C   0  0  0  0  0  0  0  0  0  0  0  0
    3.9518   -1.0473    0.0005 C   0  0  0  0  0  0  0  0  0  0  0  0
    5.5614    0.5165   -0.0106 C   0  0  0  0  0  0  0  0  0  0  0  0
    6.1106   -1.6594   -0.0315 C   0  0  0  0  0  0  0  0  0  0  0  0
    5.9681    1.9506   -0.0065 C   0  0  0  0  0  0  0  0  0  0  0  0
    7.1491   -2.7286   -0.0515 C   0  0  0  0  0  0  0  0  0  0  0  0
  1 23  1  0
  2 23  1  0
  3 23  1  0
  4 18  1  0
  4 20  1  0
  5 20  2  0
  5 21  1  0
  6 20  1  0
  6 22  2  0
  7 21  2  0
  7 22  1  0
  8  9  1  0
  8 10  1  0
  9 11  1  0
 10 12  1  0
 11 13  1  0
 12 14  1  0
 13 15  1  0
 14 16  1  0
 15 18  1  0
 16 17  1  0
 17 19  1  0
 21 23  1  0
 22 24  1  0
M  END
>  <PUBCHEM_COMPOUND_CID>  (1) 
32665

>  <PUBCHEM_CONFORMER_RMSD>  (1) 
1.4

>  <PUBCHEM_CONFORMER_DIVERSEORDER>  (1) 
1
58
27
2
68
88
43
92
34
46
5
73
31
57
67
6
74
77
55
37
30
52
29
42
66
17
35
19
41
84
85
25
69
89
16
76
75
28
33
20
22
91
47
94
83
50
48
87
9
81
44
32
53
26
40
15
93
14
59
64
78
10
7
3
60
65
39
61
63
45
80
18
23
82
56
21
49
51
24
38
4
13
12
11
8
86
72
71
90
54
79
62
70
36

>  <PUBCHEM_MMFF94_PARTIAL_CHARGES>  (1) 
14
1 -0.29
18 0.37
2 -0.29
20 0.72
21 0.48
22 0.48
23 1.01
24 0.14
3 -0.29
4 -0.87
5 -0.62
50 0.4
6 -0.62
7 -0.62

>  <PUBCHEM_EFFECTIVE_ROTOR_COUNT>  (1) 
13

>  <PUBCHEM_PHARMACOPHORE_FEATURES>  (1) 
4
1 19 hydrophobe
1 4 donor
4 4 5 6 20 cation
6 5 6 7 20 21 22 rings

>  <PUBCHEM_HEAVY_ATOM_COUNT>  (1) 
24

>  <PUBCHEM_ATOM_DEF_STEREO_COUNT>  (1) 
0

>  <PUBCHEM_ATOM_UDEF_STEREO_COUNT>  (1) 
0

>  <PUBCHEM_BOND_DEF_STEREO_COUNT>  (1) 
0

>  <PUBCHEM_BOND_UDEF_STEREO_COUNT>  (1) 
0

>  <PUBCHEM_ISOTOPIC_ATOM_COUNT>  (1) 
0

>  <PUBCHEM_COMPONENT_COUNT>  (1) 
1

>  <PUBCHEM_CACTVS_TAUTO_COUNT>  (1) 
4

>  <PUBCHEM_CONFORMER_ID>  (1) 
00007F9900000001

>  <PUBCHEM_MMFF94_ENERGY>  (1) 
26.0686

>  <PUBCHEM_FEATURE_SELFOVERLAP>  (1) 
20.297

>  <PUBCHEM_SHAPE_FINGERPRINT>  (1) 
10411042 1 18122626051816676398
11211813 74 18201997767608481353
11315181 36 18273217500886950571
12089408 11 18202281404039911679
125118 31 18334296456975857956
13617811 41 15554454002434360880
14251764 46 12823290192452364599
14428016 248 17917998270521630121
15065858 18 18186518801249620635
15510794 2 18261116279895846539
155225 1 18410856594010668581
15840311 113 18408606963212964453
16120349 18 18411417324008927093
20157964 124 18411982464633124122
20771845 171 17275116015703054798
20812841 46 18334011687727225432
21315763 28 18412262800878921035
21362267 2 18339626916067309173
21362267 313 18192144898953477491
21792934 111 18411975858757048120
22224240 67 17748827419497791075
232437 2 18411699869165996783
23378982 89 15437118717576557684
33684 2 18272650118184608827
4073 2 18041565844282990338
59520647 147 16593958881446313916
59521099 67 17489869337492082520
59521120 56 14620253909534956075
59521506 201 17342927463935914424
60111433 81 17485917838536273120
67123 10 18411418407031697655
8209 1 18411418389693709323

>  <PUBCHEM_SHAPE_MULTIPOLES>  (1) 
479.59
41.6
2.61
0.81
133.67
0.83
0.01
10.89
0.73
-10.06
0.03
-1.39
0.47
0.06

>  <PUBCHEM_SHAPE_SELFOVERLAP>  (1) 
901.494

>  <PUBCHEM_SHAPE_VOLUME>  (1) 
294.3

>  <PUBCHEM_COORDINATE_TYPE>  (1) 
2
5
10

$$$$
