32662
     RDKit          3D

 16 16  0  0  0  0  0  0  0  0999 V2000
    3.5088    1.5691   -1.3272 Cl  0  0  0  0  0  0  0  0  0  0  0  0
    1.4180    3.0022    0.0444 Cl  0  0  0  0  0  0  0  0  0  0  0  0
    3.3415    1.5101    1.5940 Cl  0  0  0  0  0  0  0  0  0  0  0  0
   -1.8369   -0.7543   -0.2124 N   0  0  0  0  0  0  0  0  0  0  0  0
    0.2277    0.3482   -0.0731 N   0  0  0  0  0  0  0  0  0  0  0  0
    0.1163   -2.0482   -0.1180 N   0  0  0  0  0  0  0  0  0  0  0  0
    2.2442   -0.9487    0.0254 N   0  0  0  0  0  0  0  0  0  0  0  0
   -4.0996    0.2889   -0.2581 C   0  0  0  0  0  0  0  0  0  0  0  0
   -2.5765    0.5033   -0.2358 C   0  0  0  0  0  0  0  0  0  0  0  0
   -4.5236   -0.5322    0.9627 C   0  0  0  0  0  0  0  0  0  0  0  0
   -4.8781    1.6069   -0.2871 C   0  0  0  0  0  0  0  0  0  0  0  0
   -0.4636   -0.8197   -0.1325 C   0  0  0  0  0  0  0  0  0  0  0  0
    1.5610    0.2070    0.0037 C   0  0  0  0  0  0  0  0  0  0  0  0
    1.4567   -2.0344   -0.0385 C   0  0  0  0  0  0  0  0  0  0  0  0
    2.3641    1.4609    0.0715 C   0  0  0  0  0  0  0  0  0  0  0  0
    2.1398   -3.3591   -0.0192 C   0  0  0  0  0  0  0  0  0  0  0  0
  1 15  1  0
  2 15  1  0
  3 15  1  0
  4  9  1  0
  4 12  1  0
  5 12  2  0
  5 13  1  0
  6 12  1  0
  6 14  2  0
  7 13  2  0
  7 14  1  0
  8  9  1  0
  8 10  1  0
  8 11  1  0
 13 15  1  0
 14 16  1  0
M  END
>  <PUBCHEM_COMPOUND_CID>  (1) 
32662

>  <PUBCHEM_CONFORMER_RMSD>  (1) 
0.6

>  <PUBCHEM_CONFORMER_DIVERSEORDER>  (1) 
2
15
3
9
14
8
13
4
10
7
1
11
5
12
6

>  <PUBCHEM_MMFF94_PARTIAL_CHARGES>  (1) 
14
1 -0.29
12 0.72
13 0.48
14 0.48
15 1.01
16 0.14
2 -0.29
26 0.4
3 -0.29
4 -0.87
5 -0.62
6 -0.62
7 -0.62
9 0.37

>  <PUBCHEM_EFFECTIVE_ROTOR_COUNT>  (1) 
4

>  <PUBCHEM_PHARMACOPHORE_FEATURES>  (1) 
4
1 4 donor
3 8 10 11 hydrophobe
4 4 5 6 12 cation
6 5 6 7 12 13 14 rings

>  <PUBCHEM_HEAVY_ATOM_COUNT>  (1) 
16

>  <PUBCHEM_ATOM_DEF_STEREO_COUNT>  (1) 
0

>  <PUBCHEM_ATOM_UDEF_STEREO_COUNT>  (1) 
0

>  <PUBCHEM_BOND_DEF_STEREO_COUNT>  (1) 
0

>  <PUBCHEM_BOND_UDEF_STEREO_COUNT>  (1) 
0

>  <PUBCHEM_ISOTOPIC_ATOM_COUNT>  (1) 
0

>  <PUBCHEM_COMPONENT_COUNT>  (1) 
1

>  <PUBCHEM_CACTVS_TAUTO_COUNT>  (1) 
4

>  <PUBCHEM_CONFORMER_ID>  (1) 
00007F9600000002

>  <PUBCHEM_MMFF94_ENERGY>  (1) 
31.5597

>  <PUBCHEM_FEATURE_SELFOVERLAP>  (1) 
20.297

>  <PUBCHEM_SHAPE_FINGERPRINT>  (1) 
10465860 228 18412263908985771137
10608611 8 18334857191348146437
10980938 120 18410853265600314151
11471102 20 18411133598221251759
11543360 7 15195283196188122273
14123255 52 18339641268982037021
14178000 15 18197213637838506852
14178342 30 18196635496580822803
15442244 35 18052821351727062089
16945 1 17689994957392533318
17134986 127 18265619955988362628
1798214 55 18341610477048458401
18186145 218 18060146487043305193
20559304 39 18341329994235183608
20645477 70 18340763733421490879
20671657 1 18342737403399561847
20681677 76 18335419046227306063
21041028 32 18123746448508689052
212916 134 17984961925160066536
21524375 3 18189886698625735710
221490 88 18335711490171065899
22289505 5 18265048042332777677
2255824 54 18338235951351239639
22854114 111 18413386544817637097
22943178 12 18186804639343411227
23419403 2 17756114849269463670
23559900 14 18189054201025701531
23598291 2 18059564763925042271
25 1 18408887368874667420
2748010 2 17977082597054093206
3060560 45 18411985801437591748
3071541 37 18408610249058176374
3091708 16 9619406788232565250
458136 41 18336559290528546774
474 4 18339639040057475809
49207404 50 18261682579211102051
5104073 3 18337393743409599587
633830 44 18130227189049612629
7364860 26 18342735174580638414
81228 2 17116068647704629842
81539 233 18333450958250751662

>  <PUBCHEM_SHAPE_MULTIPOLES>  (1) 
314.96
8.24
3.26
0.99
11.68
1.43
0.18
-3.94
0.51
-3.18
-0.07
-0.73
-0.43
0.41

>  <PUBCHEM_SHAPE_SELFOVERLAP>  (1) 
600.749

>  <PUBCHEM_SHAPE_VOLUME>  (1) 
191.6

>  <PUBCHEM_COORDINATE_TYPE>  (1) 
2
5
10

$$$$
