32663
     RDKit          3D

 17 17  0  0  0  0  0  0  0  0999 V2000
    3.7113   -1.9626    1.4437 Cl  0  0  0  0  0  0  0  0  0  0  0  0
    1.4575   -3.0640    0.0247 Cl  0  0  0  0  0  0  0  0  0  0  0  0
    3.6626   -1.9718   -1.4826 Cl  0  0  0  0  0  0  0  0  0  0  0  0
   -1.1145    1.1971    0.0486 N   0  0  0  0  0  0  0  0  0  0  0  0
    0.7350   -0.2440    0.0236 N   0  0  0  0  0  0  0  0  0  0  0  0
    1.0333    2.1368    0.0012 N   0  0  0  0  0  0  0  0  0  0  0  0
    2.9457    0.6877   -0.0253 N   0  0  0  0  0  0  0  0  0  0  0  0
   -3.4919    0.6300    0.0334 C   0  0  0  0  0  0  0  0  0  0  0  0
   -4.5318   -0.4947    0.0108 C   0  0  0  0  0  0  0  0  0  0  0  0
   -2.0588    0.1062    0.0741 C   0  0  0  0  0  0  0  0  0  0  0  0
   -5.9538    0.0664   -0.0183 C   0  0  0  0  0  0  0  0  0  0  0  0
   -6.9900   -1.0444   -0.0817 C   0  0  0  0  0  0  0  0  0  0  0  0
    0.2606    1.0246    0.0237 C   0  0  0  0  0  0  0  0  0  0  0  0
    2.0745   -0.3339   -0.0016 C   0  0  0  0  0  0  0  0  0  0  0  0
    2.3535    1.8929   -0.0224 C   0  0  0  0  0  0  0  0  0  0  0  0
    2.6534   -1.7074   -0.0035 C   0  0  0  0  0  0  0  0  0  0  0  0
    3.2534    3.0811   -0.0481 C   0  0  0  0  0  0  0  0  0  0  0  0
  1 16  1  0
  2 16  1  0
  3 16  1  0
  4 10  1  0
  4 13  1  0
  5 13  2  0
  5 14  1  0
  6 13  1  0
  6 15  2  0
  7 14  2  0
  7 15  1  0
  8  9  1  0
  8 10  1  0
  9 11  1  0
 11 12  1  0
 14 16  1  0
 15 17  1  0
M  END
>  <PUBCHEM_COMPOUND_CID>  (1) 
32663

>  <PUBCHEM_CONFORMER_RMSD>  (1) 
0.8

>  <PUBCHEM_CONFORMER_DIVERSEORDER>  (1) 
1
46
43
9
41
32
37
31
34
16
38
25
26
45
39
15
40
13
36
3
20
30
2
8
19
22
18
42
7
35
4
5
17
28
33
10
29
14
44
27
21
12
24
6
11
23

>  <PUBCHEM_MMFF94_PARTIAL_CHARGES>  (1) 
14
1 -0.29
10 0.37
13 0.72
14 0.48
15 0.48
16 1.01
17 0.14
2 -0.29
26 0.4
3 -0.29
4 -0.87
5 -0.62
6 -0.62
7 -0.62

>  <PUBCHEM_EFFECTIVE_ROTOR_COUNT>  (1) 
6

>  <PUBCHEM_PHARMACOPHORE_FEATURES>  (1) 
4
1 12 hydrophobe
1 4 donor
4 4 5 6 13 cation
6 5 6 7 13 14 15 rings

>  <PUBCHEM_HEAVY_ATOM_COUNT>  (1) 
17

>  <PUBCHEM_ATOM_DEF_STEREO_COUNT>  (1) 
0

>  <PUBCHEM_ATOM_UDEF_STEREO_COUNT>  (1) 
0

>  <PUBCHEM_BOND_DEF_STEREO_COUNT>  (1) 
0

>  <PUBCHEM_BOND_UDEF_STEREO_COUNT>  (1) 
0

>  <PUBCHEM_ISOTOPIC_ATOM_COUNT>  (1) 
0

>  <PUBCHEM_COMPONENT_COUNT>  (1) 
1

>  <PUBCHEM_CACTVS_TAUTO_COUNT>  (1) 
4

>  <PUBCHEM_CONFORMER_ID>  (1) 
00007F9700000001

>  <PUBCHEM_MMFF94_ENERGY>  (1) 
26.1613

>  <PUBCHEM_FEATURE_SELFOVERLAP>  (1) 
20.297

>  <PUBCHEM_SHAPE_FINGERPRINT>  (1) 
10912923 1 17988649618909375657
12107183 9 17910403792957568633
12553582 1 18121791529877771146
12596602 18 16988840562810316715
12730499 353 18263652921085670257
13073987 5 18412267259941418761
13167823 11 18344145895834325287
13464513 79 18272654498307686398
13533116 47 18272934947224446073
13836976 161 18335144249503053204
13955234 65 18340484559935269393
14251740 57 17917714569712967759
14252887 29 17916865703870988902
15250474 111 18130211766708562087
15477762 27 18411420570676953846
17844677 252 18409453557972304261
17859628 70 18412547582938667423
19427546 62 18120374517130134805
20028762 73 18273492360644374055
20369508 70 18334854987444484570
20388580 30 18271534095805462606
20554085 129 17844522413452482552
20645477 70 18409448089956320215
20871998 22 18126284143295225062
21197605 99 18194406817315317331
220451 1 17988085608209671911
22224240 67 18270108158332245320
2255824 54 18410296904343022244
23081809 10 11963385263966852265
23559900 14 18408322207292786905
239999 70 18342462538430442878
29717793 49 18272647927466211269
3004659 81 18409732842109284759
312423 11 18200607920918823385
33824 294 18409166648970167369
3421961 26 18409726236053795297
42630746 31 18412544340311854568
465052 167 18272939301878653575
5104073 3 18411703175895098753
5281201 14 18040150708825764045
6025842 7 18411419557049088317
621550 34 18188200009229467933
7364860 26 18342178873542520476
81228 2 17402606351971075928
8272917 22 18412548738337286373
9709674 26 18261960747205601315
9841814 1 18335138648854798978

>  <PUBCHEM_SHAPE_MULTIPOLES>  (1) 
335.54
12.23
3.2
0.89
29.67
0.4
0.02
-4.44
0.26
-5.18
0.03
-1.07
-0.56
-0.08

>  <PUBCHEM_SHAPE_SELFOVERLAP>  (1) 
636.015

>  <PUBCHEM_SHAPE_VOLUME>  (1) 
204.5

>  <PUBCHEM_COORDINATE_TYPE>  (1) 
2
5
10

$$$$
