32674
     RDKit          3D

 18 18  0  0  0  0  0  0  0  0999 V2000
    3.0161    3.5481   -1.6203 Cl  0  0  0  0  0  0  0  0  0  0  0  0
    3.2316   -0.9823    3.2001 Cl  0  0  0  0  0  0  0  0  0  0  0  0
    0.6929   -2.5838   -0.7552 O   0  0  0  0  0  0  0  0  0  0  0  0
   -4.5024    0.6784    0.4421 O   0  0  0  0  0  0  0  0  0  0  0  0
   -3.0526    2.4144    0.6683 O   0  0  0  0  0  0  0  0  0  0  0  0
    1.4530    0.0804   -0.2656 N   0  0  0  0  0  0  0  0  0  0  0  0
    0.1002   -0.3219   -0.2190 C   0  0  0  0  0  0  0  0  0  0  0  0
    1.8826    1.0975   -1.2033 C   0  0  0  0  0  0  0  0  0  0  0  0
    2.4237   -0.5096    0.6334 C   0  0  0  0  0  0  0  0  0  0  0  0
   -0.2545   -1.6483   -0.4645 C   0  0  0  0  0  0  0  0  0  0  0  0
   -0.8849    0.6203    0.0769 C   0  0  0  0  0  0  0  0  0  0  0  0
    2.4743    2.2947   -0.4762 C   0  0  0  0  0  0  0  0  0  0  0  0
    2.0501   -0.2521    2.0847 C   0  0  0  0  0  0  0  0  0  0  0  0
   -2.2249    0.2359    0.1271 C   0  0  0  0  0  0  0  0  0  0  0  0
   -1.5944   -2.0326   -0.4142 C   0  0  0  0  0  0  0  0  0  0  0  0
   -2.5797   -1.0905   -0.1186 C   0  0  0  0  0  0  0  0  0  0  0  0
   -3.2526    1.2179    0.4351 C   0  0  0  0  0  0  0  0  0  0  0  0
    1.0216   -2.7668   -2.1307 C   0  0  0  0  0  0  0  0  0  0  0  0
  1 12  1  0
  2 13  1  0
  3 10  1  0
  3 18  1  0
  4 17  1  0
  5 17  2  0
  6  7  1  0
  6  8  1  0
  6  9  1  0
  7 10  2  0
  7 11  1  0
  8 12  1  0
  9 13  1  0
 10 15  1  0
 11 14  2  0
 14 16  1  0
 14 17  1  0
 15 16  2  0
M  END
>  <PUBCHEM_COMPOUND_CID>  (1) 
32674

>  <PUBCHEM_CONFORMER_RMSD>  (1) 
0.8

>  <PUBCHEM_CONFORMER_DIVERSEORDER>  (1) 
1
2
26
8
14
9
29
23
12
31
25
34
17
32
35
6
24
37
16
27
39
30
36
11
19
7
28
38
15
21
22
33
20
13
10
4
5
18
3

>  <PUBCHEM_MMFF94_PARTIAL_CHARGES>  (1) 
22
1 -0.29
10 0.08
11 -0.15
12 0.29
13 0.29
14 0.09
15 -0.15
16 -0.15
17 0.63
18 0.28
2 -0.29
23 0.15
28 0.15
29 0.15
3 -0.36
33 0.5
4 -0.65
5 -0.57
6 -0.84
7 0.1
8 0.37
9 0.37

>  <PUBCHEM_EFFECTIVE_ROTOR_COUNT>  (1) 
7

>  <PUBCHEM_PHARMACOPHORE_FEATURES>  (1) 
6
1 3 acceptor
1 4 acceptor
1 5 acceptor
1 6 cation
3 4 5 17 anion
6 7 10 11 14 15 16 rings

>  <PUBCHEM_HEAVY_ATOM_COUNT>  (1) 
18

>  <PUBCHEM_ATOM_DEF_STEREO_COUNT>  (1) 
0

>  <PUBCHEM_ATOM_UDEF_STEREO_COUNT>  (1) 
0

>  <PUBCHEM_BOND_DEF_STEREO_COUNT>  (1) 
0

>  <PUBCHEM_BOND_UDEF_STEREO_COUNT>  (1) 
0

>  <PUBCHEM_ISOTOPIC_ATOM_COUNT>  (1) 
0

>  <PUBCHEM_COMPONENT_COUNT>  (1) 
1

>  <PUBCHEM_CACTVS_TAUTO_COUNT>  (1) 
1

>  <PUBCHEM_CONFORMER_ID>  (1) 
00007FA200000001

>  <PUBCHEM_MMFF94_ENERGY>  (1) 
72.4851

>  <PUBCHEM_FEATURE_SELFOVERLAP>  (1) 
30.504

>  <PUBCHEM_SHAPE_FINGERPRINT>  (1) 
10382601 240 17968107433813454020
11640471 11 18044933717160204828
12173636 292 18127137595724627749
13583140 156 17458059357413020329
13965767 371 18335701606998143792
14178342 30 18270385114792383155
14648413 74 18266762227956960255
14817 1 12061286216647159354
15490181 8 18412547613103535503
16945 1 18188755163595278183
17357990 137 18409163320560430024
17980427 23 18195218131592691956
20510252 161 17984722257215432441
20511035 2 18130786698802957511
21524375 3 18044948002321898572
21756936 100 17174075492868800452
22149856 69 18059583478120813619
229495 10 17246074752043391487
23419403 2 16907193895763700662
23557571 272 16701168862649457187
23559900 14 18129667391944765935
23598291 2 18189044455945003220
23598294 1 18054231204537635355
298252 57 18195828464142300572
394222 165 18188779460536787872
531348 171 17619660272633341948
68419 9 17907556366683491646
7097593 13 17895462635962007914
7364860 26 18199483081404257279
7615 1 18263907994660846949
81228 2 16910583062546528990
90316 7 17754429302033107632

>  <PUBCHEM_SHAPE_MULTIPOLES>  (1) 
351.58
5.92
3.43
2.14
2.84
1.48
-1.07
3.92
-2.27
-2
1.7
-2.7
-1.43
-2.88

>  <PUBCHEM_SHAPE_SELFOVERLAP>  (1) 
697.133

>  <PUBCHEM_SHAPE_VOLUME>  (1) 
212.1

>  <PUBCHEM_COORDINATE_TYPE>  (1) 
2
5
10

$$$$
