32670
     RDKit          3D

 15 15  0  0  0  0  0  0  0  0999 V2000
   -3.2295    1.1683    1.5740 Cl  0  0  0  0  0  0  0  0  0  0  0  0
   -1.5654    2.9032   -0.0157 Cl  0  0  0  0  0  0  0  0  0  0  0  0
   -3.4050    1.1227   -1.3470 Cl  0  0  0  0  0  0  0  0  0  0  0  0
    4.8361    0.3618    0.7506 O   0  0  0  0  0  0  0  0  0  0  0  0
    2.2402   -0.2994   -0.1999 N   0  0  0  0  0  0  0  0  0  0  0  0
    0.0277    0.4676   -0.0776 N   0  0  0  0  0  0  0  0  0  0  0  0
    0.5143   -1.8821   -0.0801 N   0  0  0  0  0  0  0  0  0  0  0  0
   -1.7602   -1.1280    0.0455 N   0  0  0  0  0  0  0  0  0  0  0  0
    2.7749    1.0533   -0.2467 C   0  0  0  0  0  0  0  0  0  0  0  0
    0.8919   -0.5786   -0.1171 C   0  0  0  0  0  0  0  0  0  0  0  0
    4.2892    1.0277   -0.3800 C   0  0  0  0  0  0  0  0  0  0  0  0
   -1.2668    0.1201    0.0023 C   0  0  0  0  0  0  0  0  0  0  0  0
   -0.8117   -2.0775    0.0002 C   0  0  0  0  0  0  0  0  0  0  0  0
   -2.2572    1.2333    0.0480 C   0  0  0  0  0  0  0  0  0  0  0  0
   -1.2785   -3.4925    0.0434 C   0  0  0  0  0  0  0  0  0  0  0  0
  1 14  1  0
  2 14  1  0
  3 14  1  0
  4 11  1  0
  5  9  1  0
  5 10  1  0
  6 10  2  0
  6 12  1  0
  7 10  1  0
  7 13  2  0
  8 12  2  0
  8 13  1  0
  9 11  1  0
 12 14  1  0
 13 15  1  0
M  END
>  <PUBCHEM_COMPOUND_CID>  (1) 
32670

>  <PUBCHEM_CONFORMER_RMSD>  (1) 
0.6

>  <PUBCHEM_CONFORMER_DIVERSEORDER>  (1) 
1
27
20
7
24
17
4
21
14
25
2
22
13
12
6
15
26
5
16
3
18
8
11
23
10
9
19

>  <PUBCHEM_MMFF94_PARTIAL_CHARGES>  (1) 
17
1 -0.29
10 0.72
11 0.28
12 0.48
13 0.48
14 1.01
15 0.14
18 0.4
2 -0.29
24 0.4
3 -0.29
4 -0.68
5 -0.87
6 -0.62
7 -0.62
8 -0.62
9 0.37

>  <PUBCHEM_EFFECTIVE_ROTOR_COUNT>  (1) 
4

>  <PUBCHEM_PHARMACOPHORE_FEATURES>  (1) 
5
1 4 acceptor
1 4 donor
1 5 donor
4 5 6 7 10 cation
6 6 7 8 10 12 13 rings

>  <PUBCHEM_HEAVY_ATOM_COUNT>  (1) 
15

>  <PUBCHEM_ATOM_DEF_STEREO_COUNT>  (1) 
0

>  <PUBCHEM_ATOM_UDEF_STEREO_COUNT>  (1) 
0

>  <PUBCHEM_BOND_DEF_STEREO_COUNT>  (1) 
0

>  <PUBCHEM_BOND_UDEF_STEREO_COUNT>  (1) 
0

>  <PUBCHEM_ISOTOPIC_ATOM_COUNT>  (1) 
0

>  <PUBCHEM_COMPONENT_COUNT>  (1) 
1

>  <PUBCHEM_CACTVS_TAUTO_COUNT>  (1) 
4

>  <PUBCHEM_CONFORMER_ID>  (1) 
00007F9E00000001

>  <PUBCHEM_MMFF94_ENERGY>  (1) 
29.1141

>  <PUBCHEM_FEATURE_SELFOVERLAP>  (1) 
25.374

>  <PUBCHEM_SHAPE_FINGERPRINT>  (1) 
11357001 24 18189903191173779554
11543360 7 15697989747871887332
13380535 76 18413385419483594670
13583140 156 17094958840284087880
14648413 74 17471579828376918025
14897335 6 18409724041515534502
15042514 8 18336552727802980131
15309172 13 18337399253240911257
16945 1 17977950077506131663
1741750 31 18343588438606011898
18186145 218 18199760154377118908
204376 136 18409452453442723857
20510252 161 18341617043989838835
20645477 56 18411143545566203060
20671657 1 17404588775150791501
21339142 149 18060419144362298101
21499 59 18337384933893656717
21524375 3 18271520905755304558
2306618 200 18200886187385873482
23402539 116 18271518814459835023
23419403 2 17199376337501814507
23500284 214 18272943712614634176
23557571 272 18057907898691246332
23559900 14 18272658952926854388
23598294 1 18264207079209433882
2748010 2 18264224533925012399
305870 269 18192149291765984920
3071541 12 17763466118976347487
3071541 236 18335691780122948491
474229 33 18408886248400068267
5706482 22 18411415111573249058
6333449 129 18411983593423344605
7364860 26 17762903164849167711
81228 2 18194693789290451891

>  <PUBCHEM_SHAPE_MULTIPOLES>  (1) 
288.51
6.68
3.2
0.98
8.64
2.39
-0.1
-4.44
-0.46
-2
0.01
-0.91
-0.38
-0.08

>  <PUBCHEM_SHAPE_SELFOVERLAP>  (1) 
552.353

>  <PUBCHEM_SHAPE_VOLUME>  (1) 
175.9

>  <PUBCHEM_COORDINATE_TYPE>  (1) 
2
5
10

$$$$
