32673
     RDKit          3D

 16 16  0  0  0  0  0  0  0  0999 V2000
    2.0726   -2.4137   -1.4645 Cl  0  0  0  0  0  0  0  0  0  0  0  0
    3.7832   -0.6191    0.0051 Cl  0  0  0  0  0  0  0  0  0  0  0  0
    2.0596   -2.4171    1.4622 Cl  0  0  0  0  0  0  0  0  0  0  0  0
   -2.9408   -1.4961    1.4647 Cl  0  0  0  0  0  0  0  0  0  0  0  0
   -3.9050    0.7874   -0.0058 Cl  0  0  0  0  0  0  0  0  0  0  0  0
   -2.9293   -1.5049   -1.4619 Cl  0  0  0  0  0  0  0  0  0  0  0  0
   -0.2428   -0.9096    0.0003 N   0  0  0  0  0  0  0  0  0  0  0  0
   -1.0489    1.3504   -0.0004 N   0  0  0  0  0  0  0  0  0  0  0  0
    1.3114    0.9186    0.0003 N   0  0  0  0  0  0  0  0  0  0  0  0
    0.4937    3.1163   -0.0009 N   0  0  0  0  0  0  0  0  0  0  0  0
    0.9939   -0.3861    0.0005 C   0  0  0  0  0  0  0  0  0  0  0  0
   -1.2138    0.0178   -0.0002 C   0  0  0  0  0  0  0  0  0  0  0  0
    0.2397    1.7276   -0.0003 C   0  0  0  0  0  0  0  0  0  0  0  0
    2.1295   -1.3516    0.0009 C   0  0  0  0  0  0  0  0  0  0  0  0
   -2.6177   -0.4830   -0.0009 C   0  0  0  0  0  0  0  0  0  0  0  0
    1.8146    3.6630    0.0009 C   0  0  0  0  0  0  0  0  0  0  0  0
  1 14  1  0
  2 14  1  0
  3 14  1  0
  4 15  1  0
  5 15  1  0
  6 15  1  0
  7 11  2  0
  7 12  1  0
  8 12  2  0
  8 13  1  0
  9 11  1  0
  9 13  2  0
 10 13  1  0
 10 16  1  0
 11 14  1  0
 12 15  1  0
M  END
>  <PUBCHEM_COMPOUND_CID>  (1) 
32673

>  <PUBCHEM_CONFORMER_RMSD>  (1) 
0.6

>  <PUBCHEM_CONFORMER_DIVERSEORDER>  (1) 
1
3
2
4

>  <PUBCHEM_MMFF94_PARTIAL_CHARGES>  (1) 
17
1 -0.29
10 -0.87
11 0.48
12 0.48
13 0.72
14 1.01
15 1.01
16 0.37
17 0.4
2 -0.29
3 -0.29
4 -0.29
5 -0.29
6 -0.29
7 -0.62
8 -0.62
9 -0.62

>  <PUBCHEM_EFFECTIVE_ROTOR_COUNT>  (1) 
3

>  <PUBCHEM_PHARMACOPHORE_FEATURES>  (1) 
3
1 10 donor
4 8 9 10 13 cation
6 7 8 9 11 12 13 rings

>  <PUBCHEM_HEAVY_ATOM_COUNT>  (1) 
16

>  <PUBCHEM_ATOM_DEF_STEREO_COUNT>  (1) 
0

>  <PUBCHEM_ATOM_UDEF_STEREO_COUNT>  (1) 
0

>  <PUBCHEM_BOND_DEF_STEREO_COUNT>  (1) 
0

>  <PUBCHEM_BOND_UDEF_STEREO_COUNT>  (1) 
0

>  <PUBCHEM_ISOTOPIC_ATOM_COUNT>  (1) 
0

>  <PUBCHEM_COMPONENT_COUNT>  (1) 
1

>  <PUBCHEM_CACTVS_TAUTO_COUNT>  (1) 
3

>  <PUBCHEM_CONFORMER_ID>  (1) 
00007FA100000001

>  <PUBCHEM_MMFF94_ENERGY>  (1) 
33.717

>  <PUBCHEM_FEATURE_SELFOVERLAP>  (1) 
15.223

>  <PUBCHEM_SHAPE_FINGERPRINT>  (1) 
108231 29 18261122893348761018
116883 192 17982452590031730702
12553582 1 18338229358523452307
12707595 3 18335710433361275683
12759256 9 18341051933694306150
12788726 201 17975978657109358682
13140716 1 18121221149419834032
13538477 17 17611470727133192082
14022347 108 18050024206893862095
14115302 16 17531541866701610191
14252887 29 18271536303181828050
14648413 74 18336828684157918705
16945 1 18266458900181197127
20510252 161 17836924499676518224
20645476 183 16884976545269542428
20645477 70 18267858574795427343
20711985 344 17834126242425617934
20871998 184 17983008947162938159
20871998 22 18269847431809563918
21041028 32 18339943574777000033
21524375 3 17691968584426401344
2255824 54 18268145529517034446
2334 1 18338234864713327504
23388829 49 18272080634451494876
23402539 116 18340760464882968990
23419403 2 17826194550537743996
23557571 272 18194685856939147254
23598291 2 18129945701641187005
23598294 1 17977104552642093368
2748010 2 18268987592352368572
305870 269 18122906700888093729
3071541 12 18338800138139106596
3091708 16 9574885350357352656
34934 24 18338511937264241671
352729 6 17112693151096667852
4175511 71 18269008500485358409
5902787 121 18260829297589219115
6992083 37 18059584520879935851
7364860 26 18341051937968388725
81228 2 17979922609470935072

>  <PUBCHEM_SHAPE_MULTIPOLES>  (1) 
320.57
5.74
3.64
1.21
2.35
3.63
0
-2.39
0
-2.5
0
0.22
-1.16
0

>  <PUBCHEM_SHAPE_SELFOVERLAP>  (1) 
597.573

>  <PUBCHEM_SHAPE_VOLUME>  (1) 
196.5

>  <PUBCHEM_COORDINATE_TYPE>  (1) 
2
5
10

$$$$
