32688
     RDKit          3D

 17 17  0  0  0  0  0  0  0  0999 V2000
    5.3322    1.3868    0.5637 Cl  0  0  0  0  0  0  0  0  0  0  0  0
    1.1790   -4.3300   -0.2242 Cl  0  0  0  0  0  0  0  0  0  0  0  0
   -3.2043   -1.0157    0.0258 O   0  0  0  0  0  0  0  0  0  0  0  0
   -4.0524    1.0142    0.7035 O   0  0  0  0  0  0  0  0  0  0  0  0
    1.7276   -0.3335   -0.0339 N   0  0  0  0  0  0  0  0  0  0  0  0
    3.0548    0.1691   -0.3281 C   0  0  0  0  0  0  0  0  0  0  0  0
    1.5744   -1.7032    0.4144 C   0  0  0  0  0  0  0  0  0  0  0  0
    0.6007    0.5039   -0.1693 C   0  0  0  0  0  0  0  0  0  0  0  0
   -0.6728    0.0112    0.1150 C   0  0  0  0  0  0  0  0  0  0  0  0
    0.7599    1.8247   -0.5886 C   0  0  0  0  0  0  0  0  0  0  0  0
    3.6957    0.7747    0.9108 C   0  0  0  0  0  0  0  0  0  0  0  0
    1.3583   -2.6415   -0.7626 C   0  0  0  0  0  0  0  0  0  0  0  0
   -1.7872    0.8392   -0.0199 C   0  0  0  0  0  0  0  0  0  0  0  0
   -0.3545    2.6528   -0.7235 C   0  0  0  0  0  0  0  0  0  0  0  0
   -1.6280    2.1600   -0.4392 C   0  0  0  0  0  0  0  0  0  0  0  0
   -3.1154    0.3263    0.2772 C   0  0  0  0  0  0  0  0  0  0  0  0
   -4.4679   -1.6390    0.2790 C   0  0  0  0  0  0  0  0  0  0  0  0
  1 11  1  0
  2 12  1  0
  3 16  1  0
  3 17  1  0
  4 16  2  0
  5  6  1  0
  5  7  1  0
  5  8  1  0
  6 11  1  0
  7 12  1  0
  8  9  2  0
  8 10  1  0
  9 13  1  0
 10 14  2  0
 13 15  2  0
 13 16  1  0
 14 15  1  0
M  END
>  <PUBCHEM_COMPOUND_CID>  (1) 
32688

>  <PUBCHEM_CONFORMER_RMSD>  (1) 
0.8

>  <PUBCHEM_CONFORMER_DIVERSEORDER>  (1) 
5
33
69
72
47
89
12
51
28
86
82
32
49
84
26
67
11
39
41
43
46
18
75
57
14
50
78
83
68
4
77
52
61
56
36
38
71
64
37
74
92
66
27
40
16
54
87
60
90
65
91
58
6
45
21
31
13
80
34
63
73
1
20
25
8
59
30
42
70
79
29
76
22
9
55
10
44
19
48
7
2
81
85
53
88
15
3
24
23
35
62
17

>  <PUBCHEM_MMFF94_PARTIAL_CHARGES>  (1) 
21
1 -0.29
10 -0.15
11 0.29
12 0.29
13 0.09
14 -0.15
15 -0.15
16 0.63
17 0.28
2 -0.29
22 0.15
23 0.15
28 0.15
29 0.15
3 -0.43
4 -0.57
5 -0.84
6 0.37
7 0.37
8 0.1
9 -0.15

>  <PUBCHEM_EFFECTIVE_ROTOR_COUNT>  (1) 
7

>  <PUBCHEM_PHARMACOPHORE_FEATURES>  (1) 
3
1 4 acceptor
1 5 cation
6 8 9 10 13 14 15 rings

>  <PUBCHEM_HEAVY_ATOM_COUNT>  (1) 
17

>  <PUBCHEM_ATOM_DEF_STEREO_COUNT>  (1) 
0

>  <PUBCHEM_ATOM_UDEF_STEREO_COUNT>  (1) 
0

>  <PUBCHEM_BOND_DEF_STEREO_COUNT>  (1) 
0

>  <PUBCHEM_BOND_UDEF_STEREO_COUNT>  (1) 
0

>  <PUBCHEM_ISOTOPIC_ATOM_COUNT>  (1) 
0

>  <PUBCHEM_COMPONENT_COUNT>  (1) 
1

>  <PUBCHEM_CACTVS_TAUTO_COUNT>  (1) 
1

>  <PUBCHEM_CONFORMER_ID>  (1) 
00007FB000000005

>  <PUBCHEM_MMFF94_ENERGY>  (1) 
55.0894

>  <PUBCHEM_FEATURE_SELFOVERLAP>  (1) 
15.223

>  <PUBCHEM_SHAPE_FINGERPRINT>  (1) 
10906281 52 18114761398574685041
1100329 8 17978225290024879414
11132069 177 18407760334949096656
11806522 49 18336546135228361285
12553582 1 18261970599712742181
12839892 36 18338218411079161154
13134695 92 13406802133555851534
13140716 1 18120378919397318777
14178342 30 18411141303319026657
14223421 5 18266739086773214076
14252887 29 18263377918645617977
14787075 74 17630600343659909720
14790565 3 18337962314842961468
14863182 85 18335155205632452302
15042514 8 18192709167071734442
16945 1 18408887304355699637
19591789 44 18412262801354045102
19784866 170 18410294696429450592
20028762 73 17912648196226387423
20645477 70 18192704554028678983
20871998 22 18263656082276493469
22079108 93 17774430724328722000
22224240 67 18200870785305900792
23184049 29 17829887633685227274
23402539 116 18040988561891358688
23557571 272 17460040582312594196
23559900 14 18049714123393122498
2748010 2 17973162824942233565
3250762 1 17905039262323652492
34934 24 18335693910927828613
43471831 8 18409164381670747974
474229 33 18337386140900727434
5486654 2 18339645658733941268
6442390 28 18342174501350007890
7364860 26 18052813651114424886
81228 2 17825121311051109957
9709674 26 17977937991030168199

>  <PUBCHEM_SHAPE_MULTIPOLES>  (1) 
336.87
7.81
3.87
0.83
0.74
4.66
0
-1.54
-2.58
1.07
0.9
0.22
-0.09
0.63

>  <PUBCHEM_SHAPE_SELFOVERLAP>  (1) 
662.462

>  <PUBCHEM_SHAPE_VOLUME>  (1) 
204.6

>  <PUBCHEM_COORDINATE_TYPE>  (1) 
2
5
10

$$$$
