32699
     RDKit          3D

 22 22  0  0  0  0  0  0  0  0999 V2000
    4.3371    0.7041   -0.9385 Cl  0  0  0  0  0  0  0  0  0  0  0  0
    3.1678    2.7549    0.7149 Cl  0  0  0  0  0  0  0  0  0  0  0  0
    3.9920    0.2734    1.9357 Cl  0  0  0  0  0  0  0  0  0  0  0  0
    1.2473   -3.9034    1.0056 Cl  0  0  0  0  0  0  0  0  0  0  0  0
   -1.0423   -3.6698   -0.7294 Cl  0  0  0  0  0  0  0  0  0  0  0  0
    1.6021   -3.4801   -1.8685 Cl  0  0  0  0  0  0  0  0  0  0  0  0
   -1.5085    1.2413   -0.0678 N   0  0  0  0  0  0  0  0  0  0  0  0
   -0.4744   -0.8553   -0.2490 N   0  0  0  0  0  0  0  0  0  0  0  0
    0.8185    1.1175    0.1918 N   0  0  0  0  0  0  0  0  0  0  0  0
    1.9056   -1.0141    0.0122 N   0  0  0  0  0  0  0  0  0  0  0  0
   -5.6586   -1.2238    0.5574 N   0  0  0  0  0  0  0  0  0  0  0  0
   -1.4749    2.6664    0.1571 C   0  0  0  0  0  0  0  0  0  0  0  0
   -2.8020    0.6012   -0.3151 C   0  0  0  0  0  0  0  0  0  0  0  0
   -1.1036    3.4066   -1.1235 C   0  0  0  0  0  0  0  0  0  0  0  0
   -0.3388    0.4686   -0.0406 C   0  0  0  0  0  0  0  0  0  0  0  0
   -3.3386   -0.0490    0.9557 C   0  0  0  0  0  0  0  0  0  0  0  0
   -1.0982    4.9192   -0.9508 C   0  0  0  0  0  0  0  0  0  0  0  0
    0.6858   -1.5303   -0.2084 C   0  0  0  0  0  0  0  0  0  0  0  0
    1.8950    0.3148    0.2040 C   0  0  0  0  0  0  0  0  0  0  0  0
    3.2122    0.9654    0.4562 C   0  0  0  0  0  0  0  0  0  0  0  0
    0.6119   -3.0023   -0.4308 C   0  0  0  0  0  0  0  0  0  0  0  0
   -4.6353   -0.7053    0.7319 C   0  0  0  0  0  0  0  0  0  0  0  0
  1 20  1  0
  2 20  1  0
  3 20  1  0
  4 21  1  0
  5 21  1  0
  6 21  1  0
  7 12  1  0
  7 13  1  0
  7 15  1  0
  8 15  2  0
  8 18  1  0
  9 15  1  0
  9 19  2  0
 10 18  2  0
 10 19  1  0
 11 22  3  0
 12 14  1  0
 13 16  1  0
 14 17  1  0
 16 22  1  0
 18 21  1  0
 19 20  1  0
M  END
>  <PUBCHEM_COMPOUND_CID>  (1) 
32699

>  <PUBCHEM_CONFORMER_RMSD>  (1) 
0.8

>  <PUBCHEM_CONFORMER_DIVERSEORDER>  (1) 
1
67
56
22
48
91
65
52
84
2
72
42
74
90
29
70
39
64
93
30
73
54
61
44
80
6
19
86
92
34
89
53
68
7
59
69
71
27
57
63
41
38
45
5
20
76
10
83
85
25
62
66
88
79
77
58
26
21
47
49
37
14
9
28
82
11
36
87
81
31
78
35
55
15
75
46
60
17
12
4
40
3
50
23
43
51
13
32
33
18
24
8
16

>  <PUBCHEM_MMFF94_PARTIAL_CHARGES>  (1) 
20
1 -0.29
10 -0.62
11 -0.56
12 0.37
13 0.37
15 0.72
16 0.2
18 0.48
19 0.48
2 -0.29
20 1.01
21 1.01
22 0.36
3 -0.29
4 -0.29
5 -0.29
6 -0.29
7 -0.84
8 -0.62
9 -0.62

>  <PUBCHEM_EFFECTIVE_ROTOR_COUNT>  (1) 
7

>  <PUBCHEM_PHARMACOPHORE_FEATURES>  (1) 
4
1 11 acceptor
1 17 hydrophobe
4 7 8 9 15 cation
6 8 9 10 15 18 19 rings

>  <PUBCHEM_HEAVY_ATOM_COUNT>  (1) 
22

>  <PUBCHEM_ATOM_DEF_STEREO_COUNT>  (1) 
0

>  <PUBCHEM_ATOM_UDEF_STEREO_COUNT>  (1) 
0

>  <PUBCHEM_BOND_DEF_STEREO_COUNT>  (1) 
0

>  <PUBCHEM_BOND_UDEF_STEREO_COUNT>  (1) 
0

>  <PUBCHEM_ISOTOPIC_ATOM_COUNT>  (1) 
0

>  <PUBCHEM_COMPONENT_COUNT>  (1) 
1

>  <PUBCHEM_CACTVS_TAUTO_COUNT>  (1) 
1

>  <PUBCHEM_CONFORMER_ID>  (1) 
00007FBB00000001

>  <PUBCHEM_MMFF94_ENERGY>  (1) 
40.4725

>  <PUBCHEM_FEATURE_SELFOVERLAP>  (1) 
20.297

>  <PUBCHEM_SHAPE_FINGERPRINT>  (1) 
10906281 52 18115328742712212505
1100329 8 17905892826912665145
11578080 2 17170391806175512279
12403259 226 18410854318078805040
12839892 36 18338220609669731274
13140716 1 18196082463917663906
13911987 19 18262229031958035909
14178342 30 18191581952282465600
14223421 5 18266459798040462521
14787075 74 17631452448540030881
14790565 3 18267035010210747917
14863182 85 18337409213465503071
15042514 8 18266452282095958850
16728300 4 17825919591237314522
16945 1 18339631300626433708
19591789 44 18340774724068675742
20028762 73 17914337033528660599
20600515 1 18126282179967974904
20739085 24 18264787591390123585
21524375 3 18412826880725401666
22956985 138 18116991079407783322
2334 1 17980190108797890734
23557571 272 18114471046106237245
23558518 356 17899419688385085393
23559900 14 18049996701975734337
2748010 2 18052533266605596956
3250762 1 18049722910680016701
33824 294 18411986862532267179
350125 39 18267872692083617670
352729 6 18340760546296975670
59554788 170 18341062813073612967
59755656 215 18192143789807611228
6438718 38 17628635555020286814
81228 2 17836909463159518962
9709674 26 18050279272375080757
9981440 41 17620987107414272040

>  <PUBCHEM_SHAPE_MULTIPOLES>  (1) 
439.06
7.34
5.97
1.34
4.92
0.55
0.01
0.73
-2.76
0.25
2.34
-0.86
-0.37
1.31

>  <PUBCHEM_SHAPE_SELFOVERLAP>  (1) 
827.571

>  <PUBCHEM_SHAPE_VOLUME>  (1) 
265.2

>  <PUBCHEM_COORDINATE_TYPE>  (1) 
2
5
10

$$$$
