32693
     RDKit          3D

 21 22  0  0  0  0  0  0  0  0999 V2000
    0.6921   -3.7315    1.5973 Cl  0  0  0  0  0  0  0  0  0  0  0  0
   -1.7607   -3.7639    0.0844 Cl  0  0  0  0  0  0  0  0  0  0  0  0
    0.7553   -3.8341   -1.3269 Cl  0  0  0  0  0  0  0  0  0  0  0  0
   -2.1464    1.1954   -0.1015 N   0  0  0  0  0  0  0  0  0  0  0  0
    0.1953    1.0718   -0.0569 N   0  0  0  0  0  0  0  0  0  0  0  0
   -1.1405   -0.9209   -0.0061 N   0  0  0  0  0  0  0  0  0  0  0  0
    1.2533   -1.0796    0.0420 N   0  0  0  0  0  0  0  0  0  0  0  0
   -4.5254    1.7561   -0.0993 C   0  0  0  0  0  0  0  0  0  0  0  0
   -3.4800    0.6441   -0.1044 C   0  0  0  0  0  0  0  0  0  0  0  0
   -5.9582    1.2188   -0.0550 C   0  0  0  0  0  0  0  0  0  0  0  0
   -6.9731    2.3493    0.0155 C   0  0  0  0  0  0  0  0  0  0  0  0
   -0.9950    0.4250   -0.0537 C   0  0  0  0  0  0  0  0  0  0  0  0
    1.2654    0.2623   -0.0079 C   0  0  0  0  0  0  0  0  0  0  0  0
    2.5570    0.8976   -0.0088 C   0  0  0  0  0  0  0  0  0  0  0  0
    0.0161   -1.6015    0.0395 C   0  0  0  0  0  0  0  0  0  0  0  0
    3.6616    0.2483   -0.5697 C   0  0  0  0  0  0  0  0  0  0  0  0
    2.7174    2.1692    0.5508 C   0  0  0  0  0  0  0  0  0  0  0  0
   -0.0832   -3.0881    0.0929 C   0  0  0  0  0  0  0  0  0  0  0  0
    4.9132    0.8641   -0.5707 C   0  0  0  0  0  0  0  0  0  0  0  0
    3.9690    2.7851    0.5497 C   0  0  0  0  0  0  0  0  0  0  0  0
    5.0669    2.1324   -0.0111 C   0  0  0  0  0  0  0  0  0  0  0  0
  1 18  1  0
  2 18  1  0
  3 18  1  0
  4  9  1  0
  4 12  1  0
  5 12  2  0
  5 13  1  0
  6 12  1  0
  6 15  2  0
  7 13  2  0
  7 15  1  0
  8  9  1  0
  8 10  1  0
 10 11  1  0
 13 14  1  0
 14 16  2  0
 14 17  1  0
 15 18  1  0
 16 19  1  0
 17 20  2  0
 19 21  2  0
 20 21  1  0
M  END
>  <PUBCHEM_COMPOUND_CID>  (1) 
32693

>  <PUBCHEM_CONFORMER_RMSD>  (1) 
0.8

>  <PUBCHEM_CONFORMER_DIVERSEORDER>  (1) 
1
34
14
7
24
12
21
5
19
2
33
16
27
13
6
32
10
15
11
4
17
8
18
26
31
29
3
30
25
22
28
23
20
9

>  <PUBCHEM_MMFF94_PARTIAL_CHARGES>  (1) 
23
1 -0.29
12 0.72
13 0.62
15 0.48
16 -0.15
17 -0.15
18 1.01
19 -0.15
2 -0.29
20 -0.15
21 -0.15
28 0.4
3 -0.29
32 0.15
33 0.15
34 0.15
35 0.15
36 0.15
4 -0.87
5 -0.62
6 -0.62
7 -0.62
9 0.37

>  <PUBCHEM_EFFECTIVE_ROTOR_COUNT>  (1) 
6

>  <PUBCHEM_PHARMACOPHORE_FEATURES>  (1) 
5
1 11 hydrophobe
1 4 donor
4 4 5 6 12 cation
6 14 16 17 19 20 21 rings
6 5 6 7 12 13 15 rings

>  <PUBCHEM_HEAVY_ATOM_COUNT>  (1) 
21

>  <PUBCHEM_ATOM_DEF_STEREO_COUNT>  (1) 
0

>  <PUBCHEM_ATOM_UDEF_STEREO_COUNT>  (1) 
0

>  <PUBCHEM_BOND_DEF_STEREO_COUNT>  (1) 
0

>  <PUBCHEM_BOND_UDEF_STEREO_COUNT>  (1) 
0

>  <PUBCHEM_ISOTOPIC_ATOM_COUNT>  (1) 
0

>  <PUBCHEM_COMPONENT_COUNT>  (1) 
1

>  <PUBCHEM_CACTVS_TAUTO_COUNT>  (1) 
4

>  <PUBCHEM_CONFORMER_ID>  (1) 
00007FB500000001

>  <PUBCHEM_MMFF94_ENERGY>  (1) 
45.4571

>  <PUBCHEM_FEATURE_SELFOVERLAP>  (1) 
25.371

>  <PUBCHEM_SHAPE_FINGERPRINT>  (1) 
10411042 1 17546729248843802239
10693767 8 17772753771042883718
1100329 8 18336540513528193058
11578080 2 16339760584648192570
12107183 9 18335406964621706504
12500047 106 18268429204192461108
12532896 13 18337109068086341982
12553582 1 16969151917355601110
12730499 353 18336836290777063041
12788726 201 17832130994004344314
13140716 1 18335133185403658474
13540713 4 17985274216975635028
13692114 37 18271790359551759031
138480 1 17690279313743803327
13955234 65 18191868925291822267
14790565 3 18410014377163413701
14955137 171 18046619015388886298
15664445 248 17552649049855099439
15927050 60 18410572902905037006
16728300 4 17317577930881556064
17539 30 17839454836477454518
17913733 40 18340786879131676497
18222031 100 7997685441211815425
19427546 62 18409450293385689669
20554085 129 18059839658948311704
20600515 1 16458224243662214074
20645477 70 18193556662945323719
21033648 29 18339918332922366433
21049683 118 18195783345046633360
21524375 3 18409167697179570870
21796203 349 17545069021178252347
23557571 272 18052831531221741836
23558518 356 17758107481918971816
23559900 14 18271528689291281148
23845131 108 18261110773193878715
283562 15 18048024461705509491
3004659 81 11743839170693026496
335352 9 18411984642318531300
3759504 43 18262237827818643331
4073 2 18261399915288229089
5385378 56 18336549300862092241
59755656 215 18261678052162902957
59755656 520 18335414694702768540
6025842 7 18268144267561462549
621550 34 18115021884405001205
633830 44 18272080613119486461
77188 2 16824464999827842083
81228 2 17830166166746347362
8272917 22 18268711615334671525
9709674 26 18126853922526183182
9841814 1 17830172407613695987
9999458 23 18336828580735721526

>  <PUBCHEM_SHAPE_MULTIPOLES>  (1) 
417.86
11.56
5.12
0.9
15.11
6.52
0.09
-16.99
-0.69
0.19
0.53
-0.39
0.79
0.4

>  <PUBCHEM_SHAPE_SELFOVERLAP>  (1) 
841.152

>  <PUBCHEM_SHAPE_VOLUME>  (1) 
241.8

>  <PUBCHEM_COORDINATE_TYPE>  (1) 
2
5
10

$$$$
