32705
     RDKit          3D

 20 20  0  0  0  0  0  0  0  0999 V2000
   -1.1975   -3.5606   -1.1977 Cl  0  0  0  0  0  0  0  0  0  0  0  0
    1.2332   -3.3784    0.3404 Cl  0  0  0  0  0  0  0  0  0  0  0  0
   -1.2925   -3.5357    1.7274 Cl  0  0  0  0  0  0  0  0  0  0  0  0
    1.3216    1.5980    0.3064 N   0  0  0  0  0  0  0  0  0  0  0  0
   -1.0073    1.3332    0.2417 N   0  0  0  0  0  0  0  0  0  0  0  0
    0.4444   -0.5765    0.2952 N   0  0  0  0  0  0  0  0  0  0  0  0
   -1.9350   -0.8797    0.2296 N   0  0  0  0  0  0  0  0  0  0  0  0
    5.5459   -0.4224   -0.9673 N   0  0  0  0  0  0  0  0  0  0  0  0
    2.6604    1.0469    0.3622 C   0  0  0  0  0  0  0  0  0  0  0  0
    1.1484    3.0363    0.2924 C   0  0  0  0  0  0  0  0  0  0  0  0
    0.1983    0.7434    0.2798 C   0  0  0  0  0  0  0  0  0  0  0  0
   -3.4011    1.0361    0.1758 C   0  0  0  0  0  0  0  0  0  0  0  0
   -2.0117    0.4535    0.2189 C   0  0  0  0  0  0  0  0  0  0  0  0
   -3.8822    1.2456   -1.2605 C   0  0  0  0  0  0  0  0  0  0  0  0
    3.1215    0.5977   -1.0203 C   0  0  0  0  0  0  0  0  0  0  0  0
    1.0233    3.5611    1.7098 C   0  0  0  0  0  0  0  0  0  0  0  0
   -0.6692   -1.3263    0.2686 C   0  0  0  0  0  0  0  0  0  0  0  0
   -5.2956    1.8051   -1.2965 C   0  0  0  0  0  0  0  0  0  0  0  0
   -0.4813   -2.8049    0.2838 C   0  0  0  0  0  0  0  0  0  0  0  0
    4.4766    0.0278   -0.9895 C   0  0  0  0  0  0  0  0  0  0  0  0
  1 19  1  0
  2 19  1  0
  3 19  1  0
  4  9  1  0
  4 10  1  0
  4 11  1  0
  5 11  2  0
  5 13  1  0
  6 11  1  0
  6 17  2  0
  7 13  2  0
  7 17  1  0
  8 20  3  0
  9 15  1  0
 10 16  1  0
 12 13  1  0
 12 14  1  0
 14 18  1  0
 15 20  1  0
 17 19  1  0
M  END
>  <PUBCHEM_COMPOUND_CID>  (1) 
32705

>  <PUBCHEM_CONFORMER_RMSD>  (1) 
0.8

>  <PUBCHEM_CONFORMER_DIVERSEORDER>  (1) 
3
136
242
275
156
283
120
178
108
238
36
279
170
262
161
102
84
235
177
216
126
167
240
271
220
277
267
130
255
264
204
123
213
196
228
282
169
117
24
142
227
162
147
176
166
140
274
273
152
223
150
287
34
233
209
149
251
98
231
234
143
35
134
109
254
252
89
122
183
59
249
261
200
241
256
247
207
226
210
141
225
138
269
201
222
39
224
185
75
175
284
280
124
208
239
62
73
180
121
133
68
268
139
221
217
114
179
42
212
218
187
115
197
253
49
71
229
285
237
38
181
125
203
74
99
286
164
278
248
50
245
61
214
43
154
184
11
193
199
88
160
129
270
260
250
44
244
28
93
146
258
135
101
243
148
96
76
168
174
230
137
194
79
215
263
272
55
173
29
265
144
53
276
83
65
105
159
219
25
236
202
192
100
259
106
190
163
58
232
112
113
182
23
90
80
246
13
85
145
91
172
128
40
151
104
26
131
37
17
288
15
281
189
2
206
153
95
70
257
64
266
195
198
103
1
5
60
72
186
57
118
6
48
78
110
52
33
191
45
19
9
22
132
21
30
41
77
27
46
86
92
31
14
188
116
97
66
47
10
4
81
158
155
205
12
211
157
94
111
67
16
82
107
119
51
7
87
20
18
63
69
171
165
32
56
127
8
54

>  <PUBCHEM_MMFF94_PARTIAL_CHARGES>  (1) 
17
1 -0.29
10 0.37
11 0.72
12 0.14
13 0.48
15 0.2
17 0.48
19 1.01
2 -0.29
20 0.36
3 -0.29
4 -0.84
5 -0.62
6 -0.62
7 -0.62
8 -0.56
9 0.37

>  <PUBCHEM_EFFECTIVE_ROTOR_COUNT>  (1) 
7

>  <PUBCHEM_PHARMACOPHORE_FEATURES>  (1) 
4
1 18 hydrophobe
1 8 acceptor
4 4 5 6 11 cation
6 5 6 7 11 13 17 rings

>  <PUBCHEM_HEAVY_ATOM_COUNT>  (1) 
20

>  <PUBCHEM_ATOM_DEF_STEREO_COUNT>  (1) 
0

>  <PUBCHEM_ATOM_UDEF_STEREO_COUNT>  (1) 
0

>  <PUBCHEM_BOND_DEF_STEREO_COUNT>  (1) 
0

>  <PUBCHEM_BOND_UDEF_STEREO_COUNT>  (1) 
0

>  <PUBCHEM_ISOTOPIC_ATOM_COUNT>  (1) 
0

>  <PUBCHEM_COMPONENT_COUNT>  (1) 
1

>  <PUBCHEM_CACTVS_TAUTO_COUNT>  (1) 
4

>  <PUBCHEM_CONFORMER_ID>  (1) 
00007FC100000003

>  <PUBCHEM_MMFF94_ENERGY>  (1) 
35.7608

>  <PUBCHEM_FEATURE_SELFOVERLAP>  (1) 
20.297

>  <PUBCHEM_SHAPE_FINGERPRINT>  (1) 
10693767 8 17987502720311707871
107951 10 17168155524184123386
116883 192 17908135830369532319
12293681 160 18269835324407773384
12555020 224 18341337699807543662
12730499 353 18336260168544242085
12788726 201 18198911314648082432
13140716 1 18123758813608686915
13149001 5 18342176725605373892
14790565 3 18268449952779321304
14911166 2 18411981342866243621
15099037 51 18410858750294994668
16752209 62 18264764531420391954
20600515 1 18269860690970147636
20645476 183 17821733853022006218
20645477 70 18194104228563183437
21069387 34 17203614812760907508
21524375 3 18334847325686850755
23402539 116 17988368057305883740
23419403 2 17247563241831940123
23557571 272 17467617630593309309
23558518 356 17975958084184589489
23559900 14 17765993187961357720
25 1 18336261245984791493
266924 87 18050005493758621324
2748010 2 18050848024375631785
3060560 45 18338220601396346445
3071541 37 18262512568692815829
3084891 72 18341337682537905704
3084891 8 18118401735308259732
3250762 1 17981323709602674896
3298306 158 18335700520534363599
3759504 43 18040720276896364063
559249 180 18334013883215474158
58779409 8 18335415816037671647
59554788 62 17261317410851603651
7364860 26 18195231236175988129
81228 2 17687179103665578353
9709674 26 18054504983006804532

>  <PUBCHEM_SHAPE_MULTIPOLES>  (1) 
392.29
7.53
4.99
1.37
1.63
3.24
-0.11
-4.47
5.05
-1.02
-1.71
-0.17
0.06
1.48

>  <PUBCHEM_SHAPE_SELFOVERLAP>  (1) 
755.353

>  <PUBCHEM_SHAPE_VOLUME>  (1) 
234.4

>  <PUBCHEM_COORDINATE_TYPE>  (1) 
2
5
10

$$$$
