32702
     RDKit          3D

 18 18  0  0  0  0  0  0  0  0999 V2000
    3.0367    2.3436   -1.2607 Cl  0  0  0  0  0  0  0  0  0  0  0  0
    1.0037    3.0847    0.6432 Cl  0  0  0  0  0  0  0  0  0  0  0  0
    3.3944    1.7734    1.5875 Cl  0  0  0  0  0  0  0  0  0  0  0  0
   -1.5551   -1.1524    0.1219 N   0  0  0  0  0  0  0  0  0  0  0  0
    0.2828    0.3024    0.1810 N   0  0  0  0  0  0  0  0  0  0  0  0
    0.5766   -2.0274   -0.3121 N   0  0  0  0  0  0  0  0  0  0  0  0
    2.4771   -0.5634   -0.2586 N   0  0  0  0  0  0  0  0  0  0  0  0
   -4.3767    2.7778   -0.2044 N   0  0  0  0  0  0  0  0  0  0  0  0
   -2.4458   -0.0654    0.4589 C   0  0  0  0  0  0  0  0  0  0  0  0
   -2.1230   -2.4871   -0.0699 C   0  0  0  0  0  0  0  0  0  0  0  0
   -0.1747   -0.9507   -0.0085 C   0  0  0  0  0  0  0  0  0  0  0  0
   -2.7656    0.7769   -0.7715 C   0  0  0  0  0  0  0  0  0  0  0  0
   -2.1346   -3.2437    1.2444 C   0  0  0  0  0  0  0  0  0  0  0  0
    1.6131    0.4200    0.0408 C   0  0  0  0  0  0  0  0  0  0  0  0
    1.8878   -1.7590   -0.4207 C   0  0  0  0  0  0  0  0  0  0  0  0
    2.1893    1.7806    0.2373 C   0  0  0  0  0  0  0  0  0  0  0  0
    2.7803   -2.9053   -0.7551 C   0  0  0  0  0  0  0  0  0  0  0  0
   -3.6662    1.8950   -0.4533 C   0  0  0  0  0  0  0  0  0  0  0  0
  1 16  1  0
  2 16  1  0
  3 16  1  0
  4  9  1  0
  4 10  1  0
  4 11  1  0
  5 11  2  0
  5 14  1  0
  6 11  1  0
  6 15  2  0
  7 14  2  0
  7 15  1  0
  8 18  3  0
  9 12  1  0
 10 13  1  0
 12 18  1  0
 14 16  1  0
 15 17  1  0
M  END
>  <PUBCHEM_COMPOUND_CID>  (1) 
32702

>  <PUBCHEM_CONFORMER_RMSD>  (1) 
0.6

>  <PUBCHEM_CONFORMER_DIVERSEORDER>  (1) 
3
132
146
37
171
187
72
24
152
106
54
186
167
110
197
94
177
193
195
157
133
170
164
83
79
165
172
178
75
188
25
156
48
191
155
176
98
11
89
69
137
129
134
108
182
151
174
99
161
126
67
86
159
139
130
184
131
119
196
190
169
144
66
150
122
138
120
78
112
107
124
103
189
200
85
135
31
154
147
123
104
29
162
23
173
58
194
180
105
42
80
111
117
116
22
158
90
70
121
61
175
53
142
97
19
183
13
118
102
46
39
140
181
73
74
163
160
17
55
127
35
125
28
5
145
96
192
27
21
76
198
166
4
136
68
47
100
30
71
12
101
168
26
34
88
8
143
185
91
15
62
44
14
43
201
56
148
115
153
20
199
38
51
84
141
41
114
16
63
128
82
113
95
179
2
149
57
87
18
45
109
7
60
50
77
9
49
92
59
6
10
52
64
40
1
93
33
81
32
65
36

>  <PUBCHEM_MMFF94_PARTIAL_CHARGES>  (1) 
17
1 -0.29
10 0.37
11 0.72
12 0.2
14 0.48
15 0.48
16 1.01
17 0.14
18 0.36
2 -0.29
3 -0.29
4 -0.84
5 -0.62
6 -0.62
7 -0.62
8 -0.56
9 0.37

>  <PUBCHEM_EFFECTIVE_ROTOR_COUNT>  (1) 
5

>  <PUBCHEM_PHARMACOPHORE_FEATURES>  (1) 
3
1 8 acceptor
4 4 5 6 11 cation
6 5 6 7 11 14 15 rings

>  <PUBCHEM_HEAVY_ATOM_COUNT>  (1) 
18

>  <PUBCHEM_ATOM_DEF_STEREO_COUNT>  (1) 
0

>  <PUBCHEM_ATOM_UDEF_STEREO_COUNT>  (1) 
0

>  <PUBCHEM_BOND_DEF_STEREO_COUNT>  (1) 
0

>  <PUBCHEM_BOND_UDEF_STEREO_COUNT>  (1) 
0

>  <PUBCHEM_ISOTOPIC_ATOM_COUNT>  (1) 
0

>  <PUBCHEM_COMPONENT_COUNT>  (1) 
1

>  <PUBCHEM_CACTVS_TAUTO_COUNT>  (1) 
1

>  <PUBCHEM_CONFORMER_ID>  (1) 
00007FBE00000003

>  <PUBCHEM_MMFF94_ENERGY>  (1) 
37.0687

>  <PUBCHEM_FEATURE_SELFOVERLAP>  (1) 
15.223

>  <PUBCHEM_SHAPE_FINGERPRINT>  (1) 
10608611 8 18410855490520129895
10906281 52 17984154668861147758
11680986 33 18341892974522596226
12403259 226 17838057361725126568
13140716 1 18411699885385731562
13294875 104 17971176054659730019
13464514 151 18413108338226831212
14022347 108 17975985258728092490
14178342 30 18262793089801697458
14508225 48 17693388741829129414
14648413 74 18411420609168557994
16945 1 18269004098038553874
18186145 218 17413891030353052600
19784866 170 17976275843351361891
20600515 1 18122042227287728602
20739085 24 17327204524375978571
21029758 11 17983576308491059310
21501502 16 18336543910256064463
21524375 3 18335685157763231061
2334 1 18268715076841129942
23557571 272 17971477548785059639
23558518 356 18335412496091391503
25 1 18047753689950337223
2748010 2 18342464789214721934
3060560 45 18049715222967950207
3084891 72 17977950081416503275
3250762 1 18410018762066267611
34934 24 18267017259348219046
350125 39 18338248161863789967
3524813 1 17826793638346019821
7097593 13 17824234134137177674
7364860 26 18343866632365118118
90316 7 17186982728047909250
9709674 26 18411698815991836503
9981440 41 17913459566812961065

>  <PUBCHEM_SHAPE_MULTIPOLES>  (1) 
351.14
6.48
4.48
1.1
2.12
0.57
0.19
-4.01
0.01
1.36
-0.11
-0.65
-0.15
1.61

>  <PUBCHEM_SHAPE_SELFOVERLAP>  (1) 
677.794

>  <PUBCHEM_SHAPE_VOLUME>  (1) 
208.7

>  <PUBCHEM_COORDINATE_TYPE>  (1) 
2
5
10

$$$$
