32709
     RDKit          3D

 23 23  0  0  0  0  0  0  0  0999 V2000
   -1.8248   -4.1297    0.9297 Cl  0  0  0  0  0  0  0  0  0  0  0  0
   -3.0334   -2.5984   -1.1919 Cl  0  0  0  0  0  0  0  0  0  0  0  0
   -0.5266   -3.9396   -1.6864 Cl  0  0  0  0  0  0  0  0  0  0  0  0
   -0.8937    1.6825    0.1748 N   0  0  0  0  0  0  0  0  0  0  0  0
    0.8077    0.2437    0.9049 N   0  0  0  0  0  0  0  0  0  0  0  0
   -1.1746   -0.6252   -0.1308 N   0  0  0  0  0  0  0  0  0  0  0  0
    0.5493   -2.1231    0.6055 N   0  0  0  0  0  0  0  0  0  0  0  0
   -5.6807    2.0624   -0.5243 N   0  0  0  0  0  0  0  0  0  0  0  0
    3.7297   -1.2612    0.6631 C   0  0  0  0  0  0  0  0  0  0  0  0
    3.9152    0.0832   -0.0473 C   0  0  0  0  0  0  0  0  0  0  0  0
    2.5612   -1.2592    1.6553 C   0  0  0  0  0  0  0  0  0  0  0  0
   -0.1256    2.8154    0.6498 C   0  0  0  0  0  0  0  0  0  0  0  0
   -2.1846    1.9112   -0.4418 C   0  0  0  0  0  0  0  0  0  0  0  0
    5.1055    0.0429   -1.0063 C   0  0  0  0  0  0  0  0  0  0  0  0
    0.9291    3.2204   -0.3746 C   0  0  0  0  0  0  0  0  0  0  0  0
   -0.3960    0.3699    0.3235 C   0  0  0  0  0  0  0  0  0  0  0  0
    1.2163   -1.0309    1.0123 C   0  0  0  0  0  0  0  0  0  0  0  0
   -3.3135    1.6704    0.5546 C   0  0  0  0  0  0  0  0  0  0  0  0
    5.3188    1.3861   -1.6859 C   0  0  0  0  0  0  0  0  0  0  0  0
    1.7356    4.4372    0.0578 C   0  0  0  0  0  0  0  0  0  0  0  0
   -0.6377   -1.8436    0.0434 C   0  0  0  0  0  0  0  0  0  0  0  0
   -1.4413   -3.0041   -0.4358 C   0  0  0  0  0  0  0  0  0  0  0  0
   -4.6360    1.8898   -0.0495 C   0  0  0  0  0  0  0  0  0  0  0  0
  1 22  1  0
  2 22  1  0
  3 22  1  0
  4 12  1  0
  4 13  1  0
  4 16  1  0
  5 16  2  0
  5 17  1  0
  6 16  1  0
  6 21  2  0
  7 17  2  0
  7 21  1  0
  8 23  3  0
  9 10  1  0
  9 11  1  0
 10 14  1  0
 11 17  1  0
 12 15  1  0
 13 18  1  0
 14 19  1  0
 15 20  1  0
 18 23  1  0
 21 22  1  0
M  END
>  <PUBCHEM_COMPOUND_CID>  (1) 
32709

>  <PUBCHEM_CONFORMER_RMSD>  (1) 
1

>  <PUBCHEM_CONFORMER_DIVERSEORDER>  (1) 
1
190
36
172
203
14
145
73
152
45
11
125
156
61
27
105
56
188
107
144
175
32
59
164
133
115
195
158
191
120
187
55
4
168
64
161
160
199
149
142
96
102
170
62
114
122
136
182
82
44
137
163
147
15
127
63
196
88
33
21
153
118
138
117
51
151
171
112
185
76
69
30
77
89
24
128
157
26
34
167
140
50
67
91
87
70
198
139
86
154
174
79
129
180
53
194
100
146
108
109
201
177
193
3
155
90
20
41
85
35
126
97
19
29
192
200
184
31
10
8
75
181
106
197
134
48
141
74
143
28
148
166
95
124
93
116
135
94
176
52
202
42
5
183
18
173
23
68
165
54
159
6
113
25
186
71
110
66
104
178
123
39
17
49
13
12
98
40
2
179
189
38
162
169
57
65
60
103
84
121
43
58
47
92
37
132
81
9
7
80
46
130
72
101
119
150
78
83
131
111
22
16
99

>  <PUBCHEM_MMFF94_PARTIAL_CHARGES>  (1) 
17
1 -0.29
11 0.14
12 0.37
13 0.37
16 0.72
17 0.48
18 0.2
2 -0.29
21 0.48
22 1.01
23 0.36
3 -0.29
4 -0.84
5 -0.62
6 -0.62
7 -0.62
8 -0.56

>  <PUBCHEM_EFFECTIVE_ROTOR_COUNT>  (1) 
10

>  <PUBCHEM_PHARMACOPHORE_FEATURES>  (1) 
6
1 19 hydrophobe
1 20 hydrophobe
1 8 acceptor
4 4 5 6 16 cation
4 9 10 11 14 hydrophobe
6 5 6 7 16 17 21 rings

>  <PUBCHEM_HEAVY_ATOM_COUNT>  (1) 
23

>  <PUBCHEM_ATOM_DEF_STEREO_COUNT>  (1) 
0

>  <PUBCHEM_ATOM_UDEF_STEREO_COUNT>  (1) 
0

>  <PUBCHEM_BOND_DEF_STEREO_COUNT>  (1) 
0

>  <PUBCHEM_BOND_UDEF_STEREO_COUNT>  (1) 
0

>  <PUBCHEM_ISOTOPIC_ATOM_COUNT>  (1) 
0

>  <PUBCHEM_COMPONENT_COUNT>  (1) 
1

>  <PUBCHEM_CACTVS_TAUTO_COUNT>  (1) 
4

>  <PUBCHEM_CONFORMER_ID>  (1) 
00007FC500000001

>  <PUBCHEM_MMFF94_ENERGY>  (1) 
34.3114

>  <PUBCHEM_FEATURE_SELFOVERLAP>  (1) 
30.446

>  <PUBCHEM_SHAPE_FINGERPRINT>  (1) 
10090160 65 18119521038582477073
10906281 52 18119823408897655009
1100329 8 18410851075141158809
12553582 1 18123464140646790578
12788726 201 18337666520366119266
13140716 1 18196065825145930659
13583140 156 16518484747806890411
13911987 19 18264204721214729949
14251757 5 18340210785813847014
14681490 219 17619630623544688132
14787075 74 17968381143599693329
14790565 3 18267308633734060049
15927050 60 18195808689617647024
19319366 153 17894910685815301722
19591789 44 18267297638711786025
20028762 73 18130773578521750815
20642791 35 18121778588977810386
20871999 31 18412824724425050430
21041028 32 17975693114962779195
21421566 26 18057894730601448918
22620623 9 17989201594340894366
229495 10 17169532030984466134
23557571 272 18129652123742054970
23558518 356 17972599071867045936
23559900 14 16102757713476443736
23566358 2 18050553333832238660
23598288 3 18409165549844440866
25147074 1 18187351126655811826
283562 15 17401479841762438321
3027735 51 17618794986250253000
352729 6 18123737665327455842
44154327 71 18265049137501581760
59554788 170 17762065732242253922
81228 2 18051657127521491819

>  <PUBCHEM_SHAPE_MULTIPOLES>  (1) 
454.03
8.61
5.97
1.34
4.28
0.24
-0.18
3.97
-3.36
-4.12
-0.61
0.8
-0.92
-1

>  <PUBCHEM_SHAPE_SELFOVERLAP>  (1) 
868.559

>  <PUBCHEM_SHAPE_VOLUME>  (1) 
272.5

>  <PUBCHEM_COORDINATE_TYPE>  (1) 
2
5
10

$$$$
