32704
     RDKit          3D

 19 19  0  0  0  0  0  0  0  0999 V2000
   -0.9516   -3.2817   -1.4961 Cl  0  0  0  0  0  0  0  0  0  0  0  0
    1.4479   -3.1493    0.0950 Cl  0  0  0  0  0  0  0  0  0  0  0  0
   -1.0820   -3.5896    1.4114 Cl  0  0  0  0  0  0  0  0  0  0  0  0
    1.2749    1.7975    0.6167 N   0  0  0  0  0  0  0  0  0  0  0  0
   -1.0359    1.4233    0.4821 N   0  0  0  0  0  0  0  0  0  0  0  0
   -1.8457   -0.8187    0.2076 N   0  0  0  0  0  0  0  0  0  0  0  0
    0.5135   -0.4039    0.3481 N   0  0  0  0  0  0  0  0  0  0  0  0
    5.6142    0.1505   -0.7999 N   0  0  0  0  0  0  0  0  0  0  0  0
   -3.4099    1.0138    0.3417 C   0  0  0  0  0  0  0  0  0  0  0  0
    2.6401    1.3125    0.6342 C   0  0  0  0  0  0  0  0  0  0  0  0
   -3.8845    1.3582   -1.0705 C   0  0  0  0  0  0  0  0  0  0  0  0
   -1.9924    0.5016    0.3440 C   0  0  0  0  0  0  0  0  0  0  0  0
    0.1986    0.8951    0.4754 C   0  0  0  0  0  0  0  0  0  0  0  0
    3.1403    1.0452   -0.7814 C   0  0  0  0  0  0  0  0  0  0  0  0
    1.0265    3.2176    0.7598 C   0  0  0  0  0  0  0  0  0  0  0  0
   -0.5588   -1.2017    0.2188 C   0  0  0  0  0  0  0  0  0  0  0  0
   -5.3248    1.8455   -1.0687 C   0  0  0  0  0  0  0  0  0  0  0  0
   -0.2936   -2.6613    0.0725 C   0  0  0  0  0  0  0  0  0  0  0  0
    4.5231    0.5452   -0.7905 C   0  0  0  0  0  0  0  0  0  0  0  0
  1 18  1  0
  2 18  1  0
  3 18  1  0
  4 10  1  0
  4 13  1  0
  4 15  1  0
  5 12  2  0
  5 13  1  0
  6 12  1  0
  6 16  2  0
  7 13  2  0
  7 16  1  0
  8 19  3  0
  9 11  1  0
  9 12  1  0
 10 14  1  0
 11 17  1  0
 14 19  1  0
 16 18  1  0
M  END
>  <PUBCHEM_COMPOUND_CID>  (1) 
32704

>  <PUBCHEM_CONFORMER_RMSD>  (1) 
0.8

>  <PUBCHEM_CONFORMER_DIVERSEORDER>  (1) 
1
126
141
153
90
69
118
146
119
157
88
161
136
32
101
20
64
74
85
86
159
56
116
148
30
144
123
10
115
140
109
73
91
135
102
58
16
55
112
103
134
104
151
122
87
77
92
99
67
89
105
110
61
158
83
155
48
72
128
28
108
139
82
59
51
106
47
142
11
54
95
154
84
2
124
34
111
79
52
93
117
120
75
3
97
38
71
96
40
133
81
35
80
137
68
27
60
129
130
127
76
49
100
152
6
156
143
50
131
145
70
33
26
4
94
45
113
132
12
125
14
149
78
29
98
8
121
150
44
39
66
5
62
107
17
114
65
37
23
18
31
46
53
57
25
13
160
63
19
138
7
147
21
24
15
41
9
43
42
36
22

>  <PUBCHEM_MMFF94_PARTIAL_CHARGES>  (1) 
17
1 -0.29
10 0.37
12 0.48
13 0.72
14 0.2
15 0.37
16 0.48
18 1.01
19 0.36
2 -0.29
3 -0.29
4 -0.84
5 -0.62
6 -0.62
7 -0.62
8 -0.56
9 0.14

>  <PUBCHEM_EFFECTIVE_ROTOR_COUNT>  (1) 
6

>  <PUBCHEM_PHARMACOPHORE_FEATURES>  (1) 
4
1 17 hydrophobe
1 8 acceptor
4 4 5 7 13 cation
6 5 6 7 12 13 16 rings

>  <PUBCHEM_HEAVY_ATOM_COUNT>  (1) 
19

>  <PUBCHEM_ATOM_DEF_STEREO_COUNT>  (1) 
0

>  <PUBCHEM_ATOM_UDEF_STEREO_COUNT>  (1) 
0

>  <PUBCHEM_BOND_DEF_STEREO_COUNT>  (1) 
0

>  <PUBCHEM_BOND_UDEF_STEREO_COUNT>  (1) 
0

>  <PUBCHEM_ISOTOPIC_ATOM_COUNT>  (1) 
0

>  <PUBCHEM_COMPONENT_COUNT>  (1) 
1

>  <PUBCHEM_CACTVS_TAUTO_COUNT>  (1) 
4

>  <PUBCHEM_CONFORMER_ID>  (1) 
00007FC000000001

>  <PUBCHEM_MMFF94_ENERGY>  (1) 
37.2794

>  <PUBCHEM_FEATURE_SELFOVERLAP>  (1) 
20.297

>  <PUBCHEM_SHAPE_FINGERPRINT>  (1) 
10693767 8 17916573233730385727
107951 10 17458635514095556282
116883 192 17765988780923582631
12555020 224 18343308037566206892
12730499 353 18408884006733296201
13257819 101 17096073702499156669
14022347 108 17395001501781355115
14178342 30 15966537023461704682
14911166 2 18413670205664260700
15099037 51 18411702088656565780
15422964 175 16967179392962673210
16752209 62 18266732670219122778
167882 2 18190741929635640158
17134986 127 18337379522150831189
19591789 44 18268435818183647267
20600515 1 16095119857153058113
20645476 183 17967534605318499282
20645477 70 18196075661485993493
21069387 34 16845298275589023380
21344244 246 18271805653597848495
21524375 3 18408879646813554403
22713019 99 18131912650275644708
22907989 373 17754737457230831167
23114952 82 17900529078669946005
23402539 116 17988649553773371944
23419403 2 17465425990465816859
23558518 356 17755574194169639328
23559900 14 18271814562309494380
25 1 18409725128242694901
266924 87 18122344575531743020
2748010 2 17981322614217034112
298252 57 18334856116989293857
3060560 45 18339347609367919013
3071541 37 18336821975397825209
3084891 72 18341616984219174544
3084891 8 18192429667089273412
3298306 158 18409166597430689687
3759504 43 18186803603633774723
559249 180 18408040719790071666
57210444 14 18409167722738293671
58779409 8 18337385049905356815
59755656 215 18409452501299449715
6138700 20 18269558247909830606
7364860 26 18196923384502583185
81228 2 17689989463939178745
81539 233 18188482468032529649
9709674 26 17983010347633720752

>  <PUBCHEM_SHAPE_MULTIPOLES>  (1) 
371.72
7.86
4.5
1.19
1.94
4.19
0.17
-6.69
4.15
-0.83
-0.57
-0.26
0.42
0.76

>  <PUBCHEM_SHAPE_SELFOVERLAP>  (1) 
716.518

>  <PUBCHEM_SHAPE_VOLUME>  (1) 
221.7

>  <PUBCHEM_COORDINATE_TYPE>  (1) 
2
5
10

$$$$
