32701
     RDKit          3D

 17 17  0  0  0  0  0  0  0  0999 V2000
    3.1337    2.1532   -1.3749 Cl  0  0  0  0  0  0  0  0  0  0  0  0
    0.5712    3.0677   -0.4242 Cl  0  0  0  0  0  0  0  0  0  0  0  0
    2.6165    2.3913    1.4959 Cl  0  0  0  0  0  0  0  0  0  0  0  0
   -1.4615   -1.4756   -0.4079 N   0  0  0  0  0  0  0  0  0  0  0  0
    0.1838    0.1877   -0.2508 N   0  0  0  0  0  0  0  0  0  0  0  0
    0.7439   -2.1258    0.0522 N   0  0  0  0  0  0  0  0  0  0  0  0
    2.4497   -0.4465    0.2194 N   0  0  0  0  0  0  0  0  0  0  0  0
   -4.9511    1.8330    0.2173 N   0  0  0  0  0  0  0  0  0  0  0  0
   -2.4710   -0.4740   -0.6655 C   0  0  0  0  0  0  0  0  0  0  0  0
   -0.1224   -1.1233   -0.1933 C   0  0  0  0  0  0  0  0  0  0  0  0
   -3.0966    0.0147    0.6366 C   0  0  0  0  0  0  0  0  0  0  0  0
   -1.8673   -2.8805   -0.3606 C   0  0  0  0  0  0  0  0  0  0  0  0
    1.4830    0.4499   -0.0352 C   0  0  0  0  0  0  0  0  0  0  0  0
    2.0068   -1.7138    0.2480 C   0  0  0  0  0  0  0  0  0  0  0  0
    1.8939    1.8820   -0.0835 C   0  0  0  0  0  0  0  0  0  0  0  0
    3.0204   -2.7711    0.5254 C   0  0  0  0  0  0  0  0  0  0  0  0
   -4.1330    1.0309    0.4010 C   0  0  0  0  0  0  0  0  0  0  0  0
  1 15  1  0
  2 15  1  0
  3 15  1  0
  4  9  1  0
  4 10  1  0
  4 12  1  0
  5 10  2  0
  5 13  1  0
  6 10  1  0
  6 14  2  0
  7 13  2  0
  7 14  1  0
  8 17  3  0
  9 11  1  0
 11 17  1  0
 13 15  1  0
 14 16  1  0
M  END
>  <PUBCHEM_COMPOUND_CID>  (1) 
32701

>  <PUBCHEM_CONFORMER_RMSD>  (1) 
0.6

>  <PUBCHEM_CONFORMER_DIVERSEORDER>  (1) 
1
73
72
6
67
57
59
25
32
69
58
11
53
23
76
8
37
17
78
51
65
15
46
34
36
7
62
63
50
12
39
19
61
49
64
41
68
2
48
43
42
45
77
13
3
55
71
18
16
10
75
40
29
4
21
54
44
66
52
14
5
70
33
30
24
60
28
27
22
56
74
26
47
9
79
35
20
38
31

>  <PUBCHEM_MMFF94_PARTIAL_CHARGES>  (1) 
17
1 -0.29
10 0.72
11 0.2
12 0.37
13 0.48
14 0.48
15 1.01
16 0.14
17 0.36
2 -0.29
3 -0.29
4 -0.84
5 -0.62
6 -0.62
7 -0.62
8 -0.56
9 0.37

>  <PUBCHEM_EFFECTIVE_ROTOR_COUNT>  (1) 
4

>  <PUBCHEM_PHARMACOPHORE_FEATURES>  (1) 
3
1 8 acceptor
4 4 5 6 10 cation
6 5 6 7 10 13 14 rings

>  <PUBCHEM_HEAVY_ATOM_COUNT>  (1) 
17

>  <PUBCHEM_ATOM_DEF_STEREO_COUNT>  (1) 
0

>  <PUBCHEM_ATOM_UDEF_STEREO_COUNT>  (1) 
0

>  <PUBCHEM_BOND_DEF_STEREO_COUNT>  (1) 
0

>  <PUBCHEM_BOND_UDEF_STEREO_COUNT>  (1) 
0

>  <PUBCHEM_ISOTOPIC_ATOM_COUNT>  (1) 
0

>  <PUBCHEM_COMPONENT_COUNT>  (1) 
1

>  <PUBCHEM_CACTVS_TAUTO_COUNT>  (1) 
1

>  <PUBCHEM_CONFORMER_ID>  (1) 
00007FBD00000001

>  <PUBCHEM_MMFF94_ENERGY>  (1) 
38.5185

>  <PUBCHEM_FEATURE_SELFOVERLAP>  (1) 
15.223

>  <PUBCHEM_SHAPE_FINGERPRINT>  (1) 
10382601 240 17822005445622048400
10465860 228 18409730676986851072
10980938 120 18408323310825166113
12507560 14 18125154944394959411
13140716 1 18409720785846168650
13294875 104 18201996672755525344
13464514 151 18338530736773751692
13965767 371 18263341716061065464
14022347 108 18047762498733732042
14178342 30 18194951070536601040
15442244 35 18411976940761998943
16945 1 18336815421151371454
18186145 218 17771924984325636616
201361 129 18335707203534806412
20671657 1 18412263951798190079
21501502 16 18337667628383045111
21524375 3 17983305020733513791
21665062 11 18337680706747943353
22094290 62 18412544280224419539
2334 1 18192988446818912430
23558518 356 18263920115138463803
23598291 2 18343012320103857703
25 1 18261961855043179196
2748010 2 18265047123304689086
2803657 2 17702124528508633137
305870 269 18267579285539987936
3071541 12 18410293653153168390
5939293 188 18342175509997298925
69474 34 18196638628007536402
7364860 26 18342452681912982402
7832392 63 18411980294941189375
81228 2 17762628283048572946
84936 182 18200587132902369848

>  <PUBCHEM_SHAPE_MULTIPOLES>  (1) 
330.56
6.77
3.97
1
7.23
0.63
0.06
-3.65
0.72
-1.77
0.1
-0.68
-0.53
-0.87

>  <PUBCHEM_SHAPE_SELFOVERLAP>  (1) 
638.886

>  <PUBCHEM_SHAPE_VOLUME>  (1) 
196.3

>  <PUBCHEM_COORDINATE_TYPE>  (1) 
2
5
10

$$$$
