32711
     RDKit          3D

 24 24  0  0  1  0  0  0  0  0999 V2000
    1.1998    4.4197    0.5879 Cl  0  0  0  0  0  0  0  0  0  0  0  0
    2.2914    3.0451   -1.6979 Cl  0  0  0  0  0  0  0  0  0  0  0  0
   -0.4294    4.0002   -1.8069 Cl  0  0  0  0  0  0  0  0  0  0  0  0
    1.0250   -1.4778   -0.0509 N   0  0  0  0  0  0  0  0  0  0  0  0
   -0.7412   -0.2890    0.9318 N   0  0  0  0  0  0  0  0  0  0  0  0
    0.9180    0.8410   -0.3827 N   0  0  0  0  0  0  0  0  0  0  0  0
   -0.8778    2.0850    0.6099 N   0  0  0  0  0  0  0  0  0  0  0  0
    5.8033   -1.0085    0.6526 N   0  0  0  0  0  0  0  0  0  0  0  0
    0.2734   -2.7161   -0.0754 C   0  0  0  0  0  0  0  0  0  0  0  0
    0.4277   -3.4037   -1.4373 C   0  0  0  0  0  0  0  0  0  0  0  0
    2.4595   -1.5166   -0.2493 C   0  0  0  0  0  0  0  0  0  0  0  0
    0.7780   -3.6145    1.0493 C   0  0  0  0  0  0  0  0  0  0  0  0
    0.3687   -0.2489    0.1772 C   0  0  0  0  0  0  0  0  0  0  0  0
   -3.8546    0.7721    1.1355 C   0  0  0  0  0  0  0  0  0  0  0  0
   -2.5645    0.9559    1.9427 C   0  0  0  0  0  0  0  0  0  0  0  0
   -3.9451   -0.5965    0.4535 C   0  0  0  0  0  0  0  0  0  0  0  0
   -0.0652   -2.5392   -2.5908 C   0  0  0  0  0  0  0  0  0  0  0  0
   -1.3108    0.9145    1.1056 C   0  0  0  0  0  0  0  0  0  0  0  0
    3.1923   -0.9693    0.9712 C   0  0  0  0  0  0  0  0  0  0  0  0
   -5.2572   -0.7451   -0.3176 C   0  0  0  0  0  0  0  0  0  0  0  0
    0.2409    1.9714   -0.1240 C   0  0  0  0  0  0  0  0  0  0  0  0
   -5.3705   -2.1160   -0.9650 C   0  0  0  0  0  0  0  0  0  0  0  0
    0.7868    3.2280   -0.7112 C   0  0  0  0  0  0  0  0  0  0  0  0
    4.6515   -0.9917    0.7919 C   0  0  0  0  0  0  0  0  0  0  0  0
  1 23  1  0
  2 23  1  0
  3 23  1  0
  4  9  1  0
  4 11  1  0
  4 13  1  0
  5 13  2  0
  5 18  1  0
  6 13  1  0
  6 21  2  0
  7 18  2  0
  7 21  1  0
  8 24  3  0
  9 10  1  0
  9 12  1  0
 10 17  1  0
 11 19  1  0
 14 15  1  0
 14 16  1  0
 15 18  1  0
 16 20  1  0
 19 24  1  0
 20 22  1  0
 21 23  1  0
M  END
>  <PUBCHEM_COMPOUND_CID>  (1) 
32711

>  <PUBCHEM_CONFORMER_RMSD>  (1) 
1

>  <PUBCHEM_CONFORMER_DIVERSEORDER>  (1) 
1
195
186
130
174
45
39
17
71
142
29
86
176
232
198
258
245
46
35
203
66
162
179
31
136
215
138
243
79
238
211
248
163
103
193
106
117
119
187
70
41
114
43
105
4
56
252
26
134
30
237
229
231
120
166
87
257
99
36
64
173
251
141
207
34
161
259
69
94
204
68
107
164
7
188
115
249
59
5
52
112
51
123
168
221
184
170
171
42
104
255
216
227
127
13
144
201
65
172
93
19
197
217
185
256
191
208
156
250
109
140
234
83
154
151
131
11
155
15
223
48
58
160
76
253
190
97
125
118
145
236
148
192
124
8
194
121
222
175
75
196
177
150
220
200
244
47
92
89
218
157
233
206
189
61
139
247
108
32
57
84
239
165
213
14
10
225
219
146
180
37
101
169
178
214
16
132
147
199
205
82
183
152
116
133
246
63
3
149
235
50
67
60
111
135
226
242
72
143
230
241
113
153
20
40
98
212
126
81
254
2
28
73
27
240
158
182
202
88
25
22
91
9
128
95
38
110
53
44
23
55
159
54
24
62
90
6
224
21
78
74
181
167
209
137
228
85
122
49
210
12
77
33
100
96
18
129
80
102

>  <PUBCHEM_MMFF94_PARTIAL_CHARGES>  (1) 
17
1 -0.29
11 0.37
13 0.72
15 0.14
18 0.48
19 0.2
2 -0.29
21 0.48
23 1.01
24 0.36
3 -0.29
4 -0.84
5 -0.62
6 -0.62
7 -0.62
8 -0.56
9 0.37

>  <PUBCHEM_EFFECTIVE_ROTOR_COUNT>  (1) 
10

>  <PUBCHEM_PHARMACOPHORE_FEATURES>  (1) 
6
1 17 hydrophobe
1 22 hydrophobe
1 8 acceptor
4 14 15 16 20 hydrophobe
4 4 5 6 13 cation
6 5 6 7 13 18 21 rings

>  <PUBCHEM_HEAVY_ATOM_COUNT>  (1) 
24

>  <PUBCHEM_ATOM_DEF_STEREO_COUNT>  (1) 
0

>  <PUBCHEM_ATOM_UDEF_STEREO_COUNT>  (1) 
1

>  <PUBCHEM_BOND_DEF_STEREO_COUNT>  (1) 
0

>  <PUBCHEM_BOND_UDEF_STEREO_COUNT>  (1) 
0

>  <PUBCHEM_ISOTOPIC_ATOM_COUNT>  (1) 
0

>  <PUBCHEM_COMPONENT_COUNT>  (1) 
1

>  <PUBCHEM_CACTVS_TAUTO_COUNT>  (1) 
4

>  <PUBCHEM_CONFORMER_ID>  (1) 
00007FC700000001

>  <PUBCHEM_MMFF94_ENERGY>  (1) 
42.5972

>  <PUBCHEM_FEATURE_SELFOVERLAP>  (1) 
30.447

>  <PUBCHEM_SHAPE_FINGERPRINT>  (1) 
10906281 52 18045246884500152305
1100329 8 18337670948608997402
12160290 23 17178581969612335161
12553582 1 18119557378195260811
13004483 165 17831577579284034321
13931106 250 17328578424373993187
14787075 74 18060415828689926114
167882 2 18116718606349669325
17980427 23 18342747312194835225
20600515 1 17169858611734054154
21304303 282 16680058449787103021
21344244 181 17126517195398135783
23419403 2 17385999581225868332
23557571 272 17686079209358633276
23558518 356 17328883491537930700
25019877 29 17489584572174589110
3380486 145 18120665638666845785
34934 24 18193276278647596617
46194498 28 18261104189419827671
59554788 62 18123481483644668849
81228 2 17395322133911664641
9925002 15 18199179758403613444

>  <PUBCHEM_SHAPE_MULTIPOLES>  (1) 
474.61
7.99
5.8
1.82
5.22
3.44
0.77
-4.56
-1.45
-3.26
2.27
0.29
-0.03
-1.94

>  <PUBCHEM_SHAPE_SELFOVERLAP>  (1) 
911.487

>  <PUBCHEM_SHAPE_VOLUME>  (1) 
284.4

>  <PUBCHEM_COORDINATE_TYPE>  (1) 
2
5
10

$$$$
