32718
     RDKit          3D

 21 22  0  0  0  0  0  0  0  0999 V2000
    1.7220    1.6083   -0.1212 S   0  0  0  0  0  0  0  0  0  0  0  0
   -3.9527    2.1415    0.0175 O   0  0  0  0  0  0  0  0  0  0  0  0
   -4.3824   -2.5296    0.0850 O   0  0  0  0  0  0  0  0  0  0  0  0
   -1.0017    1.6497   -0.0520 N   0  0  0  0  0  0  0  0  0  0  0  0
   -2.2390   -1.6265    0.0188 N   0  0  0  0  0  0  0  0  0  0  0  0
   -4.1925   -0.1950    0.0528 N   0  0  0  0  0  0  0  0  0  0  0  0
   -0.1102   -0.3937   -0.0512 N   0  0  0  0  0  0  0  0  0  0  0  0
    6.5467   -0.3465   -0.2075 N   0  0  0  0  0  0  0  0  0  0  0  0
   -2.0499    0.7756   -0.0151 C   0  0  0  0  0  0  0  0  0  0  0  0
   -1.4768   -0.4668   -0.0152 C   0  0  0  0  0  0  0  0  0  0  0  0
    0.1449    0.8983   -0.0726 C   0  0  0  0  0  0  0  0  0  0  0  0
    4.2513    0.5174   -0.1734 C   0  0  0  0  0  0  0  0  0  0  0  0
   -3.4556    1.0187    0.0190 C   0  0  0  0  0  0  0  0  0  0  0  0
    5.1393   -0.7274   -0.1883 C   0  0  0  0  0  0  0  0  0  0  0  0
    2.7752    0.1294   -0.1311 C   0  0  0  0  0  0  0  0  0  0  0  0
   -3.6529   -1.5320    0.0540 C   0  0  0  0  0  0  0  0  0  0  0  0
   -1.1000    3.0930   -0.0662 C   0  0  0  0  0  0  0  0  0  0  0  0
   -1.5822   -2.9277    0.0178 C   0  0  0  0  0  0  0  0  0  0  0  0
   -5.6464   -0.0766    0.0900 C   0  0  0  0  0  0  0  0  0  0  0  0
    7.4023   -1.5342   -0.1879 C   0  0  0  0  0  0  0  0  0  0  0  0
    6.8607    0.5241    0.9267 C   0  0  0  0  0  0  0  0  0  0  0  0
  1 11  1  0
  1 15  1  0
  2 13  2  0
  3 16  2  0
  4  9  1  0
  4 11  1  0
  4 17  1  0
  5 10  1  0
  5 16  1  0
  5 18  1  0
  6 13  1  0
  6 16  1  0
  6 19  1  0
  7 10  1  0
  7 11  2  0
  8 14  1  0
  8 20  1  0
  8 21  1  0
  9 10  2  0
  9 13  1  0
 12 14  1  0
 12 15  1  0
M  END
>  <PUBCHEM_COMPOUND_CID>  (1) 
32718

>  <PUBCHEM_CONFORMER_RMSD>  (1) 
0.8

>  <PUBCHEM_CONFORMER_DIVERSEORDER>  (1) 
1
13
24
22
29
16
28
35
21
2
6
10
17
18
34
8
14
26
3
9
4
31
12
5
33
25
30
20
7
27
19
23
32
11
15

>  <PUBCHEM_MMFF94_PARTIAL_CHARGES>  (1) 
20
1 -0.29
10 0.29
11 0.24
13 0.71
14 0.27
15 0.23
16 0.69
17 0.26
18 0.3
19 0.3
2 -0.57
20 0.27
21 0.27
3 -0.57
4 0.05
5 -0.42
6 -0.42
7 -0.57
8 -0.81
9 -0.24

>  <PUBCHEM_EFFECTIVE_ROTOR_COUNT>  (1) 
5

>  <PUBCHEM_PHARMACOPHORE_FEATURES>  (1) 
6
1 2 acceptor
1 3 acceptor
1 8 cation
3 4 7 11 cation
5 4 7 9 10 11 rings
6 5 6 9 10 13 16 rings

>  <PUBCHEM_HEAVY_ATOM_COUNT>  (1) 
21

>  <PUBCHEM_ATOM_DEF_STEREO_COUNT>  (1) 
0

>  <PUBCHEM_ATOM_UDEF_STEREO_COUNT>  (1) 
0

>  <PUBCHEM_BOND_DEF_STEREO_COUNT>  (1) 
0

>  <PUBCHEM_BOND_UDEF_STEREO_COUNT>  (1) 
0

>  <PUBCHEM_ISOTOPIC_ATOM_COUNT>  (1) 
0

>  <PUBCHEM_COMPONENT_COUNT>  (1) 
1

>  <PUBCHEM_CACTVS_TAUTO_COUNT>  (1) 
1

>  <PUBCHEM_CONFORMER_ID>  (1) 
00007FCE00000001

>  <PUBCHEM_MMFF94_ENERGY>  (1) 
38.2947

>  <PUBCHEM_FEATURE_SELFOVERLAP>  (1) 
30.561

>  <PUBCHEM_SHAPE_FINGERPRINT>  (1) 
10 15 18130776890268076872
10411042 1 18194402419437110835
10693767 8 17552904540686371087
11315181 36 18407762547247514328
11524674 6 17131830963154157990
11578080 2 13397533160365396841
12236239 1 17749392580794620412
12555020 224 18409439319696691607
12760667 363 18342174474978739516
13288520 33 18410857663446560149
13402501 40 18272091582914398526
13862211 1 18339926012877064583
14251751 18 18341051899914654032
14251752 14 17458335325956626244
14341114 176 18341895191285052600
14420673 8 18410578362161371994
14790565 3 17476365998182303153
15042514 8 18409732897695822755
15196674 1 18410294756901825620
17492 89 17977385263431694747
17804303 29 18341334504325566097
17844677 252 18413113845192764048
18927931 339 18411423916409199919
20374829 77 18409730690077305916
21267235 1 18335426789657721451
2297311 6 18413112745179781372
23402539 116 18413103965828759309
23559900 14 18340761662704104024
3004659 81 18186803591529503796
335352 9 18410011053227322909
3383291 50 18261955275069990683
4073 2 18187649167674505690
4214541 1 18410575076521849084
4325135 7 18334017220816260380
5104073 3 18270689790849890697
5364581 5 17984121920136709528
559249 180 18335137570638776118
59755656 215 18409165476486566631
6138700 20 18409730664466192911
67856867 119 18189620609018958524
7226269 152 17988927717309075673

>  <PUBCHEM_SHAPE_MULTIPOLES>  (1) 
399.38
16.03
2.75
0.65
30.51
0.2
-0.04
5.79
-1.12
-2.78
0.03
0.38
-0.03
0.37

>  <PUBCHEM_SHAPE_SELFOVERLAP>  (1) 
811.193

>  <PUBCHEM_SHAPE_VOLUME>  (1) 
238.7

>  <PUBCHEM_COORDINATE_TYPE>  (1) 
2
5
10

$$$$
