32714
     RDKit          3D

 20 21  0  0  0  0  0  0  0  0999 V2000
    2.2087    1.6194   -0.0477 S   0  0  0  0  0  0  0  0  0  0  0  0
   -3.4632    2.1759    0.1145 O   0  0  0  0  0  0  0  0  0  0  0  0
   -3.9184   -2.4900   -0.0582 O   0  0  0  0  0  0  0  0  0  0  0  0
   -0.5148    1.6722    0.0217 N   0  0  0  0  0  0  0  0  0  0  0  0
   -1.7700   -1.5965   -0.0765 N   0  0  0  0  0  0  0  0  0  0  0  0
   -3.7157   -0.1580    0.0296 N   0  0  0  0  0  0  0  0  0  0  0  0
    0.3656   -0.3734   -0.0818 N   0  0  0  0  0  0  0  0  0  0  0  0
    5.5564   -0.6708   -0.2227 N   0  0  0  0  0  0  0  0  0  0  0  0
   -1.5678    0.8030    0.0130 C   0  0  0  0  0  0  0  0  0  0  0  0
   -1.0015   -0.4409   -0.0505 C   0  0  0  0  0  0  0  0  0  0  0  0
    0.6277    0.9165   -0.0367 C   0  0  0  0  0  0  0  0  0  0  0  0
   -2.9722    1.0518    0.0587 C   0  0  0  0  0  0  0  0  0  0  0  0
   -3.1834   -1.4962   -0.0375 C   0  0  0  0  0  0  0  0  0  0  0  0
    3.2538    0.1372   -0.1329 C   0  0  0  0  0  0  0  0  0  0  0  0
    4.7263    0.5280   -0.1537 C   0  0  0  0  0  0  0  0  0  0  0  0
   -0.6053    3.1147    0.0816 C   0  0  0  0  0  0  0  0  0  0  0  0
   -1.1203   -2.8996   -0.1440 C   0  0  0  0  0  0  0  0  0  0  0  0
   -5.1689   -0.0337    0.0720 C   0  0  0  0  0  0  0  0  0  0  0  0
    5.2886   -1.5474    0.9181 C   0  0  0  0  0  0  0  0  0  0  0  0
    6.9745   -0.3121   -0.2669 C   0  0  0  0  0  0  0  0  0  0  0  0
  1 11  1  0
  1 14  1  0
  2 12  2  0
  3 13  2  0
  4  9  1  0
  4 11  1  0
  4 16  1  0
  5 10  1  0
  5 13  1  0
  5 17  1  0
  6 12  1  0
  6 13  1  0
  6 18  1  0
  7 10  1  0
  7 11  2  0
  8 15  1  0
  8 19  1  0
  8 20  1  0
  9 10  2  0
  9 12  1  0
 14 15  1  0
M  END
>  <PUBCHEM_COMPOUND_CID>  (1) 
32714

>  <PUBCHEM_CONFORMER_RMSD>  (1) 
0.6

>  <PUBCHEM_CONFORMER_DIVERSEORDER>  (1) 
1
17
30
16
33
35
25
40
15
36
2
34
31
5
22
27
13
3
29
26
8
12
19
20
14
24
23
11
28
38
4
21
39
32
37
10
18
9
6
7

>  <PUBCHEM_MMFF94_PARTIAL_CHARGES>  (1) 
20
1 -0.29
10 0.29
11 0.24
12 0.71
13 0.69
14 0.23
15 0.27
16 0.26
17 0.3
18 0.3
19 0.27
2 -0.57
20 0.27
3 -0.57
4 0.05
5 -0.42
6 -0.42
7 -0.57
8 -0.81
9 -0.24

>  <PUBCHEM_EFFECTIVE_ROTOR_COUNT>  (1) 
4

>  <PUBCHEM_PHARMACOPHORE_FEATURES>  (1) 
6
1 2 acceptor
1 3 acceptor
1 8 cation
3 4 7 11 cation
5 4 7 9 10 11 rings
6 5 6 9 10 12 13 rings

>  <PUBCHEM_HEAVY_ATOM_COUNT>  (1) 
20

>  <PUBCHEM_ATOM_DEF_STEREO_COUNT>  (1) 
0

>  <PUBCHEM_ATOM_UDEF_STEREO_COUNT>  (1) 
0

>  <PUBCHEM_BOND_DEF_STEREO_COUNT>  (1) 
0

>  <PUBCHEM_BOND_UDEF_STEREO_COUNT>  (1) 
0

>  <PUBCHEM_ISOTOPIC_ATOM_COUNT>  (1) 
0

>  <PUBCHEM_COMPONENT_COUNT>  (1) 
1

>  <PUBCHEM_CACTVS_TAUTO_COUNT>  (1) 
1

>  <PUBCHEM_CONFORMER_ID>  (1) 
00007FCA00000001

>  <PUBCHEM_MMFF94_ENERGY>  (1) 
38.0837

>  <PUBCHEM_FEATURE_SELFOVERLAP>  (1) 
30.561

>  <PUBCHEM_SHAPE_FINGERPRINT>  (1) 
10411042 1 18195246844219543279
10616163 171 18410857664206533646
10693767 8 17481688068722311871
11315181 36 18413394246042340512
11458722 379 18335420179492329186
11524674 6 17060336310579904614
12107183 9 17614558139152595264
12236239 1 17894351072798261124
12555020 224 18410564115686169391
13167823 11 18335138704974346402
13288520 33 18412265038625512556
13862211 1 18340486759565030015
14251731 8 18410573972736106260
14420673 8 18339083675338422818
14790565 3 17476648572454370289
15042514 8 18410296934260113259
15196674 1 18339080509356162284
16945 1 18267304429635517821
17492 89 17978510063615951947
17804303 29 18342177816410782040
17834072 33 18261115188662605012
17857418 61 18407755937556466498
1813 80 17531237405334231892
20374829 77 18411136956912070342
21267235 1 18409174332830183691
2297311 6 18343310249648632228
23402539 116 18272083903233012733
23557571 272 18130232566870776516
23559900 14 18269268126905821536
2748010 2 18122630445113760165
3004659 81 18260831510420152596
335352 9 18410855478051985813
4214541 1 18410856555819887788
5104073 3 18270967963001791697
559249 180 18334853875380225290
59755656 215 18410572842927787487
6138700 20 18410575076221318191
67856867 119 18262241144494174188
7226269 152 17845939524124627353
9709674 26 18121499317308604266

>  <PUBCHEM_SHAPE_MULTIPOLES>  (1) 
378.8
12.66
2.84
0.65
19.66
0.04
-0.04
4.41
-0.16
-2.23
-0.08
0.32
0.06
-0.5

>  <PUBCHEM_SHAPE_SELFOVERLAP>  (1) 
773.365

>  <PUBCHEM_SHAPE_VOLUME>  (1) 
225.8

>  <PUBCHEM_COORDINATE_TYPE>  (1) 
2
5
10

$$$$
