32710
     RDKit          3D

 24 24  0  0  0  0  0  0  0  0999 V2000
   -2.9214   -3.7890    0.7825 Cl  0  0  0  0  0  0  0  0  0  0  0  0
   -3.6898   -1.9436   -1.2937 Cl  0  0  0  0  0  0  0  0  0  0  0  0
   -1.5595   -3.8211   -1.8078 Cl  0  0  0  0  0  0  0  0  0  0  0  0
   -0.6315    1.6613    0.2634 N   0  0  0  0  0  0  0  0  0  0  0  0
    0.6672   -0.1629    0.9589 N   0  0  0  0  0  0  0  0  0  0  0  0
   -1.4416   -0.5029   -0.1343 N   0  0  0  0  0  0  0  0  0  0  0  0
   -0.1351   -2.3899    0.5655 N   0  0  0  0  0  0  0  0  0  0  0  0
   -5.1782    3.1849   -0.4808 N   0  0  0  0  0  0  0  0  0  0  0  0
    0.3716    2.5637    0.7912 C   0  0  0  0  0  0  0  0  0  0  0  0
    1.4530    2.8397   -0.2500 C   0  0  0  0  0  0  0  0  0  0  0  0
    3.1569   -2.3062    0.6963 C   0  0  0  0  0  0  0  0  0  0  0  0
    3.6689   -1.0200    0.0405 C   0  0  0  0  0  0  0  0  0  0  0  0
    2.0009   -2.0623    1.6731 C   0  0  0  0  0  0  0  0  0  0  0  0
   -1.8187    2.2095   -0.3602 C   0  0  0  0  0  0  0  0  0  0  0  0
    2.5618    3.7533    0.2787 C   0  0  0  0  0  0  0  0  0  0  0  0
   -0.4603    0.2640    0.3677 C   0  0  0  0  0  0  0  0  0  0  0  0
    4.8365   -1.3073   -0.9043 C   0  0  0  0  0  0  0  0  0  0  0  0
    0.7616   -1.5009    1.0224 C   0  0  0  0  0  0  0  0  0  0  0  0
   -2.9936    2.2080    0.6119 C   0  0  0  0  0  0  0  0  0  0  0  0
    3.6558    3.9559   -0.7581 C   0  0  0  0  0  0  0  0  0  0  0  0
    5.3745   -0.0299   -1.5290 C   0  0  0  0  0  0  0  0  0  0  0  0
   -1.2106   -1.8189   -0.0003 C   0  0  0  0  0  0  0  0  0  0  0  0
   -2.2545   -2.7395   -0.5337 C   0  0  0  0  0  0  0  0  0  0  0  0
   -4.2140    2.7542    0.0001 C   0  0  0  0  0  0  0  0  0  0  0  0
  1 23  1  0
  2 23  1  0
  3 23  1  0
  4  9  1  0
  4 14  1  0
  4 16  1  0
  5 16  2  0
  5 18  1  0
  6 16  1  0
  6 22  2  0
  7 18  2  0
  7 22  1  0
  8 24  3  0
  9 10  1  0
 10 15  1  0
 11 12  1  0
 11 13  1  0
 12 17  1  0
 13 18  1  0
 14 19  1  0
 15 20  1  0
 17 21  1  0
 19 24  1  0
 22 23  1  0
M  END
>  <PUBCHEM_COMPOUND_CID>  (1) 
32710

>  <PUBCHEM_CONFORMER_RMSD>  (1) 
1.2

>  <PUBCHEM_CONFORMER_DIVERSEORDER>  (1) 
1
89
38
6
29
64
96
97
84
50
43
8
23
25
88
48
92
81
26
76
83
93
87
3
35
42
86
41
79
15
39
44
68
2
80
36
27
94
30
14
18
20
77
101
47
98
13
99
55
65
95
91
49
11
54
72
32
60
63
7
21
56
57
45
100
78
5
67
85
46
90
75
4
17
16
59
69
12
31
22
66
28
34
33
37
40
74
71
58
52
61
10
51
19
82
53
9
73
62
24
70

>  <PUBCHEM_MMFF94_PARTIAL_CHARGES>  (1) 
17
1 -0.29
13 0.14
14 0.37
16 0.72
18 0.48
19 0.2
2 -0.29
22 0.48
23 1.01
24 0.36
3 -0.29
4 -0.84
5 -0.62
6 -0.62
7 -0.62
8 -0.56
9 0.37

>  <PUBCHEM_EFFECTIVE_ROTOR_COUNT>  (1) 
11

>  <PUBCHEM_PHARMACOPHORE_FEATURES>  (1) 
6
1 20 hydrophobe
1 21 hydrophobe
1 8 acceptor
4 11 12 13 17 hydrophobe
4 4 5 6 16 cation
6 5 6 7 16 18 22 rings

>  <PUBCHEM_HEAVY_ATOM_COUNT>  (1) 
24

>  <PUBCHEM_ATOM_DEF_STEREO_COUNT>  (1) 
0

>  <PUBCHEM_ATOM_UDEF_STEREO_COUNT>  (1) 
0

>  <PUBCHEM_BOND_DEF_STEREO_COUNT>  (1) 
0

>  <PUBCHEM_BOND_UDEF_STEREO_COUNT>  (1) 
0

>  <PUBCHEM_ISOTOPIC_ATOM_COUNT>  (1) 
0

>  <PUBCHEM_COMPONENT_COUNT>  (1) 
1

>  <PUBCHEM_CACTVS_TAUTO_COUNT>  (1) 
4

>  <PUBCHEM_CONFORMER_ID>  (1) 
00007FC600000001

>  <PUBCHEM_MMFF94_ENERGY>  (1) 
33.7396

>  <PUBCHEM_FEATURE_SELFOVERLAP>  (1) 
30.446

>  <PUBCHEM_SHAPE_FINGERPRINT>  (1) 
10906281 52 17832719971976914273
1100329 8 18410571738920966016
12788726 201 18410286999822306195
13911987 19 18048314444806445813
14681490 219 17980200008539395726
14790565 3 18051979112630004400
15664445 248 17693950591616963765
15927050 60 18411420652250450492
19319366 153 17751082410044805794
19591789 44 18051405167691336169
20642791 35 18337670931123030003
21421566 26 18202568410328351606
22620623 9 17917418818080491687
23557571 272 18129929140453483362
23558518 356 18189340241399621520
23566358 2 18266164209680086660
23598288 3 18409728430804221794
266924 87 18121779705622068468
283562 15 17905886238348833569
3027735 51 18051702340863749672
3084891 8 17906736156525942472
3178227 256 18266751173492362673
59554788 170 18122915488254141802
59755656 215 17689149436929619791
81228 2 18051093013869375083

>  <PUBCHEM_SHAPE_MULTIPOLES>  (1) 
474.61
8.81
6.52
1.34
4.76
3.32
-0.19
1.62
-3.74
-2.91
-0.48
0.31
-1.09
-0.83

>  <PUBCHEM_SHAPE_SELFOVERLAP>  (1) 
906.363

>  <PUBCHEM_SHAPE_VOLUME>  (1) 
285.4

>  <PUBCHEM_COORDINATE_TYPE>  (1) 
2
5
10

$$$$
