32729
     RDKit          3D

 22 22  0  0  1  0  0  0  0  0999 V2000
   -1.7828   -3.6024   -1.5964 Cl  0  0  0  0  0  0  0  0  0  0  0  0
    0.9621   -3.7019   -0.7232 Cl  0  0  0  0  0  0  0  0  0  0  0  0
   -1.1399   -4.0192    1.2281 Cl  0  0  0  0  0  0  0  0  0  0  0  0
    1.3233    1.2195   -0.0736 N   0  0  0  0  0  0  0  0  0  0  0  0
   -0.9587    1.0123    0.4240 N   0  0  0  0  0  0  0  0  0  0  0  0
    0.3486   -0.9109   -0.1675 N   0  0  0  0  0  0  0  0  0  0  0  0
   -1.9846   -1.1551    0.3370 N   0  0  0  0  0  0  0  0  0  0  0  0
    5.7253   -0.8421    0.1281 N   0  0  0  0  0  0  0  0  0  0  0  0
    1.2536    2.6497    0.1428 C   0  0  0  0  0  0  0  0  0  0  0  0
    0.2547    3.2857   -0.8314 C   0  0  0  0  0  0  0  0  0  0  0  0
    2.6070    0.6360   -0.4586 C   0  0  0  0  0  0  0  0  0  0  0  0
    0.8419    2.9042    1.5892 C   0  0  0  0  0  0  0  0  0  0  0  0
    0.1921    0.4074    0.0667 C   0  0  0  0  0  0  0  0  0  0  0  0
    0.6287    3.0547   -2.2901 C   0  0  0  0  0  0  0  0  0  0  0  0
    3.3990    0.2049    0.7713 C   0  0  0  0  0  0  0  0  0  0  0  0
   -1.9998    0.1721    0.5396 C   0  0  0  0  0  0  0  0  0  0  0  0
   -3.3055    0.7744    0.9328 C   0  0  0  0  0  0  0  0  0  0  0  0
   -4.1331    1.2150   -0.2832 C   0  0  0  0  0  0  0  0  0  0  0  0
   -0.7772   -1.6266   -0.0135 C   0  0  0  0  0  0  0  0  0  0  0  0
   -5.4776    1.7964    0.1239 C   0  0  0  0  0  0  0  0  0  0  0  0
    4.6991   -0.3802    0.4106 C   0  0  0  0  0  0  0  0  0  0  0  0
   -0.6761   -3.0938   -0.2566 C   0  0  0  0  0  0  0  0  0  0  0  0
  1 22  1  0
  2 22  1  0
  3 22  1  0
  4  9  1  0
  4 11  1  0
  4 13  1  0
  5 13  2  0
  5 16  1  0
  6 13  1  0
  6 19  2  0
  7 16  2  0
  7 19  1  0
  8 21  3  0
  9 10  1  0
  9 12  1  0
 10 14  1  0
 11 15  1  0
 15 21  1  0
 16 17  1  0
 17 18  1  0
 18 20  1  0
 19 22  1  0
M  END
>  <PUBCHEM_COMPOUND_CID>  (1) 
32729

>  <PUBCHEM_CONFORMER_RMSD>  (1) 
1

>  <PUBCHEM_CONFORMER_DIVERSEORDER>  (1) 
1
47
127
46
81
187
188
70
170
82
80
138
29
85
137
84
87
132
16
156
145
136
179
181
108
119
168
183
186
78
113
26
24
107
103
97
133
175
89
93
182
102
121
131
74
160
157
67
117
152
63
95
180
150
130
17
135
147
128
101
184
163
159
32
124
116
65
75
90
154
126
149
177
105
165
153
129
173
169
77
161
100
111
71
3
185
134
118
114
48
94
115
176
98
142
143
144
139
140
56
73
86
59
162
148
38
69
178
66
2
174
125
109
40
15
11
45
55
72
91
64
54
158
88
189
122
68
79
53
106
33
21
39
141
35
167
28
57
4
123
41
120
146
83
51
60
8
155
22
25
58
104
61
92
110
99
37
27
96
76
166
44
30
112
151
49
10
171
19
5
172
9
43
6
18
164
14
13
12
31
62
7
34
20
50
42
23
36
52

>  <PUBCHEM_MMFF94_PARTIAL_CHARGES>  (1) 
17
1 -0.29
11 0.37
13 0.72
15 0.2
16 0.48
17 0.14
19 0.48
2 -0.29
21 0.36
22 1.01
3 -0.29
4 -0.84
5 -0.62
6 -0.62
7 -0.62
8 -0.56
9 0.37

>  <PUBCHEM_EFFECTIVE_ROTOR_COUNT>  (1) 
8

>  <PUBCHEM_PHARMACOPHORE_FEATURES>  (1) 
5
1 14 hydrophobe
1 20 hydrophobe
1 8 acceptor
4 4 5 6 13 cation
6 5 6 7 13 16 19 rings

>  <PUBCHEM_HEAVY_ATOM_COUNT>  (1) 
22

>  <PUBCHEM_ATOM_DEF_STEREO_COUNT>  (1) 
0

>  <PUBCHEM_ATOM_UDEF_STEREO_COUNT>  (1) 
1

>  <PUBCHEM_BOND_DEF_STEREO_COUNT>  (1) 
0

>  <PUBCHEM_BOND_UDEF_STEREO_COUNT>  (1) 
0

>  <PUBCHEM_ISOTOPIC_ATOM_COUNT>  (1) 
0

>  <PUBCHEM_COMPONENT_COUNT>  (1) 
1

>  <PUBCHEM_CACTVS_TAUTO_COUNT>  (1) 
4

>  <PUBCHEM_CONFORMER_ID>  (1) 
00007FD900000001

>  <PUBCHEM_MMFF94_ENERGY>  (1) 
43.6525

>  <PUBCHEM_FEATURE_SELFOVERLAP>  (1) 
25.371

>  <PUBCHEM_SHAPE_FINGERPRINT>  (1) 
1100329 8 18341611546553071288
13004483 165 18114173100262521776
13083527 12 17759792655255504211
13140716 1 18053110806647864827
14289585 56 17897418697924639133
14790565 3 18338522941261377448
15420108 30 18128247879689355835
16728300 4 17246370216187495434
20600515 1 18341902904740432612
20739085 24 17906766633782563353
21524375 3 18410013252102846139
23184049 29 17981609582704628130
23402539 116 18272643528554705604
23419403 2 15898605612857276689
23558518 356 18046907361885443491
23559900 14 18201719587794586200
23598291 2 18117555352225799246
266924 87 17979350854977345340
2748010 2 18196113078471260967
3060560 45 18411135801782366645
3084891 72 18341616975328442736
3084891 8 18119525431991714237
350125 39 18266748063708530547
352729 6 18197231436689650163
532947 4 18198065781031098327
59755656 215 18196937665084408174
6138700 20 18339644413061764434
7164475 11 17908133631557104383
81228 2 17690556816439832755

>  <PUBCHEM_SHAPE_MULTIPOLES>  (1) 
433.45
7.35
5.57
1.36
2.04
3.85
0.46
-2.16
-1.29
-1.73
1.29
-0.03
-0.39
-0.41

>  <PUBCHEM_SHAPE_SELFOVERLAP>  (1) 
836.459

>  <PUBCHEM_SHAPE_VOLUME>  (1) 
258.4

>  <PUBCHEM_COORDINATE_TYPE>  (1) 
2
5
10

$$$$
