32721
     RDKit          3D

 12 13  0  0  1  0  0  0  0  0999 V2000
   -5.5007    0.6184    0.0800 O   0  0  0  0  0  0  0  0  0  0  0  0
    5.4993   -0.2229    0.5679 O   0  0  0  0  0  0  0  0  0  0  0  0
   -4.4338   -0.2874   -0.1944 C   0  0  0  0  0  0  0  0  0  0  0  0
    4.4256   -0.0255   -0.3504 C   0  0  0  0  0  0  0  0  0  0  0  0
   -3.1489    0.3826   -0.5762 C   0  0  0  0  0  0  0  0  0  0  0  0
    3.1418   -0.6760    0.0636 C   0  0  0  0  0  0  0  0  0  0  0  0
   -1.9333   -0.4454   -0.1561 C   0  0  0  0  0  0  0  0  0  0  0  0
    1.9248    0.0928   -0.4513 C   0  0  0  0  0  0  0  0  0  0  0  0
   -0.5968    0.1928   -0.5433 C   0  0  0  0  0  0  0  0  0  0  0  0
    0.6187   -0.6003   -0.0582 C   0  0  0  0  0  0  0  0  0  0  0  0
   -4.9880   -0.1398    1.1831 C   0  0  0  0  0  0  0  0  0  0  0  0
    4.9912    1.1108    0.4351 C   0  0  0  0  0  0  0  0  0  0  0  0
  1  3  1  0
  1 11  1  0
  2  4  1  0
  2 12  1  0
  3  5  1  0
  3 11  1  0
  4  6  1  0
  4 12  1  0
  5  7  1  0
  6  8  1  0
  7  9  1  0
  8 10  1  0
  9 10  1  0
M  END
>  <PUBCHEM_COMPOUND_CID>  (1) 
32721

>  <PUBCHEM_CONFORMER_RMSD>  (1) 
0.8

>  <PUBCHEM_CONFORMER_DIVERSEORDER>  (1) 
1
151
121
104
83
2
134
36
140
35
126
109
3
139
149
101
142
127
133
28
106
145
18
68
132
120
39
137
23
73
72
103
24
115
135
82
75
7
29
131
55
4
119
21
88
141
37
62
107
54
156
152
13
58
43
8
20
14
34
128
157
51
118
129
153
61
56
50
94
158
16
99
49
146
105
122
113
154
78
69
19
9
11
44
95
143
31
125
155
77
89
124
60
138
17
63
12
98
38
116
112
59
22
150
33
148
111
90
136
30
45
6
114
86
84
91
76
5
96
32
117
26
41
27
48
74
57
130
10
15
100
85
102
67
147
92
70
81
52
47
64
87
123
144
79
53
159
71
25
110
40
42
80
97
66
65
108
93
46

>  <PUBCHEM_MMFF94_PARTIAL_CHARGES>  (1) 
14
1 -0.3
11 -0.05
12 -0.05
13 0.1
14 0.1
2 -0.3
27 0.1
28 0.1
29 0.1
3 -0.05
30 0.1
4 -0.05
5 0.09
6 0.09

>  <PUBCHEM_EFFECTIVE_ROTOR_COUNT>  (1) 
8.2

>  <PUBCHEM_PHARMACOPHORE_FEATURES>  (1) 
4
1 1 acceptor
1 2 acceptor
3 5 7 9 hydrophobe
3 6 8 10 hydrophobe

>  <PUBCHEM_HEAVY_ATOM_COUNT>  (1) 
12

>  <PUBCHEM_ATOM_DEF_STEREO_COUNT>  (1) 
0

>  <PUBCHEM_ATOM_UDEF_STEREO_COUNT>  (1) 
2

>  <PUBCHEM_BOND_DEF_STEREO_COUNT>  (1) 
0

>  <PUBCHEM_BOND_UDEF_STEREO_COUNT>  (1) 
0

>  <PUBCHEM_ISOTOPIC_ATOM_COUNT>  (1) 
0

>  <PUBCHEM_COMPONENT_COUNT>  (1) 
1

>  <PUBCHEM_CACTVS_TAUTO_COUNT>  (1) 
1

>  <PUBCHEM_CONFORMER_ID>  (1) 
00007FD100000001

>  <PUBCHEM_MMFF94_ENERGY>  (1) 
8.6509

>  <PUBCHEM_FEATURE_SELFOVERLAP>  (1) 
20.298

>  <PUBCHEM_SHAPE_FINGERPRINT>  (1) 
100836 57 16559037094723676275
10912923 1 17632854213827354919
11287383 113 18409450318796459602
117890 112 17060341807562678969
12714333 28 15410892968429685906
13533116 47 18336261242011902778
13690532 89 12468355751891978710
13955234 65 18342734079965748258
14123238 8 18187083957507872719
1420 363 17385727980220500674
14251718 22 12967126120815501413
14252887 29 18113622244498915694
14573314 32 12247411080665781376
15048467 5 17275386507905206248
15242439 84 11959727174662112823
17834072 33 16845285085633128829
17834072 8 11815896760118858833
17834076 25 16702302351536729990
187816 3 9943806694590906255
200 152 11602537624213597519
20281389 69 16558755581377168635
20621476 66 14261089653367441147
20645477 70 9006792990307706376
20767249 13 13623530155781895103
20767249 213 17561363985232621713
20828058 44 17167584907945998307
23402539 116 13406788935195184103
23402655 69 13830134970567832927
23590187 198 14562529574434997035
300161 21 17346591963304525167
42 15 16877663465382660335
42788 4 17847061086124478207
449060 50 18341894086686965598
49783359 22 16588024632348037267
522135 26 14692574308532427638
5374978 207 18335696140247795072
542803 24 17131835369278445032
57483677 66 13334733544021701024
7062679 6 16200165261488510649

>  <PUBCHEM_SHAPE_MULTIPOLES>  (1) 
235.22
14.62
0.85
0.85
0.05
0.12
-0.04
3.86
-0.94
-0.23
-0.01
0.23
0.04
-0.42

>  <PUBCHEM_SHAPE_SELFOVERLAP>  (1) 
444.851

>  <PUBCHEM_SHAPE_VOLUME>  (1) 
146.8

>  <PUBCHEM_COORDINATE_TYPE>  (1) 
2
5
10

$$$$
