32720
     RDKit          3D

 30 32  0  0  0  0  0  0  0  0999 V2000
    3.7503    1.4176    1.2102 O   0  0  0  0  0  0  0  0  0  0  0  0
   -0.9987   -0.4663   -1.4752 O   0  0  0  0  0  0  0  0  0  0  0  0
    6.6745    0.0823   -0.5930 N   0  0  0  0  0  0  0  0  0  0  0  0
    5.8075    0.3963    0.5421 C   0  0  0  0  0  0  0  0  0  0  0  0
    6.1524   -1.0663   -1.3325 C   0  0  0  0  0  0  0  0  0  0  0  0
    8.0388   -0.1809   -0.1369 C   0  0  0  0  0  0  0  0  0  0  0  0
    4.5699    1.1490    0.0801 C   0  0  0  0  0  0  0  0  0  0  0  0
    7.0072   -1.3693   -2.5514 C   0  0  0  0  0  0  0  0  0  0  0  0
    8.0876   -1.3927    0.7782 C   0  0  0  0  0  0  0  0  0  0  0  0
    2.4012    1.5084    0.9873 C   0  0  0  0  0  0  0  0  0  0  0  0
   -0.3452    1.6935    0.5337 C   0  0  0  0  0  0  0  0  0  0  0  0
   -2.5829    0.8261   -0.2191 C   0  0  0  0  0  0  0  0  0  0  0  0
    1.5025    1.1480    1.9915 C   0  0  0  0  0  0  0  0  0  0  0  0
    1.9266    1.9612   -0.2437 C   0  0  0  0  0  0  0  0  0  0  0  0
   -1.7770    1.7901    0.2973 C   0  0  0  0  0  0  0  0  0  0  0  0
    0.1295    1.2406    1.7647 C   0  0  0  0  0  0  0  0  0  0  0  0
    0.5534    2.0537   -0.4705 C   0  0  0  0  0  0  0  0  0  0  0  0
   -4.0339    1.0148   -0.4244 C   0  0  0  0  0  0  0  0  0  0  0  0
   -1.8961   -0.4429   -0.6392 C   0  0  0  0  0  0  0  0  0  0  0  0
   -2.3423   -1.7160   -0.0373 C   0  0  0  0  0  0  0  0  0  0  0  0
   -4.8604    1.3022    0.6617 C   0  0  0  0  0  0  0  0  0  0  0  0
   -4.5771    0.9060   -1.7045 C   0  0  0  0  0  0  0  0  0  0  0  0
   -2.8657   -1.7307    1.2555 C   0  0  0  0  0  0  0  0  0  0  0  0
   -2.2398   -2.9034   -0.7618 C   0  0  0  0  0  0  0  0  0  0  0  0
   -6.2302    1.4809    0.4680 C   0  0  0  0  0  0  0  0  0  0  0  0
   -5.9468    1.0848   -1.8984 C   0  0  0  0  0  0  0  0  0  0  0  0
   -6.7733    1.3722   -0.8121 C   0  0  0  0  0  0  0  0  0  0  0  0
   -3.2867   -2.9331    1.8239 C   0  0  0  0  0  0  0  0  0  0  0  0
   -2.6608   -4.1058   -0.1935 C   0  0  0  0  0  0  0  0  0  0  0  0
   -3.1843   -4.1205    1.0993 C   0  0  0  0  0  0  0  0  0  0  0  0
  1  7  1  0
  1 10  1  0
  2 19  2  0
  3  4  1  0
  3  5  1  0
  3  6  1  0
  4  7  1  0
  5  8  1  0
  6  9  1  0
 10 13  2  0
 10 14  1  0
 11 15  1  0
 11 16  2  0
 11 17  1  0
 12 15  2  0
 12 18  1  0
 12 19  1  0
 13 16  1  0
 14 17  2  0
 18 21  2  0
 18 22  1  0
 19 20  1  0
 20 23  2  0
 20 24  1  0
 21 25  1  0
 22 26  2  0
 23 28  1  0
 24 29  2  0
 25 27  2  0
 26 27  1  0
 28 30  2  0
 29 30  1  0
M  END
>  <PUBCHEM_COMPOUND_CID>  (1) 
32720

>  <PUBCHEM_CONFORMER_RMSD>  (1) 
1

>  <PUBCHEM_CONFORMER_DIVERSEORDER>  (1) 
1
25
16
61
60
7
30
64
48
35
58
52
85
93
31
83
33
21
84
20
8
19
45
69
44
57
79
66
82
91
28
89
12
53
67
50
96
13
10
51
65
43
22
87
29
37
95
27
11
54
56
6
41
62
77
18
59
32
34
24
71
39
78
42
38
4
15
76
5
3
80
72
86
2
40
88
70
74
9
90
63
17
14
92
73
23
26
68
46
81
94
49
75
47
36
55
97

>  <PUBCHEM_MMFF94_PARTIAL_CHARGES>  (1) 
43
1 -0.36
10 0.08
11 0.03
12 -0.01
13 -0.15
14 -0.15
15 -0.18
16 -0.15
17 -0.15
18 0.03
19 0.47
2 -0.57
20 0.09
21 -0.15
22 -0.15
23 -0.15
24 -0.15
25 -0.15
26 -0.15
27 -0.15
28 -0.15
29 -0.15
3 -0.81
30 -0.15
4 0.27
45 0.15
46 0.15
47 0.15
48 0.15
49 0.15
5 0.27
50 0.15
51 0.15
52 0.15
53 0.15
54 0.15
55 0.15
56 0.15
57 0.15
58 0.15
59 0.15
6 0.27
7 0.28

>  <PUBCHEM_EFFECTIVE_ROTOR_COUNT>  (1) 
10

>  <PUBCHEM_PHARMACOPHORE_FEATURES>  (1) 
6
1 1 acceptor
1 2 acceptor
1 3 cation
6 10 11 13 14 16 17 rings
6 18 21 22 25 26 27 rings
6 20 23 24 28 29 30 rings

>  <PUBCHEM_HEAVY_ATOM_COUNT>  (1) 
30

>  <PUBCHEM_ATOM_DEF_STEREO_COUNT>  (1) 
0

>  <PUBCHEM_ATOM_UDEF_STEREO_COUNT>  (1) 
0

>  <PUBCHEM_BOND_DEF_STEREO_COUNT>  (1) 
0

>  <PUBCHEM_BOND_UDEF_STEREO_COUNT>  (1) 
1

>  <PUBCHEM_ISOTOPIC_ATOM_COUNT>  (1) 
0

>  <PUBCHEM_COMPONENT_COUNT>  (1) 
1

>  <PUBCHEM_CACTVS_TAUTO_COUNT>  (1) 
1

>  <PUBCHEM_CONFORMER_ID>  (1) 
00007FD000000001

>  <PUBCHEM_MMFF94_ENERGY>  (1) 
100.8682

>  <PUBCHEM_FEATURE_SELFOVERLAP>  (1) 
30.446

>  <PUBCHEM_SHAPE_FINGERPRINT>  (1) 
10119406 146 18341615888838964335
10369192 42 14057001598473182736
10391435 84 18341889723965388048
10669705 162 18059859458642382294
11796584 16 18411133663120469520
12643181 29 18410288112766676018
12655364 131 15697457523861347087
13560911 43 11743543432166875474
13914758 101 16128379246495913537
14444916 359 18336554832874837123
14856354 85 15864077559422374825
15131766 46 14634870876695726708
15183329 4 18336820914599146392
15230672 131 18187919543891799306
15361156 5 18272083950578308564
15510800 12 17988652895721756342
15927050 60 18410566280772250915
16067689 391 17842255242061816775
18603816 31 17917412242585126284
19319366 153 17604703348765273842
20721686 146 16299495069370754965
20721686 56 17988649545716045142
21307412 95 18342182146006692774
23559900 14 18270952565950970696
23569943 247 17488744463291009063
249057 3 18261109681776397500
25269216 80 17750248061350607602
3383291 50 18060132154843388567
3610482 184 17022906757100313066
4015057 19 17703213135589354369
4058900 60 18117269260644951257
4073 2 18341045328794383896
44062 13 18335138743064471794
4408954 64 16447321358372532307
44317340 157 17676498284906252964
44802255 64 17531519906860600919
484985 159 18200887265496777907
513202 73 18117850017306279675
563151 40 17894349982077405635
58260988 393 10807941474299143973
58260988 521 18114475513568239209
59755656 520 18411130347553721581
6009941 240 18409447003593422934
613672 6 17917723387776211308
70251023 43 17471852980081321699

>  <PUBCHEM_SHAPE_MULTIPOLES>  (1) 
600.67
20.11
3.82
1.84
39.05
5.38
0.32
1.03
6.76
-5.11
-0.92
0.51
0.32
2.84

>  <PUBCHEM_SHAPE_SELFOVERLAP>  (1) 
1277.361

>  <PUBCHEM_SHAPE_VOLUME>  (1) 
334.4

>  <PUBCHEM_COORDINATE_TYPE>  (1) 
2
5
10

$$$$
