32725
     RDKit          3D

 15 16  0  0  0  0  0  0  0  0999 V2000
    1.6947    1.4168   -0.0018 S   0  0  0  0  0  0  0  0  0  0  0  0
   -1.1046    1.3603   -0.0001 N   0  0  0  0  0  0  0  0  0  0  0  0
   -0.1912   -0.6013   -0.0021 N   0  0  0  0  0  0  0  0  0  0  0  0
    6.4343   -0.7207    0.0126 N   0  0  0  0  0  0  0  0  0  0  0  0
   -2.1443    0.4533    0.0005 C   0  0  0  0  0  0  0  0  0  0  0  0
   -1.5546   -0.8131   -0.0008 C   0  0  0  0  0  0  0  0  0  0  0  0
    0.0643    0.7109   -0.0019 C   0  0  0  0  0  0  0  0  0  0  0  0
    2.6839   -0.0955   -0.0020 C   0  0  0  0  0  0  0  0  0  0  0  0
    4.1748    0.2338   -0.0019 C   0  0  0  0  0  0  0  0  0  0  0  0
   -3.5222    0.6359    0.0021 C   0  0  0  0  0  0  0  0  0  0  0  0
   -1.2629    2.8048    0.0010 C   0  0  0  0  0  0  0  0  0  0  0  0
   -2.3017   -1.9852   -0.0006 C   0  0  0  0  0  0  0  0  0  0  0  0
    5.0129   -1.0452   -0.0086 C   0  0  0  0  0  0  0  0  0  0  0  0
   -4.2895   -0.5377    0.0025 C   0  0  0  0  0  0  0  0  0  0  0  0
   -3.6938   -1.8170    0.0010 C   0  0  0  0  0  0  0  0  0  0  0  0
  1  7  1  0
  1  8  1  0
  2  5  1  0
  2  7  2  0
  2 11  1  0
  3  6  1  0
  3  7  1  0
  4 13  1  0
  5  6  2  0
  5 10  1  0
  6 12  1  0
  8  9  1  0
  9 13  1  0
 10 14  2  0
 12 15  2  0
 14 15  1  0
M  CHG  1   2   1
M  END
>  <PUBCHEM_COMPOUND_CID>  (1) 
32725

>  <PUBCHEM_CONFORMER_RMSD>  (1) 
0.6

>  <PUBCHEM_CONFORMER_DIVERSEORDER>  (1) 
1
14
12
43
38
13
34
8
15
37
47
5
41
33
48
54
25
11
50
46
53
31
17
9
26
35
20
36
30
10
42
52
3
6
29
51
32
49
4
2
7
22
39
16
45
40
18
44
27
19
24
23
21
28

>  <PUBCHEM_MMFF94_PARTIAL_CHARGES>  (1) 
21
1 -0.32
10 -0.11
11 0.51
12 -0.11
13 0.27
14 -0.15
15 -0.15
16 0.45
2 -0.76
21 0.15
25 0.15
28 0.15
29 0.15
3 -0.7
30 0.36
31 0.36
4 -0.99
5 0.31
6 0.31
7 0.89
8 0.23

>  <PUBCHEM_EFFECTIVE_ROTOR_COUNT>  (1) 
4

>  <PUBCHEM_PHARMACOPHORE_FEATURES>  (1) 
6
1 3 donor
1 4 cation
1 4 donor
3 2 3 7 cation
5 2 3 5 6 7 rings
6 5 6 10 12 14 15 rings

>  <PUBCHEM_HEAVY_ATOM_COUNT>  (1) 
15

>  <PUBCHEM_ATOM_DEF_STEREO_COUNT>  (1) 
0

>  <PUBCHEM_ATOM_UDEF_STEREO_COUNT>  (1) 
0

>  <PUBCHEM_BOND_DEF_STEREO_COUNT>  (1) 
0

>  <PUBCHEM_BOND_UDEF_STEREO_COUNT>  (1) 
0

>  <PUBCHEM_ISOTOPIC_ATOM_COUNT>  (1) 
0

>  <PUBCHEM_COMPONENT_COUNT>  (1) 
1

>  <PUBCHEM_CACTVS_TAUTO_COUNT>  (1) 
2

>  <PUBCHEM_CONFORMER_ID>  (1) 
00007FD500000001

>  <PUBCHEM_MMFF94_ENERGY>  (1) 
18.7716

>  <PUBCHEM_FEATURE_SELFOVERLAP>  (1) 
30.554

>  <PUBCHEM_SHAPE_FINGERPRINT>  (1) 
10465860 250 17918275363460547792
10968037 39 18335142007835722254
11046707 91 18410575106222311474
11458722 379 18333731325279218698
12032990 46 18337674234327017753
12555020 224 18338225055456904039
13288520 33 18411420613521229286
13690532 89 18408604777100997044
13862211 1 18340769347044064191
14251731 8 18408039598175567774
14508225 48 18336816572218756397
15196674 1 18410575132187423940
15536298 74 18340485698328488152
16945 1 18194402423694563733
17804303 29 18413671322503047992
17834072 33 18260834821734572900
17834072 8 18259977176488857063
18186145 218 17096077116713312933
19141452 34 18131071575609855847
200 152 17917708015291699590
20374829 77 18410009948851047690
21267235 1 18336552698165353459
21426921 1 18337108960738832188
2297311 6 18342748403380298316
23402539 116 18272364274577123669
23403322 49 18410574002479273230
23463225 33 18338237179853739437
23557571 272 18202006474013338724
23559900 14 18411692223385757808
3004659 81 18259704506632881310
335352 9 18410573985900804157
4214541 1 18410855422080390400
5104073 3 18341898540478316352
559249 180 18188766120663362426
573450 72 18189045418254937720
67856867 119 18189338034546307868
7364860 26 17980200017361977769
76465 3 18057880440997361207

>  <PUBCHEM_SHAPE_MULTIPOLES>  (1) 
297.6
10.55
2.18
0.61
17.09
0.84
0
-5.46
0.02
-1.44
0
-0.02
0.01
0

>  <PUBCHEM_SHAPE_SELFOVERLAP>  (1) 
607.706

>  <PUBCHEM_SHAPE_VOLUME>  (1) 
173.7

>  <PUBCHEM_COORDINATE_TYPE>  (1) 
2
5
10

$$$$
