32728
     RDKit          3D

 19 19  0  0  0  0  0  0  0  0999 V2000
   -3.9964    1.0815    1.1112 Cl  0  0  0  0  0  0  0  0  0  0  0  0
   -2.3863    2.5152   -0.8016 Cl  0  0  0  0  0  0  0  0  0  0  0  0
   -3.9784    0.2842   -1.7048 Cl  0  0  0  0  0  0  0  0  0  0  0  0
    1.6812   -0.2393   -0.0014 N   0  0  0  0  0  0  0  0  0  0  0  0
   -0.5916    0.3118   -0.1707 N   0  0  0  0  0  0  0  0  0  0  0  0
    0.0918   -1.9030    0.4505 N   0  0  0  0  0  0  0  0  0  0  0  0
   -2.2419   -1.3695    0.2852 N   0  0  0  0  0  0  0  0  0  0  0  0
    2.4948    4.5562    0.1778 N   0  0  0  0  0  0  0  0  0  0  0  0
    2.7534   -1.1640    0.2776 C   0  0  0  0  0  0  0  0  0  0  0  0
    2.0207    1.1334   -0.3811 C   0  0  0  0  0  0  0  0  0  0  0  0
    3.0442   -2.0367   -0.9388 C   0  0  0  0  0  0  0  0  0  0  0  0
    0.3370   -0.6265    0.0969 C   0  0  0  0  0  0  0  0  0  0  0  0
    1.9051    2.0727    0.8147 C   0  0  0  0  0  0  0  0  0  0  0  0
    4.2000   -3.0010   -0.7110 C   0  0  0  0  0  0  0  0  0  0  0  0
   -1.8545   -0.1302   -0.0570 C   0  0  0  0  0  0  0  0  0  0  0  0
   -1.2153   -2.2016    0.5241 C   0  0  0  0  0  0  0  0  0  0  0  0
    2.2349    3.4605    0.4576 C   0  0  0  0  0  0  0  0  0  0  0  0
   -2.9366    0.8554   -0.3394 C   0  0  0  0  0  0  0  0  0  0  0  0
   -1.5621   -3.5989    0.9103 C   0  0  0  0  0  0  0  0  0  0  0  0
  1 18  1  0
  2 18  1  0
  3 18  1  0
  4  9  1  0
  4 10  1  0
  4 12  1  0
  5 12  2  0
  5 15  1  0
  6 12  1  0
  6 16  2  0
  7 15  2  0
  7 16  1  0
  8 17  3  0
  9 11  1  0
 10 13  1  0
 11 14  1  0
 13 17  1  0
 15 18  1  0
 16 19  1  0
M  END
>  <PUBCHEM_COMPOUND_CID>  (1) 
32728

>  <PUBCHEM_CONFORMER_RMSD>  (1) 
0.8

>  <PUBCHEM_CONFORMER_DIVERSEORDER>  (1) 
1
107
38
118
61
113
28
35
112
41
73
108
56
106
102
100
23
101
33
63
86
8
62
93
117
97
110
81
116
79
22
69
96
5
74
67
109
103
80
85
119
64
58
48
65
11
78
31
4
46
34
57
39
30
76
2
99
42
59
98
114
88
24
115
94
90
83
51
72
52
70
82
95
66
105
111
91
89
20
120
19
32
50
77
71
16
84
55
60
17
54
26
29
18
27
92
37
40
104
45
44
87
75
14
47
68
13
21
15
43
10
9
7
3
36
12
53
25
49
6

>  <PUBCHEM_MMFF94_PARTIAL_CHARGES>  (1) 
17
1 -0.29
10 0.37
12 0.72
13 0.2
15 0.48
16 0.48
17 0.36
18 1.01
19 0.14
2 -0.29
3 -0.29
4 -0.84
5 -0.62
6 -0.62
7 -0.62
8 -0.56
9 0.37

>  <PUBCHEM_EFFECTIVE_ROTOR_COUNT>  (1) 
6

>  <PUBCHEM_PHARMACOPHORE_FEATURES>  (1) 
4
1 14 hydrophobe
1 8 acceptor
4 4 5 6 12 cation
6 5 6 7 12 15 16 rings

>  <PUBCHEM_HEAVY_ATOM_COUNT>  (1) 
19

>  <PUBCHEM_ATOM_DEF_STEREO_COUNT>  (1) 
0

>  <PUBCHEM_ATOM_UDEF_STEREO_COUNT>  (1) 
0

>  <PUBCHEM_BOND_DEF_STEREO_COUNT>  (1) 
0

>  <PUBCHEM_BOND_UDEF_STEREO_COUNT>  (1) 
0

>  <PUBCHEM_ISOTOPIC_ATOM_COUNT>  (1) 
0

>  <PUBCHEM_COMPONENT_COUNT>  (1) 
1

>  <PUBCHEM_CACTVS_TAUTO_COUNT>  (1) 
1

>  <PUBCHEM_CONFORMER_ID>  (1) 
00007FD800000001

>  <PUBCHEM_MMFF94_ENERGY>  (1) 
36.786

>  <PUBCHEM_FEATURE_SELFOVERLAP>  (1) 
20.297

>  <PUBCHEM_SHAPE_FINGERPRINT>  (1) 
10608611 8 18265330784224327552
12403259 226 18335421219032325997
12788726 201 17834682595979503890
13140716 1 18334858363526266899
14223421 5 18193278722009435314
14250199 8 18341884191351464325
14648413 74 18411701032231442834
14790565 3 18049740515904327020
15042514 8 16752968165921242882
16945 1 18263074427698514451
18186145 218 18338511937596654995
20600515 1 18128548063464415218
20671657 1 18411427223370649588
21029758 11 18268144254386598598
21041028 32 17255687391789936307
21285901 2 17341822119081951958
23402539 116 17983852285783277662
23558518 356 18342170094513478783
23559900 14 18340479067035762898
2748010 2 18261677090042736103
283562 15 17761777265417273650
3084891 72 17977384928355758282
3250762 1 18337677541283426882
621550 34 17906464572616529275
7226269 152 18048595920300088170
7364860 26 18341335603958363722
74978 22 18410859862528058842
81228 2 17897735503065280227
9709674 26 18339357569054284406
9925002 15 15959771741174007820
9981440 41 17910654790070867376

>  <PUBCHEM_SHAPE_MULTIPOLES>  (1) 
371.72
7
4.96
1.11
0.4
3.84
0.21
-1.2
1.87
-4.08
-1.14
0.78
-0.15
1.42

>  <PUBCHEM_SHAPE_SELFOVERLAP>  (1) 
715.586

>  <PUBCHEM_SHAPE_VOLUME>  (1) 
221.5

>  <PUBCHEM_COORDINATE_TYPE>  (1) 
2
5
10

$$$$
