32726
     RDKit          3D

 23 23  0  0  0  0  0  0  0  0999 V2000
    3.0337   -2.4686    2.1556 Cl  0  0  0  0  0  0  0  0  0  0  0  0
    0.8061   -3.9006    1.0181 Cl  0  0  0  0  0  0  0  0  0  0  0  0
    3.0557   -3.2450   -0.6661 Cl  0  0  0  0  0  0  0  0  0  0  0  0
    3.7232    1.6100   -2.0211 Cl  0  0  0  0  0  0  0  0  0  0  0  0
    1.8414    3.5652   -1.0503 Cl  0  0  0  0  0  0  0  0  0  0  0  0
    3.7132    2.3840    0.8013 Cl  0  0  0  0  0  0  0  0  0  0  0  0
   -1.7315    0.2216   -0.1402 N   0  0  0  0  0  0  0  0  0  0  0  0
    0.4243    1.1127   -0.3783 N   0  0  0  0  0  0  0  0  0  0  0  0
    0.1065   -1.1786    0.2593 N   0  0  0  0  0  0  0  0  0  0  0  0
    2.3251   -0.2954    0.0242 N   0  0  0  0  0  0  0  0  0  0  0  0
   -4.5545   -3.7180   -0.5873 N   0  0  0  0  0  0  0  0  0  0  0  0
   -2.3147    1.4958   -0.4842 C   0  0  0  0  0  0  0  0  0  0  0  0
   -2.3729    2.4116    0.7355 C   0  0  0  0  0  0  0  0  0  0  0  0
   -2.6241   -0.8974    0.1677 C   0  0  0  0  0  0  0  0  0  0  0  0
   -3.0280    3.7609    0.4297 C   0  0  0  0  0  0  0  0  0  0  0  0
   -0.3416    0.0444   -0.0840 C   0  0  0  0  0  0  0  0  0  0  0  0
   -2.9420   -1.7009   -1.0891 C   0  0  0  0  0  0  0  0  0  0  0  0
   -3.1306    4.6239    1.6778 C   0  0  0  0  0  0  0  0  0  0  0  0
    1.7428    0.8692   -0.3035 C   0  0  0  0  0  0  0  0  0  0  0  0
    1.4455   -1.2738    0.2927 C   0  0  0  0  0  0  0  0  0  0  0  0
   -3.8433   -2.8281   -0.8074 C   0  0  0  0  0  0  0  0  0  0  0  0
    2.0132   -2.6006    0.6658 C   0  0  0  0  0  0  0  0  0  0  0  0
    2.6525    2.0080   -0.6162 C   0  0  0  0  0  0  0  0  0  0  0  0
  1 22  1  0
  2 22  1  0
  3 22  1  0
  4 23  1  0
  5 23  1  0
  6 23  1  0
  7 12  1  0
  7 14  1  0
  7 16  1  0
  8 16  2  0
  8 19  1  0
  9 16  1  0
  9 20  2  0
 10 19  2  0
 10 20  1  0
 11 21  3  0
 12 13  1  0
 13 15  1  0
 14 17  1  0
 15 18  1  0
 17 21  1  0
 19 23  1  0
 20 22  1  0
M  END
>  <PUBCHEM_COMPOUND_CID>  (1) 
32726

>  <PUBCHEM_CONFORMER_RMSD>  (1) 
0.8

>  <PUBCHEM_CONFORMER_DIVERSEORDER>  (1) 
1
100
85
206
52
150
136
194
39
200
71
35
93
49
111
153
184
199
187
13
198
157
148
40
171
209
175
191
105
160
164
201
137
113
195
51
82
116
131
208
106
63
89
86
80
45
81
75
183
186
176
170
114
92
167
139
156
141
26
174
203
101
151
57
144
53
102
149
122
127
173
4
5
120
146
205
24
74
188
94
182
163
32
98
166
8
110
37
28
125
124
165
76
161
96
72
133
193
29
115
143
11
197
91
12
190
169
135
103
179
181
64
130
58
117
196
6
126
159
192
66
65
18
22
142
123
108
207
88
3
177
155
152
95
140
132
112
62
47
61
128
38
48
109
77
158
25
189
168
7
10
59
118
44
90
178
154
33
30
46
204
78
50
162
145
84
56
9
97
36
20
21
67
147
129
172
41
73
119
19
134
23
34
69
185
2
104
15
27
70
42
138
180
55
60
31
68
99
54
79
14
202
83
121
87
17
107
43
16

>  <PUBCHEM_MMFF94_PARTIAL_CHARGES>  (1) 
20
1 -0.29
10 -0.62
11 -0.56
12 0.37
14 0.37
16 0.72
17 0.2
19 0.48
2 -0.29
20 0.48
21 0.36
22 1.01
23 1.01
3 -0.29
4 -0.29
5 -0.29
6 -0.29
7 -0.84
8 -0.62
9 -0.62

>  <PUBCHEM_EFFECTIVE_ROTOR_COUNT>  (1) 
8

>  <PUBCHEM_PHARMACOPHORE_FEATURES>  (1) 
4
1 11 acceptor
1 18 hydrophobe
4 7 8 9 16 cation
6 8 9 10 16 19 20 rings

>  <PUBCHEM_HEAVY_ATOM_COUNT>  (1) 
23

>  <PUBCHEM_ATOM_DEF_STEREO_COUNT>  (1) 
0

>  <PUBCHEM_ATOM_UDEF_STEREO_COUNT>  (1) 
0

>  <PUBCHEM_BOND_DEF_STEREO_COUNT>  (1) 
0

>  <PUBCHEM_BOND_UDEF_STEREO_COUNT>  (1) 
0

>  <PUBCHEM_ISOTOPIC_ATOM_COUNT>  (1) 
0

>  <PUBCHEM_COMPONENT_COUNT>  (1) 
1

>  <PUBCHEM_CACTVS_TAUTO_COUNT>  (1) 
1

>  <PUBCHEM_CONFORMER_ID>  (1) 
00007FD600000001

>  <PUBCHEM_MMFF94_ENERGY>  (1) 
40.1884

>  <PUBCHEM_FEATURE_SELFOVERLAP>  (1) 
20.297

>  <PUBCHEM_SHAPE_FINGERPRINT>  (1) 
10090160 65 17900249003462021039
12293681 160 17832432268664283701
12403260 363 18264205979951292676
12553582 1 17757549651508356514
12788726 201 18266743669382006049
13140716 1 18263360283467721984
133893 2 17603581911650437478
13911987 19 17756715500065864909
14178342 30 18267001891474829162
14787075 74 17762052542481558151
14790565 3 18189356614538167052
14943834 7 18411417276468770805
14955137 171 17619084832186269105
15420108 30 18339635625832743248
15842332 3 18334578997072328669
19319366 153 17246136019741514018
20600515 1 17838315412172134546
20671657 1 18266466399268579148
21421861 104 18408890633329790179
23558518 356 18408888416783572379
23559900 14 18264465374142347351
23598288 3 18130498652778841997
23598291 2 18339361842656916383
25147074 1 18334013852474963164
283562 15 18266464393534643641
3178227 256 17614288092994928811
3380486 145 17246087654525782258
352729 6 17828492697401171718
7097593 13 18192991521846366555
7164475 11 18413383237835192239
7832392 63 18194119607944459650

>  <PUBCHEM_SHAPE_MULTIPOLES>  (1) 
459.64
7.52
6.77
1.51
3.58
1.22
0.24
-0.46
1.18
3.21
-0.29
-0.79
-0.39
-4.12

>  <PUBCHEM_SHAPE_SELFOVERLAP>  (1) 
865.271

>  <PUBCHEM_SHAPE_VOLUME>  (1) 
278.3

>  <PUBCHEM_COORDINATE_TYPE>  (1) 
2
5
10

$$$$
