32723
     RDKit          3D

 24 26  0  0  0  0  0  0  0  0999 V2000
   -1.2553   -0.3295    2.0463 O   0  0  0  0  0  0  0  0  0  0  0  0
   -0.4549   -2.2423   -0.3610 O   0  0  0  0  0  0  0  0  0  0  0  0
    3.5788   -1.0143    0.1273 N   0  0  0  0  0  0  0  0  0  0  0  0
    3.7440    0.4461    0.1350 C   0  0  0  0  0  0  0  0  0  0  0  0
    4.5890   -1.6587   -0.7235 C   0  0  0  0  0  0  0  0  0  0  0  0
    5.1315    0.8418    0.6428 C   0  0  0  0  0  0  0  0  0  0  0  0
    6.0040   -1.3317   -0.2440 C   0  0  0  0  0  0  0  0  0  0  0  0
    6.2319    0.1740   -0.1738 C   0  0  0  0  0  0  0  0  0  0  0  0
    2.2320   -1.3745   -0.3154 C   0  0  0  0  0  0  0  0  0  0  0  0
    1.1887   -0.8061    0.6435 C   0  0  0  0  0  0  0  0  0  0  0  0
   -1.3747   -0.2159    0.6127 C   0  0  0  0  0  0  0  0  0  0  0  0
   -0.2366   -1.1810    0.2282 C   0  0  0  0  0  0  0  0  0  0  0  0
   -2.7667   -0.6702    0.1573 C   0  0  0  0  0  0  0  0  0  0  0  0
   -1.1211    1.2298    0.1891 C   0  0  0  0  0  0  0  0  0  0  0  0
   -3.0534   -0.6572   -1.1869 C   0  0  0  0  0  0  0  0  0  0  0  0
   -1.4796    2.2437    1.0494 C   0  0  0  0  0  0  0  0  0  0  0  0
   -3.6705   -1.0712    1.1119 C   0  0  0  0  0  0  0  0  0  0  0  0
   -0.5436    1.4676   -1.0382 C   0  0  0  0  0  0  0  0  0  0  0  0
   -4.3197   -1.0700   -1.6013 C   0  0  0  0  0  0  0  0  0  0  0  0
   -1.2485    3.5638    0.6624 C   0  0  0  0  0  0  0  0  0  0  0  0
   -4.9367   -1.4841    0.6976 C   0  0  0  0  0  0  0  0  0  0  0  0
   -0.3123    2.7877   -1.4253 C   0  0  0  0  0  0  0  0  0  0  0  0
   -5.2613   -1.4834   -0.6590 C   0  0  0  0  0  0  0  0  0  0  0  0
   -0.6649    3.8357   -0.5749 C   0  0  0  0  0  0  0  0  0  0  0  0
  1 11  1  0
  2 12  2  0
  3  4  1  0
  3  5  1  0
  3  9  1  0
  4  6  1  0
  5  7  1  0
  6  8  1  0
  7  8  1  0
  9 10  1  0
 10 12  1  0
 11 12  1  0
 11 13  1  0
 11 14  1  0
 13 15  2  0
 13 17  1  0
 14 16  2  0
 14 18  1  0
 15 19  1  0
 16 20  1  0
 17 21  2  0
 18 22  2  0
 19 23  2  0
 20 24  2  0
 21 23  1  0
 22 24  1  0
M  END
>  <PUBCHEM_COMPOUND_CID>  (1) 
32723

>  <PUBCHEM_CONFORMER_RMSD>  (1) 
0.8

>  <PUBCHEM_CONFORMER_DIVERSEORDER>  (1) 
1
36
100
20
37
122
58
27
47
39
91
82
74
76
34
38
106
66
29
57
84
54
45
113
94
71
92
10
78
23
48
12
63
72
107
21
15
60
109
2
120
62
24
33
13
108
103
49
118
53
50
28
121
90
98
4
111
35
127
64
61
40
75
117
8
16
83
110
114
59
25
86
11
87
88
5
77
105
104
42
44
73
112
7
14
31
43
69
119
96
46
22
65
79
3
124
70
9
126
18
101
95
6
123
116
81
80
125
17
32
26
52
55
30
99
67
115
19
51
68
56
41
93
89
97
85
102

>  <PUBCHEM_MMFF94_PARTIAL_CHARGES>  (1) 
32
1 -0.68
10 0.06
11 0.63
12 0.45
13 -0.14
14 -0.14
15 -0.15
16 -0.15
17 -0.15
18 -0.15
19 -0.15
2 -0.57
20 -0.15
21 -0.15
22 -0.15
23 -0.15
24 -0.15
3 -0.81
39 0.4
4 0.27
40 0.15
41 0.15
42 0.15
43 0.15
44 0.15
45 0.15
46 0.15
47 0.15
48 0.15
49 0.15
5 0.27
9 0.27

>  <PUBCHEM_EFFECTIVE_ROTOR_COUNT>  (1) 
7.2

>  <PUBCHEM_PHARMACOPHORE_FEATURES>  (1) 
7
1 1 acceptor
1 1 donor
1 2 acceptor
1 3 cation
6 13 15 17 19 21 23 rings
6 14 16 18 20 22 24 rings
6 3 4 5 6 7 8 rings

>  <PUBCHEM_HEAVY_ATOM_COUNT>  (1) 
24

>  <PUBCHEM_ATOM_DEF_STEREO_COUNT>  (1) 
0

>  <PUBCHEM_ATOM_UDEF_STEREO_COUNT>  (1) 
0

>  <PUBCHEM_BOND_DEF_STEREO_COUNT>  (1) 
0

>  <PUBCHEM_BOND_UDEF_STEREO_COUNT>  (1) 
0

>  <PUBCHEM_ISOTOPIC_ATOM_COUNT>  (1) 
0

>  <PUBCHEM_COMPONENT_COUNT>  (1) 
1

>  <PUBCHEM_CACTVS_TAUTO_COUNT>  (1) 
2

>  <PUBCHEM_CONFORMER_ID>  (1) 
00007FD300000001

>  <PUBCHEM_MMFF94_ENERGY>  (1) 
56.2884

>  <PUBCHEM_FEATURE_SELFOVERLAP>  (1) 
35.522

>  <PUBCHEM_SHAPE_FINGERPRINT>  (1) 
10366900 7 18186527592488552210
10670039 82 18262536818764024012
107951 10 12535630487761637492
11045515 52 18334852840203520901
11101153 10 18409175428748841244
11265709 11 18410015455078372437
11315181 36 13840274693307919966
11578080 2 12676979304903502739
12166972 35 17530970215286463398
12403260 363 18336261242064390002
12516196 113 18410571825120875199
12788726 201 18261382313235584803
13004483 165 18339631266150956191
13009979 54 17774162452466672243
13149001 5 17897444115319796811
13911987 19 18115319984720157694
14142880 1 18264492780191591029
14347332 77 18339919295569741198
14840074 17 18130509733573023766
14955137 171 18267872859782716267
15849732 13 18131353021165139807
167882 2 17901670689256031229
17349148 13 17749116569222051590
17357779 13 18409720777018727069
17980427 23 17774455953198616713
1813 80 18201170922390370335
19489759 90 16515399672761373542
200 152 18409727361256423758
20600515 1 18269574856242441463
21236236 1 18340488867855941112
21344244 246 17907849957393497629
221357 26 18343021086885956006
22182937 141 18124599682865651264
22224240 67 9655579634734260631
23175994 123 18261677064589138119
23227448 37 18195529186130859788
23352939 185 18202565107049673024
23402539 116 18411138021816351687
23557571 272 18410858733125493094
23559900 14 17531247309322750034
23569914 152 17258753942172780942
283562 15 18336544919652390011
3009799 131 18187638124680552255
376196 1 16236178398672741053
4325135 7 17703792531088141494
469060 322 17968105187540017040
497634 4 17561091276278913746
5104073 3 18268425738470261170
5171179 24 18058993090972761513
5283173 99 17822279154981253989
6913067 236 18343007905236140602
7399639 24 18272923921874916718

>  <PUBCHEM_SHAPE_MULTIPOLES>  (1) 
477.19
11.93
3.42
1.31
14.85
4.45
0
-8.07
-1.13
-1.6
-0.44
-1.14
0.15
0.13

>  <PUBCHEM_SHAPE_SELFOVERLAP>  (1) 
1015.995

>  <PUBCHEM_SHAPE_VOLUME>  (1) 
264.1

>  <PUBCHEM_COORDINATE_TYPE>  (1) 
2
5
10

$$$$
