32730
     RDKit          3D

 22 22  0  0  0  0  0  0  0  0999 V2000
   -4.7394   -0.8483    0.9690 Cl  0  0  0  0  0  0  0  0  0  0  0  0
   -4.3809    0.9386   -1.2639 Cl  0  0  0  0  0  0  0  0  0  0  0  0
   -3.7724   -1.8619   -1.6006 Cl  0  0  0  0  0  0  0  0  0  0  0  0
    0.2734    2.1750   -0.0063 N   0  0  0  0  0  0  0  0  0  0  0  0
    0.2941   -0.0068    0.8524 N   0  0  0  0  0  0  0  0  0  0  0  0
   -1.6736   -1.3648    0.6485 N   0  0  0  0  0  0  0  0  0  0  0  0
   -1.6644    0.8720   -0.2201 N   0  0  0  0  0  0  0  0  0  0  0  0
    5.1155    2.0062    0.2655 N   0  0  0  0  0  0  0  0  0  0  0  0
    1.0425   -3.2008    0.7831 C   0  0  0  0  0  0  0  0  0  0  0  0
    2.1780   -2.5100    0.0215 C   0  0  0  0  0  0  0  0  0  0  0  0
    0.2921   -2.2554    1.7281 C   0  0  0  0  0  0  0  0  0  0  0  0
    2.9139   -3.4949   -0.8879 C   0  0  0  0  0  0  0  0  0  0  0  0
   -0.4151   -1.1248    1.0238 C   0  0  0  0  0  0  0  0  0  0  0  0
    1.6374    2.3558    0.4473 C   0  0  0  0  0  0  0  0  0  0  0  0
   -0.3981    3.2664   -0.6823 C   0  0  0  0  0  0  0  0  0  0  0  0
   -0.3982    0.9542    0.2196 C   0  0  0  0  0  0  0  0  0  0  0  0
    4.0668   -2.8242   -1.6176 C   0  0  0  0  0  0  0  0  0  0  0  0
    2.6229    1.7137   -0.5234 C   0  0  0  0  0  0  0  0  0  0  0  0
   -1.1254    4.1362    0.3252 C   0  0  0  0  0  0  0  0  0  0  0  0
   -2.2386   -0.3160    0.0289 C   0  0  0  0  0  0  0  0  0  0  0  0
   -3.6466   -0.4880   -0.4293 C   0  0  0  0  0  0  0  0  0  0  0  0
    4.0157    1.8778   -0.0815 C   0  0  0  0  0  0  0  0  0  0  0  0
  1 21  1  0
  2 21  1  0
  3 21  1  0
  4 14  1  0
  4 15  1  0
  4 16  1  0
  5 13  2  0
  5 16  1  0
  6 13  1  0
  6 20  2  0
  7 16  2  0
  7 20  1  0
  8 22  3  0
  9 10  1  0
  9 11  1  0
 10 12  1  0
 11 13  1  0
 12 17  1  0
 14 18  1  0
 15 19  1  0
 18 22  1  0
 20 21  1  0
M  END
>  <PUBCHEM_COMPOUND_CID>  (1) 
32730

>  <PUBCHEM_CONFORMER_RMSD>  (1) 
1

>  <PUBCHEM_CONFORMER_DIVERSEORDER>  (1) 
2
37
265
80
41
497
133
503
314
266
175
168
286
277
356
491
344
257
158
138
524
167
464
259
57
407
281
384
86
244
4
412
385
489
223
75
105
43
7
325
477
363
443
388
24
50
70
311
512
148
327
97
516
128
239
415
309
59
91
190
203
21
523
25
113
67
451
245
8
117
71
518
513
116
493
38
342
142
132
374
34
68
46
60
5
178
81
150
82
438
66
187
12
93
410
16
102
297
33
40
135
202
53
98
13
9
147
28
65
10
45
85
160
184
122
495
154
1
193
252
19
18
130
169
3
112
20
197
165

>  <PUBCHEM_MMFF94_PARTIAL_CHARGES>  (1) 
17
1 -0.29
11 0.14
13 0.48
14 0.37
15 0.37
16 0.72
18 0.2
2 -0.29
20 0.48
21 1.01
22 0.36
3 -0.29
4 -0.84
5 -0.62
6 -0.62
7 -0.62
8 -0.56

>  <PUBCHEM_EFFECTIVE_ROTOR_COUNT>  (1) 
9

>  <PUBCHEM_PHARMACOPHORE_FEATURES>  (1) 
5
1 17 hydrophobe
1 8 acceptor
4 4 5 7 16 cation
4 9 10 11 12 hydrophobe
6 5 6 7 13 16 20 rings

>  <PUBCHEM_HEAVY_ATOM_COUNT>  (1) 
22

>  <PUBCHEM_ATOM_DEF_STEREO_COUNT>  (1) 
0

>  <PUBCHEM_ATOM_UDEF_STEREO_COUNT>  (1) 
0

>  <PUBCHEM_BOND_DEF_STEREO_COUNT>  (1) 
0

>  <PUBCHEM_BOND_UDEF_STEREO_COUNT>  (1) 
0

>  <PUBCHEM_ISOTOPIC_ATOM_COUNT>  (1) 
0

>  <PUBCHEM_COMPONENT_COUNT>  (1) 
1

>  <PUBCHEM_CACTVS_TAUTO_COUNT>  (1) 
4

>  <PUBCHEM_CONFORMER_ID>  (1) 
00007FDA00000002

>  <PUBCHEM_MMFF94_ENERGY>  (1) 
35.26

>  <PUBCHEM_FEATURE_SELFOVERLAP>  (1) 
25.372

>  <PUBCHEM_SHAPE_FINGERPRINT>  (1) 
10906281 52 18193858147827253828
1100329 8 17762339111137182920
12788726 201 17831857946085816451
13140716 1 18189893120076571425
14251757 5 17903638484783990815
1813 80 18271239401136446059
19591789 44 17685215371651174827
20028762 73 17765154260695080399
20642791 35 18192994824871486777
21344244 246 18268985552180340406
21421566 26 17984979289206747135
22182313 1 18115323278812452090
22620623 9 17554313731839072615
23402539 116 18339635771287053524
23419403 2 17753369518710914851
23557571 272 17765975222065783578
23558518 356 18264785259101445500
23566358 2 18191572073768040212
23598288 3 17615410260205854347
23598291 2 18201714051318016927
266924 87 18409445856389385740
3027735 51 18412271618721521736
3084891 72 18336541732881972152
3084891 8 18409163320581918736
3298306 158 18336549438274425062
352729 6 17685772823998828475
463206 1 18341051938311358526
532947 4 18410577309625287602
59554788 170 18339369565082240019
6138700 20 18336541703249126520
81228 2 17398920827469635027

>  <PUBCHEM_SHAPE_MULTIPOLES>  (1) 
433.45
8.28
5.26
1.36
0.07
1.61
0.13
-1.75
2.88
-4.48
0.38
0.36
-1.04
0.97

>  <PUBCHEM_SHAPE_SELFOVERLAP>  (1) 
831.622

>  <PUBCHEM_SHAPE_VOLUME>  (1) 
259.4

>  <PUBCHEM_COORDINATE_TYPE>  (1) 
2
5
10

$$$$
