32735
     RDKit          3D

 10 11  0  0  1  0  0  0  0  0999 V2000
    2.2417    1.4251   -0.1858 O   0  0  0  0  0  0  0  0  0  0  0  0
   -1.1444    0.3111    0.2094 C   0  0  0  0  0  0  0  0  0  0  0  0
   -0.7666   -1.1868   -0.0107 C   0  0  0  0  0  0  0  0  0  0  0  0
   -0.0184    0.5881   -0.8340 C   0  0  0  0  0  0  0  0  0  0  0  0
   -0.4859   -0.7586   -1.4828 C   0  0  0  0  0  0  0  0  0  0  0  0
    0.4742   -1.6150    0.7921 C   0  0  0  0  0  0  0  0  0  0  0  0
    1.4146    0.5129   -0.1994 C   0  0  0  0  0  0  0  0  0  0  0  0
    1.7446   -0.8588    0.3696 C   0  0  0  0  0  0  0  0  0  0  0  0
   -0.9146    0.8948    1.5873 C   0  0  0  0  0  0  0  0  0  0  0  0
   -2.5451    0.6873   -0.2457 C   0  0  0  0  0  0  0  0  0  0  0  0
  1  7  2  0
  2  3  1  0
  2  4  1  0
  2  9  1  0
  2 10  1  0
  3  5  1  0
  3  6  1  0
  4  5  1  0
  4  7  1  0
  6  8  1  0
  7  8  1  0
M  END
>  <PUBCHEM_COMPOUND_CID>  (1) 
32735

>  <PUBCHEM_CONFORMER_RMSD>  (1) 
0.4

>  <PUBCHEM_CONFORMER_DIVERSEORDER>  (1) 
1
2

>  <PUBCHEM_MMFF94_PARTIAL_CHARGES>  (1) 
4
1 -0.57
4 0.05
7 0.46
8 0.06

>  <PUBCHEM_EFFECTIVE_ROTOR_COUNT>  (1) 
0.8

>  <PUBCHEM_PHARMACOPHORE_FEATURES>  (1) 
3
1 1 acceptor
3 2 9 10 hydrophobe
7 2 3 4 5 6 7 8 rings

>  <PUBCHEM_HEAVY_ATOM_COUNT>  (1) 
10

>  <PUBCHEM_ATOM_DEF_STEREO_COUNT>  (1) 
0

>  <PUBCHEM_ATOM_UDEF_STEREO_COUNT>  (1) 
2

>  <PUBCHEM_BOND_DEF_STEREO_COUNT>  (1) 
0

>  <PUBCHEM_BOND_UDEF_STEREO_COUNT>  (1) 
0

>  <PUBCHEM_ISOTOPIC_ATOM_COUNT>  (1) 
0

>  <PUBCHEM_COMPONENT_COUNT>  (1) 
1

>  <PUBCHEM_CACTVS_TAUTO_COUNT>  (1) 
2

>  <PUBCHEM_CONFORMER_ID>  (1) 
00007FDF00000001

>  <PUBCHEM_MMFF94_ENERGY>  (1) 
32.9676

>  <PUBCHEM_FEATURE_SELFOVERLAP>  (1) 
15.223

>  <PUBCHEM_SHAPE_FINGERPRINT>  (1) 
12423570 1 16480537259968338003
13024252 1 12831141898615620596
137420 1 16159283142471193015
16945 1 18263354785761928655
19837323 101 16987186935332943920
21040471 1 18187370977366431838
29004967 10 17678457463432090859
369184 2 18192144013340900832
5084963 1 18129661868210478793
68250623 7 18342744039198127719

>  <PUBCHEM_SHAPE_MULTIPOLES>  (1) 
199.93
2.5
1.5
1.26
0.24
0.15
0.07
-0.77
0.01
-0.47
0.14
0.25
0.02
-0.38

>  <PUBCHEM_SHAPE_SELFOVERLAP>  (1) 
416.523

>  <PUBCHEM_SHAPE_VOLUME>  (1) 
115.5

>  <PUBCHEM_COORDINATE_TYPE>  (1) 
2
5
10

$$$$
