32734
     RDKit          3D

 16 17  0  0  1  0  0  0  0  0999 V2000
    0.9258   -1.3645   -0.8740 O   0  0  0  0  0  0  0  0  0  0  0  0
    0.7009    1.5074   -0.7211 O   0  0  0  0  0  0  0  0  0  0  0  0
   -2.4093   -0.1717   -0.4296 O   0  0  0  0  0  0  0  0  0  0  0  0
   -0.9433   -1.2136    1.0202 O   0  0  0  0  0  0  0  0  0  0  0  0
   -0.2680   -0.6774   -1.2301 C   0  0  0  0  0  0  0  0  0  0  0  0
   -0.0006    0.7417   -1.7031 C   0  0  0  0  0  0  0  0  0  0  0  0
    1.8632   -0.5728   -0.2683 C   0  0  0  0  0  0  0  0  0  0  0  0
    1.7514    0.8147   -0.1840 C   0  0  0  0  0  0  0  0  0  0  0  0
   -1.2195   -0.7325   -0.0703 C   0  0  0  0  0  0  0  0  0  0  0  0
   -3.4150   -0.1581    0.5884 C   0  0  0  0  0  0  0  0  0  0  0  0
   -4.6701    0.4957    0.0309 C   0  0  0  0  0  0  0  0  0  0  0  0
    2.9690   -1.2178    0.2880 C   0  0  0  0  0  0  0  0  0  0  0  0
    2.7235    1.5559    0.4890 C   0  0  0  0  0  0  0  0  0  0  0  0
    3.9488   -0.4756    0.9477 C   0  0  0  0  0  0  0  0  0  0  0  0
    3.8237    0.9095    1.0522 C   0  0  0  0  0  0  0  0  0  0  0  0
   -5.7805    0.5591    1.0642 C   0  0  0  0  0  0  0  0  0  0  0  0
  1  5  1  0
  1  7  1  0
  2  6  1  0
  2  8  1  0
  3  9  1  0
  3 10  1  0
  4  9  2  0
  5  6  1  0
  5  9  1  0
  7  8  2  0
  7 12  1  0
  8 13  1  0
 10 11  1  0
 11 16  1  0
 12 14  2  0
 13 15  2  0
 14 15  1  0
M  END
>  <PUBCHEM_COMPOUND_CID>  (1) 
32734

>  <PUBCHEM_CONFORMER_RMSD>  (1) 
0.6

>  <PUBCHEM_CONFORMER_DIVERSEORDER>  (1) 
1
63
19
38
37
39
15
14
53
100
79
18
23
49
78
22
48
28
108
101
107
50
35
29
51
97
47
58
110
31
56
64
84
55
3
36
20
90
11
46
13
44
66
85
106
25
91
27
41
26
81
4
86
74
68
62
72
42
77
92
34
102
95
83
40
10
73
80
8
12
5
76
21
103
93
32
59
9
65
88
52
105
109
54
24
69
104
96
75
30
89
45
33
43
57
82
70
98
2
61
67
99
17
94
87
71
7
60
6
16

>  <PUBCHEM_MMFF94_PARTIAL_CHARGES>  (1) 
18
1 -0.36
10 0.28
12 -0.15
13 -0.15
14 -0.15
15 -0.15
2 -0.36
24 0.15
25 0.15
26 0.15
27 0.15
3 -0.43
4 -0.57
5 0.34
6 0.28
7 0.08
8 0.08
9 0.66

>  <PUBCHEM_EFFECTIVE_ROTOR_COUNT>  (1) 
4.8

>  <PUBCHEM_PHARMACOPHORE_FEATURES>  (1) 
6
1 1 acceptor
1 16 hydrophobe
1 2 acceptor
1 4 acceptor
6 1 2 5 6 7 8 rings
6 7 8 12 13 14 15 rings

>  <PUBCHEM_HEAVY_ATOM_COUNT>  (1) 
16

>  <PUBCHEM_ATOM_DEF_STEREO_COUNT>  (1) 
0

>  <PUBCHEM_ATOM_UDEF_STEREO_COUNT>  (1) 
1

>  <PUBCHEM_BOND_DEF_STEREO_COUNT>  (1) 
0

>  <PUBCHEM_BOND_UDEF_STEREO_COUNT>  (1) 
0

>  <PUBCHEM_ISOTOPIC_ATOM_COUNT>  (1) 
0

>  <PUBCHEM_COMPONENT_COUNT>  (1) 
1

>  <PUBCHEM_CACTVS_TAUTO_COUNT>  (1) 
1

>  <PUBCHEM_CONFORMER_ID>  (1) 
00007FDE00000001

>  <PUBCHEM_MMFF94_ENERGY>  (1) 
35.9768

>  <PUBCHEM_FEATURE_SELFOVERLAP>  (1) 
30.495

>  <PUBCHEM_SHAPE_FINGERPRINT>  (1) 
10498660 4 13686031847535504379
12251169 10 18335698364471038142
12633257 1 17968923310232619784
12644460 14 17096103483438747180
12892183 10 18334856155738886401
13675066 3 18113618976218369741
13705890 14 10953733413454711486
13922767 16 18408324371929780757
14252887 29 17749389239172894682
15061688 2 16630521873131212496
15188451 53 17313953047514607371
15477762 27 10881393223680455584
15775835 57 17346595317821552808
15885798 251 17022903441317144837
16945 1 18115286978402396190
17844478 74 17895458277081690684
19784866 240 12901812875415684368
20231682 184 16702306762505235165
20344682 6 11887683887191818251
20388580 30 12179848298820883115
20871999 31 10735886062632142475
21637258 2 13767915840977350232
23184049 59 18410569587189531102
23402539 116 17703782622730218045
23402655 69 10015869786065633987
23559900 14 16988851548872260918
23590187 173 15482675654290151305
23590187 302 8358258125015310063
2748010 2 18051103958025644276
2871803 45 10735882759475094705
328317 168 14908176469353808577
3323516 105 8790880783168187135
351380 180 18413667998578234201
4047638 21 18131920347057109395
42 15 17458065958772180649
465052 167 13984673542350738337
4990 188 10087640399121111561
8272917 22 17917716764330356134
83771 10 13045938006166470951
94968 8 11241970390733858345

>  <PUBCHEM_SHAPE_MULTIPOLES>  (1) 
305.8
9.15
1.41
1.27
12.29
0.13
0.27
2.61
-4.65
-0.95
0.01
0
0.05
-0.1

>  <PUBCHEM_SHAPE_SELFOVERLAP>  (1) 
643.068

>  <PUBCHEM_SHAPE_VOLUME>  (1) 
171.6

>  <PUBCHEM_COORDINATE_TYPE>  (1) 
2
5
10

$$$$
