32749
     RDKit          3D

  8  8  0  0  1  0  0  0  0  0999 V2000
   -2.7127    1.1946    0.1782 Cl  0  0  0  0  0  0  0  0  0  0  0  0
    2.7128    1.1946    0.1782 Cl  0  0  0  0  0  0  0  0  0  0  0  0
    0.0000    1.0793    0.0357 C   0  0  0  0  0  0  0  0  0  0  0  0
   -1.2596    0.3049   -0.3587 C   0  0  0  0  0  0  0  0  0  0  0  0
    1.2596    0.3049   -0.3587 C   0  0  0  0  0  0  0  0  0  0  0  0
   -1.2638   -1.1036    0.2364 C   0  0  0  0  0  0  0  0  0  0  0  0
    1.2638   -1.1036    0.2364 C   0  0  0  0  0  0  0  0  0  0  0  0
    0.0000   -1.8710   -0.1476 C   0  0  0  0  0  0  0  0  0  0  0  0
  1  4  1  0
  2  5  1  0
  3  4  1  0
  3  5  1  0
  4  6  1  0
  5  7  1  0
  6  8  1  0
  7  8  1  0
M  END
>  <PUBCHEM_COMPOUND_CID>  (1) 
32749

>  <PUBCHEM_CONFORMER_RMSD>  (1) 
0.4

>  <PUBCHEM_CONFORMER_DIVERSEORDER>  (1) 
1
2
3
6
5
4

>  <PUBCHEM_MMFF94_PARTIAL_CHARGES>  (1) 
4
1 -0.29
2 -0.29
4 0.29
5 0.29

>  <PUBCHEM_EFFECTIVE_ROTOR_COUNT>  (1) 
1.2

>  <PUBCHEM_PHARMACOPHORE_FEATURES>  (1) 
1
6 3 4 5 6 7 8 rings

>  <PUBCHEM_HEAVY_ATOM_COUNT>  (1) 
8

>  <PUBCHEM_ATOM_DEF_STEREO_COUNT>  (1) 
2

>  <PUBCHEM_ATOM_UDEF_STEREO_COUNT>  (1) 
0

>  <PUBCHEM_BOND_DEF_STEREO_COUNT>  (1) 
0

>  <PUBCHEM_BOND_UDEF_STEREO_COUNT>  (1) 
0

>  <PUBCHEM_ISOTOPIC_ATOM_COUNT>  (1) 
0

>  <PUBCHEM_COMPONENT_COUNT>  (1) 
1

>  <PUBCHEM_CACTVS_TAUTO_COUNT>  (1) 
1

>  <PUBCHEM_CONFORMER_ID>  (1) 
00007FED00000001

>  <PUBCHEM_MMFF94_ENERGY>  (1) 
6.3539

>  <PUBCHEM_FEATURE_SELFOVERLAP>  (1) 
5.074

>  <PUBCHEM_SHAPE_FINGERPRINT>  (1) 
14390081 3 18344144799779199985
16714656 1 18121784099578944286
18185500 45 17329991291998478479
21040471 1 18410014355255248484
23235685 24 18410007732400133044
23552423 10 18115587187979076414
241688 4 16898774883125950538
2748010 2 18410019835612627135
29004967 10 17974294214033207371

>  <PUBCHEM_SHAPE_MULTIPOLES>  (1) 
168.38
3.37
1.9
0.68
0
0.58
0
-1.97
-0.29
0
-0.07
0
-0.01
0

>  <PUBCHEM_SHAPE_SELFOVERLAP>  (1) 
305.771

>  <PUBCHEM_SHAPE_VOLUME>  (1) 
105.4

>  <PUBCHEM_COORDINATE_TYPE>  (1) 
2
5
10

$$$$
