32745
     RDKit          3D

  8  7  0  0  0  0  0  0  0  0999 V2000
   -0.2906    1.9813   -0.2018 Cl  0  0  0  0  0  0  0  0  0  0  0  0
    0.0269    0.3335    0.3770 N   0  0  0  0  0  0  0  0  0  0  0  0
    1.2206   -0.2283   -0.2072 C   0  0  0  0  0  0  0  0  0  0  0  0
   -1.1330   -0.5346    0.1537 C   0  0  0  0  0  0  0  0  0  0  0  0
    1.5216   -1.5886    0.4084 C   0  0  0  0  0  0  0  0  0  0  0  0
    2.3971    0.7253   -0.0408 C   0  0  0  0  0  0  0  0  0  0  0  0
   -1.3772   -0.7187   -1.3385 C   0  0  0  0  0  0  0  0  0  0  0  0
   -2.3654    0.0302    0.8492 C   0  0  0  0  0  0  0  0  0  0  0  0
  1  2  1  0
  2  3  1  0
  2  4  1  0
  3  5  1  0
  3  6  1  0
  4  7  1  0
  4  8  1  0
M  END
>  <PUBCHEM_COMPOUND_CID>  (1) 
32745

>  <PUBCHEM_CONFORMER_RMSD>  (1) 
0.4

>  <PUBCHEM_CONFORMER_DIVERSEORDER>  (1) 
2
1

>  <PUBCHEM_MMFF94_PARTIAL_CHARGES>  (1) 
4
1 -0.05
2 -0.49
3 0.27
4 0.27

>  <PUBCHEM_EFFECTIVE_ROTOR_COUNT>  (1) 
2

>  <PUBCHEM_PHARMACOPHORE_FEATURES>  (1) 
2
3 3 5 6 hydrophobe
3 4 7 8 hydrophobe

>  <PUBCHEM_HEAVY_ATOM_COUNT>  (1) 
8

>  <PUBCHEM_ATOM_DEF_STEREO_COUNT>  (1) 
0

>  <PUBCHEM_ATOM_UDEF_STEREO_COUNT>  (1) 
0

>  <PUBCHEM_BOND_DEF_STEREO_COUNT>  (1) 
0

>  <PUBCHEM_BOND_UDEF_STEREO_COUNT>  (1) 
0

>  <PUBCHEM_ISOTOPIC_ATOM_COUNT>  (1) 
0

>  <PUBCHEM_COMPONENT_COUNT>  (1) 
1

>  <PUBCHEM_CACTVS_TAUTO_COUNT>  (1) 
1

>  <PUBCHEM_CONFORMER_ID>  (1) 
00007FE900000002

>  <PUBCHEM_MMFF94_ENERGY>  (1) 
9.4123

>  <PUBCHEM_FEATURE_SELFOVERLAP>  (1) 
10.149

>  <PUBCHEM_SHAPE_FINGERPRINT>  (1) 
137420 1 11753185221133654713
16714656 1 18131080324104452501
18185500 45 18270956954979525302
21040471 1 18193283120356366904
23552423 10 18115314362681436466
24536 1 17895467025555460962
29004967 10 18187090576015513721

>  <PUBCHEM_SHAPE_MULTIPOLES>  (1) 
161.52
2.96
1.67
0.98
0.26
0.54
-0.22
-0.23
0.38
0.37
-0.04
-0.5
-0.18
-0.26

>  <PUBCHEM_SHAPE_SELFOVERLAP>  (1) 
282.258

>  <PUBCHEM_SHAPE_VOLUME>  (1) 
109.3

>  <PUBCHEM_COORDINATE_TYPE>  (1) 
2
5
10

$$$$
