32740
     RDKit          3D

  9  8  0  0  0  0  0  0  0  0999 V2000
    0.6301    0.3623   -0.0577 O   0  0  0  0  0  0  0  0  0  0  0  0
   -3.6132    0.2304   -0.7195 O   0  0  0  0  0  0  0  0  0  0  0  0
   -0.7236   -1.4819    0.1543 O   0  0  0  0  0  0  0  0  0  0  0  0
   -1.5645    0.6738    0.3028 N   0  0  0  0  0  0  0  0  0  0  0  0
    1.7601   -0.4962   -0.2494 C   0  0  0  0  0  0  0  0  0  0  0  0
   -2.9478    0.3249    0.5280 C   0  0  0  0  0  0  0  0  0  0  0  0
   -0.5677   -0.2651    0.1360 C   0  0  0  0  0  0  0  0  0  0  0  0
    2.9759    0.3474   -0.4447 C   0  0  0  0  0  0  0  0  0  0  0  0
    4.0508    0.3043    0.3501 C   0  0  0  0  0  0  0  0  0  0  0  0
  1  5  1  0
  1  7  1  0
  2  6  1  0
  3  7  2  0
  4  6  1  0
  4  7  1  0
  5  8  1  0
  8  9  2  0
M  END
>  <PUBCHEM_COMPOUND_CID>  (1) 
32740

>  <PUBCHEM_CONFORMER_RMSD>  (1) 
0.6

>  <PUBCHEM_CONFORMER_DIVERSEORDER>  (1) 
1
41
44
28
37
40
38
29
43
2
52
3
45
22
42
8
9
54
39
20
21
31
26
34
47
25
50
16
7
53
11
19
33
48
32
23
15
5
35
12
36
24
14
46
18
49
6
13
4
17
51
55
10
27
30

>  <PUBCHEM_MMFF94_PARTIAL_CHARGES>  (1) 
14
1 -0.43
14 0.37
15 0.15
16 0.4
17 0.15
18 0.15
2 -0.68
3 -0.57
4 -0.73
5 0.42
6 0.58
7 0.78
8 -0.29
9 -0.3

>  <PUBCHEM_EFFECTIVE_ROTOR_COUNT>  (1) 
5

>  <PUBCHEM_PHARMACOPHORE_FEATURES>  (1) 
5
1 2 acceptor
1 2 donor
1 3 acceptor
1 4 donor
1 9 hydrophobe

>  <PUBCHEM_HEAVY_ATOM_COUNT>  (1) 
9

>  <PUBCHEM_ATOM_DEF_STEREO_COUNT>  (1) 
0

>  <PUBCHEM_ATOM_UDEF_STEREO_COUNT>  (1) 
0

>  <PUBCHEM_BOND_DEF_STEREO_COUNT>  (1) 
0

>  <PUBCHEM_BOND_UDEF_STEREO_COUNT>  (1) 
0

>  <PUBCHEM_ISOTOPIC_ATOM_COUNT>  (1) 
0

>  <PUBCHEM_COMPONENT_COUNT>  (1) 
1

>  <PUBCHEM_CACTVS_TAUTO_COUNT>  (1) 
2

>  <PUBCHEM_CONFORMER_ID>  (1) 
00007FE400000001

>  <PUBCHEM_MMFF94_ENERGY>  (1) 
4.6834

>  <PUBCHEM_FEATURE_SELFOVERLAP>  (1) 
25.416

>  <PUBCHEM_SHAPE_FINGERPRINT>  (1) 
11062470 55 17632579348762822296
12932764 1 11599719511307710860
14325111 11 18340773649904507723
14390081 3 18059860554001194280
20281407 28 8718827574302547948
21293036 1 18343017800587199637
23402539 116 18271798012671264532
5460574 1 8070024445796266880

>  <PUBCHEM_SHAPE_MULTIPOLES>  (1) 
162.63
6.77
0.91
0.72
1.35
0.26
0.02
-1.46
0.15
-0.12
-0.05
-0.1
-0.03
0.02

>  <PUBCHEM_SHAPE_SELFOVERLAP>  (1) 
299.616

>  <PUBCHEM_SHAPE_VOLUME>  (1) 
102.3

>  <PUBCHEM_COORDINATE_TYPE>  (1) 
2
5
10

$$$$
