32754
     RDKit          3D

 14 15  0  0  0  0  0  0  0  0999 V2000
   -3.5948   -1.9624    0.2486 Cl  0  0  0  0  0  0  0  0  0  0  0  0
    0.4626    2.2265   -0.2528 O   0  0  0  0  0  0  0  0  0  0  0  0
    2.7097    1.8871    0.1453 O   0  0  0  0  0  0  0  0  0  0  0  0
    1.1750    0.1370    0.3755 N   0  0  0  0  0  0  0  0  0  0  0  0
   -0.1905    0.0660    0.2044 C   0  0  0  0  0  0  0  0  0  0  0  0
   -0.5934    1.3310   -0.1721 C   0  0  0  0  0  0  0  0  0  0  0  0
    2.0073   -0.9705    0.7720 C   0  0  0  0  0  0  0  0  0  0  0  0
    1.5716    1.4359    0.1013 C   0  0  0  0  0  0  0  0  0  0  0  0
   -1.0794   -0.9789    0.3465 C   0  0  0  0  0  0  0  0  0  0  0  0
   -1.9163    1.6233   -0.4289 C   0  0  0  0  0  0  0  0  0  0  0  0
   -2.4260   -0.7061    0.0915 C   0  0  0  0  0  0  0  0  0  0  0  0
   -2.8411    0.5842   -0.2930 C   0  0  0  0  0  0  0  0  0  0  0  0
    2.4766   -1.6895   -0.4487 C   0  0  0  0  0  0  0  0  0  0  0  0
    2.2387   -2.9838   -0.6896 C   0  0  0  0  0  0  0  0  0  0  0  0
  1 11  1  0
  2  6  1  0
  2  8  1  0
  3  8  2  0
  4  5  1  0
  4  7  1  0
  4  8  1  0
  5  6  2  0
  5  9  1  0
  6 10  1  0
  7 13  1  0
  9 11  2  0
 10 12  2  0
 11 12  1  0
 13 14  2  0
M  END
>  <PUBCHEM_COMPOUND_CID>  (1) 
32754

>  <PUBCHEM_CONFORMER_RMSD>  (1) 
0.6

>  <PUBCHEM_CONFORMER_DIVERSEORDER>  (1) 
1
3
4
2

>  <PUBCHEM_MMFF94_PARTIAL_CHARGES>  (1) 
20
1 -0.18
10 -0.15
11 0.18
12 -0.15
13 -0.29
14 -0.3
17 0.15
18 0.15
19 0.15
2 -0.23
20 0.15
21 0.15
22 0.15
3 -0.57
4 -0.48
5 0.12
6 0.08
7 0.44
8 0.78
9 -0.15

>  <PUBCHEM_EFFECTIVE_ROTOR_COUNT>  (1) 
2

>  <PUBCHEM_PHARMACOPHORE_FEATURES>  (1) 
4
1 14 hydrophobe
1 3 acceptor
5 2 4 5 6 8 rings
6 5 6 9 10 11 12 rings

>  <PUBCHEM_HEAVY_ATOM_COUNT>  (1) 
14

>  <PUBCHEM_ATOM_DEF_STEREO_COUNT>  (1) 
0

>  <PUBCHEM_ATOM_UDEF_STEREO_COUNT>  (1) 
0

>  <PUBCHEM_BOND_DEF_STEREO_COUNT>  (1) 
0

>  <PUBCHEM_BOND_UDEF_STEREO_COUNT>  (1) 
0

>  <PUBCHEM_ISOTOPIC_ATOM_COUNT>  (1) 
0

>  <PUBCHEM_COMPONENT_COUNT>  (1) 
1

>  <PUBCHEM_CACTVS_TAUTO_COUNT>  (1) 
1

>  <PUBCHEM_CONFORMER_ID>  (1) 
00007FF200000001

>  <PUBCHEM_MMFF94_ENERGY>  (1) 
33.1106

>  <PUBCHEM_FEATURE_SELFOVERLAP>  (1) 
20.41

>  <PUBCHEM_SHAPE_FINGERPRINT>  (1) 
10967382 1 18193275427811574347
116883 192 18411130308608735935
12524768 44 18408036308098802089
13380535 21 18408895039670771401
13380535 76 18118399781124032890
14252887 29 18190472751699028571
14648413 74 18410290276871082360
14911166 2 18047745997431665229
15001771 113 18341339881207785576
15219456 202 18410571799081799201
161256 15 18408608079846380148
16945 1 18046900490022016393
17990270 104 18410290302651461554
193761 8 18409446964453602441
20588541 1 18046066222789629931
20645476 183 17173226295680778223
20645477 70 18337381755966530319
20871998 22 18410857637676951322
20871999 31 17977107851324669830
21501502 16 18409167714238205177
22213442 358 18339925896733761838
22721475 48 18198624324226553278
22802520 49 18409730621305107591
2334 1 18335698368834603249
23552423 10 18187364324435748969
23557571 272 17697318413666889734
23559900 14 17835514926445513874
238 59 12655227026083856350
2748010 2 18335130977879820509
5902787 121 18262227803629108730
7364860 26 18413669123606315072
74978 22 18338234839085987577
81228 2 17692812588818652986

>  <PUBCHEM_SHAPE_MULTIPOLES>  (1) 
273.26
4.91
2.94
0.75
1.47
0.63
0
2.63
-0.17
-1.22
-0.45
-0.13
0.16
0.76

>  <PUBCHEM_SHAPE_SELFOVERLAP>  (1) 
579.451

>  <PUBCHEM_SHAPE_VOLUME>  (1) 
155.8

>  <PUBCHEM_COORDINATE_TYPE>  (1) 
2
5
10

$$$$
