32759
     RDKit          3D

  3  2  0  0  0  0  0  0  0  0999 V2000
   -1.2919    0.0001    0.0000 F   0  0  0  0  0  0  0  0  0  0  0  0
    0.0460   -0.0001    0.0000 C   0  0  0  0  0  0  0  0  0  0  0  0
    1.2459    0.0001    0.0000 C   0  0  0  0  0  0  0  0  0  0  0  0
  1  2  1  0
  2  3  3  0
M  END
>  <PUBCHEM_COMPOUND_CID>  (1) 
32759

>  <PUBCHEM_CONFORMER_RMSD>  (1) 
0.4

>  <PUBCHEM_CONFORMER_DIVERSEORDER>  (1) 
1

>  <PUBCHEM_MMFF94_PARTIAL_CHARGES>  (1) 
4
1 -0.12
2 0.12
3 -0.18
4 0.18

>  <PUBCHEM_EFFECTIVE_ROTOR_COUNT>  (1) 
0

>  <PUBCHEM_PHARMACOPHORE_FEATURES>  (1) 
0

>  <PUBCHEM_HEAVY_ATOM_COUNT>  (1) 
3

>  <PUBCHEM_ATOM_DEF_STEREO_COUNT>  (1) 
0

>  <PUBCHEM_ATOM_UDEF_STEREO_COUNT>  (1) 
0

>  <PUBCHEM_BOND_DEF_STEREO_COUNT>  (1) 
0

>  <PUBCHEM_BOND_UDEF_STEREO_COUNT>  (1) 
0

>  <PUBCHEM_ISOTOPIC_ATOM_COUNT>  (1) 
0

>  <PUBCHEM_COMPONENT_COUNT>  (1) 
1

>  <PUBCHEM_CACTVS_TAUTO_COUNT>  (1) 
1

>  <PUBCHEM_CONFORMER_ID>  (1) 
00007FF700000001

>  <PUBCHEM_MMFF94_ENERGY>  (1) 
-0.0196

>  <PUBCHEM_FEATURE_SELFOVERLAP>  (1) 
0

>  <PUBCHEM_SHAPE_FINGERPRINT>  (1) 
139733 1 18410856607095543332
21015797 1 18122624130641403428

>  <PUBCHEM_SHAPE_MULTIPOLES>  (1) 
54.46
1.54
0.58
0.58
0.13
0
0
0
0
-0.06
0
-0.06
0
0

>  <PUBCHEM_SHAPE_SELFOVERLAP>  (1) 
89.026

>  <PUBCHEM_SHAPE_VOLUME>  (1) 
37.2

>  <PUBCHEM_COORDINATE_TYPE>  (1) 
2
5
10

$$$$
