32761
     RDKit          3D

 15 15  0  0  0  0  0  0  0  0999 V2000
    1.5688    0.0234   -0.9259 O   0  0  0  0  0  0  0  0  0  0  0  0
    2.1131   -0.5827    1.2518 O   0  0  0  0  0  0  0  0  0  0  0  0
   -3.0214   -1.0671    0.0042 N   0  0  0  0  0  0  0  0  0  0  0  0
    3.6392   -0.8527   -0.4746 N   0  0  0  0  0  0  0  0  0  0  0  0
   -1.9660   -0.1316   -0.0124 C   0  0  0  0  0  0  0  0  0  0  0  0
    0.1211    1.7192   -0.0461 C   0  0  0  0  0  0  0  0  0  0  0  0
    0.3409    0.4122   -0.4813 C   0  0  0  0  0  0  0  0  0  0  0  0
   -0.7027   -0.5133   -0.4644 C   0  0  0  0  0  0  0  0  0  0  0  0
   -2.1856    1.1753    0.4228 C   0  0  0  0  0  0  0  0  0  0  0  0
   -1.1421    2.1007    0.4060 C   0  0  0  0  0  0  0  0  0  0  0  0
    1.2257    2.7234   -0.0590 C   0  0  0  0  0  0  0  0  0  0  0  0
   -4.3921   -0.6301   -0.1711 C   0  0  0  0  0  0  0  0  0  0  0  0
   -2.7477   -2.4792    0.1829 C   0  0  0  0  0  0  0  0  0  0  0  0
    2.4247   -0.4871    0.0683 C   0  0  0  0  0  0  0  0  0  0  0  0
    4.7241   -1.4105    0.2988 C   0  0  0  0  0  0  0  0  0  0  0  0
  1  7  1  0
  1 14  1  0
  2 14  2  0
  3  5  1  0
  3 12  1  0
  3 13  1  0
  4 14  1  0
  4 15  1  0
  5  8  2  0
  5  9  1  0
  6  7  2  0
  6 10  1  0
  6 11  1  0
  7  8  1  0
  9 10  2  0
M  END
>  <PUBCHEM_COMPOUND_CID>  (1) 
32761

>  <PUBCHEM_CONFORMER_RMSD>  (1) 
0.6

>  <PUBCHEM_CONFORMER_DIVERSEORDER>  (1) 
2
29
31
42
16
38
17
7
40
39
19
33
26
30
20
41
35
36
34
37
21
23
32
27
8
28
18
13
24
11
12
25
22
9
3
10
4
1
15
6
5
14

>  <PUBCHEM_MMFF94_PARTIAL_CHARGES>  (1) 
19
1 -0.23
10 -0.15
11 0.14
12 0.37
13 0.37
14 0.78
15 0.3
16 0.15
17 0.15
18 0.15
2 -0.57
28 0.37
3 -0.84
4 -0.73
5 0.1
6 -0.14
7 0.08
8 -0.15
9 -0.15

>  <PUBCHEM_EFFECTIVE_ROTOR_COUNT>  (1) 
4

>  <PUBCHEM_PHARMACOPHORE_FEATURES>  (1) 
4
1 2 acceptor
1 3 cation
1 4 donor
6 5 6 7 8 9 10 rings

>  <PUBCHEM_HEAVY_ATOM_COUNT>  (1) 
15

>  <PUBCHEM_ATOM_DEF_STEREO_COUNT>  (1) 
0

>  <PUBCHEM_ATOM_UDEF_STEREO_COUNT>  (1) 
0

>  <PUBCHEM_BOND_DEF_STEREO_COUNT>  (1) 
0

>  <PUBCHEM_BOND_UDEF_STEREO_COUNT>  (1) 
0

>  <PUBCHEM_ISOTOPIC_ATOM_COUNT>  (1) 
0

>  <PUBCHEM_COMPONENT_COUNT>  (1) 
1

>  <PUBCHEM_CACTVS_TAUTO_COUNT>  (1) 
2

>  <PUBCHEM_CONFORMER_ID>  (1) 
00007FF900000002

>  <PUBCHEM_MMFF94_ENERGY>  (1) 
53.4932

>  <PUBCHEM_FEATURE_SELFOVERLAP>  (1) 
20.297

>  <PUBCHEM_SHAPE_FINGERPRINT>  (1) 
10130415 120 18340209682629341265
10989021 7 18411699911013149140
11046707 91 18334857173857242210
11578080 2 17822272596840922212
11806522 49 18263082266008295092
13140716 1 18342185500661149849
14115302 16 17967541198193811287
15375462 189 18114186306532109194
16945 1 18269004106723479541
17804303 29 18272935994363133240
19422 9 18335146354205553686
200 152 17023184882013101682
20645477 70 18193268822700882735
20671657 53 18407761451687917205
20871998 184 18130786698791784412
20871998 22 18411415150391627944
21452121 71 18335428997091667372
21501502 16 18341624753926088017
21501925 9 18342453785371300961
21650355 55 18339356349631387672
2297311 6 18200604592719764582
232386 152 18410018744748852471
23366157 5 18115591590078507460
23402539 116 18272362032667342781
23419403 2 17843936274321698769
23552423 10 18118691156396135981
23557571 272 18130517314723037860
23559900 14 18411412925899080032
2748010 2 18268992153966592981
5493415 88 18411418457415926681
5902787 121 18337107976937866947
7364860 26 18198061576236984016
81228 2 18127428773354147881
81539 233 17902788900965750612
8809292 202 18334580182831832307

>  <PUBCHEM_SHAPE_MULTIPOLES>  (1) 
286.99
6.97
2.53
0.8
3
0.96
0.05
-5.39
0.36
-0.34
0.23
0.24
-0.03
-0.26

>  <PUBCHEM_SHAPE_SELFOVERLAP>  (1) 
585.393

>  <PUBCHEM_SHAPE_VOLUME>  (1) 
166.3

>  <PUBCHEM_COORDINATE_TYPE>  (1) 
2
5
10

$$$$
