3277
     RDKit          3D

 21 22  0  0  0  0  0  0  0  0999 V2000
   -2.9226   -1.8374    0.2019 O   0  0  0  0  0  0  0  0  0  0  0  0
   -3.0063    0.1599   -0.9396 O   0  0  0  0  0  0  0  0  0  0  0  0
    3.1213   -0.9377   -0.1514 N   0  0  0  0  0  0  0  0  0  0  0  0
    3.5367    0.3416   -0.1259 N   0  0  0  0  0  0  0  0  0  0  0  0
    1.0761   -2.2253   -0.2511 N   0  0  0  0  0  0  0  0  0  0  0  0
   -0.7374    1.6420   -0.3184 N   0  0  0  0  0  0  0  0  0  0  0  0
    0.0175    2.7538   -0.2798 N   0  0  0  0  0  0  0  0  0  0  0  0
    1.2549    0.2167   -0.2320 C   0  0  0  0  0  0  0  0  0  0  0  0
    1.7656   -1.0717   -0.2143 C   0  0  0  0  0  0  0  0  0  0  0  0
   -0.1356    0.3704   -0.2957 C   0  0  0  0  0  0  0  0  0  0  0  0
    4.0959   -2.0024   -0.1141 C   0  0  0  0  0  0  0  0  0  0  0  0
   -0.9054   -0.7922   -0.3359 C   0  0  0  0  0  0  0  0  0  0  0  0
    2.3973    1.0395   -0.1752 C   0  0  0  0  0  0  0  0  0  0  0  0
   -0.2628   -2.0255   -0.3119 C   0  0  0  0  0  0  0  0  0  0  0  0
    4.4198   -2.4360    1.3053 C   0  0  0  0  0  0  0  0  0  0  0  0
   -2.3595   -0.7477   -0.4028 C   0  0  0  0  0  0  0  0  0  0  0  0
   -0.5011    3.8050    0.2784 C   0  0  0  0  0  0  0  0  0  0  0  0
   -4.3525   -1.9091    0.2003 C   0  0  0  0  0  0  0  0  0  0  0  0
    0.1813    5.1443    0.4211 C   0  0  0  0  0  0  0  0  0  0  0  0
   -1.8997    3.6869    0.8315 C   0  0  0  0  0  0  0  0  0  0  0  0
   -4.7835   -3.1751    0.9095 C   0  0  0  0  0  0  0  0  0  0  0  0
  1 16  1  0
  1 18  1  0
  2 16  2  0
  3  4  1  0
  3  9  1  0
  3 11  1  0
  4 13  2  0
  5  9  2  0
  5 14  1  0
  6  7  1  0
  6 10  1  0
  7 17  2  3
  8  9  1  0
  8 10  2  0
  8 13  1  0
 10 12  1  0
 11 15  1  0
 12 14  2  0
 12 16  1  0
 17 19  1  0
 17 20  1  0
 18 21  1  0
M  END
>  <PUBCHEM_COMPOUND_CID>  (1) 
3277

>  <PUBCHEM_CONFORMER_RMSD>  (1) 
0.8

>  <PUBCHEM_CONFORMER_DIVERSEORDER>  (1) 
1
28
16
27
25
31
20
5
2
6
9
10
7
30
11
29
21
22
13
18
32
12
24
15
4
26
17
19
14
8
3
23

>  <PUBCHEM_MMFF94_PARTIAL_CHARGES>  (1) 
21
1 -0.43
10 0.1
11 0.26
12 0.09
13 0.14
14 0.16
16 0.63
17 0.33
18 0.28
19 0.06
2 -0.57
20 0.06
24 0.15
25 0.15
26 0.4
3 0.31
4 -0.71
5 -0.57
6 -0.46
7 -0.49
9 0.11

>  <PUBCHEM_EFFECTIVE_ROTOR_COUNT>  (1) 
6

>  <PUBCHEM_PHARMACOPHORE_FEATURES>  (1) 
7
1 2 acceptor
1 4 acceptor
1 6 donor
1 7 acceptor
3 3 5 9 cation
5 3 4 8 9 13 rings
6 5 8 9 10 12 14 rings

>  <PUBCHEM_HEAVY_ATOM_COUNT>  (1) 
21

>  <PUBCHEM_ATOM_DEF_STEREO_COUNT>  (1) 
0

>  <PUBCHEM_ATOM_UDEF_STEREO_COUNT>  (1) 
0

>  <PUBCHEM_BOND_DEF_STEREO_COUNT>  (1) 
0

>  <PUBCHEM_BOND_UDEF_STEREO_COUNT>  (1) 
0

>  <PUBCHEM_ISOTOPIC_ATOM_COUNT>  (1) 
0

>  <PUBCHEM_COMPONENT_COUNT>  (1) 
1

>  <PUBCHEM_CACTVS_TAUTO_COUNT>  (1) 
6

>  <PUBCHEM_CONFORMER_ID>  (1) 
00000CCD00000001

>  <PUBCHEM_MMFF94_ENERGY>  (1) 
58.2557

>  <PUBCHEM_FEATURE_SELFOVERLAP>  (1) 
35.631

>  <PUBCHEM_SHAPE_FINGERPRINT>  (1) 
10319926 262 17909239436172521002
10411042 1 18411140246688844198
10967382 1 18123188162995350180
1100329 8 18339082575674009081
12293681 160 17761458458569372749
12403259 226 18261668298540158543
12553582 1 18341889761845075518
12788726 201 18335708208932193914
13052359 8 17977662013638164784
13134695 92 18339633564042583255
13140716 1 18410290276791746673
138480 1 15168267710072690717
13955234 65 17905897229475696635
14178342 30 18049148983143796890
14787075 74 17970070160810687502
14790565 3 17256253064600214037
14866123 147 17833267523749788818
14955137 171 18123483927423213142
15042514 8 18266463100896693481
15475509 84 18267327459608868953
16945 1 18194968439632480246
18785283 64 17687182402016273849
20739085 24 18270420376246835163
21041028 32 18411421717549454951
23558518 356 18262246499874689144
23845131 108 17473831624133506761
25147074 1 18042417824840739318
2748010 2 18340473543333371540
3091708 16 9208707313436097744
31174 14 18120373426445545823
352729 6 18196934362091137692
3886686 26 17325452564271951770
5104073 3 18410570682380039322
54173680 148 18266178335827393028
58807428 26 16824728277154337346
6438718 38 17629468705851047485
7364860 26 17907580585777317973
77188 2 18410857697859182453
79837 15 17835801889440226945
81228 2 18266734688658618413

>  <PUBCHEM_SHAPE_MULTIPOLES>  (1) 
395.53
7.33
5.82
0.85
0.75
9.09
-0.16
-10.03
-1.91
2.73
-1.85
-0.01
-0.18
-0.17

>  <PUBCHEM_SHAPE_SELFOVERLAP>  (1) 
829.149

>  <PUBCHEM_SHAPE_VOLUME>  (1) 
226

>  <PUBCHEM_COORDINATE_TYPE>  (1) 
2
5
10

$$$$
