32776
     RDKit          3D

 12 11  0  0  1  0  0  0  0  0999 V2000
   -0.9676    0.1800   -1.6287 O   0  0  0  0  0  0  0  0  0  0  0  0
    1.7647   -0.4436    0.7460 O   0  0  0  0  0  0  0  0  0  0  0  0
   -0.1247    1.3564    1.6369 O   0  0  0  0  0  0  0  0  0  0  0  0
   -0.9681    2.3875   -0.1982 O   0  0  0  0  0  0  0  0  0  0  0  0
   -0.3778    0.0155   -0.3292 C   0  0  0  0  0  0  0  0  0  0  0  0
   -1.2173   -1.0769    0.4002 C   0  0  0  0  0  0  0  0  0  0  0  0
    1.1168   -0.3492   -0.5285 C   0  0  0  0  0  0  0  0  0  0  0  0
   -2.7206   -0.7920    0.4657 C   0  0  0  0  0  0  0  0  0  0  0  0
   -0.9934   -2.4834   -0.1805 C   0  0  0  0  0  0  0  0  0  0  0  0
   -0.5307    1.3806    0.3434 C   0  0  0  0  0  0  0  0  0  0  0  0
    1.9061    0.6818   -1.3309 C   0  0  0  0  0  0  0  0  0  0  0  0
    3.1127   -0.8566    0.6038 C   0  0  0  0  0  0  0  0  0  0  0  0
  1  5  1  0
  2  7  1  0
  2 12  1  0
  3 10  1  0
  4 10  2  0
  5  6  1  0
  5  7  1  0
  5 10  1  0
  6  8  1  0
  6  9  1  0
  7 11  1  0
M  END
>  <PUBCHEM_COMPOUND_CID>  (1) 
32776

>  <PUBCHEM_CONFORMER_RMSD>  (1) 
0.6

>  <PUBCHEM_CONFORMER_DIVERSEORDER>  (1) 
6
22
17
8
9
20
1
14
21
12
19
7
4
2
16
11
3
5
10
13
18
15

>  <PUBCHEM_MMFF94_PARTIAL_CHARGES>  (1) 
10
1 -0.68
10 0.66
12 0.28
2 -0.56
24 0.4
28 0.5
3 -0.65
4 -0.57
5 0.34
7 0.28

>  <PUBCHEM_EFFECTIVE_ROTOR_COUNT>  (1) 
4

>  <PUBCHEM_PHARMACOPHORE_FEATURES>  (1) 
7
1 1 acceptor
1 1 donor
1 2 acceptor
1 3 acceptor
1 4 acceptor
3 3 4 10 anion
3 6 8 9 hydrophobe

>  <PUBCHEM_HEAVY_ATOM_COUNT>  (1) 
12

>  <PUBCHEM_ATOM_DEF_STEREO_COUNT>  (1) 
1

>  <PUBCHEM_ATOM_UDEF_STEREO_COUNT>  (1) 
1

>  <PUBCHEM_BOND_DEF_STEREO_COUNT>  (1) 
0

>  <PUBCHEM_BOND_UDEF_STEREO_COUNT>  (1) 
0

>  <PUBCHEM_ISOTOPIC_ATOM_COUNT>  (1) 
0

>  <PUBCHEM_COMPONENT_COUNT>  (1) 
1

>  <PUBCHEM_CACTVS_TAUTO_COUNT>  (1) 
1

>  <PUBCHEM_CONFORMER_ID>  (1) 
0000800800000006

>  <PUBCHEM_MMFF94_ENERGY>  (1) 
30.1861

>  <PUBCHEM_FEATURE_SELFOVERLAP>  (1) 
35.596

>  <PUBCHEM_SHAPE_FINGERPRINT>  (1) 
12423570 1 7869277107403391361
13024252 1 13912894042701898014
137420 1 16409578039608091541
14128692 85 18041557065564606318
14817 1 11154538244042538501
15076042 46 18337395941757828894
16945 1 18410020939524652263
18185500 45 18118697731611238406
20653091 64 17693391335477412835
21040471 1 17906464224802864212
21922407 69 18042145231265572276
23552333 60 17968386757021468574
369184 2 17988628658772755586
5084963 1 17696212321347135572
528886 8 16808142595004520471
54338 74 18340783605775921489

>  <PUBCHEM_SHAPE_MULTIPOLES>  (1) 
223.48
3.21
2.11
1.25
1.22
0.23
-0.09
-1.44
0.42
-0.75
0.15
0.28
0.31
-0.35

>  <PUBCHEM_SHAPE_SELFOVERLAP>  (1) 
427.871

>  <PUBCHEM_SHAPE_VOLUME>  (1) 
137.8

>  <PUBCHEM_COORDINATE_TYPE>  (1) 
2
5
10

$$$$
