32785
     RDKit          3D

 12 11  0  0  0  0  0  0  0  0999 V2000
   -3.5305    0.4422   -0.4794 O   0  0  0  0  0  0  0  0  0  0  0  0
    3.5498    0.4650   -0.4461 O   0  0  0  0  0  0  0  0  0  0  0  0
   -1.1142   -1.8353    0.3223 O   0  0  0  0  0  0  0  0  0  0  0  0
    1.0791   -1.9073    0.1448 O   0  0  0  0  0  0  0  0  0  0  0  0
   -2.1092    0.9228    1.2267 O   0  0  0  0  0  0  0  0  0  0  0  0
    2.1040    0.9173    1.2472 O   0  0  0  0  0  0  0  0  0  0  0  0
    0.0027    0.0196   -0.2835 N   0  0  0  0  0  0  0  0  0  0  0  0
   -0.0131   -1.3315    0.0703 N   0  0  0  0  0  0  0  0  0  0  0  0
   -1.1955    0.5155   -0.9663 C   0  0  0  0  0  0  0  0  0  0  0  0
    1.2180    0.4906   -0.9535 C   0  0  0  0  0  0  0  0  0  0  0  0
   -2.2985    0.6645    0.0448 C   0  0  0  0  0  0  0  0  0  0  0  0
    2.3074    0.6367    0.0728 C   0  0  0  0  0  0  0  0  0  0  0  0
  1 11  1  0
  2 12  1  0
  3  8  1  0
  4  8  2  0
  5 11  2  0
  6 12  2  0
  7  8  1  0
  7  9  1  0
  7 10  1  0
  9 11  1  0
 10 12  1  0
M  CHG  2   3  -1   8   1
M  END
>  <PUBCHEM_COMPOUND_CID>  (1) 
32785

>  <PUBCHEM_CONFORMER_RMSD>  (1) 
0.6

>  <PUBCHEM_CONFORMER_DIVERSEORDER>  (1) 
1
76
73
71
62
79
41
46
74
61
42
70
23
80
72
49
78
51
65
88
63
13
10
82
34
29
84
8
75
64
22
66
45
68
19
86
56
11
43
69
6
77
3
81
48
35
67
38
20
31
15
57
16
32
83
4
89
12
85
30
54
5
9
21
47
2
55
50
27
26
59
37
28
33
60
36
24
53
52
58
17
14
39
18
7
25
87
44
40

>  <PUBCHEM_MMFF94_PARTIAL_CHARGES>  (1) 
14
1 -0.65
10 0.33
11 0.66
12 0.66
17 0.5
18 0.5
2 -0.65
3 -0.52
4 -0.52
5 -0.57
6 -0.57
7 -0.53
8 1.03
9 0.33

>  <PUBCHEM_EFFECTIVE_ROTOR_COUNT>  (1) 
5

>  <PUBCHEM_PHARMACOPHORE_FEATURES>  (1) 
8
1 1 acceptor
1 2 acceptor
1 3 acceptor
1 4 acceptor
1 5 acceptor
1 6 acceptor
3 1 5 11 anion
3 2 6 12 anion

>  <PUBCHEM_HEAVY_ATOM_COUNT>  (1) 
12

>  <PUBCHEM_ATOM_DEF_STEREO_COUNT>  (1) 
0

>  <PUBCHEM_ATOM_UDEF_STEREO_COUNT>  (1) 
0

>  <PUBCHEM_BOND_DEF_STEREO_COUNT>  (1) 
0

>  <PUBCHEM_BOND_UDEF_STEREO_COUNT>  (1) 
0

>  <PUBCHEM_ISOTOPIC_ATOM_COUNT>  (1) 
0

>  <PUBCHEM_COMPONENT_COUNT>  (1) 
1

>  <PUBCHEM_CACTVS_TAUTO_COUNT>  (1) 
1

>  <PUBCHEM_CONFORMER_ID>  (1) 
0000801100000001

>  <PUBCHEM_MMFF94_ENERGY>  (1) 
27.5238

>  <PUBCHEM_FEATURE_SELFOVERLAP>  (1) 
40.796

>  <PUBCHEM_SHAPE_FINGERPRINT>  (1) 
10219947 1 18040155097759925404
12897270 3 16272205297331191477
14325111 11 18408322185348458525
14993402 34 18040714800612485124
15775835 57 18129951065802547681
20653085 51 16773808016544455880
21028194 46 18413668015182992837
21040471 1 18335706048025151518
23235685 24 18335136496823183724
305870 269 18267590100109500537
5084963 1 18343019990751826717
528862 383 18115300068930159170

>  <PUBCHEM_SHAPE_MULTIPOLES>  (1) 
201.78
4.58
1.48
1
0.05
1.06
-0.14
-1.73
-0.05
0
-0.18
0
-0.31
0.03

>  <PUBCHEM_SHAPE_SELFOVERLAP>  (1) 
394.495

>  <PUBCHEM_SHAPE_VOLUME>  (1) 
120.4

>  <PUBCHEM_COORDINATE_TYPE>  (1) 
2
5
10

$$$$
