32786
     RDKit          3D

 12 12  0  0  0  0  0  0  0  0999 V2000
   -2.5338   -0.6342   -0.3745 O   0  0  0  0  0  0  0  0  0  0  0  0
   -2.3565    1.4354    0.6175 O   0  0  0  0  0  0  0  0  0  0  0  0
    1.4825   -1.3291    0.0780 C   0  0  0  0  0  0  0  0  0  0  0  0
    1.8522    1.0506   -0.1158 C   0  0  0  0  0  0  0  0  0  0  0  0
   -0.3966    0.1892    0.0784 C   0  0  0  0  0  0  0  0  0  0  0  0
    2.3554   -0.2487   -0.0512 C   0  0  0  0  0  0  0  0  0  0  0  0
    0.1065   -1.1102    0.1427 C   0  0  0  0  0  0  0  0  0  0  0  0
    0.4762    1.2696   -0.0508 C   0  0  0  0  0  0  0  0  0  0  0  0
    2.0211   -2.7182    0.1465 C   0  0  0  0  0  0  0  0  0  0  0  0
    2.7856    2.2056   -0.2534 C   0  0  0  0  0  0  0  0  0  0  0  0
   -1.8311    0.4175    0.1472 C   0  0  0  0  0  0  0  0  0  0  0  0
   -3.9614   -0.5273   -0.3648 C   0  0  0  0  0  0  0  0  0  0  0  0
  1 11  1  0
  1 12  1  0
  2 11  2  0
  3  6  2  0
  3  7  1  0
  3  9  1  0
  4  6  1  0
  4  8  2  0
  4 10  1  0
  5  7  2  0
  5  8  1  0
  5 11  1  0
M  END
>  <PUBCHEM_COMPOUND_CID>  (1) 
32786

>  <PUBCHEM_CONFORMER_RMSD>  (1) 
0.6

>  <PUBCHEM_CONFORMER_DIVERSEORDER>  (1) 
1

>  <PUBCHEM_MMFF94_PARTIAL_CHARGES>  (1) 
15
1 -0.43
10 0.14
11 0.63
12 0.28
13 0.15
14 0.15
15 0.15
2 -0.57
3 -0.14
4 -0.14
5 0.09
6 -0.15
7 -0.15
8 -0.15
9 0.14

>  <PUBCHEM_EFFECTIVE_ROTOR_COUNT>  (1) 
2

>  <PUBCHEM_PHARMACOPHORE_FEATURES>  (1) 
2
1 2 acceptor
6 3 4 5 6 7 8 rings

>  <PUBCHEM_HEAVY_ATOM_COUNT>  (1) 
12

>  <PUBCHEM_ATOM_DEF_STEREO_COUNT>  (1) 
0

>  <PUBCHEM_ATOM_UDEF_STEREO_COUNT>  (1) 
0

>  <PUBCHEM_BOND_DEF_STEREO_COUNT>  (1) 
0

>  <PUBCHEM_BOND_UDEF_STEREO_COUNT>  (1) 
0

>  <PUBCHEM_ISOTOPIC_ATOM_COUNT>  (1) 
0

>  <PUBCHEM_COMPONENT_COUNT>  (1) 
1

>  <PUBCHEM_CACTVS_TAUTO_COUNT>  (1) 
1

>  <PUBCHEM_CONFORMER_ID>  (1) 
0000801200000001

>  <PUBCHEM_MMFF94_ENERGY>  (1) 
33.0598

>  <PUBCHEM_FEATURE_SELFOVERLAP>  (1) 
10.148

>  <PUBCHEM_SHAPE_FINGERPRINT>  (1) 
1 1 18337109063901897822
12932764 1 18337967679288151925
13380535 76 18263080075501121194
14128692 85 18269276751078449070
14251717 144 18410288129361002126
14325111 11 18410857698001620133
15442244 35 18124034529340455113
16945 1 18408610244757862714
17990270 104 18338234843233450210
19021347 11 18410292549008872206
20559304 39 18342172250117173346
20645477 70 18410004425945436327
20653091 64 18339359660913828130
20871998 22 18053100623391233854
21040471 1 18193561305557180644
21499 59 18191583262178717804
21501502 16 18340489967615501665
21501925 9 18338503149808815482
21524375 3 18263361567842544544
228727 97 17916876832041452321
23402655 69 18412537730805533885
23530152 11 18266461103821641262
23552423 10 18410858728608823565
241688 4 17760650265893022706
25610 137 18339084912272517257
257057 1 17830442891584408042
2748010 2 18119545476920153910
3071541 37 18261396680338877092
366044 4 18192711365846862136
528862 383 18334848437777548762
57096353 35 18271241746151114765
581208 293 18411131480633563093
6992083 37 17623300372451428977
7364860 26 18342175553348015402
8030462 33 18410865360260024205
81228 2 17185032765962056178
81539 233 18187640366331571374

>  <PUBCHEM_SHAPE_MULTIPOLES>  (1) 
235.22
5.05
2.37
0.66
4.71
0.74
0
-0.37
-0.53
-2.32
0.06
0.08
-0.03
-0.43

>  <PUBCHEM_SHAPE_SELFOVERLAP>  (1) 
485.414

>  <PUBCHEM_SHAPE_VOLUME>  (1) 
137.9

>  <PUBCHEM_COORDINATE_TYPE>  (1) 
2
5
10

$$$$
