32795
     RDKit          3D

 11 11  0  0  0  0  0  0  0  0999 V2000
   -1.8304    2.3010    0.2545 O   0  0  0  0  0  0  0  0  0  0  0  0
   -1.8452   -2.2936    0.2708 O   0  0  0  0  0  0  0  0  0  0  0  0
   -0.0380    1.1965   -0.6721 N   0  0  0  0  0  0  0  0  0  0  0  0
   -0.0454   -1.2075   -0.6630 N   0  0  0  0  0  0  0  0  0  0  0  0
   -1.7108    0.0039    0.4502 N   0  0  0  0  0  0  0  0  0  0  0  0
    0.7673   -0.0082   -0.7302 C   0  0  0  0  0  0  0  0  0  0  0  0
    1.8092   -0.0073    0.3830 C   0  0  0  0  0  0  0  0  0  0  0  0
    2.6955   -1.2485    0.2928 C   0  0  0  0  0  0  0  0  0  0  0  0
    2.6581    1.2618    0.3259 C   0  0  0  0  0  0  0  0  0  0  0  0
   -1.2262    1.2498    0.0394 C   0  0  0  0  0  0  0  0  0  0  0  0
   -1.2340   -1.2480    0.0486 C   0  0  0  0  0  0  0  0  0  0  0  0
  1 10  2  0
  2 11  2  0
  3  6  1  0
  3 10  1  0
  4  6  1  0
  4 11  1  0
  5 10  1  0
  5 11  1  0
  6  7  1  0
  7  8  1  0
  7  9  1  0
M  END
>  <PUBCHEM_COMPOUND_CID>  (1) 
32795

>  <PUBCHEM_CONFORMER_RMSD>  (1) 
0.4

>  <PUBCHEM_CONFORMER_DIVERSEORDER>  (1) 
1
6
4
3
5
2

>  <PUBCHEM_MMFF94_PARTIAL_CHARGES>  (1) 
11
1 -0.57
10 0.69
11 0.69
14 0.37
15 0.37
2 -0.57
22 0.37
3 -0.73
4 -0.73
5 -0.49
6 0.6

>  <PUBCHEM_EFFECTIVE_ROTOR_COUNT>  (1) 
1.8

>  <PUBCHEM_PHARMACOPHORE_FEATURES>  (1) 
7
1 1 acceptor
1 2 acceptor
1 3 donor
1 4 donor
1 5 donor
3 7 8 9 hydrophobe
6 3 4 5 6 10 11 rings

>  <PUBCHEM_HEAVY_ATOM_COUNT>  (1) 
11

>  <PUBCHEM_ATOM_DEF_STEREO_COUNT>  (1) 
0

>  <PUBCHEM_ATOM_UDEF_STEREO_COUNT>  (1) 
0

>  <PUBCHEM_BOND_DEF_STEREO_COUNT>  (1) 
0

>  <PUBCHEM_BOND_UDEF_STEREO_COUNT>  (1) 
0

>  <PUBCHEM_ISOTOPIC_ATOM_COUNT>  (1) 
0

>  <PUBCHEM_COMPONENT_COUNT>  (1) 
1

>  <PUBCHEM_CACTVS_TAUTO_COUNT>  (1) 
5

>  <PUBCHEM_CONFORMER_ID>  (1) 
0000801B00000001

>  <PUBCHEM_MMFF94_ENERGY>  (1) 
19.7627

>  <PUBCHEM_FEATURE_SELFOVERLAP>  (1) 
35.636

>  <PUBCHEM_SHAPE_FINGERPRINT>  (1) 
10857977 72 18051684735681461874
13380535 21 18410864235384735508
15076042 46 18412823573246889626
16945 1 18410858754420831858
18185500 45 17906737260105573694
19973954 147 18412260644974156520
20871998 184 18272092733374666759
21040471 1 18194132823516599109
23552423 10 18187367670510795158
2748010 2 18411982468347583118
5084963 1 17915446221184179032
528862 383 16965187064791722696

>  <PUBCHEM_SHAPE_MULTIPOLES>  (1) 
199.69
3.46
2.22
0.76
1.79
0.01
-0.06
-0.02
0.73
-1.16
0.18
0.07
0
0.02

>  <PUBCHEM_SHAPE_SELFOVERLAP>  (1) 
398.481

>  <PUBCHEM_SHAPE_VOLUME>  (1) 
116.1

>  <PUBCHEM_COORDINATE_TYPE>  (1) 
2
5
10

$$$$
