3279
     RDKit          3D

 14 13  0  0  1  0  0  0  0  0999 V2000
    5.4428    0.6296   -0.1501 O   0  0  0  0  0  0  0  0  0  0  0  0
   -5.4415    0.6286    0.1585 O   0  0  0  0  0  0  0  0  0  0  0  0
    1.7805    0.5226   -0.5436 N   0  0  0  0  0  0  0  0  0  0  0  0
   -1.7844    0.5225    0.5384 N   0  0  0  0  0  0  0  0  0  0  0  0
    3.0502    0.5160    0.1832 C   0  0  0  0  0  0  0  0  0  0  0  0
   -3.0498    0.5165   -0.1814 C   0  0  0  0  0  0  0  0  0  0  0  0
    0.6581    0.5290    0.3813 C   0  0  0  0  0  0  0  0  0  0  0  0
   -0.6586    0.5341   -0.3894 C   0  0  0  0  0  0  0  0  0  0  0  0
    3.1645   -0.7227    1.0916 C   0  0  0  0  0  0  0  0  0  0  0  0
   -3.1660   -0.7210   -1.0914 C   0  0  0  0  0  0  0  0  0  0  0  0
    4.1963    0.5669   -0.8326 C   0  0  0  0  0  0  0  0  0  0  0  0
   -4.1932    0.5653    0.8375 C   0  0  0  0  0  0  0  0  0  0  0  0
    3.1040   -2.0440    0.3348 C   0  0  0  0  0  0  0  0  0  0  0  0
   -3.1029   -2.0434   -0.3367 C   0  0  0  0  0  0  0  0  0  0  0  0
  1 11  1  0
  2 12  1  0
  3  5  1  0
  3  7  1  0
  4  6  1  0
  4  8  1  0
  5  9  1  0
  5 11  1  0
  6 10  1  0
  6 12  1  0
  7  8  1  0
  9 13  1  0
 10 14  1  0
M  END
>  <PUBCHEM_COMPOUND_CID>  (1) 
3279

>  <PUBCHEM_CONFORMER_RMSD>  (1) 
0.8

>  <PUBCHEM_CONFORMER_DIVERSEORDER>  (1) 
1
164
110
183
86
11
125
283
89
4
131
169
245
251
297
189
227
217
83
266
127
179
17
280
14
202
201
93
112
2
72
5
282
184
267
241
171
69
204
7
215
6
193
268
35
207
178
203
220
119
244
70
291
192
21
253
240
197
263
159
33
210
275
124
20
99
226
38
153
51
186
9
270
185
298
3
234
163
63
273
260
246
148
259
287
78
168
92
121
194
289
230
269
58
113
292
191
129
157
88
27
109
29
211
239
176
62
286
149
247
243
13
290
162
195
26
94
96
224
18
216
143
134
248
80
135
252
156
114
77
190
100
250
126
182
225
257
130
219
71
213
139
172
237
144
140
255
31
53
198
212
105
258
68
271
278
118
98
288
111
222
272
170
133
66
107
276
28
235
188
90
187
181
37
177
81
158
43
264
76
57
15
65
67
254
145
19
285
200
30
209
236
160
147
22
229
262
54
284
116
117
196
85
151
55
155
242
174
173
60
52
103
50
95
40
8
294
115
249
299
32
128
232
25
136
165
36
123
61
87
73
199
120
277
293
56
101
223
167
75
281
261
132
214
39
24
152
238
154
91
295
64
74
44
16
45
23
180
279
166
146
221
102
34
49
175
104
205
79
82
122
208
256
141
59
274
41
206
161
108
228
106
48
84
296
47
46
12
150
142
10
265
138
97
218
233
137
231
42

>  <PUBCHEM_MMFF94_PARTIAL_CHARGES>  (1) 
14
1 -0.68
11 0.28
12 0.28
2 -0.68
21 0.36
22 0.36
3 -0.9
37 0.4
38 0.4
4 -0.9
5 0.27
6 0.27
7 0.27
8 0.27

>  <PUBCHEM_EFFECTIVE_ROTOR_COUNT>  (1) 
9

>  <PUBCHEM_PHARMACOPHORE_FEATURES>  (1) 
10
1 1 acceptor
1 1 donor
1 13 hydrophobe
1 14 hydrophobe
1 2 acceptor
1 2 donor
1 3 cation
1 3 donor
1 4 cation
1 4 donor

>  <PUBCHEM_HEAVY_ATOM_COUNT>  (1) 
14

>  <PUBCHEM_ATOM_DEF_STEREO_COUNT>  (1) 
0

>  <PUBCHEM_ATOM_UDEF_STEREO_COUNT>  (1) 
2

>  <PUBCHEM_BOND_DEF_STEREO_COUNT>  (1) 
0

>  <PUBCHEM_BOND_UDEF_STEREO_COUNT>  (1) 
0

>  <PUBCHEM_ISOTOPIC_ATOM_COUNT>  (1) 
0

>  <PUBCHEM_COMPONENT_COUNT>  (1) 
1

>  <PUBCHEM_CACTVS_TAUTO_COUNT>  (1) 
1

>  <PUBCHEM_CONFORMER_ID>  (1) 
00000CCF00000001

>  <PUBCHEM_MMFF94_ENERGY>  (1) 
4.841

>  <PUBCHEM_FEATURE_SELFOVERLAP>  (1) 
50.747

>  <PUBCHEM_SHAPE_FINGERPRINT>  (1) 
10366900 7 16702302334509939187
10616163 171 18341050825630206399
124424 183 16917068875965002641
13167823 11 18410856563934958246
13533116 47 17703508771109766527
13760787 19 18413670222817275510
14123238 8 15719395048535842501
14252887 29 17748831782899369704
15242433 33 18410575076173462071
15242439 84 15841554067441828932
17834072 33 18409168835493688260
17834076 25 18412827988341595888
18186145 218 18341885324895847576
19050596 39 18412819188159191978
20281475 54 18410567392376729734
20645477 70 17676484991538937962
21054139 6 18263637532603256310
22485316 2 18410571786128319013
23402539 116 17313099774039189428
23402655 69 18186798054567748388
23557571 272 17489035868063588312
23559900 14 17418100905656913628
300161 21 18411410713505645341
3268164 11 12468632863688507347
351380 180 9943807780969750871
522135 26 18335421236254419176
58051976 100 18411980299626475469
581208 293 18186796976973925794

>  <PUBCHEM_SHAPE_MULTIPOLES>  (1) 
266.41
11.49
1.52
0.96
0.02
1.18
0
-0.89
-0.02
0
0
0
0.06
-1.08

>  <PUBCHEM_SHAPE_SELFOVERLAP>  (1) 
486.281

>  <PUBCHEM_SHAPE_VOLUME>  (1) 
170.3

>  <PUBCHEM_COORDINATE_TYPE>  (1) 
2
5
10

$$$$
