32799
     RDKit          3D

 15 17  0  0  1  0  0  0  0  0999 V2000
   -0.0155   -1.6895   -0.0148 N   0  0  0  0  0  0  0  0  0  0  0  0
   -0.5039   -0.4465    0.5554 C   0  0  0  0  0  0  0  0  0  0  0  0
    0.5041   -0.4368   -0.5486 C   0  0  0  0  0  0  0  0  0  0  0  0
   -1.9234   -0.1045    0.2566 C   0  0  0  0  0  0  0  0  0  0  0  0
    1.9156   -0.1034   -0.2546 C   0  0  0  0  0  0  0  0  0  0  0  0
   -2.9510   -0.6699    1.0115 C   0  0  0  0  0  0  0  0  0  0  0  0
    2.9484   -0.6552   -1.0223 C   0  0  0  0  0  0  0  0  0  0  0  0
   -2.2243    0.7812   -0.7780 C   0  0  0  0  0  0  0  0  0  0  0  0
    2.2334    0.7673    0.7948 C   0  0  0  0  0  0  0  0  0  0  0  0
   -4.2795   -0.3496    0.7317 C   0  0  0  0  0  0  0  0  0  0  0  0
    4.2787   -0.3407   -0.7451 C   0  0  0  0  0  0  0  0  0  0  0  0
   -3.5527    1.1016   -1.0577 C   0  0  0  0  0  0  0  0  0  0  0  0
    3.5638    1.0819    1.0719 C   0  0  0  0  0  0  0  0  0  0  0  0
   -4.5803    0.5363   -0.3029 C   0  0  0  0  0  0  0  0  0  0  0  0
    4.5865    0.5278    0.3021 C   0  0  0  0  0  0  0  0  0  0  0  0
  1  2  1  0
  1  3  1  0
  2  3  1  0
  2  4  1  0
  3  5  1  0
  4  6  2  0
  4  8  1  0
  5  7  2  0
  5  9  1  0
  6 10  1  0
  7 11  1  0
  8 12  2  0
  9 13  2  0
 10 14  2  0
 11 15  2  0
 12 14  1  0
 13 15  1  0
M  END
>  <PUBCHEM_COMPOUND_CID>  (1) 
32799

>  <PUBCHEM_CONFORMER_RMSD>  (1) 
0.6

>  <PUBCHEM_CONFORMER_DIVERSEORDER>  (1) 
1
2
3

>  <PUBCHEM_MMFF94_PARTIAL_CHARGES>  (1) 
28
1 -0.68
10 -0.15
11 -0.15
12 -0.15
13 -0.15
14 -0.15
15 -0.15
16 0.1
17 0.1
18 0.36
19 0.15
2 0.09
20 0.15
21 0.15
22 0.15
23 0.15
24 0.15
25 0.15
26 0.15
27 0.15
28 0.15
3 0.09
4 -0.03
5 -0.03
6 -0.15
7 -0.15
8 -0.15
9 -0.15

>  <PUBCHEM_EFFECTIVE_ROTOR_COUNT>  (1) 
2.6

>  <PUBCHEM_PHARMACOPHORE_FEATURES>  (1) 
4
1 1 cation
1 1 donor
6 4 6 8 10 12 14 rings
6 5 7 9 11 13 15 rings

>  <PUBCHEM_HEAVY_ATOM_COUNT>  (1) 
15

>  <PUBCHEM_ATOM_DEF_STEREO_COUNT>  (1) 
2

>  <PUBCHEM_ATOM_UDEF_STEREO_COUNT>  (1) 
0

>  <PUBCHEM_BOND_DEF_STEREO_COUNT>  (1) 
0

>  <PUBCHEM_BOND_UDEF_STEREO_COUNT>  (1) 
0

>  <PUBCHEM_ISOTOPIC_ATOM_COUNT>  (1) 
0

>  <PUBCHEM_COMPONENT_COUNT>  (1) 
1

>  <PUBCHEM_CACTVS_TAUTO_COUNT>  (1) 
1

>  <PUBCHEM_CONFORMER_ID>  (1) 
0000801F00000001

>  <PUBCHEM_MMFF94_ENERGY>  (1) 
41.6656

>  <PUBCHEM_FEATURE_SELFOVERLAP>  (1) 
20.297

>  <PUBCHEM_SHAPE_FINGERPRINT>  (1) 
11132069 177 17894914018683451685
11471102 20 17775568641659293568
11543360 7 16271920536672500063
12107183 9 15288980063555257296
12119455 92 18342734117765378726
12236239 1 15719112465510122129
12251169 10 15574713594833835450
12403259 415 18410858762958246272
12670546 56 15719388455855800692
13081056 2 18412825789265690245
13214271 11 18259702303172246831
13675066 3 18187085065799488530
17834072 33 16558743538341643765
18186145 218 18060702788276472046
19026448 5 15719395044261766356
19050596 39 15791733009459403289
19422 9 15791730810805237680
200 152 16343704326529503218
20279233 1 18410858758668488770
20645477 56 18410852209170338588
20645477 70 17774729675485337534
21033648 29 18340756096368505152
21065198 48 15719388421438228033
21119208 17 15698000734107911209
22854114 59 18410013242985299835
23402539 116 18411129251455865997
23402655 69 16988848258858551512
23557571 272 18260842475239576767
23559900 14 17895196528578956142
3082319 5 15697997448452564065
3268164 11 18113609102146715495
351380 180 18335414677428167813
4047638 21 18131071550087575490
42 15 16950276295897485210
474 4 17059196211363384184
5104073 3 18041562413020196401
5281201 14 18059862727207504676
548570 60 18410852161593629249
573450 72 16587736547326974065
633830 44 17846506906504844267
69090 78 17989203767520291678
81228 2 17834950150213055115
9971528 1 16773799182614217112

>  <PUBCHEM_SHAPE_MULTIPOLES>  (1) 
303.71
10.04
1.14
1.13
0.04
0.06
-0.01
-1.95
-0.05
-0.09
0.01
0.09
-0.1
1.28

>  <PUBCHEM_SHAPE_SELFOVERLAP>  (1) 
658.378

>  <PUBCHEM_SHAPE_VOLUME>  (1) 
166.5

>  <PUBCHEM_COORDINATE_TYPE>  (1) 
2
5
10

$$$$
