32798
     RDKit          3D

 32 35  0  0  1  0  0  0  0  0999 V2000
   -5.1988    1.0114    2.6487 Cl  0  0  0  0  0  0  0  0  0  0  0  0
    1.7710   -1.1253    0.3374 F   0  0  0  0  0  0  0  0  0  0  0  0
   -2.6187   -1.0606    0.2305 O   0  0  0  0  0  0  0  0  0  0  0  0
    1.1897    2.1227    1.7632 O   0  0  0  0  0  0  0  0  0  0  0  0
   -4.5900    1.4386   -0.2206 O   0  0  0  0  0  0  0  0  0  0  0  0
   -4.7409   -1.2315   -0.6586 O   0  0  0  0  0  0  0  0  0  0  0  0
    6.5310   -2.1873    0.4425 O   0  0  0  0  0  0  0  0  0  0  0  0
   -1.1106    0.8658    0.0671 C   0  0  0  0  0  0  0  0  0  0  0  0
   -0.2764    0.2343   -1.0691 C   0  0  0  0  0  0  0  0  0  0  0  0
    1.1947    0.6781   -1.0651 C   0  0  0  0  0  0  0  0  0  0  0  0
    1.8527    0.2582    0.2943 C   0  0  0  0  0  0  0  0  0  0  0  0
   -2.5167    0.2790   -0.2697 C   0  0  0  0  0  0  0  0  0  0  0  0
   -1.1238    0.5055   -2.3083 C   0  0  0  0  0  0  0  0  0  0  0  0
   -0.4882    0.4067    1.4030 C   0  0  0  0  0  0  0  0  0  0  0  0
   -2.5700    0.2175   -1.8295 C   0  0  0  0  0  0  0  0  0  0  0  0
    1.0180    0.7351    1.5209 C   0  0  0  0  0  0  0  0  0  0  0  0
    3.3961    0.5928    0.3343 C   0  0  0  0  0  0  0  0  0  0  0  0
    1.9434    0.0596   -2.2602 C   0  0  0  0  0  0  0  0  0  0  0  0
   -1.1603    2.4175    0.0021 C   0  0  0  0  0  0  0  0  0  0  0  0
    3.4342    0.3746   -2.2345 C   0  0  0  0  0  0  0  0  0  0  0  0
    4.0336   -0.0318   -0.9126 C   0  0  0  0  0  0  0  0  0  0  0  0
   -3.6608    0.9570    0.4258 C   0  0  0  0  0  0  0  0  0  0  0  0
   -3.5629    1.1477   -2.5195 C   0  0  0  0  0  0  0  0  0  0  0  0
    3.7136    2.1057    0.3249 C   0  0  0  0  0  0  0  0  0  0  0  0
    4.0207    0.0382    1.6067 C   0  0  0  0  0  0  0  0  0  0  0  0
    5.0359   -0.9237   -0.8713 C   0  0  0  0  0  0  0  0  0  0  0  0
   -3.5795    0.9999    1.9345 C   0  0  0  0  0  0  0  0  0  0  0  0
    5.0174   -0.8511    1.6546 C   0  0  0  0  0  0  0  0  0  0  0  0
   -3.7945   -1.6991   -0.0404 C   0  0  0  0  0  0  0  0  0  0  0  0
    5.6049   -1.3840    0.4119 C   0  0  0  0  0  0  0  0  0  0  0  0
   -3.7406   -3.0888    0.5496 C   0  0  0  0  0  0  0  0  0  0  0  0
   -5.0245   -3.8629    0.3073 C   0  0  0  0  0  0  0  0  0  0  0  0
  1 27  1  0
  2 11  1  0
  3 12  1  0
  3 29  1  0
  4 16  1  0
  5 22  2  0
  6 29  2  0
  7 30  2  0
  8  9  1  0
  8 12  1  0
  8 14  1  0
  8 19  1  0
  9 10  1  0
  9 13  1  0
 10 11  1  0
 10 18  1  0
 11 16  1  0
 11 17  1  0
 12 15  1  0
 12 22  1  0
 13 15  1  0
 14 16  1  0
 15 23  1  0
 17 21  1  0
 17 24  1  0
 17 25  1  0
 18 20  1  0
 20 21  1  0
 21 26  2  0
 22 27  1  0
 25 28  2  0
 26 30  1  0
 28 30  1  0
 29 31  1  0
 31 32  1  0
M  END
>  <PUBCHEM_COMPOUND_CID>  (1) 
32798

>  <PUBCHEM_CONFORMER_RMSD>  (1) 
0.8

>  <PUBCHEM_CONFORMER_DIVERSEORDER>  (1) 
1
2

>  <PUBCHEM_MMFF94_PARTIAL_CHARGES>  (1) 
25
1 -0.29
11 0.34
12 0.34
16 0.28
17 0.28
2 -0.34
20 0.14
21 -0.28
22 0.45
25 -0.29
26 -0.14
27 0.35
28 -0.14
29 0.66
3 -0.43
30 0.54
31 0.06
4 -0.68
5 -0.57
54 0.15
55 0.4
56 0.15
59 0.15
6 -0.57
7 -0.57

>  <PUBCHEM_EFFECTIVE_ROTOR_COUNT>  (1) 
6.4

>  <PUBCHEM_PHARMACOPHORE_FEATURES>  (1) 
10
1 32 hydrophobe
1 4 acceptor
1 4 donor
1 5 acceptor
1 6 acceptor
1 7 acceptor
5 8 9 12 13 15 rings
6 10 11 17 18 20 21 rings
6 17 21 25 26 28 30 rings
6 8 9 10 11 14 16 rings

>  <PUBCHEM_HEAVY_ATOM_COUNT>  (1) 
32

>  <PUBCHEM_ATOM_DEF_STEREO_COUNT>  (1) 
8

>  <PUBCHEM_ATOM_UDEF_STEREO_COUNT>  (1) 
0

>  <PUBCHEM_BOND_DEF_STEREO_COUNT>  (1) 
0

>  <PUBCHEM_BOND_UDEF_STEREO_COUNT>  (1) 
0

>  <PUBCHEM_ISOTOPIC_ATOM_COUNT>  (1) 
0

>  <PUBCHEM_COMPONENT_COUNT>  (1) 
1

>  <PUBCHEM_CACTVS_TAUTO_COUNT>  (1) 
6

>  <PUBCHEM_CONFORMER_ID>  (1) 
0000801E00000001

>  <PUBCHEM_MMFF94_ENERGY>  (1) 
117.1875

>  <PUBCHEM_FEATURE_SELFOVERLAP>  (1) 
50.852

>  <PUBCHEM_SHAPE_FINGERPRINT>  (1) 
10319926 262 17917444098173222863
10928967 22 17894346691990109834
11405975 8 18273502264368589592
11578080 2 17971495115565466248
11763715 3 18115604749494189205
11796584 16 18336261246074611702
12236239 1 17749117659758863261
12422481 6 18114480980418522443
12633046 712 18340479045387002533
12633257 1 18342746190955397361
13224815 77 18261387866770774940
13583140 156 18131062706174926100
13782708 43 18335134319190803818
14251751 18 18408037412475518626
14739800 52 11095879333646613886
14856354 85 18412834563941690734
14950920 106 18272934942048731819
15131766 46 17973744737541205573
15484559 13 12408046182226413358
15788980 27 18113336384244336952
15799311 1 18335714818449096746
17349148 13 17603873282184234528
1813 80 18201441350949104796
20775438 99 16883007293794752682
21033648 29 16343434933617543291
21267235 1 15647635383774099745
21421861 104 17272855308354544094
221357 26 15791739581086498412
22393880 68 17821996606436831046
23559900 14 18335688464640401832
23569914 152 15868803174146347151
23569914 2 8983411282553603238
392239 28 15123498208383487834
460360 51 16056335946092978136
463206 1 17821730563256737282
484985 159 18411699898830120827
5104073 3 18131354137081027912
563151 248 18265072322394949251
57527293 21 18270974521628166701
6009941 240 18201998776909347928
70251023 43 17387415855766578597
9981440 41 16558199194503014515

>  <PUBCHEM_SHAPE_MULTIPOLES>  (1) 
623.79
12.8
2.55
2.38
5.78
2.39
0.22
7.33
-2.8
-2.99
-0.32
-0.92
-0.99
-0.54

>  <PUBCHEM_SHAPE_SELFOVERLAP>  (1) 
1339.49

>  <PUBCHEM_SHAPE_VOLUME>  (1) 
348.1

>  <PUBCHEM_COORDINATE_TYPE>  (1) 
2
5
10

$$$$
