32808
     RDKit          3D

 44 47  0  0  1  0  0  0  0  0999 V2000
   -9.7806   -1.9146   -0.2687 O   0  0  0  0  0  0  0  0  0  0  0  0
    9.7185   -2.0272    0.2763 O   0  0  0  0  0  0  0  0  0  0  0  0
   -5.3593    1.2271   -0.8149 O   0  0  0  0  0  0  0  0  0  0  0  0
    5.4154    1.2044    0.7909 O   0  0  0  0  0  0  0  0  0  0  0  0
   -7.2424    1.3556    0.6223 N   0  0  0  0  0  0  0  0  0  0  0  0
    7.2777    1.3707   -0.6413 N   0  0  0  0  0  0  0  0  0  0  0  0
   -7.9099   -2.1225   -3.0683 N   0  0  0  0  0  0  0  0  0  0  0  0
    7.8239   -2.1818    3.0633 N   0  0  0  0  0  0  0  0  0  0  0  0
   -7.6021   -1.0333    0.2702 C   0  0  0  0  0  0  0  0  0  0  0  0
    7.5722   -1.0770   -0.2748 C   0  0  0  0  0  0  0  0  0  0  0  0
   -8.3834   -2.1452   -0.4746 C   0  0  0  0  0  0  0  0  0  0  0  0
    8.3134   -2.2142    0.4726 C   0  0  0  0  0  0  0  0  0  0  0  0
   -7.8701    0.3732   -0.2808 C   0  0  0  0  0  0  0  0  0  0  0  0
    7.8805    0.3194    0.2810 C   0  0  0  0  0  0  0  0  0  0  0  0
   -6.0910   -1.3153    0.3077 C   0  0  0  0  0  0  0  0  0  0  0  0
    6.0533   -1.3114   -0.3226 C   0  0  0  0  0  0  0  0  0  0  0  0
   -8.0418   -3.5250    0.1172 C   0  0  0  0  0  0  0  0  0  0  0  0
    7.9325   -3.5815   -0.1244 C   0  0  0  0  0  0  0  0  0  0  0  0
   -5.7898   -2.6906    0.8976 C   0  0  0  0  0  0  0  0  0  0  0  0
    5.7129   -2.6753   -0.9175 C   0  0  0  0  0  0  0  0  0  0  0  0
   -6.5394   -3.7999    0.1682 C   0  0  0  0  0  0  0  0  0  0  0  0
    6.4227   -3.8090   -0.1858 C   0  0  0  0  0  0  0  0  0  0  0  0
   -7.4479    0.9834    2.1040 C   0  0  0  0  0  0  0  0  0  0  0  0
   -7.8737    2.7555    0.4337 C   0  0  0  0  0  0  0  0  0  0  0  0
    7.5224    0.9921   -2.0975 C   0  0  0  0  0  0  0  0  0  0  0  0
    7.9603    2.7157   -0.3802 C   0  0  0  0  0  0  0  0  0  0  0  0
   -5.7322    1.4538    0.3324 C   0  0  0  0  0  0  0  0  0  0  0  0
    5.7841    1.4690   -0.3496 C   0  0  0  0  0  0  0  0  0  0  0  0
   -8.1183   -2.1325   -1.9270 C   0  0  0  0  0  0  0  0  0  0  0  0
    8.0393   -2.1962    1.9233 C   0  0  0  0  0  0  0  0  0  0  0  0
   -4.7761    1.7748    1.4654 C   0  0  0  0  0  0  0  0  0  0  0  0
    4.8136    1.8727   -1.4518 C   0  0  0  0  0  0  0  0  0  0  0  0
   -3.3342    1.7893    1.0276 C   0  0  0  0  0  0  0  0  0  0  0  0
    3.3867    1.8579   -1.0187 C   0  0  0  0  0  0  0  0  0  0  0  0
   -2.5766    0.6193    1.0817 C   0  0  0  0  0  0  0  0  0  0  0  0
    2.6273    0.6962   -1.1572 C   0  0  0  0  0  0  0  0  0  0  0  0
   -2.7574    2.9730    0.5676 C   0  0  0  0  0  0  0  0  0  0  0  0
    2.8118    3.0062   -0.4741 C   0  0  0  0  0  0  0  0  0  0  0  0
   -0.6654    1.8169    0.2155 C   0  0  0  0  0  0  0  0  0  0  0  0
    0.7180    1.8310   -0.2066 C   0  0  0  0  0  0  0  0  0  0  0  0
   -1.2423    0.6331    0.6757 C   0  0  0  0  0  0  0  0  0  0  0  0
    1.2929    0.6827   -0.7513 C   0  0  0  0  0  0  0  0  0  0  0  0
   -1.4231    2.9868    0.1616 C   0  0  0  0  0  0  0  0  0  0  0  0
    1.4775    2.9928   -0.0681 C   0  0  0  0  0  0  0  0  0  0  0  0
  1 11  1  0
  2 12  1  0
  3 27  2  0
  4 28  2  0
  5 13  1  0
  5 23  1  0
  5 24  1  0
  5 27  1  0
  6 14  1  0
  6 25  1  0
  6 26  1  0
  6 28  1  0
  7 29  3  0
  8 30  3  0
  9 11  1  0
  9 13  1  0
  9 15  1  0
 10 12  1  0
 10 14  1  0
 10 16  1  0
 11 17  1  0
 11 29  1  0
 12 18  1  0
 12 30  1  0
 15 19  1  0
 16 20  1  0
 17 21  1  0
 18 22  1  0
 19 21  1  0
 20 22  1  0
 27 31  1  0
 28 32  1  0
 31 33  1  0
 32 34  1  0
 33 35  2  0
 33 37  1  0
 34 36  2  0
 34 38  1  0
 35 41  1  0
 36 42  1  0
 37 43  2  0
 38 44  2  0
 39 40  1  0
 39 41  2  0
 39 43  1  0
 40 42  2  0
 40 44  1  0
M  CHG  2   5   1   6   1
M  END
>  <PUBCHEM_COMPOUND_CID>  (1) 
32808

>  <PUBCHEM_CONFORMER_RMSD>  (1) 
2

>  <PUBCHEM_CONFORMER_DIVERSEORDER>  (1) 
1
29
15
30
20
16
13
23
31
3
33
22
19
6
14
26
11
9
18
10
27
7
21
32
28
8
34
2
24
12
25
5
4
17

>  <PUBCHEM_MMFF94_PARTIAL_CHARGES>  (1) 
42
1 -0.68
11 0.48
12 0.48
13 0.5
14 0.5
2 -0.68
23 0.5
24 0.5
25 0.5
26 0.5
27 0.9
28 0.9
29 0.36
3 -0.57
30 0.36
31 0.2
32 0.2
33 -0.14
34 -0.14
35 -0.15
36 -0.15
37 -0.15
38 -0.15
4 -0.57
41 -0.15
42 -0.15
43 -0.15
44 -0.15
5 -0.91
6 -0.91
7 -0.56
79 0.4
8 -0.56
80 0.4
85 0.15
86 0.15
87 0.15
88 0.15
89 0.15
90 0.15
91 0.15
92 0.15

>  <PUBCHEM_EFFECTIVE_ROTOR_COUNT>  (1) 
13.4

>  <PUBCHEM_PHARMACOPHORE_FEATURES>  (1) 
12
1 1 acceptor
1 1 donor
1 2 acceptor
1 2 donor
1 3 acceptor
1 4 acceptor
1 7 acceptor
1 8 acceptor
6 10 12 16 18 20 22 rings
6 33 35 37 39 41 43 rings
6 34 36 38 40 42 44 rings
6 9 11 15 17 19 21 rings

>  <PUBCHEM_HEAVY_ATOM_COUNT>  (1) 
44

>  <PUBCHEM_ATOM_DEF_STEREO_COUNT>  (1) 
0

>  <PUBCHEM_ATOM_UDEF_STEREO_COUNT>  (1) 
4

>  <PUBCHEM_BOND_DEF_STEREO_COUNT>  (1) 
0

>  <PUBCHEM_BOND_UDEF_STEREO_COUNT>  (1) 
0

>  <PUBCHEM_ISOTOPIC_ATOM_COUNT>  (1) 
0

>  <PUBCHEM_COMPONENT_COUNT>  (1) 
1

>  <PUBCHEM_CACTVS_TAUTO_COUNT>  (1) 
1

>  <PUBCHEM_CONFORMER_ID>  (1) 
0000802800000001

>  <PUBCHEM_MMFF94_ENERGY>  (1) 
154.5603

>  <PUBCHEM_FEATURE_SELFOVERLAP>  (1) 
60.901

>  <PUBCHEM_SHAPE_FINGERPRINT>  (1) 
10100884 174 18410012152064302195
10554248 39 17603881038674203860
11386260 185 16588309444435794788
11408170 132 8142085364977652088
12013929 27 18187929551476510663
12013929 94 18413112775803896988
12539765 74 8142088667455101808
13008946 170 18117004488728503652
13811026 1 18410857663462598663
14017579 52 18200600189645758342
14279260 333 18341613746789688479
15064981 113 14779268596721671993
15392192 104 17989207050062001612
15664458 50 11455881434997106316
16990366 60 18272369801841746889
16993427 108 18202282524251227913
1754908 1 16558751212883777089
19301679 30 18265899065187627492
19841028 212 18335422336214355618
20165401 70 18337956684805091310
2026 5 18410856577500549995
21130935 74 18342743975243201120
212700 22 18409725175076313866
21987483 16 18200591539481014192
22164985 6 18408042914244430661
3504750 166 18339368453287805417
3986486 107 11386376907412437226
4167350 143 18202282463805551155
44389302 135 18199748047566620002
45377200 153 17632308895030825550
4616759 239 17417821600235034129
4625314 4 18410012122279267953
50009960 94 18413107251499872447
5937810 71 8430317939867711219
6201320 221 16443891753829722690
6703917 75 8934995963372579209
99344 41 18411705348600007875
9962374 69 18334298656784876024

>  <PUBCHEM_SHAPE_MULTIPOLES>  (1) 
862.1
39.31
5.12
1.69
1.4
2.93
-0.01
31.09
-0.23
-0.31
0.05
0.02
0.71
-5.65

>  <PUBCHEM_SHAPE_SELFOVERLAP>  (1) 
1815.586

>  <PUBCHEM_SHAPE_VOLUME>  (1) 
475.3

>  <PUBCHEM_COORDINATE_TYPE>  (1) 
2
5
10

$$$$
