32817
     RDKit          3D

 11 11  0  0  0  0  0  0  0  0999 V2000
   -2.7614    1.1631    0.0012 Cl  0  0  0  0  0  0  0  0  0  0  0  0
    2.8375   -1.6135    0.0019 Cl  0  0  0  0  0  0  0  0  0  0  0  0
   -2.5009   -2.0430    0.0000 Cl  0  0  0  0  0  0  0  0  0  0  0  0
   -0.1401    2.5258   -0.0003 O   0  0  0  0  0  0  0  0  0  0  0  0
    2.3155    1.3352   -0.0010 O   0  0  0  0  0  0  0  0  0  0  0  0
   -0.0609    1.1633    0.0005 C   0  0  0  0  0  0  0  0  0  0  0  0
    1.1951    0.5563    0.0002 C   0  0  0  0  0  0  0  0  0  0  0  0
   -1.2145    0.3789    0.0000 C   0  0  0  0  0  0  0  0  0  0  0  0
    1.2975   -0.8348   -0.0006 C   0  0  0  0  0  0  0  0  0  0  0  0
   -1.1118   -1.0123   -0.0008 C   0  0  0  0  0  0  0  0  0  0  0  0
    0.1441   -1.6191   -0.0010 C   0  0  0  0  0  0  0  0  0  0  0  0
  1  8  1  0
  2  9  1  0
  3 10  1  0
  4  6  1  0
  5  7  1  0
  6  7  2  0
  6  8  1  0
  7  9  1  0
  8 10  2  0
  9 11  2  0
 10 11  1  0
M  END
>  <PUBCHEM_COMPOUND_CID>  (1) 
32817

>  <PUBCHEM_CONFORMER_RMSD>  (1) 
0.4

>  <PUBCHEM_CONFORMER_DIVERSEORDER>  (1) 
1

>  <PUBCHEM_MMFF94_PARTIAL_CHARGES>  (1) 
14
1 -0.18
10 0.18
11 -0.15
12 0.15
13 0.45
14 0.45
2 -0.18
3 -0.18
4 -0.53
5 -0.53
6 0.08
7 0.08
8 0.18
9 0.18

>  <PUBCHEM_EFFECTIVE_ROTOR_COUNT>  (1) 
0

>  <PUBCHEM_PHARMACOPHORE_FEATURES>  (1) 
3
1 4 donor
1 5 donor
6 6 7 8 9 10 11 rings

>  <PUBCHEM_HEAVY_ATOM_COUNT>  (1) 
11

>  <PUBCHEM_ATOM_DEF_STEREO_COUNT>  (1) 
0

>  <PUBCHEM_ATOM_UDEF_STEREO_COUNT>  (1) 
0

>  <PUBCHEM_BOND_DEF_STEREO_COUNT>  (1) 
0

>  <PUBCHEM_BOND_UDEF_STEREO_COUNT>  (1) 
0

>  <PUBCHEM_ISOTOPIC_ATOM_COUNT>  (1) 
0

>  <PUBCHEM_COMPONENT_COUNT>  (1) 
1

>  <PUBCHEM_CACTVS_TAUTO_COUNT>  (1) 
8

>  <PUBCHEM_CONFORMER_ID>  (1) 
0000803100000001

>  <PUBCHEM_MMFF94_ENERGY>  (1) 
22.9519

>  <PUBCHEM_FEATURE_SELFOVERLAP>  (1) 
15.229

>  <PUBCHEM_SHAPE_FINGERPRINT>  (1) 
11206711 2 18193278717930577341
12423570 1 12245750895475240706
16945 1 18194402190911969318
193761 8 18410856611216320389
20588541 1 18125725590861034527
20871998 184 18201435826935288670
21040471 1 18410856568293222565
21501502 16 18410576209976360391
2334 1 18338797917635356515
23402655 69 17545863951079500573
23552423 10 18261114097065684926
23559900 14 18197781008384784790
241688 4 18410012126130389794
2748010 2 18411698807032233998
5084963 1 17842549652439856121
528886 8 18339636724832577051
68250623 7 18410298033518825699

>  <PUBCHEM_SHAPE_MULTIPOLES>  (1) 
220.25
3.76
2.54
0.61
0.4
0.2
0
-0.93
0
-0.55
0
-0.02
-0.04
0

>  <PUBCHEM_SHAPE_SELFOVERLAP>  (1) 
437.971

>  <PUBCHEM_SHAPE_VOLUME>  (1) 
133.6

>  <PUBCHEM_COORDINATE_TYPE>  (1) 
2
5
10

$$$$
