3281
     RDKit          3D

  9  8  0  0  1  0  0  0  0  0999 V2000
    3.4322   -0.7800    0.3294 Cl  0  0  0  0  0  0  0  0  0  0  0  0
   -0.5334    0.2908   -1.5661 O   0  0  0  0  0  0  0  0  0  0  0  0
   -0.5762    0.0971   -0.1512 C   0  0  0  0  0  0  0  0  0  0  0  0
   -1.1128    1.3857    0.5103 C   0  0  0  0  0  0  0  0  0  0  0  0
   -0.2074    2.6017    0.3339 C   0  0  0  0  0  0  0  0  0  0  0  0
    0.7971   -0.2615    0.3771 C   0  0  0  0  0  0  0  0  0  0  0  0
   -1.4858   -1.0310    0.1402 C   0  0  0  0  0  0  0  0  0  0  0  0
    1.9157   -0.3589   -0.3497 C   0  0  0  0  0  0  0  0  0  0  0  0
   -2.2295   -1.9439    0.3760 C   0  0  0  0  0  0  0  0  0  0  0  0
  1  8  1  0
  2  3  1  0
  3  4  1  0
  3  6  1  0
  3  7  1  0
  4  5  1  0
  6  8  2  0
  7  9  3  0
M  END
>  <PUBCHEM_COMPOUND_CID>  (1) 
3281

>  <PUBCHEM_CONFORMER_RMSD>  (1) 
0.4

>  <PUBCHEM_CONFORMER_DIVERSEORDER>  (1) 
1
9
4
5
10
3
7
2
8
6

>  <PUBCHEM_MMFF94_PARTIAL_CHARGES>  (1) 
11
1 -0.14
15 0.15
16 0.4
17 0.15
18 0.18
2 -0.68
3 0.62
6 -0.29
7 -0.2
8 -0.01
9 -0.18

>  <PUBCHEM_EFFECTIVE_ROTOR_COUNT>  (1) 
2

>  <PUBCHEM_PHARMACOPHORE_FEATURES>  (1) 
4
1 2 acceptor
1 2 donor
1 5 hydrophobe
1 9 hydrophobe

>  <PUBCHEM_HEAVY_ATOM_COUNT>  (1) 
9

>  <PUBCHEM_ATOM_DEF_STEREO_COUNT>  (1) 
0

>  <PUBCHEM_ATOM_UDEF_STEREO_COUNT>  (1) 
1

>  <PUBCHEM_BOND_DEF_STEREO_COUNT>  (1) 
0

>  <PUBCHEM_BOND_UDEF_STEREO_COUNT>  (1) 
1

>  <PUBCHEM_ISOTOPIC_ATOM_COUNT>  (1) 
0

>  <PUBCHEM_COMPONENT_COUNT>  (1) 
1

>  <PUBCHEM_CACTVS_TAUTO_COUNT>  (1) 
1

>  <PUBCHEM_CONFORMER_ID>  (1) 
00000CD100000001

>  <PUBCHEM_MMFF94_ENERGY>  (1) 
7.8045

>  <PUBCHEM_FEATURE_SELFOVERLAP>  (1) 
20.297

>  <PUBCHEM_SHAPE_FINGERPRINT>  (1) 
100427 49 18200302359507047424
12716758 59 18054229821901148386
12932764 1 17386571233320983938
13024252 1 13551767175036211860
137420 1 17043797598012860761
14128692 85 17823423875324134350
20871998 184 18201722821002808470
21040471 1 17907306446483260592
21524375 3 17265525851689440104
23211744 41 17410500883337662141
23552449 1 18412546483489985864
23552449 11 17980769555826548307
29004967 10 18197779001542683539
528862 383 17765429142426830760

>  <PUBCHEM_SHAPE_MULTIPOLES>  (1) 
181.22
3.58
2.25
0.91
3.74
1.29
-0.28
-2.29
0.55
-1.42
0.47
-0.08
0.06
0.03

>  <PUBCHEM_SHAPE_SELFOVERLAP>  (1) 
333.105

>  <PUBCHEM_SHAPE_VOLUME>  (1) 
115.6

>  <PUBCHEM_COORDINATE_TYPE>  (1) 
2
5
10

$$$$
