32828
     RDKit          3D

 30 33  0  0  1  0  0  0  0  0999 V2000
   -5.7717   -0.5497   -1.9735 Cl  0  0  0  0  0  0  0  0  0  0  0  0
    6.1725   -4.1019    0.3471 Cl  0  0  0  0  0  0  0  0  0  0  0  0
    0.5912    2.5280   -1.9423 O   0  0  0  0  0  0  0  0  0  0  0  0
   -0.8583    0.7267   -1.7340 N   0  0  0  0  0  0  0  0  0  0  0  0
   -3.1909   -0.1227   -0.3922 N   0  0  0  0  0  0  0  0  0  0  0  0
   -2.0631    1.5495   -1.8039 C   0  0  0  0  0  0  0  0  0  0  0  0
   -1.1259   -0.7065   -1.6007 C   0  0  0  0  0  0  0  0  0  0  0  0
   -2.9475    1.3166   -0.5811 C   0  0  0  0  0  0  0  0  0  0  0  0
   -1.9980   -0.9809   -0.3758 C   0  0  0  0  0  0  0  0  0  0  0  0
    1.5858    0.3874   -1.7288 C   0  0  0  0  0  0  0  0  0  0  0  0
    1.9614    0.1320   -0.2581 C   0  0  0  0  0  0  0  0  0  0  0  0
    0.4010    1.3160   -1.8128 C   0  0  0  0  0  0  0  0  0  0  0  0
   -4.3236   -0.4999    0.3384 C   0  0  0  0  0  0  0  0  0  0  0  0
    3.0303   -0.9447   -0.1048 C   0  0  0  0  0  0  0  0  0  0  0  0
    2.3407    1.4043    0.4919 C   0  0  0  0  0  0  0  0  0  0  0  0
   -5.5845   -0.7310   -0.2659 C   0  0  0  0  0  0  0  0  0  0  0  0
   -4.2420   -0.6673    1.7417 C   0  0  0  0  0  0  0  0  0  0  0  0
    3.0376   -1.7154    1.0380 C   0  0  0  0  0  0  0  0  0  0  0  0
    3.9548   -1.1107   -1.1138 C   0  0  0  0  0  0  0  0  0  0  0  0
    3.6602    1.8037    0.4974 C   0  0  0  0  0  0  0  0  0  0  0  0
    1.3519    2.1130    1.1401 C   0  0  0  0  0  0  0  0  0  0  0  0
   -6.6956   -1.1066    0.4891 C   0  0  0  0  0  0  0  0  0  0  0  0
   -5.3532   -1.0428    2.4966 C   0  0  0  0  0  0  0  0  0  0  0  0
    4.0163   -2.6992    1.1786 C   0  0  0  0  0  0  0  0  0  0  0  0
    4.9334   -2.0946   -0.9732 C   0  0  0  0  0  0  0  0  0  0  0  0
    4.0074    2.9674    1.1838 C   0  0  0  0  0  0  0  0  0  0  0  0
    1.6990    3.2768    1.8265 C   0  0  0  0  0  0  0  0  0  0  0  0
   -6.5801   -1.2624    1.8704 C   0  0  0  0  0  0  0  0  0  0  0  0
    4.9643   -2.8889    0.1730 C   0  0  0  0  0  0  0  0  0  0  0  0
    3.0267    3.7038    1.8483 C   0  0  0  0  0  0  0  0  0  0  0  0
  1 16  1  0
  2 29  1  0
  3 12  2  0
  4  6  1  0
  4  7  1  0
  4 12  1  0
  5  8  1  0
  5  9  1  0
  5 13  1  0
  6  8  1  0
  7  9  1  0
 10 11  1  0
 10 12  1  0
 11 14  1  0
 11 15  1  0
 13 16  2  0
 13 17  1  0
 14 18  2  0
 14 19  1  0
 15 20  2  0
 15 21  1  0
 16 22  1  0
 17 23  2  0
 18 24  1  0
 19 25  2  0
 20 26  1  0
 21 27  2  0
 22 28  2  0
 23 28  1  0
 24 29  2  0
 25 29  1  0
 26 30  2  0
 27 30  1  0
M  END
>  <PUBCHEM_COMPOUND_CID>  (1) 
32828

>  <PUBCHEM_CONFORMER_RMSD>  (1) 
0.8

>  <PUBCHEM_CONFORMER_DIVERSEORDER>  (1) 
4
140
144
163
116
162
124
70
91
179
35
57
129
173
31
178
190
40
73
71
89
171
58
189
117
96
157
23
135
97
95
158
128
94
86
174
164
187
99
93
67
168
33
56
141
130
37
133
152
172
153
126
66
150
19
160
54
156
77
36
88
38
138
49
55
195
108
98
22
191
102
122
48
175
17
186
151
111
169
125
184
147
80
154
127
29
109
53
182
134
24
193
166
181
64
165
69
107
34
18
87
46
146
149
45
167
47
121
74
68
11
139
78
7
192
51
161
63
14
15
183
82
119
148
72
159
20
26
177
185
188
21
196
155
81
197
25
170
2
143
43
75
59
145
61
92
76
84
105
62
50
176
6
5
120
52
194
9
42
27
8
114
83
12
110
103
180
100
112
137
132
115
30
39
104
106
1
13
28
85
123
3
142
32
41
60
118
16
79
44
10
131
136
90
65
113
101

>  <PUBCHEM_MMFF94_PARTIAL_CHARGES>  (1) 
43
1 -0.18
10 0.06
11 0.29
12 0.57
13 0.1
14 -0.14
15 -0.14
16 0.18
17 -0.15
18 -0.15
19 -0.15
2 -0.18
20 -0.15
21 -0.15
22 -0.15
23 -0.15
24 -0.15
25 -0.15
26 -0.15
27 -0.15
28 -0.15
29 0.18
3 -0.57
30 -0.15
4 -0.66
42 0.15
43 0.15
44 0.15
45 0.15
46 0.15
47 0.15
48 0.15
49 0.15
5 -0.84
50 0.15
51 0.15
52 0.15
53 0.15
54 0.15
6 0.3
7 0.3
8 0.37
9 0.37

>  <PUBCHEM_EFFECTIVE_ROTOR_COUNT>  (1) 
7.2

>  <PUBCHEM_PHARMACOPHORE_FEATURES>  (1) 
6
1 3 acceptor
1 5 cation
6 13 16 17 22 23 28 rings
6 14 18 19 24 25 29 rings
6 15 20 21 26 27 30 rings
6 4 5 6 7 8 9 rings

>  <PUBCHEM_HEAVY_ATOM_COUNT>  (1) 
30

>  <PUBCHEM_ATOM_DEF_STEREO_COUNT>  (1) 
0

>  <PUBCHEM_ATOM_UDEF_STEREO_COUNT>  (1) 
1

>  <PUBCHEM_BOND_DEF_STEREO_COUNT>  (1) 
0

>  <PUBCHEM_BOND_UDEF_STEREO_COUNT>  (1) 
0

>  <PUBCHEM_ISOTOPIC_ATOM_COUNT>  (1) 
0

>  <PUBCHEM_COMPONENT_COUNT>  (1) 
1

>  <PUBCHEM_CACTVS_TAUTO_COUNT>  (1) 
1

>  <PUBCHEM_CONFORMER_ID>  (1) 
0000803C00000004

>  <PUBCHEM_MMFF94_ENERGY>  (1) 
103.9038

>  <PUBCHEM_FEATURE_SELFOVERLAP>  (1) 
30.448

>  <PUBCHEM_SHAPE_FINGERPRINT>  (1) 
117089 54 17900827041794991106
12128747 34 18263916649416094405
12342043 65 18260267417087734303
12422481 6 16414641445188615289
12549972 3 18118657981662995157
12616971 3 17775289374517507567
12633257 1 17918277558341959855
131258 43 18042141907250796364
13533116 47 18411701019409792371
13540713 4 18188751882356640540
13673619 4 18261960648247442702
13782708 43 18334012765917400167
14341114 328 16917078793344948429
14739800 52 16270784818496786856
14950920 106 18201729465934322779
15021287 119 17988918938395759799
15131766 46 17771894202791710521
15238133 3 15913334597476585866
15444296 121 17912934881008724136
15475509 35 18334863817865928050
15475509 84 18201160949155159752
19304144 158 9799397885524339827
19319366 153 17914048956886496712
1979834 28 18042968864048365489
21033648 29 18187638150877695229
21344244 78 17561357366503448506
21796203 349 18272654511530224230
21927370 108 18128255581072360378
21987483 16 18056476391078481755
22182313 1 17969479615628995629
23559900 14 17967814955504369367
239999 70 16298957591934597924
249057 25 16988554724235854151
3552219 110 18266476330292582396
437795 51 18410860997343397772
437815 12 18339078164462741950
5104073 3 18412266112699957969
563151 74 18059007427398716978
57816373 69 18342183271610728599
58260988 521 18188195607752867008
6086070 43 18199734865915966517
613672 6 17604417618092488173
6703917 75 17475793634098509816
6823239 73 17458061573167544265
7288768 16 16836257193437823544
86090 222 17894633685983868051
8863177 126 18334298673136921099
960060 61 13117995634933369893

>  <PUBCHEM_SHAPE_MULTIPOLES>  (1) 
605.29
15.7
4.16
2.31
17.74
1.1
0.03
-14.21
-5.54
-9.98
-2.1
2.17
0.7
2.11

>  <PUBCHEM_SHAPE_SELFOVERLAP>  (1) 
1288.66

>  <PUBCHEM_SHAPE_VOLUME>  (1) 
336.5

>  <PUBCHEM_COORDINATE_TYPE>  (1) 
2
5
10

$$$$
