32834
     RDKit          3D

  9  9  0  0  0  0  0  0  0  0999 V2000
    2.6993   -1.5312   -0.0001 Cl  0  0  0  0  0  0  0  0  0  0  0  0
   -2.6979   -1.5334   -0.0003 Cl  0  0  0  0  0  0  0  0  0  0  0  0
   -0.0006    1.4204    0.0001 C   0  0  0  0  0  0  0  0  0  0  0  0
   -1.2082    0.7224    0.0002 C   0  0  0  0  0  0  0  0  0  0  0  0
    1.2076    0.7235   -0.0001 C   0  0  0  0  0  0  0  0  0  0  0  0
   -0.0013    2.9119   -0.0002 C   0  0  0  0  0  0  0  0  0  0  0  0
    1.2083   -0.6715    0.0000 C   0  0  0  0  0  0  0  0  0  0  0  0
   -1.2077   -0.6725    0.0002 C   0  0  0  0  0  0  0  0  0  0  0  0
    0.0006   -1.3695    0.0001 C   0  0  0  0  0  0  0  0  0  0  0  0
  1  7  1  0
  2  8  1  0
  3  4  2  0
  3  5  1  0
  3  6  1  0
  4  8  1  0
  5  7  2  0
  7  9  1  0
  8  9  2  0
M  END
>  <PUBCHEM_COMPOUND_CID>  (1) 
32834

>  <PUBCHEM_CONFORMER_RMSD>  (1) 
0.4

>  <PUBCHEM_CONFORMER_DIVERSEORDER>  (1) 
1

>  <PUBCHEM_MMFF94_PARTIAL_CHARGES>  (1) 
12
1 -0.18
10 0.15
11 0.15
15 0.15
2 -0.18
3 -0.14
4 -0.15
5 -0.15
6 0.14
7 0.18
8 0.18
9 -0.15

>  <PUBCHEM_EFFECTIVE_ROTOR_COUNT>  (1) 
0

>  <PUBCHEM_PHARMACOPHORE_FEATURES>  (1) 
1
6 3 4 5 7 8 9 rings

>  <PUBCHEM_HEAVY_ATOM_COUNT>  (1) 
9

>  <PUBCHEM_ATOM_DEF_STEREO_COUNT>  (1) 
0

>  <PUBCHEM_ATOM_UDEF_STEREO_COUNT>  (1) 
0

>  <PUBCHEM_BOND_DEF_STEREO_COUNT>  (1) 
0

>  <PUBCHEM_BOND_UDEF_STEREO_COUNT>  (1) 
0

>  <PUBCHEM_ISOTOPIC_ATOM_COUNT>  (1) 
0

>  <PUBCHEM_COMPONENT_COUNT>  (1) 
1

>  <PUBCHEM_CACTVS_TAUTO_COUNT>  (1) 
1

>  <PUBCHEM_CONFORMER_ID>  (1) 
0000804200000001

>  <PUBCHEM_MMFF94_ENERGY>  (1) 
17.3521

>  <PUBCHEM_FEATURE_SELFOVERLAP>  (1) 
5.074

>  <PUBCHEM_SHAPE_FINGERPRINT>  (1) 
1 1 17762054745567691693
12716758 59 17693096262797974558
16945 1 18122343467381921638
18185500 45 18411140263720520023
193761 8 18410856563940551300
20871998 184 18129095624186349526
21040471 1 17474106497375392902
23552423 10 18260272910683390390
23552449 1 18339075965381041838
241688 4 18410575054598314744
2748010 2 18411973663464172604

>  <PUBCHEM_SHAPE_MULTIPOLES>  (1) 
188.96
2.99
2.74
0.63
0
2.04
0
-2.58
0
0
0
0
-0.01
0

>  <PUBCHEM_SHAPE_SELFOVERLAP>  (1) 
371.986

>  <PUBCHEM_SHAPE_VOLUME>  (1) 
111.6

>  <PUBCHEM_COORDINATE_TYPE>  (1) 
2
5
10

$$$$
