3283
     RDKit          3D

  5  4  0  0  0  0  0  0  0  0999 V2000
    0.0008   -0.2762    0.0000 O   0  0  0  0  0  0  0  0  0  0  0  0
    1.1747    0.5222    0.0000 C   0  0  0  0  0  0  0  0  0  0  0  0
   -1.1754    0.5226    0.0000 C   0  0  0  0  0  0  0  0  0  0  0  0
    2.3873   -0.3840    0.0000 C   0  0  0  0  0  0  0  0  0  0  0  0
   -2.3874   -0.3844    0.0000 C   0  0  0  0  0  0  0  0  0  0  0  0
  1  2  1  0
  1  3  1  0
  2  4  1  0
  3  5  1  0
M  END
>  <PUBCHEM_COMPOUND_CID>  (1) 
3283

>  <PUBCHEM_CONFORMER_RMSD>  (1) 
0.4

>  <PUBCHEM_CONFORMER_DIVERSEORDER>  (1) 
1
4
3
5
2

>  <PUBCHEM_MMFF94_PARTIAL_CHARGES>  (1) 
3
1 -0.56
2 0.28
3 0.28

>  <PUBCHEM_EFFECTIVE_ROTOR_COUNT>  (1) 
2

>  <PUBCHEM_PHARMACOPHORE_FEATURES>  (1) 
1
1 1 acceptor

>  <PUBCHEM_HEAVY_ATOM_COUNT>  (1) 
5

>  <PUBCHEM_ATOM_DEF_STEREO_COUNT>  (1) 
0

>  <PUBCHEM_ATOM_UDEF_STEREO_COUNT>  (1) 
0

>  <PUBCHEM_BOND_DEF_STEREO_COUNT>  (1) 
0

>  <PUBCHEM_BOND_UDEF_STEREO_COUNT>  (1) 
0

>  <PUBCHEM_ISOTOPIC_ATOM_COUNT>  (1) 
0

>  <PUBCHEM_COMPONENT_COUNT>  (1) 
1

>  <PUBCHEM_CACTVS_TAUTO_COUNT>  (1) 
1

>  <PUBCHEM_CONFORMER_ID>  (1) 
00000CD300000001

>  <PUBCHEM_MMFF94_ENERGY>  (1) 
1.6597

>  <PUBCHEM_FEATURE_SELFOVERLAP>  (1) 
5.074

>  <PUBCHEM_SHAPE_FINGERPRINT>  (1) 
139733 1 18410856563934769861
14390081 3 10809347753865978702
16714656 1 8358258150621479643
20096714 4 9151165459139035758
29004967 10 16917072156887344026
5460574 1 18410856555492534821

>  <PUBCHEM_SHAPE_MULTIPOLES>  (1) 
97.03
3.6
0.79
0.6
0
0.04
0
-0.67
0
0
0
0
0.01
0

>  <PUBCHEM_SHAPE_SELFOVERLAP>  (1) 
159.647

>  <PUBCHEM_SHAPE_VOLUME>  (1) 
68.1

>  <PUBCHEM_COORDINATE_TYPE>  (1) 
2
5
10

$$$$
