32844
     RDKit          3D

 23 25  0  0  0  0  0  0  0  0999 V2000
    7.8340   -0.3651   -0.3275 O   0  0  0  0  0  0  0  0  0  0  0  0
   -7.2314   -0.2116    1.3295 O   0  0  0  0  0  0  0  0  0  0  0  0
   -5.5197   -0.1292   -0.2391 N   0  0  0  0  0  0  0  0  0  0  0  0
    5.0648   -0.4793    0.3205 N   0  0  0  0  0  0  0  0  0  0  0  0
   -2.7562    0.6577   -0.6246 C   0  0  0  0  0  0  0  0  0  0  0  0
   -3.6143    1.2382    0.5154 C   0  0  0  0  0  0  0  0  0  0  0  0
   -3.2621   -0.7441   -1.0153 C   0  0  0  0  0  0  0  0  0  0  0  0
   -5.0972    1.2179    0.1488 C   0  0  0  0  0  0  0  0  0  0  0  0
   -4.7546   -0.7180   -1.3449 C   0  0  0  0  0  0  0  0  0  0  0  0
   -1.2787    0.6543   -0.2807 C   0  0  0  0  0  0  0  0  0  0  0  0
   -0.3862    1.4027   -1.0452 C   0  0  0  0  0  0  0  0  0  0  0  0
   -0.8190   -0.0969    0.7989 C   0  0  0  0  0  0  0  0  0  0  0  0
    3.6483   -0.4707   -0.0392 C   0  0  0  0  0  0  0  0  0  0  0  0
    2.8874    0.6457    0.6902 C   0  0  0  0  0  0  0  0  0  0  0  0
    1.4351    0.6488    0.3518 C   0  0  0  0  0  0  0  0  0  0  0  0
   -6.5897   -0.7373    0.4163 C   0  0  0  0  0  0  0  0  0  0  0  0
    5.7107    0.7808   -0.0723 C   0  0  0  0  0  0  0  0  0  0  0  0
    5.7552   -1.6155   -0.3056 C   0  0  0  0  0  0  0  0  0  0  0  0
    0.9723    1.3999   -0.7285 C   0  0  0  0  0  0  0  0  0  0  0  0
    0.5394   -0.0995    1.1156 C   0  0  0  0  0  0  0  0  0  0  0  0
    7.1897    0.7434    0.3015 C   0  0  0  0  0  0  0  0  0  0  0  0
    7.2328   -1.5965    0.0748 C   0  0  0  0  0  0  0  0  0  0  0  0
   -6.9606   -2.1256   -0.0402 C   0  0  0  0  0  0  0  0  0  0  0  0
  1 21  1  0
  1 22  1  0
  2 16  2  0
  3  8  1  0
  3  9  1  0
  3 16  1  0
  4 13  1  0
  4 17  1  0
  4 18  1  0
  5  6  1  0
  5  7  1  0
  5 10  1  0
  6  8  1  0
  7  9  1  0
 10 11  2  0
 10 12  1  0
 11 19  1  0
 12 20  2  0
 13 14  1  0
 14 15  1  0
 15 19  2  0
 15 20  1  0
 16 23  1  0
 17 21  1  0
 18 22  1  0
M  END
>  <PUBCHEM_COMPOUND_CID>  (1) 
32844

>  <PUBCHEM_CONFORMER_RMSD>  (1) 
0.8

>  <PUBCHEM_CONFORMER_DIVERSEORDER>  (1) 
1
72
81
89
73
44
46
4
9
18
61
21
7
43
32
35
34
77
13
88
27
76
31
57
6
65
39
45
38
2
62
51
93
29
25
5
87
17
68
59
63
80
49
69
92
8
67
23
64
52
28
37
36
78
14
58
91
26
19
16
56
24
20
11
30
83
60
86
79
70
54
66
41
71
85
47
42
10
82
90
74
75
33
50
84
3
12
48
55
40
22
53
15

>  <PUBCHEM_MMFF94_PARTIAL_CHARGES>  (1) 
25
1 -0.56
10 -0.14
11 -0.15
12 -0.15
13 0.27
14 0.14
15 -0.14
16 0.57
17 0.27
18 0.27
19 -0.15
2 -0.57
20 -0.15
21 0.28
22 0.28
23 0.06
3 -0.66
35 0.15
36 0.15
4 -0.81
43 0.15
44 0.15
5 0.14
8 0.3
9 0.3

>  <PUBCHEM_EFFECTIVE_ROTOR_COUNT>  (1) 
7.4

>  <PUBCHEM_PHARMACOPHORE_FEATURES>  (1) 
6
1 1 acceptor
1 2 acceptor
1 4 cation
6 1 4 17 18 21 22 rings
6 10 11 12 15 19 20 rings
6 3 5 6 7 8 9 rings

>  <PUBCHEM_HEAVY_ATOM_COUNT>  (1) 
23

>  <PUBCHEM_ATOM_DEF_STEREO_COUNT>  (1) 
0

>  <PUBCHEM_ATOM_UDEF_STEREO_COUNT>  (1) 
0

>  <PUBCHEM_BOND_DEF_STEREO_COUNT>  (1) 
0

>  <PUBCHEM_BOND_UDEF_STEREO_COUNT>  (1) 
0

>  <PUBCHEM_ISOTOPIC_ATOM_COUNT>  (1) 
0

>  <PUBCHEM_COMPONENT_COUNT>  (1) 
1

>  <PUBCHEM_CACTVS_TAUTO_COUNT>  (1) 
1

>  <PUBCHEM_CONFORMER_ID>  (1) 
0000804C00000001

>  <PUBCHEM_MMFF94_ENERGY>  (1) 
48.8454

>  <PUBCHEM_FEATURE_SELFOVERLAP>  (1) 
30.447

>  <PUBCHEM_SHAPE_FINGERPRINT>  (1) 
10 15 15267340747081003915
10066227 49 18041555824757414986
10299344 5 18272933825684236582
11089746 13 9439403528036201691
11315181 36 18412826885300080401
11524674 6 16128650868685525895
11991303 11 15068634811181751274
12166972 35 18410013264355518489
12236239 1 18409731772731266093
125118 31 10447926187768688570
12516196 113 18409446986287316928
12616971 3 15554437535234634529
13288520 33 18410291411370202445
13533116 47 18410575132552083492
13668630 136 17822010921641806915
13685833 64 18411419509915022726
13862211 1 17676201351687589856
13885169 127 18336264553378855549
13914758 101 9511468818196542630
13968360 50 14056992811392504744
14123256 10 15357696392533228019
14178184 131 18129099107901576015
14251764 18 17989487437209121900
14251764 46 18410573985151451137
14350574 20 17967811660948117509
14729087 3 10375874069634338027
14849402 71 18058448866945044632
15183329 4 18342729702686743526
15348495 7 15123210187496803294
15352257 5 18342457053826037278
15461852 350 12757156783622096011
15716309 27 18273214196585229295
15849732 13 18259703406272077319
17093844 174 12391507590661992397
18335252 98 18409730664940628250
21150785 3 16442783531274630218
21267235 1 18186804699478091729
21304253 13 11815891267130657202
21344244 181 18340493279563684650
21403212 168 11167944641471620212
21521721 280 18271805761430362242
220451 1 17203323420983765628
22224240 67 12463568478338742108
23035841 295 18272368672106695726
23081809 10 15936680476393122520
23516275 137 17773618069235788206
23522609 53 18127719151434891601
23536379 177 18272931601028502736
23559900 14 18129931407573651888
23569943 247 17972314015262463050
23576562 1 15285935730843674703
246663 6 17821452365687771587
2838139 119 11530482224709305319
33532 11 18410854348238541050
34797466 226 18186804691104584708
4073 2 18337107981892276010
4325135 7 18413388740115520964
465052 167 18131913754614509284
5104073 3 14619970201006685558
5385378 56 13614253563351983420
999808 66 18334019410711751403

>  <PUBCHEM_SHAPE_MULTIPOLES>  (1) 
451.63
23.05
1.59
1.03
12.88
0.4
0.03
10.02
-1.62
-0.34
0.17
-0.96
-0.03
-0.02

>  <PUBCHEM_SHAPE_SELFOVERLAP>  (1) 
933.907

>  <PUBCHEM_SHAPE_VOLUME>  (1) 
256.5

>  <PUBCHEM_COORDINATE_TYPE>  (1) 
2
5
10

$$$$
