32841
     RDKit          3D

 14 14  0  0  0  0  0  0  0  0999 V2000
    5.4530    0.1610    0.2085 Cl  0  0  0  0  0  0  0  0  0  0  0  0
   -5.2019   -1.2864    0.8842 Cl  0  0  0  0  0  0  0  0  0  0  0  0
   -2.6207   -0.1160   -0.2631 O   0  0  0  0  0  0  0  0  0  0  0  0
   -1.2399    1.6691    0.1072 O   0  0  0  0  0  0  0  0  0  0  0  0
   -0.4010   -0.4980   -0.2098 N   0  0  0  0  0  0  0  0  0  0  0  0
    0.9820   -0.3424   -0.1111 C   0  0  0  0  0  0  0  0  0  0  0  0
    1.8200   -1.4485   -0.2510 C   0  0  0  0  0  0  0  0  0  0  0  0
    1.5265    0.9194    0.1277 C   0  0  0  0  0  0  0  0  0  0  0  0
   -3.7530    0.7571   -0.1766 C   0  0  0  0  0  0  0  0  0  0  0  0
    3.2027   -1.2929   -0.1521 C   0  0  0  0  0  0  0  0  0  0  0  0
    2.9091    1.0751    0.2265 C   0  0  0  0  0  0  0  0  0  0  0  0
    3.7472   -0.0311    0.0867 C   0  0  0  0  0  0  0  0  0  0  0  0
   -1.3945    0.4720   -0.1008 C   0  0  0  0  0  0  0  0  0  0  0  0
   -5.0297   -0.0386   -0.3763 C   0  0  0  0  0  0  0  0  0  0  0  0
  1 12  1  0
  2 14  1  0
  3  9  1  0
  3 13  1  0
  4 13  2  0
  5  6  1  0
  5 13  1  0
  6  7  2  0
  6  8  1  0
  7 10  1  0
  8 11  2  0
  9 14  1  0
 10 12  2  0
 11 12  1  0
M  END
>  <PUBCHEM_COMPOUND_CID>  (1) 
32841

>  <PUBCHEM_CONFORMER_RMSD>  (1) 
0.6

>  <PUBCHEM_CONFORMER_DIVERSEORDER>  (1) 
1
35
23
31
32
28
20
11
41
10
36
34
12
25
44
16
40
27
5
29
22
33
9
37
13
18
24
38
21
8
43
3
30
14
7
26
39
42
15
4
19
6
17
2

>  <PUBCHEM_MMFF94_PARTIAL_CHARGES>  (1) 
19
1 -0.18
10 -0.15
11 -0.15
12 0.18
13 0.78
14 0.29
15 0.15
16 0.15
17 0.37
2 -0.29
20 0.15
21 0.15
3 -0.43
4 -0.57
5 -0.55
6 0.12
7 -0.15
8 -0.15
9 0.28

>  <PUBCHEM_EFFECTIVE_ROTOR_COUNT>  (1) 
5

>  <PUBCHEM_PHARMACOPHORE_FEATURES>  (1) 
3
1 4 acceptor
1 5 donor
6 6 7 8 10 11 12 rings

>  <PUBCHEM_HEAVY_ATOM_COUNT>  (1) 
14

>  <PUBCHEM_ATOM_DEF_STEREO_COUNT>  (1) 
0

>  <PUBCHEM_ATOM_UDEF_STEREO_COUNT>  (1) 
0

>  <PUBCHEM_BOND_DEF_STEREO_COUNT>  (1) 
0

>  <PUBCHEM_BOND_UDEF_STEREO_COUNT>  (1) 
0

>  <PUBCHEM_ISOTOPIC_ATOM_COUNT>  (1) 
0

>  <PUBCHEM_COMPONENT_COUNT>  (1) 
1

>  <PUBCHEM_CACTVS_TAUTO_COUNT>  (1) 
2

>  <PUBCHEM_CONFORMER_ID>  (1) 
0000804900000001

>  <PUBCHEM_MMFF94_ENERGY>  (1) 
28.7808

>  <PUBCHEM_FEATURE_SELFOVERLAP>  (1) 
15.223

>  <PUBCHEM_SHAPE_FINGERPRINT>  (1) 
11287383 113 18186522128493468800
11471102 20 18341609300580450908
12032990 46 18408889529586082469
14123238 8 18410854356326847983
1420 363 18410298012049225011
14251718 22 17821450178963822742
14252887 29 17846506906562957734
15048467 5 12535341320898906490
15196674 1 18341049601674802884
17834072 33 17894918467958353580
17834076 25 12829488142917256045
18522853 276 18272647931233859056
200 152 18202560666222137545
20279233 1 17968103009769759707
20645477 70 18270961228604308662
21079973 296 18041284348231823819
21267235 1 18341901779279263134
22485316 2 18260546702190273379
23402539 116 14779260913051566031
23402655 69 18272081648037676069
23557571 272 17749101163327478541
26918003 58 18334293167420695153
33824 294 18409728431035856178
3545911 37 18342175574833375494
4047638 21 16845568743101987906
42788 4 18410572881598161148
474229 33 18409167727017904355
5104073 3 18269553849309172330
77779 3 18411700959232757917

>  <PUBCHEM_SHAPE_MULTIPOLES>  (1) 
275.13
11.72
1.4
0.7
6.99
0.09
0.06
1.78
1.33
0.06
0.07
0.3
0.08
0.67

>  <PUBCHEM_SHAPE_SELFOVERLAP>  (1) 
542.163

>  <PUBCHEM_SHAPE_VOLUME>  (1) 
165.8

>  <PUBCHEM_COORDINATE_TYPE>  (1) 
2
5
10

$$$$
