32846
     RDKit          3D

 25 27  0  0  0  0  0  0  0  0999 V2000
   -0.5680    2.0324    1.7931 O   0  0  0  0  0  0  0  0  0  0  0  0
   -6.3108   -1.8541   -0.3097 O   0  0  0  0  0  0  0  0  0  0  0  0
    2.6582   -0.2330   -0.0462 N   0  0  0  0  0  0  0  0  0  0  0  0
   -3.5355   -1.4246    0.1541 N   0  0  0  0  0  0  0  0  0  0  0  0
   -0.2313    0.4555    0.0317 C   0  0  0  0  0  0  0  0  0  0  0  0
    0.5011   -0.3326    1.1357 C   0  0  0  0  0  0  0  0  0  0  0  0
    0.7155    0.8224   -1.1266 C   0  0  0  0  0  0  0  0  0  0  0  0
   -1.4306   -0.3575   -0.4734 C   0  0  0  0  0  0  0  0  0  0  0  0
    1.9848    0.0331    1.2282 C   0  0  0  0  0  0  0  0  0  0  0  0
    1.8687   -0.1709   -1.2791 C   0  0  0  0  0  0  0  0  0  0  0  0
   -0.7654    1.7408    0.6146 C   0  0  0  0  0  0  0  0  0  0  0  0
   -2.4126   -0.6353    0.6557 C   0  0  0  0  0  0  0  0  0  0  0  0
   -1.5477    2.6309   -0.3351 C   0  0  0  0  0  0  0  0  0  0  0  0
    4.0151   -0.5467   -0.0820 C   0  0  0  0  0  0  0  0  0  0  0  0
   -4.2622   -0.6918   -0.8921 C   0  0  0  0  0  0  0  0  0  0  0  0
   -4.4510   -1.7825    1.2464 C   0  0  0  0  0  0  0  0  0  0  0  0
   -1.3982    4.1131   -0.0047 C   0  0  0  0  0  0  0  0  0  0  0  0
   -5.4364   -1.5294   -1.3911 C   0  0  0  0  0  0  0  0  0  0  0  0
   -5.6198   -2.5951    0.6967 C   0  0  0  0  0  0  0  0  0  0  0  0
    4.5449   -1.3867   -1.0857 C   0  0  0  0  0  0  0  0  0  0  0  0
    4.9087   -0.0361    0.8844 C   0  0  0  0  0  0  0  0  0  0  0  0
   -2.1628    4.9833   -0.9885 C   0  0  0  0  0  0  0  0  0  0  0  0
    5.9034   -1.7012   -1.1211 C   0  0  0  0  0  0  0  0  0  0  0  0
    6.2673   -0.3506    0.8489 C   0  0  0  0  0  0  0  0  0  0  0  0
    6.7645   -1.1832   -0.1539 C   0  0  0  0  0  0  0  0  0  0  0  0
  1 11  2  0
  2 18  1  0
  2 19  1  0
  3  9  1  0
  3 10  1  0
  3 14  1  0
  4 12  1  0
  4 15  1  0
  4 16  1  0
  5  6  1  0
  5  7  1  0
  5  8  1  0
  5 11  1  0
  6  9  1  0
  7 10  1  0
  8 12  1  0
 11 13  1  0
 13 17  1  0
 14 20  2  0
 14 21  1  0
 15 18  1  0
 16 19  1  0
 17 22  1  0
 20 23  1  0
 21 24  2  0
 23 25  2  0
 24 25  1  0
M  END
>  <PUBCHEM_COMPOUND_CID>  (1) 
32846

>  <PUBCHEM_CONFORMER_RMSD>  (1) 
1

>  <PUBCHEM_CONFORMER_DIVERSEORDER>  (1) 
1
18
37
44
16
34
41
19
26
45
8
61
30
69
58
42
11
36
47
68
32
48
50
35
17
14
67
70
5
57
46
59
31
55
40
27
63
29
2
33
12
28
21
25
60
24
43
66
56
6
52
20
10
62
15
64
13
4
65
53
9
54
7
22
49
3
39
38
23
51

>  <PUBCHEM_MMFF94_PARTIAL_CHARGES>  (1) 
25
1 -0.57
10 0.37
11 0.45
12 0.27
13 0.06
14 0.1
15 0.27
16 0.27
18 0.28
19 0.28
2 -0.56
20 -0.15
21 -0.15
23 -0.15
24 -0.15
25 -0.15
3 -0.84
4 -0.81
5 0.06
50 0.15
51 0.15
55 0.15
56 0.15
57 0.15
9 0.37

>  <PUBCHEM_EFFECTIVE_ROTOR_COUNT>  (1) 
9.4

>  <PUBCHEM_PHARMACOPHORE_FEATURES>  (1) 
8
1 1 acceptor
1 2 acceptor
1 22 hydrophobe
1 3 cation
1 4 cation
6 14 20 21 23 24 25 rings
6 2 4 15 16 18 19 rings
6 3 5 6 7 9 10 rings

>  <PUBCHEM_HEAVY_ATOM_COUNT>  (1) 
25

>  <PUBCHEM_ATOM_DEF_STEREO_COUNT>  (1) 
0

>  <PUBCHEM_ATOM_UDEF_STEREO_COUNT>  (1) 
0

>  <PUBCHEM_BOND_DEF_STEREO_COUNT>  (1) 
0

>  <PUBCHEM_BOND_UDEF_STEREO_COUNT>  (1) 
0

>  <PUBCHEM_ISOTOPIC_ATOM_COUNT>  (1) 
0

>  <PUBCHEM_COMPONENT_COUNT>  (1) 
1

>  <PUBCHEM_CACTVS_TAUTO_COUNT>  (1) 
2

>  <PUBCHEM_CONFORMER_ID>  (1) 
0000804E00000001

>  <PUBCHEM_MMFF94_ENERGY>  (1) 
71.3413

>  <PUBCHEM_FEATURE_SELFOVERLAP>  (1) 
40.596

>  <PUBCHEM_SHAPE_FINGERPRINT>  (1) 
11101153 10 18334868255327086220
11135609 99 16055455366671786663
11445158 3 16988553654330893080
11809386 21 18264203617597804834
12166972 35 17676490596038430791
12516196 113 18337669819027174187
12633257 1 15984823769810005463
12760667 363 18343023289466200791
12788726 201 18187919547864552075
13540713 4 18129924712258097616
13540713 5 17606950703614205506
13583140 156 17916297248196327068
13673619 4 17988647402189331714
13685833 64 18342178907612524331
13782708 43 18200880561548986486
13899415 180 18340759455686538813
14068700 675 18186801400336625188
14508225 48 18408881850037501117
14556957 393 18115043955798863268
15183329 4 16153420657988586455
15188451 53 18334288756869545026
15198563 99 18336543828931729221
15219462 58 17977625837545096152
16087824 20 18264487283952712037
17492 89 17916031145013901894
17539 30 18338233765608453541
1813 80 18200609084701642213
18365409 1 18192143794942038077
19301676 85 16614777622531664823
19427546 20 18262238807103374836
20600515 1 18198923550656324783
21304303 282 17973147445186904789
2132832 1 18186811283241535796
21424621 283 7925644322700259063
21426921 1 18336830775559260200
21639891 77 18272363123104564752
21703447 108 18410002269861278424
22182313 1 17773287133483547800
23175994 123 18335983172901539663
23402539 116 18409451370900007658
23559900 14 18041840752069419456
23845131 108 16766791809546580009
23929065 36 18264471932541870296
24771750 20 17105666142440755901
255183 313 18052840069590840217
283562 15 18335983077763594987
2838139 119 13479125800443609838
3004659 81 17822292426615015822
3009799 131 17385438856271052206
314173 85 18412266155348703507
437815 12 18336823187000615703
4409770 3 18263361392102644781
465052 167 17703794760076038934
5104073 3 17631451169035915970
513202 73 18271807874043010847
5969126 39 18412820278938655365
59755656 520 17975129842691651565
77188 2 18337394962780157309

>  <PUBCHEM_SHAPE_MULTIPOLES>  (1) 
492.79
15.18
3.93
1.39
10.05
7.12
0.05
-15.4
-1.53
-6.87
-0.65
-0.01
-0.09
1.18

>  <PUBCHEM_SHAPE_SELFOVERLAP>  (1) 
1018.028

>  <PUBCHEM_SHAPE_VOLUME>  (1) 
280.4

>  <PUBCHEM_COORDINATE_TYPE>  (1) 
2
5
10

$$$$
