32851
     RDKit          3D

 10  9  0  0  1  0  0  0  0  0999 V2000
    2.6024   -0.8352    0.1454 O   0  0  0  0  0  0  0  0  0  0  0  0
   -2.6015   -0.8227   -0.1823 O   0  0  0  0  0  0  0  0  0  0  0  0
    0.5036    0.1432   -0.5726 C   0  0  0  0  0  0  0  0  0  0  0  0
   -0.5104    0.1178    0.5961 C   0  0  0  0  0  0  0  0  0  0  0  0
    0.3528   -1.0087   -1.5635 C   0  0  0  0  0  0  0  0  0  0  0  0
   -0.3702   -1.0736    1.5451 C   0  0  0  0  0  0  0  0  0  0  0  0
    1.9434    0.1844   -0.0581 C   0  0  0  0  0  0  0  0  0  0  0  0
   -1.9346    0.1868    0.0445 C   0  0  0  0  0  0  0  0  0  0  0  0
    2.5230    1.5461    0.2338 C   0  0  0  0  0  0  0  0  0  0  0  0
   -2.5084    1.5619   -0.1884 C   0  0  0  0  0  0  0  0  0  0  0  0
  1  7  2  0
  2  8  2  0
  3  4  1  0
  3  5  1  0
  3  7  1  0
  4  6  1  0
  4  8  1  0
  7  9  1  0
  8 10  1  0
M  END
>  <PUBCHEM_COMPOUND_CID>  (1) 
32851

>  <PUBCHEM_CONFORMER_RMSD>  (1) 
0.6

>  <PUBCHEM_CONFORMER_DIVERSEORDER>  (1) 
16
49
25
19
17
45
31
23
14
37
34
18
10
28
13
8
20
1
2
42
26
35
46
47
21
9
32
29
11
27
24
40
43
33
44
7
38
6
30
48
50
36
15
3
4
22
5
39
12
41

>  <PUBCHEM_MMFF94_PARTIAL_CHARGES>  (1) 
8
1 -0.57
10 0.06
2 -0.57
3 0.06
4 0.06
7 0.45
8 0.45
9 0.06

>  <PUBCHEM_EFFECTIVE_ROTOR_COUNT>  (1) 
3

>  <PUBCHEM_PHARMACOPHORE_FEATURES>  (1) 
4
1 1 acceptor
1 2 acceptor
1 5 hydrophobe
1 6 hydrophobe

>  <PUBCHEM_HEAVY_ATOM_COUNT>  (1) 
10

>  <PUBCHEM_ATOM_DEF_STEREO_COUNT>  (1) 
0

>  <PUBCHEM_ATOM_UDEF_STEREO_COUNT>  (1) 
2

>  <PUBCHEM_BOND_DEF_STEREO_COUNT>  (1) 
0

>  <PUBCHEM_BOND_UDEF_STEREO_COUNT>  (1) 
0

>  <PUBCHEM_ISOTOPIC_ATOM_COUNT>  (1) 
0

>  <PUBCHEM_COMPONENT_COUNT>  (1) 
1

>  <PUBCHEM_CACTVS_TAUTO_COUNT>  (1) 
6

>  <PUBCHEM_CONFORMER_ID>  (1) 
0000805300000010

>  <PUBCHEM_MMFF94_ENERGY>  (1) 
15.306

>  <PUBCHEM_FEATURE_SELFOVERLAP>  (1) 
20.297

>  <PUBCHEM_SHAPE_FINGERPRINT>  (1) 
12897270 3 17847064367579965941
12932764 1 18411149029732790980
14325111 11 18410291419258523432
14390081 3 18408884044464835881
15310529 11 18271239520888361573
15775835 57 17969507013346825285
16945 1 18411414037810241487
19973954 147 18410858762963813352
20653085 51 18342188725733260961
21040471 1 17458637704254290699
23211744 41 18409733958441949081
23235685 24 16443638891154535529
23235687 12 18202009802280319845
29004967 10 17346605153286169531
369184 2 18408888451180058641
5084963 1 18335139790915412972

>  <PUBCHEM_SHAPE_MULTIPOLES>  (1) 
194.06
3.85
1.45
1.2
0.04
0.39
-0.02
1.21
0.01
-0.02
0.03
0
-0.52
0.25

>  <PUBCHEM_SHAPE_SELFOVERLAP>  (1) 
364.113

>  <PUBCHEM_SHAPE_VOLUME>  (1) 
121.5

>  <PUBCHEM_COORDINATE_TYPE>  (1) 
2
5
10

$$$$
