32867
     RDKit          3D

 18 20  0  0  1  0  0  0  0  0999 V2000
   -3.8358    0.6559   -0.0027 N   0  0  0  0  0  0  0  0  0  0  0  0
   -2.4490    1.1749    0.1454 C   0  0  0  0  0  0  0  0  0  0  0  0
   -1.3532    0.1168   -0.0082 C   0  0  0  0  0  0  0  0  0  0  0  0
   -3.9882   -0.6948    0.5511 C   0  0  0  0  0  0  0  0  0  0  0  0
   -3.1114   -1.6713   -0.2260 C   0  0  0  0  0  0  0  0  0  0  0  0
   -1.6740   -1.2401   -0.1870 C   0  0  0  0  0  0  0  0  0  0  0  0
   -2.2413    2.2891   -0.8984 C   0  0  0  0  0  0  0  0  0  0  0  0
    0.0026    0.4775    0.0807 C   0  0  0  0  0  0  0  0  0  0  0  0
   -0.6560   -2.1912   -0.3472 C   0  0  0  0  0  0  0  0  0  0  0  0
   -4.8189    1.5466    0.6259 C   0  0  0  0  0  0  0  0  0  0  0  0
    1.0112   -0.4767   -0.0628 C   0  0  0  0  0  0  0  0  0  0  0  0
    0.6820   -1.8093   -0.2863 C   0  0  0  0  0  0  0  0  0  0  0  0
    2.3998   -0.0793    0.0215 C   0  0  0  0  0  0  0  0  0  0  0  0
    3.0531   -0.0836    1.2539 C   0  0  0  0  0  0  0  0  0  0  0  0
    3.0854    0.3081   -1.1299 C   0  0  0  0  0  0  0  0  0  0  0  0
    4.3919    0.2995    1.3350 C   0  0  0  0  0  0  0  0  0  0  0  0
    4.4242    0.6911   -1.0488 C   0  0  0  0  0  0  0  0  0  0  0  0
    5.0775    0.6867    0.1837 C   0  0  0  0  0  0  0  0  0  0  0  0
  1  2  1  0
  1  4  1  0
  1 10  1  0
  2  3  1  0
  2  7  1  0
  3  6  2  0
  3  8  1  0
  4  5  1  0
  5  6  1  0
  6  9  1  0
  8 11  2  0
  9 12  2  0
 11 12  1  0
 11 13  1  0
 13 14  2  0
 13 15  1  0
 14 16  1  0
 15 17  2  0
 16 18  2  0
 17 18  1  0
M  END
>  <PUBCHEM_COMPOUND_CID>  (1) 
32867

>  <PUBCHEM_CONFORMER_RMSD>  (1) 
0.6

>  <PUBCHEM_CONFORMER_DIVERSEORDER>  (1) 
1
2
4
3

>  <PUBCHEM_MMFF94_PARTIAL_CHARGES>  (1) 
23
1 -0.81
10 0.27
12 -0.15
14 -0.15
15 -0.15
16 -0.15
17 -0.15
18 -0.15
2 0.41
27 0.15
28 0.15
3 -0.14
32 0.15
33 0.15
34 0.15
35 0.15
36 0.15
37 0.15
4 0.27
5 0.14
6 -0.14
8 -0.15
9 -0.15

>  <PUBCHEM_EFFECTIVE_ROTOR_COUNT>  (1) 
1.8

>  <PUBCHEM_PHARMACOPHORE_FEATURES>  (1) 
4
1 1 cation
6 1 2 3 4 5 6 rings
6 13 14 15 16 17 18 rings
6 3 6 8 9 11 12 rings

>  <PUBCHEM_HEAVY_ATOM_COUNT>  (1) 
18

>  <PUBCHEM_ATOM_DEF_STEREO_COUNT>  (1) 
0

>  <PUBCHEM_ATOM_UDEF_STEREO_COUNT>  (1) 
1

>  <PUBCHEM_BOND_DEF_STEREO_COUNT>  (1) 
0

>  <PUBCHEM_BOND_UDEF_STEREO_COUNT>  (1) 
0

>  <PUBCHEM_ISOTOPIC_ATOM_COUNT>  (1) 
0

>  <PUBCHEM_COMPONENT_COUNT>  (1) 
1

>  <PUBCHEM_CACTVS_TAUTO_COUNT>  (1) 
1

>  <PUBCHEM_CONFORMER_ID>  (1) 
0000806300000001

>  <PUBCHEM_MMFF94_ENERGY>  (1) 
55.142

>  <PUBCHEM_FEATURE_SELFOVERLAP>  (1) 
20.319

>  <PUBCHEM_SHAPE_FINGERPRINT>  (1) 
10411042 1 17691687109693180407
10498660 4 18413389817329840328
10646746 165 18343299275795999424
11132069 177 18412829083837623367
12107183 9 17246936451674684408
12173636 292 18340765940633481597
12236239 1 17967532398343573388
12390115 104 18130241367221784489
12403259 118 17967529060521540597
12403259 415 18339362937910779260
12403814 3 17967248689746739141
12596602 18 17095244747740758408
12670546 56 17895183433402511960
12969540 114 17346308280983688717
13140716 1 18122908895821870259
13214271 11 18409731772825977855
13583140 156 16660636337217641325
14341114 328 17748832912096032105
15042514 8 18265899253243204163
15196674 1 18412829053762673071
15375358 24 17704353294807912670
16945 1 18339074994702901159
1813 80 17023738997852174794
18186145 218 17489872643777700746
19050596 39 17967813855502273984
19784866 170 18336273362150622659
19862831 5 12535627176293800748
200 152 15140954084581078755
20510252 161 18343585144060075928
20645477 56 18343301491930571764
20645477 70 16200164183641636342
23366157 5 18042689386384824626
23402539 116 18341043098904309126
23557571 272 18130239245217789967
23559900 14 18130795542841622814
2748010 2 18267592299428369815
2916195 48 17846207899883270416
3268164 11 18201708600408088399
34934 24 18335698296352850641
350125 39 18195252113690494518
4028521 119 17775568632446879995
474 4 16952541444902641260
4921388 177 15769483331062302509
495365 180 17131543960723289646
4990 188 17418380181494239654
5104073 3 18411985719548682203
573450 72 18334284392681450162
633830 44 17418372480507296344
7064713 232 18409733928356676893
7097593 13 17678439884368592042
7364860 26 18056479448182346238
77492 1 17822284734665873870
7808743 9 18339360902666109864
9862522 239 18189320308487945885

>  <PUBCHEM_SHAPE_MULTIPOLES>  (1) 
365.45
10
1.95
1.04
3.9
0.23
-0.08
-3.86
-1.55
-2.15
0.37
0.92
-0.18
-0.17

>  <PUBCHEM_SHAPE_SELFOVERLAP>  (1) 
791.201

>  <PUBCHEM_SHAPE_VOLUME>  (1) 
200.7

>  <PUBCHEM_COORDINATE_TYPE>  (1) 
2
5
10

$$$$
