32878
     RDKit          3D

 12 12  0  0  0  0  0  0  0  0999 V2000
    1.7611   -0.0968   -0.0709 S   0  0  0  0  0  0  0  0  0  0  0  0
    2.1689    0.8255    1.2167 O   0  0  0  0  0  0  0  0  0  0  0  0
    2.2116    0.5803   -1.2803 O   0  0  0  0  0  0  0  0  0  0  0  0
    2.1215   -1.4809    0.2050 O   0  0  0  0  0  0  0  0  0  0  0  0
    0.0084   -0.0227   -0.0322 C   0  0  0  0  0  0  0  0  0  0  0  0
   -0.6370    1.2138   -0.0149 C   0  0  0  0  0  0  0  0  0  0  0  0
   -0.7396   -1.2000   -0.0187 C   0  0  0  0  0  0  0  0  0  0  0  0
   -2.0302    1.2730    0.0161 C   0  0  0  0  0  0  0  0  0  0  0  0
   -2.1329   -1.1409    0.0120 C   0  0  0  0  0  0  0  0  0  0  0  0
   -2.7783    0.0956    0.0294 C   0  0  0  0  0  0  0  0  0  0  0  0
    0.1308    2.4955   -0.0273 C   0  0  0  0  0  0  0  0  0  0  0  0
   -0.0843   -2.5425   -0.0349 C   0  0  0  0  0  0  0  0  0  0  0  0
  1  2  1  0
  1  3  2  0
  1  4  2  0
  1  5  1  0
  5  6  2  0
  5  7  1  0
  6  8  1  0
  6 11  1  0
  7  9  2  0
  7 12  1  0
  8 10  2  0
  9 10  1  0
M  END
>  <PUBCHEM_COMPOUND_CID>  (1) 
32878

>  <PUBCHEM_CONFORMER_RMSD>  (1) 
0.4

>  <PUBCHEM_CONFORMER_DIVERSEORDER>  (1) 
1

>  <PUBCHEM_MMFF94_PARTIAL_CHARGES>  (1) 
16
1 1.49
10 -0.15
11 0.14
12 0.14
13 0.15
14 0.15
2 -0.68
21 0.15
22 0.5
3 -0.65
4 -0.65
5 -0.01
6 -0.14
7 -0.14
8 -0.15
9 -0.15

>  <PUBCHEM_EFFECTIVE_ROTOR_COUNT>  (1) 
1

>  <PUBCHEM_PHARMACOPHORE_FEATURES>  (1) 
5
1 2 acceptor
1 3 acceptor
1 4 acceptor
4 1 2 3 4 anion
6 5 6 7 8 9 10 rings

>  <PUBCHEM_HEAVY_ATOM_COUNT>  (1) 
12

>  <PUBCHEM_ATOM_DEF_STEREO_COUNT>  (1) 
0

>  <PUBCHEM_ATOM_UDEF_STEREO_COUNT>  (1) 
0

>  <PUBCHEM_BOND_DEF_STEREO_COUNT>  (1) 
0

>  <PUBCHEM_BOND_UDEF_STEREO_COUNT>  (1) 
0

>  <PUBCHEM_ISOTOPIC_ATOM_COUNT>  (1) 
0

>  <PUBCHEM_COMPONENT_COUNT>  (1) 
1

>  <PUBCHEM_CACTVS_TAUTO_COUNT>  (1) 
1

>  <PUBCHEM_CONFORMER_ID>  (1) 
0000806E00000001

>  <PUBCHEM_MMFF94_ENERGY>  (1) 
33.8376

>  <PUBCHEM_FEATURE_SELFOVERLAP>  (1) 
25.424

>  <PUBCHEM_SHAPE_FINGERPRINT>  (1) 
12423570 1 8019482280522996777
12524768 44 18273218611769522191
15775835 57 18341899532610375800
16945 1 18265897045687126855
193761 8 17690280830041065783
21040471 1 18410575093258431198
22802520 49 18128284253482607894
2334 1 18410573993931465199
23463225 33 18262801748466529963
23552423 10 18188777132437393231
23559900 14 18271536338664653756
241688 4 18338800000789285041
2748010 2 18411135818603377111
369184 2 18201993322437992675
5084963 1 18041843878826631906
5255222 1 17979635628346118217
528886 8 18410293588454176971
66348 1 18411138047601661427

>  <PUBCHEM_SHAPE_MULTIPOLES>  (1) 
233.2
3.33
2.44
0.8
0.06
0.18
-0.02
-0.03
0.04
0.05
0.02
-0.43
-0.13
-0.01

>  <PUBCHEM_SHAPE_SELFOVERLAP>  (1) 
475.373

>  <PUBCHEM_SHAPE_VOLUME>  (1) 
136.3

>  <PUBCHEM_COORDINATE_TYPE>  (1) 
2
5
10

$$$$
