32888
     RDKit          3D

 24 27  0  0  1  0  0  0  0  0999 V2000
    5.0385   -0.8682    0.8204 O   0  0  0  0  0  0  0  0  0  0  0  0
    5.7972    1.0477   -0.3029 O   0  0  0  0  0  0  0  0  0  0  0  0
   -1.9329   -2.0206    0.3661 O   0  0  0  0  0  0  0  0  0  0  0  0
    1.8168   -0.2499   -0.6168 N   0  0  0  0  0  0  0  0  0  0  0  0
   -4.2977    1.8644   -0.0153 N   0  0  0  0  0  0  0  0  0  0  0  0
    4.6600    0.2050   -0.0601 C   0  0  0  0  0  0  0  0  0  0  0  0
    3.5517    1.0371    0.5877 C   0  0  0  0  0  0  0  0  0  0  0  0
    4.1655   -0.3858   -1.3820 C   0  0  0  0  0  0  0  0  0  0  0  0
   -0.5486   -0.0439    0.0578 C   0  0  0  0  0  0  0  0  0  0  0  0
    2.2431    0.2508    0.6975 C   0  0  0  0  0  0  0  0  0  0  0  0
    2.8365   -1.1258   -1.2110 C   0  0  0  0  0  0  0  0  0  0  0  0
    0.5394   -0.9538   -0.5064 C   0  0  0  0  0  0  0  0  0  0  0  0
   -0.6983    1.2193   -0.8222 C   0  0  0  0  0  0  0  0  0  0  0  0
   -1.8010    2.1615   -0.3111 C   0  0  0  0  0  0  0  0  0  0  0  0
   -1.8829   -0.8062    0.1937 C   0  0  0  0  0  0  0  0  0  0  0  0
   -3.0857    0.0065    0.1753 C   0  0  0  0  0  0  0  0  0  0  0  0
   -3.0262    1.3643   -0.0566 C   0  0  0  0  0  0  0  0  0  0  0  0
    6.3217   -0.4936    1.3185 C   0  0  0  0  0  0  0  0  0  0  0  0
    6.9112    0.3050    0.1895 C   0  0  0  0  0  0  0  0  0  0  0  0
   -4.4490   -0.3293    0.3536 C   0  0  0  0  0  0  0  0  0  0  0  0
   -5.1752    0.8380    0.2327 C   0  0  0  0  0  0  0  0  0  0  0  0
   -5.0040   -1.6719    0.6224 C   0  0  0  0  0  0  0  0  0  0  0  0
   -6.6270    1.0874    0.3261 C   0  0  0  0  0  0  0  0  0  0  0  0
   -5.3533   -2.4380   -0.6572 C   0  0  0  0  0  0  0  0  0  0  0  0
  1  6  1  0
  1 18  1  0
  2  6  1  0
  2 19  1  0
  3 15  2  0
  4 10  1  0
  4 11  1  0
  4 12  1  0
  5 17  1  0
  5 21  1  0
  6  7  1  0
  6  8  1  0
  7 10  1  0
  8 11  1  0
  9 12  1  0
  9 13  1  0
  9 15  1  0
 13 14  1  0
 14 17  1  0
 15 16  1  0
 16 17  2  0
 16 20  1  0
 18 19  1  0
 20 21  2  0
 20 22  1  0
 21 23  1  0
 22 24  1  0
M  END
>  <PUBCHEM_COMPOUND_CID>  (1) 
32888

>  <PUBCHEM_CONFORMER_RMSD>  (1) 
0.8

>  <PUBCHEM_CONFORMER_DIVERSEORDER>  (1) 
1
19
13
17
11
20
14
26
21
25
24
7
3
22
2
23
15
9
18
5
16
8
4
12
6
10

>  <PUBCHEM_MMFF94_PARTIAL_CHARGES>  (1) 
21
1 -0.56
10 0.27
11 0.27
12 0.27
14 0.18
15 0.6
16 -0.09
17 -0.33
18 0.28
19 0.28
2 -0.56
20 -0.18
21 -0.33
22 0.18
23 0.18
3 -0.57
4 -0.81
44 0.27
5 0.03
6 0.56
9 0.06

>  <PUBCHEM_EFFECTIVE_ROTOR_COUNT>  (1) 
5.4

>  <PUBCHEM_PHARMACOPHORE_FEATURES>  (1) 
11
1 1 acceptor
1 2 acceptor
1 24 hydrophobe
1 3 acceptor
1 4 cation
1 5 cation
1 5 donor
5 1 2 6 18 19 rings
5 5 16 17 20 21 rings
6 4 6 7 8 10 11 rings
6 9 13 14 15 16 17 rings

>  <PUBCHEM_HEAVY_ATOM_COUNT>  (1) 
24

>  <PUBCHEM_ATOM_DEF_STEREO_COUNT>  (1) 
0

>  <PUBCHEM_ATOM_UDEF_STEREO_COUNT>  (1) 
1

>  <PUBCHEM_BOND_DEF_STEREO_COUNT>  (1) 
0

>  <PUBCHEM_BOND_UDEF_STEREO_COUNT>  (1) 
0

>  <PUBCHEM_ISOTOPIC_ATOM_COUNT>  (1) 
0

>  <PUBCHEM_COMPONENT_COUNT>  (1) 
1

>  <PUBCHEM_CACTVS_TAUTO_COUNT>  (1) 
5

>  <PUBCHEM_CONFORMER_ID>  (1) 
0000807800000001

>  <PUBCHEM_MMFF94_ENERGY>  (1) 
36.5853

>  <PUBCHEM_FEATURE_SELFOVERLAP>  (1) 
55.957

>  <PUBCHEM_SHAPE_FINGERPRINT>  (1) 
10 15 18272923956524637080
10299344 5 17894912911183386514
10319926 262 18339910597870012400
10411042 1 18121220042521557955
11045977 3 18272649082274584057
11315181 36 17749392602206042755
11524674 6 17203327836105203487
11578080 2 13541088693171359297
11646440 116 16845573132569108024
12107183 9 17466774988560019232
12166972 35 17167865279068823596
12236239 1 17385444327911473264
12516196 113 17846780698170457273
12596602 18 17530686536849241192
12616971 3 16950575380197918205
12730499 353 17275392002012520462
12838862 33 18335973187498566245
13402501 40 18344145890917119136
13533116 47 17530960255695134402
13782708 43 18202283636542424630
13862211 1 18334575793486019011
13914758 101 16081357532485806151
14251764 18 18408041827084207224
14341114 176 18334014978379094744
1577012 14 17894638066971412860
15788980 27 16226046686853080766
17349148 13 17822018618022683127
17844677 252 18411986896311581513
17980427 23 18187372055772469565
1813 80 15936977323838507718
18785283 64 17844801684599130992
18927931 339 18410015464042996431
19489759 90 18186801387715395723
21033648 29 17846769715564262592
21130935 74 18272651229964421450
21236236 1 18411698811970870359
21267235 1 18263086660139855011
21315763 129 18413107281738885160
22122407 14 16200441286204451107
23081809 10 17967818266512801838
23402539 116 18408038529050613951
23522609 53 18117868605350132892
23559900 14 18272085020046017321
335352 9 18408602574790550965
3545911 37 17704073993232353502
3633792 109 16877927340000623403
4073 2 18408611369855249778
4325135 7 17703788150168499071
5104073 3 18267875990471048955
59755656 215 18271813385092589470
59755656 520 16515405179352286747
67856867 119 18187935048285855468
7495541 125 18412824716072557680
9996256 80 18410852170478943554

>  <PUBCHEM_SHAPE_MULTIPOLES>  (1) 
466.34
17.56
1.93
1
10.38
0.25
0.07
0.21
-3.13
-3.12
0.19
1
0.18
0.04

>  <PUBCHEM_SHAPE_SELFOVERLAP>  (1) 
995.949

>  <PUBCHEM_SHAPE_VOLUME>  (1) 
258.4

>  <PUBCHEM_COORDINATE_TYPE>  (1) 
2
5
10

$$$$
