32895
     RDKit          3D

 11 11  0  0  0  0  0  0  0  0999 V2000
    3.7871   -0.4221   -0.2876 O   0  0  0  0  0  0  0  0  0  0  0  0
   -2.5419   -0.3612   -0.0039 N   0  0  0  0  0  0  0  0  0  0  0  0
   -1.6800    0.6584    0.5932 C   0  0  0  0  0  0  0  0  0  0  0  0
   -0.2250    0.3713    0.3591 C   0  0  0  0  0  0  0  0  0  0  0  0
    0.2601   -0.9172    0.5483 C   0  0  0  0  0  0  0  0  0  0  0  0
    0.6218    1.3965   -0.0452 C   0  0  0  0  0  0  0  0  0  0  0  0
   -2.3293   -0.4276   -1.4493 C   0  0  0  0  0  0  0  0  0  0  0  0
   -3.9462   -0.0817    0.2939 C   0  0  0  0  0  0  0  0  0  0  0  0
    1.6116   -1.1845    0.3302 C   0  0  0  0  0  0  0  0  0  0  0  0
    1.9734    1.1293   -0.2633 C   0  0  0  0  0  0  0  0  0  0  0  0
    2.4683   -0.1611   -0.0755 C   0  0  0  0  0  0  0  0  0  0  0  0
  1 11  1  0
  2  3  1  0
  2  7  1  0
  2  8  1  0
  3  4  1  0
  4  5  2  0
  4  6  1  0
  5  9  1  0
  6 10  2  0
  9 11  2  0
 10 11  1  0
M  END
>  <PUBCHEM_COMPOUND_CID>  (1) 
32895

>  <PUBCHEM_CONFORMER_RMSD>  (1) 
0.4

>  <PUBCHEM_CONFORMER_DIVERSEORDER>  (1) 
1
2
3

>  <PUBCHEM_MMFF94_PARTIAL_CHARGES>  (1) 
16
1 -0.53
10 -0.15
11 0.08
14 0.15
15 0.15
2 -0.81
22 0.15
23 0.15
24 0.45
3 0.41
4 -0.14
5 -0.15
6 -0.15
7 0.27
8 0.27
9 -0.15

>  <PUBCHEM_EFFECTIVE_ROTOR_COUNT>  (1) 
2

>  <PUBCHEM_PHARMACOPHORE_FEATURES>  (1) 
3
1 1 donor
1 2 cation
6 4 5 6 9 10 11 rings

>  <PUBCHEM_HEAVY_ATOM_COUNT>  (1) 
11

>  <PUBCHEM_ATOM_DEF_STEREO_COUNT>  (1) 
0

>  <PUBCHEM_ATOM_UDEF_STEREO_COUNT>  (1) 
0

>  <PUBCHEM_BOND_DEF_STEREO_COUNT>  (1) 
0

>  <PUBCHEM_BOND_UDEF_STEREO_COUNT>  (1) 
0

>  <PUBCHEM_ISOTOPIC_ATOM_COUNT>  (1) 
0

>  <PUBCHEM_COMPONENT_COUNT>  (1) 
1

>  <PUBCHEM_CACTVS_TAUTO_COUNT>  (1) 
2

>  <PUBCHEM_CONFORMER_ID>  (1) 
0000807F00000001

>  <PUBCHEM_MMFF94_ENERGY>  (1) 
30.5638

>  <PUBCHEM_FEATURE_SELFOVERLAP>  (1) 
15.223

>  <PUBCHEM_SHAPE_FINGERPRINT>  (1) 
11062470 55 13110966418141644427
11401426 45 18410005533788080864
11471102 20 18334855034873695645
12897270 3 18187077356275001029
12932764 1 18060410313962401977
13839132 238 15213841719782896343
14128692 85 18131626815748405224
14325111 11 18335704991621523609
14911166 2 18261403247486401358
14993402 34 18342179964158037886
16945 1 18334287673920159720
17844478 74 17531250556492027613
19422 9 18130229367056577535
20201158 50 18186523193772127891
21119208 17 18272933808430403989
21293036 1 18113060445570031238
23402539 116 18342170043078931190
23402655 69 18335415743133860997
2748010 2 18046359792568319370
528886 8 18408602565118973843

>  <PUBCHEM_SHAPE_MULTIPOLES>  (1) 
215.52
5.57
1.22
0.91
1.82
0.15
0.24
-0.74
0.53
-0.53
-0.05
0.5
-0.08
-0.27

>  <PUBCHEM_SHAPE_SELFOVERLAP>  (1) 
438.211

>  <PUBCHEM_SHAPE_VOLUME>  (1) 
127.5

>  <PUBCHEM_COORDINATE_TYPE>  (1) 
2
5
10

$$$$
