32896
     RDKit          3D

 11 11  0  0  0  0  0  0  0  0999 V2000
    2.4992   -2.0267    0.0749 O   0  0  0  0  0  0  0  0  0  0  0  0
   -2.3561   -0.4361    0.0004 N   0  0  0  0  0  0  0  0  0  0  0  0
   -1.5775    0.5994    0.6790 C   0  0  0  0  0  0  0  0  0  0  0  0
   -0.1148    0.5069    0.3529 C   0  0  0  0  0  0  0  0  0  0  0  0
    0.5155   -0.7317    0.3667 C   0  0  0  0  0  0  0  0  0  0  0  0
    0.5938    1.6608    0.0404 C   0  0  0  0  0  0  0  0  0  0  0  0
   -2.2156   -0.3129   -1.4501 C   0  0  0  0  0  0  0  0  0  0  0  0
   -3.7640   -0.3525    0.3865 C   0  0  0  0  0  0  0  0  0  0  0  0
    1.8742   -0.8177    0.0635 C   0  0  0  0  0  0  0  0  0  0  0  0
    1.9526    1.5748   -0.2628 C   0  0  0  0  0  0  0  0  0  0  0  0
    2.5928    0.3357   -0.2513 C   0  0  0  0  0  0  0  0  0  0  0  0
  1  9  1  0
  2  3  1  0
  2  7  1  0
  2  8  1  0
  3  4  1  0
  4  5  2  0
  4  6  1  0
  5  9  1  0
  6 10  2  0
  9 11  2  0
 10 11  1  0
M  END
>  <PUBCHEM_COMPOUND_CID>  (1) 
32896

>  <PUBCHEM_CONFORMER_RMSD>  (1) 
0.4

>  <PUBCHEM_CONFORMER_DIVERSEORDER>  (1) 
1
2
6
5
4
3
7
8

>  <PUBCHEM_MMFF94_PARTIAL_CHARGES>  (1) 
16
1 -0.53
10 -0.15
11 -0.15
14 0.15
15 0.15
2 -0.81
22 0.15
23 0.15
24 0.45
3 0.41
4 -0.14
5 -0.15
6 -0.15
7 0.27
8 0.27
9 0.08

>  <PUBCHEM_EFFECTIVE_ROTOR_COUNT>  (1) 
2

>  <PUBCHEM_PHARMACOPHORE_FEATURES>  (1) 
3
1 1 donor
1 2 cation
6 4 5 6 9 10 11 rings

>  <PUBCHEM_HEAVY_ATOM_COUNT>  (1) 
11

>  <PUBCHEM_ATOM_DEF_STEREO_COUNT>  (1) 
0

>  <PUBCHEM_ATOM_UDEF_STEREO_COUNT>  (1) 
0

>  <PUBCHEM_BOND_DEF_STEREO_COUNT>  (1) 
0

>  <PUBCHEM_BOND_UDEF_STEREO_COUNT>  (1) 
0

>  <PUBCHEM_ISOTOPIC_ATOM_COUNT>  (1) 
0

>  <PUBCHEM_COMPONENT_COUNT>  (1) 
1

>  <PUBCHEM_CACTVS_TAUTO_COUNT>  (1) 
3

>  <PUBCHEM_CONFORMER_ID>  (1) 
0000808000000001

>  <PUBCHEM_MMFF94_ENERGY>  (1) 
30.5565

>  <PUBCHEM_FEATURE_SELFOVERLAP>  (1) 
15.223

>  <PUBCHEM_SHAPE_FINGERPRINT>  (1) 
11031198 65 18188782763097184053
12897270 3 18335700589222048893
12932764 1 17846777438137233785
14128692 85 18272933786976679402
15310529 11 18411701006509131173
16945 1 18339076094245975928
17844478 74 17821452378477760149
19422 9 18272376386437717091
20201158 50 18260550043078776427
20645477 70 18409726258046064127
20871998 22 18126573323306439550
22802520 49 17896023369854755181
23402655 69 18410570704434929149
23552333 60 18202570591775592224
23552423 10 18408890602805693120
2748010 2 18265607680961164012

>  <PUBCHEM_SHAPE_MULTIPOLES>  (1) 
215.52
4.89
1.59
0.9
3.3
0.1
-0.25
1.01
-0.19
-1.41
0.03
0.53
0.02
-0.26

>  <PUBCHEM_SHAPE_SELFOVERLAP>  (1) 
438.194

>  <PUBCHEM_SHAPE_VOLUME>  (1) 
127.2

>  <PUBCHEM_COORDINATE_TYPE>  (1) 
2
5
10

$$$$
