32918
     RDKit          3D

 20 20  0  0  0  0  0  0  0  0999 V2000
    2.8139   -0.1245    0.8194 O   0  0  0  0  0  0  0  0  0  0  0  0
    1.0749    2.0353    0.6387 O   0  0  0  0  0  0  0  0  0  0  0  0
   -5.3721   -1.5022   -0.7609 O   0  0  0  0  0  0  0  0  0  0  0  0
   -7.2532    0.3501   -0.1583 O   0  0  0  0  0  0  0  0  0  0  0  0
   -5.8943    0.5788    0.0988 N   0  0  0  0  0  0  0  0  0  0  0  0
    5.0495   -0.3947    0.0059 C   0  0  0  0  0  0  0  0  0  0  0  0
    3.7172   -1.0784    0.2781 C   0  0  0  0  0  0  0  0  0  0  0  0
    6.0668   -1.3612   -0.5939 C   0  0  0  0  0  0  0  0  0  0  0  0
    1.4811   -0.3225    0.5676 C   0  0  0  0  0  0  0  0  0  0  0  0
    0.6160    0.7627    0.4799 C   0  0  0  0  0  0  0  0  0  0  0  0
    7.3818   -0.6643   -0.9042 C   0  0  0  0  0  0  0  0  0  0  0  0
   -1.2196   -0.7508    0.0588 C   0  0  0  0  0  0  0  0  0  0  0  0
    1.0082   -1.6200    0.4031 C   0  0  0  0  0  0  0  0  0  0  0  0
   -0.7385    0.5479    0.2246 C   0  0  0  0  0  0  0  0  0  0  0  0
   -0.3463   -1.8348    0.1481 C   0  0  0  0  0  0  0  0  0  0  0  0
    0.8992    2.9295   -0.4585 C   0  0  0  0  0  0  0  0  0  0  0  0
   -2.6318   -0.9747   -0.2069 C   0  0  0  0  0  0  0  0  0  0  0  0
    2.0129    3.9546   -0.4425 C   0  0  0  0  0  0  0  0  0  0  0  0
   -3.6244   -0.0945    0.0542 C   0  0  0  0  0  0  0  0  0  0  0  0
   -5.0412   -0.4363   -0.2519 C   0  0  0  0  0  0  0  0  0  0  0  0
  1  7  1  0
  1  9  1  0
  2 10  1  0
  2 16  1  0
  3 20  2  0
  4  5  1  0
  5 20  1  0
  6  7  1  0
  6  8  1  0
  8 11  1  0
  9 10  2  0
  9 13  1  0
 10 14  1  0
 12 14  2  0
 12 15  1  0
 12 17  1  0
 13 15  2  0
 16 18  1  0
 17 19  2  0
 19 20  1  0
M  END
>  <PUBCHEM_COMPOUND_CID>  (1) 
32918

>  <PUBCHEM_CONFORMER_RMSD>  (1) 
0.8

>  <PUBCHEM_CONFORMER_DIVERSEORDER>  (1) 
1
62
14
55
46
33
29
65
8
41
27
43
47
3
44
31
16
57
51
2
52
32
26
42
63
37
25
12
50
17
66
22
11
54
49
15
9
19
36
68
39
40
58
56
34
60
21
6
18
10
48
28
30
20
35
13
64
61
23
67
24
53
4
45
38
7
5
59

>  <PUBCHEM_MMFF94_PARTIAL_CHARGES>  (1) 
23
1 -0.36
10 0.08
12 0.03
13 -0.15
14 -0.15
15 -0.15
16 0.28
17 -0.18
19 -0.14
2 -0.36
20 0.62
3 -0.57
30 0.15
31 0.15
32 0.15
35 0.15
39 0.15
4 -0.44
40 0.37
41 0.4
5 -0.39
7 0.28
9 0.08

>  <PUBCHEM_EFFECTIVE_ROTOR_COUNT>  (1) 
9

>  <PUBCHEM_PHARMACOPHORE_FEATURES>  (1) 
6
1 1 acceptor
1 11 hydrophobe
1 2 acceptor
1 3 acceptor
1 5 donor
6 9 10 12 13 14 15 rings

>  <PUBCHEM_HEAVY_ATOM_COUNT>  (1) 
20

>  <PUBCHEM_ATOM_DEF_STEREO_COUNT>  (1) 
0

>  <PUBCHEM_ATOM_UDEF_STEREO_COUNT>  (1) 
0

>  <PUBCHEM_BOND_DEF_STEREO_COUNT>  (1) 
0

>  <PUBCHEM_BOND_UDEF_STEREO_COUNT>  (1) 
1

>  <PUBCHEM_ISOTOPIC_ATOM_COUNT>  (1) 
0

>  <PUBCHEM_COMPONENT_COUNT>  (1) 
1

>  <PUBCHEM_CACTVS_TAUTO_COUNT>  (1) 
3

>  <PUBCHEM_CONFORMER_ID>  (1) 
0000809600000001

>  <PUBCHEM_MMFF94_ENERGY>  (1) 
55.5058

>  <PUBCHEM_FEATURE_SELFOVERLAP>  (1) 
30.45

>  <PUBCHEM_SHAPE_FINGERPRINT>  (1) 
10050765 1 18120936371777192507
10366900 7 17530956995625117403
12166972 35 18201718483423378593
12236239 1 17847057809491835747
12617007 42 18413111675685341564
12788726 201 18115305567168494698
13590594 115 18336553728784003137
13862211 1 18411412895792546362
14170010 4 18411696616836419905
14347332 77 18122345684493057398
15048467 5 16732986414133420982
15475509 8 18270976639083590268
15849732 13 17989203754703779870
1601671 61 18411133593905172323
16728300 4 12534242780149822694
167882 2 18192436496577682932
18006028 8 16917066642518659970
18222031 100 18412258437450605002
18681886 176 18272923956034331779
20238998 120 18342457028636742240
20286276 3 18048038763645684515
20612939 158 18336547213465755597
20735858 18 9583516512329643414
21267235 1 18341332280018115219
21285901 2 18129387008180087582
21304303 172 18059303049972034728
21641784 216 17823147730913431364
21709351 56 18339349838940859327
22182313 1 18191275291876260156
22224240 67 8646763383284504694
23352939 185 18341901792528513008
23402539 116 18342737386810484478
23557571 272 18270968938861304404
23558518 356 17465094238496755610
23559900 14 18341607182739555170
335352 9 18411418419077953271
350125 39 18408321077838239941
4463277 17 18412261731411004386
5758199 1 8214140776259720111
633830 44 18189884478781836379
9971528 1 18271516589418810296
9999458 23 18187921815723302271

>  <PUBCHEM_SHAPE_MULTIPOLES>  (1) 
383.13
15.47
2.82
0.79
3.57
4.21
0.02
-5.92
4.69
-2.15
0.41
-0.41
-0.02
-0.13

>  <PUBCHEM_SHAPE_SELFOVERLAP>  (1) 
770.749

>  <PUBCHEM_SHAPE_VOLUME>  (1) 
225.8

>  <PUBCHEM_COORDINATE_TYPE>  (1) 
2
5
10

$$$$
