32911
     RDKit          3D

 12 12  0  0  0  0  0  0  0  0999 V2000
    1.9015    2.9326   -0.0033 Cl  0  0  0  0  0  0  0  0  0  0  0  0
    3.4229   -2.0423   -0.0110 Cl  0  0  0  0  0  0  0  0  0  0  0  0
   -1.3632   -0.7859    0.0153 N   0  0  0  0  0  0  0  0  0  0  0  0
    0.9143   -1.3440    0.0030 N   0  0  0  0  0  0  0  0  0  0  0  0
    0.2125    0.9506    0.0067 N   0  0  0  0  0  0  0  0  0  0  0  0
    2.5506    0.4110   -0.0060 N   0  0  0  0  0  0  0  0  0  0  0  0
   -2.4838    0.1469    0.0213 C   0  0  0  0  0  0  0  0  0  0  0  0
   -3.8069   -0.6142   -0.0068 C   0  0  0  0  0  0  0  0  0  0  0  0
   -4.9930    0.3376   -0.0227 C   0  0  0  0  0  0  0  0  0  0  0  0
   -0.0456   -0.3830    0.0081 C   0  0  0  0  0  0  0  0  0  0  0  0
    1.5172    1.2683   -0.0006 C   0  0  0  0  0  0  0  0  0  0  0  0
    2.1734   -0.8777   -0.0041 C   0  0  0  0  0  0  0  0  0  0  0  0
  1 11  1  0
  2 12  1  0
  3  7  1  0
  3 10  1  0
  4 10  2  0
  4 12  1  0
  5 10  1  0
  5 11  2  0
  6 11  1  0
  6 12  2  0
  7  8  1  0
  8  9  1  0
M  END
>  <PUBCHEM_COMPOUND_CID>  (1) 
32911

>  <PUBCHEM_CONFORMER_RMSD>  (1) 
0.6

>  <PUBCHEM_CONFORMER_DIVERSEORDER>  (1) 
1
7
6
5
2
4
3

>  <PUBCHEM_MMFF94_PARTIAL_CHARGES>  (1) 
11
1 -0.18
10 0.72
11 0.8
12 0.8
17 0.4
2 -0.18
3 -0.87
4 -0.62
5 -0.62
6 -0.62
7 0.37

>  <PUBCHEM_EFFECTIVE_ROTOR_COUNT>  (1) 
3

>  <PUBCHEM_PHARMACOPHORE_FEATURES>  (1) 
4
1 3 donor
1 9 hydrophobe
4 3 4 5 10 cation
6 4 5 6 10 11 12 rings

>  <PUBCHEM_HEAVY_ATOM_COUNT>  (1) 
12

>  <PUBCHEM_ATOM_DEF_STEREO_COUNT>  (1) 
0

>  <PUBCHEM_ATOM_UDEF_STEREO_COUNT>  (1) 
0

>  <PUBCHEM_BOND_DEF_STEREO_COUNT>  (1) 
0

>  <PUBCHEM_BOND_UDEF_STEREO_COUNT>  (1) 
0

>  <PUBCHEM_ISOTOPIC_ATOM_COUNT>  (1) 
0

>  <PUBCHEM_COMPONENT_COUNT>  (1) 
1

>  <PUBCHEM_CACTVS_TAUTO_COUNT>  (1) 
3

>  <PUBCHEM_CONFORMER_ID>  (1) 
0000808F00000001

>  <PUBCHEM_MMFF94_ENERGY>  (1) 
18.717

>  <PUBCHEM_FEATURE_SELFOVERLAP>  (1) 
20.297

>  <PUBCHEM_SHAPE_FINGERPRINT>  (1) 
10608611 8 18334855060949564957
11471102 20 18410008832159401439
12032990 46 18267023860454028894
12346645 6 18342457075337166964
13922767 16 18410007736942747449
14252887 29 18201158733263238442
14325111 11 18338517551356092803
14648413 74 18263367056425406370
15442244 35 18340772529118776513
15477762 27 18412825776407201198
18186145 218 17822004316261641531
20606313 2 18410573989446424957
20645477 70 18411135831773537967
20671657 1 18340210798709155468
20671657 53 18340492144805127158
20871998 22 18127414445390981206
221490 88 18336272356917759611
23380061 81 18408888472866119041
23402655 69 18413668011499909965
23532345 12 18059858316470854697
2748010 2 18195230145206965236
3071541 37 18263087755087470708
54173680 148 17689715264526303786
7364860 26 18341050804508310320

>  <PUBCHEM_SHAPE_MULTIPOLES>  (1) 
230.77
7.4
2.34
0.6
10.41
1.56
0
-1.63
0.06
-3.24
0.01
0
0.01
0.01

>  <PUBCHEM_SHAPE_SELFOVERLAP>  (1) 
442.729

>  <PUBCHEM_SHAPE_VOLUME>  (1) 
137.7

>  <PUBCHEM_COORDINATE_TYPE>  (1) 
2
5
10

$$$$
