32915
     RDKit          3D

 20 20  0  0  0  0  0  0  0  0999 V2000
   -2.1196   -0.4463   -1.0713 O   0  0  0  0  0  0  0  0  0  0  0  0
   -1.8609   -2.9901    0.0169 O   0  0  0  0  0  0  0  0  0  0  0  0
    4.8587    2.0741   -0.7628 O   0  0  0  0  0  0  0  0  0  0  0  0
    7.0872    1.6847    0.7255 O   0  0  0  0  0  0  0  0  0  0  0  0
    5.9708    0.8461    0.8491 N   0  0  0  0  0  0  0  0  0  0  0  0
   -4.7548    1.9005    0.2192 C   0  0  0  0  0  0  0  0  0  0  0  0
   -4.1444    0.6755   -0.4581 C   0  0  0  0  0  0  0  0  0  0  0  0
   -6.2812    1.8236    0.2362 C   0  0  0  0  0  0  0  0  0  0  0  0
   -2.6232    0.7238   -0.4418 C   0  0  0  0  0  0  0  0  0  0  0  0
   -6.8917    3.0253    0.9398 C   0  0  0  0  0  0  0  0  0  0  0  0
   -0.8983   -0.9007   -0.6461 C   0  0  0  0  0  0  0  0  0  0  0  0
   -0.7765   -2.1741   -0.1013 C   0  0  0  0  0  0  0  0  0  0  0  0
    0.2124   -0.0723   -0.7655 C   0  0  0  0  0  0  0  0  0  0  0  0
    1.4602   -0.5232   -0.3351 C   0  0  0  0  0  0  0  0  0  0  0  0
    0.4713   -2.6249    0.3294 C   0  0  0  0  0  0  0  0  0  0  0  0
    1.5896   -1.7997    0.2124 C   0  0  0  0  0  0  0  0  0  0  0  0
    2.6263    0.3373   -0.4572 C   0  0  0  0  0  0  0  0  0  0  0  0
    3.7758    0.1979    0.2409 C   0  0  0  0  0  0  0  0  0  0  0  0
   -2.6068   -2.9055    1.2296 C   0  0  0  0  0  0  0  0  0  0  0  0
    4.9050    1.1480    0.0401 C   0  0  0  0  0  0  0  0  0  0  0  0
  1  9  1  0
  1 11  1  0
  2 12  1  0
  2 19  1  0
  3 20  2  0
  4  5  1  0
  5 20  1  0
  6  7  1  0
  6  8  1  0
  7  9  1  0
  8 10  1  0
 11 12  2  0
 11 13  1  0
 12 15  1  0
 13 14  2  0
 14 16  1  0
 14 17  1  0
 15 16  2  0
 17 18  2  0
 18 20  1  0
M  END
>  <PUBCHEM_COMPOUND_CID>  (1) 
32915

>  <PUBCHEM_CONFORMER_RMSD>  (1) 
0.8

>  <PUBCHEM_CONFORMER_DIVERSEORDER>  (1) 
2
112
57
144
142
224
151
83
96
205
121
228
129
125
78
177
110
128
91
10
126
70
189
53
120
206
204
114
73
52
185
170
141
163
140
226
149
192
153
74
60
21
106
119
23
122
218
221
211
166
17
175
136
25
202
29
183
137
148
33
27
97
35
76
134
92
138
147
94
9
55
32
86
143
135
45
116
47
180
115
26
127
50
190
68
22
51
72
133
132
174
165
77
181
42
88
65
7
69
157
89
41
208
113
100
105
176
191
15
161
67
131
28
1
219
231
64
48
229
146
117
178
130
61
11
216
145
34
5
93
118
164
215
12
30
213
199
107
101
139
75
186
81
8
162
14
232
196
43
187
171
19
71
104
6
210
54
31
214
44
85
193
168
63
198
209
24
184
3
123
108
18
39
82
200
158
217
154
13
80
79
111
46
152
160
37
220
173
124
90
195
167
59
207
16
36
20
49
38
56
95
103
84
109
203
58
4
40
230
188
66
194
222
98
87
227
62
169
182
99
223
225
201
155
212
150
156
102
159
172
179
197

>  <PUBCHEM_MMFF94_PARTIAL_CHARGES>  (1) 
23
1 -0.36
11 0.08
12 0.08
13 -0.15
14 0.03
15 -0.15
16 -0.15
17 -0.18
18 -0.14
19 0.28
2 -0.36
20 0.62
3 -0.57
32 0.15
33 0.15
34 0.15
35 0.15
36 0.15
4 -0.44
40 0.37
41 0.4
5 -0.39
9 0.28

>  <PUBCHEM_EFFECTIVE_ROTOR_COUNT>  (1) 
9

>  <PUBCHEM_PHARMACOPHORE_FEATURES>  (1) 
6
1 1 acceptor
1 10 hydrophobe
1 2 acceptor
1 3 acceptor
1 5 donor
6 11 12 13 14 15 16 rings

>  <PUBCHEM_HEAVY_ATOM_COUNT>  (1) 
20

>  <PUBCHEM_ATOM_DEF_STEREO_COUNT>  (1) 
0

>  <PUBCHEM_ATOM_UDEF_STEREO_COUNT>  (1) 
0

>  <PUBCHEM_BOND_DEF_STEREO_COUNT>  (1) 
0

>  <PUBCHEM_BOND_UDEF_STEREO_COUNT>  (1) 
1

>  <PUBCHEM_ISOTOPIC_ATOM_COUNT>  (1) 
0

>  <PUBCHEM_COMPONENT_COUNT>  (1) 
1

>  <PUBCHEM_CACTVS_TAUTO_COUNT>  (1) 
3

>  <PUBCHEM_CONFORMER_ID>  (1) 
0000809300000002

>  <PUBCHEM_MMFF94_ENERGY>  (1) 
58.525

>  <PUBCHEM_FEATURE_SELFOVERLAP>  (1) 
30.45

>  <PUBCHEM_SHAPE_FINGERPRINT>  (1) 
10493431 412 18408040702203741541
10693767 8 9222931644363709101
11823591 26 18339633469558622493
12107183 9 18261943052251617546
12390115 104 18337967773534748478
12895836 83 17275095133477381877
12895837 130 17916578881523072284
13540713 4 18269012962756731206
13955234 65 18046912567908461579
14123256 34 9223221971209780197
15475509 35 16010437833734675306
15778101 99 18410293644663350188
19784866 140 11743838041284939349
20526848 3 18272652329048716193
20621476 66 18410293636226870596
21637258 2 12252191783541897981
21756936 100 18343013419752232471
22224240 67 18334016060948204165
23402539 116 18047461507414988214
23559900 14 18412544319744522654
270888 7 18343300336516232625
2838139 119 17988352749768062732
293599 30 18413106147598311948
3004659 81 11239990144585960885
3014063 24 11602831211272922217
4340502 62 18335147436653291755
465052 167 10809639090309296609
5104073 3 18186235130321185162
5385378 56 18335981957188593586
59682541 52 16558477370438829940
59755656 520 18409443674355731823
633830 44 18198902514170455127
636775 72 18200021988791184592
76465 3 8862939485381666959
77188 2 17115503498807607215
7808743 9 18410288129429632369
7970288 3 8934995962718399305

>  <PUBCHEM_SHAPE_MULTIPOLES>  (1) 
383.13
15.48
3.53
0.95
0.14
1.74
-0.06
-21.3
-4.86
-2.73
-1.06
-0.19
0.03
-0.28

>  <PUBCHEM_SHAPE_SELFOVERLAP>  (1) 
770.282

>  <PUBCHEM_SHAPE_VOLUME>  (1) 
226.1

>  <PUBCHEM_COORDINATE_TYPE>  (1) 
2
5
10

$$$$
