3292
     RDKit          3D

 15 16  0  0  1  0  0  0  0  0999 V2000
    0.7868    1.2933    1.7334 O   0  0  0  0  0  0  0  0  0  0  0  0
    2.6856   -1.6983   -1.2102 O   0  0  0  0  0  0  0  0  0  0  0  0
    2.0686    0.0195    0.2531 N   0  0  0  0  0  0  0  0  0  0  0  0
    0.6328   -1.6500   -0.1014 N   0  0  0  0  0  0  0  0  0  0  0  0
   -0.0582   -0.8016    0.8395 C   0  0  0  0  0  0  0  0  0  0  0  0
    0.9611    0.3138    1.0198 C   0  0  0  0  0  0  0  0  0  0  0  0
   -1.3476   -0.3041    0.2962 C   0  0  0  0  0  0  0  0  0  0  0  0
    1.8973   -1.1635   -0.4412 C   0  0  0  0  0  0  0  0  0  0  0  0
    3.2587    0.8416    0.1625 C   0  0  0  0  0  0  0  0  0  0  0  0
   -2.5448   -0.9481    0.6233 C   0  0  0  0  0  0  0  0  0  0  0  0
   -1.3731    0.8114   -0.5464 C   0  0  0  0  0  0  0  0  0  0  0  0
    3.1487    1.8555   -0.9575 C   0  0  0  0  0  0  0  0  0  0  0  0
   -3.7559   -0.4809    0.1127 C   0  0  0  0  0  0  0  0  0  0  0  0
   -2.5842    1.2787   -1.0567 C   0  0  0  0  0  0  0  0  0  0  0  0
   -3.7756    0.6327   -0.7272 C   0  0  0  0  0  0  0  0  0  0  0  0
  1  6  2  0
  2  8  2  0
  3  6  1  0
  3  8  1  0
  3  9  1  0
  4  5  1  0
  4  8  1  0
  5  6  1  0
  5  7  1  0
  7 10  2  0
  7 11  1  0
  9 12  1  0
 10 13  1  0
 11 14  2  0
 13 15  2  0
 14 15  1  0
M  END
>  <PUBCHEM_COMPOUND_CID>  (1) 
3292

>  <PUBCHEM_CONFORMER_RMSD>  (1) 
0.6

>  <PUBCHEM_CONFORMER_DIVERSEORDER>  (1) 
2
1
3
4

>  <PUBCHEM_MMFF94_PARTIAL_CHARGES>  (1) 
20
1 -0.57
10 -0.15
11 -0.15
13 -0.15
14 -0.15
15 -0.15
17 0.37
2 -0.57
20 0.15
21 0.15
25 0.15
26 0.15
27 0.15
3 -0.42
4 -0.73
5 0.5
6 0.57
7 -0.14
8 0.69
9 0.3

>  <PUBCHEM_EFFECTIVE_ROTOR_COUNT>  (1) 
2.6

>  <PUBCHEM_PHARMACOPHORE_FEATURES>  (1) 
5
1 1 acceptor
1 2 acceptor
1 4 donor
5 3 4 5 6 8 rings
6 7 10 11 13 14 15 rings

>  <PUBCHEM_HEAVY_ATOM_COUNT>  (1) 
15

>  <PUBCHEM_ATOM_DEF_STEREO_COUNT>  (1) 
0

>  <PUBCHEM_ATOM_UDEF_STEREO_COUNT>  (1) 
1

>  <PUBCHEM_BOND_DEF_STEREO_COUNT>  (1) 
0

>  <PUBCHEM_BOND_UDEF_STEREO_COUNT>  (1) 
0

>  <PUBCHEM_ISOTOPIC_ATOM_COUNT>  (1) 
0

>  <PUBCHEM_COMPONENT_COUNT>  (1) 
1

>  <PUBCHEM_CACTVS_TAUTO_COUNT>  (1) 
2

>  <PUBCHEM_CONFORMER_ID>  (1) 
00000CDC00000002

>  <PUBCHEM_MMFF94_ENERGY>  (1) 
25.1081

>  <PUBCHEM_FEATURE_SELFOVERLAP>  (1) 
25.371

>  <PUBCHEM_SHAPE_FINGERPRINT>  (1) 
10498660 4 17895185572465407797
10608611 8 18260261919730126845
107287 299 18343018917141604955
10871710 139 16026781451633495796
11031198 65 18273494597846561228
11715629 250 17822286868916376253
12932764 1 16343979196015285475
13764800 53 17313395487307207665
15219456 202 18409450275862688727
15775835 57 18131066073497864687
16945 1 18119533137025516442
18186145 218 18336554810830093266
19422 9 17632302233336257071
20281407 28 11600008772991505452
20361792 2 16558743473474042009
20645477 70 18131069282086822487
20671657 53 18125449605301090246
21947302 44 18333734606876403580
22802520 49 18191030010356272711
23114952 82 18339092488310088726
23402539 116 18042111197765266798
23557571 272 17896617256351977723
23559900 14 18261104124067396530
25 1 18202002174429003888
474 4 16009599117121897820
7364860 26 17532919524468949338
77492 1 15913608367577392691
8030462 33 17489871522590601163

>  <PUBCHEM_SHAPE_MULTIPOLES>  (1) 
286.99
6.28
1.72
1.19
1.71
0.19
-0.21
1.65
1.43
-0.75
0.46
-0.49
0.06
0.76

>  <PUBCHEM_SHAPE_SELFOVERLAP>  (1) 
612.218

>  <PUBCHEM_SHAPE_VOLUME>  (1) 
161.4

>  <PUBCHEM_COORDINATE_TYPE>  (1) 
2
5
10

$$$$
