32948
     RDKit          3D

 16 15  0  0  1  0  0  0  0  0999 V2000
    2.0743    0.1269    1.7295 O   0  0  0  0  0  0  0  0  0  0  0  0
    3.1163    0.1915   -0.3446 N   0  0  0  0  0  0  0  0  0  0  0  0
    4.4060    0.6358    0.1298 C   0  0  0  0  0  0  0  0  0  0  0  0
    5.5407    0.1056   -0.7561 C   0  0  0  0  0  0  0  0  0  0  0  0
    4.4340    2.1594    0.1923 C   0  0  0  0  0  0  0  0  0  0  0  0
    5.5526   -1.4149   -0.8489 C   0  0  0  0  0  0  0  0  0  0  0  0
    2.0510   -0.0258    0.5126 C   0  0  0  0  0  0  0  0  0  0  0  0
   -3.9106   -1.9036   -0.2089 C   0  0  0  0  0  0  0  0  0  0  0  0
   -5.0985   -0.9645    0.0283 C   0  0  0  0  0  0  0  0  0  0  0  0
    0.8352   -0.4810   -0.2173 C   0  0  0  0  0  0  0  0  0  0  0  0
   -2.6464   -1.4398    0.4610 C   0  0  0  0  0  0  0  0  0  0  0  0
   -0.2961   -0.7386    0.4538 C   0  0  0  0  0  0  0  0  0  0  0  0
   -1.5086   -1.1791   -0.2002 C   0  0  0  0  0  0  0  0  0  0  0  0
   -4.8948    0.4065   -0.5529 C   0  0  0  0  0  0  0  0  0  0  0  0
   -4.9285    1.5792    0.0980 C   0  0  0  0  0  0  0  0  0  0  0  0
   -4.7266    2.9423   -0.4762 C   0  0  0  0  0  0  0  0  0  0  0  0
  1  7  2  0
  2  3  1  0
  2  7  1  0
  3  4  1  0
  3  5  1  0
  4  6  1  0
  7 10  1  0
  8  9  1  0
  8 11  1  0
  9 14  1  0
 10 12  2  0
 11 13  2  0
 12 13  1  0
 14 15  2  0
 15 16  1  0
M  END
>  <PUBCHEM_COMPOUND_CID>  (1) 
32948

>  <PUBCHEM_CONFORMER_RMSD>  (1) 
0.8

>  <PUBCHEM_CONFORMER_DIVERSEORDER>  (1) 
1
107
26
44
74
143
11
139
78
71
12
72
29
10
125
131
76
91
63
30
6
49
46
99
8
16
66
22
13
144
28
134
47
138
42
104
41
43
19
141
119
118
7
70
109
37
3
27
53
59
95
52
35
101
58
34
116
123
57
60
55
32
87
140
39
4
45
126
98
86
23
108
82
14
80
128
21
102
132
81
20
40
115
105
69
93
48
133
96
97
122
135
129
25
64
112
90
117
75
120
103
54
100
89
50
24
31
88
68
113
79
51
127
15
137
73
36
62
18
121
61
56
110
142
85
111
33
65
114
38
9
130
106
83
136
94
17
84
77
92
2
124
5
67

>  <PUBCHEM_MMFF94_PARTIAL_CHARGES>  (1) 
20
1 -0.57
10 -0.14
11 -0.29
12 -0.15
13 -0.15
14 -0.29
15 -0.29
16 0.14
2 -0.73
23 0.37
3 0.3
31 0.15
32 0.15
33 0.15
34 0.15
35 0.15
36 0.15
7 0.62
8 0.14
9 0.14

>  <PUBCHEM_EFFECTIVE_ROTOR_COUNT>  (1) 
8

>  <PUBCHEM_PHARMACOPHORE_FEATURES>  (1) 
5
1 1 acceptor
1 16 hydrophobe
1 2 donor
1 6 hydrophobe
4 8 9 11 14 hydrophobe

>  <PUBCHEM_HEAVY_ATOM_COUNT>  (1) 
16

>  <PUBCHEM_ATOM_DEF_STEREO_COUNT>  (1) 
0

>  <PUBCHEM_ATOM_UDEF_STEREO_COUNT>  (1) 
0

>  <PUBCHEM_BOND_DEF_STEREO_COUNT>  (1) 
0

>  <PUBCHEM_BOND_UDEF_STEREO_COUNT>  (1) 
3

>  <PUBCHEM_ISOTOPIC_ATOM_COUNT>  (1) 
0

>  <PUBCHEM_COMPONENT_COUNT>  (1) 
1

>  <PUBCHEM_CACTVS_TAUTO_COUNT>  (1) 
2

>  <PUBCHEM_CONFORMER_ID>  (1) 
000080B400000001

>  <PUBCHEM_MMFF94_ENERGY>  (1) 
9.2092

>  <PUBCHEM_FEATURE_SELFOVERLAP>  (1) 
25.373

>  <PUBCHEM_SHAPE_FINGERPRINT>  (1) 
10378564 45 18342458115193986774
10730089 173 18409730647359994853
10803635 8 17632856434462675343
11858739 19 17775292638550481446
12596602 18 17095239225077376289
12670543 26 18343305842648261094
13899415 180 14333404545404392195
14123255 352 18335696123015191373
14251751 18 9367339349586484221
14251752 14 18412262800979290670
14573314 32 18413392029237829230
15183329 4 18410857629345394998
15778101 99 18411422766138686017
16079462 125 17774992531799574800
17844677 252 18337116764377443134
17959699 21 18337390547321317704
18222031 100 13686311196645522562
200 152 14836410237407773883
20281389 69 18334293163004642337
20621476 91 8502361222863774789
20645477 56 18272371975902079387
20645477 70 17489602168523712198
23402539 116 18341893012818553991
23559900 14 18202280269198036682
32948 21 18412827980126038814
441001 317 18408322203113753545
5283173 99 18412827954055879513
531348 171 18272931601086960631
59345605 10 9367338232958238677
633830 44 18261948656698764966
7062679 6 18260270745946000949
90127 26 18334863856609843538

>  <PUBCHEM_SHAPE_MULTIPOLES>  (1) 
318.42
15.93
2.37
0.92
3.65
1.57
0.18
4.13
-3.44
-2.89
-0.26
0.57
-0.02
1.02

>  <PUBCHEM_SHAPE_SELFOVERLAP>  (1) 
598.12

>  <PUBCHEM_SHAPE_VOLUME>  (1) 
197.3

>  <PUBCHEM_COORDINATE_TYPE>  (1) 
2
5
10

$$$$
