32944
     RDKit          3D

 42 48  0  0  1  0  0  0  0  0999 V2000
   -2.2204   -3.0266    1.5008 O   0  0  0  0  0  0  0  0  0  0  0  0
   -3.1252   -0.8262    2.7775 O   0  0  0  0  0  0  0  0  0  0  0  0
    3.1909   -0.5960   -1.1847 O   0  0  0  0  0  0  0  0  0  0  0  0
   -7.3528    2.4229   -0.8280 O   0  0  0  0  0  0  0  0  0  0  0  0
    2.7635    0.7944    0.6581 O   0  0  0  0  0  0  0  0  0  0  0  0
   -6.4800    3.6143   -2.5928 O   0  0  0  0  0  0  0  0  0  0  0  0
    5.5390    0.3116    0.0422 O   0  0  0  0  0  0  0  0  0  0  0  0
    6.1743    3.0599   -0.0470 O   0  0  0  0  0  0  0  0  0  0  0  0
    4.9302    1.9681    2.2076 O   0  0  0  0  0  0  0  0  0  0  0  0
    5.8901   -0.9759   -1.8435 O   0  0  0  0  0  0  0  0  0  0  0  0
   -1.8201   -1.7635    0.9514 C   0  0  0  0  0  0  0  0  0  0  0  0
   -1.4712   -1.7884   -0.5317 C   0  0  0  0  0  0  0  0  0  0  0  0
   -2.7055   -0.6191    1.4185 C   0  0  0  0  0  0  0  0  0  0  0  0
   -0.9494   -2.5207    1.9375 C   0  0  0  0  0  0  0  0  0  0  0  0
   -3.9535   -0.4018    0.5073 C   0  0  0  0  0  0  0  0  0  0  0  0
   -0.4403   -2.8984   -0.9619 C   0  0  0  0  0  0  0  0  0  0  0  0
    0.7022   -2.9969    0.0989 C   0  0  0  0  0  0  0  0  0  0  0  0
    0.1935   -3.3726    1.4977 C   0  0  0  0  0  0  0  0  0  0  0  0
   -2.7815   -1.7669   -1.3389 C   0  0  0  0  0  0  0  0  0  0  0  0
   -3.5852   -0.5060   -1.0008 C   0  0  0  0  0  0  0  0  0  0  0  0
   -1.9777    0.7386    1.4116 C   0  0  0  0  0  0  0  0  0  0  0  0
   -4.3630    1.0439    0.9116 C   0  0  0  0  0  0  0  0  0  0  0  0
   -3.0306    1.7931    1.0452 C   0  0  0  0  0  0  0  0  0  0  0  0
    0.1797   -2.5365   -2.3594 C   0  0  0  0  0  0  0  0  0  0  0  0
    1.5666   -1.7174    0.1835 C   0  0  0  0  0  0  0  0  0  0  0  0
   -5.1066   -1.3804    0.8102 C   0  0  0  0  0  0  0  0  0  0  0  0
   -1.1253   -4.2777   -1.1337 C   0  0  0  0  0  0  0  0  0  0  0  0
    1.6210   -2.0296   -2.3205 C   0  0  0  0  0  0  0  0  0  0  0  0
    1.8459   -1.0646   -1.1698 C   0  0  0  0  0  0  0  0  0  0  0  0
   -5.3387    1.7286    0.0099 C   0  0  0  0  0  0  0  0  0  0  0  0
   -6.7957    1.6458    0.2373 C   0  0  0  0  0  0  0  0  0  0  0  0
   -5.0602    2.4656   -1.0620 C   0  0  0  0  0  0  0  0  0  0  0  0
    3.2858    0.7305   -0.6722 C   0  0  0  0  0  0  0  0  0  0  0  0
   -6.3436    2.9138   -1.6047 C   0  0  0  0  0  0  0  0  0  0  0  0
    4.7362    1.2172   -0.7175 C   0  0  0  0  0  0  0  0  0  0  0  0
    4.8223    2.6268   -0.1282 C   0  0  0  0  0  0  0  0  0  0  0  0
    2.7435    2.1285    1.1878 C   0  0  0  0  0  0  0  0  0  0  0  0
    4.1656    2.7054    1.2540 C   0  0  0  0  0  0  0  0  0  0  0  0
    2.0774    2.0636    2.5573 C   0  0  0  0  0  0  0  0  0  0  0  0
    6.0531   -0.7434   -0.6533 C   0  0  0  0  0  0  0  0  0  0  0  0
    6.6776    3.4380   -1.3208 C   0  0  0  0  0  0  0  0  0  0  0  0
    6.8680   -1.6023    0.2655 C   0  0  0  0  0  0  0  0  0  0  0  0
  1 11  1  0
  1 14  1  0
  2 13  1  0
  3 29  1  0
  3 33  1  0
  4 31  1  0
  4 34  1  0
  5 33  1  0
  5 37  1  0
  6 34  2  0
  7 35  1  0
  7 40  1  0
  8 36  1  0
  8 41  1  0
  9 38  1  0
 10 40  2  0
 11 12  1  0
 11 13  1  0
 11 14  1  0
 12 16  1  0
 12 19  1  0
 13 15  1  0
 13 21  1  0
 14 18  1  0
 15 20  1  0
 15 22  1  0
 15 26  1  0
 16 17  1  0
 16 24  1  0
 16 27  1  0
 17 18  1  0
 17 25  1  0
 19 20  1  0
 21 23  1  0
 22 23  1  0
 22 30  1  0
 24 28  1  0
 25 29  1  0
 28 29  1  0
 30 31  1  0
 30 32  2  0
 32 34  1  0
 33 35  1  0
 35 36  1  0
 36 38  1  0
 37 38  1  0
 37 39  1  0
 40 42  1  0
M  END
>  <PUBCHEM_COMPOUND_CID>  (1) 
32944

>  <PUBCHEM_CONFORMER_RMSD>  (1) 
1.2

>  <PUBCHEM_CONFORMER_DIVERSEORDER>  (1) 
1
42
87
35
162
43
69
89
133
77
139
120
127
28
72
9
144
184
160
94
55
137
116
181
161
14
16
13
147
155
57
105
110
174
70
64
119
167
82
10
129
145
177
132
21
68
78
182
67
17
121
61
54
44
179
90
114
159
25
123
36
142
103
52
30
79
157
45
38
84
75
12
83
150
151
29
141
19
169
115
172
135
164
95
100
158
183
63
112
33
60
134
126
49
20
168
8
62
140
111
124
96
32
97
5
99
26
118
34
47
165
173
39
152
71
176
178
180
73
148
22
18
109
185
108
156
31
23
86
65
56
107
58
153
93
59
128
53
154
76
138
143
98
41
106
91
170
11
102
48
186
88
131
51
163
80
74
117
122
149
125
92
113
15
3
24
46
7
27
66
4
166
81
37
40
146
85
2
50
6
136
130
101
171
104
175

>  <PUBCHEM_MMFF94_PARTIAL_CHARGES>  (1) 
33
1 -0.3
10 -0.57
11 -0.04
12 0.09
13 0.38
14 -0.05
18 0.09
2 -0.68
22 0.14
29 0.28
3 -0.56
30 -0.28
31 0.42
32 -0.14
33 0.56
34 0.71
35 0.28
36 0.28
37 0.28
38 0.28
4 -0.43
40 0.66
41 0.28
42 0.06
44 0.1
5 -0.56
6 -0.57
67 0.4
7 -0.43
73 0.15
8 -0.56
82 0.4
9 -0.68

>  <PUBCHEM_EFFECTIVE_ROTOR_COUNT>  (1) 
9.8

>  <PUBCHEM_PHARMACOPHORE_FEATURES>  (1) 
16
1 1 acceptor
1 10 acceptor
1 2 acceptor
1 2 donor
1 3 acceptor
1 5 acceptor
1 6 acceptor
1 8 acceptor
1 9 acceptor
1 9 donor
5 13 15 21 22 23 rings
5 4 30 31 32 34 rings
6 11 12 13 15 19 20 rings
6 16 17 24 25 28 29 rings
6 5 33 35 36 37 38 rings
7 1 11 12 14 16 17 18 rings

>  <PUBCHEM_HEAVY_ATOM_COUNT>  (1) 
42

>  <PUBCHEM_ATOM_DEF_STEREO_COUNT>  (1) 
9

>  <PUBCHEM_ATOM_UDEF_STEREO_COUNT>  (1) 
5

>  <PUBCHEM_BOND_DEF_STEREO_COUNT>  (1) 
0

>  <PUBCHEM_BOND_UDEF_STEREO_COUNT>  (1) 
0

>  <PUBCHEM_ISOTOPIC_ATOM_COUNT>  (1) 
0

>  <PUBCHEM_COMPONENT_COUNT>  (1) 
1

>  <PUBCHEM_CACTVS_TAUTO_COUNT>  (1) 
1

>  <PUBCHEM_CONFORMER_ID>  (1) 
000080B000000001

>  <PUBCHEM_MMFF94_ENERGY>  (1) 
138.6919

>  <PUBCHEM_FEATURE_SELFOVERLAP>  (1) 
81.475

>  <PUBCHEM_SHAPE_FINGERPRINT>  (1) 
10190108 129 12324535194757936766
10928967 22 14129611255482313002
11093857 51 17130689605580928055
11578080 2 17969217838258319199
12128747 34 18262532489084262930
12633257 1 15430332342541028895
13944108 23 17981044111595614681
14739800 52 18042402418603033875
14747281 78 18263930926124639729
15064981 113 17489317373631915924
15082195 135 17774996856694803463
15320295 40 17560228116975938226
15721738 202 10591750013715520370
17899979 129 18198629818064861165
19304152 47 18043541713795539195
21033648 144 17986959737650552398
21033648 29 18186803595027912118
21968339 14 18125998261455592439
22121540 332 18116707405037759925
27425 322 17677054667437778224
2838139 119 18411980265003473887
3298306 158 18411975867426305393
3388396 114 17703797976743196209
376196 1 18335703797969333731
4112364 45 18189043223442298817
4403749 210 17054119878227667504
508706 21 17842277248861297178
6036956 94 18341062903041813057
6086070 43 18202559562526656574
6371009 1 17988642943976348696
6677587 24 18054202372991825829
6695519 79 17972347074279095419

>  <PUBCHEM_SHAPE_MULTIPOLES>  (1) 
805.65
17.36
5.11
2.32
3.69
0.35
-0.15
-19.77
5.36
-0.33
1.1
-0.74
-0.05
3.25

>  <PUBCHEM_SHAPE_SELFOVERLAP>  (1) 
1741.13

>  <PUBCHEM_SHAPE_VOLUME>  (1) 
437.9

>  <PUBCHEM_COORDINATE_TYPE>  (1) 
2
5
10

$$$$
