32945
     RDKit          3D

 27 29  0  0  0  0  0  0  0  0999 V2000
   -3.8558    2.2967   -0.1942 S   0  0  0  0  0  0  0  0  0  0  0  0
    5.6173   -1.0999    0.2233 O   0  0  0  0  0  0  0  0  0  0  0  0
    0.7436    3.0561    0.9347 O   0  0  0  0  0  0  0  0  0  0  0  0
   -4.0934   -0.4640   -1.1922 O   0  0  0  0  0  0  0  0  0  0  0  0
    0.4731    0.9506   -0.0756 N   0  0  0  0  0  0  0  0  0  0  0  0
   -2.3336    0.1725    0.2308 N   0  0  0  0  0  0  0  0  0  0  0  0
   -3.2553    3.8454   -0.2552 N   0  0  0  0  0  0  0  0  0  0  0  0
   -1.3700    2.4972    0.1486 C   0  0  0  0  0  0  0  0  0  0  0  0
   -2.3520    1.5641    0.0950 C   0  0  0  0  0  0  0  0  0  0  0  0
   -1.9404    3.7858   -0.0581 C   0  0  0  0  0  0  0  0  0  0  0  0
    0.0195    2.2032    0.3795 C   0  0  0  0  0  0  0  0  0  0  0  0
    1.7703    0.4340    0.0003 C   0  0  0  0  0  0  0  0  0  0  0  0
    1.9642   -0.9418    0.1044 C   0  0  0  0  0  0  0  0  0  0  0  0
    2.8642    1.2962   -0.0300 C   0  0  0  0  0  0  0  0  0  0  0  0
    4.3551   -0.5967    0.1487 C   0  0  0  0  0  0  0  0  0  0  0  0
   -1.1900    5.0607   -0.0710 C   0  0  0  0  0  0  0  0  0  0  0  0
    3.2581   -1.4579    0.1787 C   0  0  0  0  0  0  0  0  0  0  0  0
    4.1580    0.7803    0.0442 C   0  0  0  0  0  0  0  0  0  0  0  0
   -3.1801   -0.7484   -0.4006 C   0  0  0  0  0  0  0  0  0  0  0  0
   -2.9210   -2.1477   -0.1023 C   0  0  0  0  0  0  0  0  0  0  0  0
   -3.2636   -3.1333   -1.0281 C   0  0  0  0  0  0  0  0  0  0  0  0
   -2.3294   -2.5047    1.1096 C   0  0  0  0  0  0  0  0  0  0  0  0
    6.6490   -0.3660   -0.4348 C   0  0  0  0  0  0  0  0  0  0  0  0
   -3.0149   -4.4758   -0.7421 C   0  0  0  0  0  0  0  0  0  0  0  0
   -2.0806   -3.8472    1.3954 C   0  0  0  0  0  0  0  0  0  0  0  0
   -2.4234   -4.8326    0.4696 C   0  0  0  0  0  0  0  0  0  0  0  0
    7.7313   -1.3269   -0.8787 C   0  0  0  0  0  0  0  0  0  0  0  0
  1  7  1  0
  1  9  1  0
  2 15  1  0
  2 23  1  0
  3 11  2  0
  4 19  2  0
  5 11  1  0
  5 12  1  0
  6  9  1  0
  6 19  1  0
  7 10  2  0
  8  9  2  0
  8 10  1  0
  8 11  1  0
 10 16  1  0
 12 13  2  0
 12 14  1  0
 13 17  1  0
 14 18  2  0
 15 17  2  0
 15 18  1  0
 19 20  1  0
 20 21  2  0
 20 22  1  0
 21 24  1  0
 22 25  2  0
 23 27  1  0
 24 26  2  0
 25 26  1  0
M  END
>  <PUBCHEM_COMPOUND_CID>  (1) 
32945

>  <PUBCHEM_CONFORMER_RMSD>  (1) 
1

>  <PUBCHEM_CONFORMER_DIVERSEORDER>  (1) 
3
11
14
7
9
12
13
4
2
10
8
16
1
6
15
5

>  <PUBCHEM_MMFF94_PARTIAL_CHARGES>  (1) 
37
1 0.18
10 0.11
11 0.72
12 0.12
13 -0.15
14 -0.15
15 0.08
16 0.18
17 -0.15
18 -0.15
19 0.54
2 -0.36
20 0.09
21 -0.15
22 -0.15
23 0.28
24 -0.15
25 -0.15
26 -0.15
28 0.37
29 0.37
3 -0.57
30 0.15
31 0.15
35 0.15
36 0.15
37 0.15
38 0.15
4 -0.57
41 0.15
42 0.15
43 0.15
5 -0.55
6 -0.49
7 -0.51
8 -0.09
9 0.1

>  <PUBCHEM_EFFECTIVE_ROTOR_COUNT>  (1) 
8

>  <PUBCHEM_PHARMACOPHORE_FEATURES>  (1) 
9
1 2 acceptor
1 3 acceptor
1 4 acceptor
1 5 donor
1 6 donor
1 7 acceptor
5 1 7 8 9 10 rings
6 12 13 14 15 17 18 rings
6 20 21 22 24 25 26 rings

>  <PUBCHEM_HEAVY_ATOM_COUNT>  (1) 
27

>  <PUBCHEM_ATOM_DEF_STEREO_COUNT>  (1) 
0

>  <PUBCHEM_ATOM_UDEF_STEREO_COUNT>  (1) 
0

>  <PUBCHEM_BOND_DEF_STEREO_COUNT>  (1) 
0

>  <PUBCHEM_BOND_UDEF_STEREO_COUNT>  (1) 
0

>  <PUBCHEM_ISOTOPIC_ATOM_COUNT>  (1) 
0

>  <PUBCHEM_COMPONENT_COUNT>  (1) 
1

>  <PUBCHEM_CACTVS_TAUTO_COUNT>  (1) 
9

>  <PUBCHEM_CONFORMER_ID>  (1) 
000080B100000003

>  <PUBCHEM_MMFF94_ENERGY>  (1) 
89.3669

>  <PUBCHEM_FEATURE_SELFOVERLAP>  (1) 
45.674

>  <PUBCHEM_SHAPE_FINGERPRINT>  (1) 
10050765 1 18410293632469674536
10290309 65 17760929537346528924
10411042 1 18194683893723010879
10483366 6 18339344311629237791
10940486 97 18261399914587122612
11014199 57 18265898149282926739
11056379 131 18339366271216721124
11227688 84 17909542097146307477
11756154 67 18337960103367197059
12107183 9 18052276261007865683
12553582 1 18337665434049830755
12788726 201 18336255761042614019
138480 1 16393241388637296331
14251757 5 18409729547368143906
14444916 359 17981344299607235681
14659021 117 18338503214285728280
14844126 61 18408041801451697083
14863182 85 16894830437207781477
14866123 147 18412547630963847739
14931854 50 18263347158121915071
152267 14 18197774616524032046
15250474 111 18261382301211039098
15400415 2 17978228258417512768
15463212 79 18116709612687749176
15927050 60 17909546156639481453
15968369 26 17326596498450732445
16628084 112 18191575368688444567
16719943 64 18265610987875050323
167882 2 17111840471814750365
20101258 96 18337961215304362483
20775438 99 17548930832680260677
20775530 9 18116989090599950187
21133410 171 17545261688736881330
21133410 32 15865772052780125650
23466295 7 18336553827725694419
23559900 14 18341884187252234560
395649 100 18407762539464922374
4073 2 18411702050829781746
4280585 95 18265036098002074264
437795 160 18411414018018499354
5265222 85 18050014298567931700
5309563 4 17906453586306483199
57527306 92 15358247192388349063
58902169 19 17677630696315462454
613672 6 17978768427305032331

>  <PUBCHEM_SHAPE_MULTIPOLES>  (1) 
526.95
12.22
7.1
0.92
30.23
0.26
0.03
-7.32
-3.21
-11.52
0.47
-0.43
-0.63
0.47

>  <PUBCHEM_SHAPE_SELFOVERLAP>  (1) 
1123.753

>  <PUBCHEM_SHAPE_VOLUME>  (1) 
294.9

>  <PUBCHEM_COORDINATE_TYPE>  (1) 
2
5
10

$$$$
