32942
     RDKit          3D

 25 27  0  0  0  0  0  0  0  0999 V2000
   -0.7197    0.7459    1.1247 O   0  0  0  0  0  0  0  0  0  0  0  0
    0.2908    0.3737    3.1685 O   0  0  0  0  0  0  0  0  0  0  0  0
   -3.2905    0.6388   -0.0600 N   0  0  0  0  0  0  0  0  0  0  0  0
    1.3786   -0.2969    1.1230 C   0  0  0  0  0  0  0  0  0  0  0  0
    1.9620    0.7343    0.1591 C   0  0  0  0  0  0  0  0  0  0  0  0
    0.8130   -1.3313    0.1523 C   0  0  0  0  0  0  0  0  0  0  0  0
    2.4562   -0.8967    2.0273 C   0  0  0  0  0  0  0  0  0  0  0  0
    1.7606    0.3265   -1.1793 C   0  0  0  0  0  0  0  0  0  0  0  0
    1.0574   -0.9382   -1.1835 C   0  0  0  0  0  0  0  0  0  0  0  0
    0.2743    0.3044    1.9470 C   0  0  0  0  0  0  0  0  0  0  0  0
    2.6130    1.9225    0.4561 C   0  0  0  0  0  0  0  0  0  0  0  0
    0.1461   -2.5124    0.4410 C   0  0  0  0  0  0  0  0  0  0  0  0
    3.5482   -1.5636    1.2151 C   0  0  0  0  0  0  0  0  0  0  0  0
    2.2115    1.1082   -2.2309 C   0  0  0  0  0  0  0  0  0  0  0  0
    0.6341   -1.7280   -2.2404 C   0  0  0  0  0  0  0  0  0  0  0  0
    3.0669    2.7092   -0.6039 C   0  0  0  0  0  0  0  0  0  0  0  0
   -0.2800   -3.3074   -0.6246 C   0  0  0  0  0  0  0  0  0  0  0  0
    2.8681    2.3060   -1.9344 C   0  0  0  0  0  0  0  0  0  0  0  0
   -0.0382   -2.9191   -1.9523 C   0  0  0  0  0  0  0  0  0  0  0  0
   -1.8411    1.3445    1.7820 C   0  0  0  0  0  0  0  0  0  0  0  0
   -2.8494    1.7785    0.7301 C   0  0  0  0  0  0  0  0  0  0  0  0
   -3.9087   -0.3769    0.7957 C   0  0  0  0  0  0  0  0  0  0  0  0
   -4.2302    1.0625   -1.1010 C   0  0  0  0  0  0  0  0  0  0  0  0
   -4.3110   -1.6015   -0.0088 C   0  0  0  0  0  0  0  0  0  0  0  0
   -3.6117    2.1171   -2.0027 C   0  0  0  0  0  0  0  0  0  0  0  0
  1 10  1  0
  1 20  1  0
  2 10  2  0
  3 21  1  0
  3 22  1  0
  3 23  1  0
  4  5  1  0
  4  6  1  0
  4  7  1  0
  4 10  1  0
  5  8  2  0
  5 11  1  0
  6  9  2  0
  6 12  1  0
  7 13  1  0
  8  9  1  0
  8 14  1  0
  9 15  1  0
 11 16  2  0
 12 17  2  0
 14 18  2  0
 15 19  2  0
 16 18  1  0
 17 19  1  0
 20 21  1  0
 22 24  1  0
 23 25  1  0
M  END
>  <PUBCHEM_COMPOUND_CID>  (1) 
32942

>  <PUBCHEM_CONFORMER_RMSD>  (1) 
0.8

>  <PUBCHEM_CONFORMER_DIVERSEORDER>  (1) 
3
143
134
102
130
144
135
13
29
88
66
170
118
35
57
124
169
53
27
147
156
132
173
106
123
82
99
100
70
96
152
136
77
46
131
61
64
59
109
146
75
163
150
145
4
139
171
159
122
141
44
90
21
84
111
91
34
94
54
161
105
14
149
25
103
120
48
158
86
49
160
125
41
113
39
31
17
140
87
12
47
166
172
5
26
126
116
154
55
177
74
83
148
40
20
129
28
65
71
63
33
76
114
18
67
73
15
153
121
16
78
50
127
8
19
1
92
52
6
43
24
119
81
37
164
7
68
117
58
30
32
101
128
104
72
151
157
36
110
9
167
60
42
137
2
155
10
38
97
45
175
162
108
23
174
138
107
168
133
142
79
165
112
11
93
115
22
176
85
51
56
69
80
98
62
89
95

>  <PUBCHEM_MMFF94_PARTIAL_CHARGES>  (1) 
27
1 -0.43
10 0.66
11 -0.15
12 -0.15
14 -0.15
15 -0.15
16 -0.15
17 -0.15
18 -0.15
19 -0.15
2 -0.57
20 0.28
21 0.27
22 0.27
23 0.27
28 0.15
29 0.15
3 -0.81
33 0.15
34 0.15
35 0.15
36 0.15
37 0.15
38 0.15
4 0.35
5 -0.14
6 -0.14

>  <PUBCHEM_EFFECTIVE_ROTOR_COUNT>  (1) 
8.2

>  <PUBCHEM_PHARMACOPHORE_FEATURES>  (1) 
6
1 13 hydrophobe
1 2 acceptor
1 3 cation
5 4 5 6 8 9 rings
6 5 8 11 14 16 18 rings
6 6 9 12 15 17 19 rings

>  <PUBCHEM_HEAVY_ATOM_COUNT>  (1) 
25

>  <PUBCHEM_ATOM_DEF_STEREO_COUNT>  (1) 
0

>  <PUBCHEM_ATOM_UDEF_STEREO_COUNT>  (1) 
0

>  <PUBCHEM_BOND_DEF_STEREO_COUNT>  (1) 
0

>  <PUBCHEM_BOND_UDEF_STEREO_COUNT>  (1) 
0

>  <PUBCHEM_ISOTOPIC_ATOM_COUNT>  (1) 
0

>  <PUBCHEM_COMPONENT_COUNT>  (1) 
1

>  <PUBCHEM_CACTVS_TAUTO_COUNT>  (1) 
1

>  <PUBCHEM_CONFORMER_ID>  (1) 
000080AE00000003

>  <PUBCHEM_MMFF94_ENERGY>  (1) 
70.5134

>  <PUBCHEM_FEATURE_SELFOVERLAP>  (1) 
30.606

>  <PUBCHEM_SHAPE_FINGERPRINT>  (1) 
10759866 29 18263082282829650082
11135609 12 18198923421797322131
11421498 54 17539680717842440842
11582403 64 18116443711616017764
11640471 11 18042685198616786804
11725454 13 17970934329847949620
12156800 1 17259576815088830861
12467345 10 18336260253973849482
13134695 92 17386850504557199504
13224815 77 18131348618438357385
14863182 85 17702654450221576167
15664445 248 13663597205891602640
15848702 105 18121509204249414519
15849732 13 18337663140848751818
17492 54 18047480212202517549
17980427 23 18267296535069085456
17980427 26 17023728087912076120
20600515 1 16116299740948421012
21452121 99 17986378099925043986
21524375 3 18117578407552702644
21756936 100 17026580380300359444
21860390 5 17530956965017339228
22907989 373 17264738983510547004
23419403 2 16181514013486223571
238 59 18196120809169618908
25222932 49 16627102362664052237
3052486 1 17843388829210434271
35225 105 18055895835362362159
3797600 57 18271814574497466807
4409770 3 17486780946187707692
469060 322 17248948957332667163
5895379 119 17902788561853465621

>  <PUBCHEM_SHAPE_MULTIPOLES>  (1) 
497.77
6.56
3.38
2.66
7.22
1.09
0.25
-3.26
-0.72
-0.63
-1.7
-0.73
-0.15
-0.72

>  <PUBCHEM_SHAPE_SELFOVERLAP>  (1) 
1066.953

>  <PUBCHEM_SHAPE_VOLUME>  (1) 
278.8

>  <PUBCHEM_COORDINATE_TYPE>  (1) 
2
5
10

$$$$
