32952
     RDKit          3D

 23 25  0  0  1  0  0  0  0  0999 V2000
   -1.4134    0.9359   -0.2544 O   0  0  0  0  0  0  0  0  0  0  0  0
   -4.0184    0.6338    0.8749 N   0  0  0  0  0  0  0  0  0  0  0  0
   -0.1204    1.4658   -0.1847 N   0  0  0  0  0  0  0  0  0  0  0  0
   -3.7615    1.4861   -0.2849 C   0  0  0  0  0  0  0  0  0  0  0  0
   -2.3302    2.0191   -0.2113 C   0  0  0  0  0  0  0  0  0  0  0  0
   -4.0113    0.7054   -1.5756 C   0  0  0  0  0  0  0  0  0  0  0  0
    0.7219    0.4814   -0.2237 C   0  0  0  0  0  0  0  0  0  0  0  0
    2.1702    0.7687   -0.1651 C   0  0  0  0  0  0  0  0  0  0  0  0
    0.2697   -0.9179   -0.3857 C   0  0  0  0  0  0  0  0  0  0  0  0
    3.0289    0.1123    0.7267 C   0  0  0  0  0  0  0  0  0  0  0  0
    0.7030   -1.9470    0.4608 C   0  0  0  0  0  0  0  0  0  0  0  0
   -5.4050    0.1683    0.8705 C   0  0  0  0  0  0  0  0  0  0  0  0
   -3.7251    1.3537    2.1138 C   0  0  0  0  0  0  0  0  0  0  0  0
    2.5865   -0.8644    1.7282 C   0  0  0  0  0  0  0  0  0  0  0  0
    1.5862   -1.7478    1.6151 C   0  0  0  0  0  0  0  0  0  0  0  0
    2.6604    1.7535   -1.0365 C   0  0  0  0  0  0  0  0  0  0  0  0
   -0.6282   -1.1837   -1.4313 C   0  0  0  0  0  0  0  0  0  0  0  0
    4.3875    0.4724    0.7281 C   0  0  0  0  0  0  0  0  0  0  0  0
    0.2005   -3.2419    0.2454 C   0  0  0  0  0  0  0  0  0  0  0  0
    4.0133    2.0850   -1.0286 C   0  0  0  0  0  0  0  0  0  0  0  0
   -1.1025   -2.4771   -1.6368 C   0  0  0  0  0  0  0  0  0  0  0  0
    4.8771    1.4445   -0.1469 C   0  0  0  0  0  0  0  0  0  0  0  0
   -0.6892   -3.5063   -0.7980 C   0  0  0  0  0  0  0  0  0  0  0  0
  1  3  1  0
  1  5  1  0
  2  4  1  0
  2 12  1  0
  2 13  1  0
  3  7  2  3
  4  5  1  0
  4  6  1  0
  7  8  1  0
  7  9  1  0
  8 10  2  0
  8 16  1  0
  9 11  2  0
  9 17  1  0
 10 14  1  0
 10 18  1  0
 11 15  1  0
 11 19  1  0
 14 15  2  0
 16 20  2  0
 17 21  2  0
 18 22  2  0
 19 23  2  0
 20 22  1  0
 21 23  1  0
M  END
>  <PUBCHEM_COMPOUND_CID>  (1) 
32952

>  <PUBCHEM_CONFORMER_RMSD>  (1) 
0.6

>  <PUBCHEM_CONFORMER_DIVERSEORDER>  (1) 
4
23
21
19
24
22
7
25
10
18
13
26
16
6
30
3
14
2
15
27
17
8
11
29
1
20
5
12
31
28
9
32

>  <PUBCHEM_MMFF94_PARTIAL_CHARGES>  (1) 
32
1 -0.22
10 0.03
11 0.03
12 0.27
13 0.27
14 -0.18
15 -0.18
16 -0.15
17 -0.15
18 -0.15
19 -0.15
2 -0.81
20 -0.15
21 -0.15
22 -0.15
23 -0.15
3 -0.51
36 0.15
37 0.15
38 0.15
39 0.15
4 0.27
40 0.15
41 0.15
42 0.15
43 0.15
44 0.15
45 0.15
5 0.28
7 0.28
8 0.09
9 0.09

>  <PUBCHEM_EFFECTIVE_ROTOR_COUNT>  (1) 
4

>  <PUBCHEM_PHARMACOPHORE_FEATURES>  (1) 
5
1 2 cation
1 3 acceptor
6 8 10 16 18 20 22 rings
6 9 11 17 19 21 23 rings
7 7 8 9 10 11 14 15 rings

>  <PUBCHEM_HEAVY_ATOM_COUNT>  (1) 
23

>  <PUBCHEM_ATOM_DEF_STEREO_COUNT>  (1) 
0

>  <PUBCHEM_ATOM_UDEF_STEREO_COUNT>  (1) 
1

>  <PUBCHEM_BOND_DEF_STEREO_COUNT>  (1) 
0

>  <PUBCHEM_BOND_UDEF_STEREO_COUNT>  (1) 
0

>  <PUBCHEM_ISOTOPIC_ATOM_COUNT>  (1) 
0

>  <PUBCHEM_COMPONENT_COUNT>  (1) 
1

>  <PUBCHEM_CACTVS_TAUTO_COUNT>  (1) 
1

>  <PUBCHEM_CONFORMER_ID>  (1) 
000080B800000004

>  <PUBCHEM_MMFF94_ENERGY>  (1) 
88.9058

>  <PUBCHEM_FEATURE_SELFOVERLAP>  (1) 
25.388

>  <PUBCHEM_SHAPE_FINGERPRINT>  (1) 
1100329 8 18267022949773645816
11115154 58 17194301052195797055
11488393 25 17980505385120631678
11578080 2 16986591125022448376
12633257 1 17388529402788796017
12788726 201 18053095417526945927
13583140 156 17385432216045903941
14251757 17 13829856764045631513
14955137 171 18045490929617554714
15475509 84 17175764372551177763
16752209 62 18125984182331269606
17138139 8 17769337786706403367
20261772 1 18335699455392945688
204376 136 18411139134344555333
20739085 24 18193286195373972984
21524375 3 18409169913361849940
21756936 100 17679036034994334604
221357 26 10735873933781616433
22224240 67 18272376399554695305
22620623 9 17772760604741597854
23419403 2 17477262301932576582
23558518 356 17686623850151769676
23559900 14 17904199235497852453
25147074 1 18042111228626674928
283562 15 16681760498060911477
427121 178 17918274220946577459
458136 41 18130231436988376871
469060 322 17024859605520207815
474229 33 18408326613881675225
53917941 68 18117545448221606092
59554788 248 18193258728952406135
59755656 520 18201447986029472852
6034566 193 16517945188862587972
6438718 38 18057604463256971086
6669772 16 18341060640252743134
81228 2 17832975423055220316

>  <PUBCHEM_SHAPE_MULTIPOLES>  (1) 
457.5
8.92
3.33
1.65
3.51
3.01
0.32
-7.22
1.81
0.08
-0.78
0.73
0.23
-1.65

>  <PUBCHEM_SHAPE_SELFOVERLAP>  (1) 
984.956

>  <PUBCHEM_SHAPE_VOLUME>  (1) 
251.5

>  <PUBCHEM_COORDINATE_TYPE>  (1) 
2
5
10

$$$$
