32966
     RDKit          3D

 13 12  0  0  0  0  0  0  0  0999 V2000
   -5.3810   -1.8460    0.0079 O   0  0  0  0  0  0  0  0  0  0  0  0
    5.3053   -1.9797   -0.0359 O   0  0  0  0  0  0  0  0  0  0  0  0
   -0.0524    3.1156    0.7827 O   0  0  0  0  0  0  0  0  0  0  0  0
   -0.0065    1.1981   -0.1046 N   0  0  0  0  0  0  0  0  0  0  0  0
    0.2981    2.4767   -0.2167 N   0  0  0  0  0  0  0  0  0  0  0  0
   -1.3337    0.8974   -0.6289 C   0  0  0  0  0  0  0  0  0  0  0  0
    0.9851    0.2977   -0.7158 C   0  0  0  0  0  0  0  0  0  0  0  0
   -2.0109   -0.1741    0.2237 C   0  0  0  0  0  0  0  0  0  0  0  0
    2.1527    0.0656    0.2415 C   0  0  0  0  0  0  0  0  0  0  0  0
   -3.4007   -0.5110   -0.3140 C   0  0  0  0  0  0  0  0  0  0  0  0
    3.1988   -0.8599   -0.3774 C   0  0  0  0  0  0  0  0  0  0  0  0
   -4.1024   -1.5481    0.5528 C   0  0  0  0  0  0  0  0  0  0  0  0
    4.3477   -1.1323    0.5846 C   0  0  0  0  0  0  0  0  0  0  0  0
  1 12  1  0
  2 13  1  0
  3  5  2  0
  4  5  1  0
  4  6  1  0
  4  7  1  0
  6  8  1  0
  7  9  1  0
  8 10  1  0
  9 11  1  0
 10 12  1  0
 11 13  1  0
M  END
>  <PUBCHEM_COMPOUND_CID>  (1) 
32966

>  <PUBCHEM_CONFORMER_RMSD>  (1) 
0.8

>  <PUBCHEM_CONFORMER_DIVERSEORDER>  (1) 
1
50
29
109
191
100
210
61
294
296
142
190
292
101
87
7
46
211
233
248
212
69
314
89
289
168
244
171
285
251
200
55
276
105
166
90
158
316
246
133
40
230
298
259
224
266
254
22
32
324
205
75
10
49
206
67
178
288
213
31
286
27
269
225
301
226
138
24
295
151
115
128
309
263
216
282
98
125
307
4
95
60
86
163
280
222
54
114
14
63
293
17
37
110
119
167
165
52
264
313
66
5
321
36
219
192
56
45
39
312
249
6
255
47
102
308
72
132
201
127
112
81
240
239
236
290
291
175
320
152
3
261
203
220
173
150
51
319
317
260
204
33
78
271
41
16
284
71
161
237
38
256
325
129
196
28
8
273
68
187
197
35
2
120
131
134
140
177
97
181
42
258
74
304
21
184
194
306
174
217
250
9
58
59
281
65
253
136
232
53
283
186
18
318
305
20
169
156
221
70
245
48
88
202
123
188
278
144
108
234
164
302
43
208
106
299
153
116
189
107
300
26
80
274
242
198
155
25
64
13
160
44
214
223
262
227
182
265
57
12
124
183
117
176
247
310
297
279
148
122
257
311
15
113
180
241
228
235
143
77
30
130
73
99
267
238
135
179
159
111
199
103
141
209
104
322
170
268
270
149
323
121
83
215
162
85
19
23
11
252
272
229
185
76
218
126
157
146
287
147
303
195
193
84
277
137
93
275
207
79
154
139
91
96
172
243
94
62
118
231
315
82
145
34
92

>  <PUBCHEM_MMFF94_PARTIAL_CHARGES>  (1) 
11
1 -0.68
12 0.28
13 0.28
2 -0.68
3 -0.16
30 0.4
31 0.4
4 -0.36
5 -0.01
6 0.27
7 0.27

>  <PUBCHEM_EFFECTIVE_ROTOR_COUNT>  (1) 
9

>  <PUBCHEM_PHARMACOPHORE_FEATURES>  (1) 
4
1 1 acceptor
1 1 donor
1 2 acceptor
1 2 donor

>  <PUBCHEM_HEAVY_ATOM_COUNT>  (1) 
13

>  <PUBCHEM_ATOM_DEF_STEREO_COUNT>  (1) 
0

>  <PUBCHEM_ATOM_UDEF_STEREO_COUNT>  (1) 
0

>  <PUBCHEM_BOND_DEF_STEREO_COUNT>  (1) 
0

>  <PUBCHEM_BOND_UDEF_STEREO_COUNT>  (1) 
0

>  <PUBCHEM_ISOTOPIC_ATOM_COUNT>  (1) 
0

>  <PUBCHEM_COMPONENT_COUNT>  (1) 
1

>  <PUBCHEM_CACTVS_TAUTO_COUNT>  (1) 
1

>  <PUBCHEM_CONFORMER_ID>  (1) 
000080C600000001

>  <PUBCHEM_MMFF94_ENERGY>  (1) 
13.1555

>  <PUBCHEM_FEATURE_SELFOVERLAP>  (1) 
20.298

>  <PUBCHEM_SHAPE_FINGERPRINT>  (1) 
100836 57 10303814301989783674
10726558 24 8502655913069739772
12032990 46 18409729556026669702
13955234 65 17907584975518932873
14123255 352 10303813181040210235
1420 369 18410014316812169430
14252887 29 18060145331739482726
193927 3 18260278438016370834
20281475 54 18334863839588418053
20388580 30 18187932810712888908
20605781 2 9583520919140474155
20645477 70 18118397574186225183
20671657 53 18337114557175820077
20871998 22 18410288155141686633
23402539 116 18335136436925775998
23402655 69 11602818003715398955
23403322 49 18260264122958880035
23526113 38 17895196678802500649
3086196 2 18339922589593028664
4416823 128 18335420183734256527
58734987 33 18201157745077589985
77188 2 18411419531179674636

>  <PUBCHEM_SHAPE_MULTIPOLES>  (1) 
239.96
10
2.6
0.78
0.27
1.9
0
-11.38
0.88
-0.08
0.52
0.04
0.1
0.17

>  <PUBCHEM_SHAPE_SELFOVERLAP>  (1) 
437.285

>  <PUBCHEM_SHAPE_VOLUME>  (1) 
153.8

>  <PUBCHEM_COORDINATE_TYPE>  (1) 
2
5
10

$$$$
