32976
     RDKit          3D

 19 20  0  0  1  0  0  0  0  0999 V2000
   -2.8735    0.6423    1.1892 O   0  0  0  0  0  0  0  0  0  0  0  0
    0.9585   -1.9579    0.2518 N   0  0  0  0  0  0  0  0  0  0  0  0
   -0.2616   -1.3333   -0.3310 C   0  0  0  0  0  0  0  0  0  0  0  0
    2.2199   -1.4233   -0.4361 C   0  0  0  0  0  0  0  0  0  0  0  0
   -1.5100   -1.8488    0.3978 C   0  0  0  0  0  0  0  0  0  0  0  0
    1.0599   -1.6492    1.7500 C   0  0  0  0  0  0  0  0  0  0  0  0
    0.9221   -3.4803    0.0753 C   0  0  0  0  0  0  0  0  0  0  0  0
   -0.3001   -1.6781   -1.8148 C   0  0  0  0  0  0  0  0  0  0  0  0
   -2.8542   -1.3509   -0.1528 C   0  0  0  0  0  0  0  0  0  0  0  0
    2.3966    0.0574   -0.2716 C   0  0  0  0  0  0  0  0  0  0  0  0
   -3.0236    0.1446   -0.0477 C   0  0  0  0  0  0  0  0  0  0  0  0
    1.8455    0.9249   -1.2081 C   0  0  0  0  0  0  0  0  0  0  0  0
    3.1095    0.5492    0.8163 C   0  0  0  0  0  0  0  0  0  0  0  0
   -3.3009    1.0871   -0.9719 C   0  0  0  0  0  0  0  0  0  0  0  0
    2.0096    2.3016   -1.0551 C   0  0  0  0  0  0  0  0  0  0  0  0
    3.2735    1.9260    0.9693 C   0  0  0  0  0  0  0  0  0  0  0  0
    2.7234    2.8022    0.0336 C   0  0  0  0  0  0  0  0  0  0  0  0
   -3.3303    2.3053   -0.2522 C   0  0  0  0  0  0  0  0  0  0  0  0
   -3.0642    1.9814    1.0579 C   0  0  0  0  0  0  0  0  0  0  0  0
  1 11  1  0
  1 19  1  0
  2  3  1  0
  2  4  1  0
  2  6  1  0
  2  7  1  0
  3  5  1  0
  3  8  1  0
  4 10  1  0
  5  9  1  0
  9 11  1  0
 10 12  2  0
 10 13  1  0
 11 14  2  0
 12 15  1  0
 13 16  2  0
 14 18  1  0
 15 17  2  0
 16 17  1  0
 18 19  2  0
M  CHG  1   2   1
M  END
>  <PUBCHEM_COMPOUND_CID>  (1) 
32976

>  <PUBCHEM_CONFORMER_RMSD>  (1) 
0.8

>  <PUBCHEM_CONFORMER_DIVERSEORDER>  (1) 
1
16
10
24
20
35
34
29
31
26
8
9
27
7
14
30
15
3
23
19
38
25
28
2
12
13
4
39
6
21
32
18
22
17
36
33
5
37
11

>  <PUBCHEM_MMFF94_PARTIAL_CHARGES>  (1) 
25
1 -0.28
10 -0.14
11 -0.04
12 -0.15
13 -0.15
14 -0.15
15 -0.15
16 -0.15
17 -0.15
18 -0.15
19 -0.01
2 -1.01
3 0.5
36 0.15
37 0.15
38 0.15
39 0.15
4 0.65
40 0.15
41 0.15
42 0.15
43 0.15
6 0.5
7 0.5
9 0.18

>  <PUBCHEM_EFFECTIVE_ROTOR_COUNT>  (1) 
6

>  <PUBCHEM_PHARMACOPHORE_FEATURES>  (1) 
4
1 1 acceptor
1 2 cation
5 1 11 14 18 19 rings
6 10 12 13 15 16 17 rings

>  <PUBCHEM_HEAVY_ATOM_COUNT>  (1) 
19

>  <PUBCHEM_ATOM_DEF_STEREO_COUNT>  (1) 
0

>  <PUBCHEM_ATOM_UDEF_STEREO_COUNT>  (1) 
1

>  <PUBCHEM_BOND_DEF_STEREO_COUNT>  (1) 
0

>  <PUBCHEM_BOND_UDEF_STEREO_COUNT>  (1) 
0

>  <PUBCHEM_ISOTOPIC_ATOM_COUNT>  (1) 
0

>  <PUBCHEM_COMPONENT_COUNT>  (1) 
1

>  <PUBCHEM_CACTVS_TAUTO_COUNT>  (1) 
1

>  <PUBCHEM_CONFORMER_ID>  (1) 
000080D000000001

>  <PUBCHEM_MMFF94_ENERGY>  (1) 
60.2917

>  <PUBCHEM_FEATURE_SELFOVERLAP>  (1) 
20.297

>  <PUBCHEM_SHAPE_FINGERPRINT>  (1) 
10090160 65 18190728920791974759
10382601 240 18114176377031905424
10498660 4 18268991054407245485
11221954 11 18339374040321923017
11370993 70 18338223946959669801
11640471 11 18341880922480184789
11725454 13 16700037495713659312
12156800 1 14886330371384690873
12422481 6 17974257990843601178
12633257 1 17240196608235954737
128993 33 18270698539898783885
13122387 1 18339646745081735345
13134695 92 17978226054545006038
14123250 116 18059306430269253457
14251757 17 17840069296443038980
14251764 75 18341629121918982201
14466204 15 18338227181655054394
14713325 29 16525029355186057030
14787075 74 17467631937446623699
14790565 3 18334859442233139828
15420108 30 18126539290017526938
15664445 248 13828973882679685041
15848702 68 18046054961200932357
1601671 61 18339361839027028634
17859628 37 18120089472935030485
17980427 23 17841403987236189043
18186145 218 18201732751019768740
18981168 100 18410857667926150151
192875 21 18118949528427088173
19930381 70 14952088077522674882
20510252 161 18050572042725461083
20671657 1 18339926987391717511
21524375 3 18270121339159420070
21665062 11 17977393728606104283
21731228 192 18334856172944986242
21864079 5 18057892351047155025
22094290 62 18411138004794510686
22749437 52 18411132554428628317
350125 39 18337685198983320731
474 4 18409448064154997885
49207404 50 18188791525183701217
5048184 11 18410020948215443741
526903 126 18341330114858485697
539174 4 17752173288819685730
568465 68 13986037009646798840
5939293 188 18122622743267012965
6328613 192 18336546127525137280
7832392 63 18339362937852711415
9981440 41 18337941406793971923

>  <PUBCHEM_SHAPE_MULTIPOLES>  (1) 
380.16
6.32
3.77
1.38
2.67
0.59
-0.01
-4.98
0.76
-0.88
0.08
-0.13
0.07
-0.31

>  <PUBCHEM_SHAPE_SELFOVERLAP>  (1) 
789.12

>  <PUBCHEM_SHAPE_VOLUME>  (1) 
219.7

>  <PUBCHEM_COORDINATE_TYPE>  (1) 
2
5
10

$$$$
