32971
     RDKit          3D

 25 27  0  0  0  0  0  0  0  0999 V2000
    6.4410    2.0035    0.0014 Cl  0  0  0  0  0  0  0  0  0  0  0  0
   -6.4442    2.0020    0.0005 Cl  0  0  0  0  0  0  0  0  0  0  0  0
    0.0030    0.3376   -0.0015 O   0  0  0  0  0  0  0  0  0  0  0  0
    5.7240   -2.2515    0.0033 O   0  0  0  0  0  0  0  0  0  0  0  0
   -5.7239   -2.2525   -0.0020 O   0  0  0  0  0  0  0  0  0  0  0  0
    7.0439   -0.4974    0.0013 O   0  0  0  0  0  0  0  0  0  0  0  0
   -7.0452   -0.4994    0.0010 O   0  0  0  0  0  0  0  0  0  0  0  0
    0.6953   -1.7897   -0.0006 N   0  0  0  0  0  0  0  0  0  0  0  0
   -0.6871   -1.7904   -0.0006 N   0  0  0  0  0  0  0  0  0  0  0  0
    5.9010   -1.0111    0.0015 N   0  0  0  0  0  0  0  0  0  0  0  0
   -5.9019   -1.0122   -0.0001 N   0  0  0  0  0  0  0  0  0  0  0  0
    2.3578    0.0697   -0.0013 C   0  0  0  0  0  0  0  0  0  0  0  0
   -2.3515    0.0677    0.0001 C   0  0  0  0  0  0  0  0  0  0  0  0
    1.0461   -0.5308   -0.0013 C   0  0  0  0  0  0  0  0  0  0  0  0
   -1.0473   -0.5281   -0.0010 C   0  0  0  0  0  0  0  0  0  0  0  0
    3.4957   -0.7372   -0.0009 C   0  0  0  0  0  0  0  0  0  0  0  0
   -3.4967   -0.7364    0.0005 C   0  0  0  0  0  0  0  0  0  0  0  0
    2.4875    1.4584   -0.0017 C   0  0  0  0  0  0  0  0  0  0  0  0
   -2.4903    1.4599    0.0004 C   0  0  0  0  0  0  0  0  0  0  0  0
    4.7634   -0.1552   -0.0008 C   0  0  0  0  0  0  0  0  0  0  0  0
   -4.7649   -0.1553    0.0013 C   0  0  0  0  0  0  0  0  0  0  0  0
    3.7551    2.0404   -0.0016 C   0  0  0  0  0  0  0  0  0  0  0  0
   -3.7583    2.0410    0.0014 C   0  0  0  0  0  0  0  0  0  0  0  0
    4.8931    1.2337   -0.0010 C   0  0  0  0  0  0  0  0  0  0  0  0
   -4.8957    1.2334    0.0017 C   0  0  0  0  0  0  0  0  0  0  0  0
  1 24  1  0
  2 25  1  0
  3 14  1  0
  3 15  1  0
  4 10  1  0
  5 11  1  0
  6 10  2  0
  7 11  2  0
  8  9  1  0
  8 14  2  0
  9 15  2  0
 10 20  1  0
 11 21  1  0
 12 14  1  0
 12 16  2  0
 12 18  1  0
 13 15  1  0
 13 17  2  0
 13 19  1  0
 16 20  1  0
 17 21  1  0
 18 22  2  0
 19 23  2  0
 20 24  2  0
 21 25  2  0
 22 24  1  0
 23 25  1  0
M  CHG  4   4  -1   5  -1  10   1  11   1
M  END
>  <PUBCHEM_COMPOUND_CID>  (1) 
32971

>  <PUBCHEM_CONFORMER_RMSD>  (1) 
0.8

>  <PUBCHEM_CONFORMER_DIVERSEORDER>  (1) 
3
1
2

>  <PUBCHEM_MMFF94_PARTIAL_CHARGES>  (1) 
31
1 -0.18
10 0.91
11 0.91
12 0.05
13 0.05
14 0.43
15 0.43
16 -0.15
17 -0.15
18 -0.15
19 -0.15
2 -0.18
20 0.13
21 0.13
22 -0.15
23 -0.15
24 0.18
25 0.18
26 0.15
27 0.15
28 0.15
29 0.15
3 -0.28
30 0.15
31 0.15
4 -0.52
5 -0.52
6 -0.52
7 -0.52
8 -0.34
9 -0.34

>  <PUBCHEM_EFFECTIVE_ROTOR_COUNT>  (1) 
4

>  <PUBCHEM_PHARMACOPHORE_FEATURES>  (1) 
9
1 4 acceptor
1 4 anion
1 5 acceptor
1 5 anion
1 6 acceptor
1 7 acceptor
5 3 8 9 14 15 rings
6 12 16 18 20 22 24 rings
6 13 17 19 21 23 25 rings

>  <PUBCHEM_HEAVY_ATOM_COUNT>  (1) 
25

>  <PUBCHEM_ATOM_DEF_STEREO_COUNT>  (1) 
0

>  <PUBCHEM_ATOM_UDEF_STEREO_COUNT>  (1) 
0

>  <PUBCHEM_BOND_DEF_STEREO_COUNT>  (1) 
0

>  <PUBCHEM_BOND_UDEF_STEREO_COUNT>  (1) 
0

>  <PUBCHEM_ISOTOPIC_ATOM_COUNT>  (1) 
0

>  <PUBCHEM_COMPONENT_COUNT>  (1) 
1

>  <PUBCHEM_CACTVS_TAUTO_COUNT>  (1) 
1

>  <PUBCHEM_CONFORMER_ID>  (1) 
000080CB00000003

>  <PUBCHEM_MMFF94_ENERGY>  (1) 
81.4477

>  <PUBCHEM_FEATURE_SELFOVERLAP>  (1) 
45.836

>  <PUBCHEM_SHAPE_FINGERPRINT>  (1) 
10 15 18262231240193919240
10366900 7 16226046686674187208
10595046 47 18410855464549788209
10763959 59 17676482835085839908
11315181 36 18113339726277389485
11524674 6 16343985840752121567
11719270 70 18059853935393840086
12107183 9 17687741640885577177
12166972 35 18335704961467692348
12236239 1 18410573985151496613
12916748 109 18410856572873032992
13073987 5 18412544310510964192
13167372 99 18341615884422879152
13533116 47 18273495672316385626
13631057 29 18341610473792727659
13785724 45 17834674894998089050
14251764 18 18333448755718440768
14341114 176 18335143098071853464
14933364 13 18410576188469868865
15183329 4 18341055138283286408
15196674 1 18410855464423518852
1577012 14 18410856564024849972
15778101 99 18340489968174917785
17844677 252 18411426102378871592
18335252 98 18337396061811250083
18681886 176 18412538829694669416
19489759 90 17676487255192183945
19611394 137 18042419096098253531
20281389 69 18407759244096040216
21130935 74 18413670197269420826
21236236 1 18411419523258867075
21267235 1 18410860961981326438
21279426 13 18339079281380826172
21315763 129 18411419501225231765
21315763 28 18411135835593426567
21315764 268 18408317800535632652
21709351 56 18334007290129140157
23402539 116 18413385436779359045
23536379 177 18412262830774783242
23559900 14 18339072804971310729
23569943 247 17315344839613655346
3004659 81 18408324368230925400
335352 9 18410576176671592294
34797466 226 17560529494599204268
350125 39 18410573967987666084
3545911 37 18410856563955979316
4073 2 18041284373949029802
4214541 1 18410856551445688741
4325135 7 18342174479927847655
4340502 62 14405186162382327260
5104073 3 18409167705521592921
54446538 1 18410855460128447617
59755656 215 18409451345251880686
59755656 520 17967247620184273155
7495541 125 17560516308690474195
9996256 80 18412544327284540919

>  <PUBCHEM_SHAPE_MULTIPOLES>  (1) 
468.96
19.61
2.33
0.59
0.04
0.15
0
1.56
-0.01
0
0
0
0.05
0

>  <PUBCHEM_SHAPE_SELFOVERLAP>  (1) 
1023.074

>  <PUBCHEM_SHAPE_VOLUME>  (1) 
258.4

>  <PUBCHEM_COORDINATE_TYPE>  (1) 
2
5
10

$$$$
