32978
     RDKit          3D

 19 20  0  0  1  0  0  0  0  0999 V2000
    3.2388    0.9506   -1.0707 O   0  0  0  0  0  0  0  0  0  0  0  0
   -0.5295   -0.7243    0.8895 N   0  0  0  0  0  0  0  0  0  0  0  0
    0.9470   -0.8399    0.9366 C   0  0  0  0  0  0  0  0  0  0  0  0
    1.5314   -1.3616   -0.3855 C   0  0  0  0  0  0  0  0  0  0  0  0
   -0.9664    0.2748   -0.1918 C   0  0  0  0  0  0  0  0  0  0  0  0
   -1.1751   -2.0810    0.5715 C   0  0  0  0  0  0  0  0  0  0  0  0
   -1.0835   -0.2386    2.2371 C   0  0  0  0  0  0  0  0  0  0  0  0
    3.0746   -1.3638   -0.4455 C   0  0  0  0  0  0  0  0  0  0  0  0
    1.0035   -2.7632   -0.7159 C   0  0  0  0  0  0  0  0  0  0  0  0
   -2.4539    0.4603   -0.2544 C   0  0  0  0  0  0  0  0  0  0  0  0
    3.6831    0.0024   -0.2330 C   0  0  0  0  0  0  0  0  0  0  0  0
   -3.2153   -0.3561   -1.0836 C   0  0  0  0  0  0  0  0  0  0  0  0
   -3.0582    1.4464    0.5176 C   0  0  0  0  0  0  0  0  0  0  0  0
    4.5977    0.4522    0.6487 C   0  0  0  0  0  0  0  0  0  0  0  0
   -4.5983   -0.1839   -1.1417 C   0  0  0  0  0  0  0  0  0  0  0  0
   -4.4413    1.6183    0.4595 C   0  0  0  0  0  0  0  0  0  0  0  0
    4.7522    1.8252    0.3423 C   0  0  0  0  0  0  0  0  0  0  0  0
   -5.2112    0.8031   -0.3702 C   0  0  0  0  0  0  0  0  0  0  0  0
    3.9043    2.0794   -0.7105 C   0  0  0  0  0  0  0  0  0  0  0  0
  1 11  1  0
  1 19  1  0
  2  3  1  0
  2  5  1  0
  2  6  1  0
  2  7  1  0
  3  4  1  0
  4  8  1  0
  4  9  1  0
  5 10  1  0
  8 11  1  0
 10 12  2  0
 10 13  1  0
 11 14  2  0
 12 15  1  0
 13 16  2  0
 14 17  1  0
 15 18  2  0
 16 18  1  0
 17 19  2  0
M  CHG  1   2   1
M  END
>  <PUBCHEM_COMPOUND_CID>  (1) 
32978

>  <PUBCHEM_CONFORMER_RMSD>  (1) 
0.8

>  <PUBCHEM_CONFORMER_DIVERSEORDER>  (1) 
5
13
10
19
2
12
15
18
7
11
16
8
9
17
14
3
6
1
4

>  <PUBCHEM_MMFF94_PARTIAL_CHARGES>  (1) 
25
1 -0.28
10 -0.14
11 -0.04
12 -0.15
13 -0.15
14 -0.15
15 -0.15
16 -0.15
17 -0.15
18 -0.15
19 -0.01
2 -1.01
3 0.5
36 0.15
37 0.15
38 0.15
39 0.15
40 0.15
41 0.15
42 0.15
43 0.15
5 0.65
6 0.5
7 0.5
8 0.18

>  <PUBCHEM_EFFECTIVE_ROTOR_COUNT>  (1) 
6

>  <PUBCHEM_PHARMACOPHORE_FEATURES>  (1) 
5
1 1 acceptor
1 2 cation
1 9 hydrophobe
5 1 11 14 17 19 rings
6 10 12 13 15 16 18 rings

>  <PUBCHEM_HEAVY_ATOM_COUNT>  (1) 
19

>  <PUBCHEM_ATOM_DEF_STEREO_COUNT>  (1) 
0

>  <PUBCHEM_ATOM_UDEF_STEREO_COUNT>  (1) 
1

>  <PUBCHEM_BOND_DEF_STEREO_COUNT>  (1) 
0

>  <PUBCHEM_BOND_UDEF_STEREO_COUNT>  (1) 
0

>  <PUBCHEM_ISOTOPIC_ATOM_COUNT>  (1) 
0

>  <PUBCHEM_COMPONENT_COUNT>  (1) 
1

>  <PUBCHEM_CACTVS_TAUTO_COUNT>  (1) 
1

>  <PUBCHEM_CONFORMER_ID>  (1) 
000080D200000005

>  <PUBCHEM_MMFF94_ENERGY>  (1) 
71.3928

>  <PUBCHEM_FEATURE_SELFOVERLAP>  (1) 
25.371

>  <PUBCHEM_SHAPE_FINGERPRINT>  (1) 
10498660 4 18268441290256890204
11140007 195 14129051479245640970
11543360 7 18201718427535880175
11725454 13 17676756626307645135
11759241 127 18409444756887781621
12403259 327 16805320024682216720
12553582 1 8430321195453123064
12596602 18 13262685837367838444
12616999 72 16917066620664125926
12633257 1 16660921188334104260
12670546 177 17632857533662741581
12714826 92 12175631641631871370
12788726 201 16199877146471495155
12892183 10 11459009588168760927
13544653 18 11312057659913602200
13583140 156 17022903475254688945
13675066 3 15068618279699302690
13914758 101 8214150630059201403
14251757 5 16773225327179851311
14251764 30 12823297943839874981
14251764 38 18189619530196021060
14251764 75 18118418468801979876
14366163 111 17775282746665519329
14528608 73 18343581845498987781
15664445 248 14620506818573728738
15885798 251 8718834197295274654
16752209 62 14764065589267339627
17834072 32 18263086690083488772
17959699 21 18343021064540954577
18186145 218 18114747023044721895
20291156 8 9007067855054941758
20871999 31 14692583112656325754
21033648 144 18187355562997806340
21033648 29 16298655118904747804
212916 134 16008744710502828537
22079108 93 17894641335831921689
22950370 63 9007063486909703728
23175994 123 13542455480582004611
23227448 37 18335421321916459975
235170 7 15985110703801081604
23557571 272 17896908566851658771
23559900 14 18339360769380056306
24859131 72 11241968166405029259
2838139 119 18334850637001608876
2871803 45 13110969716908876900
3004659 81 17488744450263701718
328317 168 18410009957266818100
34797466 226 17060059284846556893
351380 180 18187077356544143276
351380 3 9943811096901151572
4072396 5 14056720119808061871
4325135 7 18335418010934745383
4340502 62 16732702727728133635
43658 37 18341891930966687104
465052 167 8214136391108900729
474 4 18334296465602358492
633830 44 18266459815531730559
67856867 119 18270109115846155906
6913067 236 16225764130072326783
8509985 295 14707211010883165335
88748 71 11598913617020477924
94968 8 10735878366108776684
960060 61 11959726088320366480

>  <PUBCHEM_SHAPE_MULTIPOLES>  (1) 
380.16
10.96
2.29
1.3
0.71
0.64
0.48
-6.98
-2.12
-1.47
-0.23
0.43
0.11
-0.29

>  <PUBCHEM_SHAPE_SELFOVERLAP>  (1) 
788.278

>  <PUBCHEM_SHAPE_VOLUME>  (1) 
219.7

>  <PUBCHEM_COORDINATE_TYPE>  (1) 
2
5
10

$$$$
