3297
     RDKit          3D

  9  8  0  0  1  0  0  0  0  0999 V2000
    1.7425    2.2516   -0.0409 S   0  0  0  0  0  0  0  0  0  0  0  0
   -1.1192   -0.0362    0.4008 O   0  0  0  0  0  0  0  0  0  0  0  0
   -0.0018   -0.6404   -1.5236 O   0  0  0  0  0  0  0  0  0  0  0  0
    1.6963   -1.7870    0.5843 N   0  0  0  0  0  0  0  0  0  0  0  0
    1.2032   -0.4075    0.5798 C   0  0  0  0  0  0  0  0  0  0  0  0
    2.2996    0.5209    0.0551 C   0  0  0  0  0  0  0  0  0  0  0  0
   -0.0176   -0.3921   -0.3243 C   0  0  0  0  0  0  0  0  0  0  0  0
   -2.3435    0.0440   -0.3358 C   0  0  0  0  0  0  0  0  0  0  0  0
   -3.4594    0.4467    0.6045 C   0  0  0  0  0  0  0  0  0  0  0  0
  1  6  1  0
  2  7  1  0
  2  8  1  0
  3  7  2  0
  4  5  1  0
  5  6  1  0
  5  7  1  0
  8  9  1  0
M  END
>  <PUBCHEM_COMPOUND_CID>  (1) 
3297

>  <PUBCHEM_CONFORMER_RMSD>  (1) 
0.6

>  <PUBCHEM_CONFORMER_DIVERSEORDER>  (1) 
1
14
72
54
75
11
53
48
47
67
68
35
39
73
77
63
61
15
32
45
69
12
46
76
33
70
43
60
26
64
8
71
37
80
3
42
59
50
56
41
4
81
38
21
2
74
13
44
30
24
62
78
40
34
19
66
5
20
18
28
29
55
65
31
6
52
16
36
49
51
7
17
58
22
9
79
57
23
27
10
25

>  <PUBCHEM_MMFF94_PARTIAL_CHARGES>  (1) 
11
1 -0.41
15 0.36
16 0.36
2 -0.43
20 0.18
3 -0.57
4 -0.99
5 0.33
6 0.23
7 0.66
8 0.28

>  <PUBCHEM_EFFECTIVE_ROTOR_COUNT>  (1) 
4

>  <PUBCHEM_PHARMACOPHORE_FEATURES>  (1) 
3
1 3 acceptor
1 4 cation
1 4 donor

>  <PUBCHEM_HEAVY_ATOM_COUNT>  (1) 
9

>  <PUBCHEM_ATOM_DEF_STEREO_COUNT>  (1) 
0

>  <PUBCHEM_ATOM_UDEF_STEREO_COUNT>  (1) 
1

>  <PUBCHEM_BOND_DEF_STEREO_COUNT>  (1) 
0

>  <PUBCHEM_BOND_UDEF_STEREO_COUNT>  (1) 
0

>  <PUBCHEM_ISOTOPIC_ATOM_COUNT>  (1) 
0

>  <PUBCHEM_COMPONENT_COUNT>  (1) 
1

>  <PUBCHEM_CACTVS_TAUTO_COUNT>  (1) 
1

>  <PUBCHEM_CONFORMER_ID>  (1) 
00000CE100000001

>  <PUBCHEM_MMFF94_ENERGY>  (1) 
7.153

>  <PUBCHEM_FEATURE_SELFOVERLAP>  (1) 
15.223

>  <PUBCHEM_SHAPE_FINGERPRINT>  (1) 
10857977 72 15791726425569866245
12932764 1 18260268529895662007
14390081 3 18340769350843016369
15775835 57 18199472240896856385
20653085 51 17842010058877669692
21040471 1 16702292464611880399
29004967 10 17968370161141242850
3248919 1 17703509900912557335
5084963 1 18131347492592514547

>  <PUBCHEM_SHAPE_MULTIPOLES>  (1) 
172.35
4.29
1.71
0.95
3.78
0.49
0.25
1.48
-0.84
-1.58
-0.15
0.1
-0.17
-0.35

>  <PUBCHEM_SHAPE_SELFOVERLAP>  (1) 
307.338

>  <PUBCHEM_SHAPE_VOLUME>  (1) 
113.8

>  <PUBCHEM_COORDINATE_TYPE>  (1) 
2
5
10

$$$$
