32985
     RDKit          3D

 12 12  0  0  1  0  0  0  0  0999 V2000
   -1.8256   -0.0272   -1.0413 O   0  0  0  0  0  0  0  0  0  0  0  0
    2.6570    0.5747    0.0887 N   0  0  0  0  0  0  0  0  0  0  0  0
    0.8306   -1.0939   -0.2031 C   0  0  0  0  0  0  0  0  0  0  0  0
    1.3550    0.1291    0.5770 C   0  0  0  0  0  0  0  0  0  0  0  0
   -0.5527   -1.5456    0.3181 C   0  0  0  0  0  0  0  0  0  0  0  0
    1.8075   -2.2746   -0.1094 C   0  0  0  0  0  0  0  0  0  0  0  0
   -1.6137   -0.4760    0.2042 C   0  0  0  0  0  0  0  0  0  0  0  0
    3.1437    1.7041    0.8816 C   0  0  0  0  0  0  0  0  0  0  0  0
    2.5768    0.9423   -1.3254 C   0  0  0  0  0  0  0  0  0  0  0  0
   -2.3944    0.1176    1.1281 C   0  0  0  0  0  0  0  0  0  0  0  0
   -3.1839    1.0380    0.3983 C   0  0  0  0  0  0  0  0  0  0  0  0
   -2.8003    0.9116   -0.9166 C   0  0  0  0  0  0  0  0  0  0  0  0
  1  7  1  0
  1 12  1  0
  2  4  1  0
  2  8  1  0
  2  9  1  0
  3  4  1  0
  3  5  1  0
  3  6  1  0
  5  7  1  0
  7 10  2  0
 10 11  1  0
 11 12  2  0
M  END
>  <PUBCHEM_COMPOUND_CID>  (1) 
32985

>  <PUBCHEM_CONFORMER_RMSD>  (1) 
0.6

>  <PUBCHEM_CONFORMER_DIVERSEORDER>  (1) 
1
7
34
24
29
22
18
33
38
6
12
28
23
42
40
35
5
2
15
14
10
30
20
8
41
39
36
19
3
25
26
27
37
9
16
11
31
32
4
17
21
13

>  <PUBCHEM_MMFF94_PARTIAL_CHARGES>  (1) 
13
1 -0.28
10 -0.15
11 -0.15
12 -0.01
2 -0.81
27 0.15
28 0.15
29 0.15
4 0.27
5 0.18
7 -0.04
8 0.27
9 0.27

>  <PUBCHEM_EFFECTIVE_ROTOR_COUNT>  (1) 
4

>  <PUBCHEM_PHARMACOPHORE_FEATURES>  (1) 
4
1 1 acceptor
1 2 cation
1 6 hydrophobe
5 1 7 10 11 12 rings

>  <PUBCHEM_HEAVY_ATOM_COUNT>  (1) 
12

>  <PUBCHEM_ATOM_DEF_STEREO_COUNT>  (1) 
0

>  <PUBCHEM_ATOM_UDEF_STEREO_COUNT>  (1) 
1

>  <PUBCHEM_BOND_DEF_STEREO_COUNT>  (1) 
0

>  <PUBCHEM_BOND_UDEF_STEREO_COUNT>  (1) 
0

>  <PUBCHEM_ISOTOPIC_ATOM_COUNT>  (1) 
0

>  <PUBCHEM_COMPONENT_COUNT>  (1) 
1

>  <PUBCHEM_CACTVS_TAUTO_COUNT>  (1) 
1

>  <PUBCHEM_CONFORMER_ID>  (1) 
000080D900000001

>  <PUBCHEM_MMFF94_ENERGY>  (1) 
16.0623

>  <PUBCHEM_FEATURE_SELFOVERLAP>  (1) 
20.297

>  <PUBCHEM_SHAPE_FINGERPRINT>  (1) 
10857977 72 16733284360689162651
11031198 65 18341901778967994235
11127187 94 12247687075649473937
12696612 119 17022912284274888932
12932764 1 18272940414037500567
13380535 21 18337688467558999547
13764800 53 18336559316477543025
15276787 5 15647592485503382680
15775835 57 18273210898103327373
17357990 137 17201656445191636091
18186145 218 18059585727771124728
20645464 45 17676768691123850891
20653085 51 17274838955599341193
20671657 1 18341051822199476566
20715346 28 17895482431793205179
21028194 46 18336547208922569762
21130352 189 18044934576095466182
21524375 3 18337103579091815978
21947302 44 18334861571534410314
22096605 113 18339349804111511703
230 275 18113898230269733494
25 1 18342747303567977152
305870 269 18409721889937450786
369184 2 15574711417686297529
549884 4 17561084704472737152
7364860 26 18270962328395354934
8050 44 18340480157546330753
81228 2 17546451536532392338

>  <PUBCHEM_SHAPE_MULTIPOLES>  (1) 
236.1
5.54
1.91
1.13
0.41
0.72
-0.14
-3.05
0.1
-1.37
0.09
-0.01
-0.35
0.34

>  <PUBCHEM_SHAPE_SELFOVERLAP>  (1) 
467.411

>  <PUBCHEM_SHAPE_VOLUME>  (1) 
144.4

>  <PUBCHEM_COORDINATE_TYPE>  (1) 
2
5
10

$$$$
