32984
     RDKit          3D

 12 12  0  0  1  0  0  0  0  0999 V2000
   -2.0318   -0.9694   -0.2285 O   0  0  0  0  0  0  0  0  0  0  0  0
    2.6246   -0.4691    0.3773 N   0  0  0  0  0  0  0  0  0  0  0  0
    2.1084    0.4551   -0.6328 C   0  0  0  0  0  0  0  0  0  0  0  0
    0.5901    0.2749   -0.8175 C   0  0  0  0  0  0  0  0  0  0  0  0
   -0.2474    0.4888    0.4524 C   0  0  0  0  0  0  0  0  0  0  0  0
    2.4293    1.8926   -0.2224 C   0  0  0  0  0  0  0  0  0  0  0  0
   -1.7225    0.2418    0.2595 C   0  0  0  0  0  0  0  0  0  0  0  0
    4.0737   -0.3247    0.5081 C   0  0  0  0  0  0  0  0  0  0  0  0
    2.2766   -1.8471    0.0339 C   0  0  0  0  0  0  0  0  0  0  0  0
   -2.8038    1.0164    0.4865 C   0  0  0  0  0  0  0  0  0  0  0  0
   -3.9097    0.2196    0.1056 C   0  0  0  0  0  0  0  0  0  0  0  0
   -3.3876   -0.9789   -0.3220 C   0  0  0  0  0  0  0  0  0  0  0  0
  1  7  1  0
  1 12  1  0
  2  3  1  0
  2  8  1  0
  2  9  1  0
  3  4  1  0
  3  6  1  0
  4  5  1  0
  5  7  1  0
  7 10  2  0
 10 11  1  0
 11 12  2  0
M  END
>  <PUBCHEM_COMPOUND_CID>  (1) 
32984

>  <PUBCHEM_CONFORMER_RMSD>  (1) 
0.6

>  <PUBCHEM_CONFORMER_DIVERSEORDER>  (1) 
3
31
21
17
8
35
10
34
39
7
37
27
19
25
16
9
24
14
26
5
15
28
40
22
12
23
36
29
38
4
6
18
11
30
1
20
32
13
33
2

>  <PUBCHEM_MMFF94_PARTIAL_CHARGES>  (1) 
13
1 -0.28
10 -0.15
11 -0.15
12 -0.01
2 -0.81
27 0.15
28 0.15
29 0.15
3 0.27
5 0.18
7 -0.04
8 0.27
9 0.27

>  <PUBCHEM_EFFECTIVE_ROTOR_COUNT>  (1) 
4

>  <PUBCHEM_PHARMACOPHORE_FEATURES>  (1) 
3
1 1 acceptor
1 2 cation
5 1 7 10 11 12 rings

>  <PUBCHEM_HEAVY_ATOM_COUNT>  (1) 
12

>  <PUBCHEM_ATOM_DEF_STEREO_COUNT>  (1) 
0

>  <PUBCHEM_ATOM_UDEF_STEREO_COUNT>  (1) 
1

>  <PUBCHEM_BOND_DEF_STEREO_COUNT>  (1) 
0

>  <PUBCHEM_BOND_UDEF_STEREO_COUNT>  (1) 
0

>  <PUBCHEM_ISOTOPIC_ATOM_COUNT>  (1) 
0

>  <PUBCHEM_COMPONENT_COUNT>  (1) 
1

>  <PUBCHEM_CACTVS_TAUTO_COUNT>  (1) 
1

>  <PUBCHEM_CONFORMER_ID>  (1) 
000080D800000003

>  <PUBCHEM_MMFF94_ENERGY>  (1) 
16.1146

>  <PUBCHEM_FEATURE_SELFOVERLAP>  (1) 
15.223

>  <PUBCHEM_SHAPE_FINGERPRINT>  (1) 
10922523 26 17968094183933713453
11062470 55 17989205932310071361
12162725 195 18413393146003204849
12251169 10 18413107251425798068
12932764 1 18336840744183492757
14144814 61 18411422799717585705
14251717 144 18334292063440370946
14325111 11 18410295834790774405
15669948 3 17845653780292789431
177051 138 18202284684334661638
18186145 218 17313101960362055353
19050596 39 18342177790820170513
20201158 50 18187647985688210394
20279233 1 16008749134250636441
20559304 39 18342462538672951208
20645477 70 18334574642192073759
20871998 22 18265615369258656958
21501925 9 18412821391377194360
2255824 54 18187935014347603172
23402539 116 18131060503616702949
23463225 33 18412827954108393215
3248919 1 17458351887297869133
42 15 18261115162328110321
57812782 119 18259702293986219493
58051976 100 18409450276221352703
581208 293 18334575746177769898
7364860 26 18342461447962092308
9709674 26 18411143549518740223

>  <PUBCHEM_SHAPE_MULTIPOLES>  (1) 
236.1
7.43
1.52
0.79
1.2
0.04
-0.04
0.76
0.71
-0.87
-0.05
-0.12
-0.05
-0.52

>  <PUBCHEM_SHAPE_SELFOVERLAP>  (1) 
468.387

>  <PUBCHEM_SHAPE_VOLUME>  (1) 
143.7

>  <PUBCHEM_COORDINATE_TYPE>  (1) 
2
5
10

$$$$
