32980
     RDKit          3D

 20 21  0  0  1  0  0  0  0  0999 V2000
   -4.7635    0.3433   -0.3386 O   0  0  0  0  0  0  0  0  0  0  0  0
    0.6016   -0.0732   -1.0412 N   0  0  0  0  0  0  0  0  0  0  0  0
   -0.8806   -0.1304   -1.0350 C   0  0  0  0  0  0  0  0  0  0  0  0
   -1.3884   -1.1126    0.0337 C   0  0  0  0  0  0  0  0  0  0  0  0
    1.1392    0.3094    0.3449 C   0  0  0  0  0  0  0  0  0  0  0  0
   -0.7977   -2.5366   -0.0964 C   0  0  0  0  0  0  0  0  0  0  0  0
   -2.9354   -1.1703    0.0368 C   0  0  0  0  0  0  0  0  0  0  0  0
    1.1988   -1.4346   -1.4246 C   0  0  0  0  0  0  0  0  0  0  0  0
    1.1032    0.9686   -2.0511 C   0  0  0  0  0  0  0  0  0  0  0  0
    2.6349    0.4199    0.3854 C   0  0  0  0  0  0  0  0  0  0  0  0
   -1.2393   -3.5233    0.9760 C   0  0  0  0  0  0  0  0  0  0  0  0
   -3.5809    0.1771    0.2697 C   0  0  0  0  0  0  0  0  0  0  0  0
    3.3999   -0.6987    0.6968 C   0  0  0  0  0  0  0  0  0  0  0  0
    3.2430    1.6400    0.1117 C   0  0  0  0  0  0  0  0  0  0  0  0
   -3.1860    1.2508    0.9801 C   0  0  0  0  0  0  0  0  0  0  0  0
    4.7905   -0.5959    0.7350 C   0  0  0  0  0  0  0  0  0  0  0  0
    4.6335    1.7428    0.1497 C   0  0  0  0  0  0  0  0  0  0  0  0
   -4.2221    2.1994    0.8078 C   0  0  0  0  0  0  0  0  0  0  0  0
   -5.1581    1.5994   -0.0021 C   0  0  0  0  0  0  0  0  0  0  0  0
    5.4073    0.6248    0.4614 C   0  0  0  0  0  0  0  0  0  0  0  0
  1 12  1  0
  1 19  1  0
  2  3  1  0
  2  5  1  0
  2  8  1  0
  2  9  1  0
  3  4  1  0
  4  6  1  0
  4  7  1  0
  5 10  1  0
  6 11  1  0
  7 12  1  0
 10 13  2  0
 10 14  1  0
 12 15  2  0
 13 16  1  0
 14 17  2  0
 15 18  1  0
 16 20  2  0
 17 20  1  0
 18 19  2  0
M  CHG  1   2   1
M  END
>  <PUBCHEM_COMPOUND_CID>  (1) 
32980

>  <PUBCHEM_CONFORMER_RMSD>  (1) 
0.8

>  <PUBCHEM_CONFORMER_DIVERSEORDER>  (1) 
1
35
49
41
6
9
50
16
51
28
46
22
11
13
3
10
42
37
52
27
38
30
26
40
45
4
17
14
31
5
12
48
19
21
8
25
20
36
18
34
7
44
39
47
2
15
33
43
29
24
32
23

>  <PUBCHEM_MMFF94_PARTIAL_CHARGES>  (1) 
25
1 -0.28
10 -0.14
12 -0.04
13 -0.15
14 -0.15
15 -0.15
16 -0.15
17 -0.15
18 -0.15
19 -0.01
2 -1.01
20 -0.15
3 0.5
39 0.15
40 0.15
41 0.15
42 0.15
43 0.15
44 0.15
45 0.15
46 0.15
5 0.65
7 0.18
8 0.5
9 0.5

>  <PUBCHEM_EFFECTIVE_ROTOR_COUNT>  (1) 
7

>  <PUBCHEM_PHARMACOPHORE_FEATURES>  (1) 
5
1 1 acceptor
1 11 hydrophobe
1 2 cation
5 1 12 15 18 19 rings
6 10 13 14 16 17 20 rings

>  <PUBCHEM_HEAVY_ATOM_COUNT>  (1) 
20

>  <PUBCHEM_ATOM_DEF_STEREO_COUNT>  (1) 
0

>  <PUBCHEM_ATOM_UDEF_STEREO_COUNT>  (1) 
1

>  <PUBCHEM_BOND_DEF_STEREO_COUNT>  (1) 
0

>  <PUBCHEM_BOND_UDEF_STEREO_COUNT>  (1) 
0

>  <PUBCHEM_ISOTOPIC_ATOM_COUNT>  (1) 
0

>  <PUBCHEM_COMPONENT_COUNT>  (1) 
1

>  <PUBCHEM_CACTVS_TAUTO_COUNT>  (1) 
1

>  <PUBCHEM_CONFORMER_ID>  (1) 
000080D400000001

>  <PUBCHEM_MMFF94_ENERGY>  (1) 
80.2514

>  <PUBCHEM_FEATURE_SELFOVERLAP>  (1) 
25.371

>  <PUBCHEM_SHAPE_FINGERPRINT>  (1) 
10042902 136 12324831036347654769
11089746 13 18059564815654663752
11128504 68 11671773879856893640
11370993 144 18407757049821198802
11370993 70 18411982438341048683
11552529 35 18120085349962098610
12077114 3 18130790108895791586
12107183 9 18265326218996183746
12500047 106 18340484568646444962
12596602 18 17894351102952950489
12633257 1 18261659412268621530
12670546 177 9007065673079608568
12788726 201 17682983324218556131
12892183 10 18264488567060509626
13103583 49 14779558833616691877
13583140 156 17488739116188483410
14123255 352 18272651246769289401
14178342 30 18187936143449891250
14251732 17 18341332197474324075
14251764 30 13768210454322388232
14251764 38 17916031161365342753
14739800 52 18051134984437926164
15209294 21 18410571781986209175
15238133 3 18411986858242555004
15527383 91 15502378932614099965
15842332 3 17388557169583436391
17980427 23 18412263977985174293
17980427 26 18197772202952677343
1813 80 16298384652388289086
19141452 34 18186795915964282650
200 152 10663821892598292568
20388580 30 9150588215962026907
21033648 29 18116129156516889597
21150785 3 8286200604957165032
212916 134 18342444937633170195
21403212 168 18263631879761286307
21524375 3 18272649026518883303
22950370 63 8574425444004598329
231179 274 17203894067508226556
23402539 116 18272642468119705245
23419403 2 17100856436304486575
23503953 91 18335127735654246616
23559900 14 18058742303647708838
23622692 88 17821449075204700831
2838139 119 17274814723278267593
351380 180 18131066022132635601
4280585 95 8714671450927146368
474 4 18342738473157544443
5104073 3 18116982472856765896
56616090 46 18411424985940562934
58807428 26 18260269607806229595
59755656 520 18410284822811496343
6328613 192 18336273413996685748
633830 44 18200313204509985927
8272917 22 18271806779332654710
90127 26 17915745473716343144
9981440 41 18273498978977512707

>  <PUBCHEM_SHAPE_MULTIPOLES>  (1) 
400.74
11.08
2.7
1.24
1.48
1.96
0.54
-7.04
-3.12
-1.86
-0.68
0.25
0.01
-0.33

>  <PUBCHEM_SHAPE_SELFOVERLAP>  (1) 
827.087

>  <PUBCHEM_SHAPE_VOLUME>  (1) 
232

>  <PUBCHEM_COORDINATE_TYPE>  (1) 
2
5
10

$$$$
