3298
     RDKit          3D

 24 23  0  0  0  0  0  0  0  0999 V2000
    5.3682    0.2217    0.0000 O   0  0  0  0  0  0  0  0  0  0  0  0
    3.7207   -0.1344   -1.5753 O   0  0  0  0  0  0  0  0  0  0  0  0
    2.1253    1.9369   -0.5137 C   0  0  0  0  0  0  0  0  0  0  0  0
    1.4204    3.0520    0.2599 C   0  0  0  0  0  0  0  0  0  0  0  0
    3.4711    1.5897    0.1220 C   0  0  0  0  0  0  0  0  0  0  0  0
    0.0818    3.3723   -0.3375 C   0  0  0  0  0  0  0  0  0  0  0  0
   -1.0805    3.2257    0.3161 C   0  0  0  0  0  0  0  0  0  0  0  0
   -2.4186    3.5513   -0.2806 C   0  0  0  0  0  0  0  0  0  0  0  0
    4.1666    0.4611   -0.6041 C   0  0  0  0  0  0  0  0  0  0  0  0
   -3.3221    2.3516   -0.3022 C   0  0  0  0  0  0  0  0  0  0  0  0
   -5.4657    1.1411    0.3984 C   0  0  0  0  0  0  0  0  0  0  0  0
   -4.4847    2.2839    0.3667 C   0  0  0  0  0  0  0  0  0  0  0  0
   -4.4874   -2.4865   -0.6804 C   0  0  0  0  0  0  0  0  0  0  0  0
   -5.0769   -0.0682   -0.4016 C   0  0  0  0  0  0  0  0  0  0  0  0
   -4.8837   -1.2858    0.1278 C   0  0  0  0  0  0  0  0  0  0  0  0
   -0.7890   -3.7430   -0.5271 C   0  0  0  0  0  0  0  0  0  0  0  0
    6.1517   -0.8264   -0.5797 C   0  0  0  0  0  0  0  0  0  0  0  0
   -3.1794   -3.0550   -0.2137 C   0  0  0  0  0  0  0  0  0  0  0  0
   -2.0922   -3.1628   -0.9925 C   0  0  0  0  0  0  0  0  0  0  0  0
    0.1457   -2.6773   -0.0335 C   0  0  0  0  0  0  0  0  0  0  0  0
    1.6268   -1.6220    1.6947 C   0  0  0  0  0  0  0  0  0  0  0  0
    0.6865   -2.6776    1.1941 C   0  0  0  0  0  0  0  0  0  0  0  0
    7.4426   -0.9653    0.1984 C   0  0  0  0  0  0  0  0  0  0  0  0
    0.8730   -0.4832    2.3638 C   0  0  0  0  0  0  0  0  0  0  0  0
  1  9  1  0
  1 17  1  0
  2  9  2  0
  3  4  1  0
  3  5  1  0
  4  6  1  0
  5  9  1  0
  6  7  2  0
  7  8  1  0
  8 10  1  0
 10 12  2  0
 11 12  1  0
 11 14  1  0
 13 15  1  0
 13 18  1  0
 14 15  2  0
 16 19  1  0
 16 20  1  0
 17 23  1  0
 18 19  2  0
 20 22  2  0
 21 22  1  0
 21 24  1  0
M  END
>  <PUBCHEM_COMPOUND_CID>  (1) 
3298

>  <PUBCHEM_CONFORMER_RMSD>  (1) 
1.6

>  <PUBCHEM_CONFORMER_DIVERSEORDER>  (1) 
1
74
28
78
107
101
34
5
24
60
82
2
96
84
32
20
120
39
115
94
10
90
104
65
95
118
3
58
66
112
18
98
33
40
89
88
57
93
67
72
62
50
30
68
100
114
15
45
53
83
99
35
38
19
106
36
77
17
26
70
87
108
63
13
61
109
55
80
37
105
41
91
73
23
16
81
103
31
51
76
22
119
69
113
4
27
25
97
46
116
43
71
92
47
11
12
86
54
110
79
29
14
7
8
52
75
48
42
117
85
102
21
44
56
111
6
59
64
49
9

>  <PUBCHEM_MMFF94_PARTIAL_CHARGES>  (1) 
31
1 -0.43
10 -0.29
11 0.28
12 -0.29
13 0.28
14 -0.29
15 -0.29
16 0.28
17 0.28
18 -0.29
19 -0.29
2 -0.57
20 -0.29
21 0.14
22 -0.29
31 0.15
32 0.15
35 0.15
38 0.15
4 0.14
41 0.15
42 0.15
47 0.15
48 0.15
49 0.15
5 0.06
52 0.15
6 -0.29
7 -0.29
8 0.28
9 0.66

>  <PUBCHEM_EFFECTIVE_ROTOR_COUNT>  (1) 
15

>  <PUBCHEM_PHARMACOPHORE_FEATURES>  (1) 
3
1 2 acceptor
1 24 hydrophobe
4 3 4 5 6 hydrophobe

>  <PUBCHEM_HEAVY_ATOM_COUNT>  (1) 
24

>  <PUBCHEM_ATOM_DEF_STEREO_COUNT>  (1) 
0

>  <PUBCHEM_ATOM_UDEF_STEREO_COUNT>  (1) 
0

>  <PUBCHEM_BOND_DEF_STEREO_COUNT>  (1) 
0

>  <PUBCHEM_BOND_UDEF_STEREO_COUNT>  (1) 
5

>  <PUBCHEM_ISOTOPIC_ATOM_COUNT>  (1) 
0

>  <PUBCHEM_COMPONENT_COUNT>  (1) 
1

>  <PUBCHEM_CACTVS_TAUTO_COUNT>  (1) 
1

>  <PUBCHEM_CONFORMER_ID>  (1) 
00000CE200000001

>  <PUBCHEM_MMFF94_ENERGY>  (1) 
5.6451

>  <PUBCHEM_FEATURE_SELFOVERLAP>  (1) 
15.223

>  <PUBCHEM_SHAPE_FINGERPRINT>  (1) 
10670039 82 18411974771946075743
11374522 175 16468384882298025439
13165054 342 17200243534560119161
14289585 56 17313093146783690501
14866123 147 18410853256979056030
15297060 5 18130508535540898755
15326923 133 17771068190006302518
17627616 140 18190739730849930267
17977149 70 18413393124396428160
19311894 1 18267020738187085831
338550 245 18334863852204392308
437795 70 18341067275750167142
463206 1 18336834173268931169
5047190 69 18343012307851718000
9543594 6 18339634650600951497

>  <PUBCHEM_SHAPE_MULTIPOLES>  (1) 
482.17
14.11
5.83
1.26
14.56
0.37
0.61
-1.87
-2.18
-5.21
-0.61
0.67
-0.61
-1.14

>  <PUBCHEM_SHAPE_SELFOVERLAP>  (1) 
908.896

>  <PUBCHEM_SHAPE_VOLUME>  (1) 
296.6

>  <PUBCHEM_COORDINATE_TYPE>  (1) 
2
5
10

$$$$
