3299
     RDKit          3D

 25 27  0  0  1  0  0  0  0  0999 V2000
    3.8502   -3.1805   -1.8660 Cl  0  0  0  0  0  0  0  0  0  0  0  0
    0.3831    3.0093   -0.9230 F   0  0  0  0  0  0  0  0  0  0  0  0
   -4.0415    0.0308   -0.4809 O   0  0  0  0  0  0  0  0  0  0  0  0
   -2.7792   -0.6707    2.0099 O   0  0  0  0  0  0  0  0  0  0  0  0
   -2.8709    2.0217   -0.4279 O   0  0  0  0  0  0  0  0  0  0  0  0
   -0.9227   -1.8533    1.3987 N   0  0  0  0  0  0  0  0  0  0  0  0
   -0.6214    0.8334    0.0565 N   0  0  0  0  0  0  0  0  0  0  0  0
    0.9177   -1.0903   -0.0947 C   0  0  0  0  0  0  0  0  0  0  0  0
    0.5772    0.3592    0.0285 C   0  0  0  0  0  0  0  0  0  0  0  0
   -1.7434   -0.0723   -0.0747 C   0  0  0  0  0  0  0  0  0  0  0  0
    0.2418   -2.0803    0.6365 C   0  0  0  0  0  0  0  0  0  0  0  0
    1.6867    1.3465    0.1632 C   0  0  0  0  0  0  0  0  0  0  0  0
   -1.8579   -0.8560    1.2129 C   0  0  0  0  0  0  0  0  0  0  0  0
    2.0235   -1.4455   -0.8847 C   0  0  0  0  0  0  0  0  0  0  0  0
    0.7503   -3.3880    0.6476 C   0  0  0  0  0  0  0  0  0  0  0  0
   -2.9254    0.8021   -0.3456 C   0  0  0  0  0  0  0  0  0  0  0  0
    2.4876   -2.7602   -0.9024 C   0  0  0  0  0  0  0  0  0  0  0  0
    1.8623   -3.7273   -0.1229 C   0  0  0  0  0  0  0  0  0  0  0  0
    1.5249    2.6361   -0.3275 C   0  0  0  0  0  0  0  0  0  0  0  0
    2.8711    0.9633    0.7801 C   0  0  0  0  0  0  0  0  0  0  0  0
    2.5643    3.5574   -0.1991 C   0  0  0  0  0  0  0  0  0  0  0  0
    3.9104    1.8847    0.9083 C   0  0  0  0  0  0  0  0  0  0  0  0
    3.7571    3.1816    0.4187 C   0  0  0  0  0  0  0  0  0  0  0  0
   -5.2537    0.7443   -0.7445 C   0  0  0  0  0  0  0  0  0  0  0  0
   -6.3921   -0.2461   -0.8671 C   0  0  0  0  0  0  0  0  0  0  0  0
  1 17  1  0
  2 19  1  0
  3 16  1  0
  3 24  1  0
  4 13  2  0
  5 16  2  0
  6 11  1  0
  6 13  1  0
  7  9  2  0
  7 10  1  0
  8  9  1  0
  8 11  2  0
  8 14  1  0
  9 12  1  0
 10 13  1  0
 10 16  1  0
 11 15  1  0
 12 19  2  0
 12 20  1  0
 14 17  2  0
 15 18  2  0
 17 18  1  0
 19 21  1  0
 20 22  2  0
 21 23  2  0
 22 23  1  0
 24 25  1  0
M  END
>  <PUBCHEM_COMPOUND_CID>  (1) 
3299

>  <PUBCHEM_CONFORMER_RMSD>  (1) 
0.8

>  <PUBCHEM_CONFORMER_DIVERSEORDER>  (1) 
1
20
19
29
13
37
25
38
16
31
14
21
26
15
33
22
6
5
18
17
30
9
2
8
34
27
3
32
7
10
28
11
12
4
39
23
41
42
24
40
36
35

>  <PUBCHEM_MMFF94_PARTIAL_CHARGES>  (1) 
32
1 -0.18
10 0.37
11 0.12
12 0.09
13 0.57
14 -0.15
15 -0.15
16 0.66
17 0.18
18 -0.15
19 0.19
2 -0.19
20 -0.15
21 -0.15
22 -0.15
23 -0.15
24 0.28
27 0.37
28 0.15
29 0.15
3 -0.43
30 0.15
31 0.15
32 0.15
33 0.15
34 0.15
4 -0.57
5 -0.57
6 -0.55
7 -0.7
8 0.09
9 0.28

>  <PUBCHEM_EFFECTIVE_ROTOR_COUNT>  (1) 
4.4

>  <PUBCHEM_PHARMACOPHORE_FEATURES>  (1) 
8
1 10 anion
1 4 acceptor
1 5 acceptor
1 6 donor
1 7 acceptor
6 12 19 20 21 22 23 rings
6 8 11 14 15 17 18 rings
7 6 7 8 9 10 11 13 rings

>  <PUBCHEM_HEAVY_ATOM_COUNT>  (1) 
25

>  <PUBCHEM_ATOM_DEF_STEREO_COUNT>  (1) 
0

>  <PUBCHEM_ATOM_UDEF_STEREO_COUNT>  (1) 
1

>  <PUBCHEM_BOND_DEF_STEREO_COUNT>  (1) 
0

>  <PUBCHEM_BOND_UDEF_STEREO_COUNT>  (1) 
0

>  <PUBCHEM_ISOTOPIC_ATOM_COUNT>  (1) 
0

>  <PUBCHEM_COMPONENT_COUNT>  (1) 
1

>  <PUBCHEM_CACTVS_TAUTO_COUNT>  (1) 
3

>  <PUBCHEM_CONFORMER_ID>  (1) 
00000CE300000001

>  <PUBCHEM_MMFF94_ENERGY>  (1) 
81.8412

>  <PUBCHEM_FEATURE_SELFOVERLAP>  (1) 
40.619

>  <PUBCHEM_SHAPE_FINGERPRINT>  (1) 
10411042 1 17905882587442073859
10764073 3 14353886106204019153
10871710 139 16171456282205365893
10906281 52 18187370973420358229
12553582 1 17834121844321019658
12730499 353 18409172147103306195
12788726 201 17183917865276937762
13009979 54 17345195489343342299
133893 2 18129682827788144010
13540713 4 18189068619463211563
13590594 115 17908435649347113545
13681431 1 18129108818610491802
138480 1 18194114110296494020
15230672 131 18192724565257816268
15664445 248 18056765316952766719
15775530 1 18042707107572382107
1813 80 17558283024597321110
20028762 73 18125989697137427469
20775438 99 17325717606682754005
21197605 99 18119528993142107843
21344244 246 18272933830227559478
22149856 69 18189920733196615379
22182313 1 18114760320886001755
22907989 373 17254834698731112484
23559900 14 18409167701200160051
23598288 3 17467346060207062248
238 59 18411421713217746295
2748010 2 18261970607912488130
3298306 158 18339088193632806516
352729 6 18120938579252953216
4017518 198 17916586579169447374
474 4 18410004472862840361
532947 4 18412548695735662454
59755656 215 18410571799055562252
70251023 43 18200317589661415535
7364860 26 18340763754257646743
81228 2 17331977023236610970
8272917 22 18412541024565544677
9709674 26 18408322173128090743
9981440 41 18337664342991468681

>  <PUBCHEM_SHAPE_MULTIPOLES>  (1) 
481.51
8.64
4.95
1.28
14.81
0.7
0.14
-2.29
-2.71
-7.57
-0.75
0.01
0.72
2.02

>  <PUBCHEM_SHAPE_SELFOVERLAP>  (1) 
1042.51

>  <PUBCHEM_SHAPE_VOLUME>  (1) 
262.9

>  <PUBCHEM_COORDINATE_TYPE>  (1) 
2
5
10

$$$$
