32999
     RDKit          3D

  9  8  0  0  0  0  0  0  0  0999 V2000
    4.5218    0.8639    0.3409 O   0  0  0  0  0  0  0  0  0  0  0  0
   -1.1945   -0.4354    0.3789 C   0  0  0  0  0  0  0  0  0  0  0  0
   -2.4070    0.1819   -0.3218 C   0  0  0  0  0  0  0  0  0  0  0  0
    0.0963   -0.1536   -0.3962 C   0  0  0  0  0  0  0  0  0  0  0  0
   -3.6913   -0.0628    0.4702 C   0  0  0  0  0  0  0  0  0  0  0  0
    1.3459   -0.7284    0.2782 C   0  0  0  0  0  0  0  0  0  0  0  0
   -4.8932    0.5769   -0.2061 C   0  0  0  0  0  0  0  0  0  0  0  0
    2.6085   -0.4722   -0.4905 C   0  0  0  0  0  0  0  0  0  0  0  0
    3.6134    0.2296   -0.0535 C   0  0  0  0  0  0  0  0  0  0  0  0
  1  9  2  0
  2  3  1  0
  2  4  1  0
  3  5  1  0
  4  6  1  0
  5  7  1  0
  6  8  1  0
  8  9  2  0
M  END
>  <PUBCHEM_COMPOUND_CID>  (1) 
32999

>  <PUBCHEM_CONFORMER_RMSD>  (1) 
0.6

>  <PUBCHEM_CONFORMER_DIVERSEORDER>  (1) 
1
77
39
15
45
102
2
99
43
32
106
57
6
103
22
73
95
107
51
104
81
33
41
9
54
70
29
96
35
79
101
65
74
58
92
63
4
83
108
64
40
37
75
100
20
98
13
60
12
44
105
5
82
86
66
26
97
10
84
94
67
8
88
23
87
93
42
80
17
30
34
89
28
50
85
90
56
27
18
78
69
46
25
62
61
7
76
72
68
11
14
91
47
16
55
53
52
3
49
19
71
21
38
36
31
24
48
59

>  <PUBCHEM_MMFF94_PARTIAL_CHARGES>  (1) 
5
1 -0.49
23 0.15
6 0.14
8 -0.22
9 0.42

>  <PUBCHEM_EFFECTIVE_ROTOR_COUNT>  (1) 
5

>  <PUBCHEM_PHARMACOPHORE_FEATURES>  (1) 
3
1 7 hydrophobe
3 2 3 5 hydrophobe
3 4 6 8 hydrophobe

>  <PUBCHEM_HEAVY_ATOM_COUNT>  (1) 
9

>  <PUBCHEM_ATOM_DEF_STEREO_COUNT>  (1) 
0

>  <PUBCHEM_ATOM_UDEF_STEREO_COUNT>  (1) 
0

>  <PUBCHEM_BOND_DEF_STEREO_COUNT>  (1) 
0

>  <PUBCHEM_BOND_UDEF_STEREO_COUNT>  (1) 
0

>  <PUBCHEM_ISOTOPIC_ATOM_COUNT>  (1) 
0

>  <PUBCHEM_COMPONENT_COUNT>  (1) 
1

>  <PUBCHEM_CACTVS_TAUTO_COUNT>  (1) 
2

>  <PUBCHEM_CONFORMER_ID>  (1) 
000080E700000001

>  <PUBCHEM_MMFF94_ENERGY>  (1) 
-1.8508

>  <PUBCHEM_FEATURE_SELFOVERLAP>  (1) 
15.236

>  <PUBCHEM_SHAPE_FINGERPRINT>  (1) 
11062470 55 18412827979904486207
114248 4 16845570928786699727
13690532 89 8935003667788624588
14123238 8 18408604773122475927
14455015 7 9151175384840449749
177051 138 10737284645284955006
17834072 33 17346309444993620341
17834076 25 18410576188469687004
18342897 14 17894349981765902157
190213 19 18260836981512233311
20645477 70 17417820482789260166
20719005 15 18259985972186278931
20828058 44 16298392374523059875
21119208 17 14620794903035310065
21293036 1 16343985810117279938
22485316 2 18261109664844110243
23402539 116 14707203340752309391
23402655 69 17418094295459619145
42 15 12901544637248325377
42788 4 18342176661375581853
449060 50 18411704291916409071

>  <PUBCHEM_SHAPE_MULTIPOLES>  (1) 
179.35
9.89
0.83
0.73
1.85
0
0.02
2.94
-0.58
-0.22
-0.04
0
-0.01
0.31

>  <PUBCHEM_SHAPE_SELFOVERLAP>  (1) 
321.06

>  <PUBCHEM_SHAPE_VOLUME>  (1) 
115.4

>  <PUBCHEM_COORDINATE_TYPE>  (1) 
2
5
10

$$$$
