33001
     RDKit          3D

  9  8  0  0  0  0  0  0  0  0999 V2000
   -4.1569    0.8865    0.1046 O   0  0  0  0  0  0  0  0  0  0  0  0
    2.4078   -0.5061    0.2148 C   0  0  0  0  0  0  0  0  0  0  0  0
    3.4622    0.5853    0.0139 C   0  0  0  0  0  0  0  0  0  0  0  0
   -1.3862    0.2945   -0.3060 C   0  0  0  0  0  0  0  0  0  0  0  0
    1.0194    0.0446    0.3660 C   0  0  0  0  0  0  0  0  0  0  0  0
    0.0053   -0.2513   -0.4605 C   0  0  0  0  0  0  0  0  0  0  0  0
   -2.4100   -0.8015   -0.0195 C   0  0  0  0  0  0  0  0  0  0  0  0
    4.8808    0.0399   -0.0737 C   0  0  0  0  0  0  0  0  0  0  0  0
   -3.8224   -0.2918    0.1603 C   0  0  0  0  0  0  0  0  0  0  0  0
  1  9  2  0
  2  3  1  0
  2  5  1  0
  3  8  1  0
  4  6  1  0
  4  7  1  0
  5  6  2  0
  7  9  1  0
M  END
>  <PUBCHEM_COMPOUND_CID>  (1) 
33001

>  <PUBCHEM_CONFORMER_RMSD>  (1) 
0.6

>  <PUBCHEM_CONFORMER_DIVERSEORDER>  (1) 
4
65
60
52
50
42
22
29
6
59
5
14
48
43
28
69
56
68
49
20
2
57
39
36
30
62
54
21
44
58
41
61
40
33
23
27
47
31
34
26
35
12
19
53
37
10
32
1
16
51
55
7
11
67
45
38
15
66
3
9
64
25
18
17
63
8
24
13
46

>  <PUBCHEM_MMFF94_PARTIAL_CHARGES>  (1) 
10
1 -0.57
16 0.15
17 0.15
2 0.14
23 0.06
4 0.14
5 -0.29
6 -0.29
7 0.06
9 0.45

>  <PUBCHEM_EFFECTIVE_ROTOR_COUNT>  (1) 
5

>  <PUBCHEM_PHARMACOPHORE_FEATURES>  (1) 
2
1 1 acceptor
1 8 hydrophobe

>  <PUBCHEM_HEAVY_ATOM_COUNT>  (1) 
9

>  <PUBCHEM_ATOM_DEF_STEREO_COUNT>  (1) 
0

>  <PUBCHEM_ATOM_UDEF_STEREO_COUNT>  (1) 
0

>  <PUBCHEM_BOND_DEF_STEREO_COUNT>  (1) 
0

>  <PUBCHEM_BOND_UDEF_STEREO_COUNT>  (1) 
1

>  <PUBCHEM_ISOTOPIC_ATOM_COUNT>  (1) 
0

>  <PUBCHEM_COMPONENT_COUNT>  (1) 
1

>  <PUBCHEM_CACTVS_TAUTO_COUNT>  (1) 
2

>  <PUBCHEM_CONFORMER_ID>  (1) 
000080E900000004

>  <PUBCHEM_MMFF94_ENERGY>  (1) 
-0.8286

>  <PUBCHEM_FEATURE_SELFOVERLAP>  (1) 
10.148

>  <PUBCHEM_SHAPE_FINGERPRINT>  (1) 
11062470 55 18113336414161330507
114248 4 10375867480995996966
12932764 1 17822554093049134630
14123238 8 8070025562703996250
17834076 25 17967251996444022503
18342897 14 18342457045383321568
190213 19 17203613704848787690
20645477 70 18129945568228831718
20719005 15 18409166631800880051
20828058 44 18040155140651576058
22485316 2 17775001297706629638
23380061 127 8286210443693511407
23402539 116 17917423229153777252
42788 4 18410856568240286656

>  <PUBCHEM_SHAPE_MULTIPOLES>  (1) 
179.35
9.46
0.84
0.67
2.18
0.01
-0.01
1.05
0.38
-0.3
0.01
0.03
-0.01
-0.04

>  <PUBCHEM_SHAPE_SELFOVERLAP>  (1) 
321.168

>  <PUBCHEM_SHAPE_VOLUME>  (1) 
115.5

>  <PUBCHEM_COORDINATE_TYPE>  (1) 
2
5
10

$$$$
