33018
     RDKit          3D

  7  6  0  0  1  0  0  0  0  0999 V2000
   -1.0001   -2.4725    0.2115 I   0  0  0  0  0  0  0  0  0  0  0  0
   -0.8458   -0.4016   -0.5007 C   0  0  0  0  0  0  0  0  0  0  0  0
    0.6287   -0.0407   -0.7641 C   0  0  0  0  0  0  0  0  0  0  0  0
   -1.5957    0.5157    0.4776 C   0  0  0  0  0  0  0  0  0  0  0  0
    1.5386   -0.0100    0.4696 C   0  0  0  0  0  0  0  0  0  0  0  0
   -1.6691    1.9597    0.0010 C   0  0  0  0  0  0  0  0  0  0  0  0
    2.9433    0.4493    0.1052 C   0  0  0  0  0  0  0  0  0  0  0  0
  1  2  1  0
  2  3  1  0
  2  4  1  0
  3  5  1  0
  4  6  1  0
  5  7  1  0
M  END
>  <PUBCHEM_COMPOUND_CID>  (1) 
33018

>  <PUBCHEM_CONFORMER_RMSD>  (1) 
0.4

>  <PUBCHEM_CONFORMER_DIVERSEORDER>  (1) 
1
23
9
20
4
8
22
25
18
2
11
16
15
10
21
19
24
7
3
14
6
5
12
17
13

>  <PUBCHEM_MMFF94_PARTIAL_CHARGES>  (1) 
2
1 -0.19
2 0.19

>  <PUBCHEM_EFFECTIVE_ROTOR_COUNT>  (1) 
3

>  <PUBCHEM_PHARMACOPHORE_FEATURES>  (1) 
3
1 1 hydrophobe
1 6 hydrophobe
1 7 hydrophobe

>  <PUBCHEM_HEAVY_ATOM_COUNT>  (1) 
7

>  <PUBCHEM_ATOM_DEF_STEREO_COUNT>  (1) 
0

>  <PUBCHEM_ATOM_UDEF_STEREO_COUNT>  (1) 
1

>  <PUBCHEM_BOND_DEF_STEREO_COUNT>  (1) 
0

>  <PUBCHEM_BOND_UDEF_STEREO_COUNT>  (1) 
0

>  <PUBCHEM_ISOTOPIC_ATOM_COUNT>  (1) 
0

>  <PUBCHEM_COMPONENT_COUNT>  (1) 
1

>  <PUBCHEM_CACTVS_TAUTO_COUNT>  (1) 
1

>  <PUBCHEM_CONFORMER_ID>  (1) 
000080FA00000001

>  <PUBCHEM_MMFF94_ENERGY>  (1) 
3.4652

>  <PUBCHEM_FEATURE_SELFOVERLAP>  (1) 
15.223

>  <PUBCHEM_SHAPE_FINGERPRINT>  (1) 
100427 49 17623002812817192401
21040471 1 18338806602085395070
23211744 41 18129387003378379853
23552449 1 18268146650524565040
23552449 11 17256243748947244587
5084963 1 18059009484434856417
54338 74 18264476450846835229

>  <PUBCHEM_SHAPE_MULTIPOLES>  (1) 
155.99
3.21
2.45
0.84
3.14
0.16
-0.03
-0.56
0.39
-2.28
0.21
-0.03
-0.08
-0.03

>  <PUBCHEM_SHAPE_SELFOVERLAP>  (1) 
250.898

>  <PUBCHEM_SHAPE_VOLUME>  (1) 
111.9

>  <PUBCHEM_COORDINATE_TYPE>  (1) 
2
5
10

$$$$
