33025
     RDKit          3D

 17 19  0  0  0  0  0  0  0  0999 V2000
    1.6311    2.8347    0.0202 O   0  0  0  0  0  0  0  0  0  0  0  0
    3.9069   -0.6865   -0.0337 O   0  0  0  0  0  0  0  0  0  0  0  0
    1.7719   -1.6416    0.0140 N   0  0  0  0  0  0  0  0  0  0  0  0
    0.3871   -1.5051    0.0215 N   0  0  0  0  0  0  0  0  0  0  0  0
    2.6655    1.8982   -0.0121 N   0  0  0  0  0  0  0  0  0  0  0  0
    0.6540    0.8371   -0.0080 C   0  0  0  0  0  0  0  0  0  0  0  0
   -0.1762   -0.3308   -0.0016 C   0  0  0  0  0  0  0  0  0  0  0  0
    2.0453    0.7168   -0.0182 C   0  0  0  0  0  0  0  0  0  0  0  0
   -1.6483   -0.2220   -0.0035 C   0  0  0  0  0  0  0  0  0  0  0  0
    2.6849   -0.5715   -0.0167 C   0  0  0  0  0  0  0  0  0  0  0  0
    0.4325    2.1853    0.0322 C   0  0  0  0  0  0  0  0  0  0  0  0
   -2.3430   -0.1780   -1.2123 C   0  0  0  0  0  0  0  0  0  0  0  0
   -2.3449   -0.1635    1.2037 C   0  0  0  0  0  0  0  0  0  0  0  0
    2.2342   -3.0193    0.0333 C   0  0  0  0  0  0  0  0  0  0  0  0
   -3.7341   -0.0754   -1.2139 C   0  0  0  0  0  0  0  0  0  0  0  0
   -3.7361   -0.0612    1.2020 C   0  0  0  0  0  0  0  0  0  0  0  0
   -4.4307   -0.0172   -0.0068 C   0  0  0  0  0  0  0  0  0  0  0  0
  1  5  1  0
  1 11  1  0
  2 10  2  0
  3  4  1  0
  3 10  1  0
  3 14  1  0
  4  7  2  0
  5  8  2  0
  6  7  1  0
  6  8  1  0
  6 11  2  0
  7  9  1  0
  8 10  1  0
  9 12  2  0
  9 13  1  0
 12 15  1  0
 13 16  2  0
 15 17  2  0
 16 17  1  0
M  END
>  <PUBCHEM_COMPOUND_CID>  (1) 
33025

>  <PUBCHEM_CONFORMER_RMSD>  (1) 
0.6

>  <PUBCHEM_CONFORMER_DIVERSEORDER>  (1) 
1
2

>  <PUBCHEM_MMFF94_PARTIAL_CHARGES>  (1) 
23
1 -0.02
10 0.72
11 -0.01
12 -0.15
13 -0.15
14 0.3
15 -0.15
16 -0.15
17 -0.15
18 0.15
19 0.15
2 -0.57
20 0.15
24 0.15
25 0.15
26 0.15
3 -0.3
4 -0.51
5 -0.41
6 -0.09
7 0.45
8 0.2
9 0.09

>  <PUBCHEM_EFFECTIVE_ROTOR_COUNT>  (1) 
1

>  <PUBCHEM_PHARMACOPHORE_FEATURES>  (1) 
6
1 2 acceptor
1 4 acceptor
1 5 acceptor
5 1 5 6 8 11 rings
6 3 4 6 7 8 10 rings
6 9 12 13 15 16 17 rings

>  <PUBCHEM_HEAVY_ATOM_COUNT>  (1) 
17

>  <PUBCHEM_ATOM_DEF_STEREO_COUNT>  (1) 
0

>  <PUBCHEM_ATOM_UDEF_STEREO_COUNT>  (1) 
0

>  <PUBCHEM_BOND_DEF_STEREO_COUNT>  (1) 
0

>  <PUBCHEM_BOND_UDEF_STEREO_COUNT>  (1) 
0

>  <PUBCHEM_ISOTOPIC_ATOM_COUNT>  (1) 
0

>  <PUBCHEM_COMPONENT_COUNT>  (1) 
1

>  <PUBCHEM_CACTVS_TAUTO_COUNT>  (1) 
1

>  <PUBCHEM_CONFORMER_ID>  (1) 
0000810100000001

>  <PUBCHEM_MMFF94_ENERGY>  (1) 
49.7894

>  <PUBCHEM_FEATURE_SELFOVERLAP>  (1) 
30.561

>  <PUBCHEM_SHAPE_FINGERPRINT>  (1) 
104564 63 18197506116706442468
10608611 8 18259980492304037493
10967382 1 18410575089301015530
10980938 120 18410854386386344300
11471102 20 18409728482226888388
11615757 297 18342177782515150323
116883 192 17837207073906146900
12236239 1 17703790314895299747
12553582 1 18268432321874962166
12654215 9 18261103076179609972
13134695 92 18337101272520006108
13140716 1 18266455584967780338
13862211 1 18410851024192427170
14251717 144 18412259549393596639
14790565 3 18338814380926133748
15219456 202 18113617928114558665
15442244 35 18197220243809750009
15653759 3 17240199954331703337
16945 1 18410856559871976106
1813 80 17914349982543438470
18186145 218 18342463698118864541
19049666 15 17895467012939642917
200 152 18273207608733164271
20645477 70 18408315597127186759
20871998 22 18198066876405839054
21639500 275 18339353175597658981
22112679 90 17346883364362171945
221490 88 18264492956411967699
2255824 54 18341333383096255476
22802520 49 18041832922639789133
22854114 111 18340208582759192689
23175994 123 18261960639193017879
2334 1 17978228584528448566
23388829 49 18201439138349435200
23419403 2 14716416053485269762
23526113 38 17969492723969474251
23598291 2 18059851809416073109
25 1 18335984271753888444
2748010 2 18120946259081681322
350125 39 17904772428652940554
474 4 18269551809236993113
54173680 148 17401487048759355978
6049 1 17894634730029743525
7364860 26 18412261752753829024
74978 22 18341614870989613943
77492 1 17775849016976689827
81228 2 17545316380754125378
8272917 22 18341620287265186079
84936 182 17915736689849386017
9981440 41 16979812725673170968

>  <PUBCHEM_SHAPE_MULTIPOLES>  (1) 
323.17
6.86
2.39
0.96
4.33
0.15
0
-1.08
0.04
-3.2
-0.03
1.12
-0.06
-0.02

>  <PUBCHEM_SHAPE_SELFOVERLAP>  (1) 
715.857

>  <PUBCHEM_SHAPE_VOLUME>  (1) 
174.6

>  <PUBCHEM_COORDINATE_TYPE>  (1) 
2
5
10

$$$$
