33029
     RDKit          3D

 16 18  0  0  0  0  0  0  0  0999 V2000
   -2.0053   -2.4780   -0.0057 O   0  0  0  0  0  0  0  0  0  0  0  0
   -3.9380    1.2714    0.0194 O   0  0  0  0  0  0  0  0  0  0  0  0
   -0.3736    1.7366   -0.0364 N   0  0  0  0  0  0  0  0  0  0  0  0
   -1.7330    1.9723   -0.0300 N   0  0  0  0  0  0  0  0  0  0  0  0
   -2.9525   -1.4520    0.0179 N   0  0  0  0  0  0  0  0  0  0  0  0
   -0.8509   -0.5762    0.0092 C   0  0  0  0  0  0  0  0  0  0  0  0
    0.0828    0.5153   -0.0047 C   0  0  0  0  0  0  0  0  0  0  0  0
    1.5390    0.2735    0.0001 C   0  0  0  0  0  0  0  0  0  0  0  0
   -2.2281   -0.3322    0.0166 C   0  0  0  0  0  0  0  0  0  0  0  0
   -2.7396    1.0100    0.0054 C   0  0  0  0  0  0  0  0  0  0  0  0
   -0.7526   -1.9393   -0.0204 C   0  0  0  0  0  0  0  0  0  0  0  0
    2.2284    0.1429   -1.2055 C   0  0  0  0  0  0  0  0  0  0  0  0
    2.2258    0.1759    1.2103 C   0  0  0  0  0  0  0  0  0  0  0  0
    3.6045   -0.0853   -1.2008 C   0  0  0  0  0  0  0  0  0  0  0  0
    3.6019   -0.0521    1.2151 C   0  0  0  0  0  0  0  0  0  0  0  0
    4.2913   -0.1827    0.0095 C   0  0  0  0  0  0  0  0  0  0  0  0
  1  5  1  0
  1 11  1  0
  2 10  2  0
  3  4  1  0
  3  7  2  0
  4 10  1  0
  5  9  2  0
  6  7  1  0
  6  9  1  0
  6 11  2  0
  7  8  1  0
  8 12  2  0
  8 13  1  0
  9 10  1  0
 12 14  1  0
 13 15  2  0
 14 16  2  0
 15 16  1  0
M  END
>  <PUBCHEM_COMPOUND_CID>  (1) 
33029

>  <PUBCHEM_CONFORMER_RMSD>  (1) 
0.6

>  <PUBCHEM_CONFORMER_DIVERSEORDER>  (1) 
1
2

>  <PUBCHEM_MMFF94_PARTIAL_CHARGES>  (1) 
23
1 -0.02
10 0.72
11 -0.01
12 -0.15
13 -0.15
14 -0.15
15 -0.15
16 -0.15
17 0.15
18 0.15
19 0.15
2 -0.57
20 0.37
21 0.15
22 0.15
23 0.15
3 -0.51
4 -0.37
5 -0.41
6 -0.09
7 0.45
8 0.09
9 0.2

>  <PUBCHEM_EFFECTIVE_ROTOR_COUNT>  (1) 
1

>  <PUBCHEM_PHARMACOPHORE_FEATURES>  (1) 
7
1 2 acceptor
1 3 acceptor
1 4 donor
1 5 acceptor
5 1 5 6 9 11 rings
6 3 4 6 7 9 10 rings
6 8 12 13 14 15 16 rings

>  <PUBCHEM_HEAVY_ATOM_COUNT>  (1) 
16

>  <PUBCHEM_ATOM_DEF_STEREO_COUNT>  (1) 
0

>  <PUBCHEM_ATOM_UDEF_STEREO_COUNT>  (1) 
0

>  <PUBCHEM_BOND_DEF_STEREO_COUNT>  (1) 
0

>  <PUBCHEM_BOND_UDEF_STEREO_COUNT>  (1) 
0

>  <PUBCHEM_ISOTOPIC_ATOM_COUNT>  (1) 
0

>  <PUBCHEM_COMPONENT_COUNT>  (1) 
1

>  <PUBCHEM_CACTVS_TAUTO_COUNT>  (1) 
2

>  <PUBCHEM_CONFORMER_ID>  (1) 
0000810500000001

>  <PUBCHEM_MMFF94_ENERGY>  (1) 
49.0797

>  <PUBCHEM_FEATURE_SELFOVERLAP>  (1) 
35.635

>  <PUBCHEM_SHAPE_FINGERPRINT>  (1) 
11132069 177 18412262822185030369
12236239 1 17676489432529664812
12346177 29 18271798051531718095
124424 183 17775564213474190882
12500047 106 18341326721675929766
12553582 1 17977672231265713359
12932764 1 17603578638811693556
13140716 1 18338802329104989521
13296908 3 17989208174478230638
13538477 17 18186801387488594252
13581323 91 18335416859550862744
13862211 1 18338794624239836043
14115302 16 18408610240631869500
15219456 202 17775281694762457088
15279307 12 18114178597266610722
15375358 24 17917705803842465088
15653759 3 18131350825903874098
15669948 3 18335422395700501254
15775835 57 18261672584437134208
16752209 62 18335690676696213403
16945 1 18410573968151131413
17804303 29 18341613741154739313
1813 80 16807005417415944162
18175812 5 17917709123778507332
18186145 218 17845936221273378377
19049666 15 17774169976737346974
19422 9 17749110014922642266
20279233 1 17847062177441810334
20510252 161 18272371979331812329
20645476 183 17822018613712008191
20715346 28 17703509990732376158
21501502 16 18266741470422515308
23184049 29 18122057877784544811
232386 152 18335418019228949486
23402539 116 18342727495063043037
23557571 272 18270966864107491104
23559900 14 18271811194838200726
23598291 2 17749398087084917724
2748010 2 18195236944013659069
4175511 318 17894906300548229677
43471831 8 18334571296296869619
465052 167 17823439222096494523
474 4 16952265450272597332
69090 78 17632568340819567901
74978 22 18335700589200969372
77492 1 17676205775625041828
81228 2 18411704309017157153
9709674 26 18343869909388378566

>  <PUBCHEM_SHAPE_MULTIPOLES>  (1) 
302.59
6.9
1.81
0.99
2.75
0.53
0
-0.32
-0.04
-2.2
0.01
1.15
-0.02
0.02

>  <PUBCHEM_SHAPE_SELFOVERLAP>  (1) 
676.32

>  <PUBCHEM_SHAPE_VOLUME>  (1) 
161.3

>  <PUBCHEM_COORDINATE_TYPE>  (1) 
2
5
10

$$$$
