33044
     RDKit          3D

 11 11  0  0  0  0  0  0  0  0999 V2000
    0.9329   -0.3455   -0.3271 C   0  0  0  0  0  0  0  0  0  0  0  0
   -1.4438    0.0870   -0.2917 C   0  0  0  0  0  0  0  0  0  0  0  0
    1.1791    0.9783    0.0372 C   0  0  0  0  0  0  0  0  0  0  0  0
    2.0574   -1.3036   -0.5462 C   0  0  0  0  0  0  0  0  0  0  0  0
   -0.3786   -0.7912   -0.4914 C   0  0  0  0  0  0  0  0  0  0  0  0
   -2.8461   -0.3892   -0.4672 C   0  0  0  0  0  0  0  0  0  0  0  0
   -1.1976    1.4108    0.0723 C   0  0  0  0  0  0  0  0  0  0  0  0
    0.1139    1.8564    0.2368 C   0  0  0  0  0  0  0  0  0  0  0  0
    2.5747    1.4784    0.2184 C   0  0  0  0  0  0  0  0  0  0  0  0
    2.4466   -2.0408    0.7316 C   0  0  0  0  0  0  0  0  0  0  0  0
   -3.4384   -0.9406    0.8272 C   0  0  0  0  0  0  0  0  0  0  0  0
  1  3  2  0
  1  4  1  0
  1  5  1  0
  2  5  2  0
  2  6  1  0
  2  7  1  0
  3  8  1  0
  3  9  1  0
  4 10  1  0
  6 11  1  0
  7  8  2  0
M  END
>  <PUBCHEM_COMPOUND_CID>  (1) 
33044

>  <PUBCHEM_CONFORMER_RMSD>  (1) 
0.4

>  <PUBCHEM_CONFORMER_DIVERSEORDER>  (1) 
1
11
9
2
4
6
7
10
12
8
5
3

>  <PUBCHEM_MMFF94_PARTIAL_CHARGES>  (1) 
12
1 -0.14
14 0.15
17 0.15
18 0.15
2 -0.14
3 -0.14
4 0.14
5 -0.15
6 0.14
7 -0.15
8 -0.15
9 0.14

>  <PUBCHEM_EFFECTIVE_ROTOR_COUNT>  (1) 
2

>  <PUBCHEM_PHARMACOPHORE_FEATURES>  (1) 
3
1 10 hydrophobe
1 11 hydrophobe
6 1 2 3 5 7 8 rings

>  <PUBCHEM_HEAVY_ATOM_COUNT>  (1) 
11

>  <PUBCHEM_ATOM_DEF_STEREO_COUNT>  (1) 
0

>  <PUBCHEM_ATOM_UDEF_STEREO_COUNT>  (1) 
0

>  <PUBCHEM_BOND_DEF_STEREO_COUNT>  (1) 
0

>  <PUBCHEM_BOND_UDEF_STEREO_COUNT>  (1) 
0

>  <PUBCHEM_ISOTOPIC_ATOM_COUNT>  (1) 
0

>  <PUBCHEM_COMPONENT_COUNT>  (1) 
1

>  <PUBCHEM_CACTVS_TAUTO_COUNT>  (1) 
1

>  <PUBCHEM_CONFORMER_ID>  (1) 
0000811400000001

>  <PUBCHEM_MMFF94_ENERGY>  (1) 
22.4234

>  <PUBCHEM_FEATURE_SELFOVERLAP>  (1) 
15.223

>  <PUBCHEM_SHAPE_FINGERPRINT>  (1) 
10130415 120 18338797802129935185
10857977 72 18127395762129989794
12423570 1 8422522440475265780
161256 15 18341900688162514684
16945 1 18268141135834322181
193761 8 18268710515438434892
20201158 50 18261955270826808795
20645476 183 17537163919115941020
20645477 70 18412819192834364007
20653091 64 18336549322246835530
20871998 184 17841985598891135342
20871998 22 18200322000292206910
21501502 16 18340207384252560877
21501925 9 18340192025380698355
21650355 55 17542484064993187386
2334 1 18413107242836188253
23552423 10 18335424538836512460
241688 4 18265896852250386768
2748010 2 18341324492292731644
29004967 10 18336829805028286313
528862 383 18339636836533316710
81228 2 17693937388934571968

>  <PUBCHEM_SHAPE_MULTIPOLES>  (1) 
226.37
4.5
2.09
0.82
2.33
0.11
-0.05
-1.73
-0.79
-1.35
-0.35
0.09
-0.2
0.07

>  <PUBCHEM_SHAPE_SELFOVERLAP>  (1) 
457.219

>  <PUBCHEM_SHAPE_VOLUME>  (1) 
128.9

>  <PUBCHEM_COORDINATE_TYPE>  (1) 
2
5
10

$$$$
