33041
     RDKit          3D

 17 18  0  0  1  0  0  0  0  0999 V2000
   -3.4907    0.5796    0.3273 O   0  0  0  0  0  0  0  0  0  0  0  0
    1.3690    2.2400   -0.2790 N   0  0  0  0  0  0  0  0  0  0  0  0
    0.8369    1.0376    0.3749 C   0  0  0  0  0  0  0  0  0  0  0  0
   -0.6014    0.7828   -0.1240 C   0  0  0  0  0  0  0  0  0  0  0  0
   -1.2994   -0.3581    0.6316 C   0  0  0  0  0  0  0  0  0  0  0  0
    1.7652   -0.1421    0.1548 C   0  0  0  0  0  0  0  0  0  0  0  0
   -2.7320   -0.5178    0.1857 C   0  0  0  0  0  0  0  0  0  0  0  0
    2.6816    2.5731    0.2676 C   0  0  0  0  0  0  0  0  0  0  0  0
    0.4427    3.3568   -0.1140 C   0  0  0  0  0  0  0  0  0  0  0  0
    1.8775   -1.1019    1.1430 C   0  0  0  0  0  0  0  0  0  0  0  0
    2.4750   -0.2265   -1.0281 C   0  0  0  0  0  0  0  0  0  0  0  0
   -3.4023   -1.5665   -0.3340 C   0  0  0  0  0  0  0  0  0  0  0  0
    2.7312   -2.1864    0.9406 C   0  0  0  0  0  0  0  0  0  0  0  0
    3.3287   -1.3109   -1.2303 C   0  0  0  0  0  0  0  0  0  0  0  0
    3.4567   -2.2909   -0.2461 C   0  0  0  0  0  0  0  0  0  0  0  0
   -4.7181   -1.0896   -0.5440 C   0  0  0  0  0  0  0  0  0  0  0  0
   -4.7205    0.2209   -0.1262 C   0  0  0  0  0  0  0  0  0  0  0  0
  1  7  1  0
  1 17  1  0
  2  3  1  0
  2  8  1  0
  2  9  1  0
  3  4  1  0
  3  6  1  0
  4  5  1  0
  5  7  1  0
  6 10  2  0
  6 11  1  0
  7 12  2  0
 10 13  1  0
 11 14  2  0
 12 16  1  0
 13 15  2  0
 14 15  1  0
 16 17  2  0
M  END
>  <PUBCHEM_COMPOUND_CID>  (1) 
33041

>  <PUBCHEM_CONFORMER_RMSD>  (1) 
0.6

>  <PUBCHEM_CONFORMER_DIVERSEORDER>  (1) 
1
44
18
28
47
40
12
45
42
30
16
17
8
43
27
11
41
29
46
21
36
14
13
33
22
35
7
38
26
39
15
20
37
9
23
25
10
19
2
34
5
6
31
24
4
3
32

>  <PUBCHEM_MMFF94_PARTIAL_CHARGES>  (1) 
24
1 -0.28
10 -0.15
11 -0.15
12 -0.15
13 -0.15
14 -0.15
15 -0.15
16 -0.15
17 -0.01
2 -0.81
29 0.15
3 0.41
30 0.15
31 0.15
32 0.15
33 0.15
34 0.15
35 0.15
36 0.15
5 0.18
6 -0.14
7 -0.04
8 0.27
9 0.27

>  <PUBCHEM_EFFECTIVE_ROTOR_COUNT>  (1) 
5

>  <PUBCHEM_PHARMACOPHORE_FEATURES>  (1) 
4
1 1 acceptor
1 2 cation
5 1 7 12 16 17 rings
6 6 10 11 13 14 15 rings

>  <PUBCHEM_HEAVY_ATOM_COUNT>  (1) 
17

>  <PUBCHEM_ATOM_DEF_STEREO_COUNT>  (1) 
0

>  <PUBCHEM_ATOM_UDEF_STEREO_COUNT>  (1) 
1

>  <PUBCHEM_BOND_DEF_STEREO_COUNT>  (1) 
0

>  <PUBCHEM_BOND_UDEF_STEREO_COUNT>  (1) 
0

>  <PUBCHEM_ISOTOPIC_ATOM_COUNT>  (1) 
0

>  <PUBCHEM_COMPONENT_COUNT>  (1) 
1

>  <PUBCHEM_CACTVS_TAUTO_COUNT>  (1) 
1

>  <PUBCHEM_CONFORMER_ID>  (1) 
0000811100000001

>  <PUBCHEM_MMFF94_ENERGY>  (1) 
43.8331

>  <PUBCHEM_FEATURE_SELFOVERLAP>  (1) 
20.297

>  <PUBCHEM_SHAPE_FINGERPRINT>  (1) 
11265709 11 18264488395367215418
11578080 2 17605256420699855684
116883 192 18269558230234219061
12553582 1 18337116648482197035
12707595 3 18335427863115040227
12841375 25 18411136892503411142
13083527 12 18335968810562778120
13533116 47 18270115842434640031
14178000 15 18341892987112397937
14178000 29 18272375226469642694
15342816 4 18339649932163318374
15442244 35 18412264995829067329
15536298 74 18412543249474440609
15848700 24 18341888546036787167
17041 50 18409446964616970493
17492 89 18341048640066976071
18186145 218 18114177558274550963
20291156 8 18411983520604118347
20369508 70 18335696139625452155
20626108 58 18272638052761826199
20645477 70 18340485664158562999
20671657 53 18411702054180334611
20832881 197 18188207581530539123
20871998 22 18340200804615643752
21054139 6 17624964320138848583
21250096 35 18337389335908385991
221490 88 18264215866644196283
2255824 54 18337674225389027462
23419403 2 17389624641540790252
23557571 272 18126281948793887714
23559900 14 18343015610185540275
23598291 2 18271539632113525561
2838139 119 15069770671540006294
3060560 45 18121780792607594668
312423 11 18270412680303386979
314173 41 18410300189777232575
33824 294 18338514273895197336
5104073 3 18342742944761877819
543358 83 18410299090238938713
58051976 378 17978504561899632027
6138700 20 18339087098912674100
7164475 11 17973447603239340182
7364860 26 18341049726223605784
74978 22 18409732897896529811
7615 1 17774739618339629801
81228 2 18051141293569894936
81539 233 18191866945085285468
94968 8 18408325475467772678
9709674 26 18264208196133305435
9971528 1 18343013372280712771

>  <PUBCHEM_SHAPE_MULTIPOLES>  (1) 
339
8.32
3.08
0.98
10.3
2.34
0.03
-4.42
1.34
-3.05
-0.04
-0.64
-0.35
-0.18

>  <PUBCHEM_SHAPE_SELFOVERLAP>  (1) 
711.366

>  <PUBCHEM_SHAPE_VOLUME>  (1) 
193.6

>  <PUBCHEM_COORDINATE_TYPE>  (1) 
2
5
10

$$$$
