33055
     RDKit          3D

 10  9  0  0  0  0  0  0  0  0999 V2000
    0.2585   -0.4751   -0.9826 S   0  0  0  0  0  0  0  0  0  0  0  0
   -1.5075   -2.6408    0.1309 S   0  0  0  0  0  0  0  0  0  0  0  0
   -2.2368   -0.1857    0.1436 O   0  0  0  0  0  0  0  0  0  0  0  0
    3.5769    0.0246    0.9768 O   0  0  0  0  0  0  0  0  0  0  0  0
    2.8222    0.9837   -0.9404 O   0  0  0  0  0  0  0  0  0  0  0  0
   -2.1391    1.2302   -0.0853 C   0  0  0  0  0  0  0  0  0  0  0  0
   -3.4124    1.8958    0.3918 C   0  0  0  0  0  0  0  0  0  0  0  0
    1.2519   -0.1522    0.4927 C   0  0  0  0  0  0  0  0  0  0  0  0
   -1.2219   -1.0257   -0.2097 C   0  0  0  0  0  0  0  0  0  0  0  0
    2.6081    0.3452    0.0822 C   0  0  0  0  0  0  0  0  0  0  0  0
  1  8  1  0
  1  9  1  0
  2  9  2  0
  3  6  1  0
  3  9  1  0
  4 10  1  0
  5 10  2  0
  6  7  1  0
  8 10  1  0
M  END
>  <PUBCHEM_COMPOUND_CID>  (1) 
33055

>  <PUBCHEM_CONFORMER_RMSD>  (1) 
0.6

>  <PUBCHEM_CONFORMER_DIVERSEORDER>  (1) 
1
75
103
62
46
64
81
67
23
69
11
93
105
94
78
99
36
3
70
40
84
59
34
80
53
51
32
37
61
48
54
4
57
25
66
63
52
87
30
18
15
58
104
2
83
17
110
95
50
6
88
90
107
96
21
109
29
16
8
45
100
31
41
72
9
108
55
27
89
28
35
76
14
49
68
106
82
43
56
97
73
24
5
85
38
10
77
92
101
12
91
65
22
42
74
26
13
102
44
19
86
39
7
60
71
79
98
20
47
33

>  <PUBCHEM_MMFF94_PARTIAL_CHARGES>  (1) 
10
1 -0.37
10 0.66
18 0.5
2 -0.38
3 -0.43
4 -0.65
5 -0.57
6 0.28
8 0.29
9 0.67

>  <PUBCHEM_EFFECTIVE_ROTOR_COUNT>  (1) 
5

>  <PUBCHEM_PHARMACOPHORE_FEATURES>  (1) 
4
1 2 acceptor
1 4 acceptor
1 5 acceptor
3 4 5 10 anion

>  <PUBCHEM_HEAVY_ATOM_COUNT>  (1) 
10

>  <PUBCHEM_ATOM_DEF_STEREO_COUNT>  (1) 
0

>  <PUBCHEM_ATOM_UDEF_STEREO_COUNT>  (1) 
0

>  <PUBCHEM_BOND_DEF_STEREO_COUNT>  (1) 
0

>  <PUBCHEM_BOND_UDEF_STEREO_COUNT>  (1) 
0

>  <PUBCHEM_ISOTOPIC_ATOM_COUNT>  (1) 
0

>  <PUBCHEM_COMPONENT_COUNT>  (1) 
1

>  <PUBCHEM_CACTVS_TAUTO_COUNT>  (1) 
1

>  <PUBCHEM_CONFORMER_ID>  (1) 
0000811F00000001

>  <PUBCHEM_MMFF94_ENERGY>  (1) 
14.2928

>  <PUBCHEM_FEATURE_SELFOVERLAP>  (1) 
20.356

>  <PUBCHEM_SHAPE_FINGERPRINT>  (1) 
100427 49 17549821535412890423
124424 183 17560793317381277282
12932764 1 17417253272491842894
13839132 238 18341905056101959423
15775835 57 18334861575935054601
18342897 96 18201996591261559077
18511873 20 18262233318488150138
20711983 171 18410015450698846924
20871998 184 18198913689343283383
21028194 46 18202565051199058933
21524375 3 18270394980447754407
23402539 116 18270385192423333855
23598294 1 18263089958025788067
305870 269 18192992613016128875
3248919 1 18336537317850445934

>  <PUBCHEM_SHAPE_MULTIPOLES>  (1) 
195.89
5.55
2.24
0.92
2.48
1.2
0.09
-3.25
-1.04
-2.58
-0.17
0.46
-0.01
-0.28

>  <PUBCHEM_SHAPE_SELFOVERLAP>  (1) 
342.299

>  <PUBCHEM_SHAPE_VOLUME>  (1) 
129.3

>  <PUBCHEM_COORDINATE_TYPE>  (1) 
2
5
10

$$$$
