33059
     RDKit          3D

 16 17  0  0  0  0  0  0  0  0999 V2000
   -0.4571   -2.7545    0.2029 O   0  0  0  0  0  0  0  0  0  0  0  0
    2.8658   -0.1148   -0.0272 N   0  0  0  0  0  0  0  0  0  0  0  0
    1.6904   -0.6346   -0.4163 N   0  0  0  0  0  0  0  0  0  0  0  0
    5.0700    0.6610   -0.4320 C   0  0  0  0  0  0  0  0  0  0  0  0
    4.3786    1.5210    0.6156 C   0  0  0  0  0  0  0  0  0  0  0  0
    4.0137   -0.3321   -0.9039 C   0  0  0  0  0  0  0  0  0  0  0  0
    2.8997    1.2871    0.3769 C   0  0  0  0  0  0  0  0  0  0  0  0
    0.9412   -0.9507    0.5809 C   0  0  0  0  0  0  0  0  0  0  0  0
   -0.3994   -1.5372    0.2933 C   0  0  0  0  0  0  0  0  0  0  0  0
   -1.5775   -0.6562    0.1419 C   0  0  0  0  0  0  0  0  0  0  0  0
   -3.7804    0.9911   -0.1422 C   0  0  0  0  0  0  0  0  0  0  0  0
   -1.4163    0.7110    0.2704 C   0  0  0  0  0  0  0  0  0  0  0  0
   -2.8108   -1.2218   -0.1250 C   0  0  0  0  0  0  0  0  0  0  0  0
   -2.5275    1.5419    0.1273 C   0  0  0  0  0  0  0  0  0  0  0  0
   -3.9220   -0.3910   -0.2682 C   0  0  0  0  0  0  0  0  0  0  0  0
   -4.9686    1.8796   -0.2944 C   0  0  0  0  0  0  0  0  0  0  0  0
  1  9  2  0
  2  3  1  0
  2  6  1  0
  2  7  1  0
  3  8  2  0
  4  5  1  0
  4  6  1  0
  5  7  1  0
  8  9  1  0
  9 10  1  0
 10 12  2  0
 10 13  1  0
 11 14  2  0
 11 15  1  0
 11 16  1  0
 12 14  1  0
 13 15  2  0
M  END
>  <PUBCHEM_COMPOUND_CID>  (1) 
33059

>  <PUBCHEM_CONFORMER_RMSD>  (1) 
0.6

>  <PUBCHEM_CONFORMER_DIVERSEORDER>  (1) 
1
16
11
18
12
9
5
13
15
19
10
20
17
6
4
8
14
7
3
2

>  <PUBCHEM_MMFF94_PARTIAL_CHARGES>  (1) 
19
1 -0.57
10 0.09
11 -0.14
12 -0.15
13 -0.15
14 -0.15
15 -0.15
16 0.14
2 -0.49
25 0.06
26 0.15
27 0.15
28 0.15
29 0.15
3 -0.5
6 0.27
7 0.27
8 0.39
9 0.48

>  <PUBCHEM_EFFECTIVE_ROTOR_COUNT>  (1) 
4

>  <PUBCHEM_PHARMACOPHORE_FEATURES>  (1) 
4
1 1 acceptor
1 3 acceptor
5 2 4 5 6 7 rings
6 10 11 12 13 14 15 rings

>  <PUBCHEM_HEAVY_ATOM_COUNT>  (1) 
16

>  <PUBCHEM_ATOM_DEF_STEREO_COUNT>  (1) 
0

>  <PUBCHEM_ATOM_UDEF_STEREO_COUNT>  (1) 
0

>  <PUBCHEM_BOND_DEF_STEREO_COUNT>  (1) 
0

>  <PUBCHEM_BOND_UDEF_STEREO_COUNT>  (1) 
1

>  <PUBCHEM_ISOTOPIC_ATOM_COUNT>  (1) 
0

>  <PUBCHEM_COMPONENT_COUNT>  (1) 
1

>  <PUBCHEM_CACTVS_TAUTO_COUNT>  (1) 
1

>  <PUBCHEM_CONFORMER_ID>  (1) 
0000812300000001

>  <PUBCHEM_MMFF94_ENERGY>  (1) 
33.5971

>  <PUBCHEM_FEATURE_SELFOVERLAP>  (1) 
20.298

>  <PUBCHEM_SHAPE_FINGERPRINT>  (1) 
10014705 185 18409446990392230821
10498660 4 18410007715373407065
10608611 8 18270400619829614808
11046707 91 10231759980663791511
11543360 7 16773788229614156029
122479 349 18261395584911375850
12251169 10 12107794016260567882
12346645 44 18335137562133354547
12390115 104 18270415910055762945
12403259 415 18271810167739903144
12596602 18 15864079788157090284
12892183 10 12901544632890061399
12916748 109 18409171042711285090
13081056 2 18342178890273795352
14123255 52 18408882919161941523
15196674 1 18411136939436951432
15775835 57 18260267425677506272
1741750 31 18409165528121152162
17539 30 17984129641849876663
17834072 32 18410576184243681233
1798214 55 18408321068662333560
18186145 218 18201728335851371962
200 152 16056889026470093810
20300324 65 18130786789265704607
20388580 30 11815604303000644834
20645477 56 18410859905783362058
20645477 70 17203062828613094454
20671657 53 13830128377951536298
20871999 31 17703214213889311703
212847 35 18333731291414962488
21524375 3 18334576802370791058
23227448 37 18269271438045648685
23402539 116 18342450461156044580
23402655 69 18130788949534151132
23557571 272 18271534207311419815
23559900 14 18272933800357706806
2916195 48 18342731966324516680
351380 180 18343017796503371788
3545911 37 18410859849600614612
4028521 119 18342176669654448964
465052 167 9726765337442282981
474 4 17894638045174816141
5104073 3 18260832536558705955
633830 44 18342452612734336375
7364860 26 18122905330725064955
83771 10 10015860977024490730
9709674 26 18271250529348880198
9981440 41 18334572460137990387

>  <PUBCHEM_SHAPE_MULTIPOLES>  (1) 
313.44
10.58
2.11
0.76
4.69
0.5
0.03
-6.11
1.63
-1.1
-0.2
0.37
-0.02
0.48

>  <PUBCHEM_SHAPE_SELFOVERLAP>  (1) 
656.611

>  <PUBCHEM_SHAPE_VOLUME>  (1) 
178.8

>  <PUBCHEM_COORDINATE_TYPE>  (1) 
2
5
10

$$$$
