33050
     RDKit          3D

 11 11  0  0  0  0  0  0  0  0999 V2000
    0.0096   -2.3153   -0.4198 Cl  0  0  0  0  0  0  0  0  0  0  0  0
   -2.9768   -1.4703    0.4140 Cl  0  0  0  0  0  0  0  0  0  0  0  0
    3.2465   -0.2789    1.0692 O   0  0  0  0  0  0  0  0  0  0  0  0
    1.8392    0.0241   -0.7941 N   0  0  0  0  0  0  0  0  0  0  0  0
    0.5232    0.3407   -0.4296 C   0  0  0  0  0  0  0  0  0  0  0  0
   -0.4369   -0.6495   -0.2213 C   0  0  0  0  0  0  0  0  0  0  0  0
    0.1831    1.6848   -0.2763 C   0  0  0  0  0  0  0  0  0  0  0  0
   -1.7367   -0.2957    0.1404 C   0  0  0  0  0  0  0  0  0  0  0  0
   -1.1168    2.0387    0.0852 C   0  0  0  0  0  0  0  0  0  0  0  0
   -2.0767    1.0484    0.2935 C   0  0  0  0  0  0  0  0  0  0  0  0
    2.5423   -0.1272    0.1388 C   0  0  0  0  0  0  0  0  0  0  0  0
  1  6  1  0
  2  8  1  0
  3 11  2  0
  4  5  1  0
  4 11  2  0
  5  6  2  0
  5  7  1  0
  6  8  1  0
  7  9  2  0
  8 10  2  0
  9 10  1  0
M  END
>  <PUBCHEM_COMPOUND_CID>  (1) 
33050

>  <PUBCHEM_CONFORMER_RMSD>  (1) 
0.4

>  <PUBCHEM_CONFORMER_DIVERSEORDER>  (1) 
1
6
4
2
5
3

>  <PUBCHEM_MMFF94_PARTIAL_CHARGES>  (1) 
14
1 -0.18
10 -0.15
11 0.79
12 0.15
13 0.15
14 0.15
2 -0.18
3 -0.49
4 -0.48
5 0.18
6 0.18
7 -0.15
8 0.18
9 -0.15

>  <PUBCHEM_EFFECTIVE_ROTOR_COUNT>  (1) 
1

>  <PUBCHEM_PHARMACOPHORE_FEATURES>  (1) 
2
1 4 acceptor
6 5 6 7 8 9 10 rings

>  <PUBCHEM_HEAVY_ATOM_COUNT>  (1) 
11

>  <PUBCHEM_ATOM_DEF_STEREO_COUNT>  (1) 
0

>  <PUBCHEM_ATOM_UDEF_STEREO_COUNT>  (1) 
0

>  <PUBCHEM_BOND_DEF_STEREO_COUNT>  (1) 
0

>  <PUBCHEM_BOND_UDEF_STEREO_COUNT>  (1) 
0

>  <PUBCHEM_ISOTOPIC_ATOM_COUNT>  (1) 
0

>  <PUBCHEM_COMPONENT_COUNT>  (1) 
1

>  <PUBCHEM_CACTVS_TAUTO_COUNT>  (1) 
1

>  <PUBCHEM_CONFORMER_ID>  (1) 
0000811A00000001

>  <PUBCHEM_MMFF94_ENERGY>  (1) 
25.7585

>  <PUBCHEM_FEATURE_SELFOVERLAP>  (1) 
10.148

>  <PUBCHEM_SHAPE_FINGERPRINT>  (1) 
10857977 72 18342175578748534697
12423570 1 12794547390127191221
13380535 76 18194114119282113077
16945 1 18265907869005005221
193761 8 17978518533486261775
20645464 45 17917986149306034852
20653085 51 12103565346290615754
20871998 184 18342455945665939550
21040471 1 18050299063130816981
23419403 2 16121847219813948567
23552423 10 18117294578675197654
2748010 2 18196386818327786495
369184 2 17560510720922275400
5084963 1 17988100935840344310
528862 383 17975419332082208061
53812654 25 18127410274682058303
54338 74 18338784732106623052

>  <PUBCHEM_SHAPE_MULTIPOLES>  (1) 
219.26
3.9
2.2
0.81
1.31
0.09
-0.06
1.03
-1.22
-1
0.16
0.3
0.08
-0.03

>  <PUBCHEM_SHAPE_SELFOVERLAP>  (1) 
445.694

>  <PUBCHEM_SHAPE_VOLUME>  (1) 
128.2

>  <PUBCHEM_COORDINATE_TYPE>  (1) 
2
5
10

$$$$
