3306
     RDKit          3D

 13 13  0  0  1  0  0  0  0  0999 V2000
    0.8800    0.6791    1.8505 O   0  0  0  0  0  0  0  0  0  0  0  0
   -3.1250   -2.2169    0.2311 O   0  0  0  0  0  0  0  0  0  0  0  0
    3.0452    0.1857    0.0154 N   0  0  0  0  0  0  0  0  0  0  0  0
    0.6856    0.8355    0.4384 C   0  0  0  0  0  0  0  0  0  0  0  0
    1.6513   -0.0974   -0.3193 C   0  0  0  0  0  0  0  0  0  0  0  0
   -0.7422    0.5567    0.1102 C   0  0  0  0  0  0  0  0  0  0  0  0
    3.9397   -0.7199   -0.6893 C   0  0  0  0  0  0  0  0  0  0  0  0
   -1.2718   -0.7155    0.3264 C   0  0  0  0  0  0  0  0  0  0  0  0
   -1.5481    1.5683   -0.4122 C   0  0  0  0  0  0  0  0  0  0  0  0
   -2.6075   -0.9760    0.0199 C   0  0  0  0  0  0  0  0  0  0  0  0
   -2.8835    1.3078   -0.7186 C   0  0  0  0  0  0  0  0  0  0  0  0
    5.3898   -0.4430   -0.3501 C   0  0  0  0  0  0  0  0  0  0  0  0
   -3.4134    0.0358   -0.5024 C   0  0  0  0  0  0  0  0  0  0  0  0
  1  4  1  0
  2 10  1  0
  3  5  1  0
  3  7  1  0
  4  5  1  0
  4  6  1  0
  6  8  2  0
  6  9  1  0
  7 12  1  0
  8 10  1  0
  9 11  2  0
 10 13  2  0
 11 13  1  0
M  END
>  <PUBCHEM_COMPOUND_CID>  (1) 
3306

>  <PUBCHEM_CONFORMER_RMSD>  (1) 
0.6

>  <PUBCHEM_CONFORMER_DIVERSEORDER>  (1) 
1
47
38
13
35
42
17
36
7
53
15
48
11
39
31
43
5
44
26
19
45
6
23
12
33
10
50
27
18
41
29
51
20
37
2
28
55
49
14
8
52
54
3
25
40
30
34
9
22
24
21
46
16
4
32

>  <PUBCHEM_MMFF94_PARTIAL_CHARGES>  (1) 
19
1 -0.68
10 0.08
11 -0.15
13 -0.15
17 0.36
2 -0.53
20 0.15
21 0.15
22 0.4
23 0.15
27 0.15
28 0.45
3 -0.9
4 0.42
5 0.27
6 -0.14
7 0.27
8 -0.15
9 -0.15

>  <PUBCHEM_EFFECTIVE_ROTOR_COUNT>  (1) 
4

>  <PUBCHEM_PHARMACOPHORE_FEATURES>  (1) 
6
1 1 acceptor
1 1 donor
1 2 donor
1 3 cation
1 3 donor
6 6 8 9 10 11 13 rings

>  <PUBCHEM_HEAVY_ATOM_COUNT>  (1) 
13

>  <PUBCHEM_ATOM_DEF_STEREO_COUNT>  (1) 
0

>  <PUBCHEM_ATOM_UDEF_STEREO_COUNT>  (1) 
1

>  <PUBCHEM_BOND_DEF_STEREO_COUNT>  (1) 
0

>  <PUBCHEM_BOND_UDEF_STEREO_COUNT>  (1) 
0

>  <PUBCHEM_ISOTOPIC_ATOM_COUNT>  (1) 
0

>  <PUBCHEM_COMPONENT_COUNT>  (1) 
1

>  <PUBCHEM_CACTVS_TAUTO_COUNT>  (1) 
3

>  <PUBCHEM_CONFORMER_ID>  (1) 
00000CEA00000001

>  <PUBCHEM_MMFF94_ENERGY>  (1) 
19.7919

>  <PUBCHEM_FEATURE_SELFOVERLAP>  (1) 
30.448

>  <PUBCHEM_SHAPE_FINGERPRINT>  (1) 
10465860 250 18131346380686621328
11127187 94 18335419075859593239
11543360 7 18187654626118911812
12186901 62 18187079529792223125
12932764 1 17313652806976622565
13024252 1 15936415533320248137
14911166 2 18335691729195173469
15219456 202 18201429345871720056
16945 1 18189314862986320185
17870717 6 18340500958531810246
18186145 218 15647058200483390052
1986462 14 18334859407113363006
200 152 17203604861373981820
20201158 50 18130508552383274366
20281407 28 18343022207128771290
20300324 65 18041002847242579844
20325693 3 18259989249420340895
20432913 95 16415762999021084214
20645476 183 17240477005703219123
20645477 56 18262237707728897061
20711985 327 15051728699060492560
20871998 22 17975978988328456843
20871999 31 18186795881583140277
21061003 4 17346882260080634824
21119208 17 17967534553974057620
21499 59 14923946747561861576
22094290 60 18334013891003172308
22485316 2 18409165489925154838
22959321 105 18410862057862657844
23175994 123 17632581543391111424
23402539 116 16732702732001988710
23403322 49 18271528615511972254
23557571 272 18342179912777192756
23559900 14 18340481172044452602
2748010 2 17973707363014272517
53748568 43 17240474789167557761
573450 72 18041267778274109874

>  <PUBCHEM_SHAPE_MULTIPOLES>  (1) 
250.81
8.29
1.51
0.96
11.48
0.39
-0.32
2.25
2.25
-1.72
0.02
0.19
-0.18
0.62

>  <PUBCHEM_SHAPE_SELFOVERLAP>  (1) 
504.404

>  <PUBCHEM_SHAPE_VOLUME>  (1) 
147.9

>  <PUBCHEM_COORDINATE_TYPE>  (1) 
2
5
10

$$$$
