33067
     RDKit          3D

 17 18  0  0  0  0  0  0  0  0999 V2000
    5.4522   -2.0212   -0.3225 Cl  0  0  0  0  0  0  0  0  0  0  0  0
    0.7974    2.7808    0.2608 O   0  0  0  0  0  0  0  0  0  0  0  0
   -2.5529    0.1781   -0.0887 N   0  0  0  0  0  0  0  0  0  0  0  0
   -1.3602    0.6995   -0.4479 N   0  0  0  0  0  0  0  0  0  0  0  0
   -5.1222   -1.2266   -0.0575 C   0  0  0  0  0  0  0  0  0  0  0  0
   -3.9049   -1.7559    0.6896 C   0  0  0  0  0  0  0  0  0  0  0  0
   -5.0321    0.2870   -0.2037 C   0  0  0  0  0  0  0  0  0  0  0  0
   -2.6035   -1.2825    0.0432 C   0  0  0  0  0  0  0  0  0  0  0  0
   -3.7026    0.7077   -0.8287 C   0  0  0  0  0  0  0  0  0  0  0  0
   -0.6234    0.9813    0.5686 C   0  0  0  0  0  0  0  0  0  0  0  0
    0.7270    1.5621    0.3172 C   0  0  0  0  0  0  0  0  0  0  0  0
    1.8989    0.6740    0.1597 C   0  0  0  0  0  0  0  0  0  0  0  0
    1.7224   -0.6944    0.2488 C   0  0  0  0  0  0  0  0  0  0  0  0
    3.1413    1.2340   -0.0745 C   0  0  0  0  0  0  0  0  0  0  0  0
    2.8272   -1.5326    0.0986 C   0  0  0  0  0  0  0  0  0  0  0  0
    4.2462    0.3960   -0.2248 C   0  0  0  0  0  0  0  0  0  0  0  0
    4.0892   -0.9874   -0.1383 C   0  0  0  0  0  0  0  0  0  0  0  0
  1 17  1  0
  2 11  2  0
  3  4  1  0
  3  8  1  0
  3  9  1  0
  4 10  2  0
  5  6  1  0
  5  7  1  0
  6  8  1  0
  7  9  1  0
 10 11  1  0
 11 12  1  0
 12 13  2  0
 12 14  1  0
 13 15  1  0
 14 16  2  0
 15 17  2  0
 16 17  1  0
M  END
>  <PUBCHEM_COMPOUND_CID>  (1) 
33067

>  <PUBCHEM_CONFORMER_RMSD>  (1) 
0.6

>  <PUBCHEM_CONFORMER_DIVERSEORDER>  (1) 
1
14
11
19
18
23
15
27
29
24
20
10
3
28
9
17
22
12
30
21
26
13
6
25
4
7
2
16
8
5

>  <PUBCHEM_MMFF94_PARTIAL_CHARGES>  (1) 
19
1 -0.18
10 0.39
11 0.48
12 0.09
13 -0.15
14 -0.15
15 -0.15
16 -0.15
17 0.18
2 -0.57
28 0.06
29 0.15
3 -0.49
30 0.15
31 0.15
32 0.15
4 -0.5
8 0.27
9 0.27

>  <PUBCHEM_EFFECTIVE_ROTOR_COUNT>  (1) 
4.2

>  <PUBCHEM_PHARMACOPHORE_FEATURES>  (1) 
4
1 2 acceptor
1 4 acceptor
6 12 13 14 15 16 17 rings
6 3 5 6 7 8 9 rings

>  <PUBCHEM_HEAVY_ATOM_COUNT>  (1) 
17

>  <PUBCHEM_ATOM_DEF_STEREO_COUNT>  (1) 
0

>  <PUBCHEM_ATOM_UDEF_STEREO_COUNT>  (1) 
0

>  <PUBCHEM_BOND_DEF_STEREO_COUNT>  (1) 
0

>  <PUBCHEM_BOND_UDEF_STEREO_COUNT>  (1) 
1

>  <PUBCHEM_ISOTOPIC_ATOM_COUNT>  (1) 
0

>  <PUBCHEM_COMPONENT_COUNT>  (1) 
1

>  <PUBCHEM_CACTVS_TAUTO_COUNT>  (1) 
1

>  <PUBCHEM_CONFORMER_ID>  (1) 
0000812B00000001

>  <PUBCHEM_MMFF94_ENERGY>  (1) 
27.8654

>  <PUBCHEM_FEATURE_SELFOVERLAP>  (1) 
20.298

>  <PUBCHEM_SHAPE_FINGERPRINT>  (1) 
11128504 68 15936415554140989782
11806522 49 18337675222675878442
12032990 46 18411983550885121760
12555020 224 18411408523927204975
12596602 18 16056589993409107903
12841375 25 18411418397418467688
12892183 10 12463570673151270500
13533116 47 18198904915262738955
13740256 8 18410857667820674618
13955234 65 18055352697782263264
14251731 8 18333729087933170503
14251764 18 18272939336802354833
14252887 29 17703798015660846500
14576447 43 18335140835436634138
14866123 147 17837777729373892681
15188451 53 15554147264918678733
15196674 1 18410293626903433547
15352361 1 18411700958990333654
15477762 27 18409449215317197852
17804303 29 18408041832038551133
17834074 16 18334856164608285099
18186145 218 17676198087412035933
193927 3 18130799918991466518
19784866 240 18341620282437273838
200 152 18273494563407636738
20261772 1 17917988391089527566
20281475 54 18410860957702586233
20374829 77 18334853892127610322
204376 136 7925910387376346993
20645477 70 18413387652734589830
20671657 53 18341900705131640545
20871999 31 18114461167407065173
21250096 35 18343018891234644745
21267235 1 18412551985417081414
21713013 43 18040429975613953182
221357 26 18408036325795558063
221490 88 18263369259648729146
2215653 11 18410283719178539279
23403322 49 18410293588354209947
23559900 14 18338227267354394689
239999 70 18411420614186075390
2871803 45 18260827090128866554
2916195 48 11242268371660472854
3004659 81 18187364299104028874
314173 41 18409450288699987914
314194 84 18201717379295010198
3323516 105 18334292106300120075
3421961 26 18342173405759132504
4214541 1 18408885105743673229
4416823 128 18410575080373399360
46194498 28 17604149345280931685
465052 167 18272938266807294391
4921388 177 16370734772390736219
5104073 3 18342175557221035969
5281201 14 17967531293846291701
559249 180 18268990878086648505
77779 3 18335701671833323845
9709674 26 18190461760761595323

>  <PUBCHEM_SHAPE_MULTIPOLES>  (1) 
335.89
12.03
2.22
0.73
3.32
0.29
0.01
-6.63
1.47
-1.06
-0.19
0.22
-0.01
0.65

>  <PUBCHEM_SHAPE_SELFOVERLAP>  (1) 
690.564

>  <PUBCHEM_SHAPE_VOLUME>  (1) 
193.6

>  <PUBCHEM_COORDINATE_TYPE>  (1) 
2
5
10

$$$$
