33068
     RDKit          3D

 14 14  0  0  0  0  0  0  0  0999 V2000
    0.9555    3.0540   -0.0004 Br  0  0  0  0  0  0  0  0  0  0  0  0
    4.9743   -0.9428    0.0000 Br  0  0  0  0  0  0  0  0  0  0  0  0
   -4.2255   -0.1200   -1.4608 Cl  0  0  0  0  0  0  0  0  0  0  0  0
   -4.2240   -0.1177    1.4612 Cl  0  0  0  0  0  0  0  0  0  0  0  0
   -1.9500   -1.5945    0.0010 O   0  0  0  0  0  0  0  0  0  0  0  0
   -0.9246    0.5198   -0.0002 N   0  0  0  0  0  0  0  0  0  0  0  0
    0.4395    0.2133    0.0001 C   0  0  0  0  0  0  0  0  0  0  0  0
    1.4136    1.2116   -0.0002 C   0  0  0  0  0  0  0  0  0  0  0  0
    0.8169   -1.1295    0.0001 C   0  0  0  0  0  0  0  0  0  0  0  0
    2.7652    0.8671   -0.0001 C   0  0  0  0  0  0  0  0  0  0  0  0
    2.1685   -1.4741    0.0000 C   0  0  0  0  0  0  0  0  0  0  0  0
    3.1427   -0.4758   -0.0001 C   0  0  0  0  0  0  0  0  0  0  0  0
   -2.0104   -0.3673   -0.0003 C   0  0  0  0  0  0  0  0  0  0  0  0
   -3.3418    0.3559   -0.0005 C   0  0  0  0  0  0  0  0  0  0  0  0
  1  8  1  0
  2 12  1  0
  3 14  1  0
  4 14  1  0
  5 13  2  0
  6  7  1  0
  6 13  1  0
  7  8  2  0
  7  9  1  0
  8 10  1  0
  9 11  2  0
 10 12  2  0
 11 12  1  0
 13 14  1  0
M  END
>  <PUBCHEM_COMPOUND_CID>  (1) 
33068

>  <PUBCHEM_CONFORMER_RMSD>  (1) 
0.6

>  <PUBCHEM_CONFORMER_DIVERSEORDER>  (1) 
1
7
5
4
2
6
8
3

>  <PUBCHEM_MMFF94_PARTIAL_CHARGES>  (1) 
18
1 -0.11
10 -0.15
11 -0.15
12 0.11
13 0.57
14 0.64
15 0.37
16 0.15
17 0.15
18 0.15
2 -0.11
3 -0.29
4 -0.29
5 -0.57
6 -0.55
7 0.12
8 0.11
9 -0.15

>  <PUBCHEM_EFFECTIVE_ROTOR_COUNT>  (1) 
3

>  <PUBCHEM_PHARMACOPHORE_FEATURES>  (1) 
5
1 1 hydrophobe
1 2 hydrophobe
1 5 acceptor
1 6 donor
6 7 8 9 10 11 12 rings

>  <PUBCHEM_HEAVY_ATOM_COUNT>  (1) 
14

>  <PUBCHEM_ATOM_DEF_STEREO_COUNT>  (1) 
0

>  <PUBCHEM_ATOM_UDEF_STEREO_COUNT>  (1) 
0

>  <PUBCHEM_BOND_DEF_STEREO_COUNT>  (1) 
0

>  <PUBCHEM_BOND_UDEF_STEREO_COUNT>  (1) 
0

>  <PUBCHEM_ISOTOPIC_ATOM_COUNT>  (1) 
0

>  <PUBCHEM_COMPONENT_COUNT>  (1) 
1

>  <PUBCHEM_CACTVS_TAUTO_COUNT>  (1) 
2

>  <PUBCHEM_CONFORMER_ID>  (1) 
0000812C00000001

>  <PUBCHEM_MMFF94_ENERGY>  (1) 
33.8699

>  <PUBCHEM_FEATURE_SELFOVERLAP>  (1) 
25.371

>  <PUBCHEM_SHAPE_FINGERPRINT>  (1) 
10130415 120 18408602556798045032
11401426 45 18410567388662134570
11471102 20 18410006658853286644
12032990 46 18409735032563685138
12251169 10 18341338846358031003
124424 183 18187079546623958355
12553582 1 18410292480395098450
12916754 54 18338235002817140075
12932764 1 17603856845249531683
13760787 5 18410578396188495788
13862211 1 18411131399551937094
14144814 61 18413109455023569857
14251717 144 18412536630602802975
14252887 29 18200883876888834818
14911166 2 18335977605901406703
14993402 34 18342735217477473222
15375462 189 18187363203697542778
15848700 24 18341604902565731348
16945 1 18410575106148549348
18186145 218 18410576214513862355
200 152 18059564794042320007
20201158 50 18408884018652762574
20233049 118 18186515480158440396
20606313 2 18410006654547847764
20645477 70 18409442579107513583
20671657 1 18268996568713081076
20871998 22 18199477562877839798
21029758 11 18411974750391903548
21267235 1 18411709767841644202
21501502 16 18195250146379130099
21639500 275 18267856362655174125
221490 88 18191871338551986058
23402539 116 18200868483203507917
23402655 69 18340758248573972749
23557571 272 18128544773825447796
23598291 2 18131069385054994949
2748010 2 18048319143326210564
3071541 12 18194968663182113728
5104073 3 18340770445790600402
6049 1 17822293535017083141
68521 5 18337392613559237708
7364860 26 18269273633043228344
74978 22 18339922731247626799
81228 2 18122076303590000640
8809292 202 18187370960197534642
9971528 1 18272080613277676576

>  <PUBCHEM_SHAPE_MULTIPOLES>  (1) 
292.89
8.74
2.13
0.96
1.98
2
0
-3.07
0
-1.41
0
1.37
-0.05
0

>  <PUBCHEM_SHAPE_SELFOVERLAP>  (1) 
557.232

>  <PUBCHEM_SHAPE_VOLUME>  (1) 
186.8

>  <PUBCHEM_COORDINATE_TYPE>  (1) 
2
5
10

$$$$
