33061
     RDKit          3D

 16 17  0  0  0  0  0  0  0  0999 V2000
   -5.1550    1.9684   -0.3042 Cl  0  0  0  0  0  0  0  0  0  0  0  0
   -0.4234   -2.7676    0.1943 O   0  0  0  0  0  0  0  0  0  0  0  0
    2.8778   -0.1003   -0.0295 N   0  0  0  0  0  0  0  0  0  0  0  0
    1.7060   -0.6279   -0.4192 N   0  0  0  0  0  0  0  0  0  0  0  0
    5.0751    0.6949   -0.4343 C   0  0  0  0  0  0  0  0  0  0  0  0
    4.3782    1.5451    0.6179 C   0  0  0  0  0  0  0  0  0  0  0  0
    4.0262   -0.3046   -0.9088 C   0  0  0  0  0  0  0  0  0  0  0  0
    2.9010    1.3002    0.3803 C   0  0  0  0  0  0  0  0  0  0  0  0
    0.9609   -0.9542    0.5777 C   0  0  0  0  0  0  0  0  0  0  0  0
   -0.3754   -1.5503    0.2897 C   0  0  0  0  0  0  0  0  0  0  0  0
   -1.5607   -0.6782    0.1435 C   0  0  0  0  0  0  0  0  0  0  0  0
   -1.4099    0.6897    0.2776 C   0  0  0  0  0  0  0  0  0  0  0  0
   -2.7897   -1.2521   -0.1252 C   0  0  0  0  0  0  0  0  0  0  0  0
   -2.5274    1.5126    0.1381 C   0  0  0  0  0  0  0  0  0  0  0  0
   -3.9074   -0.4292   -0.2648 C   0  0  0  0  0  0  0  0  0  0  0  0
   -3.7762    0.9534   -0.1332 C   0  0  0  0  0  0  0  0  0  0  0  0
  1 16  1  0
  2 10  2  0
  3  4  1  0
  3  7  1  0
  3  8  1  0
  4  9  2  0
  5  6  1  0
  5  7  1  0
  6  8  1  0
  9 10  1  0
 10 11  1  0
 11 12  2  0
 11 13  1  0
 12 14  1  0
 13 15  2  0
 14 16  2  0
 15 16  1  0
M  END
>  <PUBCHEM_COMPOUND_CID>  (1) 
33061

>  <PUBCHEM_CONFORMER_RMSD>  (1) 
0.6

>  <PUBCHEM_CONFORMER_DIVERSEORDER>  (1) 
1
16
11
18
12
9
5
13
15
19
20
10
17
6
4
7
3
14
8
2

>  <PUBCHEM_MMFF94_PARTIAL_CHARGES>  (1) 
19
1 -0.18
10 0.48
11 0.09
12 -0.15
13 -0.15
14 -0.15
15 -0.15
16 0.18
2 -0.57
25 0.06
26 0.15
27 0.15
28 0.15
29 0.15
3 -0.49
4 -0.5
7 0.27
8 0.27
9 0.39

>  <PUBCHEM_EFFECTIVE_ROTOR_COUNT>  (1) 
4

>  <PUBCHEM_PHARMACOPHORE_FEATURES>  (1) 
4
1 2 acceptor
1 4 acceptor
5 3 5 6 7 8 rings
6 11 12 13 14 15 16 rings

>  <PUBCHEM_HEAVY_ATOM_COUNT>  (1) 
16

>  <PUBCHEM_ATOM_DEF_STEREO_COUNT>  (1) 
0

>  <PUBCHEM_ATOM_UDEF_STEREO_COUNT>  (1) 
0

>  <PUBCHEM_BOND_DEF_STEREO_COUNT>  (1) 
0

>  <PUBCHEM_BOND_UDEF_STEREO_COUNT>  (1) 
1

>  <PUBCHEM_ISOTOPIC_ATOM_COUNT>  (1) 
0

>  <PUBCHEM_COMPONENT_COUNT>  (1) 
1

>  <PUBCHEM_CACTVS_TAUTO_COUNT>  (1) 
1

>  <PUBCHEM_CONFORMER_ID>  (1) 
0000812500000001

>  <PUBCHEM_MMFF94_ENERGY>  (1) 
31.7975

>  <PUBCHEM_FEATURE_SELFOVERLAP>  (1) 
20.298

>  <PUBCHEM_SHAPE_FINGERPRINT>  (1) 
10014705 185 18409729564906936501
10498660 4 18410289190355385993
10608611 8 18270400624140393376
11046707 91 10231759980637424263
11543360 7 16773507858417647205
122479 349 18261395584890283338
12251169 10 12107792916764783858
12346645 44 18335419041389221243
12390115 104 18270134435073751545
12403259 415 18271528692736831704
12596602 18 15792022194098069860
12892183 10 12829485939345793431
13081056 2 18342178890310712128
14123255 52 18409164389938597915
15196674 1 18411136939426395424
15775835 57 18260267425693330530
1741750 31 18409166631927773218
17539 30 17984129641855144919
17834072 32 18410293605492004521
1798214 55 18408602543628494721
18186145 218 18202010914671633410
19784866 34 18337105671104541673
200 152 16056608655315808986
20300324 65 18130786793529055863
20388580 30 11743828183960539538
20645477 56 18338802311771814394
20645477 70 17203345407417466702
20671657 53 13830129477478981850
20871999 31 17774990328666104703
212847 35 18333731291399144728
21524375 3 18334575702875000530
23227448 37 18269271438050916941
23402539 116 18342170089975398990
23402655 69 18202846543524612796
23557571 272 18271815682298679967
23559900 14 18272933808963355226
2916195 48 18342731966282305656
293599 30 18410857633856607617
351380 180 18343299275775030260
3545911 37 18410859853890313660
4028521 119 18341895198972699124
465052 167 9654990313587176649
474 4 17894638040937890629
5104073 3 18188774942541877019
633830 44 18341889671328651647
7364860 26 18122905330714508947
83771 10 10015863180363799602
9709674 26 18271532008641650654
9981440 41 18334853939404393587

>  <PUBCHEM_SHAPE_MULTIPOLES>  (1) 
315.31
10.8
2.15
0.76
3.94
0.5
0.03
-6.72
1.69
-1.17
-0.19
0.36
-0.03
0.47

>  <PUBCHEM_SHAPE_SELFOVERLAP>  (1) 
653.471

>  <PUBCHEM_SHAPE_VOLUME>  (1) 
182.8

>  <PUBCHEM_COORDINATE_TYPE>  (1) 
2
5
10

$$$$
