33073
     RDKit          3D

 17 18  0  0  0  0  0  0  0  0999 V2000
    4.9767    1.2478    0.1001 O   0  0  0  0  0  0  0  0  0  0  0  0
   -0.8470   -2.7780   -0.2943 O   0  0  0  0  0  0  0  0  0  0  0  0
    2.5560   -0.2570    0.0764 N   0  0  0  0  0  0  0  0  0  0  0  0
    1.3519   -0.7519    0.4305 N   0  0  0  0  0  0  0  0  0  0  0  0
    3.6533   -0.5760    0.9953 C   0  0  0  0  0  0  0  0  0  0  0  0
    2.5879    1.1583   -0.3100 C   0  0  0  0  0  0  0  0  0  0  0  0
    4.9931   -0.1455    0.4087 C   0  0  0  0  0  0  0  0  0  0  0  0
    3.9592    1.5384   -0.8575 C   0  0  0  0  0  0  0  0  0  0  0  0
    0.6076   -1.0033   -0.5885 C   0  0  0  0  0  0  0  0  0  0  0  0
   -1.9060   -0.6512   -0.1628 C   0  0  0  0  0  0  0  0  0  0  0  0
   -0.7537   -1.5605   -0.3430 C   0  0  0  0  0  0  0  0  0  0  0  0
   -4.0609    1.0487    0.1736 C   0  0  0  0  0  0  0  0  0  0  0  0
   -1.7015    0.7147   -0.2253 C   0  0  0  0  0  0  0  0  0  0  0  0
   -3.1593   -1.1901    0.0635 C   0  0  0  0  0  0  0  0  0  0  0  0
   -2.7883    1.5723   -0.0555 C   0  0  0  0  0  0  0  0  0  0  0  0
   -4.2463   -0.3326    0.2331 C   0  0  0  0  0  0  0  0  0  0  0  0
   -5.2229    1.9659    0.3558 C   0  0  0  0  0  0  0  0  0  0  0  0
  1  7  1  0
  1  8  1  0
  2 11  2  0
  3  4  1  0
  3  5  1  0
  3  6  1  0
  4  9  2  0
  5  7  1  0
  6  8  1  0
  9 11  1  0
 10 11  1  0
 10 13  2  0
 10 14  1  0
 12 15  2  0
 12 16  1  0
 12 17  1  0
 13 15  1  0
 14 16  2  0
M  END
>  <PUBCHEM_COMPOUND_CID>  (1) 
33073

>  <PUBCHEM_CONFORMER_RMSD>  (1) 
0.6

>  <PUBCHEM_CONFORMER_DIVERSEORDER>  (1) 
1
18
10
12
11
17
33
29
20
15
26
23
32
21
3
14
24
25
31
16
19
6
8
28
27
9
7
30
13
22
4
5
2

>  <PUBCHEM_MMFF94_PARTIAL_CHARGES>  (1) 
22
1 -0.56
10 0.09
11 0.48
12 -0.14
13 -0.15
14 -0.15
15 -0.15
16 -0.15
17 0.14
2 -0.57
26 0.06
27 0.15
28 0.15
29 0.15
3 -0.49
30 0.15
4 -0.5
5 0.27
6 0.27
7 0.28
8 0.28
9 0.39

>  <PUBCHEM_EFFECTIVE_ROTOR_COUNT>  (1) 
4.2

>  <PUBCHEM_PHARMACOPHORE_FEATURES>  (1) 
5
1 1 acceptor
1 2 acceptor
1 4 acceptor
6 1 3 5 6 7 8 rings
6 10 12 13 14 15 16 rings

>  <PUBCHEM_HEAVY_ATOM_COUNT>  (1) 
17

>  <PUBCHEM_ATOM_DEF_STEREO_COUNT>  (1) 
0

>  <PUBCHEM_ATOM_UDEF_STEREO_COUNT>  (1) 
0

>  <PUBCHEM_BOND_DEF_STEREO_COUNT>  (1) 
0

>  <PUBCHEM_BOND_UDEF_STEREO_COUNT>  (1) 
1

>  <PUBCHEM_ISOTOPIC_ATOM_COUNT>  (1) 
0

>  <PUBCHEM_COMPONENT_COUNT>  (1) 
1

>  <PUBCHEM_CACTVS_TAUTO_COUNT>  (1) 
1

>  <PUBCHEM_CONFORMER_ID>  (1) 
0000813100000001

>  <PUBCHEM_MMFF94_ENERGY>  (1) 
38.2568

>  <PUBCHEM_FEATURE_SELFOVERLAP>  (1) 
25.373

>  <PUBCHEM_SHAPE_FINGERPRINT>  (1) 
10354089 29 18040719164784547696
12107183 9 17756977922483150634
12236239 1 18334011705545242200
122479 349 18408888451090699643
12390115 104 18129398059062127713
12596602 18 17385725815652091945
13214271 11 18411699885823308415
13583140 156 16878214291049495973
13897977 58 18335985362601605228
14123255 352 18410290290025029085
14252887 29 14707203297612518258
15196674 1 18410293622571504029
17539 30 17628903810552157327
17834072 32 18412827992626182561
204376 136 18411982429998988247
20645477 56 18342739649952138278
20645477 70 16271663230130989974
21065198 48 18259700116490808026
212847 35 18342173354435620904
21524375 3 18341609304633156375
21652331 79 18333448759333251004
22620623 9 16414616298735346671
23402539 116 18201711860156312541
23557571 272 17846224405316014223
23559900 14 18201162040456518094
2916195 48 17846205696485919776
4214541 1 18409729581986286504
474 4 18338800005421823275
5104073 3 18260824930002826112
59682541 52 16127817327139627293
633830 44 18410854334947529142
6430166 295 18412542119966554934
7064713 232 18410575063262745237
76465 3 11026096697927819753
77779 3 18335702767007792810

>  <PUBCHEM_SHAPE_MULTIPOLES>  (1) 
328.15
11.38
2.13
0.78
4.15
0.39
-0.02
-6.03
-1.74
-1.14
0.24
0.4
-0.01
-0.76

>  <PUBCHEM_SHAPE_SELFOVERLAP>  (1) 
684.353

>  <PUBCHEM_SHAPE_VOLUME>  (1) 
185.8

>  <PUBCHEM_COORDINATE_TYPE>  (1) 
2
5
10

$$$$
