33079
     RDKit          3D

 17 18  0  0  0  0  0  0  0  0999 V2000
   -1.8683   -2.5173   -0.4361 O   0  0  0  0  0  0  0  0  0  0  0  0
    4.4658    0.7031    0.1982 N   0  0  0  0  0  0  0  0  0  0  0  0
    1.8272   -0.4855    0.1016 N   0  0  0  0  0  0  0  0  0  0  0  0
    0.5679   -0.8471    0.4241 N   0  0  0  0  0  0  0  0  0  0  0  0
    4.2732   -0.7304    0.4435 C   0  0  0  0  0  0  0  0  0  0  0  0
    3.4481    1.1986   -0.7350 C   0  0  0  0  0  0  0  0  0  0  0  0
    2.8694   -1.0075    0.9883 C   0  0  0  0  0  0  0  0  0  0  0  0
    2.0382    0.9335   -0.1995 C   0  0  0  0  0  0  0  0  0  0  0  0
    5.8098    0.9654   -0.3132 C   0  0  0  0  0  0  0  0  0  0  0  0
   -0.1976   -0.9263   -0.6070 C   0  0  0  0  0  0  0  0  0  0  0  0
   -1.6201   -1.3215   -0.3963 C   0  0  0  0  0  0  0  0  0  0  0  0
   -2.6475   -0.2881   -0.1448 C   0  0  0  0  0  0  0  0  0  0  0  0
   -2.2695    1.0415   -0.1085 C   0  0  0  0  0  0  0  0  0  0  0  0
   -3.9604   -0.6772    0.0473 C   0  0  0  0  0  0  0  0  0  0  0  0
   -3.2386    2.0164    0.1286 C   0  0  0  0  0  0  0  0  0  0  0  0
   -4.9294    0.2978    0.2842 C   0  0  0  0  0  0  0  0  0  0  0  0
   -4.5684    1.6446    0.3247 C   0  0  0  0  0  0  0  0  0  0  0  0
  1 11  2  0
  2  5  1  0
  2  6  1  0
  2  9  1  0
  3  4  1  0
  3  7  1  0
  3  8  1  0
  4 10  2  0
  5  7  1  0
  6  8  1  0
 10 11  1  0
 11 12  1  0
 12 13  2  0
 12 14  1  0
 13 15  1  0
 14 16  2  0
 15 17  2  0
 16 17  1  0
M  END
>  <PUBCHEM_COMPOUND_CID>  (1) 
33079

>  <PUBCHEM_CONFORMER_RMSD>  (1) 
0.6

>  <PUBCHEM_CONFORMER_DIVERSEORDER>  (1) 
1
21
39
59
40
56
28
25
57
55
36
37
34
11
60
22
42
24
5
61
62
16
12
33
35
48
58
45
41
19
49
15
38
29
44
54
6
7
23
14
51
9
18
4
43
53
30
46
50
8
31
32
17
13
52
10
3
20
27
47
2
26

>  <PUBCHEM_MMFF94_PARTIAL_CHARGES>  (1) 
23
1 -0.57
10 0.39
11 0.48
12 0.09
13 -0.15
14 -0.15
15 -0.15
16 -0.15
17 -0.15
2 -0.81
29 0.06
3 -0.49
30 0.15
31 0.15
32 0.15
33 0.15
34 0.15
4 -0.5
5 0.27
6 0.27
7 0.27
8 0.27
9 0.27

>  <PUBCHEM_EFFECTIVE_ROTOR_COUNT>  (1) 
4.2

>  <PUBCHEM_PHARMACOPHORE_FEATURES>  (1) 
5
1 1 acceptor
1 2 cation
1 4 acceptor
6 12 13 14 15 16 17 rings
6 2 3 5 6 7 8 rings

>  <PUBCHEM_HEAVY_ATOM_COUNT>  (1) 
17

>  <PUBCHEM_ATOM_DEF_STEREO_COUNT>  (1) 
0

>  <PUBCHEM_ATOM_UDEF_STEREO_COUNT>  (1) 
0

>  <PUBCHEM_BOND_DEF_STEREO_COUNT>  (1) 
0

>  <PUBCHEM_BOND_UDEF_STEREO_COUNT>  (1) 
1

>  <PUBCHEM_ISOTOPIC_ATOM_COUNT>  (1) 
0

>  <PUBCHEM_COMPONENT_COUNT>  (1) 
1

>  <PUBCHEM_CACTVS_TAUTO_COUNT>  (1) 
1

>  <PUBCHEM_CONFORMER_ID>  (1) 
0000813700000001

>  <PUBCHEM_MMFF94_ENERGY>  (1) 
39.244

>  <PUBCHEM_FEATURE_SELFOVERLAP>  (1) 
25.372

>  <PUBCHEM_SHAPE_FINGERPRINT>  (1) 
10354089 29 18113058238078303256
10730089 173 18413111662853433900
12107183 9 17758107103681703858
12236239 1 18334294275511727448
12251169 10 18334293171314865815
12390115 104 17987250958214155929
12596602 18 17603867801727052025
12916748 109 18411707581676637462
13897977 58 18409449202252642629
14251752 14 10951775145092155403
14251764 18 18260543434131397074
14252887 29 15285355085798592786
14341114 176 18187090528865877467
15196674 1 18410011005170422377
15880784 105 14418427623469868393
17834072 32 18340770343080824865
20374829 77 8070022264454020953
20645477 56 18272090512934362903
20645477 70 16271661005206048886
21065198 48 18260824886720999059
212847 35 18343016666847787040
21524375 3 18343016654116080055
21652331 79 18334012782944087261
22485316 2 9655573006797875787
22854114 59 17022620870696304146
23402539 116 18202557384835559621
23402655 69 18409449206906260566
23403322 49 8790877485034366881
23557571 272 17917153912997496455
23559900 14 18059017151358220806
3545911 37 18413392042433746294
38570 142 17388287717048401652
4214541 1 18411136943710637804
474 4 17749111136104213780
4921388 177 15123212369661865773
5104073 3 18260822735459180194
542803 24 18060419109944511384
6430166 295 18413387622664491844
7062679 6 18408610288024443244
77779 3 18408603664815406090

>  <PUBCHEM_SHAPE_MULTIPOLES>  (1) 
329.04
12.03
1.94
0.78
6.51
0.16
-0.02
-4.72
-0.85
-1.19
0.13
0.27
0.07
-0.93

>  <PUBCHEM_SHAPE_SELFOVERLAP>  (1) 
682.474

>  <PUBCHEM_SHAPE_VOLUME>  (1) 
187.7

>  <PUBCHEM_COORDINATE_TYPE>  (1) 
2
5
10

$$$$
