33075
     RDKit          3D

 17 18  0  0  0  0  0  0  0  0999 V2000
   -5.4062    2.0617    0.3657 Cl  0  0  0  0  0  0  0  0  0  0  0  0
    4.9780    1.2757    0.0987 O   0  0  0  0  0  0  0  0  0  0  0  0
   -0.8161   -2.7936   -0.2851 O   0  0  0  0  0  0  0  0  0  0  0  0
    2.5683   -0.2466    0.0788 N   0  0  0  0  0  0  0  0  0  0  0  0
    1.3674   -0.7489    0.4337 N   0  0  0  0  0  0  0  0  0  0  0  0
    3.6670   -0.5542    0.9999 C   0  0  0  0  0  0  0  0  0  0  0  0
    2.5903    1.1673   -0.3132 C   0  0  0  0  0  0  0  0  0  0  0  0
    5.0042   -0.1163    0.4127 C   0  0  0  0  0  0  0  0  0  0  0  0
    3.9593    1.5552   -0.8609 C   0  0  0  0  0  0  0  0  0  0  0  0
    0.6259   -1.0096   -0.5849 C   0  0  0  0  0  0  0  0  0  0  0  0
   -1.8906   -0.6740   -0.1627 C   0  0  0  0  0  0  0  0  0  0  0  0
   -0.7316   -1.5756   -0.3384 C   0  0  0  0  0  0  0  0  0  0  0  0
   -1.6953    0.6931   -0.2304 C   0  0  0  0  0  0  0  0  0  0  0  0
   -3.1405   -1.2205    0.0632 C   0  0  0  0  0  0  0  0  0  0  0  0
   -2.7885    1.5438   -0.0663 C   0  0  0  0  0  0  0  0  0  0  0  0
   -4.2338   -0.3699    0.2271 C   0  0  0  0  0  0  0  0  0  0  0  0
   -4.0578    1.0124    0.1623 C   0  0  0  0  0  0  0  0  0  0  0  0
  1 17  1  0
  2  8  1  0
  2  9  1  0
  3 12  2  0
  4  5  1  0
  4  6  1  0
  4  7  1  0
  5 10  2  0
  6  8  1  0
  7  9  1  0
 10 12  1  0
 11 12  1  0
 11 13  2  0
 11 14  1  0
 13 15  1  0
 14 16  2  0
 15 17  2  0
 16 17  1  0
M  END
>  <PUBCHEM_COMPOUND_CID>  (1) 
33075

>  <PUBCHEM_CONFORMER_RMSD>  (1) 
0.6

>  <PUBCHEM_CONFORMER_DIVERSEORDER>  (1) 
1
18
23
33
10
11
17
15
26
12
34
21
20
28
14
27
25
24
29
19
32
16
3
6
7
9
30
8
31
22
13
4
5
2

>  <PUBCHEM_MMFF94_PARTIAL_CHARGES>  (1) 
22
1 -0.18
10 0.39
11 0.09
12 0.48
13 -0.15
14 -0.15
15 -0.15
16 -0.15
17 0.18
2 -0.56
26 0.06
27 0.15
28 0.15
29 0.15
3 -0.57
30 0.15
4 -0.49
5 -0.5
6 0.27
7 0.27
8 0.28
9 0.28

>  <PUBCHEM_EFFECTIVE_ROTOR_COUNT>  (1) 
4.2

>  <PUBCHEM_PHARMACOPHORE_FEATURES>  (1) 
5
1 2 acceptor
1 3 acceptor
1 5 acceptor
6 11 13 14 15 16 17 rings
6 2 4 6 7 8 9 rings

>  <PUBCHEM_HEAVY_ATOM_COUNT>  (1) 
17

>  <PUBCHEM_ATOM_DEF_STEREO_COUNT>  (1) 
0

>  <PUBCHEM_ATOM_UDEF_STEREO_COUNT>  (1) 
0

>  <PUBCHEM_BOND_DEF_STEREO_COUNT>  (1) 
0

>  <PUBCHEM_BOND_UDEF_STEREO_COUNT>  (1) 
1

>  <PUBCHEM_ISOTOPIC_ATOM_COUNT>  (1) 
0

>  <PUBCHEM_COMPONENT_COUNT>  (1) 
1

>  <PUBCHEM_CACTVS_TAUTO_COUNT>  (1) 
1

>  <PUBCHEM_CONFORMER_ID>  (1) 
0000813300000001

>  <PUBCHEM_MMFF94_ENERGY>  (1) 
36.4576

>  <PUBCHEM_FEATURE_SELFOVERLAP>  (1) 
25.373

>  <PUBCHEM_SHAPE_FINGERPRINT>  (1) 
10354089 29 18040719164779285928
12107183 9 17828754045849897706
12236239 1 18333730230526340032
122479 349 18408606976119263731
12251169 10 18260826016503048158
12390115 104 18201455653100049137
12596602 18 17385725819936509737
13214271 11 18411699885833870911
13583140 156 16877931716555876301
13897977 58 18335985366922913814
14123255 352 18410571765007014469
15196674 1 18410012147615885893
17539 30 17700961404590085255
17834072 32 18412546517670570933
17980427 23 18260271858896185237
204376 136 18411982430009537751
20621476 66 18412268350441248356
20645477 56 18343021129244941222
20645477 70 16343440453014639582
21065198 48 18259981595778290730
212847 35 18342173358714763944
21524375 3 18341890783873211807
21652331 79 18333448767981175404
22485316 2 9511463320675437282
22620623 9 16414616294450922383
23402539 116 18201711864456548101
23557571 272 17845941830811845031
23559900 14 18200036118779511342
2916195 48 17846205696448996504
4214541 1 18409728482485195242
474 4 18338801104954530579
5104073 3 18260543454999793656
59682541 52 16127817327202937293
633830 44 18410572864271060518
6430166 295 18412260645010949790
7064713 232 18410575067568255549
76465 3 10881700034875240217
77779 3 18335421292046919402

>  <PUBCHEM_SHAPE_MULTIPOLES>  (1) 
330.02
11.6
2.18
0.78
3.41
0.38
-0.02
-6.65
-1.81
-1.24
0.24
0.4
-0.02
-0.76

>  <PUBCHEM_SHAPE_SELFOVERLAP>  (1) 
681.273

>  <PUBCHEM_SHAPE_VOLUME>  (1) 
190.3

>  <PUBCHEM_COORDINATE_TYPE>  (1) 
2
5
10

$$$$
