3308
     RDKit          3D

 21 23  0  0  1  0  0  0  0  0999 V2000
   -2.4010    1.1785   -0.6286 O   0  0  0  0  0  0  0  0  0  0  0  0
   -4.1917   -2.1084    1.1506 O   0  0  0  0  0  0  0  0  0  0  0  0
   -4.7322    0.0319    0.5957 O   0  0  0  0  0  0  0  0  0  0  0  0
    0.6384   -0.8171    0.0896 N   0  0  0  0  0  0  0  0  0  0  0  0
   -1.7856   -0.0799   -0.2428 C   0  0  0  0  0  0  0  0  0  0  0  0
   -0.3129    0.1487   -0.0874 C   0  0  0  0  0  0  0  0  0  0  0  0
    0.3135    1.3762   -0.0655 C   0  0  0  0  0  0  0  0  0  0  0  0
   -0.4678    2.6270   -0.2318 C   0  0  0  0  0  0  0  0  0  0  0  0
   -2.0809   -1.0562   -1.3848 C   0  0  0  0  0  0  0  0  0  0  0  0
   -2.4194   -0.5850    1.0565 C   0  0  0  0  0  0  0  0  0  0  0  0
    1.7040    1.1531    0.1167 C   0  0  0  0  0  0  0  0  0  0  0  0
   -1.9436    2.3420    0.0819 C   0  0  0  0  0  0  0  0  0  0  0  0
    1.8811   -0.2316    0.2116 C   0  0  0  0  0  0  0  0  0  0  0  0
    3.1375   -0.8192    0.3977 C   0  0  0  0  0  0  0  0  0  0  0  0
   -1.5288   -0.5458   -2.6999 C   0  0  0  0  0  0  0  0  0  0  0  0
    2.8348    1.9886    0.2112 C   0  0  0  0  0  0  0  0  0  0  0  0
   -3.8974   -0.8067    0.9002 C   0  0  0  0  0  0  0  0  0  0  0  0
    3.3319   -2.2953    0.5012 C   0  0  0  0  0  0  0  0  0  0  0  0
    4.2435    0.0303    0.4884 C   0  0  0  0  0  0  0  0  0  0  0  0
    4.0968    1.4128    0.3968 C   0  0  0  0  0  0  0  0  0  0  0  0
    3.5800   -2.9440   -0.8577 C   0  0  0  0  0  0  0  0  0  0  0  0
  1  5  1  0
  1 12  1  0
  2 17  1  0
  3 17  2  0
  4  6  1  0
  4 13  1  0
  5  6  1  0
  5  9  1  0
  5 10  1  0
  6  7  2  0
  7  8  1  0
  7 11  1  0
  8 12  1  0
  9 15  1  0
 10 17  1  0
 11 13  2  0
 11 16  1  0
 13 14  1  0
 14 18  1  0
 14 19  2  0
 16 20  2  0
 18 21  1  0
 19 20  1  0
M  END
>  <PUBCHEM_COMPOUND_CID>  (1) 
3308

>  <PUBCHEM_CONFORMER_RMSD>  (1) 
0.8

>  <PUBCHEM_CONFORMER_DIVERSEORDER>  (1) 
1
3
5
8
10
9
6
2
4
7

>  <PUBCHEM_MMFF94_PARTIAL_CHARGES>  (1) 
22
1 -0.56
10 0.06
12 0.28
13 -0.15
14 -0.14
16 -0.15
17 0.66
18 0.14
19 -0.15
2 -0.65
20 -0.15
3 -0.57
30 0.27
34 0.15
37 0.15
38 0.15
4 0.03
42 0.5
5 0.46
6 -0.33
7 -0.18
8 0.18

>  <PUBCHEM_EFFECTIVE_ROTOR_COUNT>  (1) 
4.8

>  <PUBCHEM_PHARMACOPHORE_FEATURES>  (1) 
11
1 1 acceptor
1 15 hydrophobe
1 2 acceptor
1 21 hydrophobe
1 3 acceptor
1 4 cation
1 4 donor
3 2 3 17 anion
5 4 6 7 11 13 rings
6 1 5 6 7 8 12 rings
6 11 13 14 16 19 20 rings

>  <PUBCHEM_HEAVY_ATOM_COUNT>  (1) 
21

>  <PUBCHEM_ATOM_DEF_STEREO_COUNT>  (1) 
0

>  <PUBCHEM_ATOM_UDEF_STEREO_COUNT>  (1) 
1

>  <PUBCHEM_BOND_DEF_STEREO_COUNT>  (1) 
0

>  <PUBCHEM_BOND_UDEF_STEREO_COUNT>  (1) 
0

>  <PUBCHEM_ISOTOPIC_ATOM_COUNT>  (1) 
0

>  <PUBCHEM_COMPONENT_COUNT>  (1) 
1

>  <PUBCHEM_CACTVS_TAUTO_COUNT>  (1) 
1

>  <PUBCHEM_CONFORMER_ID>  (1) 
00000CEC00000001

>  <PUBCHEM_MMFF94_ENERGY>  (1) 
41.7456

>  <PUBCHEM_FEATURE_SELFOVERLAP>  (1) 
56.06

>  <PUBCHEM_SHAPE_FINGERPRINT>  (1) 
10967382 1 18410007780114096408
1100329 8 14373674614017037555
11552529 35 17915746577291394947
11578080 2 17096634432107596572
12236239 1 17774722073408677047
12403814 3 18273209811829964393
12553582 1 18341322375395717150
12633257 1 16343694422419607178
12892183 10 18200886170311343457
13140716 1 18122900937495260848
13296908 3 18334573499809627970
13544653 18 18041286560039696059
13583140 156 18129663144417172275
14223421 5 18408885114206766968
14252887 29 18336837467133839818
14787075 74 17824546498371026568
14790565 3 17832436658132000612
15375462 189 18130785706696679800
15422964 175 18334016128723227555
16945 1 18339630265645018288
17492 89 18338233765413287682
1813 80 16805331028335655423
18186145 218 17531522075718695866
20261772 1 18131351946441919413
20600515 1 16878515664551803043
20645477 70 18339063935125145526
20681651 13 17059469920733066518
21267235 1 18409736149355253154
21279426 13 18189610554489533637
22112679 90 17487052521091123957
221490 88 18338518526456275818
2334 1 18338790122918489344
23557571 272 16732975427606714524
23559900 14 18335415704310311160
23566358 27 18412832408401007622
26918003 58 18114174267765262545
2748010 2 18267291037843092948
45790113 50 18408327670084979565
5104073 3 18338791218140587952
7364860 26 18343014464025351632
9709674 26 18337948974642027444

>  <PUBCHEM_SHAPE_MULTIPOLES>  (1) 
409.58
8.17
2.78
1.32
0.3
0.09
-0.86
3.21
2.42
-1.56
-0.12
1.23
0.64
0.73

>  <PUBCHEM_SHAPE_SELFOVERLAP>  (1) 
886.434

>  <PUBCHEM_SHAPE_VOLUME>  (1) 
225.4

>  <PUBCHEM_COORDINATE_TYPE>  (1) 
2
5
10

$$$$
