33080
     RDKit          3D

 18 19  0  0  0  0  0  0  0  0999 V2000
    1.3459   -2.7955    0.3565 O   0  0  0  0  0  0  0  0  0  0  0  0
   -4.7196    0.9198   -0.1918 N   0  0  0  0  0  0  0  0  0  0  0  0
   -2.1790   -0.4676   -0.1234 N   0  0  0  0  0  0  0  0  0  0  0  0
   -0.9457   -0.9075   -0.4491 N   0  0  0  0  0  0  0  0  0  0  0  0
   -4.6311   -0.5111   -0.5036 C   0  0  0  0  0  0  0  0  0  0  0  0
   -3.6814    1.2925    0.7754 C   0  0  0  0  0  0  0  0  0  0  0  0
   -3.2442   -0.8672   -1.0457 C   0  0  0  0  0  0  0  0  0  0  0  0
   -2.2877    0.9474    0.2433 C   0  0  0  0  0  0  0  0  0  0  0  0
   -6.0475    1.2582    0.3169 C   0  0  0  0  0  0  0  0  0  0  0  0
   -0.2035   -1.0928    0.5853 C   0  0  0  0  0  0  0  0  0  0  0  0
    1.1885   -1.5837    0.3716 C   0  0  0  0  0  0  0  0  0  0  0  0
    2.2939   -0.6199    0.1814 C   0  0  0  0  0  0  0  0  0  0  0  0
    2.0173    0.7345    0.2050 C   0  0  0  0  0  0  0  0  0  0  0  0
    3.5767   -1.0977   -0.0147 C   0  0  0  0  0  0  0  0  0  0  0  0
    4.3614    1.1819   -0.1734 C   0  0  0  0  0  0  0  0  0  0  0  0
    3.0601    1.6435    0.0258 C   0  0  0  0  0  0  0  0  0  0  0  0
    4.6196   -0.1888   -0.1938 C   0  0  0  0  0  0  0  0  0  0  0  0
    5.4762    2.1539   -0.3657 C   0  0  0  0  0  0  0  0  0  0  0  0
  1 11  2  0
  2  5  1  0
  2  6  1  0
  2  9  1  0
  3  4  1  0
  3  7  1  0
  3  8  1  0
  4 10  2  0
  5  7  1  0
  6  8  1  0
 10 11  1  0
 11 12  1  0
 12 13  2  0
 12 14  1  0
 13 16  1  0
 14 17  2  0
 15 16  2  0
 15 17  1  0
 15 18  1  0
M  END
>  <PUBCHEM_COMPOUND_CID>  (1) 
33080

>  <PUBCHEM_CONFORMER_RMSD>  (1) 
0.6

>  <PUBCHEM_CONFORMER_DIVERSEORDER>  (1) 
1
53
29
12
54
25
27
38
52
55
44
40
51
34
19
10
56
17
37
57
28
21
24
49
36
16
18
48
20
5
23
47
22
11
4
15
46
6
45
14
39
31
7
13
42
50
43
8
33
41
30
35
9
32
26
3
2

>  <PUBCHEM_MMFF94_PARTIAL_CHARGES>  (1) 
23
1 -0.57
10 0.39
11 0.48
12 0.09
13 -0.15
14 -0.15
15 -0.14
16 -0.15
17 -0.15
18 0.14
2 -0.81
3 -0.49
30 0.06
31 0.15
32 0.15
33 0.15
34 0.15
4 -0.5
5 0.27
6 0.27
7 0.27
8 0.27
9 0.27

>  <PUBCHEM_EFFECTIVE_ROTOR_COUNT>  (1) 
4.2

>  <PUBCHEM_PHARMACOPHORE_FEATURES>  (1) 
5
1 1 acceptor
1 2 cation
1 4 acceptor
6 12 13 14 15 16 17 rings
6 2 3 5 6 7 8 rings

>  <PUBCHEM_HEAVY_ATOM_COUNT>  (1) 
18

>  <PUBCHEM_ATOM_DEF_STEREO_COUNT>  (1) 
0

>  <PUBCHEM_ATOM_UDEF_STEREO_COUNT>  (1) 
0

>  <PUBCHEM_BOND_DEF_STEREO_COUNT>  (1) 
0

>  <PUBCHEM_BOND_UDEF_STEREO_COUNT>  (1) 
1

>  <PUBCHEM_ISOTOPIC_ATOM_COUNT>  (1) 
0

>  <PUBCHEM_COMPONENT_COUNT>  (1) 
1

>  <PUBCHEM_CACTVS_TAUTO_COUNT>  (1) 
1

>  <PUBCHEM_CONFORMER_ID>  (1) 
0000813800000001

>  <PUBCHEM_MMFF94_ENERGY>  (1) 
41.8272

>  <PUBCHEM_FEATURE_SELFOVERLAP>  (1) 
25.372

>  <PUBCHEM_SHAPE_FINGERPRINT>  (1) 
100836 57 18334298690580079604
10411042 1 17760365492646270490
12107183 9 17548701781614759513
12236239 1 18343018883161564397
12555020 224 10735872855692544813
12730499 353 18334023769518033459
13544653 18 10879999081422556986
13955234 65 18114741508549892242
1420 369 9295294941050883404
14528608 73 18412541024676061125
15196674 1 18411136952284754624
15342168 16 18114750433396363900
17834072 32 18117563040460397940
17834072 33 18343299275590277671
18186145 218 18334853914066670526
20612939 158 18411140199665262694
212847 35 18413105065767615880
21652331 79 18408603634882705221
22079108 93 17967537878600686635
23402539 116 18130782382328572268
23402655 69 18343300401008878790
245318 6 17533797149802728660
25 1 18408602574263036538
270888 7 18336828701491151884
29717793 49 17632582621881330140
335352 9 18409169909989802158
3472631 163 18343867735886883621
3545911 37 18409450267599723803
474 4 18261111902105151652
5104073 3 18187080676163720666
542803 24 18407758136120643213
59682541 35 18188502392907997641
59682541 52 17560255647700553396
59755656 520 17821727256047581682
633830 44 18410853265748527318
76465 3 10087650286225530260
8272917 22 18341051809219785246
960060 61 12607401122085690362

>  <PUBCHEM_SHAPE_MULTIPOLES>  (1) 
349.62
13.13
2.17
0.78
6.64
0.34
-0.03
-7.64
-1.21
-1.56
0.17
0.36
0.04
-0.98

>  <PUBCHEM_SHAPE_SELFOVERLAP>  (1) 
724.535

>  <PUBCHEM_SHAPE_VOLUME>  (1) 
200.8

>  <PUBCHEM_COORDINATE_TYPE>  (1) 
2
5
10

$$$$
