33098
     RDKit          3D

 13 13  0  0  0  0  0  0  0  0999 V2000
   -0.0010    3.6194    0.0001 Cl  0  0  0  0  0  0  0  0  0  0  0  0
   -2.4152   -2.1588    0.0005 O   0  0  0  0  0  0  0  0  0  0  0  0
    2.4157   -2.1582   -0.0006 O   0  0  0  0  0  0  0  0  0  0  0  0
   -3.5130   -0.2578   -0.0002 O   0  0  0  0  0  0  0  0  0  0  0  0
    3.5131   -0.2570    0.0000 O   0  0  0  0  0  0  0  0  0  0  0  0
   -2.4377   -0.9043    0.0000 N   0  0  0  0  0  0  0  0  0  0  0  0
    2.4383   -0.9038    0.0000 N   0  0  0  0  0  0  0  0  0  0  0  0
   -1.2079   -0.1942   -0.0003 C   0  0  0  0  0  0  0  0  0  0  0  0
    1.2080   -0.1938    0.0005 C   0  0  0  0  0  0  0  0  0  0  0  0
    0.0002   -0.8915    0.0001 C   0  0  0  0  0  0  0  0  0  0  0  0
   -1.2081    1.2007   -0.0004 C   0  0  0  0  0  0  0  0  0  0  0  0
    1.2078    1.2010    0.0004 C   0  0  0  0  0  0  0  0  0  0  0  0
   -0.0003    1.8983   -0.0002 C   0  0  0  0  0  0  0  0  0  0  0  0
  1 13  1  0
  2  6  1  0
  3  7  1  0
  4  6  2  0
  5  7  2  0
  6  8  1  0
  7  9  1  0
  8 10  2  0
  8 11  1  0
  9 10  1  0
  9 12  2  0
 11 13  2  0
 12 13  1  0
M  CHG  4   2  -1   3  -1   6   1   7   1
M  END
>  <PUBCHEM_COMPOUND_CID>  (1) 
33098

>  <PUBCHEM_CONFORMER_RMSD>  (1) 
0.6

>  <PUBCHEM_CONFORMER_DIVERSEORDER>  (1) 
1

>  <PUBCHEM_MMFF94_PARTIAL_CHARGES>  (1) 
16
1 -0.18
10 -0.15
11 -0.15
12 -0.15
13 0.18
14 0.15
15 0.15
16 0.15
2 -0.52
3 -0.52
4 -0.52
5 -0.52
6 0.91
7 0.91
8 0.13
9 0.13

>  <PUBCHEM_EFFECTIVE_ROTOR_COUNT>  (1) 
2

>  <PUBCHEM_PHARMACOPHORE_FEATURES>  (1) 
7
1 2 acceptor
1 2 anion
1 3 acceptor
1 3 anion
1 4 acceptor
1 5 acceptor
6 8 9 10 11 12 13 rings

>  <PUBCHEM_HEAVY_ATOM_COUNT>  (1) 
13

>  <PUBCHEM_ATOM_DEF_STEREO_COUNT>  (1) 
0

>  <PUBCHEM_ATOM_UDEF_STEREO_COUNT>  (1) 
0

>  <PUBCHEM_BOND_DEF_STEREO_COUNT>  (1) 
0

>  <PUBCHEM_BOND_UDEF_STEREO_COUNT>  (1) 
0

>  <PUBCHEM_ISOTOPIC_ATOM_COUNT>  (1) 
0

>  <PUBCHEM_COMPONENT_COUNT>  (1) 
1

>  <PUBCHEM_CACTVS_TAUTO_COUNT>  (1) 
1

>  <PUBCHEM_CONFORMER_ID>  (1) 
0000814A00000001

>  <PUBCHEM_MMFF94_ENERGY>  (1) 
38.5758

>  <PUBCHEM_FEATURE_SELFOVERLAP>  (1) 
35.686

>  <PUBCHEM_SHAPE_FINGERPRINT>  (1) 
1 1 17689717879850566661
14648413 74 18191866953748735321
16945 1 18410855460128298212
17990270 104 18193272120797565315
19021347 4 17330273870660763841
193761 8 18410573985173323172
20201158 50 18408038532839451699
20645477 70 17903906009739267351
20711985 365 18121216476648500318
20871998 184 18129377094756894404
20871998 22 18342466923602510494
21040471 1 17546164100056327744
23402539 116 18199454481691773781
23526114 1 18122063370979099300
23530152 11 17185597364708087431
23552423 10 18123191474594288455
241688 4 18410292480110333625
2748010 2 18412254047561732372
3071541 12 18122912194130224749
3071541 158 18260826050699568309
7364860 26 18123752220987186065
81228 2 18264494974919697656

>  <PUBCHEM_SHAPE_MULTIPOLES>  (1) 
235.96
4.14
3.13
0.58
0
2.77
0
-3.02
0
0
0
0
0.07
0

>  <PUBCHEM_SHAPE_SELFOVERLAP>  (1) 
489.584

>  <PUBCHEM_SHAPE_VOLUME>  (1) 
136.9

>  <PUBCHEM_COORDINATE_TYPE>  (1) 
2
5
10

$$$$
