33097
     RDKit          3D

 13 13  0  0  0  0  0  0  0  0999 V2000
   -4.0138    0.4029   -0.0012 Cl  0  0  0  0  0  0  0  0  0  0  0  0
    1.3777    2.0637    1.0983 O   0  0  0  0  0  0  0  0  0  0  0  0
    1.3823    2.0624   -1.0969 O   0  0  0  0  0  0  0  0  0  0  0  0
    2.2929   -1.3194   -1.0980 O   0  0  0  0  0  0  0  0  0  0  0  0
    2.2948   -1.3165    1.0972 O   0  0  0  0  0  0  0  0  0  0  0  0
    0.9635    1.6256    0.0001 N   0  0  0  0  0  0  0  0  0  0  0  0
    1.7137   -1.1496   -0.0002 N   0  0  0  0  0  0  0  0  0  0  0  0
   -0.0180    0.5939   -0.0013 C   0  0  0  0  0  0  0  0  0  0  0  0
    0.3463   -0.7526    0.0004 C   0  0  0  0  0  0  0  0  0  0  0  0
   -1.3662    0.9516   -0.0018 C   0  0  0  0  0  0  0  0  0  0  0  0
   -0.6375   -1.7414    0.0019 C   0  0  0  0  0  0  0  0  0  0  0  0
   -2.3501   -0.0371   -0.0001 C   0  0  0  0  0  0  0  0  0  0  0  0
   -1.9857   -1.3836    0.0017 C   0  0  0  0  0  0  0  0  0  0  0  0
  1 12  1  0
  2  6  1  0
  3  6  2  0
  4  7  1  0
  5  7  2  0
  6  8  1  0
  7  9  1  0
  8  9  2  0
  8 10  1  0
  9 11  1  0
 10 12  2  0
 11 13  2  0
 12 13  1  0
M  CHG  4   2  -1   4  -1   6   1   7   1
M  END
>  <PUBCHEM_COMPOUND_CID>  (1) 
33097

>  <PUBCHEM_CONFORMER_RMSD>  (1) 
0.6

>  <PUBCHEM_CONFORMER_DIVERSEORDER>  (1) 
1

>  <PUBCHEM_MMFF94_PARTIAL_CHARGES>  (1) 
16
1 -0.18
10 -0.15
11 -0.15
12 0.18
13 -0.15
14 0.15
15 0.15
16 0.15
2 -0.52
3 -0.52
4 -0.52
5 -0.52
6 0.91
7 0.91
8 0.13
9 0.13

>  <PUBCHEM_EFFECTIVE_ROTOR_COUNT>  (1) 
2

>  <PUBCHEM_PHARMACOPHORE_FEATURES>  (1) 
7
1 2 acceptor
1 2 anion
1 3 acceptor
1 4 acceptor
1 4 anion
1 5 acceptor
6 8 9 10 11 12 13 rings

>  <PUBCHEM_HEAVY_ATOM_COUNT>  (1) 
13

>  <PUBCHEM_ATOM_DEF_STEREO_COUNT>  (1) 
0

>  <PUBCHEM_ATOM_UDEF_STEREO_COUNT>  (1) 
0

>  <PUBCHEM_BOND_DEF_STEREO_COUNT>  (1) 
0

>  <PUBCHEM_BOND_UDEF_STEREO_COUNT>  (1) 
0

>  <PUBCHEM_ISOTOPIC_ATOM_COUNT>  (1) 
0

>  <PUBCHEM_COMPONENT_COUNT>  (1) 
1

>  <PUBCHEM_CACTVS_TAUTO_COUNT>  (1) 
1

>  <PUBCHEM_CONFORMER_ID>  (1) 
0000814900000001

>  <PUBCHEM_MMFF94_ENERGY>  (1) 
42.3452

>  <PUBCHEM_FEATURE_SELFOVERLAP>  (1) 
35.686

>  <PUBCHEM_SHAPE_FINGERPRINT>  (1) 
13380535 21 18193573365772457427
13380535 76 18195236939507552331
13380536 305 18408612448144761287
13922767 16 18339634543511449561
14993402 34 18338805498479500487
161256 15 18408038502969716669
16945 1 18338798905942071235
193761 8 18194401315029005639
20511035 2 18339641256207781559
21040471 1 18122344841950921345
21501502 16 18338795749172783239
2334 1 18266178525259732011
23419403 2 15898604470417184995
23552423 10 18189617309792452119
241688 4 17621048559842804651
2748010 2 18337112388312339671
5084963 1 18130787815831525115
528862 383 18334856155601671049
7364860 26 18201721798784592160
81228 2 17907024967206204208

>  <PUBCHEM_SHAPE_MULTIPOLES>  (1) 
235.96
4.22
2.19
0.88
3.3
0.54
0
-0.17
0
-1.23
0
-0.53
0.11
0

>  <PUBCHEM_SHAPE_SELFOVERLAP>  (1) 
488.313

>  <PUBCHEM_SHAPE_VOLUME>  (1) 
137.1

>  <PUBCHEM_COORDINATE_TYPE>  (1) 
2
5
10

$$$$
