33094
     RDKit          3D

 11 11  0  0  0  0  0  0  0  0999 V2000
    2.1184    0.8768   -0.3138 O   0  0  0  0  0  0  0  0  0  0  0  0
    1.8859   -1.2292    0.5861 O   0  0  0  0  0  0  0  0  0  0  0  0
   -0.9563   -0.9540   -0.1019 C   0  0  0  0  0  0  0  0  0  0  0  0
   -0.0408    0.0820    0.0823 C   0  0  0  0  0  0  0  0  0  0  0  0
   -2.3214   -0.6749   -0.1679 C   0  0  0  0  0  0  0  0  0  0  0  0
   -0.4903    1.3972    0.2008 C   0  0  0  0  0  0  0  0  0  0  0  0
   -0.5024   -2.3713   -0.2315 C   0  0  0  0  0  0  0  0  0  0  0  0
   -2.7709    0.6402   -0.0494 C   0  0  0  0  0  0  0  0  0  0  0  0
   -1.8554    1.6763    0.1350 C   0  0  0  0  0  0  0  0  0  0  0  0
    1.3900   -0.1811    0.1554 C   0  0  0  0  0  0  0  0  0  0  0  0
    3.5432    0.7379   -0.2949 C   0  0  0  0  0  0  0  0  0  0  0  0
  1 10  1  0
  1 11  1  0
  2 10  2  0
  3  4  2  0
  3  5  1  0
  3  7  1  0
  4  6  1  0
  4 10  1  0
  5  8  2  0
  6  9  2  0
  8  9  1  0
M  END
>  <PUBCHEM_COMPOUND_CID>  (1) 
33094

>  <PUBCHEM_CONFORMER_RMSD>  (1) 
0.4

>  <PUBCHEM_CONFORMER_DIVERSEORDER>  (1) 
4
5
3
2
6
1

>  <PUBCHEM_MMFF94_PARTIAL_CHARGES>  (1) 
15
1 -0.43
10 0.63
11 0.28
12 0.15
13 0.15
17 0.15
18 0.15
2 -0.57
3 -0.14
4 0.09
5 -0.15
6 -0.15
7 0.14
8 -0.15
9 -0.15

>  <PUBCHEM_EFFECTIVE_ROTOR_COUNT>  (1) 
2

>  <PUBCHEM_PHARMACOPHORE_FEATURES>  (1) 
2
1 2 acceptor
6 3 4 5 6 8 9 rings

>  <PUBCHEM_HEAVY_ATOM_COUNT>  (1) 
11

>  <PUBCHEM_ATOM_DEF_STEREO_COUNT>  (1) 
0

>  <PUBCHEM_ATOM_UDEF_STEREO_COUNT>  (1) 
0

>  <PUBCHEM_BOND_DEF_STEREO_COUNT>  (1) 
0

>  <PUBCHEM_BOND_UDEF_STEREO_COUNT>  (1) 
0

>  <PUBCHEM_ISOTOPIC_ATOM_COUNT>  (1) 
0

>  <PUBCHEM_COMPONENT_COUNT>  (1) 
1

>  <PUBCHEM_CACTVS_TAUTO_COUNT>  (1) 
1

>  <PUBCHEM_CONFORMER_ID>  (1) 
0000814600000004

>  <PUBCHEM_MMFF94_ENERGY>  (1) 
33.3819

>  <PUBCHEM_FEATURE_SELFOVERLAP>  (1) 
10.148

>  <PUBCHEM_SHAPE_FINGERPRINT>  (1) 
12423570 1 9294471462538974319
12716758 59 18343024419205629738
12897270 3 18411701027720236532
13024252 1 14490185038037883637
13380535 76 18411980252255559302
14325111 11 18410575041724176324
15775835 57 18336551533801915736
16945 1 18339072808516704409
193761 8 17691408512338347649
20871998 184 18129388274641597167
21040471 1 18413101745240814315
23402539 116 18271798059920939373
23463225 33 18192144898025159634
23552423 10 18194118512828194815
23559900 14 18272936051353229524
241688 4 16466147814036190827
2748010 2 18338519633892959621
369184 2 15936403459534202401
5084963 1 18058444296845691483
528886 8 18411414012325300449
53812653 8 18410576188490779561
6333449 129 18341894142458249544
7364860 26 18269835316250179754

>  <PUBCHEM_SHAPE_MULTIPOLES>  (1) 
214.64
4.25
1.98
0.66
2.79
0.72
0
-1.33
0.37
-0.58
0.02
0.06
0.02
-0.29

>  <PUBCHEM_SHAPE_SELFOVERLAP>  (1) 
445.61

>  <PUBCHEM_SHAPE_VOLUME>  (1) 
123.7

>  <PUBCHEM_COORDINATE_TYPE>  (1) 
2
5
10

$$$$
