33107
     RDKit          3D

 11 12  0  0  0  0  0  0  0  0999 V2000
   -1.0502    1.7611   -0.0001 O   0  0  0  0  0  0  0  0  0  0  0  0
   -0.6069   -0.4541    0.0002 C   0  0  0  0  0  0  0  0  0  0  0  0
   -0.0598    0.8250    0.0001 C   0  0  0  0  0  0  0  0  0  0  0  0
   -2.0149   -0.2716    0.0002 C   0  0  0  0  0  0  0  0  0  0  0  0
    2.1565   -0.0219    0.0003 C   0  0  0  0  0  0  0  0  0  0  0  0
    1.3085    1.0897    0.0003 C   0  0  0  0  0  0  0  0  0  0  0  0
    0.2645   -1.5573    0.0002 C   0  0  0  0  0  0  0  0  0  0  0  0
    1.6464   -1.3227   -0.0001 C   0  0  0  0  0  0  0  0  0  0  0  0
   -2.2298    1.0872   -0.0001 C   0  0  0  0  0  0  0  0  0  0  0  0
   -3.0500   -1.3222   -0.0004 C   0  0  0  0  0  0  0  0  0  0  0  0
    3.6357    0.1867   -0.0005 C   0  0  0  0  0  0  0  0  0  0  0  0
  1  3  1  0
  1  9  1  0
  2  3  2  0
  2  4  1  0
  2  7  1  0
  3  6  1  0
  4  9  2  0
  4 10  1  0
  5  6  2  0
  5  8  1  0
  5 11  1  0
  7  8  2  0
M  END
>  <PUBCHEM_COMPOUND_CID>  (1) 
33107

>  <PUBCHEM_CONFORMER_RMSD>  (1) 
0.4

>  <PUBCHEM_CONFORMER_DIVERSEORDER>  (1) 
1

>  <PUBCHEM_MMFF94_PARTIAL_CHARGES>  (1) 
14
1 -0.28
10 0.18
11 0.14
12 0.15
13 0.15
14 0.15
15 0.15
3 0.14
4 -0.18
5 -0.14
6 -0.15
7 -0.15
8 -0.15
9 -0.01

>  <PUBCHEM_EFFECTIVE_ROTOR_COUNT>  (1) 
0

>  <PUBCHEM_PHARMACOPHORE_FEATURES>  (1) 
3
1 1 acceptor
5 1 2 3 4 9 rings
6 2 3 5 6 7 8 rings

>  <PUBCHEM_HEAVY_ATOM_COUNT>  (1) 
11

>  <PUBCHEM_ATOM_DEF_STEREO_COUNT>  (1) 
0

>  <PUBCHEM_ATOM_UDEF_STEREO_COUNT>  (1) 
0

>  <PUBCHEM_BOND_DEF_STEREO_COUNT>  (1) 
0

>  <PUBCHEM_BOND_UDEF_STEREO_COUNT>  (1) 
0

>  <PUBCHEM_ISOTOPIC_ATOM_COUNT>  (1) 
0

>  <PUBCHEM_COMPONENT_COUNT>  (1) 
1

>  <PUBCHEM_CACTVS_TAUTO_COUNT>  (1) 
1

>  <PUBCHEM_CONFORMER_ID>  (1) 
0000815300000001

>  <PUBCHEM_MMFF94_ENERGY>  (1) 
18.0054

>  <PUBCHEM_FEATURE_SELFOVERLAP>  (1) 
15.325

>  <PUBCHEM_SHAPE_FINGERPRINT>  (1) 
10857977 72 18411691114782574371
11206711 2 18408603664662321781
12032990 46 18339087085014675278
12423570 1 11747806161111017928
12897270 3 18411134727523350423
13380535 21 18197511631285818179
13380535 76 18266734688948301047
14325111 11 18410855443365088960
16945 1 18410574006642150854
193761 8 17978228257731119430
20201158 50 18334856147249373203
20871998 184 18202003248076025367
21040471 1 18410855443280653954
21501502 16 18337951164854003763
23402539 116 18340475763995234206
23402655 69 18196354954493159317
23463225 33 18262233318646463970
23552423 10 18261115114767179718
2748010 2 18267586814507011454
369184 2 16225767397835407872
5084963 1 18272936050245096472
528886 8 18411131411829709953
53812653 166 18343577421920056208

>  <PUBCHEM_SHAPE_MULTIPOLES>  (1) 
220.51
4.51
1.68
0.61
1.18
0
0
0.46
0
-0.51
0
0.01
0.02
0

>  <PUBCHEM_SHAPE_SELFOVERLAP>  (1) 
481.214

>  <PUBCHEM_SHAPE_VOLUME>  (1) 
123.8

>  <PUBCHEM_COORDINATE_TYPE>  (1) 
2
5
10

$$$$
