33119
     RDKit          3D

 41 46  0  0  1  0  0  0  0  0999 V2000
    4.4547   -3.0937    0.6567 O   0  0  0  0  0  0  0  0  0  0  0  0
   -3.2218   -0.3220   -1.1727 O   0  0  0  0  0  0  0  0  0  0  0  0
    7.0878    3.4490    0.3093 O   0  0  0  0  0  0  0  0  0  0  0  0
   -4.8237   -1.1519    0.3649 O   0  0  0  0  0  0  0  0  0  0  0  0
    9.2783    3.0264   -0.2551 O   0  0  0  0  0  0  0  0  0  0  0  0
   -4.7189    1.5414    1.5673 O   0  0  0  0  0  0  0  0  0  0  0  0
   -5.4083    1.5261   -2.0083 O   0  0  0  0  0  0  0  0  0  0  0  0
   -7.2895    0.3584    0.8626 O   0  0  0  0  0  0  0  0  0  0  0  0
   -8.9690    1.6572   -0.0481 O   0  0  0  0  0  0  0  0  0  0  0  0
    4.3571   -1.8778   -0.0825 C   0  0  0  0  0  0  0  0  0  0  0  0
    2.8349   -1.5807   -0.3161 C   0  0  0  0  0  0  0  0  0  0  0  0
    2.1241   -1.0799    0.9720 C   0  0  0  0  0  0  0  0  0  0  0  0
    5.1240   -0.7266    0.6380 C   0  0  0  0  0  0  0  0  0  0  0  0
    0.5712   -0.8213    0.7863 C   0  0  0  0  0  0  0  0  0  0  0  0
   -0.1054   -2.0614    0.1143 C   0  0  0  0  0  0  0  0  0  0  0  0
    2.8748    0.1426    1.5352 C   0  0  0  0  0  0  0  0  0  0  0  0
    4.3353   -0.1688    1.8348 C   0  0  0  0  0  0  0  0  0  0  0  0
    5.3024    0.2895   -0.5262 C   0  0  0  0  0  0  0  0  0  0  0  0
    2.0997   -2.8230   -0.8552 C   0  0  0  0  0  0  0  0  0  0  0  0
    5.1137   -1.9919   -1.4255 C   0  0  0  0  0  0  0  0  0  0  0  0
    0.6394   -2.5242   -1.1468 C   0  0  0  0  0  0  0  0  0  0  0  0
    5.6416   -0.5870   -1.7437 C   0  0  0  0  0  0  0  0  0  0  0  0
    0.2903    0.4515   -0.0624 C   0  0  0  0  0  0  0  0  0  0  0  0
   -1.5895   -1.8234   -0.2259 C   0  0  0  0  0  0  0  0  0  0  0  0
    6.5011   -1.1899    1.1892 C   0  0  0  0  0  0  0  0  0  0  0  0
   -0.0536   -0.6251    2.1968 C   0  0  0  0  0  0  0  0  0  0  0  0
   -1.1891    0.6647   -0.3850 C   0  0  0  0  0  0  0  0  0  0  0  0
   -1.8218   -0.5543   -1.0432 C   0  0  0  0  0  0  0  0  0  0  0  0
    6.2839    1.3940   -0.3004 C   0  0  0  0  0  0  0  0  0  0  0  0
    5.8705    2.6975    0.2579 C   0  0  0  0  0  0  0  0  0  0  0  0
    7.5901    1.3710   -0.5522 C   0  0  0  0  0  0  0  0  0  0  0  0
   -3.8396   -0.1491    0.0985 C   0  0  0  0  0  0  0  0  0  0  0  0
    8.1125    2.6824   -0.1653 C   0  0  0  0  0  0  0  0  0  0  0  0
   -4.4425    1.2561    0.1968 C   0  0  0  0  0  0  0  0  0  0  0  0
   -5.7299    1.4050   -0.6246 C   0  0  0  0  0  0  0  0  0  0  0  0
   -5.9429   -1.1196   -0.5276 C   0  0  0  0  0  0  0  0  0  0  0  0
   -6.6842    0.2224   -0.4221 C   0  0  0  0  0  0  0  0  0  0  0  0
   -6.8270   -2.3134   -0.1824 C   0  0  0  0  0  0  0  0  0  0  0  0
   -6.4442    2.1822   -2.7211 C   0  0  0  0  0  0  0  0  0  0  0  0
   -8.4327    1.1063    0.9037 C   0  0  0  0  0  0  0  0  0  0  0  0
   -8.9537    1.1613    2.3080 C   0  0  0  0  0  0  0  0  0  0  0  0
  1 10  1  0
  2 28  1  0
  2 32  1  0
  3 30  1  0
  3 33  1  0
  4 32  1  0
  4 36  1  0
  5 33  2  0
  6 34  1  0
  7 35  1  0
  7 39  1  0
  8 37  1  0
  8 40  1  0
  9 40  2  0
 10 11  1  0
 10 13  1  0
 10 20  1  0
 11 12  1  0
 11 19  1  0
 12 14  1  0
 12 16  1  0
 13 17  1  0
 13 18  1  0
 13 25  1  0
 14 15  1  0
 14 23  1  0
 14 26  1  0
 15 21  1  0
 15 24  1  0
 16 17  1  0
 18 22  1  0
 18 29  1  0
 19 21  1  0
 20 22  1  0
 23 27  1  0
 24 28  1  0
 27 28  1  0
 29 30  1  0
 29 31  2  0
 31 33  1  0
 32 34  1  0
 34 35  1  0
 35 37  1  0
 36 37  1  0
 36 38  1  0
 40 41  1  0
M  END
>  <PUBCHEM_COMPOUND_CID>  (1) 
33119

>  <PUBCHEM_CONFORMER_RMSD>  (1) 
1.2

>  <PUBCHEM_CONFORMER_DIVERSEORDER>  (1) 
9
174
188
41
90
183
4
93
157
38
85
191
156
32
162
40
194
102
33
121
69
122
172
132
182
140
23
26
154
27
5
110
2
148
134
91
105
158
72
173
117
142
7
129
61
29
79
184
186
119
189
98
39
116
55
65
34
50
51
177
101
77
171
128
145
96
123
143
178
31
192
82
166
175
81
53
161
109
92
130
100
83
78
24
87
46
28
74
125
152
167
44
107
141
160
133
165
124
106
120
137
159
60
144
11
21
126
127
45
75
88
139
155
59
179
97
190
151
114
170
36
131
63
12
99
16
108
47
54
185
10
89
20
187
118
67
147
164
56
111
150
48
30
115
113
153
62
104
135
163
176
42
22
70
95
6
25
14
66
94
146
193
3
86
80
168
71
35
64
180
136
138
181
18
76
73
58
68
84
169
17
8
149
1
57
43
19
103
52
15
37
49
112
13

>  <PUBCHEM_MMFF94_PARTIAL_CHARGES>  (1) 
27
1 -0.68
10 0.28
18 0.14
2 -0.56
28 0.28
29 -0.28
3 -0.43
30 0.42
31 -0.14
32 0.56
33 0.71
34 0.28
35 0.28
36 0.28
37 0.28
39 0.28
4 -0.56
40 0.66
41 0.06
5 -0.57
6 -0.68
7 -0.56
71 0.4
74 0.15
8 -0.43
80 0.4
9 -0.57

>  <PUBCHEM_EFFECTIVE_ROTOR_COUNT>  (1) 
9.8

>  <PUBCHEM_PHARMACOPHORE_FEATURES>  (1) 
15
1 1 acceptor
1 1 donor
1 2 acceptor
1 4 acceptor
1 5 acceptor
1 6 acceptor
1 6 donor
1 7 acceptor
1 9 acceptor
5 10 13 18 20 22 rings
5 3 29 30 31 33 rings
6 10 11 12 13 16 17 rings
6 11 12 14 15 19 21 rings
6 14 15 23 24 27 28 rings
6 4 32 34 35 36 37 rings

>  <PUBCHEM_HEAVY_ATOM_COUNT>  (1) 
41

>  <PUBCHEM_ATOM_DEF_STEREO_COUNT>  (1) 
8

>  <PUBCHEM_ATOM_UDEF_STEREO_COUNT>  (1) 
5

>  <PUBCHEM_BOND_DEF_STEREO_COUNT>  (1) 
0

>  <PUBCHEM_BOND_UDEF_STEREO_COUNT>  (1) 
0

>  <PUBCHEM_ISOTOPIC_ATOM_COUNT>  (1) 
0

>  <PUBCHEM_COMPONENT_COUNT>  (1) 
1

>  <PUBCHEM_CACTVS_TAUTO_COUNT>  (1) 
1

>  <PUBCHEM_CONFORMER_ID>  (1) 
0000815F00000009

>  <PUBCHEM_MMFF94_ENERGY>  (1) 
142.175

>  <PUBCHEM_FEATURE_SELFOVERLAP>  (1) 
76.386

>  <PUBCHEM_SHAPE_FINGERPRINT>  (1) 
10 15 18040718052593603425
10554248 39 18270667667848207254
10673678 19 18342462560443213174
11007060 377 18113620105879593811
11115154 58 14979964683412587218
11181472 205 17773609230329080217
11456790 92 17313090948588680912
11578821 258 18340488872985365049
1200032 147 18335421301322539690
12013929 112 14189306919951085913
12539765 74 17988651778360645415
12592606 108 9295294932598079436
13690498 29 17273126032295202294
13782708 43 10952043459629616503
13811026 1 18408888455865539410
14394314 77 18412267250666363661
14537116 161 16845573093476798960
14849402 71 18341334474324592561
14904525 67 18264482901936265301
15064981 194 17632012069846558415
15082195 135 17703794717621751256
15183329 4 14979958064413984015
15198563 99 14548751572584150491
15276724 80 18412262805058285772
15361156 5 18273492382630036031
15461852 350 16774071879131267359
1577012 14 18411978079096812647
15840311 113 18411426080909076564
16992787 43 18342742922406592312
16994733 274 17967527969641921852
17686467 74 18115026420349264699
19302320 297 17895474839025061460
21033648 29 17603590772759072962
21521721 280 18411141324831013739
23522609 53 17417547808310990529
24771293 8 18040713709975648244
25269216 80 16845002537373472775
3711267 37 18272097054787441873
3918712 181 18411697686103993320
4073 2 18410578388263998619
4093350 32 18408887330547126058
4112364 45 17822583805791508812
4169191 19 18412543214972608805
4197921 191 18059298669009966729
5109719 28 18333450941055201144
5265222 85 18272372005582248623
5718773 13 9223240650196026260
6081469 158 10592043540650168475
6201320 82 18194135233928098116
9831232 110 12607405498900640204

>  <PUBCHEM_SHAPE_MULTIPOLES>  (1) 
790.94
28.63
3.24
1.75
19.78
0.59
-0.01
22.2
-0.92
-5.04
0.64
1.89
0.36
0.08

>  <PUBCHEM_SHAPE_SELFOVERLAP>  (1) 
1689.826

>  <PUBCHEM_SHAPE_VOLUME>  (1) 
435.7

>  <PUBCHEM_COORDINATE_TYPE>  (1) 
2
5
10

$$$$
