3311
     RDKit          3D

 16 16  0  0  0  0  0  0  0  0999 V2000
   -2.5700   -0.6015   -0.8162 S   0  0  0  0  0  0  0  0  0  0  0  0
    3.9151   -0.0569   -1.2386 F   0  0  0  0  0  0  0  0  0  0  0  0
    4.1358    0.0009    0.9234 F   0  0  0  0  0  0  0  0  0  0  0  0
    3.3150   -1.7749   -0.0380 F   0  0  0  0  0  0  0  0  0  0  0  0
   -1.9406    1.6711    0.3908 N   0  0  0  0  0  0  0  0  0  0  0  0
   -4.2758    1.2534   -0.0637 N   0  0  0  0  0  0  0  0  0  0  0  0
    1.9384    0.1288    0.0469 C   0  0  0  0  0  0  0  0  0  0  0  0
   -0.6452    1.1561    0.2758 C   0  0  0  0  0  0  0  0  0  0  0  0
    1.4078    0.9161   -0.9749 C   0  0  0  0  0  0  0  0  0  0  0  0
    1.1771   -0.1448    1.1833 C   0  0  0  0  0  0  0  0  0  0  0  0
    0.1160    1.4297   -0.8606 C   0  0  0  0  0  0  0  0  0  0  0  0
   -0.1147    0.3688    1.2976 C   0  0  0  0  0  0  0  0  0  0  0  0
    3.3198   -0.4199   -0.0750 C   0  0  0  0  0  0  0  0  0  0  0  0
   -3.4947   -1.7305    0.2490 C   0  0  0  0  0  0  0  0  0  0  0  0
   -2.9341    0.9638   -0.0630 C   0  0  0  0  0  0  0  0  0  0  0  0
   -3.3499   -3.1603   -0.2369 C   0  0  0  0  0  0  0  0  0  0  0  0
  1 14  1  0
  1 15  1  0
  2 13  1  0
  3 13  1  0
  4 13  1  0
  5  8  1  0
  5 15  2  0
  6 15  1  0
  7  9  2  0
  7 10  1  0
  7 13  1  0
  8 11  2  0
  8 12  1  0
  9 11  1  0
 10 12  2  0
 14 16  1  0
M  END
>  <PUBCHEM_COMPOUND_CID>  (1) 
3311

>  <PUBCHEM_CONFORMER_RMSD>  (1) 
0.6

>  <PUBCHEM_CONFORMER_DIVERSEORDER>  (1) 
1
4
3
2

>  <PUBCHEM_MMFF94_PARTIAL_CHARGES>  (1) 
21
1 -0.37
10 -0.15
11 -0.15
12 -0.15
13 1.16
14 0.23
15 0.64
17 0.15
18 0.15
19 0.15
2 -0.34
20 0.15
26 0.4
27 0.4
3 -0.34
4 -0.34
5 -0.63
6 -0.85
7 -0.14
8 0.18
9 -0.15

>  <PUBCHEM_EFFECTIVE_ROTOR_COUNT>  (1) 
4

>  <PUBCHEM_PHARMACOPHORE_FEATURES>  (1) 
4
1 16 hydrophobe
1 6 donor
3 5 6 15 cation
6 7 8 9 10 11 12 rings

>  <PUBCHEM_HEAVY_ATOM_COUNT>  (1) 
16

>  <PUBCHEM_ATOM_DEF_STEREO_COUNT>  (1) 
0

>  <PUBCHEM_ATOM_UDEF_STEREO_COUNT>  (1) 
0

>  <PUBCHEM_BOND_DEF_STEREO_COUNT>  (1) 
0

>  <PUBCHEM_BOND_UDEF_STEREO_COUNT>  (1) 
0

>  <PUBCHEM_ISOTOPIC_ATOM_COUNT>  (1) 
0

>  <PUBCHEM_COMPONENT_COUNT>  (1) 
1

>  <PUBCHEM_CACTVS_TAUTO_COUNT>  (1) 
2

>  <PUBCHEM_CONFORMER_ID>  (1) 
00000CEF00000001

>  <PUBCHEM_MMFF94_ENERGY>  (1) 
38.4608

>  <PUBCHEM_FEATURE_SELFOVERLAP>  (1) 
20.297

>  <PUBCHEM_SHAPE_FINGERPRINT>  (1) 
10062212 137 17967808336500882435
10616163 171 18412266142311269151
11471102 22 15769774649903731193
11543360 7 18335709359798572460
11769659 78 18410008857654911495
11806522 49 18190175870289290340
124424 183 17275098401873660161
12500047 106 18340197484748511029
13296908 3 18342733065714571537
14115302 16 18411420605379960461
16752209 62 18337374029562691487
16945 1 18262789666692079192
18186145 218 15791738498770356056
19107657 162 18131355202148663758
19422 9 18261677072915296397
20281475 54 18408041792982931820
20291156 8 18337109098283105367
20645476 183 18188484684557440285
20645477 70 14779546734788407816
20871999 31 18261107495990919551
21452121 199 18122614222389410409
21634736 98 18044096971494129719
21652331 79 8790302444479170487
22485316 2 18411415085882533984
232386 152 18341896324628703341
23402539 116 17458340823783744584
23402655 69 17749109946013404580
23559900 14 18272364244644123864
23598291 2 18041003977014294285
568465 68 17060345162259314607
633830 44 16588314834550489500

>  <PUBCHEM_SHAPE_MULTIPOLES>  (1) 
301.34
7.62
2.23
1.1
1.21
1.47
-0.05
3.36
0.64
-2.8
0.18
0.49
-0.1
-0.28

>  <PUBCHEM_SHAPE_SELFOVERLAP>  (1) 
609.781

>  <PUBCHEM_SHAPE_VOLUME>  (1) 
179.9

>  <PUBCHEM_COORDINATE_TYPE>  (1) 
2
5
10

$$$$
