33111
     RDKit          3D

 17 19  0  0  0  0  0  0  0  0999 V2000
    0.0001    1.6903    0.0001 N   0  0  0  0  0  0  0  0  0  0  0  0
   -4.8789   -1.0127    0.0017 N   0  0  0  0  0  0  0  0  0  0  0  0
    4.8787   -1.0128    0.0012 N   0  0  0  0  0  0  0  0  0  0  0  0
    0.0000   -1.0797   -0.0005 C   0  0  0  0  0  0  0  0  0  0  0  0
   -1.2146   -0.3865   -0.0004 C   0  0  0  0  0  0  0  0  0  0  0  0
    1.2147   -0.3866   -0.0004 C   0  0  0  0  0  0  0  0  0  0  0  0
   -1.1671    1.0178   -0.0001 C   0  0  0  0  0  0  0  0  0  0  0  0
    1.1671    1.0178   -0.0001 C   0  0  0  0  0  0  0  0  0  0  0  0
   -2.4500   -1.0575   -0.0005 C   0  0  0  0  0  0  0  0  0  0  0  0
    2.4500   -1.0575   -0.0003 C   0  0  0  0  0  0  0  0  0  0  0  0
   -0.0001   -2.5831   -0.0004 C   0  0  0  0  0  0  0  0  0  0  0  0
   -2.3731    1.7136    0.0000 C   0  0  0  0  0  0  0  0  0  0  0  0
    2.3732    1.7136    0.0002 C   0  0  0  0  0  0  0  0  0  0  0  0
   -3.6415   -0.3384   -0.0004 C   0  0  0  0  0  0  0  0  0  0  0  0
    3.6415   -0.3384   -0.0001 C   0  0  0  0  0  0  0  0  0  0  0  0
   -3.6026    1.0501   -0.0001 C   0  0  0  0  0  0  0  0  0  0  0  0
    3.6025    1.0501    0.0001 C   0  0  0  0  0  0  0  0  0  0  0  0
  1  7  2  0
  1  8  1  0
  2 14  1  0
  3 15  1  0
  4  5  2  0
  4  6  1  0
  4 11  1  0
  5  7  1  0
  5  9  1  0
  6  8  2  0
  6 10  1  0
  7 12  1  0
  8 13  1  0
  9 14  2  0
 10 15  2  0
 12 16  2  0
 13 17  2  0
 14 16  1  0
 15 17  1  0
M  END
>  <PUBCHEM_COMPOUND_CID>  (1) 
33111

>  <PUBCHEM_CONFORMER_RMSD>  (1) 
0.4

>  <PUBCHEM_CONFORMER_DIVERSEORDER>  (1) 
1

>  <PUBCHEM_MMFF94_PARTIAL_CHARGES>  (1) 
25
1 -0.62
10 -0.15
11 0.14
12 -0.15
13 -0.15
14 0.1
15 0.1
16 -0.15
17 -0.15
18 0.15
19 0.15
2 -0.9
23 0.15
24 0.15
25 0.15
26 0.15
27 0.4
28 0.4
29 0.4
3 -0.9
30 0.4
4 -0.14
7 0.31
8 0.31
9 -0.15

>  <PUBCHEM_EFFECTIVE_ROTOR_COUNT>  (1) 
0

>  <PUBCHEM_PHARMACOPHORE_FEATURES>  (1) 
8
1 1 acceptor
1 2 cation
1 2 donor
1 3 cation
1 3 donor
6 1 4 5 6 7 8 rings
6 5 7 9 12 14 16 rings
6 6 8 10 13 15 17 rings

>  <PUBCHEM_HEAVY_ATOM_COUNT>  (1) 
17

>  <PUBCHEM_ATOM_DEF_STEREO_COUNT>  (1) 
0

>  <PUBCHEM_ATOM_UDEF_STEREO_COUNT>  (1) 
0

>  <PUBCHEM_BOND_DEF_STEREO_COUNT>  (1) 
0

>  <PUBCHEM_BOND_UDEF_STEREO_COUNT>  (1) 
0

>  <PUBCHEM_ISOTOPIC_ATOM_COUNT>  (1) 
0

>  <PUBCHEM_COMPONENT_COUNT>  (1) 
1

>  <PUBCHEM_CACTVS_TAUTO_COUNT>  (1) 
1

>  <PUBCHEM_CONFORMER_ID>  (1) 
0000815700000001

>  <PUBCHEM_MMFF94_ENERGY>  (1) 
81.4702

>  <PUBCHEM_FEATURE_SELFOVERLAP>  (1) 
40.656

>  <PUBCHEM_SHAPE_FINGERPRINT>  (1) 
10062212 137 18339633460736657219
10608611 8 18410570690912035297
10967382 1 18410574019516483750
11132069 177 18412256233752638712
11471102 20 18410289237636566340
11806522 49 18410854404062144239
12032990 46 18410858758663168545
12403259 226 18410567388087608836
12715332 25 18059853990985581302
13140716 1 18411141311777157553
13221675 6 18410572889934842626
13288520 33 18340208501318253582
13380535 76 18410576184180358211
13690532 89 18409448076960642042
13862211 1 18410569587110825415
14325111 11 18410575088958377504
15196674 1 18410573985151691493
15309172 13 18411990152028387811
15442244 35 18194682570919835570
15536298 74 18342457062695072440
15848702 151 17774731848379989142
16945 1 18411138008852036171
17802600 8 18410852161593434368
17804303 29 18411984650127912596
17862501 102 18410569569946299954
18186145 218 18410292484542307812
18522853 276 18413669119031811968
193761 8 17690280404628326368
19591789 44 18410573985151970823
200 152 18130781266180498069
20028762 73 18129940199715345391
20510252 161 18272652346138648697
21267235 1 18410582785539778438
21501502 16 18337389314791836497
221490 88 18263651817052091898
2334 1 18410575119023083629
23402539 116 18343293760567426662
23463225 33 18408322168337394212
23559900 14 18343862213307662968
2748010 2 18410011039509035885
2871803 45 18335413578443839951
335352 9 18266458706902524413
350125 39 18410296908274590249
43471831 8 18335135337029435818
474 4 17024318629031377756
4990 188 18130795529423867030
5104073 3 18411419509604021209
54173680 148 18192715772082758075
69090 78 18342735255894814822
7364860 26 18125159333751322215
8809292 202 18188214298690792795
9709674 26 18411987957253016454
9981440 41 17325207824235198456

>  <PUBCHEM_SHAPE_MULTIPOLES>  (1) 
334.91
7.82
2.11
0.6
0
0.29
0
0.65
0
0
0
0
0
0

>  <PUBCHEM_SHAPE_SELFOVERLAP>  (1) 
756.345

>  <PUBCHEM_SHAPE_VOLUME>  (1) 
176.3

>  <PUBCHEM_COORDINATE_TYPE>  (1) 
2
5
10

$$$$
