33124
     RDKit          3D

 11 11  0  0  0  0  0  0  0  0999 V2000
   -3.2266    1.3551   -0.1391 Br  0  0  0  0  0  0  0  0  0  0  0  0
   -0.0492    2.3374   -0.1406 Cl  0  0  0  0  0  0  0  0  0  0  0  0
    2.7265   -0.3859   -0.9917 O   0  0  0  0  0  0  0  0  0  0  0  0
    2.5735    0.8882    0.8732 O   0  0  0  0  0  0  0  0  0  0  0  0
    0.6414   -0.2689    0.0539 C   0  0  0  0  0  0  0  0  0  0  0  0
   -0.4111    0.6424   -0.0311 C   0  0  0  0  0  0  0  0  0  0  0  0
    0.3754   -1.6354    0.1424 C   0  0  0  0  0  0  0  0  0  0  0  0
   -1.7297    0.1875   -0.0278 C   0  0  0  0  0  0  0  0  0  0  0  0
   -0.9434   -2.0903    0.1459 C   0  0  0  0  0  0  0  0  0  0  0  0
   -1.9958   -1.1789    0.0606 C   0  0  0  0  0  0  0  0  0  0  0  0
    2.0390    0.1489    0.0542 C   0  0  0  0  0  0  0  0  0  0  0  0
  1  8  1  0
  2  6  1  0
  3 11  1  0
  4 11  2  0
  5  6  2  0
  5  7  1  0
  5 11  1  0
  6  8  1  0
  7  9  2  0
  8 10  2  0
  9 10  1  0
M  END
>  <PUBCHEM_COMPOUND_CID>  (1) 
33124

>  <PUBCHEM_CONFORMER_RMSD>  (1) 
0.4

>  <PUBCHEM_CONFORMER_DIVERSEORDER>  (1) 
1
2

>  <PUBCHEM_MMFF94_PARTIAL_CHARGES>  (1) 
15
1 -0.11
10 -0.15
11 0.63
12 0.15
13 0.15
14 0.15
15 0.5
2 -0.18
3 -0.65
4 -0.57
5 0.09
6 0.18
7 -0.15
8 0.11
9 -0.15

>  <PUBCHEM_EFFECTIVE_ROTOR_COUNT>  (1) 
1

>  <PUBCHEM_PHARMACOPHORE_FEATURES>  (1) 
5
1 1 hydrophobe
1 3 acceptor
1 4 acceptor
3 3 4 11 anion
6 5 6 7 8 9 10 rings

>  <PUBCHEM_HEAVY_ATOM_COUNT>  (1) 
11

>  <PUBCHEM_ATOM_DEF_STEREO_COUNT>  (1) 
0

>  <PUBCHEM_ATOM_UDEF_STEREO_COUNT>  (1) 
0

>  <PUBCHEM_BOND_DEF_STEREO_COUNT>  (1) 
0

>  <PUBCHEM_BOND_UDEF_STEREO_COUNT>  (1) 
0

>  <PUBCHEM_ISOTOPIC_ATOM_COUNT>  (1) 
0

>  <PUBCHEM_COMPONENT_COUNT>  (1) 
1

>  <PUBCHEM_CACTVS_TAUTO_COUNT>  (1) 
1

>  <PUBCHEM_CONFORMER_ID>  (1) 
0000816400000001

>  <PUBCHEM_MMFF94_ENERGY>  (1) 
31.7855

>  <PUBCHEM_FEATURE_SELFOVERLAP>  (1) 
25.432

>  <PUBCHEM_SHAPE_FINGERPRINT>  (1) 
11206711 2 18336260245304832711
12524768 44 18271526489328807870
12716758 59 18411140238003528714
16945 1 18264772245255274595
193761 8 17977386367211597701
19973954 147 18194685005939536393
20645476 183 17749687236968148070
21040471 1 18408603638913668499
22802520 49 18200890477878931750
23235685 24 18335981969799117365
23402539 116 18270664403361208268
23402655 69 18195230137129058853
23552423 10 17611463433909354375
23559900 14 18342183237798784982
2748010 2 18411143510942824591
5084963 1 18129669741096723915
528886 8 18410289173248960689
53812653 166 18413102849337676857
6333449 129 18412821408578123569
66348 1 18266459810841000897

>  <PUBCHEM_SHAPE_MULTIPOLES>  (1) 
222.45
3.93
2.27
0.74
0.35
0.09
-0.03
-1.3
-0.22
0.63
0.08
-0.25
-0.06
0.24

>  <PUBCHEM_SHAPE_SELFOVERLAP>  (1) 
445.248

>  <PUBCHEM_SHAPE_VOLUME>  (1) 
135.8

>  <PUBCHEM_COORDINATE_TYPE>  (1) 
2
5
10

$$$$
