3312
     RDKit          3D

 26 26  0  0  0  0  0  0  0  0999 V2000
    7.4636   -1.6918   -0.1505 O   0  0  0  0  0  0  0  0  0  0  0  0
   -7.8655   -1.3457   -0.1598 O   0  0  0  0  0  0  0  0  0  0  0  0
   -7.8446    0.9303   -0.5448 O   0  0  0  0  0  0  0  0  0  0  0  0
    4.5153    0.3415   -0.9366 C   0  0  0  0  0  0  0  0  0  0  0  0
    3.8755    0.3216    0.2949 C   0  0  0  0  0  0  0  0  0  0  0  0
    5.7248   -0.3353   -1.0932 C   0  0  0  0  0  0  0  0  0  0  0  0
    4.4209   -0.3615    1.3730 C   0  0  0  0  0  0  0  0  0  0  0  0
    6.2825   -1.0252   -0.0169 C   0  0  0  0  0  0  0  0  0  0  0  0
    5.6306   -1.0383    1.2163 C   0  0  0  0  0  0  0  0  0  0  0  0
    3.9277    1.0784   -2.1008 C   0  0  0  0  0  0  0  0  0  0  0  0
    2.5968    1.0354    0.4632 C   0  0  0  0  0  0  0  0  0  0  0  0
    6.4319   -0.3273   -2.4114 C   0  0  0  0  0  0  0  0  0  0  0  0
    3.7531   -0.4015    2.7103 C   0  0  0  0  0  0  0  0  0  0  0  0
    1.3866    0.4987    0.2306 C   0  0  0  0  0  0  0  0  0  0  0  0
    0.0924    1.1711    0.3804 C   0  0  0  0  0  0  0  0  0  0  0  0
    8.6553   -0.9607    0.1309 C   0  0  0  0  0  0  0  0  0  0  0  0
    0.0988    2.6149    0.8172 C   0  0  0  0  0  0  0  0  0  0  0  0
   -1.0302    0.4751    0.1013 C   0  0  0  0  0  0  0  0  0  0  0  0
   -2.4048    0.9238    0.1904 C   0  0  0  0  0  0  0  0  0  0  0  0
   -3.4703    0.1617   -0.1081 C   0  0  0  0  0  0  0  0  0  0  0  0
   -4.8801    0.5590   -0.0376 C   0  0  0  0  0  0  0  0  0  0  0  0
   -5.1810    1.9551    0.4440 C   0  0  0  0  0  0  0  0  0  0  0  0
   -5.8114   -0.3537   -0.3802 C   0  0  0  0  0  0  0  0  0  0  0  0
   -7.2783   -0.1359   -0.3716 C   0  0  0  0  0  0  0  0  0  0  0  0
   -9.2970   -1.3402   -0.1429 C   0  0  0  0  0  0  0  0  0  0  0  0
   -9.7925   -2.7496    0.1016 C   0  0  0  0  0  0  0  0  0  0  0  0
  1  8  1  0
  1 16  1  0
  2 24  1  0
  2 25  1  0
  3 24  2  0
  4  5  2  0
  4  6  1  0
  4 10  1  0
  5  7  1  0
  5 11  1  0
  6  8  2  0
  6 12  1  0
  7  9  2  0
  7 13  1  0
  8  9  1  0
 11 14  2  0
 14 15  1  0
 15 17  1  0
 15 18  2  0
 18 19  1  0
 19 20  2  0
 20 21  1  0
 21 22  1  0
 21 23  2  0
 23 24  1  0
 25 26  1  0
M  END
>  <PUBCHEM_COMPOUND_CID>  (1) 
3312

>  <PUBCHEM_CONFORMER_RMSD>  (1) 
0.8

>  <PUBCHEM_CONFORMER_DIVERSEORDER>  (1) 
1
32
99
47
139
31
149
75
10
129
100
64
115
45
62
50
126
117
44
98
116
112
63
66
30
135
42
131
37
8
49
136
80
5
73
138
141
28
123
85
96
97
14
134
57
65
56
25
59
6
148
90
89
41
91
102
67
108
95
122
2
128
86
79
21
7
71
33
82
4
92
130
46
51
3
74
61
109
26
35
104
18
146
69
55
12
77
147
144
27
58
119
72
93
23
15
43
133
113
19
101
84
105
9
16
110
87
118
29
52
132
24
121
40
11
53
127
94
137
106
54
143
34
142
68
60
111
88
124
120
48
22
145
81
36
70
114
103
83
78
140
20
17
76
13
107
38
125
39

>  <PUBCHEM_MMFF94_PARTIAL_CHARGES>  (1) 
32
1 -0.36
10 0.14
11 -0.18
12 0.14
13 0.14
14 -0.15
15 -0.14
16 0.28
17 0.14
18 -0.15
19 -0.15
2 -0.43
20 -0.15
21 -0.14
22 0.14
23 -0.14
24 0.71
25 0.28
27 0.15
3 -0.57
31 0.15
38 0.15
4 -0.14
45 0.15
46 0.15
47 0.15
5 0.03
51 0.15
6 -0.14
7 -0.14
8 0.08
9 -0.15

>  <PUBCHEM_EFFECTIVE_ROTOR_COUNT>  (1) 
8

>  <PUBCHEM_PHARMACOPHORE_FEATURES>  (1) 
5
1 1 acceptor
1 17 hydrophobe
1 22 hydrophobe
1 3 acceptor
6 4 5 6 7 8 9 rings

>  <PUBCHEM_HEAVY_ATOM_COUNT>  (1) 
26

>  <PUBCHEM_ATOM_DEF_STEREO_COUNT>  (1) 
0

>  <PUBCHEM_ATOM_UDEF_STEREO_COUNT>  (1) 
0

>  <PUBCHEM_BOND_DEF_STEREO_COUNT>  (1) 
0

>  <PUBCHEM_BOND_UDEF_STEREO_COUNT>  (1) 
4

>  <PUBCHEM_ISOTOPIC_ATOM_COUNT>  (1) 
0

>  <PUBCHEM_COMPONENT_COUNT>  (1) 
1

>  <PUBCHEM_CACTVS_TAUTO_COUNT>  (1) 
1

>  <PUBCHEM_CONFORMER_ID>  (1) 
00000CF000000001

>  <PUBCHEM_MMFF94_ENERGY>  (1) 
82.5557

>  <PUBCHEM_FEATURE_SELFOVERLAP>  (1) 
25.372

>  <PUBCHEM_SHAPE_FINGERPRINT>  (1) 
10162869 55 17022900172873308778
10299344 5 17968095305210184737
10533779 47 15123242012935416135
10693767 8 17460028471750265450
11135609 127 17168152299513016900
11386260 185 16732987556415180005
11409948 41 17023456431954116290
11456790 92 14979959198929487755
11607047 74 18267868457990461540
11638347 137 15698002933421200671
125118 31 10087650308033000883
12592606 108 18335138696157623507
13553643 46 13758362164003386915
13668630 136 18410008827943522881
13685833 64 17917993884426389281
150020 25 14634874149930174393
15183329 4 17530685385708445265
15198563 99 15357971214516389111
15419008 47 17275097289129569648
15419008 91 17987496187920249129
155225 1 8358263649082094823
1754908 1 15482671330076301015
1754911 235 15140957370964595247
1818759 1 18408889560162972443
18335252 114 16008753519939623894
2026 5 18201722808355855591
20721686 124 13840261473614959440
21150785 3 17022903449959579773
21267235 1 18342458158381289897
21781051 124 18340775926633443711
21792934 111 15913611653818160025
221357 26 16298386838679747148
22956985 138 17908707229046735206
23081809 10 17749106652206264865
23522609 53 17897186644435970229
23576562 1 15141535787274643079
246663 6 18342459249128721255
249057 3 16877950442687152858
3004659 81 18113897152528614328
3178227 256 15841550769518583350
335352 9 16515694300389011946
3383291 50 17917992802596167807
4340502 62 14549016581014982324
5758199 1 8142084269365807381
5937810 71 13696134169663279455
59521099 67 18040718091270539548
59682541 52 16298384639471647448
636775 72 9078851675869123559
6438161 24 18410291419501123188
68570916 9 14691709070222778217

>  <PUBCHEM_SHAPE_MULTIPOLES>  (1) 
517.46
31.62
1.92
1.6
53.9
0.06
-0.02
22.75
-5.45
3.22
0.28
-4.14
0.03
-0.71

>  <PUBCHEM_SHAPE_SELFOVERLAP>  (1) 
1053.661

>  <PUBCHEM_SHAPE_VOLUME>  (1) 
302.9

>  <PUBCHEM_COORDINATE_TYPE>  (1) 
2
5
10

$$$$
