33125
     RDKit          3D

 11 11  0  0  0  0  0  0  0  0999 V2000
    0.5146    2.8576    0.0281 Br  0  0  0  0  0  0  0  0  0  0  0  0
    0.2464   -2.7533    0.0297 Cl  0  0  0  0  0  0  0  0  0  0  0  0
    2.2037   -0.0978   -1.2045 O   0  0  0  0  0  0  0  0  0  0  0  0
    2.3868   -0.1030    1.0518 O   0  0  0  0  0  0  0  0  0  0  0  0
    0.2215   -0.0195    0.0281 C   0  0  0  0  0  0  0  0  0  0  0  0
   -0.4336    1.2120    0.0171 C   0  0  0  0  0  0  0  0  0  0  0  0
   -0.5171   -1.2026    0.0181 C   0  0  0  0  0  0  0  0  0  0  0  0
   -1.8274    1.2602   -0.0037 C   0  0  0  0  0  0  0  0  0  0  0  0
   -1.9111   -1.1544   -0.0027 C   0  0  0  0  0  0  0  0  0  0  0  0
   -2.5662    0.0771   -0.0134 C   0  0  0  0  0  0  0  0  0  0  0  0
    1.6824   -0.0763    0.0512 C   0  0  0  0  0  0  0  0  0  0  0  0
  1  6  1  0
  2  7  1  0
  3 11  1  0
  4 11  2  0
  5  6  2  0
  5  7  1  0
  5 11  1  0
  6  8  1  0
  7  9  2  0
  8 10  2  0
  9 10  1  0
M  END
>  <PUBCHEM_COMPOUND_CID>  (1) 
33125

>  <PUBCHEM_CONFORMER_RMSD>  (1) 
0.4

>  <PUBCHEM_CONFORMER_DIVERSEORDER>  (1) 
1

>  <PUBCHEM_MMFF94_PARTIAL_CHARGES>  (1) 
15
1 -0.11
10 -0.15
11 0.63
12 0.15
13 0.15
14 0.15
15 0.5
2 -0.18
3 -0.65
4 -0.57
5 0.09
6 0.11
7 0.18
8 -0.15
9 -0.15

>  <PUBCHEM_EFFECTIVE_ROTOR_COUNT>  (1) 
1

>  <PUBCHEM_PHARMACOPHORE_FEATURES>  (1) 
5
1 1 hydrophobe
1 3 acceptor
1 4 acceptor
3 3 4 11 anion
6 5 6 7 8 9 10 rings

>  <PUBCHEM_HEAVY_ATOM_COUNT>  (1) 
11

>  <PUBCHEM_ATOM_DEF_STEREO_COUNT>  (1) 
0

>  <PUBCHEM_ATOM_UDEF_STEREO_COUNT>  (1) 
0

>  <PUBCHEM_BOND_DEF_STEREO_COUNT>  (1) 
0

>  <PUBCHEM_BOND_UDEF_STEREO_COUNT>  (1) 
0

>  <PUBCHEM_ISOTOPIC_ATOM_COUNT>  (1) 
0

>  <PUBCHEM_COMPONENT_COUNT>  (1) 
1

>  <PUBCHEM_CACTVS_TAUTO_COUNT>  (1) 
1

>  <PUBCHEM_CONFORMER_ID>  (1) 
0000816500000001

>  <PUBCHEM_MMFF94_ENERGY>  (1) 
31.5981

>  <PUBCHEM_FEATURE_SELFOVERLAP>  (1) 
25.432

>  <PUBCHEM_SHAPE_FINGERPRINT>  (1) 
12423570 1 10845981862179808815
12524768 44 17979925126416592439
13380535 76 17620184768957564077
16945 1 18410575080816485035
193761 8 17762054745636276241
21040471 1 18266459797919052261
23552423 10 18045791074178784111
23559900 14 18199757951813517254
241688 4 18123761845966386795
2748010 2 18411697668860456829
4369600 1 18411147930353090692
5084963 1 17988089988169218771
66348 1 18411417272057720041

>  <PUBCHEM_SHAPE_MULTIPOLES>  (1) 
222.45
2.95
2.85
0.79
0.27
0.17
0.04
-0.31
-0.03
0.09
-0.02
0.28
0.25
0.02

>  <PUBCHEM_SHAPE_SELFOVERLAP>  (1) 
445.561

>  <PUBCHEM_SHAPE_VOLUME>  (1) 
135.9

>  <PUBCHEM_COORDINATE_TYPE>  (1) 
2
5
10

$$$$
