33132
     RDKit          3D

 18 18  0  0  1  0  0  0  0  0999 V2000
   -1.9003   -0.4867    0.1237 O   0  0  0  0  0  0  0  0  0  0  0  0
   -0.0118   -2.1064   -0.8024 O   0  0  0  0  0  0  0  0  0  0  0  0
    1.3041    1.6011    1.7613 O   0  0  0  0  0  0  0  0  0  0  0  0
    4.3714   -0.7513   -0.7113 O   0  0  0  0  0  0  0  0  0  0  0  0
    2.1598   -1.3675   -0.8334 N   0  0  0  0  0  0  0  0  0  0  0  0
    2.8172    0.4842    0.4478 N   0  0  0  0  0  0  0  0  0  0  0  0
    0.4228    0.1194    0.0560 C   0  0  0  0  0  0  0  0  0  0  0  0
   -0.8233   -0.0481    0.9378 C   0  0  0  0  0  0  0  0  0  0  0  0
    0.0903    1.0524   -1.1222 C   0  0  0  0  0  0  0  0  0  0  0  0
    0.8115   -1.2303   -0.5389 C   0  0  0  0  0  0  0  0  0  0  0  0
    1.5298    0.7933    0.8607 C   0  0  0  0  0  0  0  0  0  0  0  0
   -0.5816   -1.0479    2.0510 C   0  0  0  0  0  0  0  0  0  0  0  0
   -0.2327    2.4257   -0.6352 C   0  0  0  0  0  0  0  0  0  0  0  0
   -3.0908   -0.6627    0.8810 C   0  0  0  0  0  0  0  0  0  0  0  0
    3.1961   -0.5486   -0.4015 C   0  0  0  0  0  0  0  0  0  0  0  0
   -4.1999   -1.1313   -0.0484 C   0  0  0  0  0  0  0  0  0  0  0  0
   -1.3997    3.0385   -0.8636 C   0  0  0  0  0  0  0  0  0  0  0  0
   -4.4628   -0.1338   -1.1621 C   0  0  0  0  0  0  0  0  0  0  0  0
  1  8  1  0
  1 14  1  0
  2 10  2  0
  3 11  2  0
  4 15  2  0
  5 10  1  0
  5 15  1  0
  6 11  1  0
  6 15  1  0
  7  8  1  0
  7  9  1  0
  7 10  1  0
  7 11  1  0
  8 12  1  0
  9 13  1  0
 13 17  2  0
 14 16  1  0
 16 18  1  0
M  END
>  <PUBCHEM_COMPOUND_CID>  (1) 
33132

>  <PUBCHEM_CONFORMER_RMSD>  (1) 
0.8

>  <PUBCHEM_CONFORMER_DIVERSEORDER>  (1) 
1
16
32
35
5
30
19
17
14
3
9
15
27
7
8
26
28
18
20
31
33
2
37
36
4
11
22
12
6
38
25
24
29
21
34
23
13
10

>  <PUBCHEM_MMFF94_PARTIAL_CHARGES>  (1) 
20
1 -0.56
10 0.57
11 0.57
13 -0.29
14 0.28
15 0.69
17 -0.3
2 -0.57
25 0.37
26 0.37
27 0.15
3 -0.57
32 0.15
33 0.15
4 -0.57
5 -0.49
6 -0.49
7 0.12
8 0.28
9 0.14

>  <PUBCHEM_EFFECTIVE_ROTOR_COUNT>  (1) 
6.6

>  <PUBCHEM_PHARMACOPHORE_FEATURES>  (1) 
9
1 1 acceptor
1 17 hydrophobe
1 18 hydrophobe
1 2 acceptor
1 3 acceptor
1 4 acceptor
1 5 donor
1 6 donor
6 5 6 7 10 11 15 rings

>  <PUBCHEM_HEAVY_ATOM_COUNT>  (1) 
18

>  <PUBCHEM_ATOM_DEF_STEREO_COUNT>  (1) 
0

>  <PUBCHEM_ATOM_UDEF_STEREO_COUNT>  (1) 
1

>  <PUBCHEM_BOND_DEF_STEREO_COUNT>  (1) 
0

>  <PUBCHEM_BOND_UDEF_STEREO_COUNT>  (1) 
0

>  <PUBCHEM_ISOTOPIC_ATOM_COUNT>  (1) 
0

>  <PUBCHEM_COMPONENT_COUNT>  (1) 
1

>  <PUBCHEM_CACTVS_TAUTO_COUNT>  (1) 
5

>  <PUBCHEM_CONFORMER_ID>  (1) 
0000816C00000001

>  <PUBCHEM_MMFF94_ENERGY>  (1) 
48.3143

>  <PUBCHEM_FEATURE_SELFOVERLAP>  (1) 
45.721

>  <PUBCHEM_SHAPE_FINGERPRINT>  (1) 
10219947 1 18338802315861053315
11315181 36 16588892126423404382
116883 192 18336829702017870677
11806522 49 17917714625505233783
12138202 97 17973447594237968492
12423570 1 8313907377973202184
12716301 132 18191848055687093280
13134695 92 18337391638248129701
14251745 187 18336825273742901913
15501101 241 18201726175324605457
15848700 24 18335977644751187229
16945 1 18114762459547346498
17357779 13 18410846651588406389
18186145 218 18261391191608257731
20233049 118 16877937269806171541
20473742 2 17917140710320717672
20511035 2 17769102576500219342
21130352 189 18262244429288904809
21501502 16 17973159535070923234
22344851 262 17981881148912140635
22620623 9 18195824971875011925
22892500 29 17632005451064559249
23402539 116 18114466673359764855
23419403 2 17774139245946112560
23559900 14 17603873325624602266
2748010 2 18125445460351570734
3060560 45 18342446071889865831
3286 77 17775566459214735136
81228 2 18114755810695749249

>  <PUBCHEM_SHAPE_MULTIPOLES>  (1) 
336.99
6.1
2.35
1.46
2.71
2.06
-0.56
-2.38
1.85
0.65
0.45
-0.03
-0.17
0.87

>  <PUBCHEM_SHAPE_SELFOVERLAP>  (1) 
686.834

>  <PUBCHEM_SHAPE_VOLUME>  (1) 
192.7

>  <PUBCHEM_COORDINATE_TYPE>  (1) 
2
5
10

$$$$
