3313
     RDKit          3D

 21 22  0  0  1  0  0  0  0  0999 V2000
   -0.2118   -0.8669    0.6092 O   0  0  0  0  0  0  0  0  0  0  0  0
   -0.6814   -2.4168   -1.0329 O   0  0  0  0  0  0  0  0  0  0  0  0
   -3.2995   -2.3944   -0.4039 O   0  0  0  0  0  0  0  0  0  0  0  0
    3.3923    0.1475    0.7584 N   0  0  0  0  0  0  0  0  0  0  0  0
    3.5698    0.5309   -0.6741 C   0  0  0  0  0  0  0  0  0  0  0  0
    1.9694    0.0372    1.1809 C   0  0  0  0  0  0  0  0  0  0  0  0
    2.7701   -0.4417   -1.5799 C   0  0  0  0  0  0  0  0  0  0  0  0
    1.1719   -0.9140    0.2624 C   0  0  0  0  0  0  0  0  0  0  0  0
    1.3045   -0.5342   -1.2029 C   0  0  0  0  0  0  0  0  0  0  0  0
    5.0519    0.3709   -1.1010 C   0  0  0  0  0  0  0  0  0  0  0  0
    3.1498    1.9889   -0.9718 C   0  0  0  0  0  0  0  0  0  0  0  0
    1.8246   -0.4650    2.6336 C   0  0  0  0  0  0  0  0  0  0  0  0
    4.1631    0.9877    1.6841 C   0  0  0  0  0  0  0  0  0  0  0  0
   -1.0352   -1.6755   -0.1248 C   0  0  0  0  0  0  0  0  0  0  0  0
   -2.4718   -1.5015    0.3276 C   0  0  0  0  0  0  0  0  0  0  0  0
   -2.9798   -0.0952    0.1248 C   0  0  0  0  0  0  0  0  0  0  0  0
   -3.9439    0.4099    0.9832 C   0  0  0  0  0  0  0  0  0  0  0  0
   -2.4736    0.6669   -0.9164 C   0  0  0  0  0  0  0  0  0  0  0  0
   -4.4136    1.7098    0.7956 C   0  0  0  0  0  0  0  0  0  0  0  0
   -2.9433    1.9669   -1.1041 C   0  0  0  0  0  0  0  0  0  0  0  0
   -3.9133    2.4884   -0.2480 C   0  0  0  0  0  0  0  0  0  0  0  0
  1  8  1  0
  1 14  1  0
  2 14  2  0
  3 15  1  0
  4  5  1  0
  4  6  1  0
  4 13  1  0
  5  7  1  0
  5 10  1  0
  5 11  1  0
  6  8  1  0
  6 12  1  0
  7  9  1  0
  8  9  1  0
 14 15  1  0
 15 16  1  0
 16 17  2  0
 16 18  1  0
 17 19  1  0
 18 20  2  0
 19 21  2  0
 20 21  1  0
M  END
>  <PUBCHEM_COMPOUND_CID>  (1) 
3313

>  <PUBCHEM_CONFORMER_RMSD>  (1) 
0.8

>  <PUBCHEM_CONFORMER_DIVERSEORDER>  (1) 
1
194
3
49
93
170
219
272
6
125
76
176
71
181
139
144
223
129
244
192
103
44
13
42
254
195
282
52
274
217
27
96
63
115
155
64
56
231
197
230
32
57
29
131
276
136
14
37
117
175
127
182
227
251
5
264
98
260
158
150
70
203
133
262
106
46
212
83
86
237
177
8
140
35
236
241
198
196
31
207
82
74
164
26
190
186
247
128
141
134
58
18
11
10
250
256
253
124
157
211
279
215
232
67
12
238
167
147
17
138
216
235
85
50
43
201
183
221
24
268
72
114
248
48
179
55
280
41
214
148
224
154
23
180
269
188
185
163
137
77
59
97
265
20
110
16
22
171
258
66
120
225
263
45
240
261
200
270
220
184
246
189
62
234
33
142
61
121
105
73
275
78
112
249
4
34
109
143
126
89
68
281
165
88
122
209
132
21
123
116
162
108
222
204
60
168
202
107
40
173
277
84
130
135
206
80
210
245
119
259
160
79
278
187
233
146
36
252
7
19
191
255
102
218
92
239
113
271
228
169
95
47
100
267
2
69
38
193
242
104
273
118
90
178
54
87
145
205
161
15
65
208
159
99
111
257
172
39
81
174
266
53
226
153
25
51
213
94
152
75
243
91
101
28
199
149
156
229
9
30
151
166

>  <PUBCHEM_MMFF94_PARTIAL_CHARGES>  (1) 
22
1 -0.43
13 0.27
14 0.66
15 0.48
16 -0.14
17 -0.15
18 -0.15
19 -0.15
2 -0.57
20 -0.15
21 -0.15
3 -0.68
4 -0.81
41 0.4
42 0.15
43 0.15
44 0.15
45 0.15
46 0.15
5 0.27
6 0.27
8 0.28

>  <PUBCHEM_EFFECTIVE_ROTOR_COUNT>  (1) 
5.2

>  <PUBCHEM_PHARMACOPHORE_FEATURES>  (1) 
7
1 2 acceptor
1 3 acceptor
1 3 donor
1 4 cation
3 5 10 11 hydrophobe
6 16 17 18 19 20 21 rings
6 4 5 6 7 8 9 rings

>  <PUBCHEM_HEAVY_ATOM_COUNT>  (1) 
21

>  <PUBCHEM_ATOM_DEF_STEREO_COUNT>  (1) 
0

>  <PUBCHEM_ATOM_UDEF_STEREO_COUNT>  (1) 
3

>  <PUBCHEM_BOND_DEF_STEREO_COUNT>  (1) 
0

>  <PUBCHEM_BOND_UDEF_STEREO_COUNT>  (1) 
0

>  <PUBCHEM_ISOTOPIC_ATOM_COUNT>  (1) 
0

>  <PUBCHEM_COMPONENT_COUNT>  (1) 
1

>  <PUBCHEM_CACTVS_TAUTO_COUNT>  (1) 
1

>  <PUBCHEM_CONFORMER_ID>  (1) 
00000CF100000001

>  <PUBCHEM_MMFF94_ENERGY>  (1) 
51.2161

>  <PUBCHEM_FEATURE_SELFOVERLAP>  (1) 
35.527

>  <PUBCHEM_SHAPE_FINGERPRINT>  (1) 
10165383 225 18058188188473423291
10366900 7 17240770617893570145
10498660 4 18343298128992648473
10646746 165 18413388756810158092
10759866 29 17895759487122123896
11595378 159 17748828518449911621
12173636 292 18272651229984786487
12403259 415 17917998316821881394
12596602 18 16950857997499071449
12633257 1 18261104171322755348
12788726 201 18043245954212042987
12892183 10 16226335807114411569
13134695 92 16558753369606063224
13224815 77 17312822679892151877
13257819 101 17416105399949429096
13965767 371 17969492706557645925
14251757 17 17775283902032763032
14251764 30 14259912179646347725
14252887 29 12901550143871224108
14341114 328 17313114029310153025
14739800 52 18046617087302101816
14957384 54 18114453475046889077
15342168 16 18196094348778324553
1741750 31 18413106135019267587
1798214 55 18341329985867113321
18186145 218 17775565321106326435
19078846 21 18186793704230127004
19862831 5 13830128382193645245
200 152 14476967765821323338
20261772 1 18040720250936753988
20645477 56 18272098196926423419
20645477 70 15841560695140525084
20671657 53 11671768365319560219
20739085 24 15864068737764763958
21427221 339 17677599874527391136
21503847 285 17676491605804137744
21756936 100 17604443993317717372
21864079 5 18186524340470458044
22646028 28 10159693582122313317
23557571 272 18271820054601598735
23559900 14 18129954386297460558
238 59 16343694439441012846
25 1 17632303324041828503
2637199 183 18260559900360925956
27216 239 18260554403209151049
312423 11 17894622656375995475
3268164 11 18201147858453095911
341906 21 18410282631839812568
38570 142 16879948285633035412
392239 28 17025180645883615337
463206 1 10014706473126963845
474 4 16805612507259147852
5161694 15 17775013370664325164
5281201 14 17917158294201546964
5895379 119 18411704300865650356
59682541 52 16056030213484527165
6049 1 17488741319227073083
633830 44 17530975691464866718
7097593 13 17169816791827592483
7399639 24 17270587311617733690
7615 1 17823115930574663907
7808743 9 18409454678167627261

>  <PUBCHEM_SHAPE_MULTIPOLES>  (1) 
409.58
9.72
2.32
1.76
0.69
0.05
0.81
5.19
0.4
-2.51
-0.59
1.68
-0.08
-0.36

>  <PUBCHEM_SHAPE_SELFOVERLAP>  (1) 
847.978

>  <PUBCHEM_SHAPE_VOLUME>  (1) 
234.5

>  <PUBCHEM_COORDINATE_TYPE>  (1) 
2
5
10

$$$$
