33130
     RDKit          3D

 14 14  0  0  0  0  0  0  0  0999 V2000
   -1.1490   -1.9492   -1.2935 O   0  0  0  0  0  0  0  0  0  0  0  0
    2.1688   -2.1127    0.2492 O   0  0  0  0  0  0  0  0  0  0  0  0
    1.3315    1.8370   -1.5404 O   0  0  0  0  0  0  0  0  0  0  0  0
    1.5918   -0.6202    1.7550 O   0  0  0  0  0  0  0  0  0  0  0  0
    2.6399    1.3554    0.1571 O   0  0  0  0  0  0  0  0  0  0  0  0
    1.6286   -1.0527    0.5952 N   0  0  0  0  0  0  0  0  0  0  0  0
    1.7134    1.0967   -0.6233 N   0  0  0  0  0  0  0  0  0  0  0  0
    0.9566   -0.2057   -0.4646 C   0  0  0  0  0  0  0  0  0  0  0  0
   -0.4780    0.0351   -0.1282 C   0  0  0  0  0  0  0  0  0  0  0  0
   -1.4687   -0.8474   -0.5584 C   0  0  0  0  0  0  0  0  0  0  0  0
   -0.8228    1.1577    0.6245 C   0  0  0  0  0  0  0  0  0  0  0  0
   -2.8044   -0.6072   -0.2362 C   0  0  0  0  0  0  0  0  0  0  0  0
   -2.1585    1.3978    0.9469 C   0  0  0  0  0  0  0  0  0  0  0  0
   -3.1492    0.5154    0.5166 C   0  0  0  0  0  0  0  0  0  0  0  0
  1 10  1  0
  2  6  1  0
  3  7  1  0
  4  6  2  0
  5  7  2  0
  6  8  1  0
  7  8  1  0
  8  9  1  0
  9 10  2  0
  9 11  1  0
 10 12  1  0
 11 13  2  0
 12 14  2  0
 13 14  1  0
M  CHG  4   2  -1   3  -1   6   1   7   1
M  END
>  <PUBCHEM_COMPOUND_CID>  (1) 
33130

>  <PUBCHEM_CONFORMER_RMSD>  (1) 
0.6

>  <PUBCHEM_CONFORMER_DIVERSEORDER>  (1) 
1
13
5
10
12
2
9
6
11
7
8
3
4

>  <PUBCHEM_MMFF94_PARTIAL_CHARGES>  (1) 
19
1 -0.53
10 0.08
11 -0.15
12 -0.15
13 -0.15
14 -0.15
16 0.15
17 0.15
18 0.15
19 0.15
2 -0.52
20 0.45
3 -0.52
4 -0.52
5 -0.52
6 0.8
7 0.8
8 0.62
9 -0.14

>  <PUBCHEM_EFFECTIVE_ROTOR_COUNT>  (1) 
3

>  <PUBCHEM_PHARMACOPHORE_FEATURES>  (1) 
8
1 1 donor
1 2 acceptor
1 2 anion
1 3 acceptor
1 3 anion
1 4 acceptor
1 5 acceptor
6 9 10 11 12 13 14 rings

>  <PUBCHEM_HEAVY_ATOM_COUNT>  (1) 
14

>  <PUBCHEM_ATOM_DEF_STEREO_COUNT>  (1) 
0

>  <PUBCHEM_ATOM_UDEF_STEREO_COUNT>  (1) 
0

>  <PUBCHEM_BOND_DEF_STEREO_COUNT>  (1) 
0

>  <PUBCHEM_BOND_UDEF_STEREO_COUNT>  (1) 
0

>  <PUBCHEM_ISOTOPIC_ATOM_COUNT>  (1) 
0

>  <PUBCHEM_COMPONENT_COUNT>  (1) 
1

>  <PUBCHEM_CACTVS_TAUTO_COUNT>  (1) 
7

>  <PUBCHEM_CONFORMER_ID>  (1) 
0000816A00000001

>  <PUBCHEM_MMFF94_ENERGY>  (1) 
39.8237

>  <PUBCHEM_FEATURE_SELFOVERLAP>  (1) 
40.764

>  <PUBCHEM_SHAPE_FINGERPRINT>  (1) 
12326174 3 17603298254735336720
12423570 1 10112260676248748719
13538477 17 18343297110963813671
13898156 1 18341894129625952405
15076042 46 18272373014587573011
15775835 57 18342468048931518809
16945 1 18055933222947119861
20361792 2 17823689763980546410
20559304 39 18342177752160144649
20645476 183 18337963375957625583
207724 885 18193001413087756699
22802520 49 17201392691176116341
23419403 2 15535209254624000851
23552423 10 18409172120969557487
2748010 2 16829267065654394509
369184 2 17967814938229599961
5084963 1 18270120080939444939
528862 383 18186521020534266379
7364860 26 18272374148548590342

>  <PUBCHEM_SHAPE_MULTIPOLES>  (1) 
248.8
4.08
1.92
1.21
0.88
0.32
0.04
-0.32
0.57
-0.53
-0.32
-0.45
-0.08
-1.08

>  <PUBCHEM_SHAPE_SELFOVERLAP>  (1) 
521.033

>  <PUBCHEM_SHAPE_VOLUME>  (1) 
139.1

>  <PUBCHEM_COORDINATE_TYPE>  (1) 
2
5
10

$$$$
