33134
     RDKit          3D

  7  6  0  0  0  0  0  0  0  0999 V2000
    1.3579    1.3482   -0.0427 O   0  0  0  0  0  0  0  0  0  0  0  0
    0.3995   -0.8744   -0.1922 C   0  0  0  0  0  0  0  0  0  0  0  0
    1.5265    0.1300   -0.0066 C   0  0  0  0  0  0  0  0  0  0  0  0
   -0.9052   -0.1851   -0.4426 C   0  0  0  0  0  0  0  0  0  0  0  0
    2.8924   -0.4534    0.2503 C   0  0  0  0  0  0  0  0  0  0  0  0
   -1.9835   -0.3236    0.3425 C   0  0  0  0  0  0  0  0  0  0  0  0
   -3.2875    0.3583    0.0914 C   0  0  0  0  0  0  0  0  0  0  0  0
  1  3  2  0
  2  3  1  0
  2  4  1  0
  3  5  1  0
  4  6  2  0
  6  7  1  0
M  END
>  <PUBCHEM_COMPOUND_CID>  (1) 
33134

>  <PUBCHEM_CONFORMER_RMSD>  (1) 
0.4

>  <PUBCHEM_CONFORMER_DIVERSEORDER>  (1) 
1
7
9
6
4
8
5
3
2

>  <PUBCHEM_MMFF94_PARTIAL_CHARGES>  (1) 
9
1 -0.57
10 0.15
14 0.15
2 0.2
3 0.45
4 -0.29
5 0.06
6 -0.29
7 0.14

>  <PUBCHEM_EFFECTIVE_ROTOR_COUNT>  (1) 
2

>  <PUBCHEM_PHARMACOPHORE_FEATURES>  (1) 
2
1 1 acceptor
1 7 hydrophobe

>  <PUBCHEM_HEAVY_ATOM_COUNT>  (1) 
7

>  <PUBCHEM_ATOM_DEF_STEREO_COUNT>  (1) 
0

>  <PUBCHEM_ATOM_UDEF_STEREO_COUNT>  (1) 
0

>  <PUBCHEM_BOND_DEF_STEREO_COUNT>  (1) 
0

>  <PUBCHEM_BOND_UDEF_STEREO_COUNT>  (1) 
1

>  <PUBCHEM_ISOTOPIC_ATOM_COUNT>  (1) 
0

>  <PUBCHEM_COMPONENT_COUNT>  (1) 
1

>  <PUBCHEM_CACTVS_TAUTO_COUNT>  (1) 
5

>  <PUBCHEM_CONFORMER_ID>  (1) 
0000816E00000001

>  <PUBCHEM_MMFF94_ENERGY>  (1) 
1.5418

>  <PUBCHEM_FEATURE_SELFOVERLAP>  (1) 
10.148

>  <PUBCHEM_SHAPE_FINGERPRINT>  (1) 
11062470 55 12895351088243911923
12897270 3 9871749091683501043
12932764 1 17095794490759284923
14325111 11 18411982494112209327
14390081 3 17847061073629947097
20096714 4 18270400615049240302
21040471 1 18198905992539887902
29004967 10 18334012774691502986
5460574 1 8142086459455840623

>  <PUBCHEM_SHAPE_MULTIPOLES>  (1) 
138.19
4.73
0.98
0.67
1.51
0.18
0
0.26
-0.58
-0.3
0.02
0.05
-0.04
-0.03

>  <PUBCHEM_SHAPE_SELFOVERLAP>  (1) 
248.712

>  <PUBCHEM_SHAPE_VOLUME>  (1) 
89.4

>  <PUBCHEM_COORDINATE_TYPE>  (1) 
2
5
10

$$$$
