33142
     RDKit          3D

 18 19  0  0  0  0  0  0  0  0999 V2000
    1.2905   -1.0837   -0.0138 N   0  0  0  0  0  0  0  0  0  0  0  0
   -1.0367   -0.7493    0.0167 N   0  0  0  0  0  0  0  0  0  0  0  0
   -0.0449   -2.9267   -0.1237 N   0  0  0  0  0  0  0  0  0  0  0  0
    1.6644    0.3079    0.0716 C   0  0  0  0  0  0  0  0  0  0  0  0
    3.1604    0.4549    0.0381 C   0  0  0  0  0  0  0  0  0  0  0  0
   -3.4507   -0.3189   -0.0023 C   0  0  0  0  0  0  0  0  0  0  0  0
   -2.3616   -1.3548   -0.0152 C   0  0  0  0  0  0  0  0  0  0  0  0
    3.8775    0.4390    1.2275 C   0  0  0  0  0  0  0  0  0  0  0  0
    3.8073    0.6052   -1.1817 C   0  0  0  0  0  0  0  0  0  0  0  0
   -0.0134   -1.5502   -0.0377 C   0  0  0  0  0  0  0  0  0  0  0  0
   -3.9630    0.1226    1.2111 C   0  0  0  0  0  0  0  0  0  0  0  0
   -3.9326    0.1846   -1.2038 C   0  0  0  0  0  0  0  0  0  0  0  0
    5.2655    0.5758    1.1965 C   0  0  0  0  0  0  0  0  0  0  0  0
    5.1951    0.7420   -1.2127 C   0  0  0  0  0  0  0  0  0  0  0  0
    5.9241    0.7272   -0.0235 C   0  0  0  0  0  0  0  0  0  0  0  0
   -4.9740    1.0836    1.2231 C   0  0  0  0  0  0  0  0  0  0  0  0
   -4.9436    1.1457   -1.1919 C   0  0  0  0  0  0  0  0  0  0  0  0
   -5.4643    1.5951    0.0217 C   0  0  0  0  0  0  0  0  0  0  0  0
  1  4  1  0
  1 10  1  0
  2  7  1  0
  2 10  2  0
  3 10  1  0
  4  5  1  0
  5  8  2  0
  5  9  1  0
  6  7  1  0
  6 11  2  0
  6 12  1  0
  8 13  1  0
  9 14  2  0
 11 16  1  0
 12 17  2  0
 13 15  2  0
 14 15  1  0
 16 18  2  0
 17 18  1  0
M  END
>  <PUBCHEM_COMPOUND_CID>  (1) 
33142

>  <PUBCHEM_CONFORMER_RMSD>  (1) 
0.6

>  <PUBCHEM_CONFORMER_DIVERSEORDER>  (1) 
1
248
283
17
35
303
205
301
156
56
82
168
59
265
40
278
298
42
186
227
263
216
155
115
166
162
199
51
282
144
123
264
239
251
236
253
163
279
48
174
287
113
108
47
230
97
272
233
118
243
203
43
225
119
147
41
122
170
39
276
79
145
111
139
131
167
32
297
299
304
218
142
284
27
258
55
107
157
286
120
133
229
305
211
212
18
141
98
15
255
92
271
207
165
134
237
57
219
89
38
178
267
105
132
72
8
63
13
95
99
269
9
240
194
76
151
261
6
148
191
159
135
259
214
154
53
129
71
23
262
146
158
295
68
110
180
181
24
96
242
192
179
206
130
213
60
45
124
116
58
160
244
175
104
61
221
153
100
102
143
87
101
228
226
195
198
83
37
201
292
117
54
137
70
185
208
46
296
65
128
62
254
112
75
190
247
4
293
202
10
193
256
238
150
44
2
152
291
50
268
121
138
22
80
294
127
217
172
66
171
188
25
176
161
140
250
164
277
209
260
16
189
302
67
21
223
177
224
252
33
93
273
249
285
184
109
200
210
281
19
12
241
136
231
183
81
7
90
196
5
114
74
234
232
275
103
220
52
173
73
49
11
64
34
126
30
31
169
288
204
36
187
84
85
69
88
215
26
266
290
29
28
274
14
125
77
182
149
245
86
257
78
300
222
197
91
270
3
246
235
94
20
289
106
280

>  <PUBCHEM_MMFF94_PARTIAL_CHARGES>  (1) 
31
1 -0.82
10 0.55
11 -0.15
12 -0.15
13 -0.15
14 -0.15
15 -0.15
16 -0.15
17 -0.15
18 -0.15
2 -0.7
23 0.4
24 0.15
25 0.15
26 0.15
27 0.15
28 0.15
29 0.15
3 -0.85
30 0.15
31 0.15
32 0.15
33 0.15
34 0.4
35 0.4
4 0.51
5 -0.14
6 -0.14
7 0.39
8 -0.15
9 -0.15

>  <PUBCHEM_EFFECTIVE_ROTOR_COUNT>  (1) 
5

>  <PUBCHEM_PHARMACOPHORE_FEATURES>  (1) 
5
1 1 donor
1 3 donor
4 1 2 3 10 cation
6 5 8 9 13 14 15 rings
6 6 11 12 16 17 18 rings

>  <PUBCHEM_HEAVY_ATOM_COUNT>  (1) 
18

>  <PUBCHEM_ATOM_DEF_STEREO_COUNT>  (1) 
0

>  <PUBCHEM_ATOM_UDEF_STEREO_COUNT>  (1) 
0

>  <PUBCHEM_BOND_DEF_STEREO_COUNT>  (1) 
0

>  <PUBCHEM_BOND_UDEF_STEREO_COUNT>  (1) 
0

>  <PUBCHEM_ISOTOPIC_ATOM_COUNT>  (1) 
0

>  <PUBCHEM_COMPONENT_COUNT>  (1) 
1

>  <PUBCHEM_CACTVS_TAUTO_COUNT>  (1) 
2

>  <PUBCHEM_CONFORMER_ID>  (1) 
0000817600000001

>  <PUBCHEM_MMFF94_ENERGY>  (1) 
48.7181

>  <PUBCHEM_FEATURE_SELFOVERLAP>  (1) 
25.428

>  <PUBCHEM_SHAPE_FINGERPRINT>  (1) 
100836 57 18407763633446718997
10354089 29 16805325509313229596
10447042 23 12103847839438611884
105312 117 18343022215618862727
10670039 82 18272097045706727616
10803635 8 13470688122927211717
11089746 13 17846773018947877424
11370993 144 15574981837137652603
11552529 35 16299806444960116763
11646440 116 18060431235012066393
12236239 1 17821727265190916568
12596602 18 15647055966768573581
12892183 10 15285351799921731763
13583140 156 15936396867065429903
13631057 29 18269546299865259871
13685833 64 9799401240099065197
13740256 8 9583512131547306607
14123255 352 18260828202630774365
14123256 34 8862940610552517080
1420 369 7925909283701185425
14251758 9 18187363191013100466
14251764 30 12324231751023448168
14341114 176 15791731888699773164
14341114 328 16950566583899440129
15183329 4 16630531700132430468
15188451 53 13912617091006434041
15880784 105 13262404366512001917
1601671 61 18334013900052172812
17780758 139 13406793316235698085
17870717 6 13470684833319671669
1813 80 10881682373268345963
18222031 100 8430314628041945522
193927 3 8718824314580567271
19784866 170 18040436564341698335
19784866 34 18343301431901555411
200 152 12391520788627150310
20281389 69 18260827111545817120
20374829 77 10519987054502630299
20621476 66 18336270119440069996
20645477 70 15697733562200368004
20871999 31 14261352449219878043
21054139 6 11959737071016180516
23198884 109 16773798078628364853
23402539 116 17632295687700583496
23402655 69 17846498127628712142
23559900 14 12535046621654860467
2767999 5 18412821382671429641
2838139 119 18131627863784047521
2916195 48 18059850718394146432
293599 30 18411421713080323254
3004659 81 13686303461298789084
314194 84 9079110072672229980
329604 57 11671779385989162410
439807 62 13829839245597062269
5104073 3 17168702085191215488
5385378 56 18338804398936406211
5924683 9 16371298834888308963
59682541 52 16916508030007493285
6328613 192 18339364192796077712
7495541 125 11241963811698555446

>  <PUBCHEM_SHAPE_MULTIPOLES>  (1) 
355.49
15.76
1.73
1.28
3.63
1.21
-0.03
-9.2
-0.29
-1.17
0.11
0.02
-0.39
-0.1

>  <PUBCHEM_SHAPE_SELFOVERLAP>  (1) 
746.877

>  <PUBCHEM_SHAPE_VOLUME>  (1) 
196.1

>  <PUBCHEM_COORDINATE_TYPE>  (1) 
2
5
10

$$$$
