33148
     RDKit          3D

 16 17  0  0  0  0  0  0  0  0999 V2000
    3.3789   -2.8709    0.4430 Cl  0  0  0  0  0  0  0  0  0  0  0  0
    4.9507    2.0664   -0.0186 Cl  0  0  0  0  0  0  0  0  0  0  0  0
   -0.1416    0.8878   -0.6550 S   0  0  0  0  0  0  0  0  0  0  0  0
    2.4626    1.3553   -0.3066 N   0  0  0  0  0  0  0  0  0  0  0  0
    1.7375   -0.9221   -0.0935 N   0  0  0  0  0  0  0  0  0  0  0  0
    4.0545   -0.3687    0.1946 N   0  0  0  0  0  0  0  0  0  0  0  0
   -2.5582   -0.1580    0.1682 C   0  0  0  0  0  0  0  0  0  0  0  0
   -1.0838   -0.3522    0.2844 C   0  0  0  0  0  0  0  0  0  0  0  0
   -3.2659   -0.7876   -0.8557 C   0  0  0  0  0  0  0  0  0  0  0  0
   -3.2291    0.6534    1.0830 C   0  0  0  0  0  0  0  0  0  0  0  0
   -4.6445   -0.6059   -0.9645 C   0  0  0  0  0  0  0  0  0  0  0  0
   -4.6078    0.8350    0.9742 C   0  0  0  0  0  0  0  0  0  0  0  0
   -5.3156    0.2053   -0.0496 C   0  0  0  0  0  0  0  0  0  0  0  0
    1.5405    0.3842   -0.3129 C   0  0  0  0  0  0  0  0  0  0  0  0
    3.0218   -1.2260    0.1542 C   0  0  0  0  0  0  0  0  0  0  0  0
    3.6999    0.9040   -0.0450 C   0  0  0  0  0  0  0  0  0  0  0  0
  1 15  1  0
  2 16  1  0
  3  8  1  0
  3 14  1  0
  4 14  2  0
  4 16  1  0
  5 14  1  0
  5 15  2  0
  6 15  1  0
  6 16  2  0
  7  8  1  0
  7  9  2  0
  7 10  1  0
  9 11  1  0
 10 12  2  0
 11 13  2  0
 12 13  1  0
M  END
>  <PUBCHEM_COMPOUND_CID>  (1) 
33148

>  <PUBCHEM_CONFORMER_RMSD>  (1) 
0.6

>  <PUBCHEM_CONFORMER_DIVERSEORDER>  (1) 
1
8
10
3
15
12
13
18
2
5
11
16
17
4
6
14
7
9

>  <PUBCHEM_MMFF94_PARTIAL_CHARGES>  (1) 
21
1 -0.18
10 -0.15
11 -0.15
12 -0.15
13 -0.15
14 0.72
15 0.8
16 0.8
19 0.15
2 -0.18
20 0.15
21 0.15
22 0.15
23 0.15
3 -0.33
4 -0.62
5 -0.62
6 -0.62
7 -0.14
8 0.37
9 -0.15

>  <PUBCHEM_EFFECTIVE_ROTOR_COUNT>  (1) 
3

>  <PUBCHEM_PHARMACOPHORE_FEATURES>  (1) 
5
3 4 5 14 cation
3 4 6 16 cation
3 5 6 15 cation
6 4 5 6 14 15 16 rings
6 7 9 10 11 12 13 rings

>  <PUBCHEM_HEAVY_ATOM_COUNT>  (1) 
16

>  <PUBCHEM_ATOM_DEF_STEREO_COUNT>  (1) 
0

>  <PUBCHEM_ATOM_UDEF_STEREO_COUNT>  (1) 
0

>  <PUBCHEM_BOND_DEF_STEREO_COUNT>  (1) 
0

>  <PUBCHEM_BOND_UDEF_STEREO_COUNT>  (1) 
0

>  <PUBCHEM_ISOTOPIC_ATOM_COUNT>  (1) 
0

>  <PUBCHEM_COMPONENT_COUNT>  (1) 
1

>  <PUBCHEM_CACTVS_TAUTO_COUNT>  (1) 
1

>  <PUBCHEM_CONFORMER_ID>  (1) 
0000817C00000001

>  <PUBCHEM_MMFF94_ENERGY>  (1) 
31.0929

>  <PUBCHEM_FEATURE_SELFOVERLAP>  (1) 
28.159

>  <PUBCHEM_SHAPE_FINGERPRINT>  (1) 
10595046 47 18342736343027663495
10912923 1 18131633374627755075
11471102 20 18335138709089907228
12107183 9 17766285271269412945
12236239 1 18343864412146211159
12670546 56 18272367555626338313
13073987 5 18410578379646845769
13167823 11 18272932713287960351
13533116 47 18341890779873526763
13631057 29 18053940942332748015
13675066 3 17822015302571667957
13760787 19 18131351942131218950
13955234 65 18408319974242258682
14252887 29 17894632543596022984
14386348 63 17095526188389119011
14528608 73 18200876283180933860
15142526 21 17912351332719036640
15375358 24 17603866732090186768
17834072 33 18201999958025451381
18186145 218 17458348515801257083
19026448 5 18202563964783401091
200 152 18343579668541217301
20279233 1 17095242535932515617
20645477 70 18260261919603759930
21065198 48 18272653428760102497
21728266 224 17632280290765301127
22224240 67 18338226176891429768
22485316 2 18411135840194147687
22646028 1 18272930514311878591
23048698 100 18343024380229118929
23175994 123 17312829264789303461
23402539 116 17632572739515269533
23402655 69 18343302604131864342
23532345 1 18334860545464481496
23557571 272 15338851850002623289
23559900 14 18260551151739338984
268830 7 18410573942592382921
300161 21 18272366486221614613
33824 294 18260827099098719786
341906 21 16702023028570730713
34797466 226 16271653411060797192
42630746 31 18411980265757360302
474 4 18264489658008797240
5104073 3 18341898472191512163
542803 24 17917996087596802109
573450 72 17846494795256355763
8272917 22 18411704266378843942
9971528 1 18113621170588163660

>  <PUBCHEM_SHAPE_MULTIPOLES>  (1) 
321.92
12.34
1.99
0.92
4.41
0.98
0.03
-1.76
0.55
-3.77
0.2
0.9
-0.03
-1.07

>  <PUBCHEM_SHAPE_SELFOVERLAP>  (1) 
649.439

>  <PUBCHEM_SHAPE_VOLUME>  (1) 
189.2

>  <PUBCHEM_COORDINATE_TYPE>  (1) 
2
5
10

$$$$
