33152
     RDKit          3D

 10 10  0  0  1  0  0  0  0  0999 V2000
   -0.1965    1.3221    0.7606 O   0  0  0  0  0  0  0  0  0  0  0  0
   -1.2975   -0.6619    0.0648 O   0  0  0  0  0  0  0  0  0  0  0  0
    1.6897   -0.5349   -0.3961 C   0  0  0  0  0  0  0  0  0  0  0  0
    0.9552   -0.8188    0.9209 C   0  0  0  0  0  0  0  0  0  0  0  0
    1.7803    0.9780   -0.6173 C   0  0  0  0  0  0  0  0  0  0  0  0
   -0.3804   -0.0771    0.9847 C   0  0  0  0  0  0  0  0  0  0  0  0
    0.4051    1.6206   -0.4984 C   0  0  0  0  0  0  0  0  0  0  0  0
    3.0756   -1.1746   -0.4010 C   0  0  0  0  0  0  0  0  0  0  0  0
   -2.5535    0.0000    0.0934 C   0  0  0  0  0  0  0  0  0  0  0  0
   -3.4781   -0.6534   -0.9115 C   0  0  0  0  0  0  0  0  0  0  0  0
  1  6  1  0
  1  7  1  0
  2  6  1  0
  2  9  1  0
  3  4  1  0
  3  5  1  0
  3  8  1  0
  4  6  1  0
  5  7  1  0
  9 10  1  0
M  END
>  <PUBCHEM_COMPOUND_CID>  (1) 
33152

>  <PUBCHEM_CONFORMER_RMSD>  (1) 
0.6

>  <PUBCHEM_CONFORMER_DIVERSEORDER>  (1) 
1
16
17
14
19
11
9
13
22
6
15
21
20
18
7
10
12
4
5
8
23
24
2
3

>  <PUBCHEM_MMFF94_PARTIAL_CHARGES>  (1) 
5
1 -0.56
2 -0.56
6 0.56
7 0.28
9 0.28

>  <PUBCHEM_EFFECTIVE_ROTOR_COUNT>  (1) 
3.2

>  <PUBCHEM_PHARMACOPHORE_FEATURES>  (1) 
3
1 1 acceptor
1 2 acceptor
6 1 3 4 5 6 7 rings

>  <PUBCHEM_HEAVY_ATOM_COUNT>  (1) 
10

>  <PUBCHEM_ATOM_DEF_STEREO_COUNT>  (1) 
0

>  <PUBCHEM_ATOM_UDEF_STEREO_COUNT>  (1) 
2

>  <PUBCHEM_BOND_DEF_STEREO_COUNT>  (1) 
0

>  <PUBCHEM_BOND_UDEF_STEREO_COUNT>  (1) 
0

>  <PUBCHEM_ISOTOPIC_ATOM_COUNT>  (1) 
0

>  <PUBCHEM_COMPONENT_COUNT>  (1) 
1

>  <PUBCHEM_CACTVS_TAUTO_COUNT>  (1) 
1

>  <PUBCHEM_CONFORMER_ID>  (1) 
0000818000000001

>  <PUBCHEM_MMFF94_ENERGY>  (1) 
14.0921

>  <PUBCHEM_FEATURE_SELFOVERLAP>  (1) 
15.259

>  <PUBCHEM_SHAPE_FINGERPRINT>  (1) 
10857977 72 13901913297289693419
12423570 1 11861202643784964824
12897270 3 17748826319479371063
14128692 85 18343865515267088451
16945 1 17894915109256965664
20653085 51 13768512850264158094
21293036 1 17967821547852037046
21930827 45 15357990017698314161
23552449 11 16056593309165513059
2748010 2 17898874575483422954
58734985 102 18413112779207002764

>  <PUBCHEM_SHAPE_MULTIPOLES>  (1) 
194.06
4.47
1.44
1.02
2.56
0.49
-0.09
-1.81
1.77
-0.62
0.1
0.14
-0.05
-0.21

>  <PUBCHEM_SHAPE_SELFOVERLAP>  (1) 
370.482

>  <PUBCHEM_SHAPE_VOLUME>  (1) 
118.9

>  <PUBCHEM_COORDINATE_TYPE>  (1) 
2
5
10

$$$$
