33157
     RDKit          3D

  6  5  0  0  0  0  0  0  0  0999 V2000
   -1.1169    1.6832   -0.0492 Cl  0  0  0  0  0  0  0  0  0  0  0  0
   -2.3198   -0.9412    0.2654 Cl  0  0  0  0  0  0  0  0  0  0  0  0
    2.4206   -0.0915    0.8585 Cl  0  0  0  0  0  0  0  0  0  0  0  0
    0.2108   -0.6398   -0.6779 C   0  0  0  0  0  0  0  0  0  0  0  0
   -0.7845   -0.0294    0.3133 C   0  0  0  0  0  0  0  0  0  0  0  0
    1.5899    0.0187   -0.7101 C   0  0  0  0  0  0  0  0  0  0  0  0
  1  5  1  0
  2  5  1  0
  3  6  1  0
  4  5  1  0
  4  6  1  0
M  END
>  <PUBCHEM_COMPOUND_CID>  (1) 
33157

>  <PUBCHEM_CONFORMER_RMSD>  (1) 
0.4

>  <PUBCHEM_CONFORMER_DIVERSEORDER>  (1) 
1
6
4
8
5
9
3
7
2

>  <PUBCHEM_MMFF94_PARTIAL_CHARGES>  (1) 
5
1 -0.29
2 -0.29
3 -0.29
5 0.58
6 0.29

>  <PUBCHEM_EFFECTIVE_ROTOR_COUNT>  (1) 
2

>  <PUBCHEM_PHARMACOPHORE_FEATURES>  (1) 
0

>  <PUBCHEM_HEAVY_ATOM_COUNT>  (1) 
6

>  <PUBCHEM_ATOM_DEF_STEREO_COUNT>  (1) 
0

>  <PUBCHEM_ATOM_UDEF_STEREO_COUNT>  (1) 
0

>  <PUBCHEM_BOND_DEF_STEREO_COUNT>  (1) 
0

>  <PUBCHEM_BOND_UDEF_STEREO_COUNT>  (1) 
0

>  <PUBCHEM_ISOTOPIC_ATOM_COUNT>  (1) 
0

>  <PUBCHEM_COMPONENT_COUNT>  (1) 
1

>  <PUBCHEM_CACTVS_TAUTO_COUNT>  (1) 
1

>  <PUBCHEM_CONFORMER_ID>  (1) 
0000818500000001

>  <PUBCHEM_MMFF94_ENERGY>  (1) 
2.5215

>  <PUBCHEM_FEATURE_SELFOVERLAP>  (1) 
0

>  <PUBCHEM_SHAPE_FINGERPRINT>  (1) 
10857977 72 18272089456441044963
12932741 1 17917153775727146596
16714656 1 18272099334739173279
20096714 4 17906745704042932669
20711978 78 16271101305862349271
21040471 1 17977113357309498469
23552333 60 17095807727774514826
23552449 1 18411418380091080869
23552449 11 18122065570371412091
24536 1 18335709282209287588
29004967 10 18341061820941182051
5084963 1 18130521759581698254

>  <PUBCHEM_SHAPE_MULTIPOLES>  (1) 
129.09
3.32
1.35
0.95
0.74
0.64
0
-0.64
0.81
-0.89
-0.01
0.4
-0.07
0.08

>  <PUBCHEM_SHAPE_SELFOVERLAP>  (1) 
200.99

>  <PUBCHEM_SHAPE_VOLUME>  (1) 
91.5

>  <PUBCHEM_COORDINATE_TYPE>  (1) 
2
5
10

$$$$
