33150
     RDKit          3D

 14 13  0  0  1  0  0  0  0  0999 V2000
   -0.8878    1.9135   -0.6606 O   0  0  0  0  0  0  0  0  0  0  0  0
   -2.7040   -0.6070    0.9696 O   0  0  0  0  0  0  0  0  0  0  0  0
    3.3064   -0.4648   -0.7384 O   0  0  0  0  0  0  0  0  0  0  0  0
    1.9894   -0.6211    1.2108 O   0  0  0  0  0  0  0  0  0  0  0  0
   -0.2656    0.7106   -0.2051 C   0  0  0  0  0  0  0  0  0  0  0  0
   -1.0848   -0.4538   -0.7761 C   0  0  0  0  0  0  0  0  0  0  0  0
    1.2012    0.6855   -0.6597 C   0  0  0  0  0  0  0  0  0  0  0  0
   -2.5797   -0.4553   -0.4457 C   0  0  0  0  0  0  0  0  0  0  0  0
    1.9737   -0.5699   -0.2211 C   0  0  0  0  0  0  0  0  0  0  0  0
   -3.3460   -1.5831   -1.1233 C   0  0  0  0  0  0  0  0  0  0  0  0
   -0.2394    3.0594   -0.1329 C   0  0  0  0  0  0  0  0  0  0  0  0
   -4.0622   -0.5529    1.3753 C   0  0  0  0  0  0  0  0  0  0  0  0
    4.1093   -1.5857   -0.3927 C   0  0  0  0  0  0  0  0  0  0  0  0
    2.5894    0.5247    1.7999 C   0  0  0  0  0  0  0  0  0  0  0  0
  1  5  1  0
  1 11  1  0
  2  8  1  0
  2 12  1  0
  3  9  1  0
  3 13  1  0
  4  9  1  0
  4 14  1  0
  5  6  1  0
  5  7  1  0
  6  8  1  0
  7  9  1  0
  8 10  1  0
M  END
>  <PUBCHEM_COMPOUND_CID>  (1) 
33150

>  <PUBCHEM_CONFORMER_RMSD>  (1) 
0.8

>  <PUBCHEM_CONFORMER_DIVERSEORDER>  (1) 
114
165
162
147
99
83
32
69
90
75
145
116
157
36
109
129
49
135
57
107
160
91
138
96
108
161
170
20
70
130
31
33
119
89
77
58
134
73
164
143
136
14
87
150
18
117
5
154
124
72
80
148
142
100
68
168
111
30
81
139
140
141
35
67
122
39
4
156
63
42
118
29
52
64
120
128
24
106
3
65
59
166
74
123
79
137
97
23
95
159
126
21
132
102
44
43
84
54
82
45
94
9
92
167
37
110
78
47
8
40
149
38
76
66
112
62
22
146
28
61
19
98
86
85
41
158
15
11
46
127
27
101
169
93
155
71
1
88
56
151
48
2
6
121
113
10
163
53
12
153
133
13
105
7
17
115
55
34
60
51
16
26
144
104
25
131
152
103
125
50

>  <PUBCHEM_MMFF94_PARTIAL_CHARGES>  (1) 
11
1 -0.56
11 0.28
12 0.28
13 0.28
14 0.28
2 -0.56
3 -0.56
4 -0.56
5 0.28
8 0.28
9 0.56

>  <PUBCHEM_EFFECTIVE_ROTOR_COUNT>  (1) 
8

>  <PUBCHEM_PHARMACOPHORE_FEATURES>  (1) 
4
1 1 acceptor
1 2 acceptor
1 3 acceptor
1 4 acceptor

>  <PUBCHEM_HEAVY_ATOM_COUNT>  (1) 
14

>  <PUBCHEM_ATOM_DEF_STEREO_COUNT>  (1) 
0

>  <PUBCHEM_ATOM_UDEF_STEREO_COUNT>  (1) 
2

>  <PUBCHEM_BOND_DEF_STEREO_COUNT>  (1) 
0

>  <PUBCHEM_BOND_UDEF_STEREO_COUNT>  (1) 
0

>  <PUBCHEM_ISOTOPIC_ATOM_COUNT>  (1) 
0

>  <PUBCHEM_COMPONENT_COUNT>  (1) 
1

>  <PUBCHEM_CACTVS_TAUTO_COUNT>  (1) 
1

>  <PUBCHEM_CONFORMER_ID>  (1) 
0000817E00000072

>  <PUBCHEM_MMFF94_ENERGY>  (1) 
45.7611

>  <PUBCHEM_FEATURE_SELFOVERLAP>  (1) 
20.338

>  <PUBCHEM_SHAPE_FINGERPRINT>  (1) 
11357001 24 18192717743372260253
11543360 7 14345797166540993247
12119455 92 12319179438884475435
12251169 10 17060625477299560087
12553582 1 18334855021757068475
12633257 1 17060347283757102139
12707595 3 18041557039609971811
12932764 1 18201710726559460638
13296908 3 18410564093841788212
13538477 17 17824539669426117532
14252887 29 18338513152855946810
15501101 241 17917989516286198824
19766037 51 18114187440366571114
20281407 28 18342453729536674342
20361792 2 18409163346382903559
20645477 70 18117829122210867079
20671657 53 17022906748320455222
20711985 327 18343020038233551557
20711985 344 18189888721486890429
20871998 184 18269560429246724045
20871998 22 18340759433520741996
21061003 4 18408042931297010279
22169311 14 17203613687574258811
23402539 116 18113903715433782366
23402655 69 13695857095946553398
23598291 2 18270687605317866751
23598294 1 18262515862526777561
3286 77 16988272157662665182
4175511 71 18338807800766723797
449060 23 18335985289898683550
6049 1 17987502754882240632
7615 1 17772476931105504637
81228 2 18190730943257321373

>  <PUBCHEM_SHAPE_MULTIPOLES>  (1) 
264.64
6.89
2.15
1.39
0.26
1.9
-0.64
-4.72
-1.37
-0.03
0.6
0.19
-0.06
0.22

>  <PUBCHEM_SHAPE_SELFOVERLAP>  (1) 
488.089

>  <PUBCHEM_SHAPE_VOLUME>  (1) 
168.2

>  <PUBCHEM_COORDINATE_TYPE>  (1) 
2
5
10

$$$$
