33160
     RDKit          3D

 21 22  0  0  0  0  0  0  0  0999 V2000
    1.8082    1.3323    0.1736 N   0  0  0  0  0  0  0  0  0  0  0  0
    0.9758    2.4381    0.3032 N   0  0  0  0  0  0  0  0  0  0  0  0
    1.0864    4.8310    0.2309 N   0  0  0  0  0  0  0  0  0  0  0  0
    2.9710    3.5796   -0.0964 N   0  0  0  0  0  0  0  0  0  0  0  0
   -1.1817   -0.0826   -0.4367 C   0  0  0  0  0  0  0  0  0  0  0  0
   -2.6283   -0.2639   -0.1919 C   0  0  0  0  0  0  0  0  0  0  0  0
   -0.2649    0.0071    0.5456 C   0  0  0  0  0  0  0  0  0  0  0  0
    1.2028    0.1908    0.3101 C   0  0  0  0  0  0  0  0  0  0  0  0
    2.0071   -1.0711    0.1891 C   0  0  0  0  0  0  0  0  0  0  0  0
   -0.7739   -0.0029   -1.8828 C   0  0  0  0  0  0  0  0  0  0  0  0
   -3.4333    0.8525   -0.0538 C   0  0  0  0  0  0  0  0  0  0  0  0
   -3.1419   -1.5453   -0.1068 C   0  0  0  0  0  0  0  0  0  0  0  0
    1.5828   -2.1809    0.8750 C   0  0  0  0  0  0  0  0  0  0  0  0
    3.1278   -1.0547   -0.6021 C   0  0  0  0  0  0  0  0  0  0  0  0
   -4.7981    0.6816    0.1775 C   0  0  0  0  0  0  0  0  0  0  0  0
   -4.5069   -1.7162    0.1244 C   0  0  0  0  0  0  0  0  0  0  0  0
   -5.3349   -0.6026    0.2665 C   0  0  0  0  0  0  0  0  0  0  0  0
    2.3298   -3.3536    0.7624 C   0  0  0  0  0  0  0  0  0  0  0  0
    3.8748   -2.2274   -0.7148 C   0  0  0  0  0  0  0  0  0  0  0  0
    3.4757   -3.3768   -0.0325 C   0  0  0  0  0  0  0  0  0  0  0  0
    1.6216    3.5650    0.1595 C   0  0  0  0  0  0  0  0  0  0  0  0
  1  2  1  0
  1  8  2  0
  2 21  2  0
  3 21  1  0
  4 21  1  0
  5  6  1  0
  5  7  2  0
  5 10  1  0
  6 11  2  0
  6 12  1  0
  7  8  1  0
  8  9  1  0
  9 13  2  0
  9 14  1  0
 11 15  1  0
 12 16  2  0
 13 18  1  0
 14 19  2  0
 15 17  2  0
 16 17  1  0
 18 20  2  0
 19 20  1  0
M  END
>  <PUBCHEM_COMPOUND_CID>  (1) 
33160

>  <PUBCHEM_CONFORMER_RMSD>  (1) 
0.6

>  <PUBCHEM_CONFORMER_DIVERSEORDER>  (1) 
1
8
3
2
4
6
7
5

>  <PUBCHEM_MMFF94_PARTIAL_CHARGES>  (1) 
36
1 -0.45
10 0.14
11 -0.15
12 -0.15
13 -0.15
14 -0.15
15 -0.15
16 -0.15
17 -0.15
18 -0.15
19 -0.15
2 -0.45
20 -0.15
21 0.55
22 0.15
26 0.15
27 0.15
28 0.15
29 0.15
3 -0.85
30 0.15
31 0.15
32 0.15
33 0.15
34 0.15
35 0.15
36 0.4
37 0.4
38 0.4
39 0.4
4 -0.85
5 -0.17
6 0.03
7 -0.14
8 0.35
9 0.09

>  <PUBCHEM_EFFECTIVE_ROTOR_COUNT>  (1) 
4

>  <PUBCHEM_PHARMACOPHORE_FEATURES>  (1) 
7
1 1 acceptor
1 10 hydrophobe
1 3 donor
1 4 donor
4 2 3 4 21 cation
6 6 11 12 15 16 17 rings
6 9 13 14 18 19 20 rings

>  <PUBCHEM_HEAVY_ATOM_COUNT>  (1) 
21

>  <PUBCHEM_ATOM_DEF_STEREO_COUNT>  (1) 
0

>  <PUBCHEM_ATOM_UDEF_STEREO_COUNT>  (1) 
0

>  <PUBCHEM_BOND_DEF_STEREO_COUNT>  (1) 
0

>  <PUBCHEM_BOND_UDEF_STEREO_COUNT>  (1) 
2

>  <PUBCHEM_ISOTOPIC_ATOM_COUNT>  (1) 
0

>  <PUBCHEM_COMPONENT_COUNT>  (1) 
1

>  <PUBCHEM_CACTVS_TAUTO_COUNT>  (1) 
2

>  <PUBCHEM_CONFORMER_ID>  (1) 
0000818800000001

>  <PUBCHEM_MMFF94_ENERGY>  (1) 
82.2676

>  <PUBCHEM_FEATURE_SELFOVERLAP>  (1) 
35.574

>  <PUBCHEM_SHAPE_FINGERPRINT>  (1) 
11045515 52 18044100059834247388
11578080 2 17822276973486306989
12107183 9 18198351646128628121
12160290 23 17192610634355080944
12553582 1 18267292141006629551
12788726 201 17830459379905854978
13009979 54 17774173296536181329
13052359 8 17257366345813681728
13533116 47 18336830888009138239
13583140 156 18409441514672653087
138480 1 18410855447349086352
13955234 65 18339365291747750771
14251757 5 17830171303501210645
14866123 147 16825302213650302731
15042514 8 17763747585505334016
15230672 131 17830460841250517612
15664445 248 18200048252394198342
15842332 3 17773299326874147359
15906896 17 17188955840540075044
17492 89 18339642343357266507
17804303 29 18335704884769840527
1813 80 18058176033336317014
18785283 64 18262797509629272960
20286276 3 18410579530756486411
20832881 197 18189055292095023187
21033648 29 16557046862903676419
21049683 271 18188504539721907692
21065198 57 18411138048303326915
221490 88 18336272326863564155
2255824 54 18340204188802030994
22950370 63 18267028253989528687
23366157 5 18261671575125113605
23559900 14 18410847768532922267
23566358 27 18268427004736780183
3004659 81 17897731968186343714
3091708 16 9430488700316152088
31174 14 18335693957871652431
314173 41 18339929212037350023
3421961 26 18411979143969211842
4409770 3 17542222355092229085
465052 167 18271529715261386231
474 4 18194678396138180177
6049 1 17968645056592085925
6287921 2 18044099175081319709
6442390 28 17761496193676923833
6443956 14 18409168792517622092
7097593 13 18342168986380027655
7164475 11 17905332819333815910
7364860 26 18411138086187886252
77188 2 18339080367970596004
79837 15 17545876487555397424
81228 2 17619881999770779624
8272917 22 18340209708003688025
9709674 26 18336547222272299603
9841814 1 18261100855634006722
9981440 41 17834107924564239569

>  <PUBCHEM_SHAPE_MULTIPOLES>  (1) 
412.25
8.9
4.93
0.94
9.85
6.66
0.3
-6.13
-0.04
-6.45
-0.85
-0.13
-0.22
0.07

>  <PUBCHEM_SHAPE_SELFOVERLAP>  (1) 
877.158

>  <PUBCHEM_SHAPE_VOLUME>  (1) 
226.4

>  <PUBCHEM_COORDINATE_TYPE>  (1) 
2
5
10

$$$$
