33179
     RDKit          3D

 21 22  0  0  0  0  0  0  0  0999 V2000
    3.3811   -0.4438   -0.8112 O   0  0  0  0  0  0  0  0  0  0  0  0
   -0.3930   -3.1176    0.3316 O   0  0  0  0  0  0  0  0  0  0  0  0
   -2.3903   -1.7515    1.4411 O   0  0  0  0  0  0  0  0  0  0  0  0
   -3.5203   -0.9824   -1.6417 O   0  0  0  0  0  0  0  0  0  0  0  0
    5.5654    0.3468   -0.2308 C   0  0  0  0  0  0  0  0  0  0  0  0
    6.3914    1.5371    0.2484 C   0  0  0  0  0  0  0  0  0  0  0  0
    4.0939    0.7068   -0.3786 C   0  0  0  0  0  0  0  0  0  0  0  0
    2.0677   -0.5373   -0.4299 C   0  0  0  0  0  0  0  0  0  0  0  0
   -0.5949   -0.7271    0.3468 C   0  0  0  0  0  0  0  0  0  0  0  0
    7.8527    1.1619    0.4362 C   0  0  0  0  0  0  0  0  0  0  0  0
    0.1586   -1.8845    0.1506 C   0  0  0  0  0  0  0  0  0  0  0  0
    1.4946   -1.7893   -0.2390 C   0  0  0  0  0  0  0  0  0  0  0  0
    1.3234    0.6207   -0.2364 C   0  0  0  0  0  0  0  0  0  0  0  0
   -0.0125    0.5255    0.1531 C   0  0  0  0  0  0  0  0  0  0  0  0
   -1.9923   -0.8038    0.7493 C   0  0  0  0  0  0  0  0  0  0  0  0
   -2.9943    0.2319    0.3583 C   0  0  0  0  0  0  0  0  0  0  0  0
   -3.7012    0.0847   -0.8135 C   0  0  0  0  0  0  0  0  0  0  0  0
   -3.1685    1.3071    1.2013 C   0  0  0  0  0  0  0  0  0  0  0  0
   -4.6319    1.0640   -1.1612 C   0  0  0  0  0  0  0  0  0  0  0  0
   -4.0991    2.2862    0.8534 C   0  0  0  0  0  0  0  0  0  0  0  0
   -4.8306    2.1648   -0.3279 C   0  0  0  0  0  0  0  0  0  0  0  0
  1  7  1  0
  1  8  1  0
  2 11  1  0
  3 15  2  0
  4 17  1  0
  5  6  1  0
  5  7  1  0
  6 10  1  0
  8 12  2  0
  8 13  1  0
  9 11  2  0
  9 14  1  0
  9 15  1  0
 11 12  1  0
 13 14  2  0
 15 16  1  0
 16 17  2  0
 16 18  1  0
 17 19  1  0
 18 20  2  0
 19 21  2  0
 20 21  1  0
M  END
>  <PUBCHEM_COMPOUND_CID>  (1) 
33179

>  <PUBCHEM_CONFORMER_RMSD>  (1) 
0.8

>  <PUBCHEM_CONFORMER_DIVERSEORDER>  (1) 
1
52
150
11
98
86
105
71
155
64
160
172
97
83
170
151
118
138
106
59
78
45
174
79
159
90
57
148
27
116
18
130
115
55
40
28
95
101
20
144
125
92
36
113
77
176
82
17
91
169
104
21
50
48
31
161
67
51
146
87
93
149
167
35
89
123
58
39
46
175
153
72
109
25
110
173
73
99
136
122
49
63
33
117
24
94
162
152
56
164
145
66
171
41
34
47
165
133
126
6
88
80
147
5
42
85
166
127
143
23
10
32
163
140
100
154
19
84
108
7
69
137
65
121
54
43
53
38
102
4
157
74
9
168
96
129
112
141
15
68
12
142
37
61
139
128
2
26
75
3
70
29
16
158
44
76
111
103
114
107
119
13
8
135
30
62
156
132
134
14
22
120
131
60
81
124

>  <PUBCHEM_MMFF94_PARTIAL_CHARGES>  (1) 
27
1 -0.36
11 0.08
12 -0.15
13 -0.15
14 -0.15
15 0.4
16 0.09
17 0.08
18 -0.15
19 -0.15
2 -0.53
20 -0.15
21 -0.15
3 -0.57
31 0.15
32 0.15
33 0.15
34 0.15
35 0.15
36 0.15
37 0.15
38 0.45
39 0.45
4 -0.53
7 0.28
8 0.08
9 0.09

>  <PUBCHEM_EFFECTIVE_ROTOR_COUNT>  (1) 
6

>  <PUBCHEM_PHARMACOPHORE_FEATURES>  (1) 
7
1 1 acceptor
1 10 hydrophobe
1 2 donor
1 3 acceptor
1 4 donor
6 16 17 18 19 20 21 rings
6 8 9 11 12 13 14 rings

>  <PUBCHEM_HEAVY_ATOM_COUNT>  (1) 
21

>  <PUBCHEM_ATOM_DEF_STEREO_COUNT>  (1) 
0

>  <PUBCHEM_ATOM_UDEF_STEREO_COUNT>  (1) 
0

>  <PUBCHEM_BOND_DEF_STEREO_COUNT>  (1) 
0

>  <PUBCHEM_BOND_UDEF_STEREO_COUNT>  (1) 
0

>  <PUBCHEM_ISOTOPIC_ATOM_COUNT>  (1) 
0

>  <PUBCHEM_COMPONENT_COUNT>  (1) 
1

>  <PUBCHEM_CACTVS_TAUTO_COUNT>  (1) 
24

>  <PUBCHEM_CONFORMER_ID>  (1) 
0000819B00000001

>  <PUBCHEM_MMFF94_ENERGY>  (1) 
67.5544

>  <PUBCHEM_FEATURE_SELFOVERLAP>  (1) 
35.52

>  <PUBCHEM_SHAPE_FINGERPRINT>  (1) 
10 15 17749685063720081512
10291535 26 18341619213233497977
10411042 1 17690563404303661811
11089746 13 18342452678029419816
117890 112 18410293610493769132
12293681 160 18060419075505788945
12403259 118 17749683972813816260
12596602 18 13262688045055096060
13103583 49 11746935352322991277
13288520 33 9799691497819665841
13583140 156 16081366379644013085
13631057 29 17631442522696887519
13675066 3 15140682457848313730
13740256 8 9223228551093805228
14251764 30 8214144058279489396
15461852 350 17775004661330732524
17780758 139 12107781908599983301
18608769 82 18339646737192712955
19489759 90 18273495697748709096
19784866 240 9871455522601189273
19784866 34 18335986359329598883
20554085 129 18200011989868923002
21033648 29 16733544897457758215
21150785 3 14117795843590606560
21279426 13 18341342098160081022
22182313 1 18194149406354342934
22950370 63 8934997083999281766
23402539 116 18341891900902137196
23402655 69 18202283554752890653
23559900 14 18265920007310727606
25 1 18189621536462297011
270888 7 18338237038289162833
2767999 5 18410009940641207188
2838139 119 18341891922551280524
312425 83 16843057303250624461
350125 39 18190757499403414443
474 4 18334580101369612165
4938544 92 11675142753356773551
5104073 3 18114753637299607266
53917941 68 18412259540893417399
543368 44 18201438043745094001
6328613 192 18262242244090301844
636775 8 9295293881059612232
7226269 152 18411420614001764632
9981440 41 18333737905174313515

>  <PUBCHEM_SHAPE_MULTIPOLES>  (1) 
408.69
14.62
2.4
1.09
27.62
0.83
0.04
-11.96
0.63
-1.4
-0.46
-1.21
0.04
0.23

>  <PUBCHEM_SHAPE_SELFOVERLAP>  (1) 
870.09

>  <PUBCHEM_SHAPE_VOLUME>  (1) 
227.4

>  <PUBCHEM_COORDINATE_TYPE>  (1) 
2
5
10

$$$$
