33178
     RDKit          3D

 39 44  0  0  1  0  0  0  0  0999 V2000
   -3.9423   -0.6215   -1.5304 O   0  0  0  0  0  0  0  0  0  0  0  0
   -3.7890    2.1656    2.4539 O   0  0  0  0  0  0  0  0  0  0  0  0
    3.8163    0.8787    0.1418 O   0  0  0  0  0  0  0  0  0  0  0  0
   -8.4085   -0.5221   -0.1230 O   0  0  0  0  0  0  0  0  0  0  0  0
    5.2819   -0.5953    1.1977 O   0  0  0  0  0  0  0  0  0  0  0  0
   -8.3338   -2.1810   -1.7163 O   0  0  0  0  0  0  0  0  0  0  0  0
    5.6962    1.1998   -1.9668 O   0  0  0  0  0  0  0  0  0  0  0  0
    8.4268    0.8470   -1.0505 O   0  0  0  0  0  0  0  0  0  0  0  0
    8.7503   -1.5875    0.4629 O   0  0  0  0  0  0  0  0  0  0  0  0
    4.9569   -3.3500    0.9969 O   0  0  0  0  0  0  0  0  0  0  0  0
   -3.1277   -0.2661   -0.4021 C   0  0  0  0  0  0  0  0  0  0  0  0
   -1.8408    0.4235   -0.9399 C   0  0  0  0  0  0  0  0  0  0  0  0
   -0.9704    1.0673    0.1791 C   0  0  0  0  0  0  0  0  0  0  0  0
   -3.9648    0.6332    0.5535 C   0  0  0  0  0  0  0  0  0  0  0  0
    0.3267    1.7676   -0.3863 C   0  0  0  0  0  0  0  0  0  0  0  0
    1.1323    0.7525   -1.2605 C   0  0  0  0  0  0  0  0  0  0  0  0
   -3.0424    1.2548    1.6453 C   0  0  0  0  0  0  0  0  0  0  0  0
   -1.8340    1.9880    1.0599 C   0  0  0  0  0  0  0  0  0  0  0  0
   -4.9339   -0.3929    1.2306 C   0  0  0  0  0  0  0  0  0  0  0  0
   -1.0058   -0.5285   -1.8195 C   0  0  0  0  0  0  0  0  0  0  0  0
   -2.8914   -1.5443    0.4244 C   0  0  0  0  0  0  0  0  0  0  0  0
    0.2626    0.1246   -2.3586 C   0  0  0  0  0  0  0  0  0  0  0  0
   -4.0938   -1.6773    1.3701 C   0  0  0  0  0  0  0  0  0  0  0  0
    1.2636    2.2888    0.7437 C   0  0  0  0  0  0  0  0  0  0  0  0
    1.8142   -0.3533   -0.4194 C   0  0  0  0  0  0  0  0  0  0  0  0
   -4.7315    1.7500   -0.1920 C   0  0  0  0  0  0  0  0  0  0  0  0
   -0.0371    3.0083   -1.2440 C   0  0  0  0  0  0  0  0  0  0  0  0
    1.9152    1.1852    1.5753 C   0  0  0  0  0  0  0  0  0  0  0  0
    2.6888    0.2066    0.6996 C   0  0  0  0  0  0  0  0  0  0  0  0
   -6.2100   -0.6853    0.4939 C   0  0  0  0  0  0  0  0  0  0  0  0
   -7.4565    0.0548    0.7769 C   0  0  0  0  0  0  0  0  0  0  0  0
   -6.3960   -1.5942   -0.4594 C   0  0  0  0  0  0  0  0  0  0  0  0
    4.9123   -0.0173   -0.0526 C   0  0  0  0  0  0  0  0  0  0  0  0
   -7.8005   -1.4969   -0.8598 C   0  0  0  0  0  0  0  0  0  0  0  0
    6.0662    0.7866   -0.6511 C   0  0  0  0  0  0  0  0  0  0  0  0
    7.3505   -0.0358   -0.7265 C   0  0  0  0  0  0  0  0  0  0  0  0
    6.4163   -1.4644    1.1442 C   0  0  0  0  0  0  0  0  0  0  0  0
    7.6396   -0.7099    0.6125 C   0  0  0  0  0  0  0  0  0  0  0  0
    6.0933   -2.7591    0.3964 C   0  0  0  0  0  0  0  0  0  0  0  0
  1 11  1  0
  2 17  1  0
  3 29  1  0
  3 33  1  0
  4 31  1  0
  4 34  1  0
  5 33  1  0
  5 37  1  0
  6 34  2  0
  7 35  1  0
  8 36  1  0
  9 38  1  0
 10 39  1  0
 11 12  1  0
 11 14  1  0
 11 21  1  0
 12 13  1  0
 12 20  1  0
 13 15  1  0
 13 18  1  0
 14 17  1  0
 14 19  1  0
 14 26  1  0
 15 16  1  0
 15 24  1  0
 15 27  1  0
 16 22  1  0
 16 25  1  0
 17 18  1  0
 19 23  1  0
 19 30  1  0
 20 22  1  0
 21 23  1  0
 24 28  1  0
 25 29  1  0
 28 29  1  0
 30 31  1  0
 30 32  2  0
 32 34  1  0
 33 35  1  0
 35 36  1  0
 36 38  1  0
 37 38  1  0
 37 39  1  0
M  END
>  <PUBCHEM_COMPOUND_CID>  (1) 
33178

>  <PUBCHEM_CONFORMER_RMSD>  (1) 
1

>  <PUBCHEM_CONFORMER_DIVERSEORDER>  (1) 
1
268
147
24
207
102
263
197
29
89
177
158
103
202
68
61
186
253
104
266
194
244
120
14
246
144
165
17
258
187
126
156
236
105
154
155
47
6
159
108
185
205
191
15
109
262
250
85
261
227
32
252
21
183
171
233
125
118
188
167
260
8
238
254
4
136
217
214
64
245
129
265
22
224
264
139
256
106
26
39
168
169
100
92
241
170
204
267
180
83
72
175
128
98
44
137
28
134
131
99
198
151
182
143
255
172
45
90
127
162
76
94
5
176
82
206
56
219
163
135
124
97
257
81
7
36
111
242
3
71
69
173
34
193
243
216
49
218
229
70
211
228
225
122
157
203
166
248
220
37
42
235
160
240
25
230
54
249
87
20
209
121
199
33
210
123
19
57
190
114
130
239
149
195
62
96
259
60
67
152
174
150
16
66
178
153
148
12
110
58
91
86
200
212
138
73
141
221
52
145
231
208
18
84
251
10
74
117
189
53
23
80
119
43
2
201
232
222
164
113
142
35
9
65
237
101
146
115
179
107
215
63
38
27
161
140
93
247
112
192
55
31
51
116
78
48
13
181
196
75
223
11
79
88
95
59
133
213
30
50
77
132
226
41
40
184
46
234

>  <PUBCHEM_MMFF94_PARTIAL_CHARGES>  (1) 
31
1 -0.68
10 -0.68
11 0.28
17 0.28
19 0.14
2 -0.68
29 0.28
3 -0.56
30 -0.28
31 0.42
32 -0.14
33 0.56
34 0.71
35 0.28
36 0.28
37 0.28
38 0.28
39 0.28
4 -0.43
5 -0.56
6 -0.57
68 0.4
69 0.4
7 -0.68
72 0.15
78 0.4
8 -0.68
81 0.4
82 0.4
83 0.4
9 -0.68

>  <PUBCHEM_EFFECTIVE_ROTOR_COUNT>  (1) 
7.8

>  <PUBCHEM_PHARMACOPHORE_FEATURES>  (1) 
21
1 1 acceptor
1 1 donor
1 10 acceptor
1 10 donor
1 2 acceptor
1 2 donor
1 3 acceptor
1 5 acceptor
1 6 acceptor
1 7 acceptor
1 7 donor
1 8 acceptor
1 8 donor
1 9 acceptor
1 9 donor
5 11 14 19 21 23 rings
5 4 30 31 32 34 rings
6 11 12 13 14 17 18 rings
6 12 13 15 16 20 22 rings
6 15 16 24 25 28 29 rings
6 5 33 35 36 37 38 rings

>  <PUBCHEM_HEAVY_ATOM_COUNT>  (1) 
39

>  <PUBCHEM_ATOM_DEF_STEREO_COUNT>  (1) 
9

>  <PUBCHEM_ATOM_UDEF_STEREO_COUNT>  (1) 
5

>  <PUBCHEM_BOND_DEF_STEREO_COUNT>  (1) 
0

>  <PUBCHEM_BOND_UDEF_STEREO_COUNT>  (1) 
0

>  <PUBCHEM_ISOTOPIC_ATOM_COUNT>  (1) 
0

>  <PUBCHEM_COMPONENT_COUNT>  (1) 
1

>  <PUBCHEM_CACTVS_TAUTO_COUNT>  (1) 
1

>  <PUBCHEM_CONFORMER_ID>  (1) 
0000819A00000001

>  <PUBCHEM_MMFF94_ENERGY>  (1) 
135.9117

>  <PUBCHEM_FEATURE_SELFOVERLAP>  (1) 
106.879

>  <PUBCHEM_SHAPE_FINGERPRINT>  (1) 
10 15 17060616720367399248
10076449 9 16950280720241301431
10299344 5 18408605864038926778
10391435 84 17023187192389236544
10533779 47 15697456502229031015
11135609 187 13118266072182103737
11135609 99 18200311160280152655
11135926 11 14418133980961806144
11315181 36 16950568800688081781
11456790 92 15339120169267958707
117089 54 18194405490355084618
12107698 1 18202002148901981825
12166972 35 18340204193756888017
12838863 1 17988356070732513015
13383668 362 16915360328936216522
13540713 5 13769583701633632076
13560911 43 17418094342841312913
13726171 33 8141271743590631351
13811026 1 18113617867642326502
14068700 675 18273215326642254657
14251764 18 18342177773587716070
14856354 85 18410583906700153934
150020 25 15502377829187091770
15150948 74 18408317800925860194
15183329 4 18260832596688455698
15198563 99 16370999659770986948
15301273 46 16845578603835319956
15352257 5 18259985968355905890
15392192 104 16200149962799372540
15799311 1 18261971673760748842
16728300 4 18129372696805926351
16728433 281 14780641835722629367
16992727 255 11602824596484683410
18393751 57 12679462001784629581
18603816 31 18272362127384210911
19302320 297 10447927299848915154
20105231 36 17846503596377971566
20157964 124 10303821986361347108
21033648 29 16415207719436330185
21304304 249 18201719595883113975
21987483 16 17343205627228113443
23522609 53 18122376577882016536
23559900 14 18042125534994199265
23576562 1 14924517484771479815
249057 3 13190344582209590487
2838139 119 11239997828614659258
3383291 50 17489587883167145039
34797466 226 16588025736318188676
3633792 109 17821726126871485405
439807 62 18187364325031978026
45266715 3 16805603634242265938
474113 269 18341885278294831391
5219985 9 18410012147637439645
6081469 158 18187642505404743237
9896288 288 17702675328131423249
9962374 69 17703219728300388684

>  <PUBCHEM_SHAPE_MULTIPOLES>  (1) 
743.91
24.88
2.56
1.78
13.05
0.31
0.23
15.31
0.81
0.79
-0.38
-0.73
-0.32
-2.83

>  <PUBCHEM_SHAPE_SELFOVERLAP>  (1) 
1600.233

>  <PUBCHEM_SHAPE_VOLUME>  (1) 
406

>  <PUBCHEM_COORDINATE_TYPE>  (1) 
2
5
10

$$$$
