33182
     RDKit          3D

 23 25  0  0  0  0  0  0  0  0999 V2000
    2.5138   -2.9483   -1.2208 N   0  0  0  0  0  0  0  0  0  0  0  0
    4.1577    3.7624   -0.8130 N   0  0  0  0  0  0  0  0  0  0  0  0
   -4.7858    3.1983   -0.9532 N   0  0  0  0  0  0  0  0  0  0  0  0
    1.2146   -1.8146    0.5066 C   0  0  0  0  0  0  0  0  0  0  0  0
   -1.1758   -1.9621    0.4732 C   0  0  0  0  0  0  0  0  0  0  0  0
    2.4596   -1.3011    1.1541 C   0  0  0  0  0  0  0  0  0  0  0  0
   -2.5176   -1.6083    1.0825 C   0  0  0  0  0  0  0  0  0  0  0  0
   -0.0202   -1.4888    1.0676 C   0  0  0  0  0  0  0  0  0  0  0  0
    1.2725   -2.6080   -0.6393 C   0  0  0  0  0  0  0  0  0  0  0  0
    2.9108    0.0462    0.6302 C   0  0  0  0  0  0  0  0  0  0  0  0
   -3.1113   -0.3488    0.5486 C   0  0  0  0  0  0  0  0  0  0  0  0
   -1.1393   -2.7498   -0.6628 C   0  0  0  0  0  0  0  0  0  0  0  0
    0.0955   -3.0756   -1.2239 C   0  0  0  0  0  0  0  0  0  0  0  0
    2.4456    1.1973    1.2406 C   0  0  0  0  0  0  0  0  0  0  0  0
    3.7787    0.0950   -0.4461 C   0  0  0  0  0  0  0  0  0  0  0  0
   -3.9481   -0.3902   -0.5664 C   0  0  0  0  0  0  0  0  0  0  0  0
   -2.8305    0.8706    1.1650 C   0  0  0  0  0  0  0  0  0  0  0  0
    2.8620    2.4382    0.7586 C   0  0  0  0  0  0  0  0  0  0  0  0
    4.1952    1.3360   -0.9281 C   0  0  0  0  0  0  0  0  0  0  0  0
   -4.5042    0.7878   -1.0652 C   0  0  0  0  0  0  0  0  0  0  0  0
   -3.3866    2.0487    0.6664 C   0  0  0  0  0  0  0  0  0  0  0  0
    3.7369    2.5077   -0.3257 C   0  0  0  0  0  0  0  0  0  0  0  0
   -4.2236    2.0073   -0.4488 C   0  0  0  0  0  0  0  0  0  0  0  0
  1  9  1  0
  2 22  1  0
  3 23  1  0
  4  6  1  0
  4  8  2  0
  4  9  1  0
  5  7  1  0
  5  8  1  0
  5 12  2  0
  6 10  1  0
  7 11  1  0
  9 13  2  0
 10 14  2  0
 10 15  1  0
 11 16  2  0
 11 17  1  0
 12 13  1  0
 14 18  1  0
 15 19  2  0
 16 20  1  0
 17 21  2  0
 18 22  2  0
 19 22  1  0
 20 23  2  0
 21 23  1  0
M  END
>  <PUBCHEM_COMPOUND_CID>  (1) 
33182

>  <PUBCHEM_CONFORMER_RMSD>  (1) 
0.6

>  <PUBCHEM_CONFORMER_DIVERSEORDER>  (1) 
3
57
90
73
23
66
55
85
72
18
24
60
86
71
53
83
21
84
30
75
33
34
80
32
15
65
81
2
4
63
49
44
47
78
22
54
42
88
10
89
31
40
48
11
62
58
79
61
12
59
7
46
43
50
45
64
29
17
87
27
20
36
52
28
82
76
70
51
69
77
56
74
39
37
14
38
13
9
67
25
68
8
26
16
19
35
5
6
41
1

>  <PUBCHEM_MMFF94_PARTIAL_CHARGES>  (1) 
40
1 -0.9
10 -0.14
11 -0.14
12 -0.15
13 -0.15
14 -0.15
15 -0.15
16 -0.15
17 -0.15
18 -0.15
19 -0.15
2 -0.9
20 -0.15
21 -0.15
22 0.1
23 0.1
28 0.15
29 0.15
3 -0.9
30 0.15
31 0.15
32 0.15
33 0.15
34 0.15
35 0.4
36 0.4
37 0.15
38 0.15
39 0.15
4 -0.14
40 0.15
41 0.4
42 0.4
43 0.4
44 0.4
5 -0.14
6 0.29
7 0.29
8 -0.15
9 0.1

>  <PUBCHEM_EFFECTIVE_ROTOR_COUNT>  (1) 
4

>  <PUBCHEM_PHARMACOPHORE_FEATURES>  (1) 
9
1 1 cation
1 1 donor
1 2 cation
1 2 donor
1 3 cation
1 3 donor
6 10 14 15 18 19 22 rings
6 11 16 17 20 21 23 rings
6 4 5 8 9 12 13 rings

>  <PUBCHEM_HEAVY_ATOM_COUNT>  (1) 
23

>  <PUBCHEM_ATOM_DEF_STEREO_COUNT>  (1) 
0

>  <PUBCHEM_ATOM_UDEF_STEREO_COUNT>  (1) 
0

>  <PUBCHEM_BOND_DEF_STEREO_COUNT>  (1) 
0

>  <PUBCHEM_BOND_UDEF_STEREO_COUNT>  (1) 
0

>  <PUBCHEM_ISOTOPIC_ATOM_COUNT>  (1) 
0

>  <PUBCHEM_COMPONENT_COUNT>  (1) 
1

>  <PUBCHEM_CACTVS_TAUTO_COUNT>  (1) 
1

>  <PUBCHEM_CONFORMER_ID>  (1) 
0000819E00000003

>  <PUBCHEM_MMFF94_ENERGY>  (1) 
95.9361

>  <PUBCHEM_FEATURE_SELFOVERLAP>  (1) 
45.672

>  <PUBCHEM_SHAPE_FINGERPRINT>  (1) 
10498660 4 18268708500982170144
10670039 82 18122069964313210908
10871710 139 17906453577615912719
10928967 22 9150878529665363441
11059048 146 18270698471100757945
11221954 11 18408609149525573235
12100795 323 18260822700583094005
12160290 23 17343492603325272266
12173636 292 18054785354414732422
12422481 6 18261095371667592888
12633257 1 17969209054042676184
12788726 201 17831284369930046714
12824470 246 10375605810092805010
13583140 156 17968942981246723779
13899415 180 17334203538357084287
14251764 38 18335978688686663869
14251764 75 18337963375689444561
14468879 13 18334296500294276835
14508225 48 17480883930448051662
14848178 96 18337106774552856301
14957384 54 18335132111835628314
15210252 30 17617953430220533440
15575132 122 18191590963408279949
15848702 68 18043520625669782490
16988056 13 17907291048951879340
17134986 127 18341896307501782746
17974551 9 15072801779651151301
20567600 299 18128527180832723625
20764821 26 17398669000046305877
21095088 737 18197488735168695141
21475661 188 18261669260264296143
21641784 216 17839727498661516975
21860390 5 18126561211102837982
21864079 5 18116992393740478664
22749437 52 18410289211888076097
22907989 373 18128250289018530175
23559900 14 17984972705496479891
238 59 18201439146939382858
26353 1 16550901580346109942
2838139 119 18408036325352478990
345986 75 16523548999691644754
474 4 18267298742903580835
5048184 11 18337670922538571520
5081480 168 17698192593265012662
53794403 172 18264493893026224197
54672768 99 18410294675107737748
56633871 153 8934738720426889421
59444896 2 12670650451202160442
7808743 9 18121502629082090192

>  <PUBCHEM_SHAPE_MULTIPOLES>  (1) 
458.39
9.8
4.55
1.33
3.25
0.68
-0.04
10.33
2.34
-1.43
1.52
-0.01
-0.16
0.41

>  <PUBCHEM_SHAPE_SELFOVERLAP>  (1) 
999.341

>  <PUBCHEM_SHAPE_VOLUME>  (1) 
249.3

>  <PUBCHEM_COORDINATE_TYPE>  (1) 
2
5
10

$$$$
