33199
     RDKit          3D

 18 21  0  0  0  0  0  0  0  0999 V2000
    1.4475    0.0000    0.0004 C   0  0  0  0  0  0  0  0  0  0  0  0
   -0.7376    0.7127    0.0008 C   0  0  0  0  0  0  0  0  0  0  0  0
   -0.7377   -0.7121    0.0006 C   0  0  0  0  0  0  0  0  0  0  0  0
    0.6550    1.1393    0.0006 C   0  0  0  0  0  0  0  0  0  0  0  0
    0.6545   -1.1392    0.0006 C   0  0  0  0  0  0  0  0  0  0  0  0
    2.8407   -0.0003   -0.0003 C   0  0  0  0  0  0  0  0  0  0  0  0
   -1.9199    1.4278    0.0006 C   0  0  0  0  0  0  0  0  0  0  0  0
   -1.9201   -1.4271    0.0004 C   0  0  0  0  0  0  0  0  0  0  0  0
   -3.1162    0.7046    0.0001 C   0  0  0  0  0  0  0  0  0  0  0  0
   -3.1163   -0.7040    0.0000 C   0  0  0  0  0  0  0  0  0  0  0  0
    1.2617    2.3814   -0.0002 C   0  0  0  0  0  0  0  0  0  0  0  0
    1.2608   -2.3814    0.0006 C   0  0  0  0  0  0  0  0  0  0  0  0
    3.4547    1.2675   -0.0008 C   0  0  0  0  0  0  0  0  0  0  0  0
    3.4540   -1.2682   -0.0006 C   0  0  0  0  0  0  0  0  0  0  0  0
    2.6669    2.4391   -0.0008 C   0  0  0  0  0  0  0  0  0  0  0  0
    2.6658   -2.4394    0.0000 C   0  0  0  0  0  0  0  0  0  0  0  0
   -4.4072    1.4596    0.0002 C   0  0  0  0  0  0  0  0  0  0  0  0
   -4.4067   -1.4600   -0.0023 C   0  0  0  0  0  0  0  0  0  0  0  0
  1  4  2  0
  1  5  1  0
  1  6  1  0
  2  3  1  0
  2  4  1  0
  2  7  2  0
  3  5  1  0
  3  8  2  0
  4 11  1  0
  5 12  2  0
  6 13  2  0
  6 14  1  0
  7  9  1  0
  8 10  1  0
  9 10  2  0
  9 17  1  0
 10 18  1  0
 11 15  2  0
 12 16  1  0
 13 15  1  0
 14 16  2  0
M  END
>  <PUBCHEM_COMPOUND_CID>  (1) 
33199

>  <PUBCHEM_CONFORMER_RMSD>  (1) 
0.4

>  <PUBCHEM_CONFORMER_DIVERSEORDER>  (1) 
1

>  <PUBCHEM_MMFF94_PARTIAL_CHARGES>  (1) 
20
10 -0.14
11 -0.15
12 -0.15
13 -0.15
14 -0.15
15 -0.15
16 -0.15
17 0.14
18 0.14
19 0.15
20 0.15
21 0.15
22 0.15
23 0.15
24 0.15
25 0.15
26 0.15
7 -0.15
8 -0.15
9 -0.14

>  <PUBCHEM_EFFECTIVE_ROTOR_COUNT>  (1) 
0

>  <PUBCHEM_PHARMACOPHORE_FEATURES>  (1) 
4
5 1 2 3 4 5 rings
6 1 4 6 11 13 15 rings
6 1 5 6 12 14 16 rings
6 2 3 7 8 9 10 rings

>  <PUBCHEM_HEAVY_ATOM_COUNT>  (1) 
18

>  <PUBCHEM_ATOM_DEF_STEREO_COUNT>  (1) 
0

>  <PUBCHEM_ATOM_UDEF_STEREO_COUNT>  (1) 
0

>  <PUBCHEM_BOND_DEF_STEREO_COUNT>  (1) 
0

>  <PUBCHEM_BOND_UDEF_STEREO_COUNT>  (1) 
0

>  <PUBCHEM_ISOTOPIC_ATOM_COUNT>  (1) 
0

>  <PUBCHEM_COMPONENT_COUNT>  (1) 
1

>  <PUBCHEM_CACTVS_TAUTO_COUNT>  (1) 
1

>  <PUBCHEM_CONFORMER_ID>  (1) 
000081AF00000001

>  <PUBCHEM_MMFF94_ENERGY>  (1) 
76.8625

>  <PUBCHEM_FEATURE_SELFOVERLAP>  (1) 
20.603

>  <PUBCHEM_SHAPE_FINGERPRINT>  (1) 
10411042 1 17762338011456944766
10608611 8 18408601461592115781
10616163 171 18267588081754751583
10967382 1 18338799042948202726
10980938 120 18410857685163859778
1100329 8 16246869993889750497
11471102 20 18410570656573006349
11578080 2 17169250573388117902
116883 192 17982173318610626060
12553582 1 17977663108834044586
13140716 1 18410851023743450032
13380535 76 18263360459350475306
138480 1 18338516322984844674
14178342 30 18268135488157751424
14223421 5 18336267933116911603
14790565 3 18192439790807517268
14866123 147 16756631110845874035
15042514 8 17256804495609505554
15196674 1 18410575089058266503
15219456 202 18408886243709267193
15375462 6 18337391638195083325
15442244 35 18268149760117895185
15475509 8 17196319338393722125
15536298 74 18342176665338213760
16945 1 18410575084805497216
17492 89 18411981364784548871
18186145 218 18342182150080276005
19591789 44 18195250146516260694
200 152 18130498713304055303
20559304 39 18411418427593794208
20645477 70 18341610404287072839
20691752 17 17603302644118021075
21267235 1 18411708672609386855
21501502 16 18411138039212141377
221490 88 18408892836226006587
2255824 54 18336269024154551916
22854114 111 18410294739273362108
2334 1 18410855499162669092
23366157 5 18113337513941957606
23463225 33 18410292476041894430
23559900 14 18341044121333378618
25 1 18335701667395886316
2748010 2 18410012165217605404
2871803 45 18336540620806948959
335352 9 18266740186174065949
33824 294 18337670944107970346
34934 24 18338790105253394922
350125 39 18410578400531104553
352729 6 17760370293822510368
474 4 18041562562758761452
5104073 3 18410293610066157865
543358 83 18339928104019728921
7364860 26 18412825789576588800
7832392 63 18268147565521566609
81228 2 17621890781544306738
8272917 22 18412550915885614399
84936 182 18129942407122365440
8809292 202 18261117335444723995
9709674 26 18409452500793365875
9981440 41 17977378661993102032

>  <PUBCHEM_SHAPE_MULTIPOLES>  (1) 
370.43
7.23
2.81
0.62
5.32
0
0
0
0
-1.58
0
0
0
0

>  <PUBCHEM_SHAPE_SELFOVERLAP>  (1) 
855.368

>  <PUBCHEM_SHAPE_VOLUME>  (1) 
181.5

>  <PUBCHEM_COORDINATE_TYPE>  (1) 
2
5
10

$$$$
