33200
     RDKit          3D

 17 17  0  0  0  0  0  0  0  0999 V2000
    0.9206    1.7397    0.1077 O   0  0  0  0  0  0  0  0  0  0  0  0
    2.5881   -0.5383   -0.1137 N   0  0  0  0  0  0  0  0  0  0  0  0
   -3.6582   -2.6469    0.0229 N   0  0  0  0  0  0  0  0  0  0  0  0
    3.1241    0.8201   -0.0349 C   0  0  0  0  0  0  0  0  0  0  0  0
    3.5206   -1.4912    0.4873 C   0  0  0  0  0  0  0  0  0  0  0  0
    2.3135   -0.8996   -1.5039 C   0  0  0  0  0  0  0  0  0  0  0  0
    2.1395    1.8204   -0.6194 C   0  0  0  0  0  0  0  0  0  0  0  0
   -0.0459    2.6539   -0.3915 C   0  0  0  0  0  0  0  0  0  0  0  0
   -1.3342    2.5339    0.4151 C   0  0  0  0  0  0  0  0  0  0  0  0
    3.8178   -1.1311    1.9331 C   0  0  0  0  0  0  0  0  0  0  0  0
    1.6987   -2.2856   -1.5998 C   0  0  0  0  0  0  0  0  0  0  0  0
   -1.9505    1.1599    0.3112 C   0  0  0  0  0  0  0  0  0  0  0  0
   -2.8640    0.9001   -0.6980 C   0  0  0  0  0  0  0  0  0  0  0  0
   -1.5919    0.1833    1.2269 C   0  0  0  0  0  0  0  0  0  0  0  0
   -3.4339   -0.3696   -0.7939 C   0  0  0  0  0  0  0  0  0  0  0  0
   -2.1617   -1.0863    1.1307 C   0  0  0  0  0  0  0  0  0  0  0  0
   -3.0827   -1.3628    0.1204 C   0  0  0  0  0  0  0  0  0  0  0  0
  1  7  1  0
  1  8  1  0
  2  4  1  0
  2  5  1  0
  2  6  1  0
  3 17  1  0
  4  7  1  0
  5 10  1  0
  6 11  1  0
  8  9  1  0
  9 12  1  0
 12 13  2  0
 12 14  1  0
 13 15  1  0
 14 16  2  0
 15 17  2  0
 16 17  1  0
M  END
>  <PUBCHEM_COMPOUND_CID>  (1) 
33200

>  <PUBCHEM_CONFORMER_RMSD>  (1) 
0.8

>  <PUBCHEM_CONFORMER_DIVERSEORDER>  (1) 
3
10
98
40
76
103
65
87
15
32
64
92
91
79
83
18
93
97
6
74
55
106
27
8
86
4
50
96
67
37
9
25
69
30
80
44
62
54
45
85
28
107
48
26
49
99
38
21
63
14
72
78
19
70
51
82
36
104
2
24
95
41
53
52
81
59
35
100
57
89
68
7
75
77
17
105
47
61
88
102
73
56
33
71
31
94
90
42
20
43
12
101
34
16
60
23
29
84
39
66
46
13
22
58
11
1
5

>  <PUBCHEM_MMFF94_PARTIAL_CHARGES>  (1) 
21
1 -0.56
12 -0.14
13 -0.15
14 -0.15
15 -0.15
16 -0.15
17 0.1
2 -0.81
3 -0.9
36 0.15
37 0.15
38 0.15
39 0.15
4 0.27
40 0.4
41 0.4
5 0.27
6 0.27
7 0.28
8 0.28
9 0.14

>  <PUBCHEM_EFFECTIVE_ROTOR_COUNT>  (1) 
8

>  <PUBCHEM_PHARMACOPHORE_FEATURES>  (1) 
5
1 1 acceptor
1 2 cation
1 3 cation
1 3 donor
6 12 13 14 15 16 17 rings

>  <PUBCHEM_HEAVY_ATOM_COUNT>  (1) 
17

>  <PUBCHEM_ATOM_DEF_STEREO_COUNT>  (1) 
0

>  <PUBCHEM_ATOM_UDEF_STEREO_COUNT>  (1) 
0

>  <PUBCHEM_BOND_DEF_STEREO_COUNT>  (1) 
0

>  <PUBCHEM_BOND_UDEF_STEREO_COUNT>  (1) 
0

>  <PUBCHEM_ISOTOPIC_ATOM_COUNT>  (1) 
0

>  <PUBCHEM_COMPONENT_COUNT>  (1) 
1

>  <PUBCHEM_CACTVS_TAUTO_COUNT>  (1) 
1

>  <PUBCHEM_CONFORMER_ID>  (1) 
000081B000000003

>  <PUBCHEM_MMFF94_ENERGY>  (1) 
42.9669

>  <PUBCHEM_FEATURE_SELFOVERLAP>  (1) 
25.371

>  <PUBCHEM_SHAPE_FINGERPRINT>  (1) 
10616163 171 18412833503111382660
12363563 72 18408042909447731450
12553582 1 18338813216414483396
12596599 1 18200047173840376939
12633257 1 18265617589350404760
13083527 12 18262501706921432840
14178342 30 18129106627850026106
1420 336 18193286186604326561
14251705 54 18341339997309163127
14848160 33 18264208182979248071
17834072 14 18339066129842708420
18186145 218 12324250450925770956
18981168 100 7997398344127961949
192875 21 18337940221356474326
20645477 70 18051132789898411519
21315764 371 15913041092692514959
23184049 29 18335985272692401392
232386 152 17897452688153205368
23557571 272 18129656387995830754
23559900 14 18338785776206481352
23728640 28 18120655721434170601
24859131 72 18268696222182588018
5262128 65 18336558169589581216
568465 68 17702930449584158288
81228 2 18123198904550704640
9709674 26 18270401577148489988

>  <PUBCHEM_SHAPE_MULTIPOLES>  (1) 
334.02
7.24
3.06
1.44
1.45
0.58
0.12
-3.98
0.9
-0.73
-0.4
1.03
-0.7
-0.08

>  <PUBCHEM_SHAPE_SELFOVERLAP>  (1) 
660.636

>  <PUBCHEM_SHAPE_VOLUME>  (1) 
201.2

>  <PUBCHEM_COORDINATE_TYPE>  (1) 
2
5
10

$$$$
