33205
     RDKit          3D

 18 18  0  0  1  0  0  0  0  0999 V2000
   -1.0552    1.4367   -0.1553 O   0  0  0  0  0  0  0  0  0  0  0  0
   -2.7588   -0.8113    0.0965 N   0  0  0  0  0  0  0  0  0  0  0  0
    4.2407   -2.5572    0.1828 N   0  0  0  0  0  0  0  0  0  0  0  0
    0.0037    2.2775    0.2819 C   0  0  0  0  0  0  0  0  0  0  0  0
   -3.2503    0.5611    0.2138 C   0  0  0  0  0  0  0  0  0  0  0  0
   -2.1586    1.4792    0.7400 C   0  0  0  0  0  0  0  0  0  0  0  0
    1.1896    2.1687   -0.6838 C   0  0  0  0  0  0  0  0  0  0  0  0
   -3.7994   -1.6818   -0.4493 C   0  0  0  0  0  0  0  0  0  0  0  0
   -2.3087   -1.3060    1.3971 C   0  0  0  0  0  0  0  0  0  0  0  0
    1.9992    0.9146   -0.4539 C   0  0  0  0  0  0  0  0  0  0  0  0
   -0.5179    3.7068    0.3589 C   0  0  0  0  0  0  0  0  0  0  0  0
   -4.2793   -1.1826   -1.8016 C   0  0  0  0  0  0  0  0  0  0  0  0
   -1.7379   -2.7092    1.2832 C   0  0  0  0  0  0  0  0  0  0  0  0
    3.0594    0.9457    0.4375 C   0  0  0  0  0  0  0  0  0  0  0  0
    1.6667   -0.2429   -1.1388 C   0  0  0  0  0  0  0  0  0  0  0  0
    3.8073   -0.2124    0.6496 C   0  0  0  0  0  0  0  0  0  0  0  0
    2.4146   -1.4010   -0.9265 C   0  0  0  0  0  0  0  0  0  0  0  0
    3.4849   -1.3858   -0.0323 C   0  0  0  0  0  0  0  0  0  0  0  0
  1  4  1  0
  1  6  1  0
  2  5  1  0
  2  8  1  0
  2  9  1  0
  3 18  1  0
  4  7  1  0
  4 11  1  0
  5  6  1  0
  7 10  1  0
  8 12  1  0
  9 13  1  0
 10 14  2  0
 10 15  1  0
 14 16  1  0
 15 17  2  0
 16 18  2  0
 17 18  1  0
M  END
>  <PUBCHEM_COMPOUND_CID>  (1) 
33205

>  <PUBCHEM_CONFORMER_RMSD>  (1) 
0.8

>  <PUBCHEM_CONFORMER_DIVERSEORDER>  (1) 
3
209
176
184
89
38
187
214
159
63
12
164
7
94
181
69
23
14
205
193
119
210
53
188
95
109
143
140
9
90
130
198
46
156
99
113
122
185
189
36
183
208
73
167
180
136
196
194
66
131
98
92
175
70
42
31
43
191
100
170
2
74
111
129
24
207
37
190
166
212
169
20
112
139
28
149
116
16
51
134
199
83
125
93
84
132
153
27
173
50
26
142
147
59
202
172
25
64
138
102
168
8
79
128
201
54
87
135
192
118
68
154
81
120
204
215
34
101
151
141
144
106
32
55
115
117
76
21
41
48
62
114
96
80
30
123
200
40
213
197
56
124
105
145
103
45
158
15
150
161
133
195
67
203
146
52
171
33
58
77
211
17
29
49
82
137
4
174
57
47
60
88
91
160
206
126
104
61
5
86
71
165
162
121
155
75
97
127
19
1
107
6
44
78
108
152
11
35
179
148
110
65
72
178
157
39
10
85
186
18
13
22
177
182
163

>  <PUBCHEM_MMFF94_PARTIAL_CHARGES>  (1) 
21
1 -0.56
10 -0.14
14 -0.15
15 -0.15
16 -0.15
17 -0.15
18 0.1
2 -0.81
3 -0.9
39 0.15
4 0.28
40 0.15
41 0.15
42 0.15
43 0.4
44 0.4
5 0.27
6 0.28
7 0.14
8 0.27
9 0.27

>  <PUBCHEM_EFFECTIVE_ROTOR_COUNT>  (1) 
8

>  <PUBCHEM_PHARMACOPHORE_FEATURES>  (1) 
5
1 1 acceptor
1 2 cation
1 3 cation
1 3 donor
6 10 14 15 16 17 18 rings

>  <PUBCHEM_HEAVY_ATOM_COUNT>  (1) 
18

>  <PUBCHEM_ATOM_DEF_STEREO_COUNT>  (1) 
0

>  <PUBCHEM_ATOM_UDEF_STEREO_COUNT>  (1) 
1

>  <PUBCHEM_BOND_DEF_STEREO_COUNT>  (1) 
0

>  <PUBCHEM_BOND_UDEF_STEREO_COUNT>  (1) 
0

>  <PUBCHEM_ISOTOPIC_ATOM_COUNT>  (1) 
0

>  <PUBCHEM_COMPONENT_COUNT>  (1) 
1

>  <PUBCHEM_CACTVS_TAUTO_COUNT>  (1) 
1

>  <PUBCHEM_CONFORMER_ID>  (1) 
000081B500000003

>  <PUBCHEM_MMFF94_ENERGY>  (1) 
49.6676

>  <PUBCHEM_FEATURE_SELFOVERLAP>  (1) 
25.371

>  <PUBCHEM_SHAPE_FINGERPRINT>  (1) 
10366900 7 18271524311959808632
12363563 72 18412268349897552903
12553582 1 18267040481845413645
12596599 1 17774455888146534839
12633257 1 17915187823309421440
12788726 201 18196954191755072969
14081887 123 18339912706962698560
14251705 54 18120386594340508882
14251757 17 18043520810775499267
14468879 13 12030966676869035203
14848160 33 18338518672073798207
15342168 16 8285938877749619615
15352361 1 18411416219659032550
15880784 105 17275105067620556070
17834072 14 18410003364481475677
192875 21 18341889731780239255
20645477 70 18120087549074537621
20681677 274 18270673161380020400
21452121 199 18410287034387467480
23184049 29 18338244777645851532
23559900 14 18191862538174702080
81228 2 18195827188162844017
8809292 202 18265623078423960986
9709674 26 18410014359502730010

>  <PUBCHEM_SHAPE_MULTIPOLES>  (1) 
354.6
7.97
3.62
1.26
0.51
1.76
0.17
-5.91
1
-0.08
-0.68
0.94
-0.56
-0.21

>  <PUBCHEM_SHAPE_SELFOVERLAP>  (1) 
702.177

>  <PUBCHEM_SHAPE_VOLUME>  (1) 
213.7

>  <PUBCHEM_COORDINATE_TYPE>  (1) 
2
5
10

$$$$
