3321
     RDKit          3D

 19 18  0  0  1  0  0  0  0  0999 V2000
   -0.1292   -4.5621   -0.0536 O   0  0  0  0  0  0  0  0  0  0  0  0
    4.5329    1.5347    1.7104 O   0  0  0  0  0  0  0  0  0  0  0  0
   -3.9187    1.8643   -0.1425 C   0  0  0  0  0  0  0  0  0  0  0  0
   -3.4058    0.4913    0.2953 C   0  0  0  0  0  0  0  0  0  0  0  0
   -2.8769    2.9779    0.0090 C   0  0  0  0  0  0  0  0  0  0  0  0
   -4.4764   -0.5923    0.1150 C   0  0  0  0  0  0  0  0  0  0  0  0
   -3.3199    4.3743   -0.4378 C   0  0  0  0  0  0  0  0  0  0  0  0
   -4.0021   -1.9778    0.5695 C   0  0  0  0  0  0  0  0  0  0  0  0
   -2.2705    5.4501   -0.2070 C   0  0  0  0  0  0  0  0  0  0  0  0
   -2.8373   -2.4732   -0.2380 C   0  0  0  0  0  0  0  0  0  0  0  0
   -1.6390   -2.7668    0.2894 C   0  0  0  0  0  0  0  0  0  0  0  0
   -0.4766   -3.2614   -0.5179 C   0  0  0  0  0  0  0  0  0  0  0  0
    0.6527   -2.3385   -0.3453 C   0  0  0  0  0  0  0  0  0  0  0  0
    1.5469   -1.5503   -0.2003 C   0  0  0  0  0  0  0  0  0  0  0  0
    4.4343    1.2259    0.3230 C   0  0  0  0  0  0  0  0  0  0  0  0
    2.5422   -0.6227   -0.0263 C   0  0  0  0  0  0  0  0  0  0  0  0
    3.4002    0.2028    0.1295 C   0  0  0  0  0  0  0  0  0  0  0  0
    5.7577    0.7133   -0.1605 C   0  0  0  0  0  0  0  0  0  0  0  0
    6.4853    1.3104   -1.1118 C   0  0  0  0  0  0  0  0  0  0  0  0
  1 12  1  0
  2 15  1  0
  3  4  1  0
  3  5  1  0
  4  6  1  0
  5  7  1  0
  6  8  1  0
  7  9  1  0
  8 10  1  0
 10 11  2  0
 11 12  1  0
 12 13  1  0
 13 14  3  0
 14 16  1  0
 15 17  1  0
 15 18  1  0
 16 17  3  0
 18 19  2  0
M  END
>  <PUBCHEM_COMPOUND_CID>  (1) 
3321

>  <PUBCHEM_CONFORMER_RMSD>  (1) 
1

>  <PUBCHEM_CONFORMER_DIVERSEORDER>  (1) 
2
154
146
40
156
223
51
209
169
68
10
42
44
170
224
35
186
70
120
19
174
206
173
218
76
63
212
106
175
112
192
151
127
202
86
119
108
134
96
204
118
82
214
139
89
93
23
66
81
95
210
75
65
138
208
43
193
84
160
79
16
107
36
168
3
47
172
197
163
194
54
184
141
188
45
102
196
8
195
33
7
182
53
39
123
100
12
34
83
6
71
220
155
187
203
198
215
153
59
56
38
157
101
165
124
57
30
60
130
221
27
147
18
125
158
13
121
26
31
179
64
99
1
98
73
142
222
207
140
92
14
87
166
4
24
80
52
211
159
11
191
49
171
144
178
67
103
97
88
21
122
9
167
180
200
137
5
116
143
135
22
105
131
213
181
152
104
94
183
111
77
62
46
20
113
25
129
205
50
114
216
74
78
15
117
115
29
150
37
55
28
91
132
61
201
149
217
148
177
161
72
90
48
136
32
185
58
128
85
110
133
17
189
219
176
190
145
225
41
109
126
162
164
199
69

>  <PUBCHEM_MMFF94_PARTIAL_CHARGES>  (1) 
18
1 -0.68
10 -0.29
11 -0.29
12 0.62
13 -0.2
15 0.62
17 -0.2
18 -0.29
19 -0.3
2 -0.68
35 0.15
36 0.15
38 0.4
40 0.15
41 0.4
42 0.15
43 0.15
8 0.14

>  <PUBCHEM_EFFECTIVE_ROTOR_COUNT>  (1) 
8

>  <PUBCHEM_PHARMACOPHORE_FEATURES>  (1) 
6
1 1 acceptor
1 1 donor
1 19 hydrophobe
1 2 acceptor
1 2 donor
1 9 hydrophobe

>  <PUBCHEM_HEAVY_ATOM_COUNT>  (1) 
19

>  <PUBCHEM_ATOM_DEF_STEREO_COUNT>  (1) 
0

>  <PUBCHEM_ATOM_UDEF_STEREO_COUNT>  (1) 
2

>  <PUBCHEM_BOND_DEF_STEREO_COUNT>  (1) 
0

>  <PUBCHEM_BOND_UDEF_STEREO_COUNT>  (1) 
1

>  <PUBCHEM_ISOTOPIC_ATOM_COUNT>  (1) 
0

>  <PUBCHEM_COMPONENT_COUNT>  (1) 
1

>  <PUBCHEM_CACTVS_TAUTO_COUNT>  (1) 
1

>  <PUBCHEM_CONFORMER_ID>  (1) 
00000CF900000002

>  <PUBCHEM_MMFF94_ENERGY>  (1) 
2.0527

>  <PUBCHEM_FEATURE_SELFOVERLAP>  (1) 
30.447

>  <PUBCHEM_SHAPE_FINGERPRINT>  (1) 
100830 39 18410575106940041500
10670039 82 18411702123221545372
12107183 9 18045488726231026642
12596602 18 17095798935902958274
14223995 32 18124301719693977896
14251764 38 18122053213872074075
14251764 75 17981615857863675969
15322535 138 18193266404112302249
155225 5 18410577279845937916
16067690 210 17972860712737402264
16992787 43 18339918213966171717
1768 85 17547302099498662001
20398071 114 18195522593698802473
20621476 13 17402329274761190897
20765182 5 18335702792435069476
20771845 165 18199769053813841566
21859007 373 18200866375445476840
5047190 92 18050853217730636217
5283384 97 8397393605123684196
53794403 172 17761775062083467021
6475588 51 18191311688020549196

>  <PUBCHEM_SHAPE_MULTIPOLES>  (1) 
379.27
13.02
7.04
0.86
19.53
5.24
0.14
10.05
-0.26
-9.53
-0.91
0.82
0.23
0.8

>  <PUBCHEM_SHAPE_SELFOVERLAP>  (1) 
716.936

>  <PUBCHEM_SHAPE_VOLUME>  (1) 
230.8

>  <PUBCHEM_COORDINATE_TYPE>  (1) 
2
5
10

$$$$
