33226
     RDKit          3D

 17 20  0  0  0  0  0  0  0  0999 V2000
    4.4696    0.8908   -0.0009 Cl  0  0  0  0  0  0  0  0  0  0  0  0
    0.6122   -0.1506    0.0005 C   0  0  0  0  0  0  0  0  0  0  0  0
   -0.0552    1.0662    0.0007 C   0  0  0  0  0  0  0  0  0  0  0  0
   -0.2969   -1.1995    0.0004 C   0  0  0  0  0  0  0  0  0  0  0  0
   -1.4851    0.7894    0.0006 C   0  0  0  0  0  0  0  0  0  0  0  0
   -1.6361   -0.6274    0.0002 C   0  0  0  0  0  0  0  0  0  0  0  0
    1.9975   -0.2983    0.0000 C   0  0  0  0  0  0  0  0  0  0  0  0
    0.6796    2.2370    0.0002 C   0  0  0  0  0  0  0  0  0  0  0  0
    0.1745   -2.4988    0.0003 C   0  0  0  0  0  0  0  0  0  0  0  0
   -2.5851    1.6256    0.0003 C   0  0  0  0  0  0  0  0  0  0  0  0
   -2.8875   -1.2133   -0.0004 C   0  0  0  0  0  0  0  0  0  0  0  0
    2.7423    0.8973   -0.0001 C   0  0  0  0  0  0  0  0  0  0  0  0
    2.4733   -1.6241   -0.0002 C   0  0  0  0  0  0  0  0  0  0  0  0
    2.0830    2.1457   -0.0001 C   0  0  0  0  0  0  0  0  0  0  0  0
    1.5655   -2.7053    0.0000 C   0  0  0  0  0  0  0  0  0  0  0  0
   -3.8512    1.0330   -0.0006 C   0  0  0  0  0  0  0  0  0  0  0  0
   -4.0004   -0.3676   -0.0009 C   0  0  0  0  0  0  0  0  0  0  0  0
  1 12  1  0
  2  3  1  0
  2  4  2  0
  2  7  1  0
  3  5  1  0
  3  8  2  0
  4  6  1  0
  4  9  1  0
  5  6  2  0
  5 10  1  0
  6 11  1  0
  7 12  1  0
  7 13  2  0
  8 14  1  0
  9 15  2  0
 10 16  2  0
 11 17  2  0
 12 14  2  0
 13 15  1  0
 16 17  1  0
M  END
>  <PUBCHEM_COMPOUND_CID>  (1) 
33226

>  <PUBCHEM_CONFORMER_RMSD>  (1) 
0.4

>  <PUBCHEM_CONFORMER_DIVERSEORDER>  (1) 
1

>  <PUBCHEM_MMFF94_PARTIAL_CHARGES>  (1) 
20
1 -0.18
10 -0.15
11 -0.15
12 0.18
13 -0.15
14 -0.15
15 -0.15
16 -0.15
17 -0.15
18 0.15
19 0.15
20 0.15
21 0.15
22 0.15
23 0.15
24 0.15
25 0.15
26 0.15
8 -0.15
9 -0.15

>  <PUBCHEM_EFFECTIVE_ROTOR_COUNT>  (1) 
0

>  <PUBCHEM_PHARMACOPHORE_FEATURES>  (1) 
4
5 2 3 4 5 6 rings
6 2 3 7 8 12 14 rings
6 2 4 7 9 13 15 rings
6 5 6 10 11 16 17 rings

>  <PUBCHEM_HEAVY_ATOM_COUNT>  (1) 
17

>  <PUBCHEM_ATOM_DEF_STEREO_COUNT>  (1) 
0

>  <PUBCHEM_ATOM_UDEF_STEREO_COUNT>  (1) 
0

>  <PUBCHEM_BOND_DEF_STEREO_COUNT>  (1) 
0

>  <PUBCHEM_BOND_UDEF_STEREO_COUNT>  (1) 
0

>  <PUBCHEM_ISOTOPIC_ATOM_COUNT>  (1) 
0

>  <PUBCHEM_COMPONENT_COUNT>  (1) 
1

>  <PUBCHEM_CACTVS_TAUTO_COUNT>  (1) 
1

>  <PUBCHEM_CONFORMER_ID>  (1) 
000081CA00000001

>  <PUBCHEM_MMFF94_ENERGY>  (1) 
72.0526

>  <PUBCHEM_FEATURE_SELFOVERLAP>  (1) 
20.603

>  <PUBCHEM_SHAPE_FINGERPRINT>  (1) 
10411042 1 17329992391975024975
10608611 8 18335980866229957589
10616163 171 18339081600621091143
10967382 1 18410575080383935879
10980938 120 18410293588216813050
11132069 177 18409443687224620720
11471102 20 18410569557361987485
11578080 2 16880181214082709110
11680986 33 18409457972497077698
12553582 1 17762058735687852651
12592029 89 18408889554897080754
13140716 1 17905892826564310971
13380535 76 18336264630055010882
138480 1 18122343476278181610
13897977 150 18409727357224934221
14790565 3 18337401542680721212
15196674 1 18410855438653351302
15219456 202 18335702706915017967
15309172 13 18339089292727774169
15442244 35 18124316008590897641
15536298 74 18343584006173401518
16945 1 18338799047232646503
18186145 218 18272098188030429781
193761 8 17978510828214731848
19591789 44 18266743673803794758
200 152 18130498717477794221
20510252 161 17910681191192598601
20645476 183 17681006389431538388
20645477 70 18341045208334690151
20905425 154 18269276763984398332
21267235 1 18339652135186102767
21421861 104 17825384081360279672
21501502 16 18339078194732702139
21524375 3 18335700593590914634
221490 88 18336837407015308011
2334 1 18410855442990640034
23366157 5 17969226646756656578
23402539 116 18271518793100809092
23419403 2 17462543036924316414
23463225 33 18336825295043463746
23559900 14 18124307204219631826
238 59 17902187266531597133
25 1 18408602565097816181
2748010 2 18410575046124560846
335352 9 18050285860569920509
34934 24 18412537687439070693
350125 39 18121505914394331505
352729 6 18121786298433544138
43471831 8 18408600353575027562
5104073 3 18337675222333007547
528886 8 18411132558681027488
53812653 166 18341610438562369488
54173680 148 17832707142418620058
58051976 378 18412824707065625365
6138700 20 18338803313148352822
7364860 26 18341050713960556286
7832392 63 18196653999679579585
81228 2 17186990437393003011
9709674 26 18409733954421840531

>  <PUBCHEM_SHAPE_MULTIPOLES>  (1) 
351.72
6.35
2.75
0.62
1.26
0.86
0
-1.68
0
-1.14
0
-0.01
0
0

>  <PUBCHEM_SHAPE_SELFOVERLAP>  (1) 
809.666

>  <PUBCHEM_SHAPE_VOLUME>  (1) 
171.7

>  <PUBCHEM_COORDINATE_TYPE>  (1) 
2
5
10

$$$$
