33247
     RDKit          3D

 17 18  0  0  0  0  0  0  0  0999 V2000
    6.1427    1.5760    0.0017 Br  0  0  0  0  0  0  0  0  0  0  0  0
    0.4453   -2.8742    0.0000 Cl  0  0  0  0  0  0  0  0  0  0  0  0
   -1.6649   -0.9920   -0.0002 N   0  0  0  0  0  0  0  0  0  0  0  0
   -0.4659   -0.3818    0.0001 N   0  0  0  0  0  0  0  0  0  0  0  0
    1.9389   -0.4792   -0.0004 C   0  0  0  0  0  0  0  0  0  0  0  0
   -2.8526   -0.2469    0.0001 C   0  0  0  0  0  0  0  0  0  0  0  0
    2.0348    0.9125   -0.0004 C   0  0  0  0  0  0  0  0  0  0  0  0
    3.0961   -1.2579   -0.0002 C   0  0  0  0  0  0  0  0  0  0  0  0
   -4.0926   -0.8952    0.0007 C   0  0  0  0  0  0  0  0  0  0  0  0
   -2.8088    1.1515   -0.0007 C   0  0  0  0  0  0  0  0  0  0  0  0
    0.6327   -1.1183   -0.0002 C   0  0  0  0  0  0  0  0  0  0  0  0
    3.2879    1.5253   -0.0005 C   0  0  0  0  0  0  0  0  0  0  0  0
    4.3491   -0.6451   -0.0001 C   0  0  0  0  0  0  0  0  0  0  0  0
    4.4451    0.7465   -0.0004 C   0  0  0  0  0  0  0  0  0  0  0  0
   -5.2741   -0.1539    0.0007 C   0  0  0  0  0  0  0  0  0  0  0  0
   -3.9905    1.8927   -0.0004 C   0  0  0  0  0  0  0  0  0  0  0  0
   -5.2232    1.2399    0.0003 C   0  0  0  0  0  0  0  0  0  0  0  0
  1 14  1  0
  2 11  1  0
  3  4  1  0
  3  6  1  0
  4 11  2  0
  5  7  2  0
  5  8  1  0
  5 11  1  0
  6  9  2  0
  6 10  1  0
  7 12  1  0
  8 13  2  0
  9 15  1  0
 10 16  2  0
 12 14  2  0
 13 14  1  0
 15 17  2  0
 16 17  1  0
M  END
>  <PUBCHEM_COMPOUND_CID>  (1) 
33247

>  <PUBCHEM_CONFORMER_RMSD>  (1) 
0.6

>  <PUBCHEM_CONFORMER_DIVERSEORDER>  (1) 
1
4
2
3

>  <PUBCHEM_MMFF94_PARTIAL_CHARGES>  (1) 
27
1 -0.11
10 -0.15
11 0.57
12 -0.15
13 -0.15
14 0.11
15 -0.15
16 -0.15
17 -0.15
18 0.15
19 0.15
2 -0.21
20 0.15
21 0.15
22 0.15
23 0.15
24 0.4
25 0.15
26 0.15
27 0.15
3 -0.46
4 -0.49
5 0.09
6 0.1
7 -0.15
8 -0.15
9 -0.15

>  <PUBCHEM_EFFECTIVE_ROTOR_COUNT>  (1) 
3

>  <PUBCHEM_PHARMACOPHORE_FEATURES>  (1) 
5
1 1 hydrophobe
1 3 donor
1 4 acceptor
6 5 7 8 12 13 14 rings
6 6 9 10 15 16 17 rings

>  <PUBCHEM_HEAVY_ATOM_COUNT>  (1) 
17

>  <PUBCHEM_ATOM_DEF_STEREO_COUNT>  (1) 
0

>  <PUBCHEM_ATOM_UDEF_STEREO_COUNT>  (1) 
0

>  <PUBCHEM_BOND_DEF_STEREO_COUNT>  (1) 
0

>  <PUBCHEM_BOND_UDEF_STEREO_COUNT>  (1) 
1

>  <PUBCHEM_ISOTOPIC_ATOM_COUNT>  (1) 
0

>  <PUBCHEM_COMPONENT_COUNT>  (1) 
1

>  <PUBCHEM_CACTVS_TAUTO_COUNT>  (1) 
1

>  <PUBCHEM_CONFORMER_ID>  (1) 
000081DF00000001

>  <PUBCHEM_MMFF94_ENERGY>  (1) 
54.8524

>  <PUBCHEM_FEATURE_SELFOVERLAP>  (1) 
25.371

>  <PUBCHEM_SHAPE_FINGERPRINT>  (1) 
100836 57 18408326605249685588
10411042 1 17762338012211598022
12107183 9 17689151206328935001
12507557 5 17749391498721383173
12555020 224 9367341497603343657
12596602 18 17095520729359520976
12916748 109 18410860970697829138
13081056 2 18410856546923816245
13740256 8 9295288343891179624
13785724 45 17833264226011789498
14251764 18 18260260863864250904
14252887 29 12612751281394893674
14341114 176 18335709325269736569
14528608 73 18412823590516468719
15188451 53 15430610570796426777
15196674 1 18410575063193751045
20281389 69 18334573564630204952
20645477 56 18411135878542924139
20645477 70 18059862705922669966
212847 35 18412260636616330632
21652331 79 18408885118438742501
23035841 295 9727642708675860196
23272321 79 18410012164969730965
23402539 116 18272082837954321316
23402655 69 18273213105969491382
23559900 14 18125718981128282311
245318 6 17171821454997385452
26918003 58 11025792106787969975
2916195 48 18272363226531419296
293599 30 18410857685570080636
335352 9 18410857664628143894
351380 180 18408885139697086753
351380 3 9871753485672739940
3545911 37 18412265051220225025
4214541 1 18410575072216098373
4325135 7 18271804662018987279
474 4 18113903779383382141
5104073 3 18261678077916655699
542803 24 17346882238811552521
59682541 35 18261684765903324585
59755656 520 18187922915340860278
633830 44 18412822452229277478
77779 3 18411138017769070351
8272917 22 18341615850121273486
90127 26 18335995176697004138

>  <PUBCHEM_SHAPE_MULTIPOLES>  (1) 
347.7
13.76
2.25
0.62
0.27
0.79
0
-7.52
0
-0.4
0
-0.06
-0.01
0

>  <PUBCHEM_SHAPE_SELFOVERLAP>  (1) 
715.93

>  <PUBCHEM_SHAPE_VOLUME>  (1) 
204.7

>  <PUBCHEM_COORDINATE_TYPE>  (1) 
2
5
10

$$$$
