33249
     RDKit          3D

 18 19  0  0  0  0  0  0  0  0999 V2000
    3.0957    2.9320   -0.0004 Br  0  0  0  0  0  0  0  0  0  0  0  0
    6.0008   -1.9357    0.0014 Br  0  0  0  0  0  0  0  0  0  0  0  0
   -1.6298    2.6436    0.0003 Cl  0  0  0  0  0  0  0  0  0  0  0  0
    0.6357    0.9516    0.0002 N   0  0  0  0  0  0  0  0  0  0  0  0
   -0.5058    0.2396    0.0006 N   0  0  0  0  0  0  0  0  0  0  0  0
    1.8837    0.3124    0.0007 C   0  0  0  0  0  0  0  0  0  0  0  0
   -2.9099    0.1279   -0.0002 C   0  0  0  0  0  0  0  0  0  0  0  0
    3.0844    1.0337    0.0001 C   0  0  0  0  0  0  0  0  0  0  0  0
    1.9271   -1.0871    0.0003 C   0  0  0  0  0  0  0  0  0  0  0  0
    4.3088    0.3654   -0.0006 C   0  0  0  0  0  0  0  0  0  0  0  0
    3.1514   -1.7554   -0.0008 C   0  0  0  0  0  0  0  0  0  0  0  0
   -2.8844   -1.2668   -0.0002 C   0  0  0  0  0  0  0  0  0  0  0  0
   -4.1305    0.8031   -0.0003 C   0  0  0  0  0  0  0  0  0  0  0  0
    4.3423   -1.0291   -0.0013 C   0  0  0  0  0  0  0  0  0  0  0  0
   -1.6642    0.8780    0.0002 C   0  0  0  0  0  0  0  0  0  0  0  0
   -4.0795   -1.9861   -0.0002 C   0  0  0  0  0  0  0  0  0  0  0  0
   -5.3255    0.0837    0.0000 C   0  0  0  0  0  0  0  0  0  0  0  0
   -5.3001   -1.3109    0.0001 C   0  0  0  0  0  0  0  0  0  0  0  0
  1  8  1  0
  2 14  1  0
  3 15  1  0
  4  5  1  0
  4  6  1  0
  5 15  2  0
  6  8  2  0
  6  9  1  0
  7 12  2  0
  7 13  1  0
  7 15  1  0
  8 10  1  0
  9 11  2  0
 10 14  2  0
 11 14  1  0
 12 16  1  0
 13 17  2  0
 16 18  2  0
 17 18  1  0
M  END
>  <PUBCHEM_COMPOUND_CID>  (1) 
33249

>  <PUBCHEM_CONFORMER_RMSD>  (1) 
0.6

>  <PUBCHEM_CONFORMER_DIVERSEORDER>  (1) 
1
10
8
7
9
5
3
2
4
6

>  <PUBCHEM_MMFF94_PARTIAL_CHARGES>  (1) 
27
1 -0.11
10 -0.15
11 -0.15
12 -0.15
13 -0.15
14 0.11
15 0.57
16 -0.15
17 -0.15
18 -0.15
19 0.15
2 -0.11
20 0.4
21 0.15
22 0.15
23 0.15
24 0.15
25 0.15
26 0.15
27 0.15
3 -0.21
4 -0.46
5 -0.49
6 0.1
7 0.09
8 0.11
9 -0.15

>  <PUBCHEM_EFFECTIVE_ROTOR_COUNT>  (1) 
3

>  <PUBCHEM_PHARMACOPHORE_FEATURES>  (1) 
6
1 1 hydrophobe
1 2 hydrophobe
1 4 donor
1 5 acceptor
6 6 8 9 10 11 14 rings
6 7 12 13 16 17 18 rings

>  <PUBCHEM_HEAVY_ATOM_COUNT>  (1) 
18

>  <PUBCHEM_ATOM_DEF_STEREO_COUNT>  (1) 
0

>  <PUBCHEM_ATOM_UDEF_STEREO_COUNT>  (1) 
0

>  <PUBCHEM_BOND_DEF_STEREO_COUNT>  (1) 
0

>  <PUBCHEM_BOND_UDEF_STEREO_COUNT>  (1) 
1

>  <PUBCHEM_ISOTOPIC_ATOM_COUNT>  (1) 
0

>  <PUBCHEM_COMPONENT_COUNT>  (1) 
1

>  <PUBCHEM_CACTVS_TAUTO_COUNT>  (1) 
1

>  <PUBCHEM_CONFORMER_ID>  (1) 
000081E100000001

>  <PUBCHEM_MMFF94_ENERGY>  (1) 
57.0583

>  <PUBCHEM_FEATURE_SELFOVERLAP>  (1) 
30.446

>  <PUBCHEM_SHAPE_FINGERPRINT>  (1) 
10366900 7 17748832886689971890
10616163 171 18412827962835809159
11045515 52 18113617880918184237
11405975 8 18412266129563153697
11806522 49 18335421257808363876
12107183 9 17981050704390883473
12403259 226 18408880716292735236
12616971 3 17989202676782922631
12916748 109 9511464441920163133
12916754 54 18411420609105300009
13167823 11 18411417332319338775
13288520 33 18411138013526863655
13533116 47 18340206387825228185
13955234 65 18269272529542556504
14341114 176 18411984650307182680
15196674 1 18410575119239413415
15352361 1 18410855447253809411
15961568 22 17096367405269702884
17492 89 18409449227732692314
17834072 33 18412263977731485279
17844677 252 18411425007494689385
17857418 61 18410008810589879258
1813 80 17313382357391853989
18186145 218 17530958111889170641
18681886 176 18341889702121637194
200 152 18272088301110517169
20028762 73 18343860022332049790
20261772 1 17917989503248673902
20281475 54 18341896311728158945
20374829 77 18408602548234685427
20645477 70 18411419522726188678
21065198 57 18410855464734501885
21267235 1 18410018727695745883
221490 88 18408890659109740434
23402539 116 18408037390572979127
23557571 272 18130228134121765380
23559900 14 18410567405261995617
239999 70 18272094915829878974
26918003 58 18272930496841930635
2871803 45 18260544519735061331
3004659 81 18259701198637781227
312423 11 18342471334629050776
314194 84 18198061585306739111
3286 77 18335138679167723636
335352 9 18338516344597169429
3421961 26 18412260649517271080
350125 39 18411700993756273452
4073 2 18041565857046124658
4214541 1 18410855421879923841
465052 167 18343588434580323542
4921388 177 16371016256031351451
5104073 3 18341897415439555849
5283173 99 18188479195489659277
542803 24 13406793315750375247
559249 180 18337669720548745019
67856867 119 18338795723329360360
7495541 125 17846212284912822328
77779 3 18410856585778942921
9709674 26 18262522601341001451
9971528 1 17895193345907866068

>  <PUBCHEM_SHAPE_MULTIPOLES>  (1) 
374.22
13.59
2.8
0.63
1.76
1.43
0
-7.31
0
-1.76
0
-0.07
0.01
0

>  <PUBCHEM_SHAPE_SELFOVERLAP>  (1) 
757.863

>  <PUBCHEM_SHAPE_VOLUME>  (1) 
224.8

>  <PUBCHEM_COORDINATE_TYPE>  (1) 
2
5
10

$$$$
