33251
     RDKit          3D

 11 10  0  0  0  0  0  0  0  0999 V2000
   -2.1465    0.1063   -0.1662 N   0  0  0  0  0  0  0  0  0  0  0  0
    1.4509    0.1795    0.2866 N   0  0  0  0  0  0  0  0  0  0  0  0
    3.0976   -1.2654   -0.9474 N   0  0  0  0  0  0  0  0  0  0  0  0
   -0.3768   -1.4486    0.6029 C   0  0  0  0  0  0  0  0  0  0  0  0
   -1.2274   -0.9512   -0.5696 C   0  0  0  0  0  0  0  0  0  0  0  0
    0.4857   -0.3742    1.2608 C   0  0  0  0  0  0  0  0  0  0  0  0
    1.7024    1.6317    0.5166 C   0  0  0  0  0  0  0  0  0  0  0  0
   -3.0699   -0.3775    0.8618 C   0  0  0  0  0  0  0  0  0  0  0  0
   -2.8918    0.6103   -1.3211 C   0  0  0  0  0  0  0  0  0  0  0  0
    0.6355    2.4856   -0.1471 C   0  0  0  0  0  0  0  0  0  0  0  0
    2.3403   -0.5965   -0.3772 C   0  0  0  0  0  0  0  0  0  0  0  0
  1  5  1  0
  1  8  1  0
  1  9  1  0
  2  6  1  0
  2  7  1  0
  2 11  1  0
  3 11  3  0
  4  5  1  0
  4  6  1  0
  7 10  1  0
M  END
>  <PUBCHEM_COMPOUND_CID>  (1) 
33251

>  <PUBCHEM_CONFORMER_RMSD>  (1) 
0.6

>  <PUBCHEM_CONFORMER_DIVERSEORDER>  (1) 
1
50
53
59
70
104
94
73
101
4
120
112
34
121
49
61
110
102
84
95
67
58
45
72
109
69
119
8
90
60
99
41
98
115
122
116
82
100
96
56
85
88
32
12
80
97
29
27
71
93
78
74
48
6
31
51
62
87
111
40
36
21
81
103
47
63
79
66
107
76
92
15
5
30
106
54
86
14
105
20
43
118
113
65
26
55
25
89
68
39
108
52
64
35
42
23
2
83
38
57
114
77
91
16
18
46
9
33
24
117
37
28
7
22
44
19
17
11
75
3
13
10

>  <PUBCHEM_MMFF94_PARTIAL_CHARGES>  (1) 
9
1 -0.81
11 0.68
2 -0.84
3 -0.56
5 0.27
6 0.36
7 0.36
8 0.27
9 0.27

>  <PUBCHEM_EFFECTIVE_ROTOR_COUNT>  (1) 
5

>  <PUBCHEM_PHARMACOPHORE_FEATURES>  (1) 
4
1 1 cation
1 2 cation
1 3 acceptor
3 2 3 11 cation

>  <PUBCHEM_HEAVY_ATOM_COUNT>  (1) 
11

>  <PUBCHEM_ATOM_DEF_STEREO_COUNT>  (1) 
0

>  <PUBCHEM_ATOM_UDEF_STEREO_COUNT>  (1) 
0

>  <PUBCHEM_BOND_DEF_STEREO_COUNT>  (1) 
0

>  <PUBCHEM_BOND_UDEF_STEREO_COUNT>  (1) 
0

>  <PUBCHEM_ISOTOPIC_ATOM_COUNT>  (1) 
0

>  <PUBCHEM_COMPONENT_COUNT>  (1) 
1

>  <PUBCHEM_CACTVS_TAUTO_COUNT>  (1) 
1

>  <PUBCHEM_CONFORMER_ID>  (1) 
000081E300000001

>  <PUBCHEM_MMFF94_ENERGY>  (1) 
12.1597

>  <PUBCHEM_FEATURE_SELFOVERLAP>  (1) 
22.223

>  <PUBCHEM_SHAPE_FINGERPRINT>  (1) 
10353120 184 18336835182005529065
10857977 72 16733264663932246099
12932764 1 18040710385829352699
14648413 74 18266463294027719112
15775835 57 17822275903748850661
19973954 147 18266458900302510009
20233049 118 17896586315491992852
20653085 51 18412544327622027707
207724 885 18272942595785967459
21130352 189 18412260627614932780
21524375 3 17472126753712665872
2748010 2 18261382403735982589
5084963 1 17822301205496123979
549884 4 18335696152441652437
66348 1 18191008028851178565

>  <PUBCHEM_SHAPE_MULTIPOLES>  (1) 
211.43
4.57
1.96
1.17
1.4
1.21
0.03
-0.5
1.1
-1.02
0.05
0.3
-0.12
0.81

>  <PUBCHEM_SHAPE_SELFOVERLAP>  (1) 
384.222

>  <PUBCHEM_SHAPE_VOLUME>  (1) 
133.2

>  <PUBCHEM_COORDINATE_TYPE>  (1) 
2
5
10

$$$$
