33257
     RDKit          3D

  9  8  0  0  1  0  0  0  0  0999 V2000
    0.3961   -0.7736    0.1435 P   0  0  0  0  0  0  0  0  0  0  0  0
   -1.1313   -0.3531    0.4948 O   0  0  0  0  0  0  0  0  0  0  0  0
    0.2448   -1.4717   -1.3130 O   0  0  0  0  0  0  0  0  0  0  0  0
    0.9895   -1.7054    1.1647 O   0  0  0  0  0  0  0  0  0  0  0  0
    1.7833    0.9411   -1.1835 O   0  0  0  0  0  0  0  0  0  0  0  0
    1.5094    1.5333    1.0306 N   0  0  0  0  0  0  0  0  0  0  0  0
   -1.8762    0.4299   -0.4221 C   0  0  0  0  0  0  0  0  0  0  0  0
   -3.2569    0.6760    0.1477 C   0  0  0  0  0  0  0  0  0  0  0  0
    1.3412    0.7236   -0.0627 C   0  0  0  0  0  0  0  0  0  0  0  0
  1  2  1  0
  1  3  1  0
  1  4  2  0
  1  9  1  0
  2  7  1  0
  5  9  2  0
  6  9  1  0
  7  8  1  0
M  END
>  <PUBCHEM_COMPOUND_CID>  (1) 
33257

>  <PUBCHEM_CONFORMER_RMSD>  (1) 
0.6

>  <PUBCHEM_CONFORMER_DIVERSEORDER>  (1) 
1
12
14
22
21
10
20
16
11
6
17
15
19
3
7
13
5
8
4
18
9
2

>  <PUBCHEM_MMFF94_PARTIAL_CHARGES>  (1) 
11
1 1.35
15 0.5
16 0.37
17 0.37
2 -0.55
3 -0.77
4 -0.7
5 -0.57
6 -0.8
7 0.28
9 0.52

>  <PUBCHEM_EFFECTIVE_ROTOR_COUNT>  (1) 
3

>  <PUBCHEM_PHARMACOPHORE_FEATURES>  (1) 
4
1 3 acceptor
1 4 acceptor
1 5 acceptor
1 6 donor

>  <PUBCHEM_HEAVY_ATOM_COUNT>  (1) 
9

>  <PUBCHEM_ATOM_DEF_STEREO_COUNT>  (1) 
0

>  <PUBCHEM_ATOM_UDEF_STEREO_COUNT>  (1) 
0

>  <PUBCHEM_BOND_DEF_STEREO_COUNT>  (1) 
0

>  <PUBCHEM_BOND_UDEF_STEREO_COUNT>  (1) 
0

>  <PUBCHEM_ISOTOPIC_ATOM_COUNT>  (1) 
0

>  <PUBCHEM_COMPONENT_COUNT>  (1) 
1

>  <PUBCHEM_CACTVS_TAUTO_COUNT>  (1) 
2

>  <PUBCHEM_CONFORMER_ID>  (1) 
000081E900000001

>  <PUBCHEM_MMFF94_ENERGY>  (1) 
-13.2616

>  <PUBCHEM_FEATURE_SELFOVERLAP>  (1) 
20.312

>  <PUBCHEM_SHAPE_FINGERPRINT>  (1) 
14390081 3 18343018908968668201
20653091 64 18044098951505662809
21040471 1 18262519332923461112
23235685 24 18186805811220825157
23552449 11 18264482880592244915
5084963 1 18264784326781675584

>  <PUBCHEM_SHAPE_MULTIPOLES>  (1) 
160.61
3.35
1.59
1.14
3.56
0.26
-0.12
-1.36
0.09
-0.9
0.19
-0.5
0.15
-0.1

>  <PUBCHEM_SHAPE_SELFOVERLAP>  (1) 
283.046

>  <PUBCHEM_SHAPE_VOLUME>  (1) 
105.2

>  <PUBCHEM_COORDINATE_TYPE>  (1) 
2
5
10

$$$$
