3325
     RDKit          3D

 20 20  0  0  0  0  0  0  0  0999 V2000
    0.9743   -2.0460    1.1294 S   0  0  0  0  0  0  0  0  0  0  0  0
    2.4949    2.0420   -0.1266 S   0  0  0  0  0  0  0  0  0  0  0  0
   -3.8046   -1.7708   -0.0591 S   0  0  0  0  0  0  0  0  0  0  0  0
    3.5842    2.6357   -0.8849 O   0  0  0  0  0  0  0  0  0  0  0  0
    2.4554    2.2199    1.3161 O   0  0  0  0  0  0  0  0  0  0  0  0
    2.4327    0.4437   -0.4610 N   0  0  0  0  0  0  0  0  0  0  0  0
   -1.6062   -0.5556   -0.6697 N   0  0  0  0  0  0  0  0  0  0  0  0
    4.5649   -0.0455    0.5428 N   0  0  0  0  0  0  0  0  0  0  0  0
   -3.5831    0.7639   -0.7522 N   0  0  0  0  0  0  0  0  0  0  0  0
    1.0427    2.7352   -0.7407 N   0  0  0  0  0  0  0  0  0  0  0  0
   -4.3883    2.7925    0.2889 N   0  0  0  0  0  0  0  0  0  0  0  0
   -3.2268    1.2489    1.5015 N   0  0  0  0  0  0  0  0  0  0  0  0
    3.2190   -1.8230   -0.4981 C   0  0  0  0  0  0  0  0  0  0  0  0
    2.6166   -2.6490    0.6343 C   0  0  0  0  0  0  0  0  0  0  0  0
    0.1248   -2.2817   -0.4480 C   0  0  0  0  0  0  0  0  0  0  0  0
    3.3984   -0.3562   -0.1167 C   0  0  0  0  0  0  0  0  0  0  0  0
   -1.3063   -1.8612   -0.3678 C   0  0  0  0  0  0  0  0  0  0  0  0
   -2.3486   -2.6761   -0.0157 C   0  0  0  0  0  0  0  0  0  0  0  0
   -2.9040   -0.3916   -0.5400 C   0  0  0  0  0  0  0  0  0  0  0  0
   -3.7398    1.5750    0.2675 C   0  0  0  0  0  0  0  0  0  0  0  0
  1 14  1  0
  1 15  1  0
  2  4  2  0
  2  5  2  0
  2  6  1  0
  2 10  1  0
  3 18  1  0
  3 19  1  0
  6 16  2  0
  7 17  1  0
  7 19  2  0
  8 16  1  0
  9 19  1  0
  9 20  2  3
 11 20  1  0
 12 20  1  0
 13 14  1  0
 13 16  1  0
 15 17  1  0
 17 18  2  0
M  END
>  <PUBCHEM_COMPOUND_CID>  (1) 
3325

>  <PUBCHEM_CONFORMER_RMSD>  (1) 
1

>  <PUBCHEM_CONFORMER_DIVERSEORDER>  (1) 
10
77
289
124
94
21
19
343
100
34
57
294
108
302
85
196
287
145
35
117
51
93
259
107
347
291
6
120
76
277
219
288
234
99
225
31
110
24
297
221
154
198
252
16
56
241
224
282
156
279
340
235
166
311
205
276
283
7
109
226
36
92
316
79
280
39
9
78
300
17
253
262
304
199
64
68
299
61
286
218
206
155
352
146
102
167
310
111
27
200
141
23
207
80
1
267
112
269
43
171
13
344
203
281
242
114
132
210
97
46
181
222
179
290
231
58
175
334
81
248
238
133
357
71
33
139
30
95
121
348
333
295
197
220
236
115
45
37
169
190
131
106
245
164
307
130
264
308
127
284
266
125
53
317
144
194
148
135
213
244
192
268
72
249
49
341
158
4
323
272
162
182
228
157
189
103
346
356
90
337
32
44
217
227
170
26
60
105
338
209
151
87
350
243
306
239
12
320
332
126
69
41
215
119
327
14
70
240
66
251
271
143
129
38
123
223
20
349
160
25
113
18
86
138
180
73
263
353
321
84
336
319
150
178
174
3
183
163
65
101
254
5
265
176
273
301
88
142
82
292
208
261
40
232
278
8
185
128
191
342
303
122
355
104
149
293
330
153
331
75
11
173
260
325
298
74
318
195
98
201
22
214
67
256
315
147
187
274
324
246
193
96
2
118
42
177
247
186
91
59
345
313
184
211
47
233
29
270
152
230
159
50
339
216
309
285
55
329
168
161
165
172
28
62
351
48
237
134
15
89
140
255
188
305
63
275
250
116
328
258
322
136
326
229
137
296
52
312
54
257
83
204
314
202
335
212
354

>  <PUBCHEM_MMFF94_PARTIAL_CHARGES>  (1) 
29
1 -0.46
10 -0.98
11 -0.85
12 -0.85
13 0.06
14 0.23
15 0.41
16 0.44
17 0.05
18 -0.11
19 0.5
2 1.63
20 0.55
27 0.15
28 0.4
29 0.4
3 -0.08
30 0.42
31 0.42
32 0.4
33 0.4
34 0.4
35 0.4
4 -0.65
5 -0.65
6 -0.64
7 -0.57
8 -0.85
9 -0.58

>  <PUBCHEM_EFFECTIVE_ROTOR_COUNT>  (1) 
7

>  <PUBCHEM_PHARMACOPHORE_FEATURES>  (1) 
8
1 10 donor
1 11 donor
1 12 donor
1 6 donor
1 8 donor
4 1 13 14 15 hydrophobe
4 9 11 12 20 cation
5 3 7 17 18 19 rings

>  <PUBCHEM_HEAVY_ATOM_COUNT>  (1) 
20

>  <PUBCHEM_ATOM_DEF_STEREO_COUNT>  (1) 
0

>  <PUBCHEM_ATOM_UDEF_STEREO_COUNT>  (1) 
0

>  <PUBCHEM_BOND_DEF_STEREO_COUNT>  (1) 
0

>  <PUBCHEM_BOND_UDEF_STEREO_COUNT>  (1) 
1

>  <PUBCHEM_ISOTOPIC_ATOM_COUNT>  (1) 
0

>  <PUBCHEM_COMPONENT_COUNT>  (1) 
1

>  <PUBCHEM_CACTVS_TAUTO_COUNT>  (1) 
6

>  <PUBCHEM_CONFORMER_ID>  (1) 
00000CFD0000000A

>  <PUBCHEM_MMFF94_ENERGY>  (1) 
44.4409

>  <PUBCHEM_FEATURE_SELFOVERLAP>  (1) 
40.691

>  <PUBCHEM_SHAPE_FINGERPRINT>  (1) 
10708813 3 18410577275202148265
11615756 256 18410013277208011638
12633257 1 18261382317810100558
14178342 30 18266447892396795552
14251764 38 18337953492773789920
14466204 15 18336815464596533658
16760501 71 18339088073611287329
17834072 32 18268712706346022467
19930381 70 17545879790517213875
20621476 7 18049449136542939473
21864079 5 18413106143519843239
22182937 141 18411705378828244515
22749437 52 18340480166199341441
23227448 37 18340206293926713463
23558518 356 18190184666366553303
350125 39 18411141359470066923
474 4 18334010601084824643
5048184 11 18410018766303284149
5939293 188 18340201878410234854
7832392 63 18410853222719810702

>  <PUBCHEM_SHAPE_MULTIPOLES>  (1) 
376.53
8.95
4.09
1.03
1.64
1.23
-0.25
3.53
-0.33
-0.26
-0.18
-0.04
0.16
-0.96

>  <PUBCHEM_SHAPE_SELFOVERLAP>  (1) 
724.05

>  <PUBCHEM_SHAPE_VOLUME>  (1) 
231.3

>  <PUBCHEM_COORDINATE_TYPE>  (1) 
2
5
10

$$$$
