33266
     RDKit          3D

 42 44  0  0  1  0  0  0  0  0999 V2000
   -2.9776    0.1190   -0.3300 O   0  0  0  0  0  0  0  0  0  0  0  0
   -5.5538    0.8201    0.2132 O   0  0  0  0  0  0  0  0  0  0  0  0
   -8.1853    0.0402    1.0750 O   0  0  0  0  0  0  0  0  0  0  0  0
   -0.4850   -0.8158   -1.3433 O   0  0  0  0  0  0  0  0  0  0  0  0
    2.2673   -0.4159    1.5637 O   0  0  0  0  0  0  0  0  0  0  0  0
    8.2315    2.7375    0.4683 O   0  0  0  0  0  0  0  0  0  0  0  0
    4.9787    2.6470   -0.3455 O   0  0  0  0  0  0  0  0  0  0  0  0
    5.2487    1.6926    1.6997 O   0  0  0  0  0  0  0  0  0  0  0  0
   -4.0368   -0.8166   -0.6204 C   0  0  0  0  0  0  0  0  0  0  0  0
   -4.1791   -1.7047    0.6179 C   0  0  0  0  0  0  0  0  0  0  0  0
   -2.7852   -1.6625    1.2156 C   0  0  0  0  0  0  0  0  0  0  0  0
   -5.3118   -0.0335   -0.9075 C   0  0  0  0  0  0  0  0  0  0  0  0
   -2.3963   -0.2139    0.9436 C   0  0  0  0  0  0  0  0  0  0  0  0
   -6.4920   -0.9773   -1.1275 C   0  0  0  0  0  0  0  0  0  0  0  0
   -3.6190   -1.6180   -1.8554 C   0  0  0  0  0  0  0  0  0  0  0  0
   -0.8976    0.0194    0.8863 C   0  0  0  0  0  0  0  0  0  0  0  0
   -7.9838    0.7989   -0.1287 C   0  0  0  0  0  0  0  0  0  0  0  0
   -7.7897   -0.1897   -1.2874 C   0  0  0  0  0  0  0  0  0  0  0  0
   -6.7188    1.6545    0.1014 C   0  0  0  0  0  0  0  0  0  0  0  0
   -2.7410   -2.0508    2.6835 C   0  0  0  0  0  0  0  0  0  0  0  0
   -0.5326    1.4880    0.6230 C   0  0  0  0  0  0  0  0  0  0  0  0
   -0.2359   -0.9031   -0.1399 C   0  0  0  0  0  0  0  0  0  0  0  0
   -9.2414    1.6444   -0.3419 C   0  0  0  0  0  0  0  0  0  0  0  0
   -3.4830   -0.7236   -3.0711 C   0  0  0  0  0  0  0  0  0  0  0  0
   -6.4797    2.7600   -0.9277 C   0  0  0  0  0  0  0  0  0  0  0  0
    0.7657   -1.9321    0.3974 C   0  0  0  0  0  0  0  0  0  0  0  0
    2.1754   -1.2987    0.4411 C   0  0  0  0  0  0  0  0  0  0  0  0
   -1.1457    2.4871    1.5958 C   0  0  0  0  0  0  0  0  0  0  0  0
   -9.4444    2.6247    0.7956 C   0  0  0  0  0  0  0  0  0  0  0  0
    3.3385   -2.3177    0.5492 C   0  0  0  0  0  0  0  0  0  0  0  0
    0.6869   -3.2139   -0.4327 C   0  0  0  0  0  0  0  0  0  0  0  0
    4.7334   -1.6444    0.4992 C   0  0  0  0  0  0  0  0  0  0  0  0
    3.2142   -3.2156    1.7840 C   0  0  0  0  0  0  0  0  0  0  0  0
    4.9889   -0.7676   -0.7321 C   0  0  0  0  0  0  0  0  0  0  0  0
    6.3853   -0.1957   -0.7200 C   0  0  0  0  0  0  0  0  0  0  0  0
    6.6586    1.0321   -0.1170 C   0  0  0  0  0  0  0  0  0  0  0  0
    7.4125   -0.9187   -1.3264 C   0  0  0  0  0  0  0  0  0  0  0  0
    7.9590    1.5367   -0.1200 C   0  0  0  0  0  0  0  0  0  0  0  0
    8.7128   -0.4139   -1.3299 C   0  0  0  0  0  0  0  0  0  0  0  0
    8.9862    0.8137   -0.7266 C   0  0  0  0  0  0  0  0  0  0  0  0
    5.5869    1.7915    0.5185 C   0  0  0  0  0  0  0  0  0  0  0  0
   10.3848    1.3366   -0.7410 C   0  0  0  0  0  0  0  0  0  0  0  0
  1  9  1  0
  1 13  1  0
  2 12  1  0
  2 19  1  0
  3 17  1  0
  4 22  2  0
  5 27  1  0
  6 38  1  0
  7 41  1  0
  8 41  2  0
  9 10  1  0
  9 12  1  0
  9 15  1  0
 10 11  1  0
 11 13  1  0
 11 20  1  0
 12 14  1  0
 13 16  1  0
 14 18  1  0
 15 24  1  0
 16 21  1  0
 16 22  1  0
 17 18  1  0
 17 19  1  0
 17 23  1  0
 19 25  1  0
 21 28  1  0
 22 26  1  0
 23 29  1  0
 26 27  1  0
 26 31  1  0
 27 30  1  0
 30 32  1  0
 30 33  1  0
 32 34  1  0
 34 35  1  0
 35 36  2  0
 35 37  1  0
 36 38  1  0
 36 41  1  0
 37 39  2  0
 38 40  2  0
 39 40  1  0
 40 42  1  0
M  END
>  <PUBCHEM_COMPOUND_CID>  (1) 
33266

>  <PUBCHEM_CONFORMER_RMSD>  (1) 
1.4

>  <PUBCHEM_CONFORMER_DIVERSEORDER>  (1) 
1
191
98
90
41
183
60
161
59
172
42
8
182
49
163
138
52
84
96
95
64
65
33
6
47
67
114
38
151
10
36
149
53
194
11
54
139
71
128
57
104
168
116
185
123
44
173
150
55
19
180
28
192
179
165
112
77
79
58
14
106
108
178
167
155
124
188
160
148
162
164
110
26
40
85
131
97
31
12
82
141
176
158
63
146
83
153
169
50
88
170
69
22
20
125
135
34
76
175
102
174
119
92
140
86
113
73
107
103
181
137
94
100
37
132
7
144
190
136
45
29
120
145
193
70
43
189
115
72
35
157
99
156
91
122
78
51
109
32
111
30
134
126
2
186
4
147
89
118
129
27
23
66
121
177
25
46
48
80
105
130
68
56
93
171
166
13
87
142
74
81
18
127
9
152
154
61
16
5
39
117
62
17
3
24
143
15
187
75
101
21
159
184
133

>  <PUBCHEM_MMFF94_PARTIAL_CHARGES>  (1) 
32
1 -0.56
12 0.28
13 0.28
16 0.06
17 0.28
19 0.28
2 -0.56
22 0.45
26 0.06
27 0.28
3 -0.68
34 0.14
35 -0.14
36 0.09
37 -0.15
38 0.08
39 -0.15
4 -0.57
40 -0.14
41 0.63
42 0.14
5 -0.68
6 -0.53
7 -0.65
70 0.4
8 -0.57
87 0.4
9 0.28
90 0.15
91 0.15
95 0.45
96 0.5

>  <PUBCHEM_EFFECTIVE_ROTOR_COUNT>  (1) 
15.2

>  <PUBCHEM_PHARMACOPHORE_FEATURES>  (1) 
19
1 1 acceptor
1 2 acceptor
1 24 hydrophobe
1 28 hydrophobe
1 29 hydrophobe
1 3 acceptor
1 3 donor
1 31 hydrophobe
1 33 hydrophobe
1 4 acceptor
1 5 acceptor
1 5 donor
1 6 donor
1 7 acceptor
1 8 acceptor
3 7 8 41 anion
5 1 9 10 11 13 rings
6 2 12 14 17 18 19 rings
6 35 36 37 38 39 40 rings

>  <PUBCHEM_HEAVY_ATOM_COUNT>  (1) 
42

>  <PUBCHEM_ATOM_DEF_STEREO_COUNT>  (1) 
10

>  <PUBCHEM_ATOM_UDEF_STEREO_COUNT>  (1) 
0

>  <PUBCHEM_BOND_DEF_STEREO_COUNT>  (1) 
0

>  <PUBCHEM_BOND_UDEF_STEREO_COUNT>  (1) 
0

>  <PUBCHEM_ISOTOPIC_ATOM_COUNT>  (1) 
0

>  <PUBCHEM_COMPONENT_COUNT>  (1) 
1

>  <PUBCHEM_CACTVS_TAUTO_COUNT>  (1) 
39

>  <PUBCHEM_CONFORMER_ID>  (1) 
000081F200000001

>  <PUBCHEM_MMFF94_ENERGY>  (1) 
124.0542

>  <PUBCHEM_FEATURE_SELFOVERLAP>  (1) 
96.495

>  <PUBCHEM_SHAPE_FINGERPRINT>  (1) 
10 15 15502375625420813879
10533779 47 15502646067565473872
10625338 86 16515396383575639284
10835480 77 18113899364041392795
10930396 42 15647055971738287199
11181472 205 18057891247298419675
12664476 115 18408882932754167132
13560911 43 14779548984971437486
13673619 4 13470689239750850826
13811026 1 18060705000369148852
14040221 8 16558757775641395673
14849402 71 18335420163008967437
150020 25 18413112775386821350
15064981 194 18192446375366149014
15198563 99 15195005991020672699
15276724 80 18337387128754138533
15347590 135 15068340081946591589
15351339 4 18341333306794309712
15392192 104 12035453835819973586
15890870 6 18410295831287026378
16992787 43 18334576815777581649
1754911 235 18272369771634148125
17686467 74 18040436603956545181
19302320 297 16153434973958252998
2026 5 11311787159021984188
23576562 1 18128809927330198405
24771293 8 17821727226436069103
25269216 80 17845925334296616623
3383291 50 10447929473170679012
3633792 109 18343587339284151672
4017518 198 15554727772556053325
4093350 32 18411419475276398542
44280117 145 18116721913527663526
4760202 170 18131345319445506632
504579 68 17846780706543945226
5265222 85 18411698786307029495
5937810 71 18200318711012286361
6081469 158 11312047743920877523
6691757 9 15936408987785185491
9961470 85 18048599515425481500
9962374 69 10663808677247712618

>  <PUBCHEM_SHAPE_MULTIPOLES>  (1) 
817.39
32.79
3.19
1.83
17.55
0.1
-0.19
24.32
-8.42
0.77
1.06
-1.23
-0.74
-0.46

>  <PUBCHEM_SHAPE_SELFOVERLAP>  (1) 
1690.347

>  <PUBCHEM_SHAPE_VOLUME>  (1) 
468.4

>  <PUBCHEM_COORDINATE_TYPE>  (1) 
2
5
10

$$$$
