33262
     RDKit          3D

 20 21  0  0  0  0  0  0  0  0999 V2000
    3.4138   -0.2857    0.0134 O   0  0  0  0  0  0  0  0  0  0  0  0
   -1.7132   -0.6162    0.2713 O   0  0  0  0  0  0  0  0  0  0  0  0
    6.7604   -1.2697   -0.1996 O   0  0  0  0  0  0  0  0  0  0  0  0
    4.9075   -2.4270    0.0562 O   0  0  0  0  0  0  0  0  0  0  0  0
   -6.3776   -0.5113   -0.2451 N   0  0  0  0  0  0  0  0  0  0  0  0
   -4.0561   -0.6472    0.3869 N   0  0  0  0  0  0  0  0  0  0  0  0
    5.5006   -1.3178   -0.0858 N   0  0  0  0  0  0  0  0  0  0  0  0
   -1.4036    1.5993    0.2697 N   0  0  0  0  0  0  0  0  0  0  0  0
   -2.7632    1.3581    0.3357 N   0  0  0  0  0  0  0  0  0  0  0  0
    2.8967    0.9583   -0.0414 C   0  0  0  0  0  0  0  0  0  0  0  0
    3.8633    1.9059   -0.2027 C   0  0  0  0  0  0  0  0  0  0  0  0
    1.4844    1.1855    0.0635 C   0  0  0  0  0  0  0  0  0  0  0  0
    4.7581   -0.1358   -0.1164 C   0  0  0  0  0  0  0  0  0  0  0  0
    5.0851    1.1933   -0.2521 C   0  0  0  0  0  0  0  0  0  0  0  0
    0.5642    0.1953    0.1638 C   0  0  0  0  0  0  0  0  0  0  0  0
   -0.8304    0.4191    0.2341 C   0  0  0  0  0  0  0  0  0  0  0  0
   -7.4134    0.2893   -0.8825 C   0  0  0  0  0  0  0  0  0  0  0  0
   -6.7101   -1.8989    0.0457 C   0  0  0  0  0  0  0  0  0  0  0  0
   -5.0760   -0.0507   -0.1484 C   0  0  0  0  0  0  0  0  0  0  0  0
   -2.8906    0.0564    0.3337 C   0  0  0  0  0  0  0  0  0  0  0  0
  1 10  1  0
  1 13  1  0
  2 16  1  0
  2 20  1  0
  3  7  1  0
  4  7  2  0
  5 17  1  0
  5 18  1  0
  5 19  1  0
  6 19  2  0
  6 20  1  0
  7 13  1  0
  8  9  1  0
  8 16  2  0
  9 20  2  0
 10 11  2  0
 10 12  1  0
 11 14  1  0
 12 15  2  0
 13 14  2  0
 15 16  1  0
M  CHG  2   3  -1   7   1
M  END
>  <PUBCHEM_COMPOUND_CID>  (1) 
33262

>  <PUBCHEM_CONFORMER_RMSD>  (1) 
0.8

>  <PUBCHEM_CONFORMER_DIVERSEORDER>  (1) 
1
10
2
12
11
4
8
7
5
3
9
6

>  <PUBCHEM_MMFF94_PARTIAL_CHARGES>  (1) 
25
1 -0.28
10 0.09
11 -0.15
12 -0.11
13 0.22
14 -0.15
15 -0.11
16 0.43
17 0.37
18 0.37
19 0.44
2 -0.28
20 0.6
21 0.15
22 0.15
23 0.15
24 0.15
3 -0.52
31 0.06
4 -0.52
5 -0.79
6 -0.58
7 0.96
8 -0.34
9 -0.34

>  <PUBCHEM_EFFECTIVE_ROTOR_COUNT>  (1) 
5

>  <PUBCHEM_PHARMACOPHORE_FEATURES>  (1) 
8
1 1 acceptor
1 3 acceptor
1 3 anion
1 4 acceptor
3 5 6 19 cation
3 6 9 20 cation
5 1 10 11 13 14 rings
5 2 8 9 16 20 rings

>  <PUBCHEM_HEAVY_ATOM_COUNT>  (1) 
20

>  <PUBCHEM_ATOM_DEF_STEREO_COUNT>  (1) 
0

>  <PUBCHEM_ATOM_UDEF_STEREO_COUNT>  (1) 
0

>  <PUBCHEM_BOND_DEF_STEREO_COUNT>  (1) 
0

>  <PUBCHEM_BOND_UDEF_STEREO_COUNT>  (1) 
2

>  <PUBCHEM_ISOTOPIC_ATOM_COUNT>  (1) 
0

>  <PUBCHEM_COMPONENT_COUNT>  (1) 
1

>  <PUBCHEM_CACTVS_TAUTO_COUNT>  (1) 
1

>  <PUBCHEM_CONFORMER_ID>  (1) 
000081EE00000001

>  <PUBCHEM_MMFF94_ENERGY>  (1) 
36.556

>  <PUBCHEM_FEATURE_SELFOVERLAP>  (1) 
40.824

>  <PUBCHEM_SHAPE_FINGERPRINT>  (1) 
10 15 12031781470376179974
10354089 29 11455890269686213320
11524674 6 16415480476315167927
11719270 70 17989204832946747895
117890 112 8430316831254439424
11858739 19 18408322185364165701
12166972 35 18333453161812295437
12236239 1 18413109472325005089
12670543 26 18261107470384736917
13073987 5 18202001014978180000
13533116 47 18413108372776259272
13668630 136 18411138030422182151
13685833 64 18411982451500075122
13862211 1 18202564008112862767
13964095 4 18040149600955991605
14251740 57 17274271522159506190
14251752 14 18409442571292779077
14251764 18 18131073736136440352
14849402 71 7853561436328120383
15048467 5 8214142949571090007
15183329 4 18187923950527666393
15690457 1 17918268753358472102
16760501 71 10087629421106075475
17857418 61 18273213101384705030
18335252 98 18190185770299567315
200 152 18273496784401899721
20028762 73 18272652325133739294
20621476 8 18333730192341379661
20645477 70 18409169888150968462
21130983 4 10881399824950204991
21150785 3 17022906756852399902
21236236 1 18342177735756417569
21267235 1 18411987957125876626
21344244 78 18059845152934689648
22079108 93 12823293502764439165
221357 26 18261109664849592964
2215653 11 18113058237777642522
22224240 67 11167944671874215813
22956985 138 16913996694532804686
23035841 295 18131353033986685943
23081809 10 18201447986319993529
23402539 116 18272932713536048933
23522609 53 17984734274693131329
23536379 177 18411419523090218001
23559900 14 18338512071052105297
28498 318 18411417285485876077
2916195 48 10663825169937888227
29717793 49 18113621192063045468
3004659 81 18259702302829407344
3014965 18 18335979796456092207
328311 84 18040158422766024691
3472631 163 10881691195494759730
4073 2 17968944226596809106
4214541 1 18338239267345404576
465052 167 18202005455646777068
5104073 3 12894533012906648519
542803 24 12901543555127699825
59755656 215 17676485021313610395
6025842 7 18336552707330236236
6438161 24 17895465952499764674
7495541 125 17489304230304171281

>  <PUBCHEM_SHAPE_MULTIPOLES>  (1) 
363.21
20.01
1.82
0.66
15.21
0.57
-0.04
8.32
-3.61
-1.98
0.01
0.38
-0.05
0.1

>  <PUBCHEM_SHAPE_SELFOVERLAP>  (1) 
768.256

>  <PUBCHEM_SHAPE_VOLUME>  (1) 
205.4

>  <PUBCHEM_COORDINATE_TYPE>  (1) 
2
5
10

$$$$
