33264
     RDKit          3D

  9  8  0  0  0  0  0  0  0  0999 V2000
    1.9909   -1.4859    0.5443 Cl  0  0  0  0  0  0  0  0  0  0  0  0
    1.4151    1.2517    1.3764 Cl  0  0  0  0  0  0  0  0  0  0  0  0
    2.9921    0.7476   -0.9937 Cl  0  0  0  0  0  0  0  0  0  0  0  0
    0.1242    0.1555   -1.1090 S   0  0  0  0  0  0  0  0  0  0  0  0
   -2.0995    0.7258    0.7638 S   0  0  0  0  0  0  0  0  0  0  0  0
   -1.5110   -2.1312    0.0277 S   0  0  0  0  0  0  0  0  0  0  0  0
    1.5900    0.1605   -0.0251 C   0  0  0  0  0  0  0  0  0  0  0  0
   -1.1536   -0.4977   -0.0876 C   0  0  0  0  0  0  0  0  0  0  0  0
   -3.3482    1.0738   -0.4969 C   0  0  0  0  0  0  0  0  0  0  0  0
  1  7  1  0
  2  7  1  0
  3  7  1  0
  4  7  1  0
  4  8  1  0
  5  8  1  0
  5  9  1  0
  6  8  2  0
M  END
>  <PUBCHEM_COMPOUND_CID>  (1) 
33264

>  <PUBCHEM_CONFORMER_RMSD>  (1) 
0.6

>  <PUBCHEM_CONFORMER_DIVERSEORDER>  (1) 
1
13
9
14
12
8
6
7
10
11
2
5
4
3

>  <PUBCHEM_MMFF94_PARTIAL_CHARGES>  (1) 
9
1 -0.29
2 -0.29
3 -0.29
4 -0.37
5 -0.37
6 -0.38
7 1.1
8 0.66
9 0.23

>  <PUBCHEM_EFFECTIVE_ROTOR_COUNT>  (1) 
3

>  <PUBCHEM_PHARMACOPHORE_FEATURES>  (1) 
2
1 6 acceptor
1 9 hydrophobe

>  <PUBCHEM_HEAVY_ATOM_COUNT>  (1) 
9

>  <PUBCHEM_ATOM_DEF_STEREO_COUNT>  (1) 
0

>  <PUBCHEM_ATOM_UDEF_STEREO_COUNT>  (1) 
0

>  <PUBCHEM_BOND_DEF_STEREO_COUNT>  (1) 
0

>  <PUBCHEM_BOND_UDEF_STEREO_COUNT>  (1) 
0

>  <PUBCHEM_ISOTOPIC_ATOM_COUNT>  (1) 
0

>  <PUBCHEM_COMPONENT_COUNT>  (1) 
1

>  <PUBCHEM_CACTVS_TAUTO_COUNT>  (1) 
1

>  <PUBCHEM_CONFORMER_ID>  (1) 
000081F000000001

>  <PUBCHEM_MMFF94_ENERGY>  (1) 
9.9438

>  <PUBCHEM_FEATURE_SELFOVERLAP>  (1) 
10.148

>  <PUBCHEM_SHAPE_FINGERPRINT>  (1) 
12138202 97 18343589555281756383
12932741 1 17988926733486757428
12932764 1 18271527593204039643
14325111 11 18334577902319878941
15775835 57 18409736136148688697
18186145 218 17988635281965961713
18342897 137 17775846826163593551
18511873 20 18265049124506215442
20082192 1 17605251021556237534
20651381 17 17489011657458742079
23235687 12 17749378282948556226
29004967 10 13912320204874590740
3248919 1 17749380511772890731
5084963 1 18269547248229443045

>  <PUBCHEM_SHAPE_MULTIPOLES>  (1) 
202.37
4.65
1.9
1.25
0.78
1.03
0.07
-1.42
-0.66
0.52
0.33
-0.47
-0.38
-0.07

>  <PUBCHEM_SHAPE_SELFOVERLAP>  (1) 
314.17

>  <PUBCHEM_SHAPE_VOLUME>  (1) 
143.1

>  <PUBCHEM_COORDINATE_TYPE>  (1) 
2
5
10

$$$$
