33270
     RDKit          3D

 16 16  0  0  0  0  0  0  0  0999 V2000
    0.0008   -2.0624   -0.7045 O   0  0  0  0  0  0  0  0  0  0  0  0
    4.2212   -0.0722    0.2444 O   0  0  0  0  0  0  0  0  0  0  0  0
   -4.3062   -0.3372    1.3606 O   0  0  0  0  0  0  0  0  0  0  0  0
   -4.2815    1.1825   -0.3348 O   0  0  0  0  0  0  0  0  0  0  0  0
    0.1132    0.2905   -0.2273 C   0  0  0  0  0  0  0  0  0  0  0  0
    0.7268   -0.9516   -0.3902 C   0  0  0  0  0  0  0  0  0  0  0  0
   -1.3265    0.4443   -0.3877 C   0  0  0  0  0  0  0  0  0  0  0  0
    0.8801    1.4106    0.0936 C   0  0  0  0  0  0  0  0  0  0  0  0
    2.1073   -1.0736   -0.2317 C   0  0  0  0  0  0  0  0  0  0  0  0
    2.8741    0.0466    0.0895 C   0  0  0  0  0  0  0  0  0  0  0  0
    2.2604    1.2886    0.2521 C   0  0  0  0  0  0  0  0  0  0  0  0
   -1.7819    0.7726   -1.7904 C   0  0  0  0  0  0  0  0  0  0  0  0
   -2.2295    0.3127    0.6128 C   0  0  0  0  0  0  0  0  0  0  0  0
   -0.5072   -2.8320    0.3826 C   0  0  0  0  0  0  0  0  0  0  0  0
   -3.6950    0.4674    0.4581 C   0  0  0  0  0  0  0  0  0  0  0  0
    4.9440    1.1133    0.5727 C   0  0  0  0  0  0  0  0  0  0  0  0
  1  6  1  0
  1 14  1  0
  2 10  1  0
  2 16  1  0
  3 15  1  0
  4 15  2  0
  5  6  2  0
  5  7  1  0
  5  8  1  0
  6  9  1  0
  7 12  1  0
  7 13  2  0
  8 11  2  0
  9 10  2  0
 10 11  1  0
 13 15  1  0
M  END
>  <PUBCHEM_COMPOUND_CID>  (1) 
33270

>  <PUBCHEM_CONFORMER_RMSD>  (1) 
0.6

>  <PUBCHEM_CONFORMER_DIVERSEORDER>  (1) 
2
11
9
14
3
8
15
7
12
4
10
1
13
5
6

>  <PUBCHEM_MMFF94_PARTIAL_CHARGES>  (1) 
21
1 -0.36
10 0.08
11 -0.15
12 0.14
13 -0.14
14 0.28
15 0.71
16 0.28
17 0.15
18 0.15
19 0.15
2 -0.36
23 0.15
3 -0.65
30 0.5
4 -0.57
5 0.03
6 0.08
7 -0.17
8 -0.15
9 -0.15

>  <PUBCHEM_EFFECTIVE_ROTOR_COUNT>  (1) 
4

>  <PUBCHEM_PHARMACOPHORE_FEATURES>  (1) 
7
1 1 acceptor
1 12 hydrophobe
1 2 acceptor
1 3 acceptor
1 4 acceptor
3 3 4 15 anion
6 5 6 8 9 10 11 rings

>  <PUBCHEM_HEAVY_ATOM_COUNT>  (1) 
16

>  <PUBCHEM_ATOM_DEF_STEREO_COUNT>  (1) 
0

>  <PUBCHEM_ATOM_UDEF_STEREO_COUNT>  (1) 
0

>  <PUBCHEM_BOND_DEF_STEREO_COUNT>  (1) 
0

>  <PUBCHEM_BOND_UDEF_STEREO_COUNT>  (1) 
1

>  <PUBCHEM_ISOTOPIC_ATOM_COUNT>  (1) 
0

>  <PUBCHEM_COMPONENT_COUNT>  (1) 
1

>  <PUBCHEM_CACTVS_TAUTO_COUNT>  (1) 
1

>  <PUBCHEM_CONFORMER_ID>  (1) 
000081F600000002

>  <PUBCHEM_MMFF94_ENERGY>  (1) 
70.1517

>  <PUBCHEM_FEATURE_SELFOVERLAP>  (1) 
35.579

>  <PUBCHEM_SHAPE_FINGERPRINT>  (1) 
11132069 177 18409171021363088071
11471102 20 18342172220073637716
12119455 92 18334289864263829273
12236239 1 17346594162770996157
12251169 10 18334861657502211121
12403814 3 17822003254908932156
13140716 1 18267858579211642424
13380535 76 18343303682153182118
13581323 91 17095241423620427312
13583140 156 16734361924939532876
14787075 74 18059292179630652795
14943859 89 17060338534892551276
15207287 21 17749115478332026651
15219456 202 18115583730203316749
15295992 7 17560235963443150114
15309172 13 18410011035229678343
15502708 68 18338801117713137155
16945 1 18410843366091152044
18175812 5 17967818253833654205
18186145 218 18131352998740711476
200 152 18201991124026894381
20279233 1 18114187398134277417
204376 136 18412262852386854062
20645477 56 18336256929817024116
20645477 70 18127966404691488231
21501502 16 18120654901337652532
22079108 93 18130784611448240929
22224240 67 18411983589756170667
23402539 116 18201991140700374292
23557571 272 17241894181163974917
23558518 356 17830448741403296008
23559900 14 17314231047145577314
25 1 18272363153279364396
2748010 2 18122053205366405876
298252 57 16558750117851655383
33824 294 18337111164125457955
474 4 17416948694759674392
474229 33 18340769342485261699
568465 68 18336845146714589681
633830 44 18059018271975042989
69090 78 18409725192350582922
77492 1 17274813628356674701
81228 2 17759503852742702883
8272917 22 18057329379861223797

>  <PUBCHEM_SHAPE_MULTIPOLES>  (1) 
305.8
7.75
1.96
1.03
1
1.62
0.22
-3.19
-2.43
0.04
0
-0.81
-0.1
0.58

>  <PUBCHEM_SHAPE_SELFOVERLAP>  (1) 
633.445

>  <PUBCHEM_SHAPE_VOLUME>  (1) 
175.8

>  <PUBCHEM_COORDINATE_TYPE>  (1) 
2
5
10

$$$$
