3327
     RDKit          2D

 16 15  0  0  0  0  0  0  0  0999 V2000
    0.0000    0.0000    0.0000 O   0  0  0  0  0  0  0  0  0  0  0  0
    0.0000    0.0000    0.0000 C   0  0  0  0  0  0  0  0  0  0  0  0
    0.0000    0.0000    0.0000 C   0  0  0  0  0  0  0  0  0  0  0  0
    0.0000    0.0000    0.0000 C   0  0  0  0  0  0  0  0  0  0  0  0
    0.0000    0.0000    0.0000 C   0  0  0  0  0  0  0  0  0  0  0  0
    0.0000    0.0000    0.0000 C   0  0  0  0  0  0  0  0  0  0  0  0
    0.0000    0.0000    0.0000 C   0  0  0  0  0  0  0  0  0  0  0  0
    0.0000    0.0000    0.0000 C   0  0  0  0  0  0  0  0  0  0  0  0
    0.0000    0.0000    0.0000 C   0  0  0  0  0  0  0  0  0  0  0  0
    0.0000    0.0000    0.0000 C   0  0  0  0  0  0  0  0  0  0  0  0
    0.0000    0.0000    0.0000 C   0  0  0  0  0  0  0  0  0  0  0  0
    0.0000    0.0000    0.0000 C   0  0  0  0  0  0  0  0  0  0  0  0
    0.0000    0.0000    0.0000 C   0  0  0  0  0  0  0  0  0  0  0  0
    0.0000    0.0000    0.0000 C   0  0  0  0  0  0  0  0  0  0  0  0
    0.0000    0.0000    0.0000 C   0  0  0  0  0  0  0  0  0  0  0  0
    0.0000    0.0000    0.0000 C   0  0  0  0  0  0  0  0  0  0  0  0
  1 14  1  0
  2  4  1  0
  2  6  1  0
  3  5  1  0
  3  7  1  0
  4  7  2  3
  4  9  1  0
  5  8  1  0
  6 10  1  0
  8 12  1  0
  8 13  2  3
 10 11  2  3
 11 15  1  0
 11 16  1  0
 13 14  1  0
M  END
>  <PUBCHEM_COMPOUND_CID>  (1) 
3327

>  <PUBCHEM_CONFORMER_RMSD>  (1) 
0.8

>  <PUBCHEM_CONFORMER_DIVERSEORDER>  (1) 
20
120
209
199
304
92
151
314
166
200
157
137
298
171
193
44
297
272
146
56
239
271
85
234
220
310
282
37
301
307
69
190
87
212
58
203
265
201
144
173
89
181
232
189
296
213
77
14
253
138
215
226
308
80
322
8
243
160
306
317
270
139
257
267
169
264
184
22
244
119
134
248
281
312
309
91
106
141
198
54
162
10
135
250
175
229
258
208
123
100
51
319
238
104
210
4
28
259
194
53
96
63
178
279
274
186
192
305
276
185
163
40
155
127
287
283
191
195
164
113
13
268
207
165
230
206
290
241
59
42
111
6
158
256
2
108
289
153
72
148
205
136
154
280
143
174
273
107
182
64
11
129
116
247
126
95
227
211
235
180
219
147
286
225
183
140
167
36
188
204
23
223
128
300
262
266
302
3
288
252
48
39
65
86
55
12
275
7
202
98
318
245
277
236
233
172
254
67
240
81
82
168
33
291
228
79
70
149
68
242
231
114
221
99
214
61
130
217
320
97
313
196
16
124
84
94
49
83
299
161
131
316
260
24
66
35
74
75
9
5
73
71
112
110
122
90
93
101
60
292
255
284
76
197
237
117
19
303
30
159
62
32
15
293
216
115
142
118
38
88
31
121
170
251
177
105
133
315
156
46
43
269
52
109
224
45
125
263
26
17
150
145
47
222
321
187
50
261
1
57
246
102
179
294
176
132
41
295
249
278
103
218
21
78
25
152
27
311
18
285
34
29

>  <PUBCHEM_MMFF94_PARTIAL_CHARGES>  (1) 
20
1 -0.68
10 -0.29
11 -0.28
12 0.14
13 -0.29
14 0.42
15 0.14
16 0.14
2 0.14
25 0.15
29 0.15
3 0.14
33 0.15
4 -0.28
42 0.4
5 0.14
6 0.14
7 -0.29
8 -0.28
9 0.14

>  <PUBCHEM_EFFECTIVE_ROTOR_COUNT>  (1) 
7

>  <PUBCHEM_PHARMACOPHORE_FEATURES>  (1) 
7
1 1 acceptor
1 1 donor
1 12 hydrophobe
1 9 hydrophobe
3 11 15 16 hydrophobe
4 2 4 6 10 hydrophobe
4 3 5 7 8 hydrophobe

>  <PUBCHEM_HEAVY_ATOM_COUNT>  (1) 
16

>  <PUBCHEM_ATOM_DEF_STEREO_COUNT>  (1) 
0

>  <PUBCHEM_ATOM_UDEF_STEREO_COUNT>  (1) 
0

>  <PUBCHEM_BOND_DEF_STEREO_COUNT>  (1) 
0

>  <PUBCHEM_BOND_UDEF_STEREO_COUNT>  (1) 
2

>  <PUBCHEM_ISOTOPIC_ATOM_COUNT>  (1) 
0

>  <PUBCHEM_COMPONENT_COUNT>  (1) 
1

>  <PUBCHEM_CACTVS_TAUTO_COUNT>  (1) 
1

$$$$
