33287
     RDKit          3D

  9  8  0  0  0  0  0  0  0  0999 V2000
   -0.0042    0.7658   -0.0011 N   0  0  0  0  0  0  0  0  0  0  0  0
   -0.6629   -0.4735    0.5875 C   0  0  0  0  0  0  0  0  0  0  0  0
    1.4975    0.7048    0.2387 C   0  0  0  0  0  0  0  0  0  0  0  0
   -0.5746    2.0089    0.6665 C   0  0  0  0  0  0  0  0  0  0  0  0
   -0.2768    0.8230   -1.4973 C   0  0  0  0  0  0  0  0  0  0  0  0
   -2.1433   -0.4910    0.3935 C   0  0  0  0  0  0  0  0  0  0  0  0
    2.1365   -0.4911   -0.3867 C   0  0  0  0  0  0  0  0  0  0  0  0
   -2.7943   -1.4328   -0.2980 C   0  0  0  0  0  0  0  0  0  0  0  0
    2.8220   -1.4141    0.2967 C   0  0  0  0  0  0  0  0  0  0  0  0
  1  2  1  0
  1  3  1  0
  1  4  1  0
  1  5  1  0
  2  6  1  0
  3  7  1  0
  6  8  2  0
  7  9  2  0
M  CHG  1   1   1
M  END
>  <PUBCHEM_COMPOUND_CID>  (1) 
33287

>  <PUBCHEM_CONFORMER_RMSD>  (1) 
0.6

>  <PUBCHEM_CONFORMER_DIVERSEORDER>  (1) 
2
10
11
6
7
8
12
1
4
13
5
3
9

>  <PUBCHEM_MMFF94_PARTIAL_CHARGES>  (1) 
15
1 -1.01
2 0.64
20 0.15
21 0.15
22 0.15
23 0.15
24 0.15
25 0.15
3 0.64
4 0.5
5 0.5
6 -0.29
7 -0.29
8 -0.3
9 -0.3

>  <PUBCHEM_EFFECTIVE_ROTOR_COUNT>  (1) 
4

>  <PUBCHEM_PHARMACOPHORE_FEATURES>  (1) 
3
1 1 cation
1 8 hydrophobe
1 9 hydrophobe

>  <PUBCHEM_HEAVY_ATOM_COUNT>  (1) 
9

>  <PUBCHEM_ATOM_DEF_STEREO_COUNT>  (1) 
0

>  <PUBCHEM_ATOM_UDEF_STEREO_COUNT>  (1) 
0

>  <PUBCHEM_BOND_DEF_STEREO_COUNT>  (1) 
0

>  <PUBCHEM_BOND_UDEF_STEREO_COUNT>  (1) 
0

>  <PUBCHEM_ISOTOPIC_ATOM_COUNT>  (1) 
0

>  <PUBCHEM_COMPONENT_COUNT>  (1) 
1

>  <PUBCHEM_CACTVS_TAUTO_COUNT>  (1) 
1

>  <PUBCHEM_CONFORMER_ID>  (1) 
0000820700000002

>  <PUBCHEM_MMFF94_ENERGY>  (1) 
23.431

>  <PUBCHEM_FEATURE_SELFOVERLAP>  (1) 
15.223

>  <PUBCHEM_SHAPE_FINGERPRINT>  (1) 
14128692 85 18261119607287036807
20201158 50 18260827137410618546
20653085 51 8574429863378109890
20653091 64 17842571917813991387
20711978 78 18059565923539590900
20711985 344 17677600978165297765
23211744 25 12541264458387927433
23552423 10 18260274048627839944
23552449 11 17986958637948728155
29004967 10 18269271425128981209

>  <PUBCHEM_SHAPE_MULTIPOLES>  (1) 
180.23
3.81
1.8
1.01
0.39
0.42
-0.32
-2.78
0.11
-0.23
0.22
-0.12
0.25
-0.18

>  <PUBCHEM_SHAPE_SELFOVERLAP>  (1) 
325.64

>  <PUBCHEM_SHAPE_VOLUME>  (1) 
116.8

>  <PUBCHEM_COORDINATE_TYPE>  (1) 
2
5
10

$$$$
