33283
     RDKit          3D

 25 26  0  0  1  0  0  0  0  0999 V2000
   -3.2607    1.5561   -1.7768 S   0  0  0  0  0  0  0  0  0  0  0  0
   -0.6324    0.9326   -1.1747 O   0  0  0  0  0  0  0  0  0  0  0  0
   -1.7133    1.8378    1.7968 O   0  0  0  0  0  0  0  0  0  0  0  0
    3.6999    0.3541   -0.3143 N   0  0  0  0  0  0  0  0  0  0  0  0
    0.4596    1.0712    1.4901 N   0  0  0  0  0  0  0  0  0  0  0  0
    2.6137    1.2088    0.3227 C   0  0  0  0  0  0  0  0  0  0  0  0
    4.2689   -0.6011    0.7248 C   0  0  0  0  0  0  0  0  0  0  0  0
    4.8102    1.2533   -0.8386 C   0  0  0  0  0  0  0  0  0  0  0  0
    3.1070   -0.4443   -1.4664 C   0  0  0  0  0  0  0  0  0  0  0  0
    1.4940    0.3203    0.8321 C   0  0  0  0  0  0  0  0  0  0  0  0
    5.3480   -1.4475    0.0858 C   0  0  0  0  0  0  0  0  0  0  0  0
    4.2387    2.2003   -1.8711 C   0  0  0  0  0  0  0  0  0  0  0  0
   -0.9140    1.1545    1.1432 C   0  0  0  0  0  0  0  0  0  0  0  0
   -1.4090    0.3775   -0.1046 C   0  0  0  0  0  0  0  0  0  0  0  0
    0.9016    1.8349    2.6666 C   0  0  0  0  0  0  0  0  0  0  0  0
   -1.2019   -1.1376   -0.0426 C   0  0  0  0  0  0  0  0  0  0  0  0
   -2.9007    0.6896   -0.3844 C   0  0  0  0  0  0  0  0  0  0  0  0
   -0.8938   -1.8081   -1.2037 C   0  0  0  0  0  0  0  0  0  0  0  0
   -1.3312   -1.7709    1.1721 C   0  0  0  0  0  0  0  0  0  0  0  0
   -3.9359    0.3345    0.3802 C   0  0  0  0  0  0  0  0  0  0  0  0
   -5.1478    0.8023   -0.2050 C   0  0  0  0  0  0  0  0  0  0  0  0
   -0.7048   -3.1890   -1.1473 C   0  0  0  0  0  0  0  0  0  0  0  0
   -1.1420   -3.1517    1.2284 C   0  0  0  0  0  0  0  0  0  0  0  0
   -4.9252    1.4829   -1.3818 C   0  0  0  0  0  0  0  0  0  0  0  0
   -0.8288   -3.8607    0.0686 C   0  0  0  0  0  0  0  0  0  0  0  0
  1 17  1  0
  1 24  1  0
  2 14  1  0
  3 13  2  0
  4  6  1  0
  4  7  1  0
  4  8  1  0
  4  9  1  0
  5 10  1  0
  5 13  1  0
  5 15  1  0
  6 10  1  0
  7 11  1  0
  8 12  1  0
 13 14  1  0
 14 16  1  0
 14 17  1  0
 16 18  2  0
 16 19  1  0
 17 20  2  0
 18 22  1  0
 19 23  2  0
 20 21  1  0
 21 24  2  0
 22 25  2  0
 23 25  1  0
M  CHG  1   4   1
M  END
>  <PUBCHEM_COMPOUND_CID>  (1) 
33283

>  <PUBCHEM_CONFORMER_RMSD>  (1) 
1

>  <PUBCHEM_CONFORMER_DIVERSEORDER>  (1) 
13
187
18
100
52
160
144
143
94
137
116
91
32
108
130
158
114
152
112
103
169
113
129
1
81
141
123
34
96
197
106
195
162
182
11
69
142
23
54
46
145
172
128
124
151
167
90
80
99
22
71
181
163
174
88
101
74
189
9
140
180
176
150
139
95
65
15
153
14
185
44
19
45
126
55
166
161
157
173
186
28
82
48
190
21
109
93
49
138
192
119
196
53
78
27
89
146
59
102
171
168
29
175
25
92
87
194
86
191
156
122
178
188
110
62
121
51
199
164
38
179
35
198
125
127
193
118
131
97
64
154
134
37
42
111
149
24
184
155
8
40
56
58
3
147
79
70
159
26
165
63
177
85
135
170
41
98
43
36
67
104
12
20
33
17
183
105
132
6
117
66
107
16
120
133
148
72
10
84
31
136
5
61
76
73
83
75
7
115
30
57
60
39
4
68
2
77
47
50

>  <PUBCHEM_MMFF94_PARTIAL_CHARGES>  (1) 
32
1 -0.08
10 0.3
13 0.57
14 0.66
15 0.3
16 -0.14
17 -0.14
18 -0.15
19 -0.15
2 -0.68
20 -0.15
21 -0.15
22 -0.15
23 -0.15
24 -0.11
25 -0.15
3 -0.57
4 -1.01
46 0.4
47 0.15
48 0.15
49 0.15
5 -0.66
50 0.15
51 0.15
52 0.15
53 0.15
54 0.15
6 0.5
7 0.5
8 0.5
9 0.5

>  <PUBCHEM_EFFECTIVE_ROTOR_COUNT>  (1) 
9

>  <PUBCHEM_PHARMACOPHORE_FEATURES>  (1) 
6
1 2 acceptor
1 2 donor
1 3 acceptor
1 4 cation
5 1 17 20 21 24 rings
6 16 18 19 22 23 25 rings

>  <PUBCHEM_HEAVY_ATOM_COUNT>  (1) 
25

>  <PUBCHEM_ATOM_DEF_STEREO_COUNT>  (1) 
0

>  <PUBCHEM_ATOM_UDEF_STEREO_COUNT>  (1) 
1

>  <PUBCHEM_BOND_DEF_STEREO_COUNT>  (1) 
0

>  <PUBCHEM_BOND_UDEF_STEREO_COUNT>  (1) 
0

>  <PUBCHEM_ISOTOPIC_ATOM_COUNT>  (1) 
0

>  <PUBCHEM_COMPONENT_COUNT>  (1) 
1

>  <PUBCHEM_CACTVS_TAUTO_COUNT>  (1) 
1

>  <PUBCHEM_CONFORMER_ID>  (1) 
000082030000000D

>  <PUBCHEM_MMFF94_ENERGY>  (1) 
89.5325

>  <PUBCHEM_FEATURE_SELFOVERLAP>  (1) 
30.446

>  <PUBCHEM_SHAPE_FINGERPRINT>  (1) 
10366900 7 17275110531240872000
10670039 82 9439124334141209306
10764073 3 14321397822726462338
107951 10 17894916230201966434
10906281 52 17632863057376085856
11370993 70 18334857182162204198
11578080 2 18054509381017068384
12363563 72 17132116853441546632
12553582 1 17560537186938041056
12592029 89 17968938570061466091
12714826 92 18125169478738167610
12788726 201 17846227618051986528
12895836 83 18261110819784436548
12895837 130 17605850333199283396
13149001 5 18129934714777623409
133893 2 17904204724392360083
13583140 156 17749688358286694560
13681431 1 17476054858087583279
14115302 16 18412539921080579520
14787075 74 18342737416912334871
15163728 17 17824272496869961589
15463212 79 17968370268742246320
15775530 1 17768795808655982873
16752209 62 18059857208100442680
17349148 13 17988362564411412044
18769570 83 10231490622665750111
20197701 30 18335413530972606383
20645476 183 18259697917383078435
20832881 197 17703785890899903705
21033650 10 17273161045432957944
22182313 1 17628910433095704624
22393880 68 17915147227922299821
229495 10 13696682850922394425
23227448 37 17968946421129892484
23558518 356 17484262768070323992
23559900 14 18201995573734423568
249057 3 18333449833902879988
3027735 51 18053666875973863840
3298306 158 18337664218247473311
3383291 50 18128815253428489366
340366 18 18187086148531966318
3729539 64 18266741273101998150
3759504 43 18333730238868581991
4015057 19 17560505322365078672
44802255 64 18041287603796169542
59755656 215 18343860044412930623
6138700 20 18197213651088003302
6669772 16 17843088580683538682
81228 2 17689406688617373795

>  <PUBCHEM_SHAPE_MULTIPOLES>  (1) 
496.64
9.6
3.45
1.96
5.48
3.9
-0.53
-4.85
3.73
-0.77
0.23
0.19
-1
0.04

>  <PUBCHEM_SHAPE_SELFOVERLAP>  (1) 
1017.867

>  <PUBCHEM_SHAPE_VOLUME>  (1) 
290.8

>  <PUBCHEM_COORDINATE_TYPE>  (1) 
2
5
10

$$$$
