33288
     RDKit          3D

 18 18  0  0  0  0  0  0  0  0999 V2000
   -3.6354    1.7693   -1.2392 Cl  0  0  0  0  0  0  0  0  0  0  0  0
    0.6985    1.6386    0.6140 O   0  0  0  0  0  0  0  0  0  0  0  0
    2.7323   -0.1102   -0.2940 N   0  0  0  0  0  0  0  0  0  0  0  0
   -1.1699   -3.0117    1.2458 N   0  0  0  0  0  0  0  0  0  0  0  0
    3.0226    1.2244    0.2288 C   0  0  0  0  0  0  0  0  0  0  0  0
    3.8408   -1.0216   -0.0124 C   0  0  0  0  0  0  0  0  0  0  0  0
    2.4725   -0.0506   -1.7319 C   0  0  0  0  0  0  0  0  0  0  0  0
    1.8551    2.1652   -0.0230 C   0  0  0  0  0  0  0  0  0  0  0  0
   -0.4327    2.4753    0.4155 C   0  0  0  0  0  0  0  0  0  0  0  0
   -1.6476    1.8742    1.1137 C   0  0  0  0  0  0  0  0  0  0  0  0
    4.1251   -1.0961    1.4783 C   0  0  0  0  0  0  0  0  0  0  0  0
    2.1089   -1.4195   -2.2814 C   0  0  0  0  0  0  0  0  0  0  0  0
   -2.0151    0.5187    0.5605 C   0  0  0  0  0  0  0  0  0  0  0  0
   -1.4355   -0.5987    1.1450 C   0  0  0  0  0  0  0  0  0  0  0  0
   -2.9037    0.3934   -0.4972 C   0  0  0  0  0  0  0  0  0  0  0  0
   -1.7518   -1.8681    0.6609 C   0  0  0  0  0  0  0  0  0  0  0  0
   -3.2200   -0.8759   -0.9812 C   0  0  0  0  0  0  0  0  0  0  0  0
   -2.6440   -2.0068   -0.4022 C   0  0  0  0  0  0  0  0  0  0  0  0
  1 15  1  0
  2  8  1  0
  2  9  1  0
  3  5  1  0
  3  6  1  0
  3  7  1  0
  4 16  1  0
  5  8  1  0
  6 11  1  0
  7 12  1  0
  9 10  1  0
 10 13  1  0
 13 14  2  0
 13 15  1  0
 14 16  1  0
 15 17  2  0
 16 18  2  0
 17 18  1  0
M  END
>  <PUBCHEM_COMPOUND_CID>  (1) 
33288

>  <PUBCHEM_CONFORMER_RMSD>  (1) 
0.8

>  <PUBCHEM_CONFORMER_DIVERSEORDER>  (1) 
3
38
140
58
101
154
28
163
164
4
77
17
66
153
110
32
113
93
124
161
56
44
165
20
13
181
12
43
6
8
139
116
18
31
145
166
15
126
67
167
183
65
64
5
23
108
57
180
41
36
148
98
7
84
76
141
147
47
33
95
162
54
16
50
29
123
81
125
40
160
11
87
118
60
96
173
143
42
119
104
99
21
172
71
53
48
89
73
103
75
114
134
88
146
132
83
127
149
100
121
69
27
24
45
26
176
130
142
34
138
82
144
51
2
135
62
39
122
30
102
115
74
46
174
106
159
14
22
92
52
86
182
61
178
70
168
97
175
19
136
10
107
80
133
79
90
169
179
59
35
111
25
68
85
55
158
91
129
128
37
131
109
117
177
72
78
9
156
170
112
157
1
63
137
151
94
152
105
150
49
120
171
155

>  <PUBCHEM_MMFF94_PARTIAL_CHARGES>  (1) 
21
1 -0.18
10 0.14
13 -0.14
14 -0.15
15 0.18
16 0.1
17 -0.15
18 -0.15
2 -0.56
3 -0.81
37 0.15
38 0.15
39 0.15
4 -0.9
40 0.4
41 0.4
5 0.27
6 0.27
7 0.27
8 0.28
9 0.28

>  <PUBCHEM_EFFECTIVE_ROTOR_COUNT>  (1) 
8

>  <PUBCHEM_PHARMACOPHORE_FEATURES>  (1) 
5
1 2 acceptor
1 3 cation
1 4 cation
1 4 donor
6 13 14 15 16 17 18 rings

>  <PUBCHEM_HEAVY_ATOM_COUNT>  (1) 
18

>  <PUBCHEM_ATOM_DEF_STEREO_COUNT>  (1) 
0

>  <PUBCHEM_ATOM_UDEF_STEREO_COUNT>  (1) 
0

>  <PUBCHEM_BOND_DEF_STEREO_COUNT>  (1) 
0

>  <PUBCHEM_BOND_UDEF_STEREO_COUNT>  (1) 
0

>  <PUBCHEM_ISOTOPIC_ATOM_COUNT>  (1) 
0

>  <PUBCHEM_COMPONENT_COUNT>  (1) 
1

>  <PUBCHEM_CACTVS_TAUTO_COUNT>  (1) 
1

>  <PUBCHEM_CONFORMER_ID>  (1) 
0000820800000003

>  <PUBCHEM_MMFF94_ENERGY>  (1) 
45.8221

>  <PUBCHEM_FEATURE_SELFOVERLAP>  (1) 
25.372

>  <PUBCHEM_SHAPE_FINGERPRINT>  (1) 
10366900 7 17561075878879420240
12363563 72 18273218616238465350
12553582 1 18270135538569278944
12633257 1 18340771434070856240
12670545 2 18264199232087795325
128993 33 8286208223126626910
1420 336 18055934094593294462
15635459 17 18128547135340029198
17834072 14 18271793627778647984
192875 21 18342164570937343518
19930381 70 17915754072104012711
21665056 4 18260264144786761395
232386 152 18335710390843599696
23559900 14 18341880910228916304
5262128 65 18270974534454806032
81228 2 18057057817073466216
9709674 26 18339921644357403624
9882013 296 12247389124882641184
9925002 15 16393791148814853509

>  <PUBCHEM_SHAPE_MULTIPOLES>  (1) 
356.47
7.2
2.99
1.67
3.92
0.1
0.61
1.11
0.94
-1.18
-0.63
0.67
0.61
0.47

>  <PUBCHEM_SHAPE_SELFOVERLAP>  (1) 
700.529

>  <PUBCHEM_SHAPE_VOLUME>  (1) 
215.5

>  <PUBCHEM_COORDINATE_TYPE>  (1) 
2
5
10

$$$$
