33297
     RDKit          3D

 27 28  0  0  0  0  0  0  0  0999 V2000
    3.6618    0.7522   -0.6817 O   0  0  0  0  0  0  0  0  0  0  0  0
    3.3590   -1.4488   -1.2843 O   0  0  0  0  0  0  0  0  0  0  0  0
   -5.9501   -1.7958   -0.1730 O   0  0  0  0  0  0  0  0  0  0  0  0
   -3.4449   -1.4272    0.5296 O   0  0  0  0  0  0  0  0  0  0  0  0
    7.1236    0.0148    0.3471 N   0  0  0  0  0  0  0  0  0  0  0  0
   -2.5975    0.6600   -0.1444 N   0  0  0  0  0  0  0  0  0  0  0  0
    5.6761    0.1806    0.4747 C   0  0  0  0  0  0  0  0  0  0  0  0
    7.7938    1.3134    0.4038 C   0  0  0  0  0  0  0  0  0  0  0  0
    7.6311   -0.8687    1.3961 C   0  0  0  0  0  0  0  0  0  0  0  0
    5.0676    0.6206   -0.8472 C   0  0  0  0  0  0  0  0  0  0  0  0
    9.2936    1.1659    0.2115 C   0  0  0  0  0  0  0  0  0  0  0  0
    6.9453   -2.2237    1.3522 C   0  0  0  0  0  0  0  0  0  0  0  0
    1.4772   -0.0949   -0.7271 C   0  0  0  0  0  0  0  0  0  0  0  0
    2.9227   -0.3633   -0.9338 C   0  0  0  0  0  0  0  0  0  0  0  0
   -1.2392    0.4081   -0.3394 C   0  0  0  0  0  0  0  0  0  0  0  0
    0.6293   -1.1230   -0.3149 C   0  0  0  0  0  0  0  0  0  0  0  0
    0.9668    1.1847   -0.9453 C   0  0  0  0  0  0  0  0  0  0  0  0
   -0.7288   -0.8716   -0.1210 C   0  0  0  0  0  0  0  0  0  0  0  0
   -0.3914    1.4362   -0.7515 C   0  0  0  0  0  0  0  0  0  0  0  0
   -4.9635    0.3263    0.3551 C   0  0  0  0  0  0  0  0  0  0  0  0
   -3.5916   -0.2388    0.2649 C   0  0  0  0  0  0  0  0  0  0  0  0
   -6.0837   -0.4745    0.1331 C   0  0  0  0  0  0  0  0  0  0  0  0
   -5.1220    1.6767    0.6667 C   0  0  0  0  0  0  0  0  0  0  0  0
   -7.3627    0.0752    0.2225 C   0  0  0  0  0  0  0  0  0  0  0  0
   -6.4010    2.2263    0.7560 C   0  0  0  0  0  0  0  0  0  0  0  0
   -7.5213    1.4256    0.5338 C   0  0  0  0  0  0  0  0  0  0  0  0
   -7.1503   -2.5364   -0.3834 C   0  0  0  0  0  0  0  0  0  0  0  0
  1 10  1  0
  1 14  1  0
  2 14  2  0
  3 22  1  0
  3 27  1  0
  4 21  2  0
  5  7  1  0
  5  8  1  0
  5  9  1  0
  6 15  1  0
  6 21  1  0
  7 10  1  0
  8 11  1  0
  9 12  1  0
 13 14  1  0
 13 16  2  0
 13 17  1  0
 15 18  2  0
 15 19  1  0
 16 18  1  0
 17 19  2  0
 20 21  1  0
 20 22  2  0
 20 23  1  0
 22 24  1  0
 23 25  2  0
 24 26  2  0
 25 26  1  0
M  END
>  <PUBCHEM_COMPOUND_CID>  (1) 
33297

>  <PUBCHEM_CONFORMER_RMSD>  (1) 
1

>  <PUBCHEM_CONFORMER_DIVERSEORDER>  (1) 
21
6
25
56
20
64
44
7
71
30
35
45
10
17
33
52
11
62
48
47
26
3
39
38
28
51
24
5
61
60
40
22
59
54
34
50
31
16
29
68
27
69
49
58
67
70
36
13
18
66
12
46
43
23
1
55
41
8
14
4
37
63
42
2
57
19
65
9
32
53
15

>  <PUBCHEM_MMFF94_PARTIAL_CHARGES>  (1) 
34
1 -0.43
10 0.28
13 0.09
14 0.63
15 0.12
16 -0.15
17 -0.15
18 -0.15
19 -0.15
2 -0.57
20 0.09
21 0.54
22 0.08
23 -0.15
24 -0.15
25 -0.15
26 -0.15
27 0.28
3 -0.36
4 -0.57
42 0.15
43 0.15
44 0.15
45 0.15
46 0.37
47 0.15
48 0.15
49 0.15
5 -0.81
50 0.15
6 -0.55
7 0.27
8 0.27
9 0.27

>  <PUBCHEM_EFFECTIVE_ROTOR_COUNT>  (1) 
11

>  <PUBCHEM_PHARMACOPHORE_FEATURES>  (1) 
7
1 2 acceptor
1 3 acceptor
1 4 acceptor
1 5 cation
1 6 donor
6 13 15 16 17 18 19 rings
6 20 22 23 24 25 26 rings

>  <PUBCHEM_HEAVY_ATOM_COUNT>  (1) 
27

>  <PUBCHEM_ATOM_DEF_STEREO_COUNT>  (1) 
0

>  <PUBCHEM_ATOM_UDEF_STEREO_COUNT>  (1) 
0

>  <PUBCHEM_BOND_DEF_STEREO_COUNT>  (1) 
0

>  <PUBCHEM_BOND_UDEF_STEREO_COUNT>  (1) 
0

>  <PUBCHEM_ISOTOPIC_ATOM_COUNT>  (1) 
0

>  <PUBCHEM_COMPONENT_COUNT>  (1) 
1

>  <PUBCHEM_CACTVS_TAUTO_COUNT>  (1) 
3

>  <PUBCHEM_CONFORMER_ID>  (1) 
0000821100000015

>  <PUBCHEM_MMFF94_ENERGY>  (1) 
84.8788

>  <PUBCHEM_FEATURE_SELFOVERLAP>  (1) 
35.531

>  <PUBCHEM_SHAPE_FINGERPRINT>  (1) 
10 15 18202562882794520844
10066227 49 11386632011158465248
10100884 174 18122057874266226351
10299344 5 18260547827323901704
106641 1 18272089434992484662
10835480 77 17988647350871536217
11315181 36 18411700998367608993
11719270 70 18272654524262204150
13668630 136 13479136782985812680
13685833 64 14056722340417066724
14118638 360 15698010591521956106
14150022 121 18202004283032165136
14251764 18 18261112989148524524
14461889 52 18060421321995684974
15301273 46 18130794443388108356
15461852 350 17203321235114560933
17093844 174 18410578375679029865
1754911 235 12175621767560009048
20105231 36 8862650314573434237
20165401 70 18187356577212559842
20554085 129 17060048225706871534
21130935 74 18341333306014379442
21150785 3 11023821773593240744
21267235 1 9223220846444897629
21792961 116 14056709149849794836
22224240 67 18412544332138619014
23081809 10 18041008361869772909
23559900 14 18273214214815294201
23576562 1 12894483591076767457
246663 6 13334737925368449136
24771293 8 18411141333336506996
4073 2 18334588961982446635
445580 167 11383822762494605418
59682541 35 18272087240564877024
636775 72 17988085487761827633

>  <PUBCHEM_SHAPE_MULTIPOLES>  (1) 
522.21
29.15
2.08
1.05
23.42
0.59
-0.04
-1.4
-9.61
-2.02
-0.25
1.21
0.11
-1.98

>  <PUBCHEM_SHAPE_SELFOVERLAP>  (1) 
1088.974

>  <PUBCHEM_SHAPE_VOLUME>  (1) 
295.8

>  <PUBCHEM_COORDINATE_TYPE>  (1) 
2
5
10

$$$$
