33319
     RDKit          3D

 21 23  0  0  1  0  0  0  0  0999 V2000
   -0.1015    0.0368   -2.1364 S   0  0  0  0  0  0  0  0  0  0  0  0
    4.6723    1.2666   -0.0594 N   0  0  0  0  0  0  0  0  0  0  0  0
   -0.2208    0.4232   -0.3147 C   0  0  0  0  0  0  0  0  0  0  0  0
   -0.0267   -0.9119    0.3891 C   0  0  0  0  0  0  0  0  0  0  0  0
    0.8760    1.4274    0.0412 C   0  0  0  0  0  0  0  0  0  0  0  0
    0.2089   -1.7559   -1.9211 C   0  0  0  0  0  0  0  0  0  0  0  0
    0.1934   -2.0228   -0.4421 C   0  0  0  0  0  0  0  0  0  0  0  0
   -1.5730    1.0074   -0.0521 C   0  0  0  0  0  0  0  0  0  0  0  0
    2.2631    0.8330   -0.1849 C   0  0  0  0  0  0  0  0  0  0  0  0
   -0.0467   -1.0715    1.7782 C   0  0  0  0  0  0  0  0  0  0  0  0
   -0.8555   -2.5421   -2.6794 C   0  0  0  0  0  0  0  0  0  0  0  0
    0.4060   -3.2835    0.1184 C   0  0  0  0  0  0  0  0  0  0  0  0
    3.3526    1.8533    0.1409 C   0  0  0  0  0  0  0  0  0  0  0  0
   -2.6575    0.1659    0.1818 C   0  0  0  0  0  0  0  0  0  0  0  0
   -1.7405    2.3899   -0.0424 C   0  0  0  0  0  0  0  0  0  0  0  0
    0.1556   -2.3356    2.3318 C   0  0  0  0  0  0  0  0  0  0  0  0
    0.3831   -3.4372    1.5049 C   0  0  0  0  0  0  0  0  0  0  0  0
   -3.9182    0.7102    0.4268 C   0  0  0  0  0  0  0  0  0  0  0  0
   -3.0012    2.9342    0.2027 C   0  0  0  0  0  0  0  0  0  0  0  0
   -4.0900    2.0943    0.4373 C   0  0  0  0  0  0  0  0  0  0  0  0
    5.7207    2.2186    0.2794 C   0  0  0  0  0  0  0  0  0  0  0  0
  1  3  1  0
  1  6  1  0
  2 13  1  0
  2 21  1  0
  3  4  1  0
  3  5  1  0
  3  8  1  0
  4  7  2  0
  4 10  1  0
  5  9  1  0
  6  7  1  0
  6 11  1  0
  7 12  1  0
  8 14  2  0
  8 15  1  0
  9 13  1  0
 10 16  2  0
 12 17  2  0
 14 18  1  0
 15 19  2  0
 16 17  1  0
 18 20  2  0
 19 20  1  0
M  END
>  <PUBCHEM_COMPOUND_CID>  (1) 
33319

>  <PUBCHEM_CONFORMER_RMSD>  (1) 
0.8

>  <PUBCHEM_CONFORMER_DIVERSEORDER>  (1) 
1
7
10
9
4
8
18
5
3
19
2
13
11
17
14
12
16
6
15

>  <PUBCHEM_MMFF94_PARTIAL_CHARGES>  (1) 
28
1 -0.46
10 -0.15
12 -0.15
13 0.27
14 -0.15
15 -0.15
16 -0.15
17 -0.15
18 -0.15
19 -0.15
2 -0.9
20 -0.15
21 0.27
27 0.15
3 0.52
31 0.15
34 0.15
35 0.15
36 0.15
37 0.15
38 0.15
39 0.15
4 -0.14
40 0.36
41 0.15
6 0.37
7 -0.14
8 -0.14

>  <PUBCHEM_EFFECTIVE_ROTOR_COUNT>  (1) 
5.6

>  <PUBCHEM_PHARMACOPHORE_FEATURES>  (1) 
5
1 2 cation
1 2 donor
5 1 3 4 6 7 rings
6 4 7 10 12 16 17 rings
6 8 14 15 18 19 20 rings

>  <PUBCHEM_HEAVY_ATOM_COUNT>  (1) 
21

>  <PUBCHEM_ATOM_DEF_STEREO_COUNT>  (1) 
0

>  <PUBCHEM_ATOM_UDEF_STEREO_COUNT>  (1) 
2

>  <PUBCHEM_BOND_DEF_STEREO_COUNT>  (1) 
0

>  <PUBCHEM_BOND_UDEF_STEREO_COUNT>  (1) 
0

>  <PUBCHEM_ISOTOPIC_ATOM_COUNT>  (1) 
0

>  <PUBCHEM_COMPONENT_COUNT>  (1) 
1

>  <PUBCHEM_CACTVS_TAUTO_COUNT>  (1) 
1

>  <PUBCHEM_CONFORMER_ID>  (1) 
0000822700000001

>  <PUBCHEM_MMFF94_ENERGY>  (1) 
57.3885

>  <PUBCHEM_FEATURE_SELFOVERLAP>  (1) 
25.43

>  <PUBCHEM_SHAPE_FINGERPRINT>  (1) 
107951 10 18335715948658180334
10922049 32 18341337733840389844
10948715 1 18341897363699403012
11640471 11 12961149068639183643
12035759 4 18053911109336435919
12716301 132 17608694704838267290
12788726 201 18124299765109129538
12930653 34 18260555489661933745
13004483 165 17548696739360420954
14178342 30 17895778217954582153
14713325 29 17987233524419590926
14817 1 13515833880878750566
15664445 248 17335069953482218111
15906896 17 18195811983988600614
16945 1 18263922133788345263
20101258 96 17620762017142723448
20197701 30 18411135827214787412
20567600 347 18336276660426978069
20600515 1 16460237943268448532
20602899 9 16773528732385902630
20905425 154 17832710075817927876
21524375 3 18413108363770125780
21756936 100 18335976571510893512
232386 152 17395865258954962467
23419403 2 17551285835445279950
23559900 14 17624134897972722893
23728640 28 18267021842109102018
298252 57 18060419122834824452
3411729 13 18195249914657144369
394222 165 18269272348641967344
469060 322 14852715002847163128
484985 159 17897999386135547466
59755656 520 18186799210446739928
6138700 20 18122070793611306982
68419 9 17768203012695317903
7364860 26 18121502349782465993
81228 2 17764566000034854849
81539 233 18335984151542556373
9841814 1 17616543856688433625

>  <PUBCHEM_SHAPE_MULTIPOLES>  (1) 
431.04
6.41
4.26
1.96
6.19
2.16
0.72
-9.81
-1.26
0.73
-0.71
-0.13
2.28
-0.5

>  <PUBCHEM_SHAPE_SELFOVERLAP>  (1) 
906.151

>  <PUBCHEM_SHAPE_VOLUME>  (1) 
244.9

>  <PUBCHEM_COORDINATE_TYPE>  (1) 
2
5
10

$$$$
