33317
     RDKit          3D

 23 25  0  0  1  0  0  0  0  0999 V2000
   -0.3684    0.1882   -2.0392 S   0  0  0  0  0  0  0  0  0  0  0  0
    4.3146   -1.5408   -0.2217 N   0  0  0  0  0  0  0  0  0  0  0  0
   -0.5339   -0.4429   -0.2942 C   0  0  0  0  0  0  0  0  0  0  0  0
    0.1108    1.9060   -1.5701 C   0  0  0  0  0  0  0  0  0  0  0  0
   -0.2963    0.7689    0.5944 C   0  0  0  0  0  0  0  0  0  0  0  0
    0.0313    1.9683   -0.0618 C   0  0  0  0  0  0  0  0  0  0  0  0
    0.5167   -1.5310   -0.0695 C   0  0  0  0  0  0  0  0  0  0  0  0
   -1.9121   -1.0022   -0.1330 C   0  0  0  0  0  0  0  0  0  0  0  0
    1.9278   -0.9852   -0.2679 C   0  0  0  0  0  0  0  0  0  0  0  0
   -0.8758    2.8715   -2.2350 C   0  0  0  0  0  0  0  0  0  0  0  0
    1.5396    2.1530   -2.0656 C   0  0  0  0  0  0  0  0  0  0  0  0
   -0.3775    0.7333    1.9907 C   0  0  0  0  0  0  0  0  0  0  0  0
    0.2706    3.1246    0.6865 C   0  0  0  0  0  0  0  0  0  0  0  0
    2.9724   -2.0694   -0.0089 C   0  0  0  0  0  0  0  0  0  0  0  0
   -3.0200   -0.2065   -0.4139 C   0  0  0  0  0  0  0  0  0  0  0  0
   -2.0808   -2.3161    0.2967 C   0  0  0  0  0  0  0  0  0  0  0  0
   -0.1398    1.8922    2.7285 C   0  0  0  0  0  0  0  0  0  0  0  0
    0.1829    3.0840    2.0784 C   0  0  0  0  0  0  0  0  0  0  0  0
   -4.3049   -0.7280   -0.2639 C   0  0  0  0  0  0  0  0  0  0  0  0
   -3.3659   -2.8376    0.4466 C   0  0  0  0  0  0  0  0  0  0  0  0
   -4.4779   -2.0434    0.1663 C   0  0  0  0  0  0  0  0  0  0  0  0
    5.3193   -2.5839   -0.0075 C   0  0  0  0  0  0  0  0  0  0  0  0
    4.5672   -0.4031    0.6643 C   0  0  0  0  0  0  0  0  0  0  0  0
  1  3  1  0
  1  4  1  0
  2 14  1  0
  2 22  1  0
  2 23  1  0
  3  5  1  0
  3  7  1  0
  3  8  1  0
  4  6  1  0
  4 10  1  0
  4 11  1  0
  5  6  2  0
  5 12  1  0
  6 13  1  0
  7  9  1  0
  8 15  2  0
  8 16  1  0
  9 14  1  0
 12 17  2  0
 13 18  2  0
 15 19  1  0
 16 20  2  0
 17 18  1  0
 19 21  2  0
 20 21  1  0
M  END
>  <PUBCHEM_COMPOUND_CID>  (1) 
33317

>  <PUBCHEM_CONFORMER_RMSD>  (1) 
0.8

>  <PUBCHEM_CONFORMER_DIVERSEORDER>  (1) 
3
17
21
6
22
14
10
1
16
13
12
27
20
19
15
2
26
7
5
28
4
24
23
18
9
11
8
25

>  <PUBCHEM_MMFF94_PARTIAL_CHARGES>  (1) 
28
1 -0.46
12 -0.15
13 -0.15
14 0.27
15 -0.15
16 -0.15
17 -0.15
18 -0.15
19 -0.15
2 -0.81
20 -0.15
21 -0.15
22 0.27
23 0.27
3 0.52
34 0.15
35 0.15
38 0.15
39 0.15
4 0.37
40 0.15
41 0.15
42 0.15
43 0.15
44 0.15
5 -0.14
6 -0.14
8 -0.14

>  <PUBCHEM_EFFECTIVE_ROTOR_COUNT>  (1) 
5.6

>  <PUBCHEM_PHARMACOPHORE_FEATURES>  (1) 
5
1 2 cation
3 4 10 11 hydrophobe
5 1 3 4 5 6 rings
6 5 6 12 13 17 18 rings
6 8 15 16 19 20 21 rings

>  <PUBCHEM_HEAVY_ATOM_COUNT>  (1) 
23

>  <PUBCHEM_ATOM_DEF_STEREO_COUNT>  (1) 
0

>  <PUBCHEM_ATOM_UDEF_STEREO_COUNT>  (1) 
1

>  <PUBCHEM_BOND_DEF_STEREO_COUNT>  (1) 
0

>  <PUBCHEM_BOND_UDEF_STEREO_COUNT>  (1) 
0

>  <PUBCHEM_ISOTOPIC_ATOM_COUNT>  (1) 
0

>  <PUBCHEM_COMPONENT_COUNT>  (1) 
1

>  <PUBCHEM_CACTVS_TAUTO_COUNT>  (1) 
1

>  <PUBCHEM_CONFORMER_ID>  (1) 
0000822500000003

>  <PUBCHEM_MMFF94_ENERGY>  (1) 
75.7159

>  <PUBCHEM_FEATURE_SELFOVERLAP>  (1) 
25.429

>  <PUBCHEM_SHAPE_FINGERPRINT>  (1) 
10764073 3 16772408205103345929
11045515 52 18113902637032916486
11578080 2 18340758317004019737
11582403 64 15405259310850465145
11833330 49 17895187762365725460
12082328 90 17844819080282394174
12592029 89 17537173805718926724
13004483 165 18262509295664674242
13132413 78 18202006503940732529
13134695 92 18130500942059687919
13294875 104 17626391477610189601
13544653 18 18341612633122144854
14142880 1 17981604858399111372
14817 1 17271755813173309896
14863182 85 16824454000332493455
14955137 171 17987248878880623159
15131766 46 15408888593467231378
15238133 3 17986980525819545803
16945 1 18198910407908822869
17980427 23 16630814300859967739
17980427 26 17483947551614777805
1813 80 18114174272112931778
20600515 1 18339655468170408735
21452121 71 18260559930162011790
2306618 200 18192427464266318322
23175994 123 18272368676744827211
23352939 185 18334303071536230164
23419403 2 18127948923589465765
23557571 272 18268711615366736094
23559900 14 18117268367281522463
283562 15 18338798884362324674
298252 57 16741437522397461437
469060 322 18114185173288451338
497634 4 18267313036955941710
5895379 119 15982334446084198987
59755656 520 17620760483833409446
7364860 26 18196934602751672339
81228 2 18049746043099800294

>  <PUBCHEM_SHAPE_MULTIPOLES>  (1) 
472.2
7.03
4.1
2.12
4.18
1.4
0.25
-9.77
0.2
0.76
0.38
0.09
2.59
0.28

>  <PUBCHEM_SHAPE_SELFOVERLAP>  (1) 
991.424

>  <PUBCHEM_SHAPE_VOLUME>  (1) 
270.5

>  <PUBCHEM_COORDINATE_TYPE>  (1) 
2
5
10

$$$$
