33313
     RDKit          3D

 20 22  0  0  1  0  0  0  0  0999 V2000
    0.0920    0.2165    2.2640 S   0  0  0  0  0  0  0  0  0  0  0  0
   -4.5874    1.3127   -0.0908 N   0  0  0  0  0  0  0  0  0  0  0  0
    0.2644    0.3475    0.4060 C   0  0  0  0  0  0  0  0  0  0  0  0
   -0.7862    1.3297   -0.1122 C   0  0  0  0  0  0  0  0  0  0  0  0
    0.0336   -1.0647   -0.1122 C   0  0  0  0  0  0  0  0  0  0  0  0
   -0.2586   -2.0334    0.8605 C   0  0  0  0  0  0  0  0  0  0  0  0
    1.6431    0.8428    0.1028 C   0  0  0  0  0  0  0  0  0  0  0  0
   -0.3074   -1.5591    2.2770 C   0  0  0  0  0  0  0  0  0  0  0  0
   -2.1993    0.8192    0.1560 C   0  0  0  0  0  0  0  0  0  0  0  0
    0.0903   -1.4273   -1.4604 C   0  0  0  0  0  0  0  0  0  0  0  0
   -3.2428    1.8214   -0.3344 C   0  0  0  0  0  0  0  0  0  0  0  0
   -0.4894   -3.3572    0.4911 C   0  0  0  0  0  0  0  0  0  0  0  0
    2.7002   -0.0598    0.0162 C   0  0  0  0  0  0  0  0  0  0  0  0
    1.8633    2.2041   -0.0920 C   0  0  0  0  0  0  0  0  0  0  0  0
   -0.1398   -2.7536   -1.8279 C   0  0  0  0  0  0  0  0  0  0  0  0
   -0.4283   -3.7148   -0.8559 C   0  0  0  0  0  0  0  0  0  0  0  0
    3.9856    0.4019   -0.2667 C   0  0  0  0  0  0  0  0  0  0  0  0
    3.1489    2.6656   -0.3751 C   0  0  0  0  0  0  0  0  0  0  0  0
    4.2100    1.7644   -0.4624 C   0  0  0  0  0  0  0  0  0  0  0  0
   -5.5922    2.2440   -0.5837 C   0  0  0  0  0  0  0  0  0  0  0  0
  1  3  1  0
  1  8  1  0
  2 11  1  0
  2 20  1  0
  3  4  1  0
  3  5  1  0
  3  7  1  0
  4  9  1  0
  5  6  2  0
  5 10  1  0
  6  8  1  0
  6 12  1  0
  7 13  2  0
  7 14  1  0
  9 11  1  0
 10 15  2  0
 12 16  2  0
 13 17  1  0
 14 18  2  0
 15 16  1  0
 17 19  2  0
 18 19  1  0
M  END
>  <PUBCHEM_COMPOUND_CID>  (1) 
33313

>  <PUBCHEM_CONFORMER_RMSD>  (1) 
0.8

>  <PUBCHEM_CONFORMER_DIVERSEORDER>  (1) 
2
3
9
6
8
10
7
11
5
4
1

>  <PUBCHEM_MMFF94_PARTIAL_CHARGES>  (1) 
28
1 -0.46
10 -0.15
11 0.27
12 -0.15
13 -0.15
14 -0.15
15 -0.15
16 -0.15
17 -0.15
18 -0.15
19 -0.15
2 -0.9
20 0.27
27 0.15
3 0.52
30 0.15
31 0.15
32 0.15
33 0.15
34 0.15
35 0.36
36 0.15
37 0.15
38 0.15
5 -0.14
6 -0.14
7 -0.14
8 0.37

>  <PUBCHEM_EFFECTIVE_ROTOR_COUNT>  (1) 
5.6

>  <PUBCHEM_PHARMACOPHORE_FEATURES>  (1) 
5
1 2 cation
1 2 donor
5 1 3 5 6 8 rings
6 5 6 10 12 15 16 rings
6 7 13 14 17 18 19 rings

>  <PUBCHEM_HEAVY_ATOM_COUNT>  (1) 
20

>  <PUBCHEM_ATOM_DEF_STEREO_COUNT>  (1) 
0

>  <PUBCHEM_ATOM_UDEF_STEREO_COUNT>  (1) 
1

>  <PUBCHEM_BOND_DEF_STEREO_COUNT>  (1) 
0

>  <PUBCHEM_BOND_UDEF_STEREO_COUNT>  (1) 
0

>  <PUBCHEM_ISOTOPIC_ATOM_COUNT>  (1) 
0

>  <PUBCHEM_COMPONENT_COUNT>  (1) 
1

>  <PUBCHEM_CACTVS_TAUTO_COUNT>  (1) 
1

>  <PUBCHEM_CONFORMER_ID>  (1) 
0000822100000002

>  <PUBCHEM_MMFF94_ENERGY>  (1) 
54.5835

>  <PUBCHEM_FEATURE_SELFOVERLAP>  (1) 
25.431

>  <PUBCHEM_SHAPE_FINGERPRINT>  (1) 
10764073 3 16734376102156884443
10871710 139 17037846078853128629
10922049 32 18334581239156215441
10948715 1 18334577957753468691
11421498 54 17774166695736248729
11488393 25 18198075689789935443
12293681 4 17538005049632278635
12592029 89 18337390418208100147
12730499 353 18336274431914341345
12788726 201 17904189674457767515
13149001 5 17416679344143233425
13681431 1 17693659216866605971
14251751 93 18341608261293369503
14817 1 10763891666936010803
15131766 46 14925654409943794732
15502722 9 18196937660836842085
15849732 13 18191569884025452138
15906896 17 18191307284702104050
16945 1 18267298922986382026
20197701 30 18411414012177763137
20567600 347 18335425612783863397
20600515 1 16385880772190409809
20602899 9 17703523159023056046
20645477 70 18122055413354337173
21054139 6 18200573866428725365
21285901 2 17699582634046103679
21524375 3 18334856108320516768
23419403 2 17762387631308736411
23558518 356 17683236237536134648
23598288 3 17898587624439312052
298252 57 18411134736176764176
3060560 45 18338231561815191252
34934 24 18334293202187161128
38695281 34 18339920420666173437
4175511 376 18120948200117034691
6025842 7 18266732486163166285
6138700 20 18123194490057560550
68419 9 17756104055531124866
69090 78 18336827588688193432
7364860 26 18121497951820266341
81228 2 17758943101965478969
81539 233 18336544898451840693
8272917 22 18195809570681619597
9999458 23 17386007209029451512

>  <PUBCHEM_SHAPE_MULTIPOLES>  (1) 
410.46
6.68
4.16
1.6
4.83
3.19
0.78
-9.51
-2.07
1.61
-1.22
0.2
1.09
0.18

>  <PUBCHEM_SHAPE_SELFOVERLAP>  (1) 
865.385

>  <PUBCHEM_SHAPE_VOLUME>  (1) 
232.5

>  <PUBCHEM_COORDINATE_TYPE>  (1) 
2
5
10

$$$$
