33321
     RDKit          3D

 20 21  0  0  1  0  0  0  0  0999 V2000
    0.6956    0.8700   -1.8733 S   0  0  0  0  0  0  0  0  0  0  0  0
    1.0244    3.4264    0.7107 O   0  0  0  0  0  0  0  0  0  0  0  0
   -4.1706   -0.3121   -0.2603 N   0  0  0  0  0  0  0  0  0  0  0  0
    2.7478    2.2103   -0.2086 N   0  0  0  0  0  0  0  0  0  0  0  0
    0.5567    1.2165   -0.0758 C   0  0  0  0  0  0  0  0  0  0  0  0
    1.2754   -0.8710   -1.6778 C   0  0  0  0  0  0  0  0  0  0  0  0
    1.0368   -0.0228    0.6342 C   0  0  0  0  0  0  0  0  0  0  0  0
    1.4072   -1.0997   -0.1890 C   0  0  0  0  0  0  0  0  0  0  0  0
   -0.8972    1.5508    0.2559 C   0  0  0  0  0  0  0  0  0  0  0  0
   -1.8359    0.4300   -0.1827 C   0  0  0  0  0  0  0  0  0  0  0  0
    2.6215   -1.0069   -2.3965 C   0  0  0  0  0  0  0  0  0  0  0  0
    0.2241   -1.7974   -2.2970 C   0  0  0  0  0  0  0  0  0  0  0  0
    1.4460    2.3949    0.1934 C   0  0  0  0  0  0  0  0  0  0  0  0
    1.1240   -0.1420    2.0239 C   0  0  0  0  0  0  0  0  0  0  0  0
    1.8594   -2.2909    0.3854 C   0  0  0  0  0  0  0  0  0  0  0  0
   -3.2829    0.7567    0.1824 C   0  0  0  0  0  0  0  0  0  0  0  0
    1.5779   -1.3332    2.5899 C   0  0  0  0  0  0  0  0  0  0  0  0
    1.9438   -2.4043    1.7734 C   0  0  0  0  0  0  0  0  0  0  0  0
   -5.5631    0.0099    0.0569 C   0  0  0  0  0  0  0  0  0  0  0  0
   -3.7912   -1.5852    0.3548 C   0  0  0  0  0  0  0  0  0  0  0  0
  1  5  1  0
  1  6  1  0
  2 13  2  0
  3 16  1  0
  3 19  1  0
  3 20  1  0
  4 13  1  0
  5  7  1  0
  5  9  1  0
  5 13  1  0
  6  8  1  0
  6 11  1  0
  6 12  1  0
  7  8  2  0
  7 14  1  0
  8 15  1  0
  9 10  1  0
 10 16  1  0
 14 17  2  0
 15 18  2  0
 17 18  1  0
M  END
>  <PUBCHEM_COMPOUND_CID>  (1) 
33321

>  <PUBCHEM_CONFORMER_RMSD>  (1) 
0.8

>  <PUBCHEM_CONFORMER_DIVERSEORDER>  (1) 
1
16
10
18
23
3
8
9
4
25
17
24
20
13
5
19
7
14
12
21
2
11
6
15
22

>  <PUBCHEM_MMFF94_PARTIAL_CHARGES>  (1) 
22
1 -0.46
13 0.57
14 -0.15
15 -0.15
16 0.27
17 -0.15
18 -0.15
19 0.27
2 -0.57
20 0.27
3 -0.81
31 0.15
32 0.15
35 0.15
36 0.15
37 0.37
38 0.37
4 -0.8
5 0.43
6 0.37
7 -0.14
8 -0.14

>  <PUBCHEM_EFFECTIVE_ROTOR_COUNT>  (1) 
5.6

>  <PUBCHEM_PHARMACOPHORE_FEATURES>  (1) 
6
1 2 acceptor
1 3 cation
1 4 donor
3 6 11 12 hydrophobe
5 1 5 6 7 8 rings
6 7 8 14 15 17 18 rings

>  <PUBCHEM_HEAVY_ATOM_COUNT>  (1) 
20

>  <PUBCHEM_ATOM_DEF_STEREO_COUNT>  (1) 
0

>  <PUBCHEM_ATOM_UDEF_STEREO_COUNT>  (1) 
1

>  <PUBCHEM_BOND_DEF_STEREO_COUNT>  (1) 
0

>  <PUBCHEM_BOND_UDEF_STEREO_COUNT>  (1) 
0

>  <PUBCHEM_ISOTOPIC_ATOM_COUNT>  (1) 
0

>  <PUBCHEM_COMPONENT_COUNT>  (1) 
1

>  <PUBCHEM_CACTVS_TAUTO_COUNT>  (1) 
2

>  <PUBCHEM_CONFORMER_ID>  (1) 
0000822900000001

>  <PUBCHEM_MMFF94_ENERGY>  (1) 
60.1019

>  <PUBCHEM_FEATURE_SELFOVERLAP>  (1) 
30.504

>  <PUBCHEM_SHAPE_FINGERPRINT>  (1) 
10610426 29 16880458286638800210
11578080 2 17242152579424186372
12423570 1 14136170872796271004
12553582 1 18196384623825974483
12616999 72 16371301012347004363
14787075 74 18187088326212409634
14817 1 13322114247443506082
14863182 85 17313105301793897003
15852999 172 16518258403541944670
16945 1 18335965533070181728
17492 54 18127439871575995916
18721546 61 17264401532208632350
19078846 21 18193563272763076217
20369508 70 18334849490513943731
20600515 1 17763448531228143616
20602899 9 16554284047960357996
20645477 70 18272091626048278669
21421861 104 18334860481114195865
21452121 71 18042123150706874098
21524375 3 18053099806999450417
21731516 1 18118416055103082201
22112679 90 17467370927840885168
23352939 185 17273723999791467236
23419403 2 17546218311286310820
23559900 14 17989213620939932285
238 59 17168730590482723603
25222932 49 17830449841448719435
298252 57 17843127166986509412
394222 165 18197771309599401713
4175511 335 17458348537207508599
54040823 5 18411991234296946590
7364860 26 18335134306416106769
81228 2 17337023794145351561
9841814 1 18410575050873274041
9999458 23 17604423132514322396

>  <PUBCHEM_SHAPE_MULTIPOLES>  (1) 
399.61
6.05
2.92
2.32
13.39
1.33
0.52
-1.76
0.06
-2.1
-0.96
-2.29
-1.21
-0.3

>  <PUBCHEM_SHAPE_SELFOVERLAP>  (1) 
820.072

>  <PUBCHEM_SHAPE_VOLUME>  (1) 
235.9

>  <PUBCHEM_COORDINATE_TYPE>  (1) 
2
5
10

$$$$
