33327
     RDKit          3D

 26 28  0  0  1  0  0  0  0  0999 V2000
   -0.3805    0.1053   -1.8684 S   0  0  0  0  0  0  0  0  0  0  0  0
    1.1129    2.2968    0.6308 O   0  0  0  0  0  0  0  0  0  0  0  0
    2.0192    0.2974   -0.2162 N   0  0  0  0  0  0  0  0  0  0  0  0
   -5.2126    1.5471   -0.3677 N   0  0  0  0  0  0  0  0  0  0  0  0
   -0.3461    0.5674   -0.0920 C   0  0  0  0  0  0  0  0  0  0  0  0
   -0.7331   -1.6835   -1.5834 C   0  0  0  0  0  0  0  0  0  0  0  0
   -0.5432   -0.7096    0.6832 C   0  0  0  0  0  0  0  0  0  0  0  0
   -0.7430   -1.8704   -0.0830 C   0  0  0  0  0  0  0  0  0  0  0  0
   -1.4506    1.5885    0.1783 C   0  0  0  0  0  0  0  0  0  0  0  0
   -2.8153    1.0514   -0.2445 C   0  0  0  0  0  0  0  0  0  0  0  0
    1.0053    1.1702    0.1577 C   0  0  0  0  0  0  0  0  0  0  0  0
   -2.0987   -2.0056   -2.1981 C   0  0  0  0  0  0  0  0  0  0  0  0
    0.3783   -2.4990   -2.2517 C   0  0  0  0  0  0  0  0  0  0  0  0
   -0.5374   -0.7845    2.0787 C   0  0  0  0  0  0  0  0  0  0  0  0
   -0.9396   -3.0989    0.5539 C   0  0  0  0  0  0  0  0  0  0  0  0
   -3.9179    2.0642    0.0596 C   0  0  0  0  0  0  0  0  0  0  0  0
   -0.7323   -2.0142    2.7073 C   0  0  0  0  0  0  0  0  0  0  0  0
   -0.9333   -3.1675    1.9474 C   0  0  0  0  0  0  0  0  0  0  0  0
    3.4154    0.5123   -0.1309 C   0  0  0  0  0  0  0  0  0  0  0  0
   -5.5131    0.2852    0.3108 C   0  0  0  0  0  0  0  0  0  0  0  0
   -6.2696    2.5265   -0.1095 C   0  0  0  0  0  0  0  0  0  0  0  0
    4.2814   -0.4814   -0.5565 C   0  0  0  0  0  0  0  0  0  0  0  0
    3.8863    1.7123    0.3753 C   0  0  0  0  0  0  0  0  0  0  0  0
    5.6574   -0.2690   -0.4734 C   0  0  0  0  0  0  0  0  0  0  0  0
    5.2624    1.9249    0.4583 C   0  0  0  0  0  0  0  0  0  0  0  0
    6.1479    0.9342    0.0340 C   0  0  0  0  0  0  0  0  0  0  0  0
  1  5  1  0
  1  6  1  0
  2 11  2  0
  3 11  1  0
  3 19  1  0
  4 16  1  0
  4 20  1  0
  4 21  1  0
  5  7  1  0
  5  9  1  0
  5 11  1  0
  6  8  1  0
  6 12  1  0
  6 13  1  0
  7  8  2  0
  7 14  1  0
  8 15  1  0
  9 10  1  0
 10 16  1  0
 14 17  2  0
 15 18  2  0
 17 18  1  0
 19 22  2  0
 19 23  1  0
 22 24  1  0
 23 25  2  0
 24 26  2  0
 25 26  1  0
M  END
>  <PUBCHEM_COMPOUND_CID>  (1) 
33327

>  <PUBCHEM_CONFORMER_RMSD>  (1) 
0.8

>  <PUBCHEM_CONFORMER_DIVERSEORDER>  (1) 
2
15
32
16
27
59
55
47
39
20
49
41
38
54
30
51
58
57
1
6
53
43
46
45
37
52
31
40
9
33
23
35
48
34
21
44
56
29
12
10
24
28
25
22
17
5
50
14
11
42
3
18
19
7
26
4
8
36
13

>  <PUBCHEM_MMFF94_PARTIAL_CHARGES>  (1) 
32
1 -0.46
11 0.57
14 -0.15
15 -0.15
16 0.27
17 -0.15
18 -0.15
19 0.12
2 -0.57
20 0.27
21 0.27
22 -0.15
23 -0.15
24 -0.15
25 -0.15
26 -0.15
3 -0.55
37 0.15
38 0.15
4 -0.81
41 0.15
42 0.15
43 0.37
5 0.43
50 0.15
51 0.15
52 0.15
53 0.15
54 0.15
6 0.37
7 -0.14
8 -0.14

>  <PUBCHEM_EFFECTIVE_ROTOR_COUNT>  (1) 
7.6

>  <PUBCHEM_PHARMACOPHORE_FEATURES>  (1) 
7
1 2 acceptor
1 3 donor
1 4 cation
3 6 12 13 hydrophobe
5 1 5 6 7 8 rings
6 19 22 23 24 25 26 rings
6 7 8 14 15 17 18 rings

>  <PUBCHEM_HEAVY_ATOM_COUNT>  (1) 
26

>  <PUBCHEM_ATOM_DEF_STEREO_COUNT>  (1) 
0

>  <PUBCHEM_ATOM_UDEF_STEREO_COUNT>  (1) 
1

>  <PUBCHEM_BOND_DEF_STEREO_COUNT>  (1) 
0

>  <PUBCHEM_BOND_UDEF_STEREO_COUNT>  (1) 
0

>  <PUBCHEM_ISOTOPIC_ATOM_COUNT>  (1) 
0

>  <PUBCHEM_COMPONENT_COUNT>  (1) 
1

>  <PUBCHEM_CACTVS_TAUTO_COUNT>  (1) 
2

>  <PUBCHEM_CONFORMER_ID>  (1) 
0000822F00000002

>  <PUBCHEM_MMFF94_ENERGY>  (1) 
83.4815

>  <PUBCHEM_FEATURE_SELFOVERLAP>  (1) 
35.578

>  <PUBCHEM_SHAPE_FINGERPRINT>  (1) 
107951 10 18333453140384580666
10906281 52 18200053788354191840
11421498 54 16844735210293503545
11488393 25 17913782626201633823
11497681 19 8430316861974098752
12592029 89 17987802903933662254
12597179 24 18339371785659596311
13135754 10 17460049571811124098
14713325 29 18200871906815234895
14955137 171 17539387848628548770
15131766 46 15648769101143855908
15664445 248 17263854581362180559
15849732 13 17821732732062163004
15927050 60 18335419058379914275
18681886 176 17917132967318037617
20197701 30 18334012761753905433
20567600 347 18261962821574415875
20602899 9 16988847180737364326
21521721 280 17846781819241363273
21756936 100 18261102006495370048
22224240 67 18187085036299447185
23419403 2 17694268475200130323
23558518 356 17901379314284764009
23559900 14 17417520411168568904
23598288 3 18045795730097036276
298252 57 18202560661921817503
3383291 50 18128255589288274758
3411729 13 18194119621362397317
3633792 109 17060064692605696588
3759504 43 18186239536914990529
38695281 34 18059292059477161261
404807 14 16480531745705650062
4340502 62 17968382255753376241
4921388 177 17676764400857788458
59755656 215 18339926992003319549
59755656 520 17967809449039862658
6138700 20 18268714900931885966
6669772 16 18336830779685662822

>  <PUBCHEM_SHAPE_MULTIPOLES>  (1) 
523.09
11.31
3.41
1.96
4.63
1.59
-0.1
-11.1
0.4
-2.61
-0.6
-0.81
2.15
0.68

>  <PUBCHEM_SHAPE_SELFOVERLAP>  (1) 
1098.207

>  <PUBCHEM_SHAPE_VOLUME>  (1) 
300

>  <PUBCHEM_COORDINATE_TYPE>  (1) 
2
5
10

$$$$
