33323
     RDKit          3D

 22 23  0  0  1  0  0  0  0  0999 V2000
    0.7887    0.2264   -1.7556 S   0  0  0  0  0  0  0  0  0  0  0  0
    2.3375    2.1068   -0.0358 O   0  0  0  0  0  0  0  0  0  0  0  0
    2.9136    0.2103    1.1508 O   0  0  0  0  0  0  0  0  0  0  0  0
   -4.0374    1.6349   -0.2048 N   0  0  0  0  0  0  0  0  0  0  0  0
    0.7645    0.3769    0.0739 C   0  0  0  0  0  0  0  0  0  0  0  0
    0.3458   -1.5646   -1.7959 C   0  0  0  0  0  0  0  0  0  0  0  0
    0.4776   -1.0017    0.6099 C   0  0  0  0  0  0  0  0  0  0  0  0
    0.2612   -2.0035   -0.3514 C   0  0  0  0  0  0  0  0  0  0  0  0
   -0.3051    1.3918    0.4758 C   0  0  0  0  0  0  0  0  0  0  0  0
   -1.6719    1.0045   -0.0822 C   0  0  0  0  0  0  0  0  0  0  0  0
   -0.9987   -1.7070   -2.5161 C   0  0  0  0  0  0  0  0  0  0  0  0
    1.4498   -2.3146   -2.5479 C   0  0  0  0  0  0  0  0  0  0  0  0
    2.1287    0.8590    0.4723 C   0  0  0  0  0  0  0  0  0  0  0  0
    0.4183   -1.3134    1.9710 C   0  0  0  0  0  0  0  0  0  0  0  0
   -0.0169   -3.3109    0.0569 C   0  0  0  0  0  0  0  0  0  0  0  0
   -2.7415    2.0053    0.3518 C   0  0  0  0  0  0  0  0  0  0  0  0
    0.1420   -2.6207    2.3709 C   0  0  0  0  0  0  0  0  0  0  0  0
   -0.0755   -3.6161    1.4171 C   0  0  0  0  0  0  0  0  0  0  0  0
    3.6079    2.6907    0.2703 C   0  0  0  0  0  0  0  0  0  0  0  0
   -4.4226    0.2928    0.2349 C   0  0  0  0  0  0  0  0  0  0  0  0
   -5.0608    2.6084    0.1799 C   0  0  0  0  0  0  0  0  0  0  0  0
    3.6947    4.0447   -0.3458 C   0  0  0  0  0  0  0  0  0  0  0  0
  1  5  1  0
  1  6  1  0
  2 13  1  0
  2 19  1  0
  3 13  2  0
  4 16  1  0
  4 20  1  0
  4 21  1  0
  5  7  1  0
  5  9  1  0
  5 13  1  0
  6  8  1  0
  6 11  1  0
  6 12  1  0
  7  8  2  0
  7 14  1  0
  8 15  1  0
  9 10  1  0
 10 16  1  0
 14 17  2  0
 15 18  2  0
 17 18  1  0
 19 22  1  0
M  END
>  <PUBCHEM_COMPOUND_CID>  (1) 
33323

>  <PUBCHEM_CONFORMER_RMSD>  (1) 
0.8

>  <PUBCHEM_CONFORMER_DIVERSEORDER>  (1) 
1
50
67
75
64
65
66
22
83
78
60
21
52
13
27
70
41
84
8
12
34
72
42
4
59
29
81
49
57
30
44
48
76
68
2
63
69
7
61
73
79
9
51
40
25
82
71
33
19
56
24
15
39
31
28
74
37
16
46
54
53
38
43
45
36
80
6
10
32
35
5
3
62
58
55
77
23
20
11
26
18
47
17
14

>  <PUBCHEM_MMFF94_PARTIAL_CHARGES>  (1) 
21
1 -0.46
13 0.66
14 -0.15
15 -0.15
16 0.27
17 -0.15
18 -0.15
19 0.28
2 -0.43
20 0.27
21 0.27
3 -0.57
33 0.15
34 0.15
37 0.15
38 0.15
4 -0.81
5 0.43
6 0.37
7 -0.14
8 -0.14

>  <PUBCHEM_EFFECTIVE_ROTOR_COUNT>  (1) 
7.6

>  <PUBCHEM_PHARMACOPHORE_FEATURES>  (1) 
5
1 3 acceptor
1 4 cation
3 6 11 12 hydrophobe
5 1 5 6 7 8 rings
6 7 8 14 15 17 18 rings

>  <PUBCHEM_HEAVY_ATOM_COUNT>  (1) 
22

>  <PUBCHEM_ATOM_DEF_STEREO_COUNT>  (1) 
0

>  <PUBCHEM_ATOM_UDEF_STEREO_COUNT>  (1) 
1

>  <PUBCHEM_BOND_DEF_STEREO_COUNT>  (1) 
0

>  <PUBCHEM_BOND_UDEF_STEREO_COUNT>  (1) 
0

>  <PUBCHEM_ISOTOPIC_ATOM_COUNT>  (1) 
0

>  <PUBCHEM_COMPONENT_COUNT>  (1) 
1

>  <PUBCHEM_CACTVS_TAUTO_COUNT>  (1) 
1

>  <PUBCHEM_CONFORMER_ID>  (1) 
0000822B00000001

>  <PUBCHEM_MMFF94_ENERGY>  (1) 
57.7359

>  <PUBCHEM_FEATURE_SELFOVERLAP>  (1) 
25.43

>  <PUBCHEM_SHAPE_FINGERPRINT>  (1) 
11578080 2 17266712563837259900
12553582 1 17404875743822807121
12788726 201 17907844451161001842
13583140 156 17826496791839534309
14787075 74 17756439166381999290
14817 1 12922292760888097967
15906896 17 18124025986581665148
16945 1 18119227485799098938
17492 54 17842017510577110574
20369508 70 17829890932905789369
20602899 9 16701475587844636804
20645477 70 18057038009354151517
21421861 104 18050571733920709881
21524375 3 18341888602024778176
21756936 100 18191863638119021904
23419403 2 17622779423099499302
23558518 356 18193821855405538304
23559900 14 17414710970007543549
23598288 3 17979354484789004940
238 59 17986981598733337404
239999 70 18270123392675871021
25222932 49 18336819888840700831
298252 57 17989199391001156400
394222 165 18340763750290117433
59755656 520 17969213611652362576
7364860 26 18120652431604863489
81228 2 17691937759441038161
9841814 1 17906456520127550569
9999458 23 18261391092391466812

>  <PUBCHEM_SHAPE_MULTIPOLES>  (1) 
439.88
5.95
4.91
2.18
6.92
0.17
0.78
9.96
-0.38
-2.24
-0.73
-0.63
-2.56
0.13

>  <PUBCHEM_SHAPE_SELFOVERLAP>  (1) 
895.479

>  <PUBCHEM_SHAPE_VOLUME>  (1) 
261.2

>  <PUBCHEM_COORDINATE_TYPE>  (1) 
2
5
10

$$$$
