33329
     RDKit          3D

 20 21  0  0  1  0  0  0  0  0999 V2000
    0.6763    0.8933   -1.8711 S   0  0  0  0  0  0  0  0  0  0  0  0
    2.6452    2.2612    0.4170 O   0  0  0  0  0  0  0  0  0  0  0  0
   -4.1540   -0.3717   -0.2136 N   0  0  0  0  0  0  0  0  0  0  0  0
    0.5586    1.2054   -0.0658 C   0  0  0  0  0  0  0  0  0  0  0  0
    1.2774   -0.8445   -1.7157 C   0  0  0  0  0  0  0  0  0  0  0  0
    1.0619   -0.0413    0.6146 C   0  0  0  0  0  0  0  0  0  0  0  0
    1.4324   -1.0988   -0.2332 C   0  0  0  0  0  0  0  0  0  0  0  0
   -0.8940    1.5175    0.2918 C   0  0  0  0  0  0  0  0  0  0  0  0
   -1.8266    0.3946   -0.1544 C   0  0  0  0  0  0  0  0  0  0  0  0
    1.4389    2.3884    0.2127 C   0  0  0  0  0  0  0  0  0  0  0  0
    0.2320   -1.7688   -2.3478 C   0  0  0  0  0  0  0  0  0  0  0  0
    2.6181   -0.9554   -2.4486 C   0  0  0  0  0  0  0  0  0  0  0  0
    1.1697   -0.1849    2.0006 C   0  0  0  0  0  0  0  0  0  0  0  0
    1.9053   -2.2952    0.3129 C   0  0  0  0  0  0  0  0  0  0  0  0
   -3.2718    0.6986    0.2364 C   0  0  0  0  0  0  0  0  0  0  0  0
    1.6442   -1.3811    2.5384 C   0  0  0  0  0  0  0  0  0  0  0  0
    0.7739    3.7382    0.2272 C   0  0  0  0  0  0  0  0  0  0  0  0
    2.0103   -2.4330    1.6974 C   0  0  0  0  0  0  0  0  0  0  0  0
   -5.5453   -0.0709    0.1284 C   0  0  0  0  0  0  0  0  0  0  0  0
   -3.7524   -1.6515    0.3728 C   0  0  0  0  0  0  0  0  0  0  0  0
  1  4  1  0
  1  5  1  0
  2 10  2  0
  3 15  1  0
  3 19  1  0
  3 20  1  0
  4  6  1  0
  4  8  1  0
  4 10  1  0
  5  7  1  0
  5 11  1  0
  5 12  1  0
  6  7  2  0
  6 13  1  0
  7 14  1  0
  8  9  1  0
  9 15  1  0
 10 17  1  0
 13 16  2  0
 14 18  2  0
 16 18  1  0
M  END
>  <PUBCHEM_COMPOUND_CID>  (1) 
33329

>  <PUBCHEM_CONFORMER_RMSD>  (1) 
0.8

>  <PUBCHEM_CONFORMER_DIVERSEORDER>  (1) 
1
18
26
4
10
9
24
11
19
6
3
27
25
20
17
8
13
12
7
23
21
16
15
2
5
22
14

>  <PUBCHEM_MMFF94_PARTIAL_CHARGES>  (1) 
20
1 -0.46
10 0.45
13 -0.15
14 -0.15
15 0.27
16 -0.15
17 0.06
18 -0.15
19 0.27
2 -0.57
20 0.27
3 -0.81
31 0.15
32 0.15
35 0.15
39 0.15
4 0.43
5 0.37
6 -0.14
7 -0.14

>  <PUBCHEM_EFFECTIVE_ROTOR_COUNT>  (1) 
5.6

>  <PUBCHEM_PHARMACOPHORE_FEATURES>  (1) 
5
1 2 acceptor
1 3 cation
3 5 11 12 hydrophobe
5 1 4 5 6 7 rings
6 6 7 13 14 16 18 rings

>  <PUBCHEM_HEAVY_ATOM_COUNT>  (1) 
20

>  <PUBCHEM_ATOM_DEF_STEREO_COUNT>  (1) 
0

>  <PUBCHEM_ATOM_UDEF_STEREO_COUNT>  (1) 
1

>  <PUBCHEM_BOND_DEF_STEREO_COUNT>  (1) 
0

>  <PUBCHEM_BOND_UDEF_STEREO_COUNT>  (1) 
0

>  <PUBCHEM_ISOTOPIC_ATOM_COUNT>  (1) 
0

>  <PUBCHEM_COMPONENT_COUNT>  (1) 
1

>  <PUBCHEM_CACTVS_TAUTO_COUNT>  (1) 
2

>  <PUBCHEM_CONFORMER_ID>  (1) 
0000823100000001

>  <PUBCHEM_MMFF94_ENERGY>  (1) 
57.8997

>  <PUBCHEM_FEATURE_SELFOVERLAP>  (1) 
25.43

>  <PUBCHEM_SHAPE_FINGERPRINT>  (1) 
10610426 29 16952797359964223850
11578080 2 17314773119189192028
12423570 1 13342869612651217496
12553582 1 18196103153138962873
12616999 72 16443640085646086747
14787075 74 18187088330502082682
14817 1 8312415606834491846
14863182 85 17458345281606526371
15906896 17 17259056827750929708
16945 1 18264747983043015840
17492 54 18055383381334172020
18721546 61 17120287452239652564
20369508 70 18334569123654632715
20600515 1 17836070183236704688
20602899 9 16410169972223035444
20645477 70 18272373109620185645
21421861 104 18335986398253668233
21452121 71 18115305553714120778
21524375 3 17981042230236337209
21731516 1 18191037702879921025
22112679 90 17248948532099171164
23352939 185 17273725103587558268
23419403 2 16881277526007061816
23558518 356 17185862334347779104
23559900 14 17988933254085921949
239999 70 18267877249302277727
25222932 49 17758954115006164887
2748010 2 15545091502469013346
298252 57 17699855325730167176
394222 165 18197773512928167537
4175511 335 17530969089783511167
54040823 5 18411710863100457262
5845 1 15182537735103928262
7364860 26 18335415790014433017
81228 2 17409083600191657273
9841814 1 18410013204747546785
9999458 23 17677324060476319024

>  <PUBCHEM_SHAPE_MULTIPOLES>  (1) 
404.59
5.94
3.18
2.29
13.16
2.26
0.55
-2.24
-0.28
-2.1
-0.82
-2.3
-1.39
-0.2

>  <PUBCHEM_SHAPE_SELFOVERLAP>  (1) 
826.781

>  <PUBCHEM_SHAPE_VOLUME>  (1) 
240.1

>  <PUBCHEM_COORDINATE_TYPE>  (1) 
2
5
10

$$$$
