33333
     RDKit          3D

  9  8  0  0  0  0  0  0  0  0999 V2000
   -1.6580    0.9334    1.2490 O   0  0  0  0  0  0  0  0  0  0  0  0
   -0.4273   -0.6657   -0.1089 C   0  0  0  0  0  0  0  0  0  0  0  0
    1.0212   -0.3940   -0.5859 C   0  0  0  0  0  0  0  0  0  0  0  0
    1.9059    0.3459    0.4249 C   0  0  0  0  0  0  0  0  0  0  0  0
   -1.1713   -1.4654   -1.1939 C   0  0  0  0  0  0  0  0  0  0  0  0
   -0.4233   -1.5122    1.1787 C   0  0  0  0  0  0  0  0  0  0  0  0
   -1.1945    0.6510    0.1415 C   0  0  0  0  0  0  0  0  0  0  0  0
    3.3286    0.4963   -0.0944 C   0  0  0  0  0  0  0  0  0  0  0  0
   -1.3812    1.6107   -1.0111 C   0  0  0  0  0  0  0  0  0  0  0  0
  1  7  2  0
  2  3  1  0
  2  5  1  0
  2  6  1  0
  2  7  1  0
  3  4  1  0
  4  8  1  0
  7  9  1  0
M  END
>  <PUBCHEM_COMPOUND_CID>  (1) 
33333

>  <PUBCHEM_CONFORMER_RMSD>  (1) 
0.6

>  <PUBCHEM_CONFORMER_DIVERSEORDER>  (1) 
1
10
6
8
5
9
4
3
2
7

>  <PUBCHEM_MMFF94_PARTIAL_CHARGES>  (1) 
4
1 -0.57
2 0.06
7 0.45
9 0.06

>  <PUBCHEM_EFFECTIVE_ROTOR_COUNT>  (1) 
3

>  <PUBCHEM_PHARMACOPHORE_FEATURES>  (1) 
3
1 1 acceptor
1 8 hydrophobe
3 2 5 6 hydrophobe

>  <PUBCHEM_HEAVY_ATOM_COUNT>  (1) 
9

>  <PUBCHEM_ATOM_DEF_STEREO_COUNT>  (1) 
0

>  <PUBCHEM_ATOM_UDEF_STEREO_COUNT>  (1) 
0

>  <PUBCHEM_BOND_DEF_STEREO_COUNT>  (1) 
0

>  <PUBCHEM_BOND_UDEF_STEREO_COUNT>  (1) 
0

>  <PUBCHEM_ISOTOPIC_ATOM_COUNT>  (1) 
0

>  <PUBCHEM_COMPONENT_COUNT>  (1) 
1

>  <PUBCHEM_CACTVS_TAUTO_COUNT>  (1) 
2

>  <PUBCHEM_CONFORMER_ID>  (1) 
0000823500000001

>  <PUBCHEM_MMFF94_ENERGY>  (1) 
15.079

>  <PUBCHEM_FEATURE_SELFOVERLAP>  (1) 
15.223

>  <PUBCHEM_SHAPE_FINGERPRINT>  (1) 
100427 49 17760936537974065596
12423570 1 13270331596377398055
13024252 1 17385998511541341814
137420 1 16185715603871717695
19837323 101 17346600742201801825
20653085 51 18339356353778519100
21040471 1 18115031788119095678
23211744 25 16342554177342821867
23211744 41 18119260462637138305
369184 2 18040427832652001920
5084963 1 18191043208690416631
54338 74 17969492891298982500

>  <PUBCHEM_SHAPE_MULTIPOLES>  (1) 
179.35
3.22
1.65
1.23
3.8
0.01
-0.06
-1.01
0.08
-0.97
0.11
-0.58
0.19
-0.1

>  <PUBCHEM_SHAPE_SELFOVERLAP>  (1) 
329.231

>  <PUBCHEM_SHAPE_VOLUME>  (1) 
115.3

>  <PUBCHEM_COORDINATE_TYPE>  (1) 
2
5
10

$$$$
