33349
     RDKit          3D

 21 22  0  0  1  0  0  0  0  0999 V2000
    0.5056    1.3362    0.0516 O   0  0  0  0  0  0  0  0  0  0  0  0
    0.6961   -3.4057    2.2438 O   0  0  0  0  0  0  0  0  0  0  0  0
    4.1832    1.4492   -0.1677 N   0  0  0  0  0  0  0  0  0  0  0  0
   -0.4545    0.3645    0.4435 C   0  0  0  0  0  0  0  0  0  0  0  0
   -0.2790   -0.9375   -0.3139 C   0  0  0  0  0  0  0  0  0  0  0  0
   -1.8522    0.9346    0.3193 C   0  0  0  0  0  0  0  0  0  0  0  0
    0.0917   -2.0879    0.3585 C   0  0  0  0  0  0  0  0  0  0  0  0
    1.8306    0.8321    0.1565 C   0  0  0  0  0  0  0  0  0  0  0  0
    2.8022    1.9185   -0.2761 C   0  0  0  0  0  0  0  0  0  0  0  0
   -0.4993   -0.9340   -1.6801 C   0  0  0  0  0  0  0  0  0  0  0  0
   -2.8435    0.4818    1.1717 C   0  0  0  0  0  0  0  0  0  0  0  0
   -2.1058    1.8948   -0.6438 C   0  0  0  0  0  0  0  0  0  0  0  0
    0.2476   -3.2743   -0.3582 C   0  0  0  0  0  0  0  0  0  0  0  0
    0.3304   -2.0948    1.8328 C   0  0  0  0  0  0  0  0  0  0  0  0
   -0.3436   -2.1206   -2.3969 C   0  0  0  0  0  0  0  0  0  0  0  0
    0.0298   -3.2906   -1.7359 C   0  0  0  0  0  0  0  0  0  0  0  0
   -4.1309    1.0065    1.0571 C   0  0  0  0  0  0  0  0  0  0  0  0
   -3.3932    2.4196   -0.7583 C   0  0  0  0  0  0  0  0  0  0  0  0
    4.4776    1.0405    1.2052 C   0  0  0  0  0  0  0  0  0  0  0  0
    5.1128    2.4915   -0.6013 C   0  0  0  0  0  0  0  0  0  0  0  0
   -4.4057    1.9754    0.0922 C   0  0  0  0  0  0  0  0  0  0  0  0
  1  4  1  0
  1  8  1  0
  2 14  1  0
  3  9  1  0
  3 19  1  0
  3 20  1  0
  4  5  1  0
  4  6  1  0
  5  7  2  0
  5 10  1  0
  6 11  2  0
  6 12  1  0
  7 13  1  0
  7 14  1  0
  8  9  1  0
 10 15  2  0
 11 17  1  0
 12 18  2  0
 13 16  2  0
 15 16  1  0
 17 21  2  0
 18 21  1  0
M  END
>  <PUBCHEM_COMPOUND_CID>  (1) 
33349

>  <PUBCHEM_CONFORMER_RMSD>  (1) 
0.8

>  <PUBCHEM_CONFORMER_DIVERSEORDER>  (1) 
1
45
49
62
28
57
58
17
63
50
39
18
44
47
37
30
16
59
19
41
11
38
29
40
54
5
42
48
51
61
56
43
55
35
60
9
64
26
53
34
25
31
15
27
6
22
2
20
8
21
14
10
52
32
7
3
4
23
13
33
12
24
46
36

>  <PUBCHEM_MMFF94_PARTIAL_CHARGES>  (1) 
31
1 -0.56
10 -0.15
11 -0.15
12 -0.15
13 -0.15
14 0.42
15 -0.15
16 -0.15
17 -0.15
18 -0.15
19 0.27
2 -0.68
20 0.27
21 -0.15
27 0.15
28 0.15
29 0.15
3 -0.81
30 0.15
33 0.15
34 0.15
35 0.15
36 0.15
4 0.57
43 0.15
44 0.4
5 -0.14
6 -0.14
7 -0.14
8 0.28
9 0.27

>  <PUBCHEM_EFFECTIVE_ROTOR_COUNT>  (1) 
7

>  <PUBCHEM_PHARMACOPHORE_FEATURES>  (1) 
6
1 1 acceptor
1 2 acceptor
1 2 donor
1 3 cation
6 5 7 10 13 15 16 rings
6 6 11 12 17 18 21 rings

>  <PUBCHEM_HEAVY_ATOM_COUNT>  (1) 
21

>  <PUBCHEM_ATOM_DEF_STEREO_COUNT>  (1) 
0

>  <PUBCHEM_ATOM_UDEF_STEREO_COUNT>  (1) 
1

>  <PUBCHEM_BOND_DEF_STEREO_COUNT>  (1) 
0

>  <PUBCHEM_BOND_UDEF_STEREO_COUNT>  (1) 
0

>  <PUBCHEM_ISOTOPIC_ATOM_COUNT>  (1) 
0

>  <PUBCHEM_COMPONENT_COUNT>  (1) 
1

>  <PUBCHEM_CACTVS_TAUTO_COUNT>  (1) 
1

>  <PUBCHEM_CONFORMER_ID>  (1) 
0000824500000001

>  <PUBCHEM_MMFF94_ENERGY>  (1) 
65.5716

>  <PUBCHEM_FEATURE_SELFOVERLAP>  (1) 
30.446

>  <PUBCHEM_SHAPE_FINGERPRINT>  (1) 
10764073 3 16301456554252345032
107951 10 18188789326482640406
11578080 2 16447004358713240231
12592029 89 18335139739460273512
12707595 3 17689448083538552743
12788726 201 18051121798771392630
13004483 165 17408515603698746398
133893 2 17979935820822083832
13544653 18 7925625583747084876
13681431 1 17623289373045542681
14251751 93 18341327876842738785
14817 1 11055680625266477742
15906896 17 18193280921101288610
17980427 23 17406528335026157953
1813 80 11963395106829608872
20101258 96 17547301454778475648
20197701 30 18412260636067899144
204376 136 18342178864467458085
20567600 347 18340497698498359165
20600515 1 13623536727224698733
21524375 3 18411981390237269953
21756936 100 18188208831651209464
23352939 185 10591758813707799490
23419403 2 17550443609469896755
23558518 356 17905876325732996008
23559900 14 17683236972064505331
23598288 3 17830756591758607204
23728640 28 18199470055248651854
298252 57 18202283614892884890
3027735 51 17702385250688809102
3411729 13 18267027150562702977
3729539 64 17912674348734920494
3759504 43 18261116326217125560
394222 165 18339077064745016280
559249 180 18413106187181347972
6138700 20 18124324796679918318
6669772 16 18272660013208997894
7364860 26 18125444107531577701
81228 2 17764290039906805257
81539 233 18338237055231265469
9841814 1 17687472265211527721
9862522 239 18340203085021569521

>  <PUBCHEM_SHAPE_MULTIPOLES>  (1) 
415.45
7.33
4.32
1.82
4.39
3.6
-0.04
-10.91
-0.92
1.22
0.67
0.01
1.84
-0.47

>  <PUBCHEM_SHAPE_SELFOVERLAP>  (1) 
869.807

>  <PUBCHEM_SHAPE_VOLUME>  (1) 
235.7

>  <PUBCHEM_COORDINATE_TYPE>  (1) 
2
5
10

$$$$
