33354
     RDKit          3D

 30 32  0  0  1  0  0  0  0  0999 V2000
    2.6322   -4.4913   -1.6882 F   0  0  0  0  0  0  0  0  0  0  0  0
    0.5020    1.9647   -1.5999 O   0  0  0  0  0  0  0  0  0  0  0  0
    3.1862    2.4040   -1.3076 O   0  0  0  0  0  0  0  0  0  0  0  0
    4.5174    1.4587    0.9230 O   0  0  0  0  0  0  0  0  0  0  0  0
   -5.4621    1.4169   -0.1758 O   0  0  0  0  0  0  0  0  0  0  0  0
   -4.5561   -0.7339   -1.6725 O   0  0  0  0  0  0  0  0  0  0  0  0
    0.6916   -4.4212    0.1262 O   0  0  0  0  0  0  0  0  0  0  0  0
    0.4037   -2.1318   -0.1797 N   0  0  0  0  0  0  0  0  0  0  0  0
   -0.6614   -1.9378    0.7856 C   0  0  0  0  0  0  0  0  0  0  0  0
   -0.1204   -1.8206    2.2287 C   0  0  0  0  0  0  0  0  0  0  0  0
    0.3641   -0.4447    2.7046 C   0  0  0  0  0  0  0  0  0  0  0  0
   -1.5711   -0.8025    0.3062 C   0  0  0  0  0  0  0  0  0  0  0  0
    1.1082    0.3325    1.6510 C   0  0  0  0  0  0  0  0  0  0  0  0
    0.4214    0.8227    0.5204 C   0  0  0  0  0  0  0  0  0  0  0  0
   -1.0427    0.5692    0.3771 C   0  0  0  0  0  0  0  0  0  0  0  0
    1.1310    1.5149   -0.4736 C   0  0  0  0  0  0  0  0  0  0  0  0
    2.4858    0.5560    1.7727 C   0  0  0  0  0  0  0  0  0  0  0  0
   -2.7587   -1.1490   -0.2236 C   0  0  0  0  0  0  0  0  0  0  0  0
   -1.7942    1.6860    0.4202 C   0  0  0  0  0  0  0  0  0  0  0  0
    2.5022    1.7313   -0.3381 C   0  0  0  0  0  0  0  0  0  0  0  0
    3.1774    1.2545    0.7833 C   0  0  0  0  0  0  0  0  0  0  0  0
   -3.8348   -0.2953   -0.7783 C   0  0  0  0  0  0  0  0  0  0  0  0
    0.9847   -3.3617   -0.4213 C   0  0  0  0  0  0  0  0  0  0  0  0
   -3.2264    1.8227    0.3961 C   0  0  0  0  0  0  0  0  0  0  0  0
   -4.1360    1.0136   -0.1533 C   0  0  0  0  0  0  0  0  0  0  0  0
    2.0634   -3.2759   -1.4670 C   0  0  0  0  0  0  0  0  0  0  0  0
    0.4620    1.0772   -2.7134 C   0  0  0  0  0  0  0  0  0  0  0  0
    3.2850    3.8189   -1.1656 C   0  0  0  0  0  0  0  0  0  0  0  0
    5.3840    0.4615    0.3861 C   0  0  0  0  0  0  0  0  0  0  0  0
   -6.1382    0.9604    0.9766 C   0  0  0  0  0  0  0  0  0  0  0  0
  1 26  1  0
  2 16  1  0
  2 27  1  0
  3 20  1  0
  3 28  1  0
  4 21  1  0
  4 29  1  0
  5 25  1  0
  5 30  1  0
  6 22  2  0
  7 23  2  0
  8  9  1  0
  8 23  1  0
  9 10  1  0
  9 12  1  0
 10 11  1  0
 11 13  1  0
 12 15  1  0
 12 18  2  0
 13 14  2  0
 13 17  1  0
 14 15  1  0
 14 16  1  0
 15 19  2  0
 16 20  2  0
 17 21  2  0
 18 22  1  0
 19 24  1  0
 20 21  1  0
 22 25  1  0
 23 26  1  0
 24 25  2  0
M  END
>  <PUBCHEM_COMPOUND_CID>  (1) 
33354

>  <PUBCHEM_CONFORMER_RMSD>  (1) 
1

>  <PUBCHEM_CONFORMER_DIVERSEORDER>  (1) 
1
16
13
8
2
3
10
11
12
14
9
4
5
6
15
7

>  <PUBCHEM_MMFF94_PARTIAL_CHARGES>  (1) 
34
1 -0.34
11 0.14
12 -0.14
13 -0.14
14 0.03
15 -0.03
16 0.08
17 -0.15
18 -0.14
19 -0.15
2 -0.36
20 0.08
21 0.08
22 0.54
23 0.57
24 -0.15
25 0.09
26 0.4
27 0.28
28 0.28
29 0.28
3 -0.36
30 0.28
36 0.37
37 0.15
38 0.15
39 0.15
4 -0.36
40 0.15
5 -0.36
6 -0.57
7 -0.57
8 -0.73
9 0.44

>  <PUBCHEM_EFFECTIVE_ROTOR_COUNT>  (1) 
7.6

>  <PUBCHEM_PHARMACOPHORE_FEATURES>  (1) 
10
1 2 acceptor
1 3 acceptor
1 4 acceptor
1 5 acceptor
1 6 acceptor
1 7 acceptor
1 8 donor
6 13 14 16 17 20 21 rings
7 12 15 18 19 22 24 25 rings
7 9 10 11 12 13 14 15 rings

>  <PUBCHEM_HEAVY_ATOM_COUNT>  (1) 
30

>  <PUBCHEM_ATOM_DEF_STEREO_COUNT>  (1) 
1

>  <PUBCHEM_ATOM_UDEF_STEREO_COUNT>  (1) 
0

>  <PUBCHEM_BOND_DEF_STEREO_COUNT>  (1) 
0

>  <PUBCHEM_BOND_UDEF_STEREO_COUNT>  (1) 
0

>  <PUBCHEM_ISOTOPIC_ATOM_COUNT>  (1) 
0

>  <PUBCHEM_COMPONENT_COUNT>  (1) 
1

>  <PUBCHEM_CACTVS_TAUTO_COUNT>  (1) 
2

>  <PUBCHEM_CONFORMER_ID>  (1) 
0000824A00000001

>  <PUBCHEM_MMFF94_ENERGY>  (1) 
134.3207

>  <PUBCHEM_FEATURE_SELFOVERLAP>  (1) 
50.78

>  <PUBCHEM_SHAPE_FINGERPRINT>  (1) 
11045515 52 17475530373565995630
11112662 9 18334287699668929468
11370993 70 18271240625238282102
11488393 25 18046045078703022762
11578080 2 17026263402611601175
12156800 1 16445634599164366979
12236239 1 18260542351082947929
12422481 6 18049971469138219490
12788726 201 17469595669345028578
13140716 1 17096363020361183752
133893 2 18055941834061175483
14955137 171 17676494942640831777
17980427 26 17128981054515539296
1813 80 17977099055337655851
18681886 176 18337659936355185160
20691752 17 17822854143717443099
20775438 99 16115108459219149375
21033648 144 17968650656992608597
22149856 69 18339943558583230745
23366157 5 18263921051646796171
23419403 2 17611797432241880939
23559900 14 18343303686733167764
23598288 3 17828204625228289282
4017518 198 18131353030035124038
404807 14 17195185703789304478
4280585 95 17907286655316951162
474 4 18113612391996900377
5080951 261 17758354795421850552
5081480 168 18052535474503611447
5265222 85 18269281330183694692
59755656 215 18339359660808592813
6287921 2 18340760430296039351

>  <PUBCHEM_SHAPE_MULTIPOLES>  (1) 
569.92
8.84
4.36
2.06
7.73
4.8
0.04
-5.87
-0.18
-4.22
-2.33
-0.82
0.36
-0.04

>  <PUBCHEM_SHAPE_SELFOVERLAP>  (1) 
1217.937

>  <PUBCHEM_SHAPE_VOLUME>  (1) 
315.1

>  <PUBCHEM_COORDINATE_TYPE>  (1) 
2
5
10

$$$$
