33361
     RDKit          3D

 16 16  0  0  0  0  0  0  0  0999 V2000
    3.5144    0.7373    0.4451 O   0  0  0  0  0  0  0  0  0  0  0  0
   -4.6271   -1.3878   -0.3177 O   0  0  0  0  0  0  0  0  0  0  0  0
   -6.5870    0.4728   -0.1453 O   0  0  0  0  0  0  0  0  0  0  0  0
   -5.2351    0.8226   -0.0231 N   0  0  0  0  0  0  0  0  0  0  0  0
    4.4677   -0.2784    0.1359 C   0  0  0  0  0  0  0  0  0  0  0  0
    5.7404    0.3806   -0.3735 C   0  0  0  0  0  0  0  0  0  0  0  0
    2.1991    0.4101    0.3235 C   0  0  0  0  0  0  0  0  0  0  0  0
   -0.4977   -0.2592    0.0744 C   0  0  0  0  0  0  0  0  0  0  0  0
    1.2651    1.3904   -0.0121 C   0  0  0  0  0  0  0  0  0  0  0  0
    1.7845   -0.9050    0.5345 C   0  0  0  0  0  0  0  0  0  0  0  0
    6.7997   -0.6439   -0.7384 C   0  0  0  0  0  0  0  0  0  0  0  0
   -0.0833    1.0558   -0.1365 C   0  0  0  0  0  0  0  0  0  0  0  0
    0.4361   -1.2396    0.4099 C   0  0  0  0  0  0  0  0  0  0  0  0
   -1.9035   -0.6091   -0.0550 C   0  0  0  0  0  0  0  0  0  0  0  0
   -2.9341    0.2638    0.0074 C   0  0  0  0  0  0  0  0  0  0  0  0
   -4.3392   -0.2105   -0.1288 C   0  0  0  0  0  0  0  0  0  0  0  0
  1  5  1  0
  1  7  1  0
  2 16  2  0
  3  4  1  0
  4 16  1  0
  5  6  1  0
  6 11  1  0
  7  9  2  0
  7 10  1  0
  8 12  2  0
  8 13  1  0
  8 14  1  0
  9 12  1  0
 10 13  2  0
 14 15  2  0
 15 16  1  0
M  END
>  <PUBCHEM_COMPOUND_CID>  (1) 
33361

>  <PUBCHEM_CONFORMER_RMSD>  (1) 
0.8

>  <PUBCHEM_CONFORMER_DIVERSEORDER>  (1) 
1
10
11
2
3
7
5
8
9
4
6

>  <PUBCHEM_MMFF94_PARTIAL_CHARGES>  (1) 
22
1 -0.36
10 -0.15
12 -0.15
13 -0.15
14 -0.18
15 -0.14
16 0.62
2 -0.57
21 0.15
22 0.15
26 0.15
27 0.15
28 0.15
29 0.15
3 -0.44
30 0.37
31 0.4
4 -0.39
5 0.28
7 0.08
8 0.03
9 -0.15

>  <PUBCHEM_EFFECTIVE_ROTOR_COUNT>  (1) 
6

>  <PUBCHEM_PHARMACOPHORE_FEATURES>  (1) 
5
1 1 acceptor
1 11 hydrophobe
1 2 acceptor
1 4 donor
6 7 8 9 10 12 13 rings

>  <PUBCHEM_HEAVY_ATOM_COUNT>  (1) 
16

>  <PUBCHEM_ATOM_DEF_STEREO_COUNT>  (1) 
0

>  <PUBCHEM_ATOM_UDEF_STEREO_COUNT>  (1) 
0

>  <PUBCHEM_BOND_DEF_STEREO_COUNT>  (1) 
0

>  <PUBCHEM_BOND_UDEF_STEREO_COUNT>  (1) 
1

>  <PUBCHEM_ISOTOPIC_ATOM_COUNT>  (1) 
0

>  <PUBCHEM_COMPONENT_COUNT>  (1) 
1

>  <PUBCHEM_CACTVS_TAUTO_COUNT>  (1) 
3

>  <PUBCHEM_CONFORMER_ID>  (1) 
0000825100000001

>  <PUBCHEM_MMFF94_ENERGY>  (1) 
42.2366

>  <PUBCHEM_FEATURE_SELFOVERLAP>  (1) 
25.371

>  <PUBCHEM_SHAPE_FINGERPRINT>  (1) 
106641 1 14345805950397817081
12236239 1 18131350834056043137
12670543 26 18409731729728462558
13288520 33 18202566176401486109
13533116 47 12823029590895452500
13760787 19 16660361511040137962
13862211 1 18408317792172070562
14911166 2 18334577962544301570
15048467 5 15791733009897090958
17834072 33 18272088344139402300
17834072 8 18343302565260926284
17834076 25 17530684307544696089
18006028 8 17203610376660791592
187816 3 17967535675182119872
19489759 90 15482675667185712987
21267235 1 18337676416555824771
21709351 56 18335412509039155757
220451 1 17022899060033713274
22224240 67 11097859618348833664
23035841 295 18410855451554252931
23218964 4 18272370867088022702
23402539 116 16630521843430600613
23402655 69 18409441463069760877
23536379 177 17132117931266951602
23559900 14 17988072404678701952
26918003 58 12175619594390784031
3545911 37 18411980261282941019
42788 4 18412262847970547984
4340502 62 15213017146523779928
4463277 17 18408323293840501764
4990 188 18273219702970809758
59682541 35 7925616804918263597
59755656 215 18343304730141033342
8209 1 18410856559639802588

>  <PUBCHEM_SHAPE_MULTIPOLES>  (1) 
306.68
15.05
1.21
0.7
0.11
0.02
-0.01
0.34
-3.27
0.14
0.02
-0.38
0.05
0.05

>  <PUBCHEM_SHAPE_SELFOVERLAP>  (1) 
622.303

>  <PUBCHEM_SHAPE_VOLUME>  (1) 
178.8

>  <PUBCHEM_COORDINATE_TYPE>  (1) 
2
5
10

$$$$
