33364
     RDKit          3D

 18 18  0  0  0  0  0  0  0  0999 V2000
   -2.5011   -0.9627   -0.6301 O   0  0  0  0  0  0  0  0  0  0  0  0
    5.5253    1.5177    0.2669 O   0  0  0  0  0  0  0  0  0  0  0  0
    7.5338   -0.2793    0.4958 O   0  0  0  0  0  0  0  0  0  0  0  0
    6.2015   -0.6908    0.3517 N   0  0  0  0  0  0  0  0  0  0  0  0
   -5.8780    0.4932    0.1406 C   0  0  0  0  0  0  0  0  0  0  0  0
   -4.7755   -0.5538   -0.0027 C   0  0  0  0  0  0  0  0  0  0  0  0
   -7.1552   -0.1192    0.7147 C   0  0  0  0  0  0  0  0  0  0  0  0
   -3.4865    0.0565   -0.5343 C   0  0  0  0  0  0  0  0  0  0  0  0
   -8.2444    0.9270    0.8905 C   0  0  0  0  0  0  0  0  0  0  0  0
   -1.1944   -0.5756   -0.4836 C   0  0  0  0  0  0  0  0  0  0  0  0
   -0.2697   -1.4658    0.0498 C   0  0  0  0  0  0  0  0  0  0  0  0
   -0.8080    0.7025   -0.8700 C   0  0  0  0  0  0  0  0  0  0  0  0
    1.4559    0.2085   -0.1858 C   0  0  0  0  0  0  0  0  0  0  0  0
    1.0601   -1.0722    0.1995 C   0  0  0  0  0  0  0  0  0  0  0  0
    0.5219    1.0959   -0.7204 C   0  0  0  0  0  0  0  0  0  0  0  0
    2.8422    0.6198   -0.0300 C   0  0  0  0  0  0  0  0  0  0  0  0
    3.8948   -0.2183    0.1020 C   0  0  0  0  0  0  0  0  0  0  0  0
    5.2773    0.3166    0.2454 C   0  0  0  0  0  0  0  0  0  0  0  0
  1  8  1  0
  1 10  1  0
  2 18  2  0
  3  4  1  0
  4 18  1  0
  5  6  1  0
  5  7  1  0
  6  8  1  0
  7  9  1  0
 10 11  2  0
 10 12  1  0
 11 14  1  0
 12 15  2  0
 13 14  2  0
 13 15  1  0
 13 16  1  0
 16 17  2  0
 17 18  1  0
M  END
>  <PUBCHEM_COMPOUND_CID>  (1) 
33364

>  <PUBCHEM_CONFORMER_RMSD>  (1) 
0.8

>  <PUBCHEM_CONFORMER_DIVERSEORDER>  (1) 
1
40
58
45
55
5
71
34
21
3
46
48
51
35
50
18
33
63
11
19
64
10
49
60
9
65
8
41
57
67
24
23
22
6
29
31
30
43
68
12
70
27
69
2
39
16
56
26
14
44
7
15
20
47
62
66
54
17
28
42
4
36
53
52
13
38
61
32
59
37
25

>  <PUBCHEM_MMFF94_PARTIAL_CHARGES>  (1) 
22
1 -0.36
10 0.08
11 -0.15
12 -0.15
13 0.03
14 -0.15
15 -0.15
16 -0.18
17 -0.14
18 0.62
2 -0.57
3 -0.44
30 0.15
31 0.15
32 0.15
33 0.15
34 0.15
35 0.15
36 0.37
37 0.4
4 -0.39
8 0.28

>  <PUBCHEM_EFFECTIVE_ROTOR_COUNT>  (1) 
8

>  <PUBCHEM_PHARMACOPHORE_FEATURES>  (1) 
5
1 1 acceptor
1 2 acceptor
1 4 donor
1 9 hydrophobe
6 10 11 12 13 14 15 rings

>  <PUBCHEM_HEAVY_ATOM_COUNT>  (1) 
18

>  <PUBCHEM_ATOM_DEF_STEREO_COUNT>  (1) 
0

>  <PUBCHEM_ATOM_UDEF_STEREO_COUNT>  (1) 
0

>  <PUBCHEM_BOND_DEF_STEREO_COUNT>  (1) 
0

>  <PUBCHEM_BOND_UDEF_STEREO_COUNT>  (1) 
1

>  <PUBCHEM_ISOTOPIC_ATOM_COUNT>  (1) 
0

>  <PUBCHEM_COMPONENT_COUNT>  (1) 
1

>  <PUBCHEM_CACTVS_TAUTO_COUNT>  (1) 
3

>  <PUBCHEM_CONFORMER_ID>  (1) 
0000825400000001

>  <PUBCHEM_MMFF94_ENERGY>  (1) 
41.9655

>  <PUBCHEM_FEATURE_SELFOVERLAP>  (1) 
25.371

>  <PUBCHEM_SHAPE_FINGERPRINT>  (1) 
10354089 29 18334298665147645471
106641 1 17676490579011756337
11089746 13 17774999111874133413
11315181 36 12179846096488896415
12091667 2 17458339746221824215
12236239 1 18273213123133685727
12714333 28 14620797098343782093
13533116 47 15410621333349976566
13668630 136 11025796496840840633
13968360 50 12895079496177490733
14123256 10 11095884865410762729
1420 363 16877941641808598242
14251764 18 18408887369249174751
14251764 46 18202563977367616126
14729087 3 16917351416346726089
15048467 5 17704071798145388459
155225 1 16988568962696409017
15716309 27 16732704965321763299
17834072 8 11312054348968570621
17834076 25 17203327818713856255
18006028 8 12251902598961767143
18681886 176 8070021139315047055
19141452 34 18341326790522358262
20281389 69 18342173371188462457
20621476 8 18131635556307513750
20735858 18 18260548922535345667
21095086 128 14418130700022867074
21150785 3 9511458918455070433
21267235 1 18040714741374258782
21304253 13 18341893012877271033
22224240 67 18187364346543906723
23035841 295 17312820485105835011
23402539 116 17275097358101434669
23536379 177 17131833170339800150
23559900 14 18336537340090088776
246663 6 16081090368050046659
3009799 131 12391511983775440427
33532 11 16153420628192367282
4325135 7 8502653710120639506
4340502 62 16443062798532857674
4463277 17 18261108582169382508
5104073 3 18117270565486483928
59682541 35 17749676271895464617
59755656 520 18408879664131320719

>  <PUBCHEM_SHAPE_MULTIPOLES>  (1) 
347.84
20.73
1.19
0.82
11.22
0.02
-0.02
-3.63
8.12
-0.27
-0.01
0.53
-0.07
-0.4

>  <PUBCHEM_SHAPE_SELFOVERLAP>  (1) 
698.547

>  <PUBCHEM_SHAPE_VOLUME>  (1) 
205.3

>  <PUBCHEM_COORDINATE_TYPE>  (1) 
2
5
10

$$$$
