33374
     RDKit          3D

 18 18  0  0  0  0  0  0  0  0999 V2000
    1.7227    2.8018   -0.5158 F   0  0  0  0  0  0  0  0  0  0  0  0
    3.0299    0.6179    0.5322 O   0  0  0  0  0  0  0  0  0  0  0  0
   -5.3816    0.7005   -0.2575 O   0  0  0  0  0  0  0  0  0  0  0  0
   -6.8104   -1.5993   -0.3014 O   0  0  0  0  0  0  0  0  0  0  0  0
   -5.4152   -1.6089   -0.1666 N   0  0  0  0  0  0  0  0  0  0  0  0
    5.0855   -0.4236   -0.1181 C   0  0  0  0  0  0  0  0  0  0  0  0
    5.8430   -1.7404   -0.2640 C   0  0  0  0  0  0  0  0  0  0  0  0
    3.6841   -0.6397    0.4354 C   0  0  0  0  0  0  0  0  0  0  0  0
    7.2259   -1.5247   -0.8574 C   0  0  0  0  0  0  0  0  0  0  0  0
    1.6650    0.6165    0.4052 C   0  0  0  0  0  0  0  0  0  0  0  0
   -1.1029    0.6112    0.1484 C   0  0  0  0  0  0  0  0  0  0  0  0
    1.0217    1.7282   -0.1263 C   0  0  0  0  0  0  0  0  0  0  0  0
    0.9391   -0.4978    0.8095 C   0  0  0  0  0  0  0  0  0  0  0  0
   -0.3673    1.7254   -0.2551 C   0  0  0  0  0  0  0  0  0  0  0  0
   -0.4498   -0.5004    0.6807 C   0  0  0  0  0  0  0  0  0  0  0  0
   -2.5510    0.6083    0.0133 C   0  0  0  0  0  0  0  0  0  0  0  0
   -3.3311   -0.4959   -0.0042 C   0  0  0  0  0  0  0  0  0  0  0  0
   -4.8078   -0.3791   -0.1582 C   0  0  0  0  0  0  0  0  0  0  0  0
  1 12  1  0
  2  8  1  0
  2 10  1  0
  3 18  2  0
  4  5  1  0
  5 18  1  0
  6  7  1  0
  6  8  1  0
  7  9  1  0
 10 12  2  0
 10 13  1  0
 11 14  2  0
 11 15  1  0
 11 16  1  0
 12 14  1  0
 13 15  2  0
 16 17  2  0
 17 18  1  0
M  END
>  <PUBCHEM_COMPOUND_CID>  (1) 
33374

>  <PUBCHEM_CONFORMER_RMSD>  (1) 
0.8

>  <PUBCHEM_CONFORMER_DIVERSEORDER>  (1) 
1
11
54
35
22
68
48
45
55
6
49
52
31
46
69
61
42
17
51
10
60
53
27
62
41
58
40
34
23
2
8
25
28
59
16
67
20
43
50
7
64
24
15
39
70
14
65
66
3
9
37
56
21
30
29
57
33
47
44
26
32
4
18
71
38
36
13
12
19
63
5

>  <PUBCHEM_MMFF94_PARTIAL_CHARGES>  (1) 
22
1 -0.19
10 0.08
11 0.03
12 0.19
13 -0.15
14 -0.15
15 -0.15
16 -0.18
17 -0.14
18 0.62
2 -0.36
28 0.15
29 0.15
3 -0.57
30 0.15
31 0.15
32 0.15
33 0.37
34 0.4
4 -0.44
5 -0.39
8 0.28

>  <PUBCHEM_EFFECTIVE_ROTOR_COUNT>  (1) 
7

>  <PUBCHEM_PHARMACOPHORE_FEATURES>  (1) 
5
1 2 acceptor
1 3 acceptor
1 5 donor
1 9 hydrophobe
6 10 11 12 13 14 15 rings

>  <PUBCHEM_HEAVY_ATOM_COUNT>  (1) 
18

>  <PUBCHEM_ATOM_DEF_STEREO_COUNT>  (1) 
0

>  <PUBCHEM_ATOM_UDEF_STEREO_COUNT>  (1) 
0

>  <PUBCHEM_BOND_DEF_STEREO_COUNT>  (1) 
0

>  <PUBCHEM_BOND_UDEF_STEREO_COUNT>  (1) 
1

>  <PUBCHEM_ISOTOPIC_ATOM_COUNT>  (1) 
0

>  <PUBCHEM_COMPONENT_COUNT>  (1) 
1

>  <PUBCHEM_CACTVS_TAUTO_COUNT>  (1) 
3

>  <PUBCHEM_CONFORMER_ID>  (1) 
0000825E00000001

>  <PUBCHEM_MMFF94_ENERGY>  (1) 
42.2561

>  <PUBCHEM_FEATURE_SELFOVERLAP>  (1) 
25.371

>  <PUBCHEM_SHAPE_FINGERPRINT>  (1) 
10366900 7 16950276317662693065
106641 1 11959433609431643814
117890 112 8214138560610554546
12236239 1 18201440307176664753
12670543 26 17968093075721277006
12714333 28 14490197102938628134
13288520 33 18341895160386552249
13533116 47 18130505335917181888
13540713 4 17388272396135067960
13685833 64 18201720652418805250
13862211 1 18334290942643830658
14123256 34 18409453595941298731
14350574 20 18333731325173268663
14911166 2 17967534571080125728
15048467 5 7853572409309632358
18222031 100 18408037407995526120
187816 3 17748831782967746760
19784866 240 18342462547172961809
200 152 18342172293705214873
20281389 69 9799694796470905450
20612939 158 18041282161766675893
20645477 70 18261669376349797449
20735858 18 11383826073909128525
20871999 31 17895194342725270276
21150785 3 17022626381551132894
21267235 1 18335142016594611339
21637258 2 17775276145511794694
21709351 56 18334848429688774501
22224240 67 10952044546245844877
23016692 55 18410860932444004878
23035841 295 18408322168258481011
23402539 116 18339922623673101236
23559900 14 18338230573988531040
293599 30 8574710208815299634
29717793 49 18341607162187865261
3004659 81 18186238433551377046
335352 9 18336262358782235061
351380 3 18413103953049553494
4340502 62 14045745936578586429
4463277 17 18408040693471667768
465052 167 18131634478629639566
559249 180 18343300354170589239
77188 2 18272088314233881128

>  <PUBCHEM_SHAPE_MULTIPOLES>  (1) 
340.57
16.11
1.99
0.77
1.95
0.75
0.03
-13.31
-4.21
0.33
-0.4
0.41
-0.05
0.27

>  <PUBCHEM_SHAPE_SELFOVERLAP>  (1) 
692.051

>  <PUBCHEM_SHAPE_VOLUME>  (1) 
198.3

>  <PUBCHEM_COORDINATE_TYPE>  (1) 
2
5
10

$$$$
