33373
     RDKit          3D

 18 18  0  0  0  0  0  0  0  0999 V2000
    2.9909    0.3484    0.8390 O   0  0  0  0  0  0  0  0  0  0  0  0
   -5.3417    0.8273   -0.4845 O   0  0  0  0  0  0  0  0  0  0  0  0
   -6.9002   -1.3858   -0.4055 O   0  0  0  0  0  0  0  0  0  0  0  0
   -5.5181   -1.4576   -0.1827 N   0  0  0  0  0  0  0  0  0  0  0  0
    5.1024   -0.3693   -0.0324 C   0  0  0  0  0  0  0  0  0  0  0  0
    3.6667   -0.7684    0.2780 C   0  0  0  0  0  0  0  0  0  0  0  0
    5.8855   -1.5216   -0.6550 C   0  0  0  0  0  0  0  0  0  0  0  0
    1.6393    0.4257    0.6235 C   0  0  0  0  0  0  0  0  0  0  0  0
    1.0936    1.5142   -0.0481 C   0  0  0  0  0  0  0  0  0  0  0  0
    7.3059   -1.1061   -1.0031 C   0  0  0  0  0  0  0  0  0  0  0  0
   -0.2834    1.5750   -0.2620 C   0  0  0  0  0  0  0  0  0  0  0  0
   -1.1065    0.5466    0.1968 C   0  0  0  0  0  0  0  0  0  0  0  0
    0.8244   -0.6031    1.0837 C   0  0  0  0  0  0  0  0  0  0  0  0
   -0.5526   -0.5425    0.8697 C   0  0  0  0  0  0  0  0  0  0  0  0
    1.9600    2.6237   -0.5461 C   0  0  0  0  0  0  0  0  0  0  0  0
   -2.5420    0.6088   -0.0284 C   0  0  0  0  0  0  0  0  0  0  0  0
   -3.3843   -0.4483    0.0071 C   0  0  0  0  0  0  0  0  0  0  0  0
   -4.8400   -0.2672   -0.2499 C   0  0  0  0  0  0  0  0  0  0  0  0
  1  6  1  0
  1  8  1  0
  2 18  2  0
  3  4  1  0
  4 18  1  0
  5  6  1  0
  5  7  1  0
  7 10  1  0
  8  9  2  0
  8 13  1  0
  9 11  1  0
  9 15  1  0
 11 12  2  0
 12 14  1  0
 12 16  1  0
 13 14  2  0
 16 17  2  0
 17 18  1  0
M  END
>  <PUBCHEM_COMPOUND_CID>  (1) 
33373

>  <PUBCHEM_CONFORMER_RMSD>  (1) 
0.8

>  <PUBCHEM_CONFORMER_DIVERSEORDER>  (1) 
1
26
54
52
35
29
11
56
14
34
38
2
42
24
10
3
8
9
32
36
17
57
51
43
30
59
31
60
21
25
50
12
49
23
13
15
41
19
7
61
47
48
46
20
27
33
40
37
5
53
16
4
22
44
58
28
6
18
55
45
39

>  <PUBCHEM_MMFF94_PARTIAL_CHARGES>  (1) 
22
1 -0.36
11 -0.15
12 0.03
13 -0.15
14 -0.15
15 0.14
16 -0.18
17 -0.14
18 0.62
2 -0.57
28 0.15
29 0.15
3 -0.44
30 0.15
34 0.15
35 0.15
36 0.37
37 0.4
4 -0.39
6 0.28
8 0.08
9 -0.14

>  <PUBCHEM_EFFECTIVE_ROTOR_COUNT>  (1) 
7

>  <PUBCHEM_PHARMACOPHORE_FEATURES>  (1) 
5
1 1 acceptor
1 10 hydrophobe
1 2 acceptor
1 4 donor
6 8 9 11 12 13 14 rings

>  <PUBCHEM_HEAVY_ATOM_COUNT>  (1) 
18

>  <PUBCHEM_ATOM_DEF_STEREO_COUNT>  (1) 
0

>  <PUBCHEM_ATOM_UDEF_STEREO_COUNT>  (1) 
0

>  <PUBCHEM_BOND_DEF_STEREO_COUNT>  (1) 
0

>  <PUBCHEM_BOND_UDEF_STEREO_COUNT>  (1) 
1

>  <PUBCHEM_ISOTOPIC_ATOM_COUNT>  (1) 
0

>  <PUBCHEM_COMPONENT_COUNT>  (1) 
1

>  <PUBCHEM_CACTVS_TAUTO_COUNT>  (1) 
3

>  <PUBCHEM_CONFORMER_ID>  (1) 
0000825D00000001

>  <PUBCHEM_MMFF94_ENERGY>  (1) 
45.6747

>  <PUBCHEM_FEATURE_SELFOVERLAP>  (1) 
25.371

>  <PUBCHEM_SHAPE_FINGERPRINT>  (1) 
10366900 7 17022615382371866801
106641 1 11815599892190512086
117890 112 10809346637633346010
12236239 1 18201439203322661889
12670543 26 18040433244321415822
12714333 28 14996288011531615406
13288520 33 18272652320500375481
13533116 47 18060136587513141856
13540713 4 17461454790684248800
13685833 64 18060138734891099442
13862211 1 18261669299140769226
14123256 34 18410298025224342227
14251764 18 12103550988521049634
14350574 20 18333449854655016629
14739800 52 11530753851715825230
14911166 2 17967816041825166120
15048467 5 11314027976255802150
15501527 24 17749112171291480898
18222031 100 18408881828699262560
187816 3 17822297855759120024
19784866 240 18201725058706818571
200 152 18341608235634419953
20554085 129 17983012543170105248
20612939 158 18041001781822009397
20645477 70 18334007337273410161
20735858 18 11312051050043479212
20871999 31 17968378940518814388
21150785 3 14996285842626132059
21267235 1 18335423491587100763
21637258 2 17560792200526373230
21709351 56 18334566950396043021
22224240 67 10663813066319225580
23402539 116 18337111151509341052
23559900 14 18336262452775818712
2838139 119 12829496973528837654
293599 30 7997967977197967666
29717793 49 18341042004605436029
3004659 81 18260264161629052700
33382 64 17632298934986392918
4340502 62 10015865392477886708
465052 167 17775287158119113382
5385378 56 10231765470444691268
58807428 26 11887668451813132036

>  <PUBCHEM_SHAPE_MULTIPOLES>  (1) 
347.84
16.09
1.85
0.9
0.07
0.94
-0.07
-11.31
6.16
-0.49
0.4
-0.57
-0.1
0.31

>  <PUBCHEM_SHAPE_SELFOVERLAP>  (1) 
702.957

>  <PUBCHEM_SHAPE_VOLUME>  (1) 
204.7

>  <PUBCHEM_COORDINATE_TYPE>  (1) 
2
5
10

$$$$
