33372
     RDKit          3D

 17 17  0  0  0  0  0  0  0  0999 V2000
    3.4506   -0.0877   -0.6752 O   0  0  0  0  0  0  0  0  0  0  0  0
   -4.8964   -0.9853    0.2909 O   0  0  0  0  0  0  0  0  0  0  0  0
   -6.5376    1.1677    0.3513 O   0  0  0  0  0  0  0  0  0  0  0  0
   -5.1526    1.3096    0.1888 N   0  0  0  0  0  0  0  0  0  0  0  0
    1.5726   -1.3964    0.0363 C   0  0  0  0  0  0  0  0  0  0  0  0
    2.1053   -0.2308   -0.5146 C   0  0  0  0  0  0  0  0  0  0  0  0
    4.0726    1.0001    0.0058 C   0  0  0  0  0  0  0  0  0  0  0  0
    5.5111    0.6227    0.3248 C   0  0  0  0  0  0  0  0  0  0  0  0
   -0.6545   -0.4900   -0.2002 C   0  0  0  0  0  0  0  0  0  0  0  0
    0.1926   -1.5260    0.1935 C   0  0  0  0  0  0  0  0  0  0  0  0
    1.2580    0.8050   -0.9083 C   0  0  0  0  0  0  0  0  0  0  0  0
   -0.1219    0.6755   -0.7510 C   0  0  0  0  0  0  0  0  0  0  0  0
    2.4646   -2.5153    0.4621 C   0  0  0  0  0  0  0  0  0  0  0  0
    6.2347    1.7319    1.0667 C   0  0  0  0  0  0  0  0  0  0  0  0
   -2.0934   -0.6246   -0.0365 C   0  0  0  0  0  0  0  0  0  0  0  0
   -2.9751    0.4000   -0.0092 C   0  0  0  0  0  0  0  0  0  0  0  0
   -4.4305    0.1435    0.1747 C   0  0  0  0  0  0  0  0  0  0  0  0
  1  6  1  0
  1  7  1  0
  2 17  2  0
  3  4  1  0
  4 17  1  0
  5  6  2  0
  5 10  1  0
  5 13  1  0
  6 11  1  0
  7  8  1  0
  8 14  1  0
  9 10  2  0
  9 12  1  0
  9 15  1  0
 11 12  2  0
 15 16  2  0
 16 17  1  0
M  END
>  <PUBCHEM_COMPOUND_CID>  (1) 
33372

>  <PUBCHEM_CONFORMER_RMSD>  (1) 
0.8

>  <PUBCHEM_CONFORMER_DIVERSEORDER>  (1) 
1
7
12
11
22
3
8
16
18
14
17
21
10
5
20
9
19
13
6
2
15
4

>  <PUBCHEM_MMFF94_PARTIAL_CHARGES>  (1) 
22
1 -0.36
10 -0.15
11 -0.15
12 -0.15
13 0.14
15 -0.18
16 -0.14
17 0.62
2 -0.57
22 0.15
23 0.15
24 0.15
3 -0.44
31 0.15
32 0.15
33 0.37
34 0.4
4 -0.39
5 -0.14
6 0.08
7 0.28
9 0.03

>  <PUBCHEM_EFFECTIVE_ROTOR_COUNT>  (1) 
6

>  <PUBCHEM_PHARMACOPHORE_FEATURES>  (1) 
5
1 1 acceptor
1 14 hydrophobe
1 2 acceptor
1 4 donor
6 5 6 9 10 11 12 rings

>  <PUBCHEM_HEAVY_ATOM_COUNT>  (1) 
17

>  <PUBCHEM_ATOM_DEF_STEREO_COUNT>  (1) 
0

>  <PUBCHEM_ATOM_UDEF_STEREO_COUNT>  (1) 
0

>  <PUBCHEM_BOND_DEF_STEREO_COUNT>  (1) 
0

>  <PUBCHEM_BOND_UDEF_STEREO_COUNT>  (1) 
1

>  <PUBCHEM_ISOTOPIC_ATOM_COUNT>  (1) 
0

>  <PUBCHEM_COMPONENT_COUNT>  (1) 
1

>  <PUBCHEM_CACTVS_TAUTO_COUNT>  (1) 
3

>  <PUBCHEM_CONFORMER_ID>  (1) 
0000825C00000001

>  <PUBCHEM_MMFF94_ENERGY>  (1) 
45.8975

>  <PUBCHEM_FEATURE_SELFOVERLAP>  (1) 
25.371

>  <PUBCHEM_SHAPE_FINGERPRINT>  (1) 
11089746 13 18059849584317330973
117890 112 18273214222824869336
12236239 1 18202562865403785255
12670543 26 11527681777509874064
12714333 28 16558751230485717408
13073987 5 18335707092577761409
13140716 1 17970350540823776516
13288520 33 10665217151236633478
13533116 47 18260825948374662386
13955234 65 18267306439353886170
14739800 52 17988912354500682352
15048467 5 18201999941009242472
20645477 70 18262802839905623151
20735858 18 18260264183156636914
21150785 3 16845566535526026517
21452121 103 18335135354657243010
21475661 188 17773581901436787136
21618674 25 18409449189352241498
21637258 2 13046211823586024416
22182313 1 17677319495036646134
22224240 67 18261386788913188818
23402539 116 18201434813385914165
23402655 69 18413108342906777575
23559900 14 17749965357855384522
2916195 48 18201153347104775904
293599 30 18343865532673824028
300161 21 18408882915573823567
33382 64 12901535833014346288
34934 24 18342454850370242271
3545911 37 18334863796896973983
4072396 5 17967247603156682878
42630746 31 18409730634522741246
4340502 62 18260833695699033658
465052 167 12324237257335078392
5104073 3 18261118422535479275
58807428 26 18041267847236758066
59682541 52 16845027740637678404

>  <PUBCHEM_SHAPE_MULTIPOLES>  (1) 
327.26
13.76
1.85
0.83
6.38
0.83
-0.02
-8.61
4.38
-1.25
0.38
-0.56
-0.14
0.32

>  <PUBCHEM_SHAPE_SELFOVERLAP>  (1) 
664.767

>  <PUBCHEM_SHAPE_VOLUME>  (1) 
191.6

>  <PUBCHEM_COORDINATE_TYPE>  (1) 
2
5
10

$$$$
