33376
     RDKit          3D

 19 19  0  0  0  0  0  0  0  0999 V2000
   -2.4810    0.0997    0.9562 O   0  0  0  0  0  0  0  0  0  0  0  0
   -2.4453   -2.5880    0.2487 O   0  0  0  0  0  0  0  0  0  0  0  0
    4.5975    2.0660   -0.1330 O   0  0  0  0  0  0  0  0  0  0  0  0
    7.0413    0.9073   -0.1682 O   0  0  0  0  0  0  0  0  0  0  0  0
    5.8715    0.1379   -0.0996 N   0  0  0  0  0  0  0  0  0  0  0  0
   -4.4646    1.2587    0.2813 C   0  0  0  0  0  0  0  0  0  0  0  0
   -5.0362    2.4101   -0.5411 C   0  0  0  0  0  0  0  0  0  0  0  0
   -2.9469    1.1975    0.1837 C   0  0  0  0  0  0  0  0  0  0  0  0
   -1.3175   -0.4969    0.5446 C   0  0  0  0  0  0  0  0  0  0  0  0
   -6.5547    2.4413   -0.4755 C   0  0  0  0  0  0  0  0  0  0  0  0
   -1.3068   -1.8421    0.1923 C   0  0  0  0  0  0  0  0  0  0  0  0
   -0.1524    0.2603    0.4836 C   0  0  0  0  0  0  0  0  0  0  0  0
    1.0376   -0.3354    0.0657 C   0  0  0  0  0  0  0  0  0  0  0  0
   -0.1167   -2.4377   -0.2255 C   0  0  0  0  0  0  0  0  0  0  0  0
    1.0554   -1.6844   -0.2890 C   0  0  0  0  0  0  0  0  0  0  0  0
    2.2603    0.4494    0.0003 C   0  0  0  0  0  0  0  0  0  0  0  0
    3.5136   -0.0575   -0.0087 C   0  0  0  0  0  0  0  0  0  0  0  0
   -3.2513   -2.6302   -0.9273 C   0  0  0  0  0  0  0  0  0  0  0  0
    4.6963    0.8441   -0.0885 C   0  0  0  0  0  0  0  0  0  0  0  0
  1  8  1  0
  1  9  1  0
  2 11  1  0
  2 18  1  0
  3 19  2  0
  4  5  1  0
  5 19  1  0
  6  7  1  0
  6  8  1  0
  7 10  1  0
  9 11  2  0
  9 12  1  0
 11 14  1  0
 12 13  2  0
 13 15  1  0
 13 16  1  0
 14 15  2  0
 16 17  2  0
 17 19  1  0
M  END
>  <PUBCHEM_COMPOUND_CID>  (1) 
33376

>  <PUBCHEM_CONFORMER_RMSD>  (1) 
0.8

>  <PUBCHEM_CONFORMER_DIVERSEORDER>  (1) 
4
48
95
10
92
65
44
8
78
50
90
46
43
22
75
27
14
35
69
15
20
49
71
45
85
82
23
56
18
9
70
51
88
52
33
29
84
31
58
64
5
66
16
79
19
73
74
47
83
91
38
59
24
55
13
63
72
3
2
26
41
6
54
86
40
87
12
25
61
11
68
7
37
67
76
62
39
1
81
57
30
89
42
77
34
36
28
80
21
94
32
17
60
93
53

>  <PUBCHEM_MMFF94_PARTIAL_CHARGES>  (1) 
23
1 -0.36
11 0.08
12 -0.15
13 0.03
14 -0.15
15 -0.15
16 -0.18
17 -0.14
18 0.28
19 0.62
2 -0.36
29 0.15
3 -0.57
30 0.15
31 0.15
32 0.15
33 0.15
37 0.37
38 0.4
4 -0.44
5 -0.39
8 0.28
9 0.08

>  <PUBCHEM_EFFECTIVE_ROTOR_COUNT>  (1) 
8

>  <PUBCHEM_PHARMACOPHORE_FEATURES>  (1) 
6
1 1 acceptor
1 10 hydrophobe
1 2 acceptor
1 3 acceptor
1 5 donor
6 9 11 12 13 14 15 rings

>  <PUBCHEM_HEAVY_ATOM_COUNT>  (1) 
19

>  <PUBCHEM_ATOM_DEF_STEREO_COUNT>  (1) 
0

>  <PUBCHEM_ATOM_UDEF_STEREO_COUNT>  (1) 
0

>  <PUBCHEM_BOND_DEF_STEREO_COUNT>  (1) 
0

>  <PUBCHEM_BOND_UDEF_STEREO_COUNT>  (1) 
1

>  <PUBCHEM_ISOTOPIC_ATOM_COUNT>  (1) 
0

>  <PUBCHEM_COMPONENT_COUNT>  (1) 
1

>  <PUBCHEM_CACTVS_TAUTO_COUNT>  (1) 
3

>  <PUBCHEM_CONFORMER_ID>  (1) 
0000826000000004

>  <PUBCHEM_MMFF94_ENERGY>  (1) 
58.7746

>  <PUBCHEM_FEATURE_SELFOVERLAP>  (1) 
30.45

>  <PUBCHEM_SHAPE_FINGERPRINT>  (1) 
10014705 185 18411141359047950464
10411042 1 17834114526399159683
12107183 9 18190733147187208178
12293681 160 17917145005768101057
13103583 49 10737577051518300685
13540713 4 18267325178264582211
15061688 2 18335141947468874731
167882 2 18195810665471213375
17539 30 18127402574365268727
17834072 32 18409168813665696725
19427546 20 18339360885122218071
20554085 129 17916566671220745922
20621476 66 18407763633784751476
20645477 56 18408608054108400321
21236236 1 18341049713449460695
21279426 13 18271817783086470038
21521239 73 17346033355510267086
22182313 1 18127718017800492935
23402539 116 18343301500699861108
23402655 69 18130221550384994693
23559900 14 18059303080701047462
25147074 1 18264189383728377003
2838139 119 18334289851453404357
293599 30 18409449154945036649
335352 9 18339082576021668886
34934 24 18333730191291398762
4214541 1 18340772645541504544
5104073 3 18337107986350520832
53917941 68 18411691098114498951
559249 180 18412544323775842954
56616090 163 18341613698426475929
59755656 520 18335695022965493695
6327066 14 18335980887647116373
633830 44 17603873342646144578
77188 2 17254565310157200691
7970288 3 9294989264092533865

>  <PUBCHEM_SHAPE_MULTIPOLES>  (1) 
362.55
14.08
3.06
0.76
8.79
1.33
0
-14.44
2.43
-3.96
0.63
-0.46
0.08
0.12

>  <PUBCHEM_SHAPE_SELFOVERLAP>  (1) 
732.381

>  <PUBCHEM_SHAPE_VOLUME>  (1) 
213.1

>  <PUBCHEM_COORDINATE_TYPE>  (1) 
2
5
10

$$$$
