33388
     RDKit          3D

 17 17  0  0  0  0  0  0  0  0999 V2000
    3.6776    1.7187    1.3207 O   0  0  0  0  0  0  0  0  0  0  0  0
   -3.6514    1.7557   -1.3228 O   0  0  0  0  0  0  0  0  0  0  0  0
    2.2600    0.2110   -0.6067 N   0  0  0  0  0  0  0  0  0  0  0  0
   -2.2692    0.2283    0.6096 N   0  0  0  0  0  0  0  0  0  0  0  0
   -0.0041    0.2513    0.0032 N   0  0  0  0  0  0  0  0  0  0  0  0
   -1.1714   -1.8222    0.3118 N   0  0  0  0  0  0  0  0  0  0  0  0
    1.1460   -1.8311   -0.3105 N   0  0  0  0  0  0  0  0  0  0  0  0
    2.2877    1.6658   -0.6253 C   0  0  0  0  0  0  0  0  0  0  0  0
   -2.2687    1.6769    0.6274 C   0  0  0  0  0  0  0  0  0  0  0  0
    1.0901   -0.4824   -0.2922 C   0  0  0  0  0  0  0  0  0  0  0  0
   -1.0908   -0.4820    0.2934 C   0  0  0  0  0  0  0  0  0  0  0  0
    2.4608    2.2175    0.7808 C   0  0  0  0  0  0  0  0  0  0  0  0
   -2.4268    2.2311   -0.7795 C   0  0  0  0  0  0  0  0  0  0  0  0
    3.4860   -0.5052   -0.9397 C   0  0  0  0  0  0  0  0  0  0  0  0
   -3.4888   -0.4832    0.9335 C   0  0  0  0  0  0  0  0  0  0  0  0
   -0.0151   -2.4297    0.0000 C   0  0  0  0  0  0  0  0  0  0  0  0
   -0.0219   -3.9205   -0.0037 C   0  0  0  0  0  0  0  0  0  0  0  0
  1 12  1  0
  2 13  1  0
  3  8  1  0
  3 10  1  0
  3 14  1  0
  4  9  1  0
  4 11  1  0
  4 15  1  0
  5 10  2  0
  5 11  1  0
  6 11  2  0
  6 16  1  0
  7 10  1  0
  7 16  2  0
  8 12  1  0
  9 13  1  0
 16 17  1  0
M  END
>  <PUBCHEM_COMPOUND_CID>  (1) 
33388

>  <PUBCHEM_CONFORMER_RMSD>  (1) 
0.8

>  <PUBCHEM_CONFORMER_DIVERSEORDER>  (1) 
1
102
82
98
60
5
43
54
66
100
32
64
61
37
46
88
14
10
69
11
52
31
51
44
57
62
92
50
99
93
80
71
72
86
79
2
96
45
35
68
48
63
76
91
56
75
65
59
58
15
97
38
53
89
16
77
94
22
83
39
101
26
17
30
70
24
74
78
84
81
42
12
36
34
41
6
40
49
25
19
18
20
7
9
28
73
13
27
90
8
21
23
4
95
29
3
33
85
67
55
47
87

>  <PUBCHEM_MMFF94_PARTIAL_CHARGES>  (1) 
19
1 -0.68
10 0.72
11 0.72
12 0.28
13 0.28
14 0.37
15 0.37
16 0.48
17 0.14
2 -0.68
3 -0.84
35 0.4
36 0.4
4 -0.84
5 -0.62
6 -0.62
7 -0.62
8 0.37
9 0.37

>  <PUBCHEM_EFFECTIVE_ROTOR_COUNT>  (1) 
6

>  <PUBCHEM_PHARMACOPHORE_FEATURES>  (1) 
7
1 1 acceptor
1 1 donor
1 2 acceptor
1 2 donor
4 3 5 7 10 cation
4 4 5 6 11 cation
6 5 6 7 10 11 16 rings

>  <PUBCHEM_HEAVY_ATOM_COUNT>  (1) 
17

>  <PUBCHEM_ATOM_DEF_STEREO_COUNT>  (1) 
0

>  <PUBCHEM_ATOM_UDEF_STEREO_COUNT>  (1) 
0

>  <PUBCHEM_BOND_DEF_STEREO_COUNT>  (1) 
0

>  <PUBCHEM_BOND_UDEF_STEREO_COUNT>  (1) 
0

>  <PUBCHEM_ISOTOPIC_ATOM_COUNT>  (1) 
0

>  <PUBCHEM_COMPONENT_COUNT>  (1) 
1

>  <PUBCHEM_CACTVS_TAUTO_COUNT>  (1) 
1

>  <PUBCHEM_CONFORMER_ID>  (1) 
0000826C00000001

>  <PUBCHEM_MMFF94_ENERGY>  (1) 
51.8698

>  <PUBCHEM_FEATURE_SELFOVERLAP>  (1) 
35.563

>  <PUBCHEM_SHAPE_FINGERPRINT>  (1) 
11132069 177 18268155429843887275
12077114 3 18335127730932374968
12403259 226 18410582781244492838
12403259 415 18410581681733293796
12500047 106 18410855503774264516
12730499 353 18336831867124479693
13140716 1 18339929216331934425
14178000 15 17474382474688541199
14614273 12 18055354892499364770
15490181 7 18410857667747113895
16945 1 17764883776307045390
18186145 218 18272379658733278640
18219364 16 18265072257205340009
20645477 56 18268440203403181152
21029758 11 17328296944590891575
21041028 32 17043186965396102281
21486144 27 17773898543072518424
21524375 3 18338529585258870458
21639500 275 18193830436650118381
220403 375 18335412457125007819
2334 1 18410018757549396981
23402539 116 17839451529537311223
23419403 2 16596705057553144886
23557571 272 17696213756087628798
238 59 18267851810010712405
25 1 18120385262874052301
2748010 2 18336559251947499229
305870 269 18336538348542136256
3187 122 17187824953902174792
350125 39 18337688467447755490
7097593 13 18118381047257442464
7364860 26 18122630444254267803
8050 44 18410573959682756489
81228 2 17834685163604965099
84936 182 18125993876030349441
90316 7 17688864654605928130

>  <PUBCHEM_SHAPE_MULTIPOLES>  (1) 
313.21
5.71
3.68
1.04
0.1
2.83
0
-4.09
-0.02
-0.05
0.02
0.01
-0.55
1.4

>  <PUBCHEM_SHAPE_SELFOVERLAP>  (1) 
623.019

>  <PUBCHEM_SHAPE_VOLUME>  (1) 
182.8

>  <PUBCHEM_COORDINATE_TYPE>  (1) 
2
5
10

$$$$
