33380
     RDKit          3D

 17 17  0  0  0  0  0  0  0  0999 V2000
   -2.3550   -0.5132   -0.0211 N   0  0  0  0  0  0  0  0  0  0  0  0
    2.3345   -0.5497    0.0212 N   0  0  0  0  0  0  0  0  0  0  0  0
   -0.0101   -0.4997    0.0018 N   0  0  0  0  0  0  0  0  0  0  0  0
    1.1735   -2.5871    0.0111 N   0  0  0  0  0  0  0  0  0  0  0  0
   -1.2259   -2.5684   -0.0106 N   0  0  0  0  0  0  0  0  0  0  0  0
   -3.8684    1.3850   -0.0006 C   0  0  0  0  0  0  0  0  0  0  0  0
    3.8912    1.3434   -0.0010 C   0  0  0  0  0  0  0  0  0  0  0  0
   -2.4150    0.9149   -0.0207 C   0  0  0  0  0  0  0  0  0  0  0  0
    2.4278    0.9055    0.0229 C   0  0  0  0  0  0  0  0  0  0  0  0
   -3.9553    2.9115    0.0217 C   0  0  0  0  0  0  0  0  0  0  0  0
    4.0117    2.8676   -0.0211 C   0  0  0  0  0  0  0  0  0  0  0  0
   -5.3989    3.3880    0.0059 C   0  0  0  0  0  0  0  0  0  0  0  0
    5.4656    3.3122   -0.0092 C   0  0  0  0  0  0  0  0  0  0  0  0
   -1.1379   -1.2285   -0.0087 C   0  0  0  0  0  0  0  0  0  0  0  0
    1.1359   -1.2291    0.0118 C   0  0  0  0  0  0  0  0  0  0  0  0
   -0.0310   -3.1808   -0.0002 C   0  0  0  0  0  0  0  0  0  0  0  0
   -0.0426   -4.6715   -0.0032 C   0  0  0  0  0  0  0  0  0  0  0  0
  1  8  1  0
  1 14  1  0
  2  9  1  0
  2 15  1  0
  3 14  2  0
  3 15  1  0
  4 15  2  0
  4 16  1  0
  5 14  1  0
  5 16  2  0
  6  8  1  0
  6 10  1  0
  7  9  1  0
  7 11  1  0
 10 12  1  0
 11 13  1  0
 16 17  1  0
M  END
>  <PUBCHEM_COMPOUND_CID>  (1) 
33380

>  <PUBCHEM_CONFORMER_RMSD>  (1) 
0.8

>  <PUBCHEM_CONFORMER_DIVERSEORDER>  (1) 
1
39
161
165
62
32
180
87
113
28
46
153
132
106
34
83
156
7
94
148
160
109
3
110
140
100
171
71
136
154
125
163
16
29
26
168
127
51
30
152
173
57
107
141
90
135
72
59
155
139
172
23
147
166
130
80
120
101
138
112
133
82
177
174
40
49
157
164
181
41
14
63
13
170
77
117
95
122
97
38
126
114
67
169
143
25
131
104
18
179
43
144
27
118
116
52
145
123
76
81
128
33
17
158
78
75
45
19
68
9
35
42
74
96
12
53
73
56
167
69
115
44
2
54
99
89
11
137
92
105
48
22
93
37
121
134
98
61
178
103
4
24
102
64
36
20
58
149
85
175
146
79
91
159
5
8
70
10
176
162
108
150
21
15
111
86
66
119
60
88
129
142
6
50
65
47
124
84
151
55
31

>  <PUBCHEM_MMFF94_PARTIAL_CHARGES>  (1) 
13
1 -0.87
14 0.72
15 0.72
16 0.48
17 0.14
2 -0.87
3 -0.62
30 0.4
31 0.4
4 -0.62
5 -0.62
8 0.37
9 0.37

>  <PUBCHEM_EFFECTIVE_ROTOR_COUNT>  (1) 
8

>  <PUBCHEM_PHARMACOPHORE_FEATURES>  (1) 
7
1 1 donor
1 12 hydrophobe
1 13 hydrophobe
1 2 donor
4 1 3 5 14 cation
4 2 3 4 15 cation
6 3 4 5 14 15 16 rings

>  <PUBCHEM_HEAVY_ATOM_COUNT>  (1) 
17

>  <PUBCHEM_ATOM_DEF_STEREO_COUNT>  (1) 
0

>  <PUBCHEM_ATOM_UDEF_STEREO_COUNT>  (1) 
0

>  <PUBCHEM_BOND_DEF_STEREO_COUNT>  (1) 
0

>  <PUBCHEM_BOND_UDEF_STEREO_COUNT>  (1) 
0

>  <PUBCHEM_ISOTOPIC_ATOM_COUNT>  (1) 
0

>  <PUBCHEM_COMPONENT_COUNT>  (1) 
1

>  <PUBCHEM_CACTVS_TAUTO_COUNT>  (1) 
5

>  <PUBCHEM_CONFORMER_ID>  (1) 
0000826400000001

>  <PUBCHEM_MMFF94_ENERGY>  (1) 
27.9385

>  <PUBCHEM_FEATURE_SELFOVERLAP>  (1) 
35.563

>  <PUBCHEM_SHAPE_FINGERPRINT>  (1) 
10411042 1 17185596261350645122
10937287 8 18411136935184415989
12107183 9 18335124398823516456
12173636 292 18338516472886967206
12293681 160 17686591929823281799
12293681 25 11670910806268765412
12390115 104 18269573760830784073
12769317 202 18268418045435377153
12788726 201 18123734620258913695
13134695 92 17544474155116787639
13590594 115 17042335934748123561
138480 1 17690279313590770529
13955234 65 18120662318920174931
13965767 371 18040990718260516084
14123255 52 18410575084663514148
14251764 75 18342466898165782961
14508225 48 17262147537614606831
15422964 175 9078821944786013430
17134986 127 18339365167019833334
17834072 32 18410012152159214764
18785283 64 18192148192191112267
21304253 13 17474679824292600971
21426921 1 17978229692867225358
23558518 356 18188776170528690954
3071541 12 18195529194657412879
394222 165 18261384512364426802
474 4 18267582408202953089
6327066 14 18335415802720753429
633830 44 18270959051055526077
77188 2 17329710920712662758
7808743 9 18266176317541456344
84936 182 18200024036983448369
9981440 41 18409164424398654793

>  <PUBCHEM_SHAPE_MULTIPOLES>  (1) 
324.95
9.82
6.29
0.59
0.55
3.81
0
-19.85
0.01
-0.27
0.01
0
-0.04
-0.05

>  <PUBCHEM_SHAPE_SELFOVERLAP>  (1) 
629.267

>  <PUBCHEM_SHAPE_VOLUME>  (1) 
188.2

>  <PUBCHEM_COORDINATE_TYPE>  (1) 
2
5
10

$$$$
