33385
     RDKit          3D

 17 17  0  0  0  0  0  0  0  0999 V2000
   -2.3382    0.5281    0.1326 N   0  0  0  0  0  0  0  0  0  0  0  0
    2.3441    0.5450   -0.1332 N   0  0  0  0  0  0  0  0  0  0  0  0
    0.0029    0.5683   -0.0021 N   0  0  0  0  0  0  0  0  0  0  0  0
    1.2082   -1.5055   -0.0694 N   0  0  0  0  0  0  0  0  0  0  0  0
   -1.1875   -1.5141    0.0666 N   0  0  0  0  0  0  0  0  0  0  0  0
   -3.6073   -0.1842    0.2071 C   0  0  0  0  0  0  0  0  0  0  0  0
   -2.3669    1.9852    0.1476 C   0  0  0  0  0  0  0  0  0  0  0  0
    3.6040   -0.1666   -0.2025 C   0  0  0  0  0  0  0  0  0  0  0  0
    2.3475    1.9937   -0.1483 C   0  0  0  0  0  0  0  0  0  0  0  0
   -1.1297   -0.1648    0.0625 C   0  0  0  0  0  0  0  0  0  0  0  0
    1.1258   -0.1652   -0.0655 C   0  0  0  0  0  0  0  0  0  0  0  0
   -4.0638   -0.6378   -1.1692 C   0  0  0  0  0  0  0  0  0  0  0  0
   -2.0928    2.5254    1.5409 C   0  0  0  0  0  0  0  0  0  0  0  0
    4.0550   -0.6199    1.1757 C   0  0  0  0  0  0  0  0  0  0  0  0
    2.0681    2.5289   -1.5425 C   0  0  0  0  0  0  0  0  0  0  0  0
    0.0125   -2.1128   -0.0012 C   0  0  0  0  0  0  0  0  0  0  0  0
    0.0182   -3.6036    0.0011 C   0  0  0  0  0  0  0  0  0  0  0  0
  1  6  1  0
  1  7  1  0
  1 10  1  0
  2  8  1  0
  2  9  1  0
  2 11  1  0
  3 10  2  0
  3 11  1  0
  4 11  2  0
  4 16  1  0
  5 10  1  0
  5 16  2  0
  6 12  1  0
  7 13  1  0
  8 14  1  0
  9 15  1  0
 16 17  1  0
M  END
>  <PUBCHEM_COMPOUND_CID>  (1) 
33385

>  <PUBCHEM_CONFORMER_RMSD>  (1) 
0.8

>  <PUBCHEM_CONFORMER_DIVERSEORDER>  (1) 
1
10
14
11
8
12
9
16
2
17
6
5
15
13
4
3
7

>  <PUBCHEM_MMFF94_PARTIAL_CHARGES>  (1) 
13
1 -0.84
10 0.72
11 0.72
16 0.48
17 0.14
2 -0.84
3 -0.62
4 -0.62
5 -0.62
6 0.37
7 0.37
8 0.37
9 0.37

>  <PUBCHEM_EFFECTIVE_ROTOR_COUNT>  (1) 
6

>  <PUBCHEM_PHARMACOPHORE_FEATURES>  (1) 
3
4 1 3 5 10 cation
4 2 3 4 11 cation
6 3 4 5 10 11 16 rings

>  <PUBCHEM_HEAVY_ATOM_COUNT>  (1) 
17

>  <PUBCHEM_ATOM_DEF_STEREO_COUNT>  (1) 
0

>  <PUBCHEM_ATOM_UDEF_STEREO_COUNT>  (1) 
0

>  <PUBCHEM_BOND_DEF_STEREO_COUNT>  (1) 
0

>  <PUBCHEM_BOND_UDEF_STEREO_COUNT>  (1) 
0

>  <PUBCHEM_ISOTOPIC_ATOM_COUNT>  (1) 
0

>  <PUBCHEM_COMPONENT_COUNT>  (1) 
1

>  <PUBCHEM_CACTVS_TAUTO_COUNT>  (1) 
1

>  <PUBCHEM_CONFORMER_ID>  (1) 
0000826900000001

>  <PUBCHEM_MMFF94_ENERGY>  (1) 
43.5117

>  <PUBCHEM_FEATURE_SELFOVERLAP>  (1) 
15.266

>  <PUBCHEM_SHAPE_FINGERPRINT>  (1) 
12251169 10 18334570283095290648
12403260 363 18410846668330204321
13140716 1 18267022945404455611
13380535 76 18410572885651041971
13538477 17 18191303986578514878
13583140 156 17168140186908422651
14178342 30 18196653990778493441
15490181 8 18338533974715187110
16945 1 18410867554756398631
17862501 102 18339069424098435938
18186145 218 18409732893232024765
192875 21 18410284826520835741
200 152 18342444946782130885
20510252 161 18272934950701956960
20645476 183 18043260243219277894
20671657 1 18188500197774163620
21501502 16 18124594185217425715
21524375 3 18334857216443054738
22094290 62 18334295409362059524
2334 1 17978513366239775399
23402539 116 18272357685717366437
23419403 2 16176998796082833478
23557571 272 17275108305867875633
23558518 356 18269286677111886515
23559900 14 18200036295664266020
23598291 2 17912363117903158911
2748010 2 17335059443628588457
305870 269 18195811769150616994
352729 6 18338804531880133350
43471831 8 18338514119102795251
474 4 18336273336238556545
58051976 378 18342171150980416927
6992083 37 18333449833428398840
7364860 26 17982734069351348719
74978 22 18263083378526131142
7832392 63 17980769229356188849
81228 2 17836358628992614595

>  <PUBCHEM_SHAPE_MULTIPOLES>  (1) 
324.95
6.4
3.33
1.08
0.06
1.01
0
-1.11
0.01
-0.01
0
0
-0.66
-1.48

>  <PUBCHEM_SHAPE_SELFOVERLAP>  (1) 
638.96

>  <PUBCHEM_SHAPE_VOLUME>  (1) 
187.3

>  <PUBCHEM_COORDINATE_TYPE>  (1) 
2
5
10

$$$$
