33381
     RDKit          3D

 17 17  0  0  1  0  0  0  0  0999 V2000
   -2.3132    0.0747   -0.3385 N   0  0  0  0  0  0  0  0  0  0  0  0
    2.3272    0.0551    0.3401 N   0  0  0  0  0  0  0  0  0  0  0  0
    0.0068    0.0332    0.0026 N   0  0  0  0  0  0  0  0  0  0  0  0
    1.2032    2.1063    0.1718 N   0  0  0  0  0  0  0  0  0  0  0  0
   -1.1711    2.1162   -0.1754 N   0  0  0  0  0  0  0  0  0  0  0  0
   -2.4087   -1.3702   -0.3504 C   0  0  0  0  0  0  0  0  0  0  0  0
    2.3909   -1.3727    0.3550 C   0  0  0  0  0  0  0  0  0  0  0  0
   -3.8501   -1.8091   -0.0661 C   0  0  0  0  0  0  0  0  0  0  0  0
    3.8218   -1.8431    0.0674 C   0  0  0  0  0  0  0  0  0  0  0  0
   -1.9423   -1.8783   -1.7109 C   0  0  0  0  0  0  0  0  0  0  0  0
    1.9179   -1.8674    1.7180 C   0  0  0  0  0  0  0  0  0  0  0  0
   -1.1249    0.7611   -0.1648 C   0  0  0  0  0  0  0  0  0  0  0  0
    1.1203    0.7661    0.1635 C   0  0  0  0  0  0  0  0  0  0  0  0
   -4.3569   -1.3215    1.2854 C   0  0  0  0  0  0  0  0  0  0  0  0
    4.3346   -1.3697   -1.2868 C   0  0  0  0  0  0  0  0  0  0  0  0
    0.0187    2.7143   -0.0030 C   0  0  0  0  0  0  0  0  0  0  0  0
    0.0258    4.2051   -0.0080 C   0  0  0  0  0  0  0  0  0  0  0  0
  1  6  1  0
  1 12  1  0
  2  7  1  0
  2 13  1  0
  3 12  2  0
  3 13  1  0
  4 13  2  0
  4 16  1  0
  5 12  1  0
  5 16  2  0
  6  8  1  0
  6 10  1  0
  7  9  1  0
  7 11  1  0
  8 14  1  0
  9 15  1  0
 16 17  1  0
M  END
>  <PUBCHEM_COMPOUND_CID>  (1) 
33381

>  <PUBCHEM_CONFORMER_RMSD>  (1) 
0.8

>  <PUBCHEM_CONFORMER_DIVERSEORDER>  (1) 
1
39
118
112
58
28
150
162
87
145
25
124
98
205
50
15
129
111
172
37
4
194
84
159
31
157
11
178
86
171
100
188
187
109
158
3
76
182
154
81
9
110
197
78
167
170
196
125
95
8
43
94
189
161
63
202
46
201
141
80
153
102
152
204
90
107
33
138
32
72
126
180
156
181
79
160
147
115
143
108
30
18
184
88
183
103
38
75
137
200
69
168
14
5
17
41
169
164
175
134
193
149
133
83
96
66
119
51
142
166
53
104
173
7
177
40
27
195
13
60
136
65
54
130
29
59
185
55
48
45
71
122
56
131
49
36
117
120
34
192
97
199
24
77
57
62
148
179
191
163
85
47
190
121
67
123
101
135
106
116
113
20
151
127
89
99
42
26
35
22
155
16
139
105
82
6
44
74
23
68
186
92
70
176
19
91
73
114
52
198
10
146
132
144
165
174
64
12
203
128
21
61
93
140
2

>  <PUBCHEM_MMFF94_PARTIAL_CHARGES>  (1) 
13
1 -0.87
12 0.72
13 0.72
16 0.48
17 0.14
2 -0.87
24 0.4
25 0.4
3 -0.62
4 -0.62
5 -0.62
6 0.37
7 0.37

>  <PUBCHEM_EFFECTIVE_ROTOR_COUNT>  (1) 
6

>  <PUBCHEM_PHARMACOPHORE_FEATURES>  (1) 
7
1 1 donor
1 14 hydrophobe
1 15 hydrophobe
1 2 donor
4 1 3 5 12 cation
4 2 3 4 13 cation
6 3 4 5 12 13 16 rings

>  <PUBCHEM_HEAVY_ATOM_COUNT>  (1) 
17

>  <PUBCHEM_ATOM_DEF_STEREO_COUNT>  (1) 
0

>  <PUBCHEM_ATOM_UDEF_STEREO_COUNT>  (1) 
2

>  <PUBCHEM_BOND_DEF_STEREO_COUNT>  (1) 
0

>  <PUBCHEM_BOND_UDEF_STEREO_COUNT>  (1) 
0

>  <PUBCHEM_ISOTOPIC_ATOM_COUNT>  (1) 
0

>  <PUBCHEM_COMPONENT_COUNT>  (1) 
1

>  <PUBCHEM_CACTVS_TAUTO_COUNT>  (1) 
5

>  <PUBCHEM_CONFORMER_ID>  (1) 
0000826500000001

>  <PUBCHEM_MMFF94_ENERGY>  (1) 
35.5103

>  <PUBCHEM_FEATURE_SELFOVERLAP>  (1) 
35.562

>  <PUBCHEM_SHAPE_FINGERPRINT>  (1) 
12403259 327 15339120173357326871
12553582 1 18410848867359319278
12707595 3 18262224612331380811
12788726 201 18117835495720502403
12841375 25 18410576197123048550
13140716 1 18338505344463257368
13533116 47 18050010184627936075
14252887 29 18343016735493534146
15042514 8 18194406580532024321
15276787 5 15698001825030000654
15279307 12 17540535721703647658
15669948 3 18048871897475482162
16752209 62 17835220273648659596
1813 80 18271539648961137462
20291156 8 18410853261105302499
20645476 183 17543914503708279292
20645477 70 18193258918453518335
20871998 184 18127967520850215374
20871998 22 18412260670469725112
21634736 98 18408608046172548222
21665056 4 17401482650459273638
2255824 54 17906730654530378893
23419403 2 13640309807107460803
23530152 11 17112124699210967228
23557571 272 17913758432998307034
23559900 14 17552908531032358338
23598288 3 17974569091829680498
23598291 2 18129381664950601183
23598294 1 18266455408378307379
2748010 2 18268124552955101268
3071541 250 18337396040362624844
3091708 16 9498341761710350385
314173 41 18337111258398603435
458136 41 17686068588157964645
7097593 13 18127412465537261811
7364860 26 18123747814202943341
7970288 3 18410571786140096275
81228 2 18050823560247389929

>  <PUBCHEM_SHAPE_MULTIPOLES>  (1) 
324.95
6.86
4.01
1.21
0.16
5.32
0
-7.67
-0.01
-0.09
0.02
0
-0.97
-0.01

>  <PUBCHEM_SHAPE_SELFOVERLAP>  (1) 
637.801

>  <PUBCHEM_SHAPE_VOLUME>  (1) 
187.6

>  <PUBCHEM_COORDINATE_TYPE>  (1) 
2
5
10

$$$$
