33382
     RDKit          3D

 21 21  0  0  0  0  0  0  0  0999 V2000
    1.9662    2.3324   -0.4518 N   0  0  0  0  0  0  0  0  0  0  0  0
    1.9484   -2.3574   -0.4742 N   0  0  0  0  0  0  0  0  0  0  0  0
    1.9280   -0.0125   -0.4752 N   0  0  0  0  0  0  0  0  0  0  0  0
    3.7955   -1.2236    0.4212 N   0  0  0  0  0  0  0  0  0  0  0  0
    3.8046    1.1759    0.4327 N   0  0  0  0  0  0  0  0  0  0  0  0
   -1.8405    2.4667   -0.6480 C   0  0  0  0  0  0  0  0  0  0  0  0
   -1.8481   -2.3740   -0.6690 C   0  0  0  0  0  0  0  0  0  0  0  0
   -0.4398    2.4079   -0.0283 C   0  0  0  0  0  0  0  0  0  0  0  0
   -0.4469   -2.2658   -0.0571 C   0  0  0  0  0  0  0  0  0  0  0  0
   -2.9246    2.3711    0.4286 C   0  0  0  0  0  0  0  0  0  0  0  0
   -2.9302   -2.2800    0.4099 C   0  0  0  0  0  0  0  0  0  0  0  0
    0.6695    2.4346   -1.0765 C   0  0  0  0  0  0  0  0  0  0  0  0
    0.6621   -2.4206   -1.0944 C   0  0  0  0  0  0  0  0  0  0  0  0
   -4.3460    2.3942   -0.1378 C   0  0  0  0  0  0  0  0  0  0  0  0
   -4.3509   -2.4131   -0.1422 C   0  0  0  0  0  0  0  0  0  0  0  0
   -5.4250    2.2286    0.9212 C   0  0  0  0  0  0  0  0  0  0  0  0
   -5.4258   -2.3911    0.9337 C   0  0  0  0  0  0  0  0  0  0  0  0
    2.5850    1.1280   -0.1551 C   0  0  0  0  0  0  0  0  0  0  0  0
    2.5881   -1.1386   -0.1603 C   0  0  0  0  0  0  0  0  0  0  0  0
    4.3432   -0.0271    0.6887 C   0  0  0  0  0  0  0  0  0  0  0  0
    5.6871   -0.0354    1.3341 C   0  0  0  0  0  0  0  0  0  0  0  0
  1 12  1  0
  1 18  1  0
  2 13  1  0
  2 19  1  0
  3 18  2  0
  3 19  1  0
  4 19  2  0
  4 20  1  0
  5 18  1  0
  5 20  2  0
  6  8  1  0
  6 10  1  0
  7  9  1  0
  7 11  1  0
  8 12  1  0
  9 13  1  0
 10 14  1  0
 11 15  1  0
 14 16  1  0
 15 17  1  0
 20 21  1  0
M  END
>  <PUBCHEM_COMPOUND_CID>  (1) 
33382

>  <PUBCHEM_CONFORMER_RMSD>  (1) 
1

>  <PUBCHEM_CONFORMER_DIVERSEORDER>  (1) 
4
2
167
236
20
157
3
24
48
123
165
249
141
60
56
126
1
234
168
238
263
14
146
164
132
10
42
248
200
147
26
63
213
205
245
173
264
116
247
5
214
8
160
210
151
250
169
206
32
49
76
35
252
239
134
202
143
125
152
215
244
163
111
109
211
93
150
256
136
186
106
34
217
145
246
138
43
178
179
220
209
218
242
183
253
97
27
159
67
100
9
230
59
119
235
149
162
175
41
64
180
95
129
255
198
30
44
103
227
122
201
90
96
62
153
194
216
115
233
102
176
241
78
243
166
84
221
86
25
259
139
228
112
31
188
257
85
55
40
50
240
258
120
208
61
105
203
262
170
18
140
223
121
128
37
89
130
182
79
224
17
80
127
254
16
23
66
237
232
137
73
260
11
212
229
46
231
144
190
94
181
124
39
51
142
92
226
113
174
197
87
187
154
99
261
15
38
155
6
110
196
36
133
161
171
28
71
12
148
54
81
131
101
98
195
83
114
193
204
72
184
108
118
53
47
33
251
135
225
191
58
189
222
156
77
29
21
52
65
7
177
19
185
158
69
68
91
57
192
172
104
88
75
207
107
45
82
13
199
219
117
74
70
22

>  <PUBCHEM_MMFF94_PARTIAL_CHARGES>  (1) 
13
1 -0.87
12 0.37
13 0.37
18 0.72
19 0.72
2 -0.87
20 0.48
21 0.14
3 -0.62
4 -0.62
42 0.4
43 0.4
5 -0.62

>  <PUBCHEM_EFFECTIVE_ROTOR_COUNT>  (1) 
12

>  <PUBCHEM_PHARMACOPHORE_FEATURES>  (1) 
9
1 1 donor
1 16 hydrophobe
1 17 hydrophobe
1 2 donor
4 1 3 5 18 cation
4 2 3 4 19 cation
4 6 8 10 14 hydrophobe
4 7 9 11 15 hydrophobe
6 3 4 5 18 19 20 rings

>  <PUBCHEM_HEAVY_ATOM_COUNT>  (1) 
21

>  <PUBCHEM_ATOM_DEF_STEREO_COUNT>  (1) 
0

>  <PUBCHEM_ATOM_UDEF_STEREO_COUNT>  (1) 
0

>  <PUBCHEM_BOND_DEF_STEREO_COUNT>  (1) 
0

>  <PUBCHEM_BOND_UDEF_STEREO_COUNT>  (1) 
0

>  <PUBCHEM_ISOTOPIC_ATOM_COUNT>  (1) 
0

>  <PUBCHEM_COMPONENT_COUNT>  (1) 
1

>  <PUBCHEM_CACTVS_TAUTO_COUNT>  (1) 
5

>  <PUBCHEM_CONFORMER_ID>  (1) 
0000826600000004

>  <PUBCHEM_MMFF94_ENERGY>  (1) 
27.6667

>  <PUBCHEM_FEATURE_SELFOVERLAP>  (1) 
45.714

>  <PUBCHEM_SHAPE_FINGERPRINT>  (1) 
10688039 33 17968652839067518887
10939801 23 18122065565982155344
13140716 1 18410848846385226948
20621476 7 18267591384689902259
21197605 99 18413393138035645639
21304304 249 17975967670720451086
21673915 165 18341608153734882517
3052486 1 18336279993421846740
33824 294 18123466081971423532
338550 245 18334867138455734173
5104073 3 18266156440975558416
5282274 181 18338522936733671741
5283268 108 18337114565628812606
6438718 38 18059842970157139238
653340 110 18270391827710144449

>  <PUBCHEM_SHAPE_MULTIPOLES>  (1) 
407.27
11.54
4.67
1.02
2.14
0.11
-0.06
-0.34
-5.5
5.82
0.61
-0.21
-0.02
0.02

>  <PUBCHEM_SHAPE_SELFOVERLAP>  (1) 
781.31

>  <PUBCHEM_SHAPE_VOLUME>  (1) 
239.8

>  <PUBCHEM_COORDINATE_TYPE>  (1) 
2
5
10

$$$$
