33397
     RDKit          3D

 22 24  0  0  0  0  0  0  0  0999 V2000
    0.8076   -3.9286    1.5467 Cl  0  0  0  0  0  0  0  0  0  0  0  0
   -1.6695   -4.0913    0.0822 Cl  0  0  0  0  0  0  0  0  0  0  0  0
    0.8171   -3.9997   -1.3792 Cl  0  0  0  0  0  0  0  0  0  0  0  0
    2.3539    0.8120   -0.0500 N   0  0  0  0  0  0  0  0  0  0  0  0
   -2.3401    0.8316   -0.0510 N   0  0  0  0  0  0  0  0  0  0  0  0
   -0.0049    0.8524   -0.0497 N   0  0  0  0  0  0  0  0  0  0  0  0
   -1.2194   -1.2162    0.0080 N   0  0  0  0  0  0  0  0  0  0  0  0
    1.1800   -1.2333    0.0087 N   0  0  0  0  0  0  0  0  0  0  0  0
    4.8513    2.2550    0.0504 C   0  0  0  0  0  0  0  0  0  0  0  0
   -4.8166    2.3101    0.0512 C   0  0  0  0  0  0  0  0  0  0  0  0
    4.7483    0.8911   -0.6210 C   0  0  0  0  0  0  0  0  0  0  0  0
    3.5157    2.9843   -0.0330 C   0  0  0  0  0  0  0  0  0  0  0  0
   -3.4711    3.0204   -0.0333 C   0  0  0  0  0  0  0  0  0  0  0  0
   -4.7334    0.9454   -0.6213 C   0  0  0  0  0  0  0  0  0  0  0  0
    3.6121    0.0570   -0.0309 C   0  0  0  0  0  0  0  0  0  0  0  0
    2.3849    2.1481    0.5618 C   0  0  0  0  0  0  0  0  0  0  0  0
   -2.3521    2.1680    0.5612 C   0  0  0  0  0  0  0  0  0  0  0  0
   -3.6090    0.0949   -0.0325 C   0  0  0  0  0  0  0  0  0  0  0  0
    1.1363    0.1211   -0.0290 C   0  0  0  0  0  0  0  0  0  0  0  0
   -1.1323    0.1232   -0.0293 C   0  0  0  0  0  0  0  0  0  0  0  0
   -0.0240   -1.8275    0.0251 C   0  0  0  0  0  0  0  0  0  0  0  0
   -0.0348   -3.3178    0.0648 C   0  0  0  0  0  0  0  0  0  0  0  0
  1 22  1  0
  2 22  1  0
  3 22  1  0
  4 15  1  0
  4 16  1  0
  4 19  1  0
  5 17  1  0
  5 18  1  0
  5 20  1  0
  6 19  2  0
  6 20  1  0
  7 20  2  0
  7 21  1  0
  8 19  1  0
  8 21  2  0
  9 11  1  0
  9 12  1  0
 10 13  1  0
 10 14  1  0
 11 15  1  0
 12 16  1  0
 13 17  1  0
 14 18  1  0
 21 22  1  0
M  END
>  <PUBCHEM_COMPOUND_CID>  (1) 
33397

>  <PUBCHEM_CONFORMER_RMSD>  (1) 
0.8

>  <PUBCHEM_CONFORMER_DIVERSEORDER>  (1) 
1
8
15
6
5
13
4
14
10
7
2
12
9
11
3

>  <PUBCHEM_MMFF94_PARTIAL_CHARGES>  (1) 
16
1 -0.29
15 0.37
16 0.37
17 0.37
18 0.37
19 0.72
2 -0.29
20 0.72
21 0.48
22 1.01
3 -0.29
4 -0.84
5 -0.84
6 -0.62
7 -0.62
8 -0.62

>  <PUBCHEM_EFFECTIVE_ROTOR_COUNT>  (1) 
5.4

>  <PUBCHEM_PHARMACOPHORE_FEATURES>  (1) 
5
4 4 6 8 19 cation
4 5 6 7 20 cation
6 4 9 11 12 15 16 rings
6 5 10 13 14 17 18 rings
6 6 7 8 19 20 21 rings

>  <PUBCHEM_HEAVY_ATOM_COUNT>  (1) 
22

>  <PUBCHEM_ATOM_DEF_STEREO_COUNT>  (1) 
0

>  <PUBCHEM_ATOM_UDEF_STEREO_COUNT>  (1) 
0

>  <PUBCHEM_BOND_DEF_STEREO_COUNT>  (1) 
0

>  <PUBCHEM_BOND_UDEF_STEREO_COUNT>  (1) 
0

>  <PUBCHEM_ISOTOPIC_ATOM_COUNT>  (1) 
0

>  <PUBCHEM_COMPONENT_COUNT>  (1) 
1

>  <PUBCHEM_CACTVS_TAUTO_COUNT>  (1) 
1

>  <PUBCHEM_CONFORMER_ID>  (1) 
0000827500000001

>  <PUBCHEM_MMFF94_ENERGY>  (1) 
52.0321

>  <PUBCHEM_FEATURE_SELFOVERLAP>  (1) 
25.414

>  <PUBCHEM_SHAPE_FINGERPRINT>  (1) 
10319926 262 18054489565061228168
10411042 1 17401769021704755866
1100329 8 18336540509227937962
11833330 49 17761205922538339987
12107183 9 18335124390223045352
12160290 23 17904450220074714254
12173636 292 18339077206616203700
12553582 1 16969988649846253558
12730499 353 18336838476941913945
12769317 202 18268419153399705037
12788726 201 17903063779157349602
13004483 165 17691961983325632330
13140716 1 18335419041267869666
13583140 156 16951392377430429089
138480 1 17690280404628378347
13955234 65 18120661232224877331
14178342 30 18120919871140426624
14466204 15 18266732481552006280
14508225 48 17334486602423773543
14790565 3 18410015416265943900
15042514 8 18048884292450762507
15664445 248 17551520937755373135
15927050 60 18410573985743178302
16087824 20 18051131686530666727
17539 30 17838891890855819790
18681886 176 17908698436752703531
19591789 44 18410012109129816372
20101258 96 17327190243388224992
20510252 161 18196938987575405427
20600515 1 16529721086864882712
21033648 29 18340482360917970672
21049683 118 18194655250364101137
21307412 95 17985856795056051406
21524375 3 18411981355835086668
21796203 349 17401801543529386147
2255824 54 18051129194821361243
23366157 5 17972604286041310427
23557571 272 17907589365059749340
23558518 356 18118121596556572266
23559900 14 17906725913445380545
283562 15 18193269917754188163
3071541 12 18123755248970596375
3091708 16 9121193858782161963
314173 41 17548139927068389463
335352 9 18410856543420257004
352729 6 18339928215652039803
3759504 43 18335139838170368892
394222 165 18262231127701544834
474 4 18338515236047350329
474229 33 18337955705225142883
532947 4 18197506125539054958
59755656 520 18335134323923127508
6025842 7 18267015056208642909
6138700 20 18124601882210744766
633830 44 18271524217185964573
6443956 14 17834117446543495022
67856867 119 18193827151131966689
7164475 11 17832991924773233044
7364860 26 18124033421180831415
77188 2 17328864296817310423
7808743 9 18192992840903415216
79837 15 18336834185762903961
81228 2 17759515960313383370
84936 182 18270677541793222081
9709674 26 18199475548738423830
9841814 1 17685777921893277195
9981440 41 18408038507507381665

>  <PUBCHEM_SHAPE_MULTIPOLES>  (1) 
433.45
8.72
5.83
0.89
0.11
6.62
-0.05
-11.5
1.01
-0.26
-0.38
0.18
0.79
0.02

>  <PUBCHEM_SHAPE_SELFOVERLAP>  (1) 
869.905

>  <PUBCHEM_SHAPE_VOLUME>  (1) 
249.4

>  <PUBCHEM_COORDINATE_TYPE>  (1) 
2
5
10

$$$$
