33395
     RDKit          3D

 18 18  0  0  0  0  0  0  0  0999 V2000
   -0.7131    3.3382    1.5185 Cl  0  0  0  0  0  0  0  0  0  0  0  0
    1.6526    3.4621   -0.1232 Cl  0  0  0  0  0  0  0  0  0  0  0  0
   -0.9318    3.3267   -1.3999 Cl  0  0  0  0  0  0  0  0  0  0  0  0
   -2.3409   -1.4391    0.1692 N   0  0  0  0  0  0  0  0  0  0  0  0
    2.3368   -1.4677   -0.1664 N   0  0  0  0  0  0  0  0  0  0  0  0
   -0.0020   -1.4851    0.0031 N   0  0  0  0  0  0  0  0  0  0  0  0
    1.2072    0.5857   -0.0843 N   0  0  0  0  0  0  0  0  0  0  0  0
   -1.1862    0.6002    0.0874 N   0  0  0  0  0  0  0  0  0  0  0  0
   -1.1385   -0.7532    0.0846 C   0  0  0  0  0  0  0  0  0  0  0  0
    1.1216   -0.7545   -0.0776 C   0  0  0  0  0  0  0  0  0  0  0  0
    0.0141    1.1959    0.0011 C   0  0  0  0  0  0  0  0  0  0  0  0
   -3.6272   -0.7943    0.2592 C   0  0  0  0  0  0  0  0  0  0  0  0
    3.6091   -0.8230   -0.2598 C   0  0  0  0  0  0  0  0  0  0  0  0
    0.0231    2.6867   -0.0020 C   0  0  0  0  0  0  0  0  0  0  0  0
   -4.6889   -1.8437    0.3389 C   0  0  0  0  0  0  0  0  0  0  0  0
    4.6749   -1.8680   -0.3423 C   0  0  0  0  0  0  0  0  0  0  0  0
   -5.6788   -1.9736   -0.5517 C   0  0  0  0  0  0  0  0  0  0  0  0
    5.6682   -1.9934    0.5452 C   0  0  0  0  0  0  0  0  0  0  0  0
  1 14  1  0
  2 14  1  0
  3 14  1  0
  4  9  1  0
  4 12  1  0
  5 10  1  0
  5 13  1  0
  6  9  2  0
  6 10  1  0
  7 10  2  0
  7 11  1  0
  8  9  1  0
  8 11  2  0
 11 14  1  0
 12 15  1  0
 13 16  1  0
 15 17  2  0
 16 18  2  0
M  END
>  <PUBCHEM_COMPOUND_CID>  (1) 
33395

>  <PUBCHEM_CONFORMER_RMSD>  (1) 
0.8

>  <PUBCHEM_CONFORMER_DIVERSEORDER>  (1) 
1
19
7
18
4
15
6
26
2
16
11
14
23
17
28
20
9
3
13
22
25
10
29
21
8
24
27
5
12

>  <PUBCHEM_MMFF94_PARTIAL_CHARGES>  (1) 
26
1 -0.29
10 0.72
11 0.48
12 0.51
13 0.51
14 1.01
15 -0.29
16 -0.29
17 -0.3
18 -0.3
19 0.4
2 -0.29
20 0.4
25 0.15
26 0.15
27 0.15
28 0.15
29 0.15
3 -0.29
30 0.15
4 -0.87
5 -0.87
6 -0.62
7 -0.62
8 -0.62
9 0.72

>  <PUBCHEM_EFFECTIVE_ROTOR_COUNT>  (1) 
7

>  <PUBCHEM_PHARMACOPHORE_FEATURES>  (1) 
7
1 17 hydrophobe
1 18 hydrophobe
1 4 donor
1 5 donor
4 4 6 8 9 cation
4 5 6 7 10 cation
6 6 7 8 9 10 11 rings

>  <PUBCHEM_HEAVY_ATOM_COUNT>  (1) 
18

>  <PUBCHEM_ATOM_DEF_STEREO_COUNT>  (1) 
0

>  <PUBCHEM_ATOM_UDEF_STEREO_COUNT>  (1) 
0

>  <PUBCHEM_BOND_DEF_STEREO_COUNT>  (1) 
0

>  <PUBCHEM_BOND_UDEF_STEREO_COUNT>  (1) 
0

>  <PUBCHEM_ISOTOPIC_ATOM_COUNT>  (1) 
0

>  <PUBCHEM_COMPONENT_COUNT>  (1) 
1

>  <PUBCHEM_CACTVS_TAUTO_COUNT>  (1) 
5

>  <PUBCHEM_CONFORMER_ID>  (1) 
0000827300000001

>  <PUBCHEM_MMFF94_ENERGY>  (1) 
38.3993

>  <PUBCHEM_FEATURE_SELFOVERLAP>  (1) 
35.563

>  <PUBCHEM_SHAPE_FINGERPRINT>  (1) 
10411042 1 18410293605528901814
10756046 70 17916582197295581231
1100329 8 18268156370426706449
11265709 11 18411423903350354371
11680986 33 18119536693532887219
12293681 160 17406245760802102440
12788726 201 18115303371929257194
12841375 25 18410011048183515855
13134695 92 18200874110191089645
13862211 1 18410572885672459274
13955234 65 17981048836291015299
14178000 15 18341898544968624105
14508225 48 18335417950224831468
15042514 8 18194405476904738258
167882 2 18120658190818578973
17492 89 18050004691159295555
17539 30 18263919943386790205
1813 80 18201170896146144246
18222031 100 18343867735734084230
20510252 161 18340205164292350962
20645477 70 18192144022363696411
20671657 1 18055076725180312899
21029758 11 18410857680837555851
21041028 32 18343304777612468073
21049683 271 18189346834021102764
21426921 1 18192714445433203078
21478907 32 18337672988496955634
221490 88 18047760579025580675
22182313 1 18190438614935053925
2297311 6 18269847441212083414
23352939 185 18270973422417005320
23402539 116 18341047428337312495
23419403 2 17916563402270825840
23557571 272 17985277278980985710
23558518 356 17902243217086898586
23559900 14 18190456259288407611
23845131 108 17334223329350041913
283562 15 18336266721883744170
3091708 16 9065996176155359952
3421961 26 18339361988654285563
5385378 56 18052264182752447633
57262259 84 18335701581343605549
58779409 54 18191861232530602253
68521 5 18335422305342703278
7164475 11 18263372391339556926
7364860 26 18197220471400604121
7471813 234 18059854017409057873
77188 2 18411701006150857212
81228 2 18193859057942809810
9971528 1 18270394009769561715
9981440 41 16964631253691665376

>  <PUBCHEM_SHAPE_MULTIPOLES>  (1) 
351.14
9.5
4.61
0.93
0.04
5.37
0.05
-14.18
-0.06
0.19
-0.01
-0.22
0.81
-0.21

>  <PUBCHEM_SHAPE_SELFOVERLAP>  (1) 
675.457

>  <PUBCHEM_SHAPE_VOLUME>  (1) 
210.2

>  <PUBCHEM_COORDINATE_TYPE>  (1) 
2
5
10

$$$$
