33396
     RDKit          3D

 20 20  0  0  0  0  0  0  0  0999 V2000
    0.8220    3.6273   -1.4132 Cl  0  0  0  0  0  0  0  0  0  0  0  0
   -1.7366    3.6964   -0.0882 Cl  0  0  0  0  0  0  0  0  0  0  0  0
    0.6650    3.6118    1.5092 Cl  0  0  0  0  0  0  0  0  0  0  0  0
    2.3648   -1.1187    0.1326 N   0  0  0  0  0  0  0  0  0  0  0  0
   -2.3157   -1.2468   -0.1341 N   0  0  0  0  0  0  0  0  0  0  0  0
    0.0254   -1.2144   -0.0025 N   0  0  0  0  0  0  0  0  0  0  0  0
   -1.2288    0.8302   -0.0702 N   0  0  0  0  0  0  0  0  0  0  0  0
    1.1659    0.8956    0.0662 N   0  0  0  0  0  0  0  0  0  0  0  0
    3.6167   -0.3764    0.2073 C   0  0  0  0  0  0  0  0  0  0  0  0
    2.4282   -2.5746    0.1478 C   0  0  0  0  0  0  0  0  0  0  0  0
   -3.5921   -0.5653   -0.2037 C   0  0  0  0  0  0  0  0  0  0  0  0
   -2.2846   -2.6952   -0.1490 C   0  0  0  0  0  0  0  0  0  0  0  0
    1.1402   -0.4547    0.0622 C   0  0  0  0  0  0  0  0  0  0  0  0
   -1.1146   -0.5078   -0.0662 C   0  0  0  0  0  0  0  0  0  0  0  0
    4.0329    0.0860   -1.1758 C   0  0  0  0  0  0  0  0  0  0  0  0
    2.1516   -3.0948    1.5453 C   0  0  0  0  0  0  0  0  0  0  0  0
   -4.0243   -0.1234    1.1813 C   0  0  0  0  0  0  0  0  0  0  0  0
   -1.9791   -3.1967   -1.5473 C   0  0  0  0  0  0  0  0  0  0  0  0
   -0.0479    1.4657   -0.0020 C   0  0  0  0  0  0  0  0  0  0  0  0
   -0.0890    2.9560    0.0002 C   0  0  0  0  0  0  0  0  0  0  0  0
  1 20  1  0
  2 20  1  0
  3 20  1  0
  4  9  1  0
  4 10  1  0
  4 13  1  0
  5 11  1  0
  5 12  1  0
  5 14  1  0
  6 13  2  0
  6 14  1  0
  7 14  2  0
  7 19  1  0
  8 13  1  0
  8 19  2  0
  9 15  1  0
 10 16  1  0
 11 17  1  0
 12 18  1  0
 19 20  1  0
M  END
>  <PUBCHEM_COMPOUND_CID>  (1) 
33396

>  <PUBCHEM_CONFORMER_RMSD>  (1) 
0.8

>  <PUBCHEM_CONFORMER_DIVERSEORDER>  (1) 
1
13
6
11
10
15
8
9
7
12
4
5
16
14
2
3

>  <PUBCHEM_MMFF94_PARTIAL_CHARGES>  (1) 
16
1 -0.29
10 0.37
11 0.37
12 0.37
13 0.72
14 0.72
19 0.48
2 -0.29
20 1.01
3 -0.29
4 -0.84
5 -0.84
6 -0.62
7 -0.62
8 -0.62
9 0.37

>  <PUBCHEM_EFFECTIVE_ROTOR_COUNT>  (1) 
7

>  <PUBCHEM_PHARMACOPHORE_FEATURES>  (1) 
3
4 4 6 8 13 cation
4 5 6 7 14 cation
6 6 7 8 13 14 19 rings

>  <PUBCHEM_HEAVY_ATOM_COUNT>  (1) 
20

>  <PUBCHEM_ATOM_DEF_STEREO_COUNT>  (1) 
0

>  <PUBCHEM_ATOM_UDEF_STEREO_COUNT>  (1) 
0

>  <PUBCHEM_BOND_DEF_STEREO_COUNT>  (1) 
0

>  <PUBCHEM_BOND_UDEF_STEREO_COUNT>  (1) 
0

>  <PUBCHEM_ISOTOPIC_ATOM_COUNT>  (1) 
0

>  <PUBCHEM_COMPONENT_COUNT>  (1) 
1

>  <PUBCHEM_CACTVS_TAUTO_COUNT>  (1) 
1

>  <PUBCHEM_CONFORMER_ID>  (1) 
0000827400000001

>  <PUBCHEM_MMFF94_ENERGY>  (1) 
47.4965

>  <PUBCHEM_FEATURE_SELFOVERLAP>  (1) 
15.266

>  <PUBCHEM_SHAPE_FINGERPRINT>  (1) 
10871710 139 18117304552191003396
10967382 1 18410572902904315955
12553582 1 18410569600027219911
12788726 201 18265053539885635250
13140716 1 18194118748877069833
13380535 76 17185586923916877841
14022347 108 18194990489973816631
14178342 30 18125988610568951059
14790565 3 18268448874758178577
14955137 171 18125470663251461715
15042514 8 17831583072251819529
15375462 189 18334295370354484915
15490181 8 17259339968989951557
16752209 62 18051963732399239215
16945 1 18411689998043584883
19591789 44 16177354462145643815
20028762 73 14957456980144200214
20510252 161 18126844889455650664
20600515 1 17846232058657338118
20642791 178 17972607850864718468
20671657 1 18126012795851528329
20739085 24 17980231632837166451
21524375 3 17181942047007804632
21634736 98 17694214874071820622
2255824 54 18119526793358969591
2334 1 17833830851807323349
23557571 272 18272098141445153484
23558518 356 17973167223125966194
23559900 14 16395504861988664788
23598288 3 18265888051772960255
23598291 2 18056204811125432151
23598294 1 18195246620189699578
2748010 2 18123470479843497685
3091708 16 9500304389965560401
34934 24 18410849971171039682
352729 6 17763178038392631025
6992083 37 18343591754547806131
7364860 26 17982732179507391417
7832392 63 18341331205658891939
81228 2 18264776462844438368

>  <PUBCHEM_SHAPE_MULTIPOLES>  (1) 
392.29
5.62
5.49
1.25
0.77
3.33
0.04
-3.45
0.19
-1
-0.22
0.19
0.07
-1.2

>  <PUBCHEM_SHAPE_SELFOVERLAP>  (1) 
751.838

>  <PUBCHEM_SHAPE_VOLUME>  (1) 
238.8

>  <PUBCHEM_COORDINATE_TYPE>  (1) 
2
5
10

$$$$
