33392
     RDKit          3D

 20 20  0  0  0  0  0  0  0  0999 V2000
   -0.7911   -3.4819   -1.4790 Cl  0  0  0  0  0  0  0  0  0  0  0  0
    1.6552   -3.6067    0.0398 Cl  0  0  0  0  0  0  0  0  0  0  0  0
   -0.8604   -3.4688    1.4469 Cl  0  0  0  0  0  0  0  0  0  0  0  0
   -2.3444    1.2973   -0.0508 N   0  0  0  0  0  0  0  0  0  0  0  0
    2.3443    1.3225    0.0454 N   0  0  0  0  0  0  0  0  0  0  0  0
    0.0000    1.3416   -0.0044 N   0  0  0  0  0  0  0  0  0  0  0  0
    1.2105   -0.7300    0.0223 N   0  0  0  0  0  0  0  0  0  0  0  0
   -1.1885   -0.7429   -0.0270 N   0  0  0  0  0  0  0  0  0  0  0  0
   -4.7577    1.6845   -0.0334 C   0  0  0  0  0  0  0  0  0  0  0  0
    4.7473    1.7044    0.0345 C   0  0  0  0  0  0  0  0  0  0  0  0
   -3.6348    0.6517   -0.0746 C   0  0  0  0  0  0  0  0  0  0  0  0
    3.6193    0.6769    0.0740 C   0  0  0  0  0  0  0  0  0  0  0  0
   -6.1479    1.0442   -0.0099 C   0  0  0  0  0  0  0  0  0  0  0  0
    6.1345    1.0573    0.0164 C   0  0  0  0  0  0  0  0  0  0  0  0
   -1.1404    0.6108   -0.0273 C   0  0  0  0  0  0  0  0  0  0  0  0
    1.1257    0.6101    0.0192 C   0  0  0  0  0  0  0  0  0  0  0  0
   -7.2417    2.0955    0.0975 C   0  0  0  0  0  0  0  0  0  0  0  0
    7.2337    2.1032   -0.0893 C   0  0  0  0  0  0  0  0  0  0  0  0
    0.0142   -1.3395   -0.0018 C   0  0  0  0  0  0  0  0  0  0  0  0
    0.0223   -2.8302    0.0016 C   0  0  0  0  0  0  0  0  0  0  0  0
  1 20  1  0
  2 20  1  0
  3 20  1  0
  4 11  1  0
  4 15  1  0
  5 12  1  0
  5 16  1  0
  6 15  2  0
  6 16  1  0
  7 16  2  0
  7 19  1  0
  8 15  1  0
  8 19  2  0
  9 11  1  0
  9 13  1  0
 10 12  1  0
 10 14  1  0
 13 17  1  0
 14 18  1  0
 19 20  1  0
M  END
>  <PUBCHEM_COMPOUND_CID>  (1) 
33392

>  <PUBCHEM_CONFORMER_RMSD>  (1) 
0.8

>  <PUBCHEM_CONFORMER_DIVERSEORDER>  (1) 
1
144
121
25
30
34
47
39
32
165
167
106
161
112
65
89
3
130
210
166
78
200
169
179
96
28
35
149
133
195
147
82
213
123
193
2
77
221
43
225
81
99
108
152
220
80
51
88
204
70
90
185
4
156
172
19
180
143
173
111
192
93
9
191
92
154
42
54
98
155
160
102
91
124
76
6
199
59
176
126
64
101
14
182
171
198
79
21
103
148
100
128
129
186
120
95
44
181
170
7
196
107
68
218
184
86
134
67
73
118
212
109
84
56
159
201
10
206
140
110
174
66
113
45
168
115
105
178
137
226
29
71
33
52
141
94
24
75
151
74
139
122
55
17
16
31
217
116
127
27
150
41
177
63
194
20
135
50
183
83
117
208
48
189
223
125
60
205
26
37
175
12
18
202
158
188
138
203
207
61
211
46
85
40
136
13
114
5
131
49
87
132
58
146
163
224
104
214
97
197
69
22
187
219
222
209
216
8
23
215
153
62
142
145
190
38
11
15
53
164
157
57
119
72
162
36

>  <PUBCHEM_MMFF94_PARTIAL_CHARGES>  (1) 
16
1 -0.29
11 0.37
12 0.37
15 0.72
16 0.72
19 0.48
2 -0.29
20 1.01
3 -0.29
33 0.4
34 0.4
4 -0.87
5 -0.87
6 -0.62
7 -0.62
8 -0.62

>  <PUBCHEM_EFFECTIVE_ROTOR_COUNT>  (1) 
9

>  <PUBCHEM_PHARMACOPHORE_FEATURES>  (1) 
7
1 17 hydrophobe
1 18 hydrophobe
1 4 donor
1 5 donor
4 4 6 8 15 cation
4 5 6 7 16 cation
6 6 7 8 15 16 19 rings

>  <PUBCHEM_HEAVY_ATOM_COUNT>  (1) 
20

>  <PUBCHEM_ATOM_DEF_STEREO_COUNT>  (1) 
0

>  <PUBCHEM_ATOM_UDEF_STEREO_COUNT>  (1) 
0

>  <PUBCHEM_BOND_DEF_STEREO_COUNT>  (1) 
0

>  <PUBCHEM_BOND_UDEF_STEREO_COUNT>  (1) 
0

>  <PUBCHEM_ISOTOPIC_ATOM_COUNT>  (1) 
0

>  <PUBCHEM_COMPONENT_COUNT>  (1) 
1

>  <PUBCHEM_CACTVS_TAUTO_COUNT>  (1) 
5

>  <PUBCHEM_CONFORMER_ID>  (1) 
0000827000000001

>  <PUBCHEM_MMFF94_ENERGY>  (1) 
32.4045

>  <PUBCHEM_FEATURE_SELFOVERLAP>  (1) 
35.563

>  <PUBCHEM_SHAPE_FINGERPRINT>  (1) 
10411042 1 17546165203779312806
11823591 26 18411127039569086629
12293681 160 17846499222872006921
13631057 29 18200588224889601687
15927050 60 18411417323614126246
17539 30 17840861094701237446
17980427 23 17531255014710175573
20554085 129 17988347222809259096
20645477 70 18195525892734390991
20681677 155 18336261353744057048
21054139 6 18341603863637151343
22224240 67 18407758145090847145
23402539 116 18272083941666490596
23598288 3 17972890438432728302
293599 30 18411135848716030088
33824 294 18263926549573738995
3411729 13 18335701577206854483
3759504 43 18334295413319429654
4073 2 18261680282131683425
42630746 31 18341329972897601079
5385378 56 18337955584359540272
5486654 2 18343019999421135769
559249 180 18337668715884957514
5758199 1 18342178856347119633
59755656 520 18411974784529856020
6025842 7 18269270167531595735
621550 34 18042683910622743381
6669772 16 18202289074028953606
7364860 26 18196933267016817271
77188 2 17401484845098728983

>  <PUBCHEM_SHAPE_MULTIPOLES>  (1) 
392.29
14.73
4.45
0.85
0.02
6.06
-0.01
-21.48
0.05
-0.16
0
0.2
0.86
-0.07

>  <PUBCHEM_SHAPE_SELFOVERLAP>  (1) 
741.345

>  <PUBCHEM_SHAPE_VOLUME>  (1) 
239.6

>  <PUBCHEM_COORDINATE_TYPE>  (1) 
2
5
10

$$$$
