33399
     RDKit          3D

 20 20  0  0  0  0  0  0  0  0999 V2000
    0.8259    3.4800   -1.4598 Cl  0  0  0  0  0  0  0  0  0  0  0  0
   -1.6554    3.6051    0.0012 Cl  0  0  0  0  0  0  0  0  0  0  0  0
    0.8265    3.4668    1.4669 Cl  0  0  0  0  0  0  0  0  0  0  0  0
    7.1217   -2.0808   -0.0139 O   0  0  0  0  0  0  0  0  0  0  0  0
   -7.1133   -2.0892    0.0217 O   0  0  0  0  0  0  0  0  0  0  0  0
    2.3446   -1.2995    0.0042 N   0  0  0  0  0  0  0  0  0  0  0  0
   -2.3451   -1.3240   -0.0097 N   0  0  0  0  0  0  0  0  0  0  0  0
   -0.0001   -1.3434   -0.0045 N   0  0  0  0  0  0  0  0  0  0  0  0
   -1.2108    0.7283   -0.0061 N   0  0  0  0  0  0  0  0  0  0  0  0
    1.1887    0.7408    0.0010 N   0  0  0  0  0  0  0  0  0  0  0  0
    3.6355   -0.6535    0.0106 C   0  0  0  0  0  0  0  0  0  0  0  0
   -3.6204   -0.6783   -0.0109 C   0  0  0  0  0  0  0  0  0  0  0  0
    4.7597   -1.6826    0.0030 C   0  0  0  0  0  0  0  0  0  0  0  0
   -4.7494   -1.7021   -0.0018 C   0  0  0  0  0  0  0  0  0  0  0  0
    1.1407   -0.6130   -0.0006 C   0  0  0  0  0  0  0  0  0  0  0  0
   -1.1261   -0.6118   -0.0072 C   0  0  0  0  0  0  0  0  0  0  0  0
    6.1455   -1.0480    0.0115 C   0  0  0  0  0  0  0  0  0  0  0  0
   -6.1321   -1.0609   -0.0048 C   0  0  0  0  0  0  0  0  0  0  0  0
   -0.0142    1.3376   -0.0020 C   0  0  0  0  0  0  0  0  0  0  0  0
   -0.0220    2.8284    0.0013 C   0  0  0  0  0  0  0  0  0  0  0  0
  1 20  1  0
  2 20  1  0
  3 20  1  0
  4 17  1  0
  5 18  1  0
  6 11  1  0
  6 15  1  0
  7 12  1  0
  7 16  1  0
  8 15  2  0
  8 16  1  0
  9 16  2  0
  9 19  1  0
 10 15  1  0
 10 19  2  0
 11 13  1  0
 12 14  1  0
 13 17  1  0
 14 18  1  0
 19 20  1  0
M  END
>  <PUBCHEM_COMPOUND_CID>  (1) 
33399

>  <PUBCHEM_CONFORMER_RMSD>  (1) 
0.8

>  <PUBCHEM_CONFORMER_DIVERSEORDER>  (1) 
1
144
3
76
23
180
230
63
24
43
129
160
223
177
233
8
183
97
142
145
153
178
104
34
38
203
172
92
44
89
192
222
10
176
48
184
212
9
16
79
111
198
175
128
58
181
171
68
117
33
136
157
139
11
226
13
67
137
194
72
73
193
7
109
36
188
27
220
18
201
146
210
173
150
59
96
134
227
110
118
147
225
103
214
51
2
179
85
231
148
195
204
82
83
84
95
206
112
52
102
15
101
185
5
219
115
213
229
158
122
224
106
55
100
182
50
49
39
62
187
78
152
143
169
94
170
168
98
141
108
199
65
17
228
209
19
196
135
42
66
124
138
56
25
30
216
37
86
28
93
232
211
121
215
46
132
47
218
133
161
6
167
57
208
12
99
80
154
32
130
69
119
120
113
40
114
221
127
21
155
74
29
166
140
116
123
159
165
4
190
41
61
88
191
77
107
53
35
163
64
90
20
60
186
22
197
126
14
125
31
205
174
87
202
207
26
91
156
81
45
189
131
151
71
149
75
105
200
217
54
164
70
162

>  <PUBCHEM_MMFF94_PARTIAL_CHARGES>  (1) 
22
1 -0.29
10 -0.62
11 0.37
12 0.37
15 0.72
16 0.72
17 0.28
18 0.28
19 0.48
2 -0.29
20 1.01
29 0.4
3 -0.29
30 0.4
35 0.4
36 0.4
4 -0.68
5 -0.68
6 -0.87
7 -0.87
8 -0.62
9 -0.62

>  <PUBCHEM_EFFECTIVE_ROTOR_COUNT>  (1) 
9

>  <PUBCHEM_PHARMACOPHORE_FEATURES>  (1) 
9
1 4 acceptor
1 4 donor
1 5 acceptor
1 5 donor
1 6 donor
1 7 donor
4 6 8 10 15 cation
4 7 8 9 16 cation
6 8 9 10 15 16 19 rings

>  <PUBCHEM_HEAVY_ATOM_COUNT>  (1) 
20

>  <PUBCHEM_ATOM_DEF_STEREO_COUNT>  (1) 
0

>  <PUBCHEM_ATOM_UDEF_STEREO_COUNT>  (1) 
0

>  <PUBCHEM_BOND_DEF_STEREO_COUNT>  (1) 
0

>  <PUBCHEM_BOND_UDEF_STEREO_COUNT>  (1) 
0

>  <PUBCHEM_ISOTOPIC_ATOM_COUNT>  (1) 
0

>  <PUBCHEM_COMPONENT_COUNT>  (1) 
1

>  <PUBCHEM_CACTVS_TAUTO_COUNT>  (1) 
5

>  <PUBCHEM_CONFORMER_ID>  (1) 
0000827700000001

>  <PUBCHEM_MMFF94_ENERGY>  (1) 
38.838

>  <PUBCHEM_FEATURE_SELFOVERLAP>  (1) 
45.714

>  <PUBCHEM_SHAPE_FINGERPRINT>  (1) 
10411042 1 18410575088989733701
11265709 11 18410011035224481559
12166972 35 17821451261765138958
12516196 113 18411697698967997650
12841375 25 18410292527507733423
13257819 101 13182468690204218099
13590594 115 18409175402815611177
13862211 1 18410576188496749319
14170010 4 18340203124029709545
14508225 48 18335695027350450204
15042514 8 18195245520625271946
15927050 60 17693938905490381934
16087824 20 18193556667668533429
167882 2 18046351000332849940
17492 89 18122342381410317402
17980427 26 17483383506471381709
18006028 8 18411418410134837390
1813 80 18200328666144585143
20238998 120 18342737403458006553
21041028 32 18413106169548123037
21049683 271 18262805180166557284
21267235 1 18410578383198540390
21304253 13 18201720643702296505
21304303 172 18272657801168951809
21426921 1 18266458703219473412
2297311 6 18270968951656853718
23352939 185 18201163230109380472
23402539 116 18410571743484776830
23419403 2 18266152059149430900
23557571 272 18270685251818284710
23559900 14 18266173027844148259
23845131 108 17335913283022247192
283562 15 18263646169392007738
5969126 39 18340480084695189934
68521 5 18337673014392840340
7364860 26 18197779018981106449
77188 2 18411419539727398236
81228 2 18193576475049198552
8863177 126 17825119348857951891

>  <PUBCHEM_SHAPE_MULTIPOLES>  (1) 
380.56
13.4
4.4
0.84
0.01
5.87
0
-19.13
0.03
-0.16
0
0.21
0.9
0.01

>  <PUBCHEM_SHAPE_SELFOVERLAP>  (1) 
725.168

>  <PUBCHEM_SHAPE_VOLUME>  (1) 
231.9

>  <PUBCHEM_COORDINATE_TYPE>  (1) 
2
5
10

$$$$
