33408
     RDKit          3D

 13 13  0  0  0  0  0  0  0  0999 V2000
   -0.4439   -1.1959    0.2980 N   0  0  0  0  0  0  0  0  0  0  0  0
   -0.4357    1.2037    0.2962 N   0  0  0  0  0  0  0  0  0  0  0  0
    1.6088   -0.0033   -0.0512 N   0  0  0  0  0  0  0  0  0  0  0  0
    1.5693   -2.3482   -0.0458 N   0  0  0  0  0  0  0  0  0  0  0  0
    1.5853    2.3416   -0.0493 N   0  0  0  0  0  0  0  0  0  0  0  0
   -2.5043    0.0113    0.6462 C   0  0  0  0  0  0  0  0  0  0  0  0
   -3.2983    0.0140   -0.6607 C   0  0  0  0  0  0  0  0  0  0  0  0
   -1.0181    0.0060    0.3955 C   0  0  0  0  0  0  0  0  0  0  0  0
   -4.7960   -0.0110   -0.4003 C   0  0  0  0  0  0  0  0  0  0  0  0
    0.8779   -1.1228    0.0735 C   0  0  0  0  0  0  0  0  0  0  0  0
    0.8856    1.1213    0.0718 C   0  0  0  0  0  0  0  0  0  0  0  0
    2.9761   -2.4242   -0.2869 C   0  0  0  0  0  0  0  0  0  0  0  0
    2.9933    2.4077   -0.2869 C   0  0  0  0  0  0  0  0  0  0  0  0
  1  8  2  0
  1 10  1  0
  2  8  1  0
  2 11  2  0
  3 10  2  0
  3 11  1  0
  4 10  1  0
  4 12  1  0
  5 11  1  0
  5 13  1  0
  6  7  1  0
  6  8  1  0
  7  9  1  0
M  END
>  <PUBCHEM_COMPOUND_CID>  (1) 
33408

>  <PUBCHEM_CONFORMER_RMSD>  (1) 
0.6

>  <PUBCHEM_CONFORMER_DIVERSEORDER>  (1) 
1
8
12
6
10
9
3
4
2
7
5
11

>  <PUBCHEM_MMFF94_PARTIAL_CHARGES>  (1) 
13
1 -0.62
10 0.72
11 0.72
12 0.37
13 0.37
2 -0.62
21 0.4
22 0.4
3 -0.62
4 -0.87
5 -0.87
6 0.14
8 0.48

>  <PUBCHEM_EFFECTIVE_ROTOR_COUNT>  (1) 
4

>  <PUBCHEM_PHARMACOPHORE_FEATURES>  (1) 
6
1 4 donor
1 5 donor
1 9 hydrophobe
4 1 3 4 10 cation
4 2 3 5 11 cation
6 1 2 3 8 10 11 rings

>  <PUBCHEM_HEAVY_ATOM_COUNT>  (1) 
13

>  <PUBCHEM_ATOM_DEF_STEREO_COUNT>  (1) 
0

>  <PUBCHEM_ATOM_UDEF_STEREO_COUNT>  (1) 
0

>  <PUBCHEM_BOND_DEF_STEREO_COUNT>  (1) 
0

>  <PUBCHEM_BOND_UDEF_STEREO_COUNT>  (1) 
0

>  <PUBCHEM_ISOTOPIC_ATOM_COUNT>  (1) 
0

>  <PUBCHEM_COMPONENT_COUNT>  (1) 
1

>  <PUBCHEM_CACTVS_TAUTO_COUNT>  (1) 
10

>  <PUBCHEM_CONFORMER_ID>  (1) 
0000828000000001

>  <PUBCHEM_MMFF94_ENERGY>  (1) 
31.7978

>  <PUBCHEM_FEATURE_SELFOVERLAP>  (1) 
30.489

>  <PUBCHEM_SHAPE_FINGERPRINT>  (1) 
1 1 18338517568098300676
10989021 7 18339924792747558810
12138202 78 18335700516128542109
13380535 76 18263359359706822864
14251717 144 18411979156859368846
15219456 202 18187933927747225155
15477762 27 18341046329031283087
16945 1 18410584980336300888
20473742 2 18335130981985033559
20645476 183 17537451986862091724
20645477 70 18410004438867098919
20671657 53 18267867168513244439
20871998 22 17984705510790247175
21499 59 18193836165994267717
21524375 3 18045213001455551105
221490 88 18336552702566140603
228727 97 17631745975084464129
23402539 116 18052533271006767366
23402655 69 18341041996036821245
23419403 2 17751894992303312638
23532345 88 18340473513616649799
23598291 2 18059306353022826761
25 1 18337106886195573821
2748010 2 18049459319978476274
3071541 12 18410864247795091592
3071541 158 18189056408469762044
3071541 250 18268159673108155694
3071541 37 18336269032465022132
58734987 36 18337388214916569055
7364860 26 18412825785202539256
81228 2 17547299904073144946
81539 233 18260827163000827332

>  <PUBCHEM_SHAPE_MULTIPOLES>  (1) 
242.63
6.22
2.68
0.71
7.18
0.03
-0.01
-0.01
-1.39
-4.32
-0.24
0.26
0
0

>  <PUBCHEM_SHAPE_SELFOVERLAP>  (1) 
480.495

>  <PUBCHEM_SHAPE_VOLUME>  (1) 
137.5

>  <PUBCHEM_COORDINATE_TYPE>  (1) 
2
5
10

$$$$
