3340
     RDKit          3D

 21 23  0  0  1  0  0  0  0  0999 V2000
   -3.2533    0.9748    2.3827 Cl  0  0  0  0  0  0  0  0  0  0  0  0
   -3.5288   -2.3289   -1.4341 O   0  0  0  0  0  0  0  0  0  0  0  0
   -4.5082   -1.1300    0.8299 O   0  0  0  0  0  0  0  0  0  0  0  0
    5.1404   -1.5598    1.3451 O   0  0  0  0  0  0  0  0  0  0  0  0
    0.8027    2.8028   -0.6136 N   0  0  0  0  0  0  0  0  0  0  0  0
    0.5406    0.3948   -1.3536 C   0  0  0  0  0  0  0  0  0  0  0  0
    0.5584    1.8831   -1.7636 C   0  0  0  0  0  0  0  0  0  0  0  0
   -0.8057    0.0394   -0.7222 C   0  0  0  0  0  0  0  0  0  0  0  0
   -0.3226    2.9915    0.3451 C   0  0  0  0  0  0  0  0  0  0  0  0
   -0.5375    1.7379    1.1765 C   0  0  0  0  0  0  0  0  0  0  0  0
   -1.3009    0.6621    0.4427 C   0  0  0  0  0  0  0  0  0  0  0  0
    1.7815   -0.1323   -0.6251 C   0  0  0  0  0  0  0  0  0  0  0  0
   -1.5796   -0.9682   -1.3342 C   0  0  0  0  0  0  0  0  0  0  0  0
   -2.5473    0.2594    0.9580 C   0  0  0  0  0  0  0  0  0  0  0  0
   -2.8137   -1.3513   -0.8110 C   0  0  0  0  0  0  0  0  0  0  0  0
    3.0022    0.5238   -0.7692 C   0  0  0  0  0  0  0  0  0  0  0  0
    1.6851   -1.2665    0.1782 C   0  0  0  0  0  0  0  0  0  0  0  0
   -3.2978   -0.7368    0.3359 C   0  0  0  0  0  0  0  0  0  0  0  0
    4.1317    0.0431   -0.1066 C   0  0  0  0  0  0  0  0  0  0  0  0
    2.8146   -1.7469    0.8407 C   0  0  0  0  0  0  0  0  0  0  0  0
    4.0380   -1.0922    0.6984 C   0  0  0  0  0  0  0  0  0  0  0  0
  1 14  1  0
  2 15  1  0
  3 18  1  0
  4 21  1  0
  5  7  1  0
  5  9  1  0
  6  7  1  0
  6  8  1  0
  6 12  1  0
  8 11  2  0
  8 13  1  0
  9 10  1  0
 10 11  1  0
 11 14  1  0
 12 16  2  0
 12 17  1  0
 13 15  2  0
 14 18  2  0
 15 18  1  0
 16 19  1  0
 17 20  2  0
 19 21  2  0
 20 21  1  0
M  CHG  1   5   1
M  END
>  <PUBCHEM_COMPOUND_CID>  (1) 
3340

>  <PUBCHEM_CONFORMER_RMSD>  (1) 
0.6

>  <PUBCHEM_CONFORMER_DIVERSEORDER>  (1) 
4
3
7
2
8
5
6
1
10
9

>  <PUBCHEM_MMFF94_PARTIAL_CHARGES>  (1) 
31
1 -0.18
10 0.14
11 -0.14
12 -0.14
13 -0.15
14 0.18
15 0.08
16 -0.15
17 -0.15
18 0.08
19 -0.15
2 -0.53
20 -0.15
21 0.08
25 0.45
26 0.45
3 -0.53
31 0.15
32 0.15
33 0.15
34 0.15
35 0.15
36 0.45
37 0.45
38 0.45
4 -0.53
5 -0.91
6 0.29
7 0.5
8 -0.14
9 0.5

>  <PUBCHEM_EFFECTIVE_ROTOR_COUNT>  (1) 
2

>  <PUBCHEM_PHARMACOPHORE_FEATURES>  (1) 
8
1 2 donor
1 3 donor
1 4 donor
1 5 cation
1 5 donor
6 12 16 17 19 20 21 rings
6 8 11 13 14 15 18 rings
7 5 6 7 8 9 10 11 rings

>  <PUBCHEM_HEAVY_ATOM_COUNT>  (1) 
21

>  <PUBCHEM_ATOM_DEF_STEREO_COUNT>  (1) 
0

>  <PUBCHEM_ATOM_UDEF_STEREO_COUNT>  (1) 
1

>  <PUBCHEM_BOND_DEF_STEREO_COUNT>  (1) 
0

>  <PUBCHEM_BOND_UDEF_STEREO_COUNT>  (1) 
0

>  <PUBCHEM_ISOTOPIC_ATOM_COUNT>  (1) 
0

>  <PUBCHEM_COMPONENT_COUNT>  (1) 
1

>  <PUBCHEM_CACTVS_TAUTO_COUNT>  (1) 
84

>  <PUBCHEM_CONFORMER_ID>  (1) 
00000D0C00000004

>  <PUBCHEM_MMFF94_ENERGY>  (1) 
66.902

>  <PUBCHEM_FEATURE_SELFOVERLAP>  (1) 
40.611

>  <PUBCHEM_SHAPE_FINGERPRINT>  (1) 
11132069 177 17846219921116734822
11221954 11 13396690899798459187
11578080 2 18267562732673661037
11725454 13 15480987783788452273
12202030 40 16806748354484224009
12236239 1 18411991281462348822
12363563 72 17095244683674892662
12553582 1 18411141346237064166
12633257 1 17845937325406898160
13004483 165 18263632974988418233
13083527 12 16700594917912145581
13544653 18 17894354367143535692
13583140 156 17344041024010161586
13911987 19 16229747750820077932
13965767 371 17482021963288605465
14178342 30 17846230946683282751
14251757 17 15502370132225928178
14341114 328 18202284723532576136
14787075 74 18126287682380419112
15375462 189 18337394940798158614
15475509 35 17827658142554514907
16945 1 18059017168142093484
17980427 23 16988837315667269465
1813 80 18260843570113463262
18915476 22 16590018132744366244
19862831 5 10809348857730498434
200 152 17968089803098849546
20600515 1 17346321552479910981
20871999 31 12612760098736334078
21452121 71 18270679912572581295
22112679 90 18200048320633620205
2255824 54 18119257408799561212
23366157 5 17980195615125955401
23388829 49 18409738365078700348
23402539 116 18187079512633647890
23419403 2 17627753630910106109
23526113 38 16298390209516917469
23557571 272 16701761400738211973
23598288 3 18263928726552608380
25147074 1 17701545245675260103
2748010 2 17478081279466147733
312423 11 18042131964665470134
427121 178 16699518276811160801
7064713 232 17702399363671482849
7097593 13 18126567804305145218
7471813 234 17629462349526140527
77492 1 18339936994506898021
90316 7 18270687462977804121

>  <PUBCHEM_SHAPE_MULTIPOLES>  (1) 
411.45
7.7
2.56
1.73
3.69
1.34
0.21
-5.04
3.31
-0.51
-0.26
-0.77
0.18
-2.06

>  <PUBCHEM_SHAPE_SELFOVERLAP>  (1) 
885.347

>  <PUBCHEM_SHAPE_VOLUME>  (1) 
225.5

>  <PUBCHEM_COORDINATE_TYPE>  (1) 
2
5
10

$$$$
