33400
     RDKit          3D

 20 20  0  0  1  0  0  0  0  0999 V2000
    0.7531   -3.5261    1.5013 Cl  0  0  0  0  0  0  0  0  0  0  0  0
   -1.6506   -3.6538   -0.0838 Cl  0  0  0  0  0  0  0  0  0  0  0  0
    0.9023   -3.5142   -1.4216 Cl  0  0  0  0  0  0  0  0  0  0  0  0
    4.6732    2.4790   -0.9065 O   0  0  0  0  0  0  0  0  0  0  0  0
   -4.6711    2.4947    0.9040 O   0  0  0  0  0  0  0  0  0  0  0  0
    2.3407    1.2539    0.1138 N   0  0  0  0  0  0  0  0  0  0  0  0
   -2.3436    1.2749   -0.1105 N   0  0  0  0  0  0  0  0  0  0  0  0
   -0.0015    1.2961    0.0033 N   0  0  0  0  0  0  0  0  0  0  0  0
   -1.2091   -0.7766   -0.0555 N   0  0  0  0  0  0  0  0  0  0  0  0
    1.1877   -0.7873    0.0594 N   0  0  0  0  0  0  0  0  0  0  0  0
    3.6318    0.6064    0.1732 C   0  0  0  0  0  0  0  0  0  0  0  0
   -3.6168    0.6283   -0.1737 C   0  0  0  0  0  0  0  0  0  0  0  0
    4.7357    1.6575    0.2579 C   0  0  0  0  0  0  0  0  0  0  0  0
   -4.7258    1.6737   -0.2611 C   0  0  0  0  0  0  0  0  0  0  0  0
    1.1396    0.5670    0.0579 C   0  0  0  0  0  0  0  0  0  0  0  0
   -1.1256    0.5636   -0.0506 C   0  0  0  0  0  0  0  0  0  0  0  0
    6.1112    1.0072    0.3216 C   0  0  0  0  0  0  0  0  0  0  0  0
   -6.0977    1.0164   -0.3295 C   0  0  0  0  0  0  0  0  0  0  0  0
   -0.0134   -1.3850    0.0016 C   0  0  0  0  0  0  0  0  0  0  0  0
   -0.0200   -2.8758   -0.0013 C   0  0  0  0  0  0  0  0  0  0  0  0
  1 20  1  0
  2 20  1  0
  3 20  1  0
  4 13  1  0
  5 14  1  0
  6 11  1  0
  6 15  1  0
  7 12  1  0
  7 16  1  0
  8 15  2  0
  8 16  1  0
  9 16  2  0
  9 19  1  0
 10 15  1  0
 10 19  2  0
 11 13  1  0
 12 14  1  0
 13 17  1  0
 14 18  1  0
 19 20  1  0
M  END
>  <PUBCHEM_COMPOUND_CID>  (1) 
33400

>  <PUBCHEM_CONFORMER_RMSD>  (1) 
0.8

>  <PUBCHEM_CONFORMER_DIVERSEORDER>  (1) 
1
234
221
191
48
209
196
102
177
4
180
178
153
7
162
122
192
11
188
182
156
230
78
195
29
41
210
176
83
214
93
8
74
213
179
24
170
87
94
227
21
200
6
130
224
172
226
155
67
198
99
59
202
154
91
60
2
165
58
84
141
205
219
98
92
89
215
118
73
103
220
33
136
63
27
204
65
88
97
152
13
217
203
194
90
148
105
135
151
229
174
110
168
26
208
218
158
116
49
51
216
164
228
54
181
185
52
233
187
127
96
38
17
82
171
212
131
159
144
126
114
45
161
222
121
232
44
5
169
3
106
22
85
56
206
190
197
111
173
30
183
107
137
128
225
236
66
160
68
189
133
37
81
77
175
115
134
25
231
235
157
47
14
163
112
150
108
39
53
62
125
50
223
18
76
123
132
86
70
40
184
207
16
15
166
113
117
31
147
119
69
64
95
42
80
35
10
146
32
109
142
71
145
120
199
100
167
201
186
20
139
34
75
211
129
101
19
46
79
28
124
55
104
72
23
57
140
12
193
43
138
36
61
143
9
149

>  <PUBCHEM_MMFF94_PARTIAL_CHARGES>  (1) 
22
1 -0.29
10 -0.62
11 0.37
12 0.37
13 0.28
14 0.28
15 0.72
16 0.72
19 0.48
2 -0.29
20 1.01
27 0.4
28 0.4
3 -0.29
35 0.4
36 0.4
4 -0.68
5 -0.68
6 -0.87
7 -0.87
8 -0.62
9 -0.62

>  <PUBCHEM_EFFECTIVE_ROTOR_COUNT>  (1) 
7

>  <PUBCHEM_PHARMACOPHORE_FEATURES>  (1) 
9
1 4 acceptor
1 4 donor
1 5 acceptor
1 5 donor
1 6 donor
1 7 donor
4 6 8 10 15 cation
4 7 8 9 16 cation
6 8 9 10 15 16 19 rings

>  <PUBCHEM_HEAVY_ATOM_COUNT>  (1) 
20

>  <PUBCHEM_ATOM_DEF_STEREO_COUNT>  (1) 
0

>  <PUBCHEM_ATOM_UDEF_STEREO_COUNT>  (1) 
2

>  <PUBCHEM_BOND_DEF_STEREO_COUNT>  (1) 
0

>  <PUBCHEM_BOND_UDEF_STEREO_COUNT>  (1) 
0

>  <PUBCHEM_ISOTOPIC_ATOM_COUNT>  (1) 
0

>  <PUBCHEM_COMPONENT_COUNT>  (1) 
1

>  <PUBCHEM_CACTVS_TAUTO_COUNT>  (1) 
5

>  <PUBCHEM_CONFORMER_ID>  (1) 
0000827800000001

>  <PUBCHEM_MMFF94_ENERGY>  (1) 
43.1099

>  <PUBCHEM_FEATURE_SELFOVERLAP>  (1) 
45.72

>  <PUBCHEM_SHAPE_FINGERPRINT>  (1) 
10090160 65 18408319965225276573
10382601 240 18189053101418725539
10411042 1 17474105878774573631
10493431 412 18409728477979549701
1100329 8 18336820875902723666
12107183 9 18334846200869714848
12788726 201 17975687613120144754
13052359 8 18337391663886012659
13631057 29 18201150066651627479
14790565 3 18410295804463064725
15664445 248 17481435876172787311
15927050 60 18410571790635198882
17539 30 17840016678382119526
17980427 23 17458915945758885925
18785283 64 18189894215024290578
204376 136 18408604764321837025
20554085 129 17988060241404958616
20645477 70 18194396694202974791
20681677 155 18336260258627655896
21049683 118 18124003931882656624
21054139 6 18341038714528573207
21236236 1 18340203115434733999
21524375 3 18410851074977115084
22182313 1 18196961991463057791
22224240 67 18410290333328298865
2255824 54 18124313796994275223
23352939 185 13038903369542724208
23402539 116 18272081734021664908
23558518 356 17902507426284100992
23559900 14 17833260923022585009
23598288 3 18046917257991168998
25147074 1 18266437906381651923
293599 30 18411135844394702048
335352 9 18410573981832592692
33824 294 18336827477440796531
3411729 13 18337390418540376865
3759504 43 18261393398604132610
394222 165 18335979753437919739
474229 33 18408885152914447401
5104073 3 18119256061155991017
559249 180 18337666516935658994
59755656 520 18410285930353454206
621550 34 18042401340329177965
6669772 16 18272654515424317574
7364860 26 18125721192972720543
77188 2 17329144672324838135
81228 2 17760067915060713203
81539 233 18336825290917243215
9841814 1 17830737552137162955

>  <PUBCHEM_SHAPE_MULTIPOLES>  (1) 
380.56
11.1
4.58
0.93
0.04
5.67
0.02
-14.46
-0.04
0.16
0
-0.21
0.7
-0.47

>  <PUBCHEM_SHAPE_SELFOVERLAP>  (1) 
731.174

>  <PUBCHEM_SHAPE_VOLUME>  (1) 
231

>  <PUBCHEM_COORDINATE_TYPE>  (1) 
2
5
10

$$$$
