33404
     RDKit          3D

 14 14  0  0  0  0  0  0  0  0999 V2000
    0.9914    2.2459   -0.0195 N   0  0  0  0  0  0  0  0  0  0  0  0
    0.4762   -2.4155   -0.0405 N   0  0  0  0  0  0  0  0  0  0  0  0
   -1.4225   -1.0528   -0.2327 N   0  0  0  0  0  0  0  0  0  0  0  0
   -1.1588    1.3322   -0.2221 N   0  0  0  0  0  0  0  0  0  0  0  0
    0.7652   -0.0884   -0.0288 N   0  0  0  0  0  0  0  0  0  0  0  0
   -3.3624    0.3695   -0.4257 C   0  0  0  0  0  0  0  0  0  0  0  0
   -1.8872    0.2059   -0.2851 C   0  0  0  0  0  0  0  0  0  0  0  0
    0.1789    1.1351   -0.0926 C   0  0  0  0  0  0  0  0  0  0  0  0
   -0.0877   -1.1228   -0.1043 C   0  0  0  0  0  0  0  0  0  0  0  0
    2.4401    2.1681    0.1200 C   0  0  0  0  0  0  0  0  0  0  0  0
    1.8808   -2.6429    0.0957 C   0  0  0  0  0  0  0  0  0  0  0  0
   -4.0706    0.4408    0.9249 C   0  0  0  0  0  0  0  0  0  0  0  0
    3.0650    3.5529    0.1388 C   0  0  0  0  0  0  0  0  0  0  0  0
    2.1917   -4.1280    0.1719 C   0  0  0  0  0  0  0  0  0  0  0  0
  1  8  1  0
  1 10  1  0
  2  9  1  0
  2 11  1  0
  3  7  2  0
  3  9  1  0
  4  7  1  0
  4  8  2  0
  5  8  1  0
  5  9  2  0
  6  7  1  0
  6 12  1  0
 10 13  1  0
 11 14  1  0
M  END
>  <PUBCHEM_COMPOUND_CID>  (1) 
33404

>  <PUBCHEM_CONFORMER_RMSD>  (1) 
0.6

>  <PUBCHEM_CONFORMER_DIVERSEORDER>  (1) 
1
18
8
22
13
7
19
2
4
20
16
17
21
24
12
15
11
25
10
14
5
23
6
3
9

>  <PUBCHEM_MMFF94_PARTIAL_CHARGES>  (1) 
13
1 -0.87
10 0.37
11 0.37
2 -0.87
21 0.4
22 0.4
3 -0.62
4 -0.62
5 -0.62
6 0.14
7 0.48
8 0.72
9 0.72

>  <PUBCHEM_EFFECTIVE_ROTOR_COUNT>  (1) 
5

>  <PUBCHEM_PHARMACOPHORE_FEATURES>  (1) 
6
1 1 donor
1 12 hydrophobe
1 2 donor
4 1 4 5 8 cation
4 2 3 5 9 cation
6 3 4 5 7 8 9 rings

>  <PUBCHEM_HEAVY_ATOM_COUNT>  (1) 
14

>  <PUBCHEM_ATOM_DEF_STEREO_COUNT>  (1) 
0

>  <PUBCHEM_ATOM_UDEF_STEREO_COUNT>  (1) 
0

>  <PUBCHEM_BOND_DEF_STEREO_COUNT>  (1) 
0

>  <PUBCHEM_BOND_UDEF_STEREO_COUNT>  (1) 
0

>  <PUBCHEM_ISOTOPIC_ATOM_COUNT>  (1) 
0

>  <PUBCHEM_COMPONENT_COUNT>  (1) 
1

>  <PUBCHEM_CACTVS_TAUTO_COUNT>  (1) 
10

>  <PUBCHEM_CONFORMER_ID>  (1) 
0000827C00000001

>  <PUBCHEM_MMFF94_ENERGY>  (1) 
27.1057

>  <PUBCHEM_FEATURE_SELFOVERLAP>  (1) 
30.488

>  <PUBCHEM_SHAPE_FINGERPRINT>  (1) 
1 1 18410292544555740557
108231 29 18045510707493767603
12532896 13 18124602143396257924
13140716 1 18339083812207034186
136203 1 17329992911106086920
14022349 108 18409158905486985456
15042514 8 17183625936402615098
16945 1 18410568457823972933
19021347 4 18050568748437864354
20510252 161 17767128978998307761
20645476 183 17753902915152510812
20645477 70 18334844005993785207
20671657 1 18412551993969904423
21061003 4 18047760295631013915
21426921 1 17185315881743582348
21524375 3 18057325196130872605
21650355 55 17616528463172301163
21665056 4 18049718822023884964
23402539 116 17044836237159055501
23419403 2 17263063246137672599
23557571 272 17331399770805185110
2748010 2 18191876831751483975
305870 269 18339644541936981657
3071541 12 18411700946121243085
3071541 250 18194410987020900494
3091708 16 9185372365369682522
43471831 8 18266175213496932027
458136 41 18337686307353850073
54173680 148 17040913742158553948
58807428 26 18267581484542352592
7364860 26 18411698759782143479
81228 2 17116634341962434905

>  <PUBCHEM_SHAPE_MULTIPOLES>  (1) 
263.21
5.21
4.86
0.69
4.59
1.42
0.06
-1.27
0.9
-8.3
0.36
0.32
-0.02
-0.04

>  <PUBCHEM_SHAPE_SELFOVERLAP>  (1) 
516.158

>  <PUBCHEM_SHAPE_VOLUME>  (1) 
151.1

>  <PUBCHEM_COORDINATE_TYPE>  (1) 
2
5
10

$$$$
