33418
     RDKit          3D

 16 16  0  0  0  0  0  0  0  0999 V2000
    0.4777   -1.2145   -0.4724 N   0  0  0  0  0  0  0  0  0  0  0  0
    0.5028    1.1848   -0.4840 N   0  0  0  0  0  0  0  0  0  0  0  0
   -1.5270   -2.3366   -0.0025 N   0  0  0  0  0  0  0  0  0  0  0  0
   -1.4782    2.3528   -0.0252 N   0  0  0  0  0  0  0  0  0  0  0  0
   -1.5339    0.0086   -0.0084 N   0  0  0  0  0  0  0  0  0  0  0  0
    3.4013   -0.0403    0.3084 C   0  0  0  0  0  0  0  0  0  0  0  0
    2.5302   -0.0383   -0.9497 C   0  0  0  0  0  0  0  0  0  0  0  0
    4.8878   -0.0210   -0.0471 C   0  0  0  0  0  0  0  0  0  0  0  0
    1.0616   -0.0214   -0.6108 C   0  0  0  0  0  0  0  0  0  0  0  0
    5.7585    0.0182    1.1986 C   0  0  0  0  0  0  0  0  0  0  0  0
   -0.8273   -1.1217   -0.1699 C   0  0  0  0  0  0  0  0  0  0  0  0
   -0.8038    1.1223   -0.1807 C   0  0  0  0  0  0  0  0  0  0  0  0
   -2.9183   -2.3916    0.3206 C   0  0  0  0  0  0  0  0  0  0  0  0
   -2.8679    2.4400    0.2972 C   0  0  0  0  0  0  0  0  0  0  0  0
   -3.3770   -3.8343    0.4100 C   0  0  0  0  0  0  0  0  0  0  0  0
   -3.2865    3.8929    0.4160 C   0  0  0  0  0  0  0  0  0  0  0  0
  1  9  2  0
  1 11  1  0
  2  9  1  0
  2 12  2  0
  3 11  1  0
  3 13  1  0
  4 12  1  0
  4 14  1  0
  5 11  2  0
  5 12  1  0
  6  7  1  0
  6  8  1  0
  7  9  1  0
  8 10  1  0
 13 15  1  0
 14 16  1  0
M  END
>  <PUBCHEM_COMPOUND_CID>  (1) 
33418

>  <PUBCHEM_CONFORMER_RMSD>  (1) 
0.8

>  <PUBCHEM_CONFORMER_DIVERSEORDER>  (1) 
1
42
38
32
7
13
4
10
8
37
35
29
44
27
43
11
16
24
2
21
9
26
39
6
14
23
15
31
3
19
41
36
20
40
5
33
30
25
34
28
17
12
22
18

>  <PUBCHEM_MMFF94_PARTIAL_CHARGES>  (1) 
13
1 -0.62
11 0.72
12 0.72
13 0.37
14 0.37
2 -0.62
26 0.4
27 0.4
3 -0.87
4 -0.87
5 -0.62
7 0.14
9 0.48

>  <PUBCHEM_EFFECTIVE_ROTOR_COUNT>  (1) 
7

>  <PUBCHEM_PHARMACOPHORE_FEATURES>  (1) 
6
1 10 hydrophobe
1 3 donor
1 4 donor
4 1 3 5 11 cation
4 2 4 5 12 cation
6 1 2 5 9 11 12 rings

>  <PUBCHEM_HEAVY_ATOM_COUNT>  (1) 
16

>  <PUBCHEM_ATOM_DEF_STEREO_COUNT>  (1) 
0

>  <PUBCHEM_ATOM_UDEF_STEREO_COUNT>  (1) 
0

>  <PUBCHEM_BOND_DEF_STEREO_COUNT>  (1) 
0

>  <PUBCHEM_BOND_UDEF_STEREO_COUNT>  (1) 
0

>  <PUBCHEM_ISOTOPIC_ATOM_COUNT>  (1) 
0

>  <PUBCHEM_COMPONENT_COUNT>  (1) 
1

>  <PUBCHEM_CACTVS_TAUTO_COUNT>  (1) 
10

>  <PUBCHEM_CONFORMER_ID>  (1) 
0000828A00000001

>  <PUBCHEM_MMFF94_ENERGY>  (1) 
27.9793

>  <PUBCHEM_FEATURE_SELFOVERLAP>  (1) 
30.489

>  <PUBCHEM_SHAPE_FINGERPRINT>  (1) 
11056379 131 18339091479251509694
11265709 11 18192436487486464803
11357001 24 18410013268697289203
122479 349 18201431433800858140
12532896 13 18196937660715432029
12788726 201 18190757507798527338
13052359 8 18408323255317535029
13134695 92 17834956747836307375
13140716 1 18266746968396878977
13955234 65 17257945788926998793
14178000 22 18192428576225303509
14178342 30 18335702719969114806
14420673 8 18050562951330222314
15042514 8 18408890624291046501
15806764 133 17632026329517977672
15842332 3 17749970941475711660
17539 30 18341325682520619847
19784866 34 17909548363804817785
21041028 32 18194123142892442007
212916 134 18197201556518003552
21426921 1 18410577305546247406
22182313 1 17917165922137558726
23402539 116 18340758308692816079
23419403 2 17345745429851335049
23530152 11 18049457941557679597
23557571 272 18201170879514634852
23558518 356 18261679280486827472
25147074 1 17895771693798981172
2748010 2 17904793001862708687
3086196 2 18337105761098544166
3091708 16 8841679311625479897
53917941 68 18266442227487946013
56616090 89 18042671987761536440
58779409 54 18409721889889952295
59755656 520 18265893545136008124
633830 44 17626100841500450653
68521 5 18339087093683549479
7364860 26 17185320838034959029
7615 1 17822582697974600796
77188 2 17978229684171834749
81228 2 18336281110071222935
84936 182 17479736013852878392

>  <PUBCHEM_SHAPE_MULTIPOLES>  (1) 
304.37
8.84
4.28
0.84
14.4
0.23
0.05
-0.18
3.19
-10.11
0.92
0.66
0
0.03

>  <PUBCHEM_SHAPE_SELFOVERLAP>  (1) 
594.037

>  <PUBCHEM_SHAPE_VOLUME>  (1) 
176.3

>  <PUBCHEM_COORDINATE_TYPE>  (1) 
2
5
10

$$$$
