33417
     RDKit          3D

 19 19  0  0  0  0  0  0  0  0999 V2000
   -2.0973    0.8807   -0.2105 N   0  0  0  0  0  0  0  0  0  0  0  0
    2.3962   -0.3908    0.2210 N   0  0  0  0  0  0  0  0  0  0  0  0
    0.7411   -2.0492    0.1239 N   0  0  0  0  0  0  0  0  0  0  0  0
   -1.5579   -1.3986   -0.0968 N   0  0  0  0  0  0  0  0  0  0  0  0
    0.1584    0.2753    0.0035 N   0  0  0  0  0  0  0  0  0  0  0  0
   -3.0628    3.1518   -0.3155 C   0  0  0  0  0  0  0  0  0  0  0  0
    4.3834    1.0532    0.3091 C   0  0  0  0  0  0  0  0  0  0  0  0
   -1.7940    2.2924   -0.2259 C   0  0  0  0  0  0  0  0  0  0  0  0
    2.8536    0.9635    0.2207 C   0  0  0  0  0  0  0  0  0  0  0  0
   -0.9794   -3.7383    0.0257 C   0  0  0  0  0  0  0  0  0  0  0  0
   -0.5728   -2.3041    0.0165 C   0  0  0  0  0  0  0  0  0  0  0  0
   -2.7407    4.6429   -0.4266 C   0  0  0  0  0  0  0  0  0  0  0  0
   -4.0163    2.8931    0.8522 C   0  0  0  0  0  0  0  0  0  0  0  0
    5.0701    0.3295   -0.8503 C   0  0  0  0  0  0  0  0  0  0  0  0
    4.8701    2.5003    0.4036 C   0  0  0  0  0  0  0  0  0  0  0  0
   -1.1361   -0.1111   -0.0985 C   0  0  0  0  0  0  0  0  0  0  0  0
    1.0323   -0.7384    0.1101 C   0  0  0  0  0  0  0  0  0  0  0  0
   -1.6655   -4.1648   -1.2862 C   0  0  0  0  0  0  0  0  0  0  0  0
   -1.8825   -4.0874    1.2241 C   0  0  0  0  0  0  0  0  0  0  0  0
  1  8  1  0
  1 16  1  0
  2  9  1  0
  2 17  1  0
  3 11  2  0
  3 17  1  0
  4 11  1  0
  4 16  2  0
  5 16  1  0
  5 17  2  0
  6  8  1  0
  6 12  1  0
  6 13  1  0
  7  9  1  0
  7 14  1  0
  7 15  1  0
 10 11  1  0
 10 18  1  0
 10 19  1  0
M  END
>  <PUBCHEM_COMPOUND_CID>  (1) 
33417

>  <PUBCHEM_CONFORMER_RMSD>  (1) 
0.8

>  <PUBCHEM_CONFORMER_DIVERSEORDER>  (1) 
1
10
22
14
2
24
12
31
6
29
5
17
27
20
11
9
25
30
23
13
18
32
8
21
28
16
26
7
4
33
15
19
3

>  <PUBCHEM_MMFF94_PARTIAL_CHARGES>  (1) 
13
1 -0.87
10 0.14
11 0.48
16 0.72
17 0.72
2 -0.87
27 0.4
28 0.4
3 -0.62
4 -0.62
5 -0.62
8 0.37
9 0.37

>  <PUBCHEM_EFFECTIVE_ROTOR_COUNT>  (1) 
7

>  <PUBCHEM_PHARMACOPHORE_FEATURES>  (1) 
8
1 1 donor
1 2 donor
3 10 18 19 hydrophobe
3 6 12 13 hydrophobe
3 7 14 15 hydrophobe
4 1 4 5 16 cation
4 2 3 5 17 cation
6 3 4 5 11 16 17 rings

>  <PUBCHEM_HEAVY_ATOM_COUNT>  (1) 
19

>  <PUBCHEM_ATOM_DEF_STEREO_COUNT>  (1) 
0

>  <PUBCHEM_ATOM_UDEF_STEREO_COUNT>  (1) 
0

>  <PUBCHEM_BOND_DEF_STEREO_COUNT>  (1) 
0

>  <PUBCHEM_BOND_UDEF_STEREO_COUNT>  (1) 
0

>  <PUBCHEM_ISOTOPIC_ATOM_COUNT>  (1) 
0

>  <PUBCHEM_COMPONENT_COUNT>  (1) 
1

>  <PUBCHEM_CACTVS_TAUTO_COUNT>  (1) 
10

>  <PUBCHEM_CONFORMER_ID>  (1) 
0000828900000001

>  <PUBCHEM_MMFF94_ENERGY>  (1) 
40.0027

>  <PUBCHEM_FEATURE_SELFOVERLAP>  (1) 
40.638

>  <PUBCHEM_SHAPE_FINGERPRINT>  (1) 
10411042 1 17761773266544511506
11833330 49 18121213448517000769
12107183 9 18191006934472827728
12173636 292 18410288108070860244
12293681 160 17901356173154122887
12390115 104 18270415913707509201
12788726 201 18265314265864945051
13140716 1 17976262657574435531
13590594 115 17978230788327239299
138480 1 17113816293681927200
13955234 65 17761497985158529521
14123255 52 18338515218846654784
14508225 48 17837198638738246207
15042514 8 18264496267863154691
15842332 3 17895459415548555240
15961568 22 17474663336166397888
17539 30 18198052775701074462
1813 80 17622185867246439958
18785283 64 17903359199591858330
20101258 96 17977111480593348216
20600515 1 17549843508350149270
20645477 70 17114655217518257821
21041028 32 17830465238294006955
21304253 13 17906740554910252227
21426921 1 18266177412963221276
22182937 141 18341617048570175472
2255824 54 17764582123531708751
23175994 123 17686617252776418039
23402539 116 17909826879659694870
23557571 272 18121775290843678558
23558518 356 18260831553122159082
23559900 14 18273496755080706152
23845131 108 18336268921328785137
283562 15 18119521287691158658
3091708 16 9342147313110919819
394222 165 18044089051669434152
458136 41 18052261695924132913
6442390 28 18339086986414985401
7364860 26 17619063928548712871
77188 2 17689717888440273807
7808743 9 18337391638712899024
9981440 41 18264763260210338729

>  <PUBCHEM_SHAPE_MULTIPOLES>  (1) 
366.11
8.07
6.93
0.9
13.05
1.5
0.02
-9.1
-0.22
-10.19
0.29
-0.26
0.49
0.32

>  <PUBCHEM_SHAPE_SELFOVERLAP>  (1) 
715.354

>  <PUBCHEM_SHAPE_VOLUME>  (1) 
211.8

>  <PUBCHEM_COORDINATE_TYPE>  (1) 
2
5
10

$$$$
