33410
     RDKit          3D

 17 17  0  0  0  0  0  0  0  0999 V2000
    0.5849    2.3345   -0.1374 N   0  0  0  0  0  0  0  0  0  0  0  0
    0.5926   -2.3547   -0.0638 N   0  0  0  0  0  0  0  0  0  0  0  0
   -1.4423   -1.2169   -0.3155 N   0  0  0  0  0  0  0  0  0  0  0  0
   -1.4462    1.1825   -0.3532 N   0  0  0  0  0  0  0  0  0  0  0  0
    0.6204   -0.0101   -0.0987 N   0  0  0  0  0  0  0  0  0  0  0  0
   -3.5249   -0.0245   -0.5699 C   0  0  0  0  0  0  0  0  0  0  0  0
   -4.2624   -0.0054    0.7764 C   0  0  0  0  0  0  0  0  0  0  0  0
   -2.0434   -0.0193   -0.4028 C   0  0  0  0  0  0  0  0  0  0  0  0
    2.0153    2.4337    0.0245 C   0  0  0  0  0  0  0  0  0  0  0  0
    2.0111   -2.4208    0.0993 C   0  0  0  0  0  0  0  0  0  0  0  0
    2.4484    3.8932    0.1164 C   0  0  0  0  0  0  0  0  0  0  0  0
    2.4857   -3.8701    0.1154 C   0  0  0  0  0  0  0  0  0  0  0  0
   -0.1014    1.1318   -0.1991 C   0  0  0  0  0  0  0  0  0  0  0  0
   -0.1105   -1.1346   -0.1649 C   0  0  0  0  0  0  0  0  0  0  0  0
   -5.7721    0.0239    0.5979 C   0  0  0  0  0  0  0  0  0  0  0  0
    3.9470    4.0516    0.3334 C   0  0  0  0  0  0  0  0  0  0  0  0
    3.9978   -3.9948    0.2420 C   0  0  0  0  0  0  0  0  0  0  0  0
  1  9  1  0
  1 13  1  0
  2 10  1  0
  2 14  1  0
  3  8  2  0
  3 14  1  0
  4  8  1  0
  4 13  2  0
  5 13  1  0
  5 14  2  0
  6  7  1  0
  6  8  1  0
  7 15  1  0
  9 11  1  0
 10 12  1  0
 11 16  1  0
 12 17  1  0
M  END
>  <PUBCHEM_COMPOUND_CID>  (1) 
33410

>  <PUBCHEM_CONFORMER_RMSD>  (1) 
0.8

>  <PUBCHEM_CONFORMER_DIVERSEORDER>  (1) 
1
86
49
128
61
50
113
130
117
40
122
105
108
53
69
34
35
90
76
6
64
28
9
120
119
48
54
131
129
55
13
106
126
121
32
33
12
51
3
75
80
92
88
82
79
111
30
89
25
7
100
11
115
84
99
24
109
71
41
110
38
27
127
58
87
60
83
81
124
68
29
114
93
116
44
52
97
78
47
66
31
37
101
123
67
20
59
16
8
65
42
19
14
91
95
72
104
77
57
39
94
46
85
43
63
73
96
118
45
26
2
21
4
112
98
5
70
56
36
15
125
62
17
103
102
10
107
18
74
22
23

>  <PUBCHEM_MMFF94_PARTIAL_CHARGES>  (1) 
13
1 -0.87
10 0.37
13 0.72
14 0.72
2 -0.87
3 -0.62
30 0.4
31 0.4
4 -0.62
5 -0.62
6 0.14
8 0.48
9 0.37

>  <PUBCHEM_EFFECTIVE_ROTOR_COUNT>  (1) 
8

>  <PUBCHEM_PHARMACOPHORE_FEATURES>  (1) 
8
1 1 donor
1 15 hydrophobe
1 16 hydrophobe
1 17 hydrophobe
1 2 donor
4 1 4 5 13 cation
4 2 3 5 14 cation
6 3 4 5 8 13 14 rings

>  <PUBCHEM_HEAVY_ATOM_COUNT>  (1) 
17

>  <PUBCHEM_ATOM_DEF_STEREO_COUNT>  (1) 
0

>  <PUBCHEM_ATOM_UDEF_STEREO_COUNT>  (1) 
0

>  <PUBCHEM_BOND_DEF_STEREO_COUNT>  (1) 
0

>  <PUBCHEM_BOND_UDEF_STEREO_COUNT>  (1) 
0

>  <PUBCHEM_ISOTOPIC_ATOM_COUNT>  (1) 
0

>  <PUBCHEM_COMPONENT_COUNT>  (1) 
1

>  <PUBCHEM_CACTVS_TAUTO_COUNT>  (1) 
10

>  <PUBCHEM_CONFORMER_ID>  (1) 
0000828200000001

>  <PUBCHEM_MMFF94_ENERGY>  (1) 
26.4809

>  <PUBCHEM_FEATURE_SELFOVERLAP>  (1) 
40.639

>  <PUBCHEM_SHAPE_FINGERPRINT>  (1) 
10411042 1 18122343480219954903
10756046 70 18060126627478571583
12532896 13 18052544566496027221
13140716 1 18266461095014967538
13540713 4 18113612362459702005
13540713 5 18131063871118983071
138480 1 18338794503742718846
13955234 65 18410018749397273795
15042514 8 16895675965780776690
15927050 60 18197221566586162094
1813 80 17985555450737968775
18785283 64 18334857259534879792
20671657 1 18411707590704629951
21029758 27 18194684761290307767
21041028 32 18195531385454282421
21049683 271 18188789270109696990
212916 134 17912352423002543232
21304253 13 18052822451317915233
21426921 1 17474106497692696606
21665056 4 17762049243946914884
2297311 6 17980488858276536934
23419403 2 18042389262648676069
23557571 272 17619063928522742350
249999 5 18411421747603514291
2748010 2 17979329998483683069
3091708 16 9255458539348655074
458136 41 18338519763000791993
5385378 56 18339088180621836713
54173680 148 16752682288133769684
58807428 26 18194678391737652864
7364860 26 18411138034859177919
77188 2 18194684756979080870

>  <PUBCHEM_SHAPE_MULTIPOLES>  (1) 
324.95
8.44
6.13
0.71
10.17
0.22
-0.03
-0.07
-2.1
-14.36
-0.68
0.34
0.02
0.05

>  <PUBCHEM_SHAPE_SELFOVERLAP>  (1) 
630.096

>  <PUBCHEM_SHAPE_VOLUME>  (1) 
189.1

>  <PUBCHEM_COORDINATE_TYPE>  (1) 
2
5
10

$$$$
