33428
     RDKit          3D

 17 17  0  0  0  0  0  0  0  0999 V2000
    0.5521    0.6897    0.7353 N   0  0  0  0  0  0  0  0  0  0  0  0
   -1.3210   -0.8018    0.5786 N   0  0  0  0  0  0  0  0  0  0  0  0
    0.4012    2.8228   -0.2271 N   0  0  0  0  0  0  0  0  0  0  0  0
   -3.2599   -0.0922   -0.5332 N   0  0  0  0  0  0  0  0  0  0  0  0
   -1.4463    1.3879   -0.3947 N   0  0  0  0  0  0  0  0  0  0  0  0
    1.5057   -2.4488    0.8209 C   0  0  0  0  0  0  0  0  0  0  0  0
    2.6024   -1.7216    0.0366 C   0  0  0  0  0  0  0  0  0  0  0  0
    0.6860   -1.5116    1.7150 C   0  0  0  0  0  0  0  0  0  0  0  0
    3.4099   -2.6974   -0.8203 C   0  0  0  0  0  0  0  0  0  0  0  0
   -0.0852   -0.4630    0.9535 C   0  0  0  0  0  0  0  0  0  0  0  0
    4.5248   -1.9876   -1.5717 C   0  0  0  0  0  0  0  0  0  0  0  0
   -0.1936    1.5730    0.0520 C   0  0  0  0  0  0  0  0  0  0  0  0
   -1.9454    0.1780   -0.0946 C   0  0  0  0  0  0  0  0  0  0  0  0
    1.7280    3.1591    0.1845 C   0  0  0  0  0  0  0  0  0  0  0  0
   -3.9186   -1.3368   -0.2877 C   0  0  0  0  0  0  0  0  0  0  0  0
    2.0814    4.5577   -0.2839 C   0  0  0  0  0  0  0  0  0  0  0  0
   -5.3215   -1.3075   -0.8631 C   0  0  0  0  0  0  0  0  0  0  0  0
  1 10  2  0
  1 12  1  0
  2 10  1  0
  2 13  2  0
  3 12  1  0
  3 14  1  0
  4 13  1  0
  4 15  1  0
  5 12  2  0
  5 13  1  0
  6  7  1  0
  6  8  1  0
  7  9  1  0
  8 10  1  0
  9 11  1  0
 14 16  1  0
 15 17  1  0
M  END
>  <PUBCHEM_COMPOUND_CID>  (1) 
33428

>  <PUBCHEM_CONFORMER_RMSD>  (1) 
0.8

>  <PUBCHEM_CONFORMER_DIVERSEORDER>  (1) 
1
82
50
46
87
15
42
48
84
37
65
43
63
29
56
27
12
4
89
86
44
2
3
20
88
69
70
83
49
9
66
45
77
18
62
72
19
6
13
76
11
34
53
39
55
80
30
73
60
85
16
61
24
33
79
81
7
54
41
36
51
47
74
67
5
52
57
25
38
10
8
32
28
75
40
23
35
71
31
21
78
17
68
26
58
22
59
64
14

>  <PUBCHEM_MMFF94_PARTIAL_CHARGES>  (1) 
13
1 -0.62
10 0.48
12 0.72
13 0.72
14 0.37
15 0.37
2 -0.62
29 0.4
3 -0.87
30 0.4
4 -0.87
5 -0.62
8 0.14

>  <PUBCHEM_EFFECTIVE_ROTOR_COUNT>  (1) 
8

>  <PUBCHEM_PHARMACOPHORE_FEATURES>  (1) 
7
1 11 hydrophobe
1 3 donor
1 4 donor
4 1 3 5 12 cation
4 2 4 5 13 cation
4 6 7 8 9 hydrophobe
6 1 2 5 10 12 13 rings

>  <PUBCHEM_HEAVY_ATOM_COUNT>  (1) 
17

>  <PUBCHEM_ATOM_DEF_STEREO_COUNT>  (1) 
0

>  <PUBCHEM_ATOM_UDEF_STEREO_COUNT>  (1) 
0

>  <PUBCHEM_BOND_DEF_STEREO_COUNT>  (1) 
0

>  <PUBCHEM_BOND_UDEF_STEREO_COUNT>  (1) 
0

>  <PUBCHEM_ISOTOPIC_ATOM_COUNT>  (1) 
0

>  <PUBCHEM_COMPONENT_COUNT>  (1) 
1

>  <PUBCHEM_CACTVS_TAUTO_COUNT>  (1) 
10

>  <PUBCHEM_CONFORMER_ID>  (1) 
0000829400000001

>  <PUBCHEM_MMFF94_ENERGY>  (1) 
28.0607

>  <PUBCHEM_FEATURE_SELFOVERLAP>  (1) 
35.564

>  <PUBCHEM_SHAPE_FINGERPRINT>  (1) 
12173636 292 17040905470278713604
12553582 1 18264764372960276355
12788726 201 17757836623726331592
14178000 29 18272084985565044071
14790565 3 17402896618145084824
15475509 8 17912931574268527733
15664445 248 18341335491714734134
1813 80 18271801285710858279
18915476 22 18121513606960496395
20028762 73 16970554894045417719
20300324 65 18120947113944151974
20388580 30 18272650155916194103
20602899 9 17335354112739493064
20645477 70 18264752428919814311
20871999 31 18263923237864225775
21421566 26 18057600971590886974
23382010 3 17023191500283859723
23419403 2 17681027206858512379
23557571 272 17911214149763834498
23598288 3 17540258648820437123
2748010 2 18049970378110822721
3071541 250 18410293601349660793
532947 4 18338521962208644444
54076057 127 18194690487378544715
621550 5 17631446766071808754
7364860 26 18337943614681195153
81228 2 17691653742239165057
81539 233 17972582553781092853

>  <PUBCHEM_SHAPE_MULTIPOLES>  (1) 
324.95
7.41
4.88
1.2
6.48
6.71
-0.13
-7.08
4.59
-6.26
0.65
-0.66
-0.83
0.47

>  <PUBCHEM_SHAPE_SELFOVERLAP>  (1) 
632.455

>  <PUBCHEM_SHAPE_VOLUME>  (1) 
188.9

>  <PUBCHEM_COORDINATE_TYPE>  (1) 
2
5
10

$$$$
