33424
     RDKit          3D

 20 20  0  0  0  0  0  0  0  0999 V2000
    2.3510    1.2201   -0.2114 N   0  0  0  0  0  0  0  0  0  0  0  0
   -2.3307    1.2897    0.0553 N   0  0  0  0  0  0  0  0  0  0  0  0
   -1.1829   -0.6866    0.5808 N   0  0  0  0  0  0  0  0  0  0  0  0
    1.2124   -0.7222    0.4444 N   0  0  0  0  0  0  0  0  0  0  0  0
    0.0101    1.2847   -0.0888 N   0  0  0  0  0  0  0  0  0  0  0  0
   -0.0625   -3.7312   -0.0395 C   0  0  0  0  0  0  0  0  0  0  0  0
    0.0197   -2.7080    1.1204 C   0  0  0  0  0  0  0  0  0  0  0  0
    4.7812    1.5342   -0.4050 C   0  0  0  0  0  0  0  0  0  0  0  0
   -4.7697    1.6790    0.0448 C   0  0  0  0  0  0  0  0  0  0  0  0
    3.6222    0.5772   -0.0930 C   0  0  0  0  0  0  0  0  0  0  0  0
   -3.6213    0.6972    0.3162 C   0  0  0  0  0  0  0  0  0  0  0  0
    0.0161   -1.2815    0.6871 C   0  0  0  0  0  0  0  0  0  0  0  0
   -1.2813   -3.4815   -0.9314 C   0  0  0  0  0  0  0  0  0  0  0  0
    1.2128   -3.6832   -0.8846 C   0  0  0  0  0  0  0  0  0  0  0  0
    1.1319    0.5621    0.0607 C   0  0  0  0  0  0  0  0  0  0  0  0
   -1.1312    0.6084    0.1858 C   0  0  0  0  0  0  0  0  0  0  0  0
    6.1367    0.8260   -0.3708 C   0  0  0  0  0  0  0  0  0  0  0  0
    4.7871    2.7517    0.5209 C   0  0  0  0  0  0  0  0  0  0  0  0
   -4.7700    2.1783   -1.4011 C   0  0  0  0  0  0  0  0  0  0  0  0
   -6.1317    1.0857    0.4091 C   0  0  0  0  0  0  0  0  0  0  0  0
  1 10  1  0
  1 15  1  0
  2 11  1  0
  2 16  1  0
  3 12  2  0
  3 16  1  0
  4 12  1  0
  4 15  2  0
  5 15  1  0
  5 16  2  0
  6  7  1  0
  6 13  1  0
  6 14  1  0
  7 12  1  0
  8 10  1  0
  8 17  1  0
  8 18  1  0
  9 11  1  0
  9 19  1  0
  9 20  1  0
M  END
>  <PUBCHEM_COMPOUND_CID>  (1) 
33424

>  <PUBCHEM_CONFORMER_RMSD>  (1) 
0.8

>  <PUBCHEM_CONFORMER_DIVERSEORDER>  (1) 
1
5
33
47
67
18
22
70
71
24
59
37
48
41
34
52
23
17
44
62
43
61
2
21
29
3
45
49
69
54
50
66
13
64
55
19
27
57
36
65
63
6
46
42
38
30
35
15
20
53
56
58
7
14
8
12
28
11
26
51
68
32
39
16
60
4
9
40
25
31
10

>  <PUBCHEM_MMFF94_PARTIAL_CHARGES>  (1) 
13
1 -0.87
10 0.37
11 0.37
12 0.48
15 0.72
16 0.72
2 -0.87
3 -0.62
36 0.4
37 0.4
4 -0.62
5 -0.62
7 0.14

>  <PUBCHEM_EFFECTIVE_ROTOR_COUNT>  (1) 
8

>  <PUBCHEM_PHARMACOPHORE_FEATURES>  (1) 
8
1 1 donor
1 2 donor
3 6 13 14 hydrophobe
3 8 17 18 hydrophobe
3 9 19 20 hydrophobe
4 1 4 5 15 cation
4 2 3 5 16 cation
6 3 4 5 12 15 16 rings

>  <PUBCHEM_HEAVY_ATOM_COUNT>  (1) 
20

>  <PUBCHEM_ATOM_DEF_STEREO_COUNT>  (1) 
0

>  <PUBCHEM_ATOM_UDEF_STEREO_COUNT>  (1) 
0

>  <PUBCHEM_BOND_DEF_STEREO_COUNT>  (1) 
0

>  <PUBCHEM_BOND_UDEF_STEREO_COUNT>  (1) 
0

>  <PUBCHEM_ISOTOPIC_ATOM_COUNT>  (1) 
0

>  <PUBCHEM_COMPONENT_COUNT>  (1) 
1

>  <PUBCHEM_CACTVS_TAUTO_COUNT>  (1) 
10

>  <PUBCHEM_CONFORMER_ID>  (1) 
0000829000000001

>  <PUBCHEM_MMFF94_ENERGY>  (1) 
40.9306

>  <PUBCHEM_FEATURE_SELFOVERLAP>  (1) 
40.638

>  <PUBCHEM_SHAPE_FINGERPRINT>  (1) 
12500047 106 18339924934935257776
12597179 24 18202009832524725566
12730499 353 18338245877341738569
12969540 114 18336815455316145645
13257819 101 17096071512118537669
13955234 65 18193280693742465411
14790565 3 18411698777146882369
15664445 248 17409944534870600159
167882 2 18265897964736762414
17539 30 17910670191734205454
17913733 40 18340787974142712705
17980427 23 17386016125766615221
20197701 30 18407759239684729656
20554085 129 18130488774354230520
20645477 70 18192708943806807195
21054139 6 18341322388555023527
21521721 280 18271533078157157481
22182313 1 18192740949159941755
23352939 185 13110963158425004480
23402539 116 18413105095384344868
23558518 356 17610903770012590304
23559900 14 17905317434728897417
23598288 3 17680165245814183146
266924 87 18194403286118736509
293599 30 18407761447419622328
3759504 43 18334858354682909931
38695281 34 18411417285074523367
474229 33 18334861636391546993
5283173 99 18198056087479509932
532947 4 18268721519524293214
53917941 68 18266724943398624173
559249 180 18408321121183103634
59755656 520 18408881858558253356
6025842 7 18267579114226586333
6669772 16 18343026553804993734
7364860 26 18195528082529629275
81228 2 17758385662296511923
81539 233 18335701581554595183

>  <PUBCHEM_SHAPE_MULTIPOLES>  (1) 
386.69
11.71
4.52
0.95
0.17
6.05
0.11
-14.9
1.32
0.41
0.87
-0.43
0.23
0.6

>  <PUBCHEM_SHAPE_SELFOVERLAP>  (1) 
754.387

>  <PUBCHEM_SHAPE_VOLUME>  (1) 
223.9

>  <PUBCHEM_COORDINATE_TYPE>  (1) 
2
5
10

$$$$
