33427
     RDKit          3D

 15 15  0  0  0  0  0  0  0  0999 V2000
   -0.0761    0.9393    0.6932 N   0  0  0  0  0  0  0  0  0  0  0  0
   -1.2162   -1.1505    0.3925 N   0  0  0  0  0  0  0  0  0  0  0  0
   -2.1252    0.8589   -0.5527 N   0  0  0  0  0  0  0  0  0  0  0  0
   -0.9875    2.8863   -0.2436 N   0  0  0  0  0  0  0  0  0  0  0  0
   -3.2159   -1.1983   -0.8313 N   0  0  0  0  0  0  0  0  0  0  0  0
    2.0100   -1.5917    0.7915 C   0  0  0  0  0  0  0  0  0  0  0  0
    2.7809   -0.4683    0.0912 C   0  0  0  0  0  0  0  0  0  0  0  0
    0.8451   -1.0779    1.6452 C   0  0  0  0  0  0  0  0  0  0  0  0
    3.9475   -1.0239   -0.7267 C   0  0  0  0  0  0  0  0  0  0  0  0
   -0.2293   -0.3775    0.8518 C   0  0  0  0  0  0  0  0  0  0  0  0
    4.7402    0.0890   -1.3932 C   0  0  0  0  0  0  0  0  0  0  0  0
   -1.0673    1.4939   -0.0231 C   0  0  0  0  0  0  0  0  0  0  0  0
   -2.1335   -0.4607   -0.3044 C   0  0  0  0  0  0  0  0  0  0  0  0
    0.0813    3.6909    0.2596 C   0  0  0  0  0  0  0  0  0  0  0  0
   -3.3539   -2.6094   -0.6498 C   0  0  0  0  0  0  0  0  0  0  0  0
  1 10  2  0
  1 12  1  0
  2 10  1  0
  2 13  2  0
  3 12  2  0
  3 13  1  0
  4 12  1  0
  4 14  1  0
  5 13  1  0
  5 15  1  0
  6  7  1  0
  6  8  1  0
  7  9  1  0
  8 10  1  0
  9 11  1  0
M  END
>  <PUBCHEM_COMPOUND_CID>  (1) 
33427

>  <PUBCHEM_CONFORMER_RMSD>  (1) 
0.8

>  <PUBCHEM_CONFORMER_DIVERSEORDER>  (1) 
1
3
13
17
2
15
18
19
6
7
14
16
10
9
4
11
8
12
21
20
22
5

>  <PUBCHEM_MMFF94_PARTIAL_CHARGES>  (1) 
13
1 -0.62
10 0.48
12 0.72
13 0.72
14 0.37
15 0.37
2 -0.62
27 0.4
28 0.4
3 -0.62
4 -0.87
5 -0.87
8 0.14

>  <PUBCHEM_EFFECTIVE_ROTOR_COUNT>  (1) 
6

>  <PUBCHEM_PHARMACOPHORE_FEATURES>  (1) 
7
1 11 hydrophobe
1 4 donor
1 5 donor
4 1 3 4 12 cation
4 2 3 5 13 cation
4 6 7 8 9 hydrophobe
6 1 2 3 10 12 13 rings

>  <PUBCHEM_HEAVY_ATOM_COUNT>  (1) 
15

>  <PUBCHEM_ATOM_DEF_STEREO_COUNT>  (1) 
0

>  <PUBCHEM_ATOM_UDEF_STEREO_COUNT>  (1) 
0

>  <PUBCHEM_BOND_DEF_STEREO_COUNT>  (1) 
0

>  <PUBCHEM_BOND_UDEF_STEREO_COUNT>  (1) 
0

>  <PUBCHEM_ISOTOPIC_ATOM_COUNT>  (1) 
0

>  <PUBCHEM_COMPONENT_COUNT>  (1) 
1

>  <PUBCHEM_CACTVS_TAUTO_COUNT>  (1) 
10

>  <PUBCHEM_CONFORMER_ID>  (1) 
0000829300000001

>  <PUBCHEM_MMFF94_ENERGY>  (1) 
31.6572

>  <PUBCHEM_FEATURE_SELFOVERLAP>  (1) 
35.564

>  <PUBCHEM_SHAPE_FINGERPRINT>  (1) 
12173636 292 17835789807776720996
12553582 1 18338223943002436195
14790565 3 18052259492727891929
15475509 8 18130231454679806517
15502708 8 18270117894473978482
16945 1 18051387614286572041
17134986 127 17184190539797022188
192875 21 18040711472830319414
19765921 60 17313380067762672400
20300324 65 18409454670115321206
20344682 6 18412265043042266810
20388580 30 18056757861005286255
20645476 183 17616529562657470651
20645477 70 17761750155816271527
20871999 31 18409160022263287559
21421566 26 18202562895199420974
21524375 3 17468758485608262920
22620623 9 17988634147719848277
228727 97 18113616759530188954
22926399 37 17676211272935514502
23382010 3 17168417289387249979
23419403 2 17318478726756320251
23557571 272 18129642137547530840
2748010 2 18123716929578271777
305870 269 9078575736017846291
3071541 250 18266177421247155293
59027123 10 18265067838454210366
7364860 26 17907284800180300745
7615 1 17896591783412674250
81228 2 18053914330925768065
84936 31 17271148041025441064

>  <PUBCHEM_SHAPE_MULTIPOLES>  (1) 
283.79
6.42
3.31
1.2
6.3
3.63
0.16
-4.11
-3.92
-2.21
-0.02
0.64
-0.41
-0.66

>  <PUBCHEM_SHAPE_SELFOVERLAP>  (1) 
556.801

>  <PUBCHEM_SHAPE_VOLUME>  (1) 
163.1

>  <PUBCHEM_COORDINATE_TYPE>  (1) 
2
5
10

$$$$
