33426
     RDKit          3D

 18 18  0  0  1  0  0  0  0  0999 V2000
   -1.1437   -0.4711   -0.2006 N   0  0  0  0  0  0  0  0  0  0  0  0
    1.2537   -0.5667   -0.2396 N   0  0  0  0  0  0  0  0  0  0  0  0
   -2.2022    1.5974    0.1159 N   0  0  0  0  0  0  0  0  0  0  0  0
    2.4832    1.4104    0.0394 N   0  0  0  0  0  0  0  0  0  0  0  0
    0.1419    1.5354    0.0805 N   0  0  0  0  0  0  0  0  0  0  0  0
   -0.0324   -2.5892   -0.5212 C   0  0  0  0  0  0  0  0  0  0  0  0
   -0.7379   -3.3423    0.6252 C   0  0  0  0  0  0  0  0  0  0  0  0
    0.0310   -1.0872   -0.3033 C   0  0  0  0  0  0  0  0  0  0  0  0
   -0.7150   -2.9116   -1.8560 C   0  0  0  0  0  0  0  0  0  0  0  0
   -0.0967   -3.0973    1.9857 C   0  0  0  0  0  0  0  0  0  0  0  0
   -1.0100    0.8511   -0.0081 C   0  0  0  0  0  0  0  0  0  0  0  0
    1.2321    0.7616   -0.0445 C   0  0  0  0  0  0  0  0  0  0  0  0
   -3.5000    1.0026    0.0443 C   0  0  0  0  0  0  0  0  0  0  0  0
    3.7266    0.7145   -0.0739 C   0  0  0  0  0  0  0  0  0  0  0  0
   -4.5880    2.0660    0.1505 C   0  0  0  0  0  0  0  0  0  0  0  0
    4.8996    1.6699    0.1189 C   0  0  0  0  0  0  0  0  0  0  0  0
   -5.9917    1.4882    0.0343 C   0  0  0  0  0  0  0  0  0  0  0  0
    6.2494    0.9685    0.0522 C   0  0  0  0  0  0  0  0  0  0  0  0
  1  8  2  0
  1 11  1  0
  2  8  1  0
  2 12  2  0
  3 11  1  0
  3 13  1  0
  4 12  1  0
  4 14  1  0
  5 11  2  0
  5 12  1  0
  6  7  1  0
  6  8  1  0
  6  9  1  0
  7 10  1  0
 13 15  1  0
 14 16  1  0
 15 17  1  0
 16 18  1  0
M  END
>  <PUBCHEM_COMPOUND_CID>  (1) 
33426

>  <PUBCHEM_CONFORMER_RMSD>  (1) 
0.8

>  <PUBCHEM_CONFORMER_DIVERSEORDER>  (1) 
14
158
154
53
23
88
98
124
9
155
93
22
143
39
100
66
146
13
101
147
84
62
107
78
161
104
1
30
128
37
144
47
32
102
139
94
165
114
129
120
56
2
109
17
75
162
113
5
16
150
121
59
28
85
167
131
112
50
123
153
45
21
151
77
110
51
24
90
27
115
97
145
4
140
20
118
142
160
63
72
11
164
65
42
55
95
10
54
68
105
83
36
40
132
119
156
103
106
15
136
108
58
116
152
73
157
111
67
18
46
137
138
134
61
48
87
125
71
64
168
159
8
38
80
76
25
6
26
19
43
163
35
127
74
133
149
12
33
130
52
92
141
44
57
49
82
99
91
86
70
31
60
89
122
81
166
135
3
29
126
7
79
69
96
117
148
41
34

>  <PUBCHEM_MMFF94_PARTIAL_CHARGES>  (1) 
13
1 -0.62
11 0.72
12 0.72
13 0.37
14 0.37
2 -0.62
3 -0.87
32 0.4
33 0.4
4 -0.87
5 -0.62
6 0.14
8 0.48

>  <PUBCHEM_EFFECTIVE_ROTOR_COUNT>  (1) 
8

>  <PUBCHEM_PHARMACOPHORE_FEATURES>  (1) 
9
1 10 hydrophobe
1 17 hydrophobe
1 18 hydrophobe
1 3 donor
1 4 donor
1 9 hydrophobe
4 1 3 5 11 cation
4 2 4 5 12 cation
6 1 2 5 8 11 12 rings

>  <PUBCHEM_HEAVY_ATOM_COUNT>  (1) 
18

>  <PUBCHEM_ATOM_DEF_STEREO_COUNT>  (1) 
0

>  <PUBCHEM_ATOM_UDEF_STEREO_COUNT>  (1) 
1

>  <PUBCHEM_BOND_DEF_STEREO_COUNT>  (1) 
0

>  <PUBCHEM_BOND_UDEF_STEREO_COUNT>  (1) 
0

>  <PUBCHEM_ISOTOPIC_ATOM_COUNT>  (1) 
0

>  <PUBCHEM_COMPONENT_COUNT>  (1) 
1

>  <PUBCHEM_CACTVS_TAUTO_COUNT>  (1) 
10

>  <PUBCHEM_CONFORMER_ID>  (1) 
000082920000000E

>  <PUBCHEM_MMFF94_ENERGY>  (1) 
32.0291

>  <PUBCHEM_FEATURE_SELFOVERLAP>  (1) 
45.715

>  <PUBCHEM_SHAPE_FINGERPRINT>  (1) 
10090160 65 18408322160206837429
10382601 240 18192154802483338841
11357001 24 18119534485956594322
12532896 13 18409731776619928262
13052359 8 18336832003903777427
13083527 12 17901371304460348939
13590594 115 17693372657287868839
15042514 8 18264492952137475816
15927050 60 18409448081256622906
17539 30 17771051984698769991
1813 80 8502371195556465809
20554085 129 18058711542532662072
20602899 9 15985108539268888222
20645477 70 18196933259028159221
20681677 155 18336824286544054400
21049683 118 18196342983612073905
21054139 6 18341602751235450885
21524375 3 18411699867957825237
22182313 1 18128001721717329486
22224240 67 18410012144033335169
23352939 185 12463566309564582152
23402539 116 18202277030692832636
23558518 356 17828482801828579600
23559900 14 18130786802958286696
23598288 3 18120383317675977542
293599 30 18413389830352080692
298252 57 18131631183872752079
33824 294 18336831862781649913
366044 4 18412545405216031969
3759504 43 18333733549950568700
394222 165 18266737974466459843
474229 33 18411702101783872297
53917941 68 18269815649072770389
559249 180 18411415133955303830
59755656 520 18410849971244419020
7364860 26 18054791680858861127
81228 2 17905587149652660801
81539 233 18335702672608157245
9841814 1 17686908211630859355

>  <PUBCHEM_SHAPE_MULTIPOLES>  (1) 
345.53
10.14
3.91
1.09
3.95
4.47
-0.08
-12.8
-0.5
-1.79
-0.45
-0.19
1.44
-0.17

>  <PUBCHEM_SHAPE_SELFOVERLAP>  (1) 
673.758

>  <PUBCHEM_SHAPE_VOLUME>  (1) 
201.6

>  <PUBCHEM_COORDINATE_TYPE>  (1) 
2
5
10

$$$$
