33422
     RDKit          3D

 18 18  0  0  0  0  0  0  0  0999 V2000
   -1.2013    0.4246   -0.4928 N   0  0  0  0  0  0  0  0  0  0  0  0
    1.1981    0.4259   -0.4640 N   0  0  0  0  0  0  0  0  0  0  0  0
   -2.3533   -1.5174    0.1405 N   0  0  0  0  0  0  0  0  0  0  0  0
    2.3363   -1.5149    0.1968 N   0  0  0  0  0  0  0  0  0  0  0  0
   -0.0086   -1.5457    0.1803 N   0  0  0  0  0  0  0  0  0  0  0  0
   -0.0097    3.4498   -0.0059 C   0  0  0  0  0  0  0  0  0  0  0  0
    0.0053    2.4105   -1.1439 C   0  0  0  0  0  0  0  0  0  0  0  0
    0.0003    0.9797   -0.6636 C   0  0  0  0  0  0  0  0  0  0  0  0
   -1.2018    3.2543    0.9343 C   0  0  0  0  0  0  0  0  0  0  0  0
    1.2944    3.3644    0.7911 C   0  0  0  0  0  0  0  0  0  0  0  0
   -1.1281   -0.8467   -0.0667 C   0  0  0  0  0  0  0  0  0  0  0  0
    1.1159   -0.8456   -0.0399 C   0  0  0  0  0  0  0  0  0  0  0  0
   -3.6226   -0.8997   -0.0835 C   0  0  0  0  0  0  0  0  0  0  0  0
    3.6101   -0.8962    0.0034 C   0  0  0  0  0  0  0  0  0  0  0  0
   -4.7578   -1.8495    0.2841 C   0  0  0  0  0  0  0  0  0  0  0  0
    4.7381   -1.8846    0.2799 C   0  0  0  0  0  0  0  0  0  0  0  0
   -6.1335   -1.2224    0.1059 C   0  0  0  0  0  0  0  0  0  0  0  0
    6.1182   -1.2866    0.0442 C   0  0  0  0  0  0  0  0  0  0  0  0
  1  8  2  0
  1 11  1  0
  2  8  1  0
  2 12  2  0
  3 11  1  0
  3 13  1  0
  4 12  1  0
  4 14  1  0
  5 11  2  0
  5 12  1  0
  6  7  1  0
  6  9  1  0
  6 10  1  0
  7  8  1  0
 13 15  1  0
 14 16  1  0
 15 17  1  0
 16 18  1  0
M  END
>  <PUBCHEM_COMPOUND_CID>  (1) 
33422

>  <PUBCHEM_CONFORMER_RMSD>  (1) 
0.8

>  <PUBCHEM_CONFORMER_DIVERSEORDER>  (1) 
1
6
54
110
105
79
40
42
114
17
36
48
25
71
90
103
23
44
2
91
39
85
24
41
115
106
88
5
67
124
57
78
98
53
52
108
111
120
100
104
15
37
117
16
82
65
66
101
18
94
33
84
61
99
76
63
14
102
9
126
122
34
112
49
26
31
70
62
83
32
119
113
19
92
97
123
45
116
3
59
60
55
89
81
21
58
4
121
73
27
87
38
69
118
20
46
93
12
30
43
109
80
50
35
95
56
96
8
125
10
47
107
77
13
75
74
22
72
68
64
51
28
86
29
7
11

>  <PUBCHEM_MMFF94_PARTIAL_CHARGES>  (1) 
13
1 -0.62
11 0.72
12 0.72
13 0.37
14 0.37
2 -0.62
3 -0.87
32 0.4
33 0.4
4 -0.87
5 -0.62
7 0.14
8 0.48

>  <PUBCHEM_EFFECTIVE_ROTOR_COUNT>  (1) 
8

>  <PUBCHEM_PHARMACOPHORE_FEATURES>  (1) 
8
1 17 hydrophobe
1 18 hydrophobe
1 3 donor
1 4 donor
3 6 9 10 hydrophobe
4 1 3 5 11 cation
4 2 4 5 12 cation
6 1 2 5 8 11 12 rings

>  <PUBCHEM_HEAVY_ATOM_COUNT>  (1) 
18

>  <PUBCHEM_ATOM_DEF_STEREO_COUNT>  (1) 
0

>  <PUBCHEM_ATOM_UDEF_STEREO_COUNT>  (1) 
0

>  <PUBCHEM_BOND_DEF_STEREO_COUNT>  (1) 
0

>  <PUBCHEM_BOND_UDEF_STEREO_COUNT>  (1) 
0

>  <PUBCHEM_ISOTOPIC_ATOM_COUNT>  (1) 
0

>  <PUBCHEM_COMPONENT_COUNT>  (1) 
1

>  <PUBCHEM_CACTVS_TAUTO_COUNT>  (1) 
10

>  <PUBCHEM_CONFORMER_ID>  (1) 
0000828E00000001

>  <PUBCHEM_MMFF94_ENERGY>  (1) 
33.1151

>  <PUBCHEM_FEATURE_SELFOVERLAP>  (1) 
40.64

>  <PUBCHEM_SHAPE_FINGERPRINT>  (1) 
10411042 1 18410856559661148446
10756046 70 17916018147930674487
1100329 8 18339365141535463889
11265709 11 18410294709361688755
12507560 14 18342178907633259727
12516196 113 18410291427885816610
12788726 201 18337128790882107670
12841375 25 18408322198275714247
13134695 92 18340485685638511981
13257819 101 13901635061135179675
13294875 104 17696759126766755337
13899415 154 18337403728443839814
14178000 15 18340490062141672937
15042514 8 18194684765389615358
15927050 60 17692254458003167070
17980427 23 17775015574425659769
17980427 26 17695901511855115821
18006028 8 18410290311178365575
1813 80 18272666635442023574
20510252 161 18337387120301132986
20832881 197 18334016112060674027
21029758 11 18408602578109597847
21041028 32 18413108368381318517
21202864 24 18053954947830411465
21304253 13 18343021086216264217
21304303 172 18272094851289266425
21524375 3 17191234539844925677
22182937 141 18055350233161741728
2297311 6 18340494370395044622
23352939 185 18343589568398714904
23402539 116 18412539882020107807
23419403 2 18190718973025004628
23557571 272 18339646633834098430
23558518 356 17901115118188338402
23559900 14 17823980233262359367
23845131 108 17476924549772865089
283562 15 18189335680318537178
314173 85 18340779164585084679
5104073 3 18123457299422966386
5385378 56 18051416459276980161
621550 34 18059852840657194846
68521 5 18337110060223592574
7364860 26 18195528323052851685
7471813 234 18201996681698569061
77188 2 18410856581199665308
81228 2 18118136774533068550

>  <PUBCHEM_SHAPE_MULTIPOLES>  (1) 
345.53
10.27
4.12
0.82
0.21
5.51
0.04
-12.72
-1.21
-0.19
-0.81
0.02
0.49
-0.02

>  <PUBCHEM_SHAPE_SELFOVERLAP>  (1) 
674.132

>  <PUBCHEM_SHAPE_VOLUME>  (1) 
201.2

>  <PUBCHEM_COORDINATE_TYPE>  (1) 
2
5
10

$$$$
