33423
     RDKit          3D

 20 20  0  0  0  0  0  0  0  0999 V2000
   -2.2343   -1.4254   -0.0002 N   0  0  0  0  0  0  0  0  0  0  0  0
    2.4303   -1.3242   -0.1269 N   0  0  0  0  0  0  0  0  0  0  0  0
    1.2496    0.6416    0.3635 N   0  0  0  0  0  0  0  0  0  0  0  0
   -1.1484    0.5830    0.4272 N   0  0  0  0  0  0  0  0  0  0  0  0
    0.0877   -1.4126   -0.0701 N   0  0  0  0  0  0  0  0  0  0  0  0
   -0.0413    3.5916   -0.3684 C   0  0  0  0  0  0  0  0  0  0  0  0
    0.0133    2.6531    0.8625 C   0  0  0  0  0  0  0  0  0  0  0  0
    0.0398    1.1999    0.5305 C   0  0  0  0  0  0  0  0  0  0  0  0
   -1.2891    3.3407   -1.2189 C   0  0  0  0  0  0  0  0  0  0  0  0
   -0.0062    5.0562    0.0753 C   0  0  0  0  0  0  0  0  0  0  0  0
   -4.6380   -1.8591   -0.0914 C   0  0  0  0  0  0  0  0  0  0  0  0
    4.8415   -1.6384   -0.2150 C   0  0  0  0  0  0  0  0  0  0  0  0
   -3.5389   -0.8342    0.1751 C   0  0  0  0  0  0  0  0  0  0  0  0
    3.6896   -0.6570   -0.0164 C   0  0  0  0  0  0  0  0  0  0  0  0
   -6.0428   -1.2649    0.0371 C   0  0  0  0  0  0  0  0  0  0  0  0
    6.2135   -0.9776   -0.0591 C   0  0  0  0  0  0  0  0  0  0  0  0
   -1.0468   -0.7213    0.1250 C   0  0  0  0  0  0  0  0  0  0  0  0
    1.1959   -0.6666    0.0655 C   0  0  0  0  0  0  0  0  0  0  0  0
   -7.1130   -2.2921   -0.2981 C   0  0  0  0  0  0  0  0  0  0  0  0
    7.3377   -1.9926   -0.1972 C   0  0  0  0  0  0  0  0  0  0  0  0
  1 13  1  0
  1 17  1  0
  2 14  1  0
  2 18  1  0
  3  8  2  0
  3 18  1  0
  4  8  1  0
  4 17  2  0
  5 17  1  0
  5 18  2  0
  6  7  1  0
  6  9  1  0
  6 10  1  0
  7  8  1  0
 11 13  1  0
 11 15  1  0
 12 14  1  0
 12 16  1  0
 15 19  1  0
 16 20  1  0
M  END
>  <PUBCHEM_COMPOUND_CID>  (1) 
33423

>  <PUBCHEM_CONFORMER_RMSD>  (1) 
1

>  <PUBCHEM_CONFORMER_DIVERSEORDER>  (1) 
1
46
22
41
44
48
21
2
34
43
77
37
23
78
58
40
64
13
35
19
57
18
24
76
28
52
32
75
16
71
73
9
70
29
42
53
31
56
12
54
27
7
3
36
39
63
38
17
15
8
30
20
49
45
26
51
10
66
50
14
25
60
5
55
4
47
33
62
69
59
6
68
11
74
72
67
61
65

>  <PUBCHEM_MMFF94_PARTIAL_CHARGES>  (1) 
13
1 -0.87
13 0.37
14 0.37
17 0.72
18 0.72
2 -0.87
3 -0.62
4 -0.62
42 0.4
43 0.4
5 -0.62
7 0.14
8 0.48

>  <PUBCHEM_EFFECTIVE_ROTOR_COUNT>  (1) 
10

>  <PUBCHEM_PHARMACOPHORE_FEATURES>  (1) 
8
1 1 donor
1 19 hydrophobe
1 2 donor
1 20 hydrophobe
3 6 9 10 hydrophobe
4 1 4 5 17 cation
4 2 3 5 18 cation
6 3 4 5 8 17 18 rings

>  <PUBCHEM_HEAVY_ATOM_COUNT>  (1) 
20

>  <PUBCHEM_ATOM_DEF_STEREO_COUNT>  (1) 
0

>  <PUBCHEM_ATOM_UDEF_STEREO_COUNT>  (1) 
0

>  <PUBCHEM_BOND_DEF_STEREO_COUNT>  (1) 
0

>  <PUBCHEM_BOND_UDEF_STEREO_COUNT>  (1) 
0

>  <PUBCHEM_ISOTOPIC_ATOM_COUNT>  (1) 
0

>  <PUBCHEM_COMPONENT_COUNT>  (1) 
1

>  <PUBCHEM_CACTVS_TAUTO_COUNT>  (1) 
10

>  <PUBCHEM_CONFORMER_ID>  (1) 
0000828F00000001

>  <PUBCHEM_MMFF94_ENERGY>  (1) 
31.7556

>  <PUBCHEM_FEATURE_SELFOVERLAP>  (1) 
40.641

>  <PUBCHEM_SHAPE_FINGERPRINT>  (1) 
10411042 1 18411138043206434825
11265709 11 18411420613421028538
12788726 201 18188204295685691010
12841375 25 18411701006182116011
13590594 115 18409739456638918177
13862211 1 18341897398022945570
14347332 77 18266460910944063542
14508225 48 18410851057876841660
16087824 20 18194402196357716001
167882 2 18049445043386228817
17492 89 18123470484630147062
18006028 8 18411699893738490326
1813 80 18272386273114822759
20238998 120 18341894086777175465
21049683 271 18261961867611810509
21267235 1 18342181076265027675
21304253 13 18342178864920996033
21304303 172 18272657809933005225
21426921 1 18266460902327118512
23402539 116 18342457015139455742
23419403 2 17773855601968784441
23558518 356 17973737869877195994
23559900 14 18193553592012461587
283562 15 18263084323181903962
5219985 9 18411983567716987315
57262259 84 18338517430590899005
5758199 1 8070033276814017303
5969126 39 18340762663483685894
68521 5 18337954489432808968
7164475 11 18264498299793876214
77188 2 18411419544022307068

>  <PUBCHEM_SHAPE_MULTIPOLES>  (1) 
386.69
14.71
5.01
0.76
4.2
9.77
-0.06
-22.4
-1.71
-1.62
-0.62
-0.11
0.4
0.32

>  <PUBCHEM_SHAPE_SELFOVERLAP>  (1) 
748.389

>  <PUBCHEM_SHAPE_VOLUME>  (1) 
228.3

>  <PUBCHEM_COORDINATE_TYPE>  (1) 
2
5
10

$$$$
