33432
     RDKit          3D

 21 21  0  0  0  0  0  0  0  0999 V2000
    1.9427    1.2063    0.6400 N   0  0  0  0  0  0  0  0  0  0  0  0
    1.9133   -1.1931    0.6430 N   0  0  0  0  0  0  0  0  0  0  0  0
    3.8546   -0.0179   -0.1369 N   0  0  0  0  0  0  0  0  0  0  0  0
    3.8545    2.3273   -0.1262 N   0  0  0  0  0  0  0  0  0  0  0  0
    3.7971   -2.3622   -0.1206 N   0  0  0  0  0  0  0  0  0  0  0  0
   -3.6301    0.0993   -0.1021 C   0  0  0  0  0  0  0  0  0  0  0  0
   -5.0397    0.0552    0.4919 C   0  0  0  0  0  0  0  0  0  0  0  0
   -2.5237    0.0753    0.9572 C   0  0  0  0  0  0  0  0  0  0  0  0
   -6.1052    0.0578   -0.6079 C   0  0  0  0  0  0  0  0  0  0  0  0
   -1.1130    0.0443    0.3594 C   0  0  0  0  0  0  0  0  0  0  0  0
   -7.5134   -0.0251   -0.0146 C   0  0  0  0  0  0  0  0  0  0  0  0
   -0.0125    0.0312    1.4276 C   0  0  0  0  0  0  0  0  0  0  0  0
   -8.6194    0.0047   -1.0716 C   0  0  0  0  0  0  0  0  0  0  0  0
    1.3849    0.0134    0.8609 C   0  0  0  0  0  0  0  0  0  0  0  0
  -10.0173   -0.1492   -0.4922 C   0  0  0  0  0  0  0  0  0  0  0  0
    3.1845    1.1128    0.1378 C   0  0  0  0  0  0  0  0  0  0  0  0
    3.1571   -1.1313    0.1407 C   0  0  0  0  0  0  0  0  0  0  0  0
    5.1790    2.3814   -0.6611 C   0  0  0  0  0  0  0  0  0  0  0  0
    5.1199   -2.4501   -0.6552 C   0  0  0  0  0  0  0  0  0  0  0  0
    5.6274    3.8176   -0.8721 C   0  0  0  0  0  0  0  0  0  0  0  0
    5.5593   -3.8974   -0.7981 C   0  0  0  0  0  0  0  0  0  0  0  0
  1 14  2  0
  1 16  1  0
  2 14  1  0
  2 17  2  0
  3 16  2  0
  3 17  1  0
  4 16  1  0
  4 18  1  0
  5 17  1  0
  5 19  1  0
  6  7  1  0
  6  8  1  0
  7  9  1  0
  8 10  1  0
  9 11  1  0
 10 12  1  0
 11 13  1  0
 12 14  1  0
 13 15  1  0
 18 20  1  0
 19 21  1  0
M  END
>  <PUBCHEM_COMPOUND_CID>  (1) 
33432

>  <PUBCHEM_CONFORMER_RMSD>  (1) 
1

>  <PUBCHEM_CONFORMER_DIVERSEORDER>  (1) 
1
53
112
44
200
144
31
141
86
24
80
161
172
55
162
117
165
38
41
189
5
72
126
82
26
179
95
25
170
169
98
21
36
42
134
201
138
37
7
2
85
4
35
47
120
142
176
132
128
180
16
14
119
6
103
131
23
92
105
18
56
22
125
190
32
191
70
66
118
114
159
90
111
143
8
100
147
43
148
10
51
113
76
130
97
27
123
77
61
163
154
149
168
12
68
178
186
167
83
48
129
3
50
79
116
122
177
106
96
91
46
49
115
20
184
93
166
137
182
57
74
199
195
101
124
89
71
73
198
158
39
9
15
54
146
197
40
151
33
173
187
174
194
75
63
193
139
183
60
107
152
121
155
104
171
52
30
133
13
156
58
62
109
164
136
157
188
150
185
59
29
78
17
108
45
64
196
181
19
94
34
67
102
69
140
11
127
88
87
65
84
145
135
28
153
99
192
81
175
160
110

>  <PUBCHEM_MMFF94_PARTIAL_CHARGES>  (1) 
13
1 -0.62
12 0.14
14 0.48
16 0.72
17 0.72
18 0.37
19 0.37
2 -0.62
3 -0.62
4 -0.87
41 0.4
42 0.4
5 -0.87

>  <PUBCHEM_EFFECTIVE_ROTOR_COUNT>  (1) 
12

>  <PUBCHEM_PHARMACOPHORE_FEATURES>  (1) 
6
1 15 hydrophobe
1 4 donor
1 5 donor
4 1 3 4 16 cation
4 2 3 5 17 cation
6 1 2 3 14 16 17 rings

>  <PUBCHEM_HEAVY_ATOM_COUNT>  (1) 
21

>  <PUBCHEM_ATOM_DEF_STEREO_COUNT>  (1) 
0

>  <PUBCHEM_ATOM_UDEF_STEREO_COUNT>  (1) 
0

>  <PUBCHEM_BOND_DEF_STEREO_COUNT>  (1) 
0

>  <PUBCHEM_BOND_UDEF_STEREO_COUNT>  (1) 
0

>  <PUBCHEM_ISOTOPIC_ATOM_COUNT>  (1) 
0

>  <PUBCHEM_COMPONENT_COUNT>  (1) 
1

>  <PUBCHEM_CACTVS_TAUTO_COUNT>  (1) 
10

>  <PUBCHEM_CONFORMER_ID>  (1) 
0000829800000001

>  <PUBCHEM_MMFF94_ENERGY>  (1) 
27.7553

>  <PUBCHEM_FEATURE_SELFOVERLAP>  (1) 
30.489

>  <PUBCHEM_SHAPE_FINGERPRINT>  (1) 
10411042 1 18121782730371152282
13533116 47 18344145886606061353
13540713 4 17896903108333335162
13540713 5 17915198848765244864
15183329 4 17346604093204629553
15475509 84 11026059297184223582
18335252 98 18263933301341729283
20157964 124 18335138704357181033
20612939 158 18411425003162331416
20645477 70 18410014317059706306
20721686 146 17242463939659315652
21150785 3 18272088340530464457
221357 26 18334856082798450929
23081809 10 17917999360915666313
23522609 53 17773905080651593145
23523766 6 18128540371647668230
29717793 49 18343303630734653499
3004659 81 18343299223803257139
34797466 226 18261108578454611837
4073 2 18113901619706280107
46194498 28 18336544932721739606
59682541 52 18409453574539958126
6025842 7 18412548721563475494
6327066 14 18045789150756700444
6438161 24 18271518698306281451

>  <PUBCHEM_SHAPE_MULTIPOLES>  (1) 
407.27
25.39
3.35
1.04
70.17
0.27
0.09
0.53
-10.8
-14.11
-1.57
0.17
-0.03
-0.11

>  <PUBCHEM_SHAPE_SELFOVERLAP>  (1) 
781.6

>  <PUBCHEM_SHAPE_VOLUME>  (1) 
241.6

>  <PUBCHEM_COORDINATE_TYPE>  (1) 
2
5
10

$$$$
