33430
     RDKit          3D

 21 21  0  0  0  0  0  0  0  0999 V2000
   -1.8846   -1.8298   -0.1261 N   0  0  0  0  0  0  0  0  0  0  0  0
    2.7582   -1.1943   -0.3134 N   0  0  0  0  0  0  0  0  0  0  0  0
    1.4188    0.4402    0.7031 N   0  0  0  0  0  0  0  0  0  0  0  0
   -0.9567    0.1150    0.7990 N   0  0  0  0  0  0  0  0  0  0  0  0
    0.4403   -1.5405   -0.2332 N   0  0  0  0  0  0  0  0  0  0  0  0
   -0.1801    3.3032    0.7991 C   0  0  0  0  0  0  0  0  0  0  0  0
   -1.4699    3.2085   -0.0219 C   0  0  0  0  0  0  0  0  0  0  0  0
    0.0202    2.1106    1.7411 C   0  0  0  0  0  0  0  0  0  0  0  0
   -1.6411    4.4294   -0.9265 C   0  0  0  0  0  0  0  0  0  0  0  0
    0.1721    0.7901    1.0286 C   0  0  0  0  0  0  0  0  0  0  0  0
   -4.2342   -2.4470   -0.2637 C   0  0  0  0  0  0  0  0  0  0  0  0
    5.1814   -1.2191   -0.5316 C   0  0  0  0  0  0  0  0  0  0  0  0
   -3.2094   -1.4302    0.2321 C   0  0  0  0  0  0  0  0  0  0  0  0
    3.9513   -0.4502   -0.0569 C   0  0  0  0  0  0  0  0  0  0  0  0
   -5.6740   -2.0376    0.0563 C   0  0  0  0  0  0  0  0  0  0  0  0
    6.4894   -0.4810   -0.2354 C   0  0  0  0  0  0  0  0  0  0  0  0
   -0.7448   -1.0475    0.1611 C   0  0  0  0  0  0  0  0  0  0  0  0
    1.4769   -0.7433    0.0713 C   0  0  0  0  0  0  0  0  0  0  0  0
   -2.9387    4.3602   -1.7157 C   0  0  0  0  0  0  0  0  0  0  0  0
   -6.6734   -3.0360   -0.5071 C   0  0  0  0  0  0  0  0  0  0  0  0
    7.6980   -1.3008   -0.6601 C   0  0  0  0  0  0  0  0  0  0  0  0
  1 13  1  0
  1 17  1  0
  2 14  1  0
  2 18  1  0
  3 10  2  0
  3 18  1  0
  4 10  1  0
  4 17  2  0
  5 17  1  0
  5 18  2  0
  6  7  1  0
  6  8  1  0
  7  9  1  0
  8 10  1  0
  9 19  1  0
 11 13  1  0
 11 15  1  0
 12 14  1  0
 12 16  1  0
 15 20  1  0
 16 21  1  0
M  END
>  <PUBCHEM_COMPOUND_CID>  (1) 
33430

>  <PUBCHEM_CONFORMER_RMSD>  (1) 
1

>  <PUBCHEM_CONFORMER_DIVERSEORDER>  (1) 
1
161
12
178
181
84
142
104
89
137
111
158
57
144
109
177
38
139
125
145
180
20
124
151
103
81
76
165
126
153
33
59
156
73
113
110
88
75
68
93
43
147
42
99
30
112
149
107
87
65
146
40
85
118
102
166
31
58
24
143
61
127
13
44
120
23
171
4
114
136
130
168
97
170
179
155
100
49
121
133
90
159
95
67
79
2
169
116
74
25
119
47
138
77
128
16
78
154
105
63
157
52
92
117
123
135
29
72
66
167
148
86
60
45
35
50
5
51
46
115
174
129
94
163
26
11
141
96
91
21
10
83
140
106
176
70
27
101
173
162
36
9
56
41
6
98
39
132
18
48
7
150
71
37
53
164
122
55
32
131
134
82
54
69
152
172
8
62
22
108
34
64
19
80
175
17
3
160
14
15
28

>  <PUBCHEM_MMFF94_PARTIAL_CHARGES>  (1) 
13
1 -0.87
10 0.48
13 0.37
14 0.37
17 0.72
18 0.72
2 -0.87
3 -0.62
4 -0.62
42 0.4
43 0.4
5 -0.62
8 0.14

>  <PUBCHEM_EFFECTIVE_ROTOR_COUNT>  (1) 
12

>  <PUBCHEM_PHARMACOPHORE_FEATURES>  (1) 
9
1 1 donor
1 19 hydrophobe
1 2 donor
1 20 hydrophobe
1 21 hydrophobe
4 1 4 5 17 cation
4 2 3 5 18 cation
4 6 7 8 9 hydrophobe
6 3 4 5 10 17 18 rings

>  <PUBCHEM_HEAVY_ATOM_COUNT>  (1) 
21

>  <PUBCHEM_ATOM_DEF_STEREO_COUNT>  (1) 
0

>  <PUBCHEM_ATOM_UDEF_STEREO_COUNT>  (1) 
0

>  <PUBCHEM_BOND_DEF_STEREO_COUNT>  (1) 
0

>  <PUBCHEM_BOND_UDEF_STEREO_COUNT>  (1) 
0

>  <PUBCHEM_ISOTOPIC_ATOM_COUNT>  (1) 
0

>  <PUBCHEM_COMPONENT_COUNT>  (1) 
1

>  <PUBCHEM_CACTVS_TAUTO_COUNT>  (1) 
10

>  <PUBCHEM_CONFORMER_ID>  (1) 
0000829600000001

>  <PUBCHEM_MMFF94_ENERGY>  (1) 
27.3194

>  <PUBCHEM_FEATURE_SELFOVERLAP>  (1) 
45.715

>  <PUBCHEM_SHAPE_FINGERPRINT>  (1) 
10411042 1 18342459282787008771
10688039 33 18409448115520421711
11045515 52 18411139177088415506
12788726 201 18260824878168306530
14508225 48 18411135870006074933
14556957 393 18115326547788518956
16087824 20 18340209567251475569
18006028 8 18273217529707366890
19427546 20 18336551512901761028
20238998 120 18201721777457806625
20642791 105 18337382730828485442
21049683 271 18268716189095078944
21267235 1 18130514122988083714
21285901 2 18059872657071770654
21365058 113 18189054373288136733
21641784 216 18263383480496703188
22182313 1 17987209232395833520
23419403 2 17489006232683316304
23559900 14 18053377984190325315
266924 1 17969215647340117938
283562 15 18339648849815839562
4409770 3 18266456516912405629
57262259 84 18412546487669031989
5969126 39 18410294709203283806
68521 5 18411421695926879906

>  <PUBCHEM_SHAPE_MULTIPOLES>  (1) 
407.27
14.54
5.5
1.14
17.23
8.47
0.07
-18.51
-5.24
-10
-2.06
-0.32
1.19
1.44

>  <PUBCHEM_SHAPE_SELFOVERLAP>  (1) 
783.516

>  <PUBCHEM_SHAPE_VOLUME>  (1) 
240.3

>  <PUBCHEM_COORDINATE_TYPE>  (1) 
2
5
10

$$$$
