33444
     RDKit          3D

 15 15  0  0  0  0  0  0  0  0999 V2000
    2.3417    0.0570    0.0812 N   0  0  0  0  0  0  0  0  0  0  0  0
   -2.3442    0.1595   -0.0821 N   0  0  0  0  0  0  0  0  0  0  0  0
   -0.0007    0.1399    0.0013 N   0  0  0  0  0  0  0  0  0  0  0  0
   -1.2449   -1.9114   -0.0423 N   0  0  0  0  0  0  0  0  0  0  0  0
    1.1527   -1.9638    0.0412 N   0  0  0  0  0  0  0  0  0  0  0  0
    2.4521    1.5150    0.0833 C   0  0  0  0  0  0  0  0  0  0  0  0
   -2.3841    1.5883   -0.0816 C   0  0  0  0  0  0  0  0  0  0  0  0
    2.2709    2.0614   -1.3300 C   0  0  0  0  0  0  0  0  0  0  0  0
    3.8054    1.9208    0.6584 C   0  0  0  0  0  0  0  0  0  0  0  0
   -2.1814    2.1228    1.3334 C   0  0  0  0  0  0  0  0  0  0  0  0
   -3.7147    2.0594   -0.6599 C   0  0  0  0  0  0  0  0  0  0  0  0
    1.1362   -0.6044    0.0410 C   0  0  0  0  0  0  0  0  0  0  0  0
   -1.1379   -0.5729   -0.0383 C   0  0  0  0  0  0  0  0  0  0  0  0
   -0.0592   -2.5405   -0.0011 C   0  0  0  0  0  0  0  0  0  0  0  0
   -0.0918   -4.0310   -0.0043 C   0  0  0  0  0  0  0  0  0  0  0  0
  1  6  1  0
  1 12  1  0
  2  7  1  0
  2 13  1  0
  3 12  2  0
  3 13  1  0
  4 13  2  0
  4 14  1  0
  5 12  1  0
  5 14  2  0
  6  8  1  0
  6  9  1  0
  7 10  1  0
  7 11  1  0
 14 15  1  0
M  END
>  <PUBCHEM_COMPOUND_CID>  (1) 
33444

>  <PUBCHEM_CONFORMER_RMSD>  (1) 
0.6

>  <PUBCHEM_CONFORMER_DIVERSEORDER>  (1) 
1
43
44
45
27
33
32
41
3
40
37
34
42
46
16
29
6
23
38
5
8
19
15
25
17
35
20
12
30
28
24
26
7
31
18
4
14
9
22
10
21
11
39
13
2
36

>  <PUBCHEM_MMFF94_PARTIAL_CHARGES>  (1) 
13
1 -0.87
12 0.72
13 0.72
14 0.48
15 0.14
18 0.4
19 0.4
2 -0.87
3 -0.62
4 -0.62
5 -0.62
6 0.37
7 0.37

>  <PUBCHEM_EFFECTIVE_ROTOR_COUNT>  (1) 
4

>  <PUBCHEM_PHARMACOPHORE_FEATURES>  (1) 
7
1 1 donor
1 2 donor
3 6 8 9 hydrophobe
3 7 10 11 hydrophobe
4 1 3 5 12 cation
4 2 3 4 13 cation
6 3 4 5 12 13 14 rings

>  <PUBCHEM_HEAVY_ATOM_COUNT>  (1) 
15

>  <PUBCHEM_ATOM_DEF_STEREO_COUNT>  (1) 
0

>  <PUBCHEM_ATOM_UDEF_STEREO_COUNT>  (1) 
0

>  <PUBCHEM_BOND_DEF_STEREO_COUNT>  (1) 
0

>  <PUBCHEM_BOND_UDEF_STEREO_COUNT>  (1) 
0

>  <PUBCHEM_ISOTOPIC_ATOM_COUNT>  (1) 
0

>  <PUBCHEM_COMPONENT_COUNT>  (1) 
1

>  <PUBCHEM_CACTVS_TAUTO_COUNT>  (1) 
5

>  <PUBCHEM_CONFORMER_ID>  (1) 
000082A400000001

>  <PUBCHEM_MMFF94_ENERGY>  (1) 
35.7342

>  <PUBCHEM_FEATURE_SELFOVERLAP>  (1) 
35.562

>  <PUBCHEM_SHAPE_FINGERPRINT>  (1) 
1 1 18266739086646659167
12403259 327 16081092554231468769
13618510 140 18411139104079778828
14648413 74 18119534236943313235
15042514 8 17976824507916573930
16945 1 18050009088603614566
17134986 127 18335427841645413780
1741750 31 18341613758651340544
20510252 161 18197781204865947457
20671657 1 18125162636712573999
21041028 32 16898231737509428225
21524375 3 18408038507042884386
21639500 275 18049148982969463725
2255824 54 18053383197805310031
23402539 116 17911512413462139751
23557571 272 17840879791099843948
23558518 356 18261671588221583898
2748010 2 18336841830651833095
305870 269 18408881811276793472
3060560 45 18266737970113573982
3071541 12 18124878962670617450
3091708 16 9337366649427994538
31174 14 17759834471368139721
350125 39 18337969938135098475
4175511 71 17261042017485130803
6992083 37 18041830839854904884
7364860 26 18124030126766692631
81228 2 17907874137938236530
84936 182 18128807547766095649

>  <PUBCHEM_SHAPE_MULTIPOLES>  (1) 
283.79
5.16
4.26
0.91
0.46
4.36
0
-6.28
0
-0.35
0.01
0.01
-0.67
-0.14

>  <PUBCHEM_SHAPE_SELFOVERLAP>  (1) 
560.139

>  <PUBCHEM_SHAPE_VOLUME>  (1) 
162.4

>  <PUBCHEM_COORDINATE_TYPE>  (1) 
2
5
10

$$$$
