33445
     RDKit          3D

 18 18  0  0  0  0  0  0  0  0999 V2000
    0.7413   -3.1436    1.5076 Cl  0  0  0  0  0  0  0  0  0  0  0  0
   -1.6509   -3.2713   -0.0949 Cl  0  0  0  0  0  0  0  0  0  0  0  0
    0.9119   -3.1330   -1.4141 Cl  0  0  0  0  0  0  0  0  0  0  0  0
    2.3401    1.6354    0.1297 N   0  0  0  0  0  0  0  0  0  0  0  0
   -2.3425    1.6575   -0.1288 N   0  0  0  0  0  0  0  0  0  0  0  0
   -0.0013    1.6781    0.0022 N   0  0  0  0  0  0  0  0  0  0  0  0
   -1.2089   -0.3943   -0.0646 N   0  0  0  0  0  0  0  0  0  0  0  0
    1.1870   -0.4055    0.0677 N   0  0  0  0  0  0  0  0  0  0  0  0
    3.6311    0.9859    0.2006 C   0  0  0  0  0  0  0  0  0  0  0  0
   -3.6153    1.0110   -0.2028 C   0  0  0  0  0  0  0  0  0  0  0  0
    4.6522    1.9600    0.7731 C   0  0  0  0  0  0  0  0  0  0  0  0
    4.0373    0.5083   -1.1875 C   0  0  0  0  0  0  0  0  0  0  0  0
   -4.6383    1.9812   -0.7785 C   0  0  0  0  0  0  0  0  0  0  0  0
   -4.0239    0.5320    1.1842 C   0  0  0  0  0  0  0  0  0  0  0  0
    1.1399    0.9492    0.0652 C   0  0  0  0  0  0  0  0  0  0  0  0
   -1.1251    0.9459   -0.0597 C   0  0  0  0  0  0  0  0  0  0  0  0
   -0.0138   -1.0029    0.0015 C   0  0  0  0  0  0  0  0  0  0  0  0
   -0.0208   -2.4938   -0.0009 C   0  0  0  0  0  0  0  0  0  0  0  0
  1 18  1  0
  2 18  1  0
  3 18  1  0
  4  9  1  0
  4 15  1  0
  5 10  1  0
  5 16  1  0
  6 15  2  0
  6 16  1  0
  7 16  2  0
  7 17  1  0
  8 15  1  0
  8 17  2  0
  9 11  1  0
  9 12  1  0
 10 13  1  0
 10 14  1  0
 17 18  1  0
M  END
>  <PUBCHEM_COMPOUND_CID>  (1) 
33445

>  <PUBCHEM_CONFORMER_RMSD>  (1) 
0.6

>  <PUBCHEM_CONFORMER_DIVERSEORDER>  (1) 
1
67
4
55
46
56
40
57
20
45
77
37
68
27
47
51
29
5
75
59
3
52
11
54
73
17
62
41
71
19
23
9
74
58
64
39
38
50
43
69
78
70
26
32
35
42
22
48
44
25
60
65
6
24
14
15
21
8
33
63
30
34
28
76
31
79
36
16
12
61
66
13
53
7
2
49
10
72
18

>  <PUBCHEM_MMFF94_PARTIAL_CHARGES>  (1) 
16
1 -0.29
10 0.37
15 0.72
16 0.72
17 0.48
18 1.01
2 -0.29
21 0.4
22 0.4
3 -0.29
4 -0.87
5 -0.87
6 -0.62
7 -0.62
8 -0.62
9 0.37

>  <PUBCHEM_EFFECTIVE_ROTOR_COUNT>  (1) 
5

>  <PUBCHEM_PHARMACOPHORE_FEATURES>  (1) 
7
1 4 donor
1 5 donor
3 10 13 14 hydrophobe
3 9 11 12 hydrophobe
4 4 6 8 15 cation
4 5 6 7 16 cation
6 6 7 8 15 16 17 rings

>  <PUBCHEM_HEAVY_ATOM_COUNT>  (1) 
18

>  <PUBCHEM_ATOM_DEF_STEREO_COUNT>  (1) 
0

>  <PUBCHEM_ATOM_UDEF_STEREO_COUNT>  (1) 
0

>  <PUBCHEM_BOND_DEF_STEREO_COUNT>  (1) 
0

>  <PUBCHEM_BOND_UDEF_STEREO_COUNT>  (1) 
0

>  <PUBCHEM_ISOTOPIC_ATOM_COUNT>  (1) 
0

>  <PUBCHEM_COMPONENT_COUNT>  (1) 
1

>  <PUBCHEM_CACTVS_TAUTO_COUNT>  (1) 
5

>  <PUBCHEM_CONFORMER_ID>  (1) 
000082A500000001

>  <PUBCHEM_MMFF94_ENERGY>  (1) 
40.0154

>  <PUBCHEM_FEATURE_SELFOVERLAP>  (1) 
35.563

>  <PUBCHEM_SHAPE_FINGERPRINT>  (1) 
10922049 32 18410018736095510080
1100329 8 18264199223783386322
11322862 65 18338520836758245806
116883 192 17908707580869140294
12500047 106 18270676605975602472
12532896 13 18337105761093217418
12592029 89 18334014947718036952
12730499 353 18335988546011544237
12788726 201 17830456442279787650
13052359 8 18335979891024455075
13140716 1 18408879616622702810
13380535 76 18412262835011741151
13544592 145 18271818912752299252
13583140 156 16878489241702378193
14123255 52 18410569582878992749
15042514 8 18264208178472940162
15309172 13 18409169917662202561
16752209 62 18194112139128389122
19591789 44 18409452449031958874
204376 136 18410575102012201489
20645476 183 17822587113153312940
20645477 56 18338233877319872424
20645477 70 18195240023768876789
20871999 31 18193003836092766852
21285901 2 17768832087923485814
21524375 3 18411134757561747616
22182313 1 18264511549620557267
22224240 67 18340775931323589217
2255824 54 18051689941530256895
23366157 5 17753620030998998752
23402539 116 17912359037647700775
23419403 2 17616868366799912266
23526113 38 17560806545738241024
23557571 272 18053674852382435676
23558518 356 17903348552610927344
23559900 14 17832411009018818825
2748010 2 18263946374778975187
3071541 37 18262519165356582533
3091708 16 9337648128820933291
33824 294 18336828585568628753
352729 6 18339652246776001253
3759504 43 18041286555517706234
43471831 8 18335701581248809072
474229 33 18338234976809673723
53917941 68 18267844233503954637
559249 180 18409725201905634738
58779409 8 18409733997059959335
6138700 20 18195252105686382526
633830 44 18131356271527481181
7364860 26 18125439713532023191
81228 2 17832413576865955897
81539 233 18261392191823798045
8272917 22 18196933263054283005
9709674 26 18128539456524098956
9841814 1 17757834420803955579
9862522 239 18340209712330661371

>  <PUBCHEM_SHAPE_MULTIPOLES>  (1) 
351.14
7.6
4.04
1.12
0.08
4.42
0.04
-8.28
-0.05
0.15
0
-0.22
0.61
0.69

>  <PUBCHEM_SHAPE_SELFOVERLAP>  (1) 
673.036

>  <PUBCHEM_SHAPE_VOLUME>  (1) 
212.4

>  <PUBCHEM_COORDINATE_TYPE>  (1) 
2
5
10

$$$$
