3344
     RDKit          3D

 19 21  0  0  0  0  0  0  0  0999 V2000
   -3.3256   -0.9004   -0.0396 O   0  0  0  0  0  0  0  0  0  0  0  0
   -5.1750   -2.0803   -0.7000 O   0  0  0  0  0  0  0  0  0  0  0  0
   -0.1615    0.7724   -0.1552 N   0  0  0  0  0  0  0  0  0  0  0  0
   -5.3184    0.1127    0.0607 N   0  0  0  0  0  0  0  0  0  0  0  0
   -3.0543    0.4893    0.2650 C   0  0  0  0  0  0  0  0  0  0  0  0
   -2.0571    0.5619    1.4244 C   0  0  0  0  0  0  0  0  0  0  0  0
   -2.4612    1.1574   -0.9846 C   0  0  0  0  0  0  0  0  0  0  0  0
   -0.6717    0.0491    1.0169 C   0  0  0  0  0  0  0  0  0  0  0  0
   -1.0624    0.6200   -1.3052 C   0  0  0  0  0  0  0  0  0  0  0  0
   -4.4172    1.0586    0.6341 C   0  0  0  0  0  0  0  0  0  0  0  0
    1.1843    0.3108   -0.4951 C   0  0  0  0  0  0  0  0  0  0  0  0
   -4.6683   -1.0525   -0.2739 C   0  0  0  0  0  0  0  0  0  0  0  0
    2.1622    0.5840    0.6483 C   0  0  0  0  0  0  0  0  0  0  0  0
    3.5587    0.1329    0.3017 C   0  0  0  0  0  0  0  0  0  0  0  0
    3.9521   -1.1611    0.6081 C   0  0  0  0  0  0  0  0  0  0  0  0
    4.4266    1.0193   -0.3181 C   0  0  0  0  0  0  0  0  0  0  0  0
    5.2438   -1.5786    0.2874 C   0  0  0  0  0  0  0  0  0  0  0  0
    5.7183    0.6017   -0.6390 C   0  0  0  0  0  0  0  0  0  0  0  0
    6.1268   -0.6973   -0.3361 C   0  0  0  0  0  0  0  0  0  0  0  0
  1  5  1  0
  1 12  1  0
  2 12  2  0
  3  8  1  0
  3  9  1  0
  3 11  1  0
  4 10  1  0
  4 12  1  0
  5  6  1  0
  5  7  1  0
  5 10  1  0
  6  8  1  0
  7  9  1  0
 11 13  1  0
 13 14  1  0
 14 15  2  0
 14 16  1  0
 15 17  1  0
 16 18  2  0
 17 19  2  0
 18 19  1  0
M  END
>  <PUBCHEM_COMPOUND_CID>  (1) 
3344

>  <PUBCHEM_CONFORMER_RMSD>  (1) 
0.6

>  <PUBCHEM_CONFORMER_DIVERSEORDER>  (1) 
1
28
18
27
3
13
24
2
14
25
29
30
23
21
6
12
17
19
10
22
9
4
26
5
11
16
20
15
8
7

>  <PUBCHEM_MMFF94_PARTIAL_CHARGES>  (1) 
23
1 -0.43
10 0.3
11 0.27
12 0.78
13 0.14
14 -0.14
15 -0.15
16 -0.15
17 -0.15
18 -0.15
19 -0.15
2 -0.57
3 -0.81
32 0.37
35 0.15
36 0.15
37 0.15
38 0.15
39 0.15
4 -0.73
5 0.28
8 0.27
9 0.27

>  <PUBCHEM_EFFECTIVE_ROTOR_COUNT>  (1) 
4.6

>  <PUBCHEM_PHARMACOPHORE_FEATURES>  (1) 
6
1 2 acceptor
1 3 cation
1 4 donor
5 1 4 5 10 12 rings
6 14 15 16 17 18 19 rings
6 3 5 6 7 8 9 rings

>  <PUBCHEM_HEAVY_ATOM_COUNT>  (1) 
19

>  <PUBCHEM_ATOM_DEF_STEREO_COUNT>  (1) 
0

>  <PUBCHEM_ATOM_UDEF_STEREO_COUNT>  (1) 
0

>  <PUBCHEM_BOND_DEF_STEREO_COUNT>  (1) 
0

>  <PUBCHEM_BOND_UDEF_STEREO_COUNT>  (1) 
0

>  <PUBCHEM_ISOTOPIC_ATOM_COUNT>  (1) 
0

>  <PUBCHEM_COMPONENT_COUNT>  (1) 
1

>  <PUBCHEM_CACTVS_TAUTO_COUNT>  (1) 
2

>  <PUBCHEM_CONFORMER_ID>  (1) 
00000D1000000001

>  <PUBCHEM_MMFF94_ENERGY>  (1) 
40.3465

>  <PUBCHEM_FEATURE_SELFOVERLAP>  (1) 
30.454

>  <PUBCHEM_SHAPE_FINGERPRINT>  (1) 
10 15 16200421469521044546
10366900 7 17385724699235018200
10595046 47 18409450293311758648
10670039 82 14563092456392070006
10912923 1 18412831270050057824
10968037 39 16588030120909987829
11045515 52 18333731295193881164
11089746 13 9583514305175265790
11315181 36 18272936033097129281
11524674 6 16774078488427066623
12107183 9 17619352000695346248
12236239 1 18202567276451294560
12516196 113 18409448094425770168
12596602 18 17989204858995483226
13167823 11 18412542115397508434
13288520 33 18412263948088739765
13668630 136 18273220777214014694
13675066 3 16057160609762718296
1420 363 16950289494253078808
14251718 22 18412265056063727576
14461889 52 18268704095221470234
14528608 73 18187085066110529930
15348495 7 14979665641476276966
15880784 105 18410857672205170040
17834072 33 18410294718257494080
17844677 252 18334862684480027628
17857418 61 18408318878587819322
17959699 21 7925908179926589926
18222031 100 18040146344753778068
19489759 90 17561083579729336737
200 152 18408041809883434081
20645477 70 18188771644308011090
21150785 3 16950567722055256434
21267235 1 18114186371890398907
21637258 2 18059563733338573575
220451 1 18411989048121442458
221357 26 17967812730616812732
22224240 67 13614526277470518647
22950370 63 18411982451320986804
23035841 295 18342177765250904827
23402539 116 17821445751232524301
23522609 53 18194994939486491368
23536379 177 18410857637845613520
23557571 272 16878225260496268732
23559900 14 18269828869430467857
26918003 58 17775566429424082113
2838139 119 7781530178818582835
2871803 45 17095522864659380106
3004659 81 18408042884543110410
34797466 226 13623825894593273146
351380 3 18131630088898717158
3545911 37 13542464255099989252
4214541 1 18410855425837411017
4325135 7 18040719177964712654
465052 167 17988928881656123510
5104073 3 17489870479119361667
542803 24 18131915944779057944
57483677 66 18411418410408741162
7495541 125 18130504219162173408

>  <PUBCHEM_SHAPE_MULTIPOLES>  (1) 
369.31
15.2
1.42
1.07
7.19
0.53
-0.07
4.39
1.55
-0.35
0.21
-0.51
-0.13
-0.85

>  <PUBCHEM_SHAPE_SELFOVERLAP>  (1) 
782.628

>  <PUBCHEM_SHAPE_VOLUME>  (1) 
206.8

>  <PUBCHEM_COORDINATE_TYPE>  (1) 
2
5
10

$$$$
