33441
     RDKit          3D

 24 25  0  0  1  0  0  0  0  0999 V2000
    4.5723    1.8454   -0.0510 O   0  0  0  0  0  0  0  0  0  0  0  0
   -4.6797    1.8737   -0.1772 O   0  0  0  0  0  0  0  0  0  0  0  0
    1.9410   -3.3395    1.4183 O   0  0  0  0  0  0  0  0  0  0  0  0
    1.5448   -3.6943   -0.7198 O   0  0  0  0  0  0  0  0  0  0  0  0
    1.2516   -3.2474    0.3957 N   0  0  0  0  0  0  0  0  0  0  0  0
   -0.0588   -1.3512   -0.4579 C   0  0  0  0  0  0  0  0  0  0  0  0
   -0.0591   -2.5557    0.5208 C   0  0  0  0  0  0  0  0  0  0  0  0
    1.1945   -0.4857   -0.3479 C   0  0  0  0  0  0  0  0  0  0  0  0
   -1.3120   -0.4772   -0.3819 C   0  0  0  0  0  0  0  0  0  0  0  0
   -1.1152   -3.6108    0.2040 C   0  0  0  0  0  0  0  0  0  0  0  0
    1.4288    0.1922    0.8278 C   0  0  0  0  0  0  0  0  0  0  0  0
   -1.9230   -0.3068    0.8392 C   0  0  0  0  0  0  0  0  0  0  0  0
    2.0462   -0.4144   -1.4277 C   0  0  0  0  0  0  0  0  0  0  0  0
   -1.7799    0.1059   -1.5370 C   0  0  0  0  0  0  0  0  0  0  0  0
    2.5739    0.9823    0.9289 C   0  0  0  0  0  0  0  0  0  0  0  0
   -3.0652    0.4908    0.9090 C   0  0  0  0  0  0  0  0  0  0  0  0
    3.1914    0.3756   -1.3266 C   0  0  0  0  0  0  0  0  0  0  0  0
   -2.9221    0.9036   -1.4671 C   0  0  0  0  0  0  0  0  0  0  0  0
    3.4552    1.0740   -0.1483 C   0  0  0  0  0  0  0  0  0  0  0  0
   -3.5648    1.0960   -0.2442 C   0  0  0  0  0  0  0  0  0  0  0  0
    4.5001    2.9882    0.8002 C   0  0  0  0  0  0  0  0  0  0  0  0
   -5.6396    1.5476    0.8268 C   0  0  0  0  0  0  0  0  0  0  0  0
    5.4353    4.0554    0.2730 C   0  0  0  0  0  0  0  0  0  0  0  0
   -7.0159    1.9520    0.3432 C   0  0  0  0  0  0  0  0  0  0  0  0
  1 19  1  0
  1 21  1  0
  2 20  1  0
  2 22  1  0
  3  5  1  0
  4  5  2  0
  5  7  1  0
  6  7  1  0
  6  8  1  0
  6  9  1  0
  7 10  1  0
  8 11  2  0
  8 13  1  0
  9 12  2  0
  9 14  1  0
 11 15  1  0
 12 16  1  0
 13 17  2  0
 14 18  2  0
 15 19  2  0
 16 20  2  0
 17 19  1  0
 18 20  1  0
 21 23  1  0
 22 24  1  0
M  CHG  2   3  -1   5   1
M  END
>  <PUBCHEM_COMPOUND_CID>  (1) 
33441

>  <PUBCHEM_CONFORMER_RMSD>  (1) 
0.8

>  <PUBCHEM_CONFORMER_DIVERSEORDER>  (1) 
1
14
17
21
11
19
18
15
7
22
23
13
12
20
24
8
9
5
10
16
4
6
3
2

>  <PUBCHEM_MMFF94_PARTIAL_CHARGES>  (1) 
29
1 -0.36
11 -0.15
12 -0.15
13 -0.15
14 -0.15
15 -0.15
16 -0.15
17 -0.15
18 -0.15
19 0.08
2 -0.36
20 0.08
21 0.28
22 0.28
3 -0.52
30 0.15
31 0.15
32 0.15
33 0.15
34 0.15
35 0.15
36 0.15
37 0.15
4 -0.52
5 0.8
6 0.29
7 0.24
8 -0.14
9 -0.14

>  <PUBCHEM_EFFECTIVE_ROTOR_COUNT>  (1) 
8

>  <PUBCHEM_PHARMACOPHORE_FEATURES>  (1) 
7
1 1 acceptor
1 2 acceptor
1 3 acceptor
1 3 anion
1 4 acceptor
6 8 11 13 15 17 19 rings
6 9 12 14 16 18 20 rings

>  <PUBCHEM_HEAVY_ATOM_COUNT>  (1) 
24

>  <PUBCHEM_ATOM_DEF_STEREO_COUNT>  (1) 
0

>  <PUBCHEM_ATOM_UDEF_STEREO_COUNT>  (1) 
1

>  <PUBCHEM_BOND_DEF_STEREO_COUNT>  (1) 
0

>  <PUBCHEM_BOND_UDEF_STEREO_COUNT>  (1) 
0

>  <PUBCHEM_ISOTOPIC_ATOM_COUNT>  (1) 
0

>  <PUBCHEM_COMPONENT_COUNT>  (1) 
1

>  <PUBCHEM_CACTVS_TAUTO_COUNT>  (1) 
2

>  <PUBCHEM_CONFORMER_ID>  (1) 
000082A100000001

>  <PUBCHEM_MMFF94_ENERGY>  (1) 
78.493

>  <PUBCHEM_FEATURE_SELFOVERLAP>  (1) 
35.602

>  <PUBCHEM_SHAPE_FINGERPRINT>  (1) 
10165383 225 18261407610809177700
12107183 9 18335686262155597112
12363563 72 9799695912898476508
12390115 104 18266750258226185836
12403259 415 18339940306185197740
12730499 353 18337685122311758403
12788726 201 17762037136513644450
13134695 92 17687445889327259190
13140716 1 18334853927041626522
13878862 14 17974553712195911389
13955234 65 18263648355540871955
13965767 371 18041268929146334836
14142880 1 18191298488804221959
14251764 75 18337389447736168216
14565420 104 18408886230919694521
14849402 71 18267026059492732144
15338160 23 17902798796786639152
17980427 26 18341881988228342974
1813 80 17339005131194376462
18222031 100 10737289013055887169
18785283 64 18190177893055480035
19784866 34 18413105082457147328
20600515 1 16821891000041247786
21033648 29 18336829809677214160
21401589 2 18270684306234721144
21756936 100 18198054979399209032
22149856 69 17898600617781409321
23557571 272 17908435993498190076
23558518 356 18118404170992592102
23559900 14 17678476168689982615
23845131 108 18334857234245513955
270888 7 18341893043021273928
283562 15 17976811305081773139
3246875 12 18339645654808135305
350125 39 18262243218272339719
4340502 62 18337399257952577443
474 4 18343300370601612433
495365 180 18190464870344245723
5104073 3 18043515317791994008
5895379 119 16839387043390429857
59755656 520 18410291427938200758
621550 34 18115025191571841589
633830 44 18344142596708663620
6442390 28 18408895052882844343
77188 2 17690561884159019386
7808743 9 18265893742884299800
7970288 3 9223237346718459377
81228 2 17758967308543908754

>  <PUBCHEM_SHAPE_MULTIPOLES>  (1) 
465.45
11.38
4.52
1.29
9.08
2.83
-0.27
-17.71
1.77
-4.09
1.21
-0.04
0.11
0.31

>  <PUBCHEM_SHAPE_SELFOVERLAP>  (1) 
976.378

>  <PUBCHEM_SHAPE_VOLUME>  (1) 
264

>  <PUBCHEM_COORDINATE_TYPE>  (1) 
2
5
10

$$$$
