33462
     RDKit          3D

 11 12  0  0  0  0  0  0  0  0999 V2000
   -1.5588    1.5470   -0.0001 S   0  0  0  0  0  0  0  0  0  0  0  0
    3.5789    0.6883    0.0000 O   0  0  0  0  0  0  0  0  0  0  0  0
   -1.6991   -1.0283    0.0000 N   0  0  0  0  0  0  0  0  0  0  0  0
   -3.7788    0.0909    0.0001 N   0  0  0  0  0  0  0  0  0  0  0  0
   -0.0737    0.6709   -0.0001 C   0  0  0  0  0  0  0  0  0  0  0  0
   -0.3515   -0.6994   -0.0001 C   0  0  0  0  0  0  0  0  0  0  0  0
    1.2421    1.1608    0.0000 C   0  0  0  0  0  0  0  0  0  0  0  0
    0.7279   -1.6095   -0.0001 C   0  0  0  0  0  0  0  0  0  0  0  0
    2.2920    0.2389    0.0001 C   0  0  0  0  0  0  0  0  0  0  0  0
    2.0405   -1.1287    0.0000 C   0  0  0  0  0  0  0  0  0  0  0  0
   -2.4195    0.0690    0.0001 C   0  0  0  0  0  0  0  0  0  0  0  0
  1  5  1  0
  1 11  1  0
  2  9  1  0
  3  6  1  0
  3 11  2  0
  4 11  1  0
  5  6  2  0
  5  7  1  0
  6  8  1  0
  7  9  2  0
  8 10  2  0
  9 10  1  0
M  END
>  <PUBCHEM_COMPOUND_CID>  (1) 
33462

>  <PUBCHEM_CONFORMER_RMSD>  (1) 
0.4

>  <PUBCHEM_CONFORMER_DIVERSEORDER>  (1) 
1

>  <PUBCHEM_MMFF94_PARTIAL_CHARGES>  (1) 
17
1 -0.08
10 -0.15
11 0.46
12 0.15
13 0.15
14 0.15
15 0.4
16 0.4
17 0.45
2 -0.53
3 -0.57
4 -0.88
5 0.04
6 0.23
7 -0.15
8 -0.15
9 0.08

>  <PUBCHEM_EFFECTIVE_ROTOR_COUNT>  (1) 
0

>  <PUBCHEM_PHARMACOPHORE_FEATURES>  (1) 
5
1 2 donor
1 4 donor
3 3 4 11 cation
5 1 3 5 6 11 rings
6 5 6 7 8 9 10 rings

>  <PUBCHEM_HEAVY_ATOM_COUNT>  (1) 
11

>  <PUBCHEM_ATOM_DEF_STEREO_COUNT>  (1) 
0

>  <PUBCHEM_ATOM_UDEF_STEREO_COUNT>  (1) 
0

>  <PUBCHEM_BOND_DEF_STEREO_COUNT>  (1) 
0

>  <PUBCHEM_BOND_UDEF_STEREO_COUNT>  (1) 
0

>  <PUBCHEM_ISOTOPIC_ATOM_COUNT>  (1) 
0

>  <PUBCHEM_COMPONENT_COUNT>  (1) 
1

>  <PUBCHEM_CACTVS_TAUTO_COUNT>  (1) 
6

>  <PUBCHEM_CONFORMER_ID>  (1) 
000082B600000001

>  <PUBCHEM_MMFF94_ENERGY>  (1) 
20.7857

>  <PUBCHEM_FEATURE_SELFOVERLAP>  (1) 
25.443

>  <PUBCHEM_SHAPE_FINGERPRINT>  (1) 
10219947 1 18333452044893256245
11471102 20 18410569557504457757
12897270 3 18411138038927324341
12932764 1 17131537371694519397
13380535 76 18409729573191045898
14325111 11 18410573946539183841
15775835 57 18343585156908054221
16945 1 18410575097553268549
17844478 74 18113909238656164881
193761 8 17834114143539421412
19973954 147 18195247723964756189
20201158 50 18408885135486463531
20645477 70 18339355246141492319
21040471 1 18410574032754904454
21501502 16 18266459797871722481
23235685 24 18409442609266931084
23402655 69 18341037529181195293
23463225 33 18334571296660203658
23552423 10 18190464861247798402
2748010 2 18194119612133821644
369184 2 18335137561953753083
5084963 1 18271807895380274609
528886 8 18411414042110477186
53812653 166 18271801363093850136
63268167 104 18412264999701664761
7364860 26 18270961216072801750

>  <PUBCHEM_SHAPE_MULTIPOLES>  (1) 
214.39
4.69
1.57
0.6
0.84
0.05
0
-0.54
0
-0.2
0
0
-0.01
0

>  <PUBCHEM_SHAPE_SELFOVERLAP>  (1) 
457.196

>  <PUBCHEM_SHAPE_VOLUME>  (1) 
121.4

>  <PUBCHEM_COORDINATE_TYPE>  (1) 
2
5
10

$$$$
