33467
     RDKit          3D

 14 14  0  0  0  0  0  0  0  0999 V2000
   -0.7138    0.9062   -0.4352 O   0  0  0  0  0  0  0  0  0  0  0  0
   -4.1661   -0.2869    0.0590 N   0  0  0  0  0  0  0  0  0  0  0  0
   -2.8159   -0.2333   -0.5005 C   0  0  0  0  0  0  0  0  0  0  0  0
   -2.0209    0.9023    0.1237 C   0  0  0  0  0  0  0  0  0  0  0  0
    1.4731    1.9161   -0.5165 C   0  0  0  0  0  0  0  0  0  0  0  0
    0.0832    1.9491    0.1092 C   0  0  0  0  0  0  0  0  0  0  0  0
    2.2016    0.6258   -0.2288 C   0  0  0  0  0  0  0  0  0  0  0  0
   -4.1115   -0.4605    1.5100 C   0  0  0  0  0  0  0  0  0  0  0  0
   -4.9321   -1.3697   -0.5570 C   0  0  0  0  0  0  0  0  0  0  0  0
    2.9928    0.5306    0.9052 C   0  0  0  0  0  0  0  0  0  0  0  0
    2.0660   -0.4408   -1.1035 C   0  0  0  0  0  0  0  0  0  0  0  0
    3.6659   -0.6619    1.1713 C   0  0  0  0  0  0  0  0  0  0  0  0
    2.7390   -1.6332   -0.8372 C   0  0  0  0  0  0  0  0  0  0  0  0
    3.5389   -1.7437    0.3002 C   0  0  0  0  0  0  0  0  0  0  0  0
  1  4  1  0
  1  6  1  0
  2  3  1  0
  2  8  1  0
  2  9  1  0
  3  4  1  0
  5  6  1  0
  5  7  1  0
  7 10  2  0
  7 11  1  0
 10 12  1  0
 11 13  2  0
 12 14  2  0
 13 14  1  0
M  END
>  <PUBCHEM_COMPOUND_CID>  (1) 
33467

>  <PUBCHEM_CONFORMER_RMSD>  (1) 
0.6

>  <PUBCHEM_CONFORMER_DIVERSEORDER>  (1) 
1
18
40
64
36
59
75
62
22
54
3
53
24
37
14
79
61
80
39
12
45
9
69
32
83
66
56
13
4
42
34
6
28
72
5
35
71
17
33
68
16
11
50
67
76
82
49
41
29
77
47
73
27
31
15
10
63
78
23
20
25
26
38
52
57
30
46
74
2
55
44
43
48
21
60
51
19
65
7
81
8
70
58

>  <PUBCHEM_MMFF94_PARTIAL_CHARGES>  (1) 
19
1 -0.56
10 -0.15
11 -0.15
12 -0.15
13 -0.15
14 -0.15
2 -0.81
29 0.15
3 0.27
30 0.15
31 0.15
32 0.15
33 0.15
4 0.28
5 0.14
6 0.28
7 -0.14
8 0.27
9 0.27

>  <PUBCHEM_EFFECTIVE_ROTOR_COUNT>  (1) 
6

>  <PUBCHEM_PHARMACOPHORE_FEATURES>  (1) 
3
1 1 acceptor
1 2 cation
6 7 10 11 12 13 14 rings

>  <PUBCHEM_HEAVY_ATOM_COUNT>  (1) 
14

>  <PUBCHEM_ATOM_DEF_STEREO_COUNT>  (1) 
0

>  <PUBCHEM_ATOM_UDEF_STEREO_COUNT>  (1) 
0

>  <PUBCHEM_BOND_DEF_STEREO_COUNT>  (1) 
0

>  <PUBCHEM_BOND_UDEF_STEREO_COUNT>  (1) 
0

>  <PUBCHEM_ISOTOPIC_ATOM_COUNT>  (1) 
0

>  <PUBCHEM_COMPONENT_COUNT>  (1) 
1

>  <PUBCHEM_CACTVS_TAUTO_COUNT>  (1) 
1

>  <PUBCHEM_CONFORMER_ID>  (1) 
000082BB00000001

>  <PUBCHEM_MMFF94_ENERGY>  (1) 
32.299

>  <PUBCHEM_FEATURE_SELFOVERLAP>  (1) 
15.223

>  <PUBCHEM_SHAPE_FINGERPRINT>  (1) 
10618630 7 18410293579658728436
11543360 7 14490485204675271883
122479 349 10807922786770065781
12346177 29 18262232193254626517
12363563 72 18260271823755750337
12400797 245 18271238331630807550
12616999 72 18114755926886291308
13296908 3 18410570648051838445
13464513 79 18342177769804360862
1420 369 18412263943583061683
14251710 61 18335424525766942138
14251717 144 18411417345336168063
14252887 29 18412825781034231168
14848160 33 18333449863260911895
15210252 30 9439402453878594854
15885798 251 18409453561882299129
17134986 127 8790876393980928376
1798214 55 9943518613653963010
18186145 218 16298389071809500293
193927 3 18260557688152224747
20281475 54 18410860979641432085
20432913 95 18413671322682253347
20645477 70 18261105331227123613
20671657 53 17821727225871871557
20767249 442 11023821764734228856
20871998 22 18411419475508143044
21501925 9 18411695487059541340
21503847 285 14836402562490776088
2255824 54 18124036994472861197
22646028 28 18334013869628465153
231179 274 11239996754777674862
23402655 69 11530487713903842930
23557571 272 16878490315370401981
251288 83 18272645753743221826
3060560 45 12396289361956519648
341906 21 15482404079518961393
4990 188 12540695903185667457
7808743 9 11455017283176512754
8988823 20 17417797487950971193
94968 8 18260834795394985106

>  <PUBCHEM_SHAPE_MULTIPOLES>  (1) 
277.26
9.54
1.95
1.16
10.59
0.29
-0.25
-5.48
-1.73
-1
0.26
-0.06
-0.22
-0.12

>  <PUBCHEM_SHAPE_SELFOVERLAP>  (1) 
547.923

>  <PUBCHEM_SHAPE_VOLUME>  (1) 
166.9

>  <PUBCHEM_COORDINATE_TYPE>  (1) 
2
5
10

$$$$
