33476
     RDKit          3D

 26 28  0  0  0  0  0  0  0  0999 V2000
   -1.4236    4.5138   -1.9966 Cl  0  0  0  0  0  0  0  0  0  0  0  0
   -0.9926   -2.7071   -0.8991 O   0  0  0  0  0  0  0  0  0  0  0  0
   -1.7954   -2.1211    2.6294 O   0  0  0  0  0  0  0  0  0  0  0  0
   -2.1393   -0.7397    0.7846 N   0  0  0  0  0  0  0  0  0  0  0  0
    0.2539    0.3137    2.3291 N   0  0  0  0  0  0  0  0  0  0  0  0
   -2.9440   -1.7534    0.1028 C   0  0  0  0  0  0  0  0  0  0  0  0
   -1.9131    0.5097    0.1100 C   0  0  0  0  0  0  0  0  0  0  0  0
   -0.7656    1.3025    0.3207 C   0  0  0  0  0  0  0  0  0  0  0  0
   -2.2799   -2.1819   -1.1959 C   0  0  0  0  0  0  0  0  0  0  0  0
    0.3816    0.8484    1.1619 C   0  0  0  0  0  0  0  0  0  0  0  0
   -1.6879   -1.0220    2.0792 C   0  0  0  0  0  0  0  0  0  0  0  0
   -1.0873    0.1312    2.8427 C   0  0  0  0  0  0  0  0  0  0  0  0
   -2.8644    0.9748   -0.8196 C   0  0  0  0  0  0  0  0  0  0  0  0
   -0.3168   -3.1274   -2.0765 C   0  0  0  0  0  0  0  0  0  0  0  0
    1.0490   -3.6769   -1.6900 C   0  0  0  0  0  0  0  0  0  0  0  0
   -0.6309    2.5471   -0.3212 C   0  0  0  0  0  0  0  0  0  0  0  0
    1.7678    0.9975    0.6321 C   0  0  0  0  0  0  0  0  0  0  0  0
    1.8952   -2.6293   -0.9721 C   0  0  0  0  0  0  0  0  0  0  0  0
   -2.7134    2.2027   -1.4688 C   0  0  0  0  0  0  0  0  0  0  0  0
   -1.6032    2.9944   -1.2103 C   0  0  0  0  0  0  0  0  0  0  0  0
    1.9895    0.9379   -0.7384 C   0  0  0  0  0  0  0  0  0  0  0  0
    2.8227    1.1943    1.5148 C   0  0  0  0  0  0  0  0  0  0  0  0
    3.2417   -3.1949   -0.5497 C   0  0  0  0  0  0  0  0  0  0  0  0
    3.2860    1.0771   -1.2338 C   0  0  0  0  0  0  0  0  0  0  0  0
    4.1192    1.3337    1.0195 C   0  0  0  0  0  0  0  0  0  0  0  0
    4.3508    1.2749   -0.3548 C   0  0  0  0  0  0  0  0  0  0  0  0
  1 20  1  0
  2  9  1  0
  2 14  1  0
  3 11  2  0
  4  6  1  0
  4  7  1  0
  4 11  1  0
  5 10  2  0
  5 12  1  0
  6  9  1  0
  7  8  2  0
  7 13  1  0
  8 10  1  0
  8 16  1  0
 10 17  1  0
 11 12  1  0
 13 19  2  0
 14 15  1  0
 15 18  1  0
 16 20  2  0
 17 21  2  0
 17 22  1  0
 18 23  1  0
 19 20  1  0
 21 24  1  0
 22 25  2  0
 24 26  2  0
 25 26  1  0
M  END
>  <PUBCHEM_COMPOUND_CID>  (1) 
33476

>  <PUBCHEM_CONFORMER_RMSD>  (1) 
0.8

>  <PUBCHEM_CONFORMER_DIVERSEORDER>  (1) 
1
68
30
33
53
3
20
70
14
52
6
35
67
28
66
19
49
59
10
58
32
13
51
15
54
12
38
41
44
18
5
42
48
55
9
2
7
29
65
37
23
34
16
21
62
63
31
56
39
8
64
24
25
50
69
47
46
27
45
60
26
61
36
40
17
4
22
57
11
43

>  <PUBCHEM_MMFF94_PARTIAL_CHARGES>  (1) 
31
1 -0.18
10 0.28
11 0.57
12 0.31
13 -0.15
14 0.28
16 -0.15
17 0.09
19 -0.15
2 -0.56
20 0.18
21 -0.15
22 -0.15
24 -0.15
25 -0.15
26 -0.15
3 -0.57
33 0.15
38 0.15
4 -0.48
41 0.15
42 0.15
43 0.15
47 0.15
48 0.15
49 0.15
5 -0.7
6 0.3
7 0.12
8 0.09
9 0.28

>  <PUBCHEM_EFFECTIVE_ROTOR_COUNT>  (1) 
7.4

>  <PUBCHEM_PHARMACOPHORE_FEATURES>  (1) 
7
1 2 acceptor
1 23 hydrophobe
1 3 acceptor
1 5 acceptor
6 17 21 22 24 25 26 rings
6 7 8 13 16 19 20 rings
7 4 5 7 8 10 11 12 rings

>  <PUBCHEM_HEAVY_ATOM_COUNT>  (1) 
26

>  <PUBCHEM_ATOM_DEF_STEREO_COUNT>  (1) 
0

>  <PUBCHEM_ATOM_UDEF_STEREO_COUNT>  (1) 
0

>  <PUBCHEM_BOND_DEF_STEREO_COUNT>  (1) 
0

>  <PUBCHEM_BOND_UDEF_STEREO_COUNT>  (1) 
0

>  <PUBCHEM_ISOTOPIC_ATOM_COUNT>  (1) 
0

>  <PUBCHEM_COMPONENT_COUNT>  (1) 
1

>  <PUBCHEM_CACTVS_TAUTO_COUNT>  (1) 
1

>  <PUBCHEM_CONFORMER_ID>  (1) 
000082C400000001

>  <PUBCHEM_MMFF94_ENERGY>  (1) 
86.6096

>  <PUBCHEM_FEATURE_SELFOVERLAP>  (1) 
35.534

>  <PUBCHEM_SHAPE_FINGERPRINT>  (1) 
10764073 3 17111898818681158233
11477941 20 18044672021241791796
12156800 1 16046672403021957078
12788726 201 17967248723853678941
13149001 5 17759536468797883382
13383661 66 16985736808361070134
14251757 17 17618780258732970509
14468879 13 18334858290163455109
17980427 23 17677039270228201748
20600515 1 17482264216539416652
20775530 9 16690190419577893102
21304303 282 17172880142781482012
23419403 2 17690322263938801985
35225 105 15327783216474453210
469060 322 18050569843839693406
513532 50 16679178256364153516
57527585 103 17040961605274932251

>  <PUBCHEM_SHAPE_MULTIPOLES>  (1) 
515.24
5.68
5.06
2.54
4.38
1.37
-1.44
-2.28
1.45
-0.06
3.44
-0.81
0.63
2.71

>  <PUBCHEM_SHAPE_SELFOVERLAP>  (1) 
1084.829

>  <PUBCHEM_SHAPE_VOLUME>  (1) 
289.3

>  <PUBCHEM_COORDINATE_TYPE>  (1) 
2
5
10

$$$$
