33484
     RDKit          3D

 20 20  0  0  0  0  0  0  0  0999 V2000
   -2.5062   -1.1281   -0.7779 O   0  0  0  0  0  0  0  0  0  0  0  0
   -1.8587    1.5725   -0.6836 O   0  0  0  0  0  0  0  0  0  0  0  0
    5.4364    1.3558    0.6904 O   0  0  0  0  0  0  0  0  0  0  0  0
    7.5230   -0.3287    0.3149 O   0  0  0  0  0  0  0  0  0  0  0  0
    6.2038   -0.7341    0.0692 N   0  0  0  0  0  0  0  0  0  0  0  0
   -4.9188   -0.1560    0.5119 C   0  0  0  0  0  0  0  0  0  0  0  0
   -4.6235   -1.6262    0.2238 C   0  0  0  0  0  0  0  0  0  0  0  0
   -6.4229    0.1132    0.5442 C   0  0  0  0  0  0  0  0  0  0  0  0
   -3.1283   -1.9112    0.2315 C   0  0  0  0  0  0  0  0  0  0  0  0
   -6.7217    1.5691    0.8644 C   0  0  0  0  0  0  0  0  0  0  0  0
   -1.2160   -0.7289   -0.5436 C   0  0  0  0  0  0  0  0  0  0  0  0
   -0.8985    0.6242   -0.4993 C   0  0  0  0  0  0  0  0  0  0  0  0
   -0.2324   -1.6936   -0.3533 C   0  0  0  0  0  0  0  0  0  0  0  0
    1.4101    0.0554   -0.0699 C   0  0  0  0  0  0  0  0  0  0  0  0
    0.4185    1.0175   -0.2614 C   0  0  0  0  0  0  0  0  0  0  0  0
    1.0846   -1.3001   -0.1158 C   0  0  0  0  0  0  0  0  0  0  0  0
    2.7833    0.4656    0.1776 C   0  0  0  0  0  0  0  0  0  0  0  0
   -1.4439    2.9358   -0.6215 C   0  0  0  0  0  0  0  0  0  0  0  0
    3.8744   -0.3133    0.0014 C   0  0  0  0  0  0  0  0  0  0  0  0
    5.2366    0.2112    0.2973 C   0  0  0  0  0  0  0  0  0  0  0  0
  1  9  1  0
  1 11  1  0
  2 12  1  0
  2 18  1  0
  3 20  2  0
  4  5  1  0
  5 20  1  0
  6  7  1  0
  6  8  1  0
  7  9  1  0
  8 10  1  0
 11 12  2  0
 11 13  1  0
 12 15  1  0
 13 16  2  0
 14 15  2  0
 14 16  1  0
 14 17  1  0
 17 19  2  0
 19 20  1  0
M  END
>  <PUBCHEM_COMPOUND_CID>  (1) 
33484

>  <PUBCHEM_CONFORMER_RMSD>  (1) 
0.8

>  <PUBCHEM_CONFORMER_DIVERSEORDER>  (1) 
5
116
142
20
169
71
90
65
196
62
77
27
138
123
167
64
124
121
54
79
31
145
132
157
200
98
154
12
109
127
217
144
174
175
23
195
164
215
118
181
69
105
202
92
206
82
97
28
137
218
168
107
93
72
148
4
147
213
194
187
55
15
32
7
80
185
183
63
44
74
211
172
52
34
177
171
131
153
87
198
94
53
139
173
192
108
106
42
8
26
135
207
95
86
101
100
110
134
68
151
104
33
165
203
199
35
2
166
122
114
160
162
6
76
152
113
188
49
149
133
193
190
102
45
78
40
161
120
70
21
38
67
180
83
73
41
17
178
141
39
60
61
84
66
37
103
216
191
1
170
18
47
129
75
13
159
155
48
10
25
205
146
189
136
16
29
184
24
130
57
99
208
128
14
19
91
9
11
89
150
51
209
56
119
143
179
22
88
59
140
46
163
36
30
219
58
117
43
115
96
3
112
176
204
125
214
158
126
81
111
221
85
186
220
197
212
156
182
201
50
210

>  <PUBCHEM_MMFF94_PARTIAL_CHARGES>  (1) 
23
1 -0.36
11 0.08
12 0.08
13 -0.15
14 0.03
15 -0.15
16 -0.15
17 -0.18
18 0.28
19 -0.14
2 -0.36
20 0.62
3 -0.57
32 0.15
33 0.15
34 0.15
35 0.15
36 0.15
4 -0.44
40 0.37
41 0.4
5 -0.39
9 0.28

>  <PUBCHEM_EFFECTIVE_ROTOR_COUNT>  (1) 
9

>  <PUBCHEM_PHARMACOPHORE_FEATURES>  (1) 
6
1 1 acceptor
1 10 hydrophobe
1 2 acceptor
1 3 acceptor
1 5 donor
6 11 12 13 14 15 16 rings

>  <PUBCHEM_HEAVY_ATOM_COUNT>  (1) 
20

>  <PUBCHEM_ATOM_DEF_STEREO_COUNT>  (1) 
0

>  <PUBCHEM_ATOM_UDEF_STEREO_COUNT>  (1) 
0

>  <PUBCHEM_BOND_DEF_STEREO_COUNT>  (1) 
0

>  <PUBCHEM_BOND_UDEF_STEREO_COUNT>  (1) 
1

>  <PUBCHEM_ISOTOPIC_ATOM_COUNT>  (1) 
0

>  <PUBCHEM_COMPONENT_COUNT>  (1) 
1

>  <PUBCHEM_CACTVS_TAUTO_COUNT>  (1) 
3

>  <PUBCHEM_CONFORMER_ID>  (1) 
000082CC00000005

>  <PUBCHEM_MMFF94_ENERGY>  (1) 
57.6045

>  <PUBCHEM_FEATURE_SELFOVERLAP>  (1) 
30.451

>  <PUBCHEM_SHAPE_FINGERPRINT>  (1) 
10906281 52 18189634854612530615
11089746 13 17632573868764289433
12838862 33 18336815413421435649
13073987 5 18262226743631763282
13533116 47 17604138251934424106
13862211 1 18337106881732054999
14123256 10 10592044653009469083
14251718 22 8142090857412791466
14251764 18 18409733997761455403
14350574 20 11097857402193155751
14790565 3 18265623258771032765
15042514 8 18264768951121418870
15048467 5 17917994975395419035
15238133 3 18114476608368129077
17980427 23 15266799796488117699
19141452 34 18131068294049256566
19784866 170 18410856551598799511
200 152 13912597269099281830
21054139 6 9943806673337816905
21150785 3 10735873971824456930
21236236 1 18412260614788241501
21267235 1 18335140895703111974
21304253 13 18343021111860019529
21421861 104 18041554716128137107
2297311 6 18409733971833207998
23035841 295 17822007623022703226
23402539 116 18342734165115728631
23845131 108 17619070525735622105
2838139 119 15339124541739507139
335352 9 18410011061231682143
350125 39 18411138060803613604
4463277 17 18410293639919937918
5104073 3 18190457345128728240
5486654 36 17605282976793889507
59755656 215 18271814488572253806
69474 34 18341332279548616961
7226269 152 18113897152813392273

>  <PUBCHEM_SHAPE_MULTIPOLES>  (1) 
383.13
16.53
2.14
0.8
9.19
0.85
0
1.25
5.95
-2.23
-0.27
-0.37
0.12
-0.02

>  <PUBCHEM_SHAPE_SELFOVERLAP>  (1) 
771.919

>  <PUBCHEM_SHAPE_VOLUME>  (1) 
225.6

>  <PUBCHEM_COORDINATE_TYPE>  (1) 
2
5
10

$$$$
