33481
     RDKit          3D

 20 20  0  0  0  0  0  0  0  0999 V2000
   -0.9057   -3.5217   -1.4116 Cl  0  0  0  0  0  0  0  0  0  0  0  0
    1.6518   -3.6476   -0.0886 Cl  0  0  0  0  0  0  0  0  0  0  0  0
   -0.7462   -3.5081    1.5107 Cl  0  0  0  0  0  0  0  0  0  0  0  0
   -2.3402    1.2586    0.1327 N   0  0  0  0  0  0  0  0  0  0  0  0
    2.3417    1.2813   -0.1378 N   0  0  0  0  0  0  0  0  0  0  0  0
    0.0006    1.3016   -0.0042 N   0  0  0  0  0  0  0  0  0  0  0  0
    1.2085   -0.7706   -0.0719 N   0  0  0  0  0  0  0  0  0  0  0  0
   -1.1870   -0.7822    0.0665 N   0  0  0  0  0  0  0  0  0  0  0  0
   -4.7803    1.6278    0.2324 C   0  0  0  0  0  0  0  0  0  0  0  0
    4.7711    1.6445   -0.2301 C   0  0  0  0  0  0  0  0  0  0  0  0
   -3.6293    0.6125    0.2100 C   0  0  0  0  0  0  0  0  0  0  0  0
    3.6147    0.6351   -0.2087 C   0  0  0  0  0  0  0  0  0  0  0  0
   -4.7817    2.5232   -1.0078 C   0  0  0  0  0  0  0  0  0  0  0  0
   -6.1407    0.9509    0.4085 C   0  0  0  0  0  0  0  0  0  0  0  0
    4.7733    2.5429    1.0079 C   0  0  0  0  0  0  0  0  0  0  0  0
    6.1286    0.9602   -0.4004 C   0  0  0  0  0  0  0  0  0  0  0  0
   -1.1388    0.5717    0.0622 C   0  0  0  0  0  0  0  0  0  0  0  0
    1.1244    0.5696   -0.0685 C   0  0  0  0  0  0  0  0  0  0  0  0
    0.0138   -1.3795   -0.0022 C   0  0  0  0  0  0  0  0  0  0  0  0
    0.0213   -2.8702    0.0008 C   0  0  0  0  0  0  0  0  0  0  0  0
  1 20  1  0
  2 20  1  0
  3 20  1  0
  4 11  1  0
  4 17  1  0
  5 12  1  0
  5 18  1  0
  6 17  2  0
  6 18  1  0
  7 18  2  0
  7 19  1  0
  8 17  1  0
  8 19  2  0
  9 11  1  0
  9 13  1  0
  9 14  1  0
 10 12  1  0
 10 15  1  0
 10 16  1  0
 19 20  1  0
M  END
>  <PUBCHEM_COMPOUND_CID>  (1) 
33481

>  <PUBCHEM_CONFORMER_RMSD>  (1) 
0.8

>  <PUBCHEM_CONFORMER_DIVERSEORDER>  (1) 
1
17
8
19
7
12
18
9
23
25
2
15
10
11
20
13
14
22
3
4
21
16
6
24
5

>  <PUBCHEM_MMFF94_PARTIAL_CHARGES>  (1) 
16
1 -0.29
11 0.37
12 0.37
17 0.72
18 0.72
19 0.48
2 -0.29
20 1.01
3 -0.29
39 0.4
4 -0.87
40 0.4
5 -0.87
6 -0.62
7 -0.62
8 -0.62

>  <PUBCHEM_EFFECTIVE_ROTOR_COUNT>  (1) 
7

>  <PUBCHEM_PHARMACOPHORE_FEATURES>  (1) 
7
1 4 donor
1 5 donor
3 10 15 16 hydrophobe
3 9 13 14 hydrophobe
4 4 6 8 17 cation
4 5 6 7 18 cation
6 6 7 8 17 18 19 rings

>  <PUBCHEM_HEAVY_ATOM_COUNT>  (1) 
20

>  <PUBCHEM_ATOM_DEF_STEREO_COUNT>  (1) 
0

>  <PUBCHEM_ATOM_UDEF_STEREO_COUNT>  (1) 
0

>  <PUBCHEM_BOND_DEF_STEREO_COUNT>  (1) 
0

>  <PUBCHEM_BOND_UDEF_STEREO_COUNT>  (1) 
0

>  <PUBCHEM_ISOTOPIC_ATOM_COUNT>  (1) 
0

>  <PUBCHEM_COMPONENT_COUNT>  (1) 
1

>  <PUBCHEM_CACTVS_TAUTO_COUNT>  (1) 
5

>  <PUBCHEM_CONFORMER_ID>  (1) 
000082C900000001

>  <PUBCHEM_MMFF94_ENERGY>  (1) 
42.2486

>  <PUBCHEM_FEATURE_SELFOVERLAP>  (1) 
35.563

>  <PUBCHEM_SHAPE_FINGERPRINT>  (1) 
10411042 1 17474108700589173078
10493431 412 18410011069595048805
12293681 160 17917712383432183201
12532896 13 18410013264513273734
12553582 1 17402063687158678198
12788726 201 17979619449368338386
13052359 8 18336551641228748379
13590594 115 17619910999749346775
13631057 29 18200869699771379815
13955234 65 18266181621641106571
14790565 3 18411980269118618540
15664445 248 17482565083083037767
15927050 60 18410575093470324198
167882 2 18265615390285210862
17539 30 17840862194191714215
17913733 40 18341348729315072163
20197701 30 18409730655464392397
204376 136 18410576188649346905
20554085 129 18058711560108040232
20645477 70 18195244409072793727
21049683 118 18195783336609601640
21054139 6 18341323492403758199
22182313 1 18195837191046698391
22224240 67 18409451410414725609
23352939 185 13183021847616347800
23402539 116 18272366507485799140
23558518 356 17683243934307049912
23559900 14 17905037059253187073
23598288 3 17827091893712242222
293599 30 18411139147155967884
335352 9 18411703176021439020
3759504 43 18334577983412522016
38695281 34 18341892957274071095
474229 33 18409171034627720177
5104073 3 18116441332710798585
5385378 56 18338806602275611193
53917941 68 18269538585143341781
559249 180 18410291441645930990
59755656 520 18411696608124880492
6025842 7 18268706109371221029
621550 34 18115305554067763053
6669772 16 18202008689989786390
7364860 26 18196091032446127239
77188 2 17328863197337564983
81228 2 17832127695263348979
81539 233 18335984156085027735

>  <PUBCHEM_SHAPE_MULTIPOLES>  (1) 
392.29
11.63
4.67
0.98
0.03
5.73
-0.04
-15.16
0.02
0.16
0
-0.2
0.57
0.75

>  <PUBCHEM_SHAPE_SELFOVERLAP>  (1) 
747.487

>  <PUBCHEM_SHAPE_VOLUME>  (1) 
238.8

>  <PUBCHEM_COORDINATE_TYPE>  (1) 
2
5
10

$$$$
