33496
     RDKit          3D

 23 25  0  0  0  0  0  0  0  0999 V2000
    1.5982    0.9868    2.2844 O   0  0  0  0  0  0  0  0  0  0  0  0
   -0.6054   -0.1271   -1.7098 O   0  0  0  0  0  0  0  0  0  0  0  0
    0.9286    4.1365   -0.9847 O   0  0  0  0  0  0  0  0  0  0  0  0
    1.1754    2.5823    0.6913 N   0  0  0  0  0  0  0  0  0  0  0  0
    0.0741    2.0261   -1.3037 N   0  0  0  0  0  0  0  0  0  0  0  0
   -0.0367    0.4523    0.5751 C   0  0  0  0  0  0  0  0  0  0  0  0
    0.3144   -1.0266    0.7939 C   0  0  0  0  0  0  0  0  0  0  0  0
   -1.3920    0.7567    1.2382 C   0  0  0  0  0  0  0  0  0  0  0  0
    1.0041    1.3303    1.2627 C   0  0  0  0  0  0  0  0  0  0  0  0
   -0.1989    0.7224   -0.9174 C   0  0  0  0  0  0  0  0  0  0  0  0
    1.6640   -1.3529    0.2275 C   0  0  0  0  0  0  0  0  0  0  0  0
   -2.4930   -0.0617    0.6297 C   0  0  0  0  0  0  0  0  0  0  0  0
    0.7248    2.9997   -0.5554 C   0  0  0  0  0  0  0  0  0  0  0  0
    1.7731   -1.7813   -1.0913 C   0  0  0  0  0  0  0  0  0  0  0  0
   -3.1989    0.4360   -0.4597 C   0  0  0  0  0  0  0  0  0  0  0  0
    2.7958   -1.2250    1.0256 C   0  0  0  0  0  0  0  0  0  0  0  0
   -2.7974   -1.3096    1.1614 C   0  0  0  0  0  0  0  0  0  0  0  0
    3.0285   -2.0853   -1.6180 C   0  0  0  0  0  0  0  0  0  0  0  0
   -4.2227   -0.3244   -1.0251 C   0  0  0  0  0  0  0  0  0  0  0  0
    4.0512   -1.5289    0.4990 C   0  0  0  0  0  0  0  0  0  0  0  0
   -3.8210   -2.0701    0.5962 C   0  0  0  0  0  0  0  0  0  0  0  0
    4.1674   -1.9591   -0.8228 C   0  0  0  0  0  0  0  0  0  0  0  0
   -4.5337   -1.5774   -0.4971 C   0  0  0  0  0  0  0  0  0  0  0  0
  1  9  2  0
  2 10  2  0
  3 13  2  0
  4  9  1  0
  4 13  1  0
  5 10  1  0
  5 13  1  0
  6  7  1  0
  6  8  1  0
  6  9  1  0
  6 10  1  0
  7 11  1  0
  8 12  1  0
 11 14  2  0
 11 16  1  0
 12 15  2  0
 12 17  1  0
 14 18  1  0
 15 19  1  0
 16 20  2  0
 17 21  2  0
 18 22  2  0
 19 23  2  0
 20 22  1  0
 21 23  1  0
M  END
>  <PUBCHEM_COMPOUND_CID>  (1) 
33496

>  <PUBCHEM_CONFORMER_RMSD>  (1) 
0.8

>  <PUBCHEM_CONFORMER_DIVERSEORDER>  (1) 
1
3
4
2
5

>  <PUBCHEM_MMFF94_PARTIAL_CHARGES>  (1) 
35
1 -0.57
10 0.57
11 -0.14
12 -0.14
13 0.69
14 -0.15
15 -0.15
16 -0.15
17 -0.15
18 -0.15
19 -0.15
2 -0.57
20 -0.15
21 -0.15
22 -0.15
23 -0.15
28 0.37
29 0.37
3 -0.57
30 0.15
31 0.15
32 0.15
33 0.15
34 0.15
35 0.15
36 0.15
37 0.15
38 0.15
39 0.15
4 -0.49
5 -0.49
6 0.12
7 0.14
8 0.14
9 0.57

>  <PUBCHEM_EFFECTIVE_ROTOR_COUNT>  (1) 
4.6

>  <PUBCHEM_PHARMACOPHORE_FEATURES>  (1) 
8
1 1 acceptor
1 2 acceptor
1 3 acceptor
1 4 donor
1 5 donor
6 11 14 16 18 20 22 rings
6 12 15 17 19 21 23 rings
6 4 5 6 9 10 13 rings

>  <PUBCHEM_HEAVY_ATOM_COUNT>  (1) 
23

>  <PUBCHEM_ATOM_DEF_STEREO_COUNT>  (1) 
0

>  <PUBCHEM_ATOM_UDEF_STEREO_COUNT>  (1) 
0

>  <PUBCHEM_BOND_DEF_STEREO_COUNT>  (1) 
0

>  <PUBCHEM_BOND_UDEF_STEREO_COUNT>  (1) 
0

>  <PUBCHEM_ISOTOPIC_ATOM_COUNT>  (1) 
0

>  <PUBCHEM_COMPONENT_COUNT>  (1) 
1

>  <PUBCHEM_CACTVS_TAUTO_COUNT>  (1) 
5

>  <PUBCHEM_CONFORMER_ID>  (1) 
000082D800000001

>  <PUBCHEM_MMFF94_ENERGY>  (1) 
80.627

>  <PUBCHEM_FEATURE_SELFOVERLAP>  (1) 
40.638

>  <PUBCHEM_SHAPE_FINGERPRINT>  (1) 
11135609 12 18192434301891801115
11477941 20 18050320014951712566
11578080 2 16010682062918089780
12363563 72 18410862022849317835
12422481 6 18054475206541783296
12553582 1 18262810553339631571
12592029 89 18046916153910442504
12707595 3 18261399957293954963
12788726 201 17900261896832472084
13149001 5 17969519253808661507
133893 2 18193302863941608601
13544653 18 17988646255006185179
13583140 156 15553580934098306755
13681431 1 18410864273464662140
14178342 30 11095877199057773561
14181834 199 18337394962283564055
14251764 30 17059794212682324830
14790565 3 17472414357544943485
14863182 85 17984979559863123843
16945 1 17632291276605633898
17357779 13 18199735973431680567
17492 54 18190197839537438492
1813 80 18341339906919729510
18186145 218 12757445941952894394
200 152 17241055297132459890
20600515 1 18269858465797013646
20671657 53 18409446973175445035
21304303 282 16961222831853278316
21344244 246 18196103363682070756
21452121 199 18341055202312098649
23402539 116 18337959961469700574
23419403 2 18129078087724090392
23557571 272 18194959643834694558
23559900 14 18336538417530696691
4280585 95 18336259072731495658
458136 41 17833852825113308601
46194498 28 18263072370714998935
6669772 16 17762635271071322212
7364860 26 18265336294794027305
81228 2 17979085885417099920
84936 31 18200587141423582828
9709674 26 18117552041181060707

>  <PUBCHEM_SHAPE_MULTIPOLES>  (1) 
445.76
7.12
3.35
1.65
2.89
3.5
-0.09
-6.93
0.97
-1.64
0.94
-0.44
0.16
0.74

>  <PUBCHEM_SHAPE_SELFOVERLAP>  (1) 
979.979

>  <PUBCHEM_SHAPE_VOLUME>  (1) 
235

>  <PUBCHEM_COORDINATE_TYPE>  (1) 
2
5
10

$$$$
