33499
     RDKit          3D

 31 33  0  0  0  0  0  0  0  0999 V2000
   -0.5887   -2.2565    2.6910 Cl  0  0  0  0  0  0  0  0  0  0  0  0
   -0.6131    2.2553   -2.6908 Cl  0  0  0  0  0  0  0  0  0  0  0  0
   -0.5910   -2.2634   -2.6861 Cl  0  0  0  0  0  0  0  0  0  0  0  0
   -0.6144    2.2623    2.6864 Cl  0  0  0  0  0  0  0  0  0  0  0  0
    2.5714   -2.1088   -2.7207 Cl  0  0  0  0  0  0  0  0  0  0  0  0
    2.5488    2.1233    2.7204 Cl  0  0  0  0  0  0  0  0  0  0  0  0
    2.5738   -2.1013    2.7222 Cl  0  0  0  0  0  0  0  0  0  0  0  0
    2.5502    2.1157   -2.7225 Cl  0  0  0  0  0  0  0  0  0  0  0  0
    4.1486   -2.0273    0.0000 Cl  0  0  0  0  0  0  0  0  0  0  0  0
    4.1259    2.0495   -0.0007 Cl  0  0  0  0  0  0  0  0  0  0  0  0
   -6.0951   -0.0261   -0.0008 Cl  0  0  0  0  0  0  0  0  0  0  0  0
   -1.7436   -2.3165    0.0031 O   0  0  0  0  0  0  0  0  0  0  0  0
   -1.7677    2.3097   -0.0026 O   0  0  0  0  0  0  0  0  0  0  0  0
   -1.7059   -0.0032    0.0002 N   0  0  0  0  0  0  0  0  0  0  0  0
   -3.7902    1.1858   -0.0016 N   0  0  0  0  0  0  0  0  0  0  0  0
   -3.7776   -1.2137    0.0020 N   0  0  0  0  0  0  0  0  0  0  0  0
   -0.3785   -2.2494    0.0024 C   0  0  0  0  0  0  0  0  0  0  0  0
   -0.3909    2.2488   -0.0022 C   0  0  0  0  0  0  0  0  0  0  0  0
    0.3185   -2.2137    1.2099 C   0  0  0  0  0  0  0  0  0  0  0  0
    0.2946    2.2171   -1.2098 C   0  0  0  0  0  0  0  0  0  0  0  0
    0.3175   -2.2166   -1.2060 C   0  0  0  0  0  0  0  0  0  0  0  0
    0.2941    2.2201    1.2062 C   0  0  0  0  0  0  0  0  0  0  0  0
    1.7107   -2.1483   -1.2068 C   0  0  0  0  0  0  0  0  0  0  0  0
    1.6876    2.1585    1.2067 C   0  0  0  0  0  0  0  0  0  0  0  0
    1.7117   -2.1451    1.2092 C   0  0  0  0  0  0  0  0  0  0  0  0
    1.6881    2.1553   -1.2094 C   0  0  0  0  0  0  0  0  0  0  0  0
    2.4079   -2.1125    0.0008 C   0  0  0  0  0  0  0  0  0  0  0  0
    2.3847    2.1263   -0.0012 C   0  0  0  0  0  0  0  0  0  0  0  0
   -2.4411   -1.1232    0.0020 C   0  0  0  0  0  0  0  0  0  0  0  0
   -2.4492    1.1151   -0.0013 C   0  0  0  0  0  0  0  0  0  0  0  0
   -4.3870   -0.0171    0.0003 C   0  0  0  0  0  0  0  0  0  0  0  0
  1 19  1  0
  2 20  1  0
  3 21  1  0
  4 22  1  0
  5 23  1  0
  6 24  1  0
  7 25  1  0
  8 26  1  0
  9 27  1  0
 10 28  1  0
 11 31  1  0
 12 17  1  0
 12 29  1  0
 13 18  1  0
 13 30  1  0
 14 29  2  0
 14 30  1  0
 15 30  2  0
 15 31  1  0
 16 29  1  0
 16 31  2  0
 17 19  2  0
 17 21  1  0
 18 20  2  0
 18 22  1  0
 19 25  1  0
 20 26  1  0
 21 23  2  0
 22 24  2  0
 23 27  1  0
 24 28  1  0
 25 27  2  0
 26 28  2  0
M  END
>  <PUBCHEM_COMPOUND_CID>  (1) 
33499

>  <PUBCHEM_CONFORMER_RMSD>  (1) 
0.8

>  <PUBCHEM_CONFORMER_DIVERSEORDER>  (1) 
1
24
9
8
10
15
5
29
28
7
25
17
2
21
18
3
6
22
26
16
30
4
23
12
13
11
14
27
20
19

>  <PUBCHEM_MMFF94_PARTIAL_CHARGES>  (1) 
31
1 -0.18
10 -0.18
11 -0.18
12 -0.17
13 -0.17
14 -0.62
15 -0.62
16 -0.62
17 0.08
18 0.08
19 0.18
2 -0.18
20 0.18
21 0.18
22 0.18
23 0.18
24 0.18
25 0.18
26 0.18
27 0.18
28 0.18
29 0.7
3 -0.18
30 0.7
31 0.8
4 -0.18
5 -0.18
6 -0.18
7 -0.18
8 -0.18
9 -0.18

>  <PUBCHEM_EFFECTIVE_ROTOR_COUNT>  (1) 
4

>  <PUBCHEM_PHARMACOPHORE_FEATURES>  (1) 
6
3 14 15 30 cation
3 14 16 29 cation
3 15 16 31 cation
6 14 15 16 29 30 31 rings
6 17 19 21 23 25 27 rings
6 18 20 22 24 26 28 rings

>  <PUBCHEM_HEAVY_ATOM_COUNT>  (1) 
31

>  <PUBCHEM_ATOM_DEF_STEREO_COUNT>  (1) 
0

>  <PUBCHEM_ATOM_UDEF_STEREO_COUNT>  (1) 
0

>  <PUBCHEM_BOND_DEF_STEREO_COUNT>  (1) 
0

>  <PUBCHEM_BOND_UDEF_STEREO_COUNT>  (1) 
0

>  <PUBCHEM_ISOTOPIC_ATOM_COUNT>  (1) 
0

>  <PUBCHEM_COMPONENT_COUNT>  (1) 
1

>  <PUBCHEM_CACTVS_TAUTO_COUNT>  (1) 
1

>  <PUBCHEM_CONFORMER_ID>  (1) 
000082DB00000001

>  <PUBCHEM_MMFF94_ENERGY>  (1) 
89.4406

>  <PUBCHEM_FEATURE_SELFOVERLAP>  (1) 
33.23

>  <PUBCHEM_SHAPE_FINGERPRINT>  (1) 
10032420 55 17533495638960933762
107951 10 17681009687739548838
1100329 8 17625279515088974865
12156800 1 17978228262511357414
12422481 6 18121466212048912192
128993 33 15662242774069761352
133893 2 18116739359932168209
15274700 242 17098582921874956200
17492 54 17970654955204900414
20600515 1 17619051842326119192
20691752 17 17749392542313903433
20764821 26 17823148967600346355
20905425 154 18411986892021577119
23419403 2 18122878998269705548
27425 322 15866621996495079125
3298306 158 18267585882852594565
35225 105 17261825299198007604
469060 322 17753336370316425530
513532 50 16916785223218281233
5265222 85 17835532892066970580
57527585 103 17036762716502852022
59755656 215 18194962075161081439
6287921 2 17489010570700465867
9925002 15 17770746251979029239

>  <PUBCHEM_SHAPE_MULTIPOLES>  (1) 
631.85
6.83
4.54
3.08
8.26
0.03
0
-0.07
0
-2.81
0
-2.17
0.01
0

>  <PUBCHEM_SHAPE_SELFOVERLAP>  (1) 
1280.582

>  <PUBCHEM_SHAPE_VOLUME>  (1) 
376.1

>  <PUBCHEM_COORDINATE_TYPE>  (1) 
2
5
10

$$$$
