33503
     RDKit          3D

 15 14  0  0  0  0  0  0  0  0999 V2000
   -3.8941   -1.4122    1.3526 O   0  0  0  0  0  0  0  0  0  0  0  0
   -4.2342   -1.7570   -0.8507 O   0  0  0  0  0  0  0  0  0  0  0  0
   -3.7031    0.5161   -0.1094 C   0  0  0  0  0  0  0  0  0  0  0  0
   -2.3060    0.8699    0.4793 C   0  0  0  0  0  0  0  0  0  0  0  0
   -1.1129    0.1898   -0.2091 C   0  0  0  0  0  0  0  0  0  0  0  0
    0.2132    0.6648    0.3915 C   0  0  0  0  0  0  0  0  0  0  0  0
    1.4043   -0.0296   -0.2714 C   0  0  0  0  0  0  0  0  0  0  0  0
    2.7313    0.4685    0.3062 C   0  0  0  0  0  0  0  0  0  0  0  0
    3.9189   -0.2528   -0.3349 C   0  0  0  0  0  0  0  0  0  0  0  0
   -3.7778    0.9233   -1.5898 C   0  0  0  0  0  0  0  0  0  0  0  0
   -4.7631    1.2896    0.6964 C   0  0  0  0  0  0  0  0  0  0  0  0
    5.2741    0.1910    0.2234 C   0  0  0  0  0  0  0  0  0  0  0  0
   -3.9836   -0.9844    0.0670 C   0  0  0  0  0  0  0  0  0  0  0  0
    6.4559   -0.5816   -0.3637 C   0  0  0  0  0  0  0  0  0  0  0  0
    7.7771   -0.0955    0.2127 C   0  0  0  0  0  0  0  0  0  0  0  0
  1 13  1  0
  2 13  2  0
  3  4  1  0
  3 10  1  0
  3 11  1  0
  3 13  1  0
  4  5  1  0
  5  6  1  0
  6  7  1  0
  7  8  1  0
  8  9  1  0
  9 12  1  0
 12 14  1  0
 14 15  1  0
M  END
>  <PUBCHEM_COMPOUND_CID>  (1) 
33503

>  <PUBCHEM_CONFORMER_RMSD>  (1) 
0.8

>  <PUBCHEM_CONFORMER_DIVERSEORDER>  (1) 
1
236
19
22
210
57
180
150
123
160
197
182
52
20
141
5
206
184
111
179
135
224
72
109
92
216
46
103
204
8
136
17
189
4
124
218
129
157
43
130
219
176
96
149
51
221
25
142
97
11
49
202
69
214
152
107
90
34
175
193
12
68
108
47
10
85
158
100
98
74
94
220
88
174
226
62
3
44
234
7
131
105
151
83
194
232
156
18
95
143
185
140
235
30
9
78
126
186
133
139
48
212
2
64
229
106
177
125
13
233
132
65
55
53
217
75
73
35
199
21
201
164
119
56
215
128
183
227
99
112
162
190
39
60
15
87
222
127
102
115
195
231
113
45
134
154
104
63
122
138
114
81
16
230
166
31
165
228
148
84
167
121
196
26
37
225
89
28
86
66
200
76
59
50
137
29
146
101
38
181
171
118
71
173
27
93
211
23
36
198
24
155
40
188
192
116
54
153
42
79
32
223
110
14
120
168
117
178
159
61
203
33
6
147
209
170
169
213
80
145
77
41
161
191
67
187
205
163
70
172
58
144
207
82
208
91

>  <PUBCHEM_MMFF94_PARTIAL_CHARGES>  (1) 
5
1 -0.65
13 0.66
2 -0.57
3 0.06
41 0.5

>  <PUBCHEM_EFFECTIVE_ROTOR_COUNT>  (1) 
9

>  <PUBCHEM_PHARMACOPHORE_FEATURES>  (1) 
5
1 1 acceptor
1 15 hydrophobe
1 2 acceptor
3 1 2 13 anion
3 3 10 11 hydrophobe

>  <PUBCHEM_HEAVY_ATOM_COUNT>  (1) 
15

>  <PUBCHEM_ATOM_DEF_STEREO_COUNT>  (1) 
0

>  <PUBCHEM_ATOM_UDEF_STEREO_COUNT>  (1) 
0

>  <PUBCHEM_BOND_DEF_STEREO_COUNT>  (1) 
0

>  <PUBCHEM_BOND_UDEF_STEREO_COUNT>  (1) 
0

>  <PUBCHEM_ISOTOPIC_ATOM_COUNT>  (1) 
0

>  <PUBCHEM_COMPONENT_COUNT>  (1) 
1

>  <PUBCHEM_CACTVS_TAUTO_COUNT>  (1) 
1

>  <PUBCHEM_CONFORMER_ID>  (1) 
000082DF00000001

>  <PUBCHEM_MMFF94_ENERGY>  (1) 
13.0432

>  <PUBCHEM_FEATURE_SELFOVERLAP>  (1) 
25.434

>  <PUBCHEM_SHAPE_FINGERPRINT>  (1) 
10680689 15 17603586326866476173
11287383 113 18342458162549533192
11315181 36 18342174483853796361
12091667 2 17312823762545728700
12616971 3 17386019372260997332
13288520 33 18260830419176653919
13533116 47 17458617871355938752
1420 363 17988928868839741166
14251718 22 18260830406376148082
14251731 8 18408602556924593430
14251732 16 18272649099997596640
14251764 46 18343302548803925417
15716309 27 17989207057950322462
17093844 174 18130784551197554905
17834072 33 18334861649508499004
17834076 25 14273741742099638864
17844677 252 18131073757432266760
18927931 339 18201443575208888133
19489759 90 17603584123374063076
20645477 56 17895187758851778557
21054139 6 18187642540034059170
21709351 56 18186798097538501260
220451 1 17968098595134067282
23035841 295 18260269637707074112
23402539 116 18343018887219382188
23559900 14 18412538830022028872
300161 21 18113893832123041121
3014965 18 12108052372409805384
42788 4 18272088293037690024
57483677 66 18410854344117432674
7062679 117 17822012025305990410

>  <PUBCHEM_SHAPE_MULTIPOLES>  (1) 
296.95
18.02
1.24
1
32.31
0.36
0.15
2.08
-0.11
-2.09
-0.05
-1.25
0
0.3

>  <PUBCHEM_SHAPE_SELFOVERLAP>  (1) 
548.477

>  <PUBCHEM_SHAPE_VOLUME>  (1) 
188.2

>  <PUBCHEM_COORDINATE_TYPE>  (1) 
2
5
10

$$$$
