33517
     RDKit          3D

 23 25  0  0  0  0  0  0  0  0999 V2000
   -5.8467    1.3908   -1.8657 Cl  0  0  0  0  0  0  0  0  0  0  0  0
   -1.5211   -1.2254    2.3921 O   0  0  0  0  0  0  0  0  0  0  0  0
    4.6714    2.9132   -0.4328 O   0  0  0  0  0  0  0  0  0  0  0  0
    2.7201    2.2707   -1.3992 O   0  0  0  0  0  0  0  0  0  0  0  0
    2.1198   -0.8581   -0.0445 N   0  0  0  0  0  0  0  0  0  0  0  0
    2.2154    0.3421    0.6227 C   0  0  0  0  0  0  0  0  0  0  0  0
    1.0033    0.6027    1.2250 C   0  0  0  0  0  0  0  0  0  0  0  0
    0.8355   -1.3618    0.1371 C   0  0  0  0  0  0  0  0  0  0  0  0
    0.1321   -0.4711    0.9195 C   0  0  0  0  0  0  0  0  0  0  0  0
    3.4578    1.1477    0.6318 C   0  0  0  0  0  0  0  0  0  0  0  0
    3.0969   -1.5158   -0.7923 C   0  0  0  0  0  0  0  0  0  0  0  0
    0.5258   -2.6095   -0.4779 C   0  0  0  0  0  0  0  0  0  0  0  0
    0.6751    1.7902    2.0417 C   0  0  0  0  0  0  0  0  0  0  0  0
   -1.2352   -0.6368    1.3283 C   0  0  0  0  0  0  0  0  0  0  0  0
    2.7999   -2.6912   -1.3698 C   0  0  0  0  0  0  0  0  0  0  0  0
    1.4673   -3.2468   -1.2000 C   0  0  0  0  0  0  0  0  0  0  0  0
   -2.3979   -0.1247    0.5239 C   0  0  0  0  0  0  0  0  0  0  0  0
    3.5492    2.1500   -0.5078 C   0  0  0  0  0  0  0  0  0  0  0  0
   -2.1341    0.5289   -0.6519 C   0  0  0  0  0  0  0  0  0  0  0  0
   -3.6635   -0.3384    1.0052 C   0  0  0  0  0  0  0  0  0  0  0  0
   -3.2126    1.0025   -1.3992 C   0  0  0  0  0  0  0  0  0  0  0  0
   -4.7419    0.1352    0.2580 C   0  0  0  0  0  0  0  0  0  0  0  0
   -4.5165    0.8056   -0.9443 C   0  0  0  0  0  0  0  0  0  0  0  0
  1 23  1  0
  2 14  2  0
  3 18  1  0
  4 18  2  0
  5  6  1  0
  5  8  1  0
  5 11  1  0
  6  7  2  0
  6 10  1  0
  7  9  1  0
  7 13  1  0
  8  9  2  0
  8 12  1  0
  9 14  1  0
 10 18  1  0
 11 15  2  0
 12 16  2  0
 14 17  1  0
 15 16  1  0
 17 19  2  0
 17 20  1  0
 19 21  1  0
 20 22  2  0
 21 23  2  0
 22 23  1  0
M  END
>  <PUBCHEM_COMPOUND_CID>  (1) 
33517

>  <PUBCHEM_CONFORMER_RMSD>  (1) 
0.8

>  <PUBCHEM_CONFORMER_DIVERSEORDER>  (1) 
1
17
13
12
3
15
9
14
4
16
7
11
2
5
10
18
6
8

>  <PUBCHEM_MMFF94_PARTIAL_CHARGES>  (1) 
32
1 -0.18
10 0.24
11 -0.18
12 -0.11
13 0.18
14 0.57
15 -0.15
16 -0.15
17 0.09
18 0.66
19 -0.15
2 -0.57
20 -0.15
21 -0.15
22 -0.15
23 0.18
26 0.15
27 0.15
3 -0.65
31 0.15
32 0.15
33 0.15
34 0.15
35 0.15
36 0.15
37 0.5
4 -0.57
5 0.33
6 -0.33
7 -0.18
8 -0.2
9 -0.09

>  <PUBCHEM_EFFECTIVE_ROTOR_COUNT>  (1) 
4

>  <PUBCHEM_PHARMACOPHORE_FEATURES>  (1) 
8
1 2 acceptor
1 3 acceptor
1 4 acceptor
1 5 cation
3 3 4 18 anion
5 5 6 7 8 9 rings
6 17 19 20 21 22 23 rings
6 5 8 11 12 15 16 rings

>  <PUBCHEM_HEAVY_ATOM_COUNT>  (1) 
23

>  <PUBCHEM_ATOM_DEF_STEREO_COUNT>  (1) 
0

>  <PUBCHEM_ATOM_UDEF_STEREO_COUNT>  (1) 
0

>  <PUBCHEM_BOND_DEF_STEREO_COUNT>  (1) 
0

>  <PUBCHEM_BOND_UDEF_STEREO_COUNT>  (1) 
0

>  <PUBCHEM_ISOTOPIC_ATOM_COUNT>  (1) 
0

>  <PUBCHEM_COMPONENT_COUNT>  (1) 
1

>  <PUBCHEM_CACTVS_TAUTO_COUNT>  (1) 
1

>  <PUBCHEM_CONFORMER_ID>  (1) 
000082ED00000001

>  <PUBCHEM_MMFF94_ENERGY>  (1) 
59.1916

>  <PUBCHEM_FEATURE_SELFOVERLAP>  (1) 
40.755

>  <PUBCHEM_SHAPE_FINGERPRINT>  (1) 
10165383 225 18053684717146504049
10498660 4 17603861149313378965
105312 117 18195251237860122764
10871710 139 16675300845883219508
12236239 1 16558743469353394923
12730499 353 18342458179470933203
12969540 114 18129384980697223176
13257819 101 18187642565624190364
13911987 19 18127984202783300568
14739800 52 15937553622207101820
14863182 85 17560788893386147126
15163728 17 17459492072545623964
15342816 4 15913032210609942683
15502722 9 18342181046241973982
15961568 22 17822010951591073597
16752209 62 15123232057965874291
17980427 26 17314489578802482882
1813 80 17271742580690476982
18186145 218 18188497861174284859
18915476 22 18340221738059553490
20645477 70 18342743987753465723
21756936 100 17172652720843839348
23114952 82 18337681831876251060
23557571 272 17532960356918074563
23559900 14 18187923919925130635
23598291 2 17202773592192434795
238 59 18272646882997873739
2838139 119 17896597482750399868
3060560 45 17916568942736198928
316301 35 11599997769465343293
3472631 163 17676476255781160117
34797466 226 18334566920721675261
44802255 64 17829356892672754500
46194498 28 18338510829595164317
5081480 168 18121805849214580997
5281201 14 18338798897336215253
53917941 68 17842269552565024872
633830 44 18263360305354138321
7471813 234 17702101365997691026

>  <PUBCHEM_SHAPE_MULTIPOLES>  (1) 
452.61
9.39
3.08
1.85
10.67
0.85
0.37
-4.95
-5.07
-5.08
-1.29
1.03
-0.28
1.25

>  <PUBCHEM_SHAPE_SELFOVERLAP>  (1) 
987.153

>  <PUBCHEM_SHAPE_VOLUME>  (1) 
248.2

>  <PUBCHEM_COORDINATE_TYPE>  (1) 
2
5
10

$$$$
