33514
     RDKit          3D

 13 13  0  0  0  0  0  0  0  0999 V2000
   -3.8278   -0.0219   -0.0402 C   0  0  0  0  0  0  0  0  0  0  0  0
   -3.0935    1.2841   -0.3610 C   0  0  0  0  0  0  0  0  0  0  0  0
   -3.0087   -1.2695   -0.3819 C   0  0  0  0  0  0  0  0  0  0  0  0
   -1.8135    1.4361    0.4079 C   0  0  0  0  0  0  0  0  0  0  0  0
    0.6692    1.7226    0.6027 C   0  0  0  0  0  0  0  0  0  0  0  0
   -0.6088    1.5630   -0.1681 C   0  0  0  0  0  0  0  0  0  0  0  0
   -3.7771   -2.5422   -0.0611 C   0  0  0  0  0  0  0  0  0  0  0  0
    1.6649    0.6342    0.2882 C   0  0  0  0  0  0  0  0  0  0  0  0
    1.6598   -0.5309    1.0397 C   0  0  0  0  0  0  0  0  0  0  0  0
    2.5688    0.8173   -0.7471 C   0  0  0  0  0  0  0  0  0  0  0  0
    2.5809   -1.5373    0.7489 C   0  0  0  0  0  0  0  0  0  0  0  0
    3.4899   -0.1891   -1.0379 C   0  0  0  0  0  0  0  0  0  0  0  0
    3.4959   -1.3664   -0.2900 C   0  0  0  0  0  0  0  0  0  0  0  0
  1  2  1  0
  1  3  1  0
  2  4  1  0
  3  7  1  0
  4  6  2  0
  5  6  1  0
  5  8  1  0
  8  9  2  0
  8 10  1  0
  9 11  1  0
 10 12  2  0
 11 13  2  0
 12 13  1  0
M  END
>  <PUBCHEM_COMPOUND_CID>  (1) 
33514

>  <PUBCHEM_CONFORMER_RMSD>  (1) 
0.6

>  <PUBCHEM_CONFORMER_DIVERSEORDER>  (1) 
7
55
51
32
95
89
73
13
76
3
83
67
49
47
84
38
59
12
61
90
21
23
27
86
14
18
53
9
29
20
70
66
8
54
81
31
39
10
37
64
15
68
94
65
34
4
36
72
6
1
44
80
75
25
33
88
56
50
57
71
35
5
30
17
43
48
78
26
79
19
11
46
87
24
93
41
22
74
16
92
45
2
63
52
69
91
96
60
58
77
40
28
62
85
42
82

>  <PUBCHEM_MMFF94_PARTIAL_CHARGES>  (1) 
17
10 -0.15
11 -0.15
12 -0.15
13 -0.15
2 0.14
20 0.15
23 0.15
27 0.15
28 0.15
29 0.15
30 0.15
31 0.15
4 -0.29
5 0.28
6 -0.29
8 -0.14
9 -0.15

>  <PUBCHEM_EFFECTIVE_ROTOR_COUNT>  (1) 
5

>  <PUBCHEM_PHARMACOPHORE_FEATURES>  (1) 
3
1 7 hydrophobe
4 1 2 3 4 hydrophobe
6 8 9 10 11 12 13 rings

>  <PUBCHEM_HEAVY_ATOM_COUNT>  (1) 
13

>  <PUBCHEM_ATOM_DEF_STEREO_COUNT>  (1) 
0

>  <PUBCHEM_ATOM_UDEF_STEREO_COUNT>  (1) 
0

>  <PUBCHEM_BOND_DEF_STEREO_COUNT>  (1) 
0

>  <PUBCHEM_BOND_UDEF_STEREO_COUNT>  (1) 
1

>  <PUBCHEM_ISOTOPIC_ATOM_COUNT>  (1) 
0

>  <PUBCHEM_COMPONENT_COUNT>  (1) 
1

>  <PUBCHEM_CACTVS_TAUTO_COUNT>  (1) 
1

>  <PUBCHEM_CONFORMER_ID>  (1) 
000082EA00000007

>  <PUBCHEM_MMFF94_ENERGY>  (1) 
14.7154

>  <PUBCHEM_FEATURE_SELFOVERLAP>  (1) 
15.224

>  <PUBCHEM_SHAPE_FINGERPRINT>  (1) 
10616163 171 18412267211852869975
12400797 292 18260556627611937180
12553582 1 18411416190010986481
14251705 54 18339641260650727643
14251710 61 18341335595257821791
14251731 5 18340490079406204463
14576447 43 18334016090501278926
14916288 52 18267865171712492151
15239191 94 18411982468484706927
1798214 55 8358273556991307039
18186145 218 12540978434745704616
18522851 12 18337685134785301025
18915474 69 18408046203819529310
19107657 162 18060418010475062285
19107657 46 18340484478462557703
19422 9 18411144601664064188
19766037 51 18336271261816896699
20281475 54 18411421704617242641
20291156 8 18339361967585617871
20442098 301 18059004098788512551
20645477 70 18125991900967313999
20871999 31 18187362121587226173
21354914 83 18411418449190079863
21524375 3 8070022268396080081
21634736 98 18335706065415932726
21713013 43 18186236229980103055
221490 88 18337678615045973160
22485316 2 18410854330578571988
23379529 103 18200327541069473214
23402539 116 16732984181156433812
23402655 69 17896043148268888724
2871803 45 18262512719032729255
305870 269 9655585101399933837
4416823 128 18340487871819076267
568465 68 16917062226959924478
603831 33 17968098564779359952
94968 8 18337953510016884595

>  <PUBCHEM_SHAPE_MULTIPOLES>  (1) 
267.53
7.91
2.37
0.95
3.4
0.77
0.01
4.1
-1.48
1.69
0.13
-0.61
0.03
-0.3

>  <PUBCHEM_SHAPE_SELFOVERLAP>  (1) 
528.989

>  <PUBCHEM_SHAPE_VOLUME>  (1) 
153.8

>  <PUBCHEM_COORDINATE_TYPE>  (1) 
2
5
10

$$$$
