33529
     RDKit          3D

 11 11  0  0  0  0  0  0  0  0999 V2000
    3.8641    0.4681   -0.6450 O   0  0  0  0  0  0  0  0  0  0  0  0
   -1.8198    0.3827   -0.0837 C   0  0  0  0  0  0  0  0  0  0  0  0
   -1.9167   -1.1621   -0.1578 C   0  0  0  0  0  0  0  0  0  0  0  0
   -0.6890    0.7926    0.8919 C   0  0  0  0  0  0  0  0  0  0  0  0
   -0.5780   -1.8411   -0.4656 C   0  0  0  0  0  0  0  0  0  0  0  0
    0.5207   -1.4078    0.5044 C   0  0  0  0  0  0  0  0  0  0  0  0
    0.6101    0.0927    0.5799 C   0  0  0  0  0  0  0  0  0  0  0  0
   -3.1571    0.9435    0.4345 C   0  0  0  0  0  0  0  0  0  0  0  0
   -1.5652    0.9756   -1.4845 C   0  0  0  0  0  0  0  0  0  0  0  0
    1.7555    0.7578    0.3708 C   0  0  0  0  0  0  0  0  0  0  0  0
    2.9754   -0.0020    0.0551 C   0  0  0  0  0  0  0  0  0  0  0  0
  1 11  2  0
  2  3  1  0
  2  4  1  0
  2  8  1  0
  2  9  1  0
  3  5  1  0
  4  7  1  0
  5  6  1  0
  6  7  1  0
  7 10  2  0
 10 11  1  0
M  END
>  <PUBCHEM_COMPOUND_CID>  (1) 
33529

>  <PUBCHEM_CONFORMER_RMSD>  (1) 
0.4

>  <PUBCHEM_CONFORMER_DIVERSEORDER>  (1) 
1
5
3
8
2
4
7
6

>  <PUBCHEM_MMFF94_PARTIAL_CHARGES>  (1) 
8
1 -0.57
10 -0.14
11 0.5
26 0.15
27 0.06
4 0.14
6 0.14
7 -0.28

>  <PUBCHEM_EFFECTIVE_ROTOR_COUNT>  (1) 
2

>  <PUBCHEM_PHARMACOPHORE_FEATURES>  (1) 
3
1 1 acceptor
3 2 8 9 hydrophobe
6 2 3 4 5 6 7 rings

>  <PUBCHEM_HEAVY_ATOM_COUNT>  (1) 
11

>  <PUBCHEM_ATOM_DEF_STEREO_COUNT>  (1) 
0

>  <PUBCHEM_ATOM_UDEF_STEREO_COUNT>  (1) 
0

>  <PUBCHEM_BOND_DEF_STEREO_COUNT>  (1) 
0

>  <PUBCHEM_BOND_UDEF_STEREO_COUNT>  (1) 
1

>  <PUBCHEM_ISOTOPIC_ATOM_COUNT>  (1) 
0

>  <PUBCHEM_COMPONENT_COUNT>  (1) 
1

>  <PUBCHEM_CACTVS_TAUTO_COUNT>  (1) 
1

>  <PUBCHEM_CONFORMER_ID>  (1) 
000082F900000001

>  <PUBCHEM_MMFF94_ENERGY>  (1) 
23.2212

>  <PUBCHEM_FEATURE_SELFOVERLAP>  (1) 
15.223

>  <PUBCHEM_SHAPE_FINGERPRINT>  (1) 
11206711 2 18267004210936231095
12423570 1 12979724385387162947
12716758 59 18130500933200877594
12932764 1 18114451332121874464
13024252 1 15285352950978137955
13380535 21 18410297977847904739
14325111 11 18411419514167805176
15310529 11 17531238422708243712
15775835 57 18333170557221515300
16945 1 18339065043289640873
18186145 218 18343579642581821256
20201158 50 17632584846589980318
20653085 51 18335145331676406600
21040471 1 18271228465890591755
23235685 24 18343297037769969577
23552423 10 18193268818073177226
23559900 14 18131351921843279648
2748010 2 18054773242332215865
369184 2 12247688174934014386
5084963 1 18261948647665303000
528862 383 18265894644784837747
528886 8 18271803497391720977
53812653 8 18129102229866987505
81228 2 17904470049960027027

>  <PUBCHEM_SHAPE_MULTIPOLES>  (1) 
220.51
4.66
1.55
1.02
3.33
0.73
0.23
-1.54
0.6
-0.53
0.09
-0.26
-0.23
-0.12

>  <PUBCHEM_SHAPE_SELFOVERLAP>  (1) 
436.126

>  <PUBCHEM_SHAPE_VOLUME>  (1) 
131.2

>  <PUBCHEM_COORDINATE_TYPE>  (1) 
2
5
10

$$$$
