33520
     RDKit          3D

 10 10  0  0  0  0  0  0  0  0999 V2000
    3.2972    0.1664    0.4967 O   0  0  0  0  0  0  0  0  0  0  0  0
    1.9646   -0.8830   -0.9057 O   0  0  0  0  0  0  0  0  0  0  0  0
    1.1719    0.8401    0.1794 N   0  0  0  0  0  0  0  0  0  0  0  0
   -0.4128   -0.9320    0.3367 N   0  0  0  0  0  0  0  0  0  0  0  0
    2.2240    0.0150   -0.0975 N   0  0  0  0  0  0  0  0  0  0  0  0
   -0.1665    0.3793    0.1191 C   0  0  0  0  0  0  0  0  0  0  0  0
   -1.1474    1.3164   -0.1632 C   0  0  0  0  0  0  0  0  0  0  0  0
   -2.4659    0.8796   -0.2256 C   0  0  0  0  0  0  0  0  0  0  0  0
   -2.7591   -0.4621   -0.0073 C   0  0  0  0  0  0  0  0  0  0  0  0
   -1.7061   -1.3196    0.2676 C   0  0  0  0  0  0  0  0  0  0  0  0
  1  5  1  0
  2  5  2  0
  3  5  1  0
  3  6  1  0
  4  6  2  0
  4 10  1  0
  6  7  1  0
  7  8  2  0
  8  9  1  0
  9 10  2  0
M  CHG  2   1  -1   5   1
M  END
>  <PUBCHEM_COMPOUND_CID>  (1) 
33520

>  <PUBCHEM_CONFORMER_RMSD>  (1) 
0.4

>  <PUBCHEM_CONFORMER_DIVERSEORDER>  (1) 
1
12
3
10
7
6
13
11
2
9
8
5
4

>  <PUBCHEM_MMFF94_PARTIAL_CHARGES>  (1) 
15
1 -0.52
10 0.16
11 0.15
12 0.15
13 0.4
14 0.15
15 0.15
2 -0.52
3 -0.5
4 -0.62
5 1.04
6 0.41
7 -0.15
8 -0.15
9 -0.15

>  <PUBCHEM_EFFECTIVE_ROTOR_COUNT>  (1) 
2

>  <PUBCHEM_PHARMACOPHORE_FEATURES>  (1) 
5
1 1 acceptor
1 2 acceptor
1 3 donor
1 4 acceptor
6 4 6 7 8 9 10 rings

>  <PUBCHEM_HEAVY_ATOM_COUNT>  (1) 
10

>  <PUBCHEM_ATOM_DEF_STEREO_COUNT>  (1) 
0

>  <PUBCHEM_ATOM_UDEF_STEREO_COUNT>  (1) 
0

>  <PUBCHEM_BOND_DEF_STEREO_COUNT>  (1) 
0

>  <PUBCHEM_BOND_UDEF_STEREO_COUNT>  (1) 
0

>  <PUBCHEM_ISOTOPIC_ATOM_COUNT>  (1) 
0

>  <PUBCHEM_COMPONENT_COUNT>  (1) 
1

>  <PUBCHEM_CACTVS_TAUTO_COUNT>  (1) 
2

>  <PUBCHEM_CONFORMER_ID>  (1) 
000082F000000001

>  <PUBCHEM_MMFF94_ENERGY>  (1) 
37.0787

>  <PUBCHEM_FEATURE_SELFOVERLAP>  (1) 
25.459

>  <PUBCHEM_SHAPE_FINGERPRINT>  (1) 
10857977 72 18340197591689878177
11062470 55 16272209686871839265
12716758 59 18265617593455422275
12897270 3 18411420600546585223
14325111 11 18409165480702217441
15310529 11 16272207457725822721
16714656 1 18334013891393471349
16945 1 18335707126330896525
20201158 50 18343864415792474974
20645464 45 18344142587865371592
20871998 184 18271248351605340711
21040471 1 18190175694295806041
23552423 10 18041562567137780309
29004967 10 17632861927398396040
369184 2 16128658535328612227

>  <PUBCHEM_SHAPE_MULTIPOLES>  (1) 
179.11
4.34
1.3
0.69
2.41
0.03
0.05
0.16
-0.03
-0.62
0.01
0.13
0.06
0.29

>  <PUBCHEM_SHAPE_SELFOVERLAP>  (1) 
370.222

>  <PUBCHEM_SHAPE_VOLUME>  (1) 
101.7

>  <PUBCHEM_COORDINATE_TYPE>  (1) 
2
5
10

$$$$
