33526
     RDKit          3D

 10  9  0  0  0  0  0  0  0  0999 V2000
    2.3340   -1.4254    1.0365 Cl  0  0  0  0  0  0  0  0  0  0  0  0
    2.3126    1.4884    0.9479 Cl  0  0  0  0  0  0  0  0  0  0  0  0
    3.1414   -0.0344   -1.3778 Cl  0  0  0  0  0  0  0  0  0  0  0  0
   -2.3340   -1.4230   -1.0396 Cl  0  0  0  0  0  0  0  0  0  0  0  0
   -2.3126    1.4904   -0.9446 Cl  0  0  0  0  0  0  0  0  0  0  0  0
   -3.1413   -0.0374    1.3776 Cl  0  0  0  0  0  0  0  0  0  0  0  0
    0.5553   -0.0279   -0.5366 C   0  0  0  0  0  0  0  0  0  0  0  0
   -0.5553   -0.0291    0.5366 C   0  0  0  0  0  0  0  0  0  0  0  0
    1.9966   -0.0009    0.0074 C   0  0  0  0  0  0  0  0  0  0  0  0
   -1.9967   -0.0008   -0.0074 C   0  0  0  0  0  0  0  0  0  0  0  0
  1  9  1  0
  2  9  1  0
  3  9  1  0
  4 10  1  0
  5 10  1  0
  6 10  1  0
  7  8  1  0
  7  9  1  0
  8 10  1  0
M  END
>  <PUBCHEM_COMPOUND_CID>  (1) 
33526

>  <PUBCHEM_CONFORMER_RMSD>  (1) 
0.6

>  <PUBCHEM_CONFORMER_DIVERSEORDER>  (1) 
1

>  <PUBCHEM_MMFF94_PARTIAL_CHARGES>  (1) 
8
1 -0.29
10 0.87
2 -0.29
3 -0.29
4 -0.29
5 -0.29
6 -0.29
9 0.87

>  <PUBCHEM_EFFECTIVE_ROTOR_COUNT>  (1) 
3

>  <PUBCHEM_PHARMACOPHORE_FEATURES>  (1) 
0

>  <PUBCHEM_HEAVY_ATOM_COUNT>  (1) 
10

>  <PUBCHEM_ATOM_DEF_STEREO_COUNT>  (1) 
0

>  <PUBCHEM_ATOM_UDEF_STEREO_COUNT>  (1) 
0

>  <PUBCHEM_BOND_DEF_STEREO_COUNT>  (1) 
0

>  <PUBCHEM_BOND_UDEF_STEREO_COUNT>  (1) 
0

>  <PUBCHEM_ISOTOPIC_ATOM_COUNT>  (1) 
0

>  <PUBCHEM_COMPONENT_COUNT>  (1) 
1

>  <PUBCHEM_CACTVS_TAUTO_COUNT>  (1) 
1

>  <PUBCHEM_CONFORMER_ID>  (1) 
000082F600000001

>  <PUBCHEM_MMFF94_ENERGY>  (1) 
10.5896

>  <PUBCHEM_FEATURE_SELFOVERLAP>  (1) 
0

>  <PUBCHEM_SHAPE_FINGERPRINT>  (1) 
12932741 1 18131627893901345236
12932764 1 18410855460128168294
14325111 11 17240490173524082025
15310529 11 18040724640540730911
15775835 57 18410577287981373223
16945 1 18059855000239117805
170605 34 17986946556591073928
18186145 218 18130788957828556672
23235687 12 18131347526952220273
3248919 1 17131541799689646599
369184 2 18411410718164388705
74978 22 17988641874075726540
8030462 33 18113612387163667799

>  <PUBCHEM_SHAPE_MULTIPOLES>  (1) 
217.01
5.73
1.52
1.49
0
0.09
0
-0.04
0
0
0
0
-0.06
-0.01

>  <PUBCHEM_SHAPE_SELFOVERLAP>  (1) 
352.107

>  <PUBCHEM_SHAPE_VOLUME>  (1) 
146.9

>  <PUBCHEM_COORDINATE_TYPE>  (1) 
2
5
10

$$$$
