33538
     RDKit          3D

 21 20  0  0  0  0  0  0  0  0999 V2000
    9.7368   -1.2154    0.6243 O   0  0  0  0  0  0  0  0  0  0  0  0
    9.0761    0.2490   -1.0309 O   0  0  0  0  0  0  0  0  0  0  0  0
    2.4443    0.2303    0.2014 C   0  0  0  0  0  0  0  0  0  0  0  0
    3.8206    0.4405   -0.4355 C   0  0  0  0  0  0  0  0  0  0  0  0
    1.3317    1.0370   -0.4766 C   0  0  0  0  0  0  0  0  0  0  0  0
    4.9463   -0.3095    0.2856 C   0  0  0  0  0  0  0  0  0  0  0  0
   -0.0579    0.7737    0.1084 C   0  0  0  0  0  0  0  0  0  0  0  0
    6.3346   -0.0402   -0.3054 C   0  0  0  0  0  0  0  0  0  0  0  0
   -8.1333   -0.5884   -0.3619 C   0  0  0  0  0  0  0  0  0  0  0  0
   -7.2011    0.1007    0.6360 C   0  0  0  0  0  0  0  0  0  0  0  0
   -9.5372   -0.7654    0.2190 C   0  0  0  0  0  0  0  0  0  0  0  0
   -5.8063    0.3081    0.0430 C   0  0  0  0  0  0  0  0  0  0  0  0
   -1.1241    1.6116   -0.5990 C   0  0  0  0  0  0  0  0  0  0  0  0
    7.4449   -0.7450    0.4756 C   0  0  0  0  0  0  0  0  0  0  0  0
  -10.4776   -1.4237   -0.7902 C   0  0  0  0  0  0  0  0  0  0  0  0
   -4.8649    0.9664    1.0514 C   0  0  0  0  0  0  0  0  0  0  0  0
  -11.8653   -1.6319   -0.2050 C   0  0  0  0  0  0  0  0  0  0  0  0
   -2.4516    1.3827   -0.0128 C   0  0  0  0  0  0  0  0  0  0  0  0
    8.8262   -0.4825   -0.0828 C   0  0  0  0  0  0  0  0  0  0  0  0
   -3.5378    1.1958    0.4645 C   0  0  0  0  0  0  0  0  0  0  0  0
   11.0954   -1.0938    0.1910 C   0  0  0  0  0  0  0  0  0  0  0  0
  1 19  1  0
  1 21  1  0
  2 19  2  0
  3  4  1  0
  3  5  1  0
  4  6  1  0
  5  7  1  0
  6  8  1  0
  7 13  1  0
  8 14  1  0
  9 10  1  0
  9 11  1  0
 10 12  1  0
 11 15  1  0
 12 16  1  0
 13 18  1  0
 14 19  1  0
 15 17  1  0
 16 20  1  0
 18 20  3  0
M  END
>  <PUBCHEM_COMPOUND_CID>  (1) 
33538

>  <PUBCHEM_CONFORMER_RMSD>  (1) 
1.6

>  <PUBCHEM_CONFORMER_DIVERSEORDER>  (1) 
1
29
10
36
31
6
56
19
58
34
23
2
39
14
22
44
33
45
18
43
57
30
48
54
11
37
47
51
60
7
8
61
32
9
53
55
59
27
38
28
46
25
24
17
16
12
62
3
42
5
40
49
4
52
13
15
21
20
26
41
50
35

>  <PUBCHEM_MMFF94_PARTIAL_CHARGES>  (1) 
9
1 -0.43
13 0.2
14 0.06
16 0.2
18 -0.2
19 0.66
2 -0.57
20 -0.2
21 0.28

>  <PUBCHEM_EFFECTIVE_ROTOR_COUNT>  (1) 
14

>  <PUBCHEM_PHARMACOPHORE_FEATURES>  (1) 
2
1 17 hydrophobe
1 2 acceptor

>  <PUBCHEM_HEAVY_ATOM_COUNT>  (1) 
21

>  <PUBCHEM_ATOM_DEF_STEREO_COUNT>  (1) 
0

>  <PUBCHEM_ATOM_UDEF_STEREO_COUNT>  (1) 
0

>  <PUBCHEM_BOND_DEF_STEREO_COUNT>  (1) 
0

>  <PUBCHEM_BOND_UDEF_STEREO_COUNT>  (1) 
0

>  <PUBCHEM_ISOTOPIC_ATOM_COUNT>  (1) 
0

>  <PUBCHEM_COMPONENT_COUNT>  (1) 
1

>  <PUBCHEM_CACTVS_TAUTO_COUNT>  (1) 
1

>  <PUBCHEM_CONFORMER_ID>  (1) 
0000830200000001

>  <PUBCHEM_MMFF94_ENERGY>  (1) 
2.5676

>  <PUBCHEM_FEATURE_SELFOVERLAP>  (1) 
10.148

>  <PUBCHEM_SHAPE_FINGERPRINT>  (1) 
106641 1 16917067758988662385
11463208 3 18272092635709452798
12498461 61 17560795568472200815
14202775 3 18341056242153938622
14251764 46 18410575084663085419
14251920 17 18409168853681652380
14344974 52 13479141224609445285
15247644 1 18342176661049599943
155225 1 8718831990388797215
15690457 1 18411136939853520409
15706992 2 13830131711278576912
18335252 98 17418096498804053622
21095086 128 18411138013927647472
21102433 48 18410570682364818507
21360443 89 18343298171641426785
232437 2 18410856559639789571
23399689 5 11097849684833627599
23524908 199 13045935777843641472
246663 6 18342177756581933232
3092352 35 18343023273657585582
33684 2 18410575080368118120
57828716 8 18409162212243220042
59521270 166 18040429968400663901
59682541 35 16702301252046194728
67123 10 18408605851507673648
9663363 56 15285358432269102556
9953998 17 14189571958599423957

>  <PUBCHEM_SHAPE_MULTIPOLES>  (1) 
420.43
49.82
1.47
0.85
3.99
0
0
35.46
-1.51
1.99
-0.06
0.15
-0.05
-1.65

>  <PUBCHEM_SHAPE_SELFOVERLAP>  (1) 
773.521

>  <PUBCHEM_SHAPE_VOLUME>  (1) 
263.3

>  <PUBCHEM_COORDINATE_TYPE>  (1) 
2
5
10

$$$$
