33536
     RDKit          3D

 22 24  0  0  0  0  0  0  0  0999 V2000
    3.5386   -0.9217    0.3654 O   0  0  0  0  0  0  0  0  0  0  0  0
    3.0963    2.5869    0.6981 O   0  0  0  0  0  0  0  0  0  0  0  0
    3.7410   -0.6028   -1.9226 O   0  0  0  0  0  0  0  0  0  0  0  0
    2.7668    0.2835    0.4100 N   0  0  0  0  0  0  0  0  0  0  0  0
   -1.4490    0.3509   -0.0352 C   0  0  0  0  0  0  0  0  0  0  0  0
   -2.8827    0.3267   -0.1656 C   0  0  0  0  0  0  0  0  0  0  0  0
   -0.7861   -0.7696    0.5302 C   0  0  0  0  0  0  0  0  0  0  0  0
   -3.5987   -0.8173    0.2743 C   0  0  0  0  0  0  0  0  0  0  0  0
    0.6122   -0.7769    0.6713 C   0  0  0  0  0  0  0  0  0  0  0  0
   -0.6319    1.4364   -0.4392 C   0  0  0  0  0  0  0  0  0  0  0  0
    1.3800    0.3089    0.2622 C   0  0  0  0  0  0  0  0  0  0  0  0
   -1.5255   -1.8775    0.9518 C   0  0  0  0  0  0  0  0  0  0  0  0
   -2.9106   -1.9011    0.8257 C   0  0  0  0  0  0  0  0  0  0  0  0
    0.7579    1.4161   -0.2934 C   0  0  0  0  0  0  0  0  0  0  0  0
   -3.6498    1.3854   -0.7134 C   0  0  0  0  0  0  0  0  0  0  0  0
   -4.9984   -0.8723    0.1610 C   0  0  0  0  0  0  0  0  0  0  0  0
   -5.0416    1.3178   -0.8203 C   0  0  0  0  0  0  0  0  0  0  0  0
   -5.7160    0.1885   -0.3829 C   0  0  0  0  0  0  0  0  0  0  0  0
    3.5426    1.4417    0.6172 C   0  0  0  0  0  0  0  0  0  0  0  0
    5.0365    1.2403    0.7578 C   0  0  0  0  0  0  0  0  0  0  0  0
    3.9612   -1.2374   -0.8999 C   0  0  0  0  0  0  0  0  0  0  0  0
    4.7571   -2.5063   -0.8526 C   0  0  0  0  0  0  0  0  0  0  0  0
  1  4  1  0
  1 21  1  0
  2 19  2  0
  3 21  2  0
  4 11  1  0
  4 19  1  0
  5  6  1  0
  5  7  1  0
  5 10  2  0
  6  8  2  0
  6 15  1  0
  7  9  2  0
  7 12  1  0
  8 13  1  0
  8 16  1  0
  9 11  1  0
 10 14  1  0
 11 14  2  0
 12 13  2  0
 15 17  2  0
 16 18  2  0
 17 18  1  0
 19 20  1  0
 21 22  1  0
M  END
>  <PUBCHEM_COMPOUND_CID>  (1) 
33536

>  <PUBCHEM_CONFORMER_RMSD>  (1) 
0.6

>  <PUBCHEM_CONFORMER_DIVERSEORDER>  (1) 
1
50
42
28
46
38
36
29
41
37
47
33
16
15
10
43
25
34
21
4
9
51
26
13
31
39
24
48
45
49
20
40
17
8
27
11
35
30
44
18
19
5
32
12
2
22
23
7
3
6
14

>  <PUBCHEM_MMFF94_PARTIAL_CHARGES>  (1) 
27
1 -0.19
10 -0.15
11 0.12
12 -0.15
13 -0.15
14 -0.15
15 -0.15
16 -0.15
17 -0.15
18 -0.15
19 0.57
2 -0.57
20 0.06
21 0.66
22 0.06
23 0.15
24 0.15
25 0.15
26 0.15
27 0.15
28 0.15
29 0.15
3 -0.57
30 0.15
31 0.15
4 -0.14
9 -0.15

>  <PUBCHEM_EFFECTIVE_ROTOR_COUNT>  (1) 
4

>  <PUBCHEM_PHARMACOPHORE_FEATURES>  (1) 
5
1 2 acceptor
1 3 acceptor
6 5 6 7 8 12 13 rings
6 5 7 9 10 11 14 rings
6 6 8 15 16 17 18 rings

>  <PUBCHEM_HEAVY_ATOM_COUNT>  (1) 
22

>  <PUBCHEM_ATOM_DEF_STEREO_COUNT>  (1) 
0

>  <PUBCHEM_ATOM_UDEF_STEREO_COUNT>  (1) 
0

>  <PUBCHEM_BOND_DEF_STEREO_COUNT>  (1) 
0

>  <PUBCHEM_BOND_UDEF_STEREO_COUNT>  (1) 
0

>  <PUBCHEM_ISOTOPIC_ATOM_COUNT>  (1) 
0

>  <PUBCHEM_COMPONENT_COUNT>  (1) 
1

>  <PUBCHEM_CACTVS_TAUTO_COUNT>  (1) 
1

>  <PUBCHEM_CONFORMER_ID>  (1) 
0000830000000001

>  <PUBCHEM_MMFF94_ENERGY>  (1) 
79.0112

>  <PUBCHEM_FEATURE_SELFOVERLAP>  (1) 
25.42

>  <PUBCHEM_SHAPE_FINGERPRINT>  (1) 
10670039 82 17241048682465541422
12236239 1 17989486321483040897
12390115 104 18263648356221561437
12403259 415 18259981544745202301
12592029 89 17632579305897870895
12916748 109 18260267456169714217
12954195 1 18123193407018621229
13134695 92 17489583489151915745
13533116 47 17988924465780903146
13544592 145 18408888412562457990
13583140 156 17202194316794021051
13675066 3 18335421317816586897
14386348 63 18411140251146776530
14573314 32 18409731759360749445
14866123 147 17622171165572885592
15196674 1 18334008406830952361
15375358 24 18410007775333728530
15536298 74 18409727387120984753
15788980 27 17203607065014061941
15848702 151 17988366979094512527
17349148 13 14549022095625993085
17804303 29 18260269668230774373
17844677 252 18272092669272020977
1813 80 16660359298625610773
18186145 218 18260824878220728597
200 152 17489868215729598579
20369508 70 18341328895330516026
20645477 56 18261951946537939425
20645477 70 17989491805623658158
21065201 7 18113898277525163891
21267235 1 18260274053835553755
21279426 13 18337668595045865085
21521239 73 18200578264544093999
2215653 11 18412545383867614575
23175994 123 18131634482935227817
23402539 116 18335971073925925973
23557571 272 18261673765759070160
23559900 14 18410012135253080496
239999 70 18411981360747303822
3004659 81 18041002778982513014
335352 9 18261668182111492975
3545911 37 18411698828760427584
3759504 43 16588315977333862563
4214541 1 18333725849396226841
445580 125 18200603475754318297
495365 180 17917419982469751024
4990 188 18410855434368985583
5104073 3 18333446547794164689
5281201 14 18413672409013774844
5283173 99 18409726218879830797
633830 44 18410000036198222175
9709674 26 18337392754765475331
9981440 41 16379746592814886445

>  <PUBCHEM_SHAPE_MULTIPOLES>  (1) 
430.16
12.16
2.27
1.07
0.82
0.19
-0.25
0.31
-2.1
-1.57
0.1
-0.79
0.18
2.29

>  <PUBCHEM_SHAPE_SELFOVERLAP>  (1) 
944.704

>  <PUBCHEM_SHAPE_VOLUME>  (1) 
232.1

>  <PUBCHEM_COORDINATE_TYPE>  (1) 
2
5
10

$$$$
