33543
     RDKit          3D

 11 10  0  0  0  0  0  0  0  0999 V2000
    1.5837   -0.0708   -0.2093 O   0  0  0  0  0  0  0  0  0  0  0  0
    3.9121   -1.3859    0.6324 O   0  0  0  0  0  0  0  0  0  0  0  0
    0.4806    1.9190    0.1935 O   0  0  0  0  0  0  0  0  0  0  0  0
   -4.2755    0.3656    0.1924 O   0  0  0  0  0  0  0  0  0  0  0  0
   -3.1928   -1.5952   -0.2068 O   0  0  0  0  0  0  0  0  0  0  0  0
    2.8446    0.6049   -0.1601 C   0  0  0  0  0  0  0  0  0  0  0  0
    3.9548   -0.4016   -0.3935 C   0  0  0  0  0  0  0  0  0  0  0  0
    0.4909    0.7161   -0.0148 C   0  0  0  0  0  0  0  0  0  0  0  0
   -0.7060   -0.1513   -0.0980 C   0  0  0  0  0  0  0  0  0  0  0  0
   -1.9199    0.3897    0.0639 C   0  0  0  0  0  0  0  0  0  0  0  0
   -3.1725   -0.3905    0.0003 C   0  0  0  0  0  0  0  0  0  0  0  0
  1  6  1  0
  1  8  1  0
  2  7  1  0
  3  8  2  0
  4 11  1  0
  5 11  2  0
  6  7  1  0
  8  9  1  0
  9 10  2  0
 10 11  1  0
M  END
>  <PUBCHEM_COMPOUND_CID>  (1) 
33543

>  <PUBCHEM_CONFORMER_RMSD>  (1) 
0.6

>  <PUBCHEM_CONFORMER_DIVERSEORDER>  (1) 
1
46
41
2
43
25
3
36
13
49
48
45
16
10
24
33
40
6
27
22
34
23
5
21
38
7
32
30
35
4
31
18
29
11
26
9
50
8
19
42
28
44
20
37
14
47
17
12
39
15

>  <PUBCHEM_MMFF94_PARTIAL_CHARGES>  (1) 
15
1 -0.43
10 -0.14
11 0.71
16 0.15
17 0.15
18 0.4
19 0.5
2 -0.68
3 -0.57
4 -0.65
5 -0.57
6 0.28
7 0.28
8 0.71
9 -0.14

>  <PUBCHEM_EFFECTIVE_ROTOR_COUNT>  (1) 
5

>  <PUBCHEM_PHARMACOPHORE_FEATURES>  (1) 
6
1 2 acceptor
1 2 donor
1 3 acceptor
1 4 acceptor
1 5 acceptor
3 4 5 11 anion

>  <PUBCHEM_HEAVY_ATOM_COUNT>  (1) 
11

>  <PUBCHEM_ATOM_DEF_STEREO_COUNT>  (1) 
0

>  <PUBCHEM_ATOM_UDEF_STEREO_COUNT>  (1) 
0

>  <PUBCHEM_BOND_DEF_STEREO_COUNT>  (1) 
0

>  <PUBCHEM_BOND_UDEF_STEREO_COUNT>  (1) 
1

>  <PUBCHEM_ISOTOPIC_ATOM_COUNT>  (1) 
0

>  <PUBCHEM_COMPONENT_COUNT>  (1) 
1

>  <PUBCHEM_CACTVS_TAUTO_COUNT>  (1) 
1

>  <PUBCHEM_CONFORMER_ID>  (1) 
0000830700000001

>  <PUBCHEM_MMFF94_ENERGY>  (1) 
17.6861

>  <PUBCHEM_FEATURE_SELFOVERLAP>  (1) 
30.505

>  <PUBCHEM_SHAPE_FINGERPRINT>  (1) 
10130415 120 18413110562882707976
11062470 55 12895074011440215405
11987891 38 18334297569456627634
12032990 46 18413394237014387054
124424 183 18412261731748594989
12932764 1 17386551570654598293
14252887 29 17988934361908019830
14325111 11 18340488975356607069
177051 138 18413672409251067334
18186145 218 14057006026774375468
20281407 28 18408605868101863512
20281475 54 18334858354630162455
20645477 70 18410012139216005014
20871998 22 18130234735734016790
21293036 1 12757153480333276404
22485316 2 18410008849260136254

>  <PUBCHEM_SHAPE_MULTIPOLES>  (1) 
197.03
8.03
1.33
0.63
0.28
0.06
0
-2.83
0.18
0.17
0.1
0.19
-0.05
-0.33

>  <PUBCHEM_SHAPE_SELFOVERLAP>  (1) 
378.104

>  <PUBCHEM_SHAPE_VOLUME>  (1) 
119.2

>  <PUBCHEM_COORDINATE_TYPE>  (1) 
2
5
10

$$$$
