33548
     RDKit          3D

 29 33  0  0  1  0  0  0  0  0999 V2000
    1.5594   -1.3924    0.5097 O   0  0  0  0  0  0  0  0  0  0  0  0
   -4.5453    0.7799    2.1939 O   0  0  0  0  0  0  0  0  0  0  0  0
   -7.1064   -0.7652   -0.3536 O   0  0  0  0  0  0  0  0  0  0  0  0
    5.3756   -1.4025    0.1736 O   0  0  0  0  0  0  0  0  0  0  0  0
    7.3445   -0.8583    1.1711 O   0  0  0  0  0  0  0  0  0  0  0  0
    0.7435   -0.4740   -0.2329 C   0  0  0  0  0  0  0  0  0  0  0  0
    1.3567    0.9523   -0.1792 C   0  0  0  0  0  0  0  0  0  0  0  0
   -0.7053   -0.5585    0.3209 C   0  0  0  0  0  0  0  0  0  0  0  0
   -1.6585    0.5166   -0.2699 C   0  0  0  0  0  0  0  0  0  0  0  0
   -3.1266    0.4292    0.3040 C   0  0  0  0  0  0  0  0  0  0  0  0
    2.5857    0.8424   -1.1364 C   0  0  0  0  0  0  0  0  0  0  0  0
    0.3569    1.9874   -0.7648 C   0  0  0  0  0  0  0  0  0  0  0  0
   -1.0319    1.9173   -0.1323 C   0  0  0  0  0  0  0  0  0  0  0  0
    0.8934   -0.8725   -1.7126 C   0  0  0  0  0  0  0  0  0  0  0  0
   -1.3027   -1.9672    0.1342 C   0  0  0  0  0  0  0  0  0  0  0  0
    2.1242   -0.1237   -2.2435 C   0  0  0  0  0  0  0  0  0  0  0  0
   -3.6177   -1.0211    0.2190 C   0  0  0  0  0  0  0  0  0  0  0  0
    1.7543    1.3989    1.2425 C   0  0  0  0  0  0  0  0  0  0  0  0
   -2.6885   -2.0790    0.7577 C   0  0  0  0  0  0  0  0  0  0  0  0
   -4.0461    1.3703   -0.5376 C   0  0  0  0  0  0  0  0  0  0  0  0
   -3.2003    0.8735    1.7846 C   0  0  0  0  0  0  0  0  0  0  0  0
    3.8624    0.3496   -0.5179 C   0  0  0  0  0  0  0  0  0  0  0  0
   -5.5277    1.0453   -0.3854 C   0  0  0  0  0  0  0  0  0  0  0  0
   -4.8091   -1.3655   -0.3042 C   0  0  0  0  0  0  0  0  0  0  0  0
   -5.8160   -0.3871   -0.8246 C   0  0  0  0  0  0  0  0  0  0  0  0
    4.8017    1.3181   -0.0153 C   0  0  0  0  0  0  0  0  0  0  0  0
    4.1832   -0.9432   -0.4037 C   0  0  0  0  0  0  0  0  0  0  0  0
    5.9526    0.9321    0.5440 C   0  0  0  0  0  0  0  0  0  0  0  0
    6.2880   -0.5027    0.6588 C   0  0  0  0  0  0  0  0  0  0  0  0
  1  6  1  0
  2 21  1  0
  3 25  1  0
  4 27  1  0
  4 29  1  0
  5 29  2  0
  6  7  1  0
  6  8  1  0
  6 14  1  0
  7 11  1  0
  7 12  1  0
  7 18  1  0
  8  9  1  0
  8 15  1  0
  9 10  1  0
  9 13  1  0
 10 17  1  0
 10 20  1  0
 10 21  1  0
 11 16  1  0
 11 22  1  0
 12 13  1  0
 14 16  1  0
 15 19  1  0
 17 19  1  0
 17 24  2  0
 20 23  1  0
 22 26  1  0
 22 27  2  0
 23 25  1  0
 24 25  1  0
 26 28  2  0
 28 29  1  0
M  END
>  <PUBCHEM_COMPOUND_CID>  (1) 
33548

>  <PUBCHEM_CONFORMER_RMSD>  (1) 
0.8

>  <PUBCHEM_CONFORMER_DIVERSEORDER>  (1) 
1
9
18
19
6
20
26
4
17
12
8
16
23
24
3
2
13
11
14
25
22
21
15
7
10
5

>  <PUBCHEM_MMFF94_PARTIAL_CHARGES>  (1) 
25
1 -0.68
10 0.14
11 0.14
17 -0.28
19 0.14
2 -0.68
21 0.28
22 -0.14
24 -0.29
25 0.42
26 -0.15
27 -0.07
28 -0.14
29 0.71
3 -0.68
4 -0.23
5 -0.57
52 0.4
55 0.15
57 0.15
58 0.15
59 0.4
6 0.28
60 0.4
61 0.15

>  <PUBCHEM_EFFECTIVE_ROTOR_COUNT>  (1) 
4

>  <PUBCHEM_PHARMACOPHORE_FEATURES>  (1) 
12
1 1 acceptor
1 1 donor
1 2 acceptor
1 2 donor
1 3 acceptor
1 3 donor
1 5 acceptor
5 6 7 11 14 16 rings
6 10 17 20 23 24 25 rings
6 4 22 26 27 28 29 rings
6 6 7 8 9 12 13 rings
6 8 9 10 15 17 19 rings

>  <PUBCHEM_HEAVY_ATOM_COUNT>  (1) 
29

>  <PUBCHEM_ATOM_DEF_STEREO_COUNT>  (1) 
4

>  <PUBCHEM_ATOM_UDEF_STEREO_COUNT>  (1) 
3

>  <PUBCHEM_BOND_DEF_STEREO_COUNT>  (1) 
0

>  <PUBCHEM_BOND_UDEF_STEREO_COUNT>  (1) 
0

>  <PUBCHEM_ISOTOPIC_ATOM_COUNT>  (1) 
0

>  <PUBCHEM_COMPONENT_COUNT>  (1) 
1

>  <PUBCHEM_CACTVS_TAUTO_COUNT>  (1) 
1

>  <PUBCHEM_CONFORMER_ID>  (1) 
0000830C00000001

>  <PUBCHEM_MMFF94_ENERGY>  (1) 
106.6107

>  <PUBCHEM_FEATURE_SELFOVERLAP>  (1) 
61.1

>  <PUBCHEM_SHAPE_FINGERPRINT>  (1) 
10 15 18272356608725262280
106641 1 17489579096038168146
10906281 52 18270702929186386661
11045977 3 18341893017772839200
11315181 36 18202003252302323393
11578080 2 16484698126318081234
11796584 16 16225768536244523472
12107698 1 16917347056670214297
12166972 35 18261674869718893069
12236239 1 17385443249653136054
12516196 113 18272367577001097368
12596602 18 14117524228919713503
13140716 1 18266191697449837825
13224815 77 18202291303369738749
13533116 47 18334854975277247842
13590594 115 15719389521081596148
13782708 43 17131005174155364006
13862211 1 18334294266573717716
13914758 101 17676761003327576477
14251764 18 18341894112947275544
14849402 71 16701729579357561960
14856354 85 13984665841179159091
15142383 8 16081078273643739390
15183329 4 18259990370380574318
15788980 27 17894355483566150364
15849732 13 17458060477877173822
17349148 13 18272941535018800549
17857418 61 18333729109408104370
17980427 23 17846510239721778273
1813 80 16732704939778969262
18608769 82 18260833752557124859
19377110 9 16702307844984582767
200 152 17704074010612708741
20511986 3 18338785775762849791
21130935 74 17917433081756604414
21267235 1 18333736831722392195
21521721 280 9295286170833011166
21792961 116 11819257946444605080
21859007 373 17677597701179410244
22079108 93 15410610406884219982
22224240 67 16845566535188358086
23402539 116 18410289216014095573
23559900 14 18268140032592242721
23569917 315 18409454691195778843
23622692 88 15213017150539158583
3004659 81 18040716970340946708
335352 9 18261110789893238735
3383291 50 18114465647427831467
34797466 226 15698006274995836528
3633792 109 18262227834136848359
392239 28 18341617001451940984
404807 14 17261038719041191362
4073 2 17749674107922920706
4325135 7 16630526245376265060
4340502 62 16128938928116028812
474 4 14261343683481699322
5104073 3 18338245971641329920
559249 180 18186798080353447787
59755656 215 18186801344797877878
59755656 520 17968088759833772935
7226269 152 18410014320959223024

>  <PUBCHEM_SHAPE_MULTIPOLES>  (1) 
567.46
15.47
1.9
1.42
5.77
0.08
0.02
2.19
-2.64
-0.47
-0.13
-0.03
-0.14
-0.33

>  <PUBCHEM_SHAPE_SELFOVERLAP>  (1) 
1237.323

>  <PUBCHEM_SHAPE_VOLUME>  (1) 
303.8

>  <PUBCHEM_COORDINATE_TYPE>  (1) 
2
5
10

$$$$
