33555
     RDKit          3D

 25 26  0  0  1  0  0  0  0  0999 V2000
   -1.8091    1.7626   -0.3152 O   0  0  0  0  0  0  0  0  0  0  0  0
    0.5947   -0.9700    0.5674 O   0  0  0  0  0  0  0  0  0  0  0  0
    4.0306   -0.1994    1.1746 O   0  0  0  0  0  0  0  0  0  0  0  0
    3.7246    1.1911   -1.3429 O   0  0  0  0  0  0  0  0  0  0  0  0
    1.8172   -0.6632    2.4909 O   0  0  0  0  0  0  0  0  0  0  0  0
   -2.4839    2.9641    1.5389 O   0  0  0  0  0  0  0  0  0  0  0  0
   -3.4264   -1.2650   -1.1602 N   0  0  0  0  0  0  0  0  0  0  0  0
   -2.2259   -0.6180   -0.5468 C   0  0  0  0  0  0  0  0  0  0  0  0
   -2.7105    0.7205    0.0141 C   0  0  0  0  0  0  0  0  0  0  0  0
   -4.0532    0.9320   -0.6638 C   0  0  0  0  0  0  0  0  0  0  0  0
   -4.5967   -0.4795   -0.7395 C   0  0  0  0  0  0  0  0  0  0  0  0
   -1.7142   -1.5902    0.4726 C   0  0  0  0  0  0  0  0  0  0  0  0
   -3.4643   -2.6494   -0.6412 C   0  0  0  0  0  0  0  0  0  0  0  0
   -2.4125   -2.7276    0.4140 C   0  0  0  0  0  0  0  0  0  0  0  0
   -0.5575   -1.2891    1.3541 C   0  0  0  0  0  0  0  0  0  0  0  0
    2.8879   -0.3575    0.3177 C   0  0  0  0  0  0  0  0  0  0  0  0
    3.2084   -1.5591   -0.6215 C   0  0  0  0  0  0  0  0  0  0  0  0
    2.6528    0.9889   -0.4136 C   0  0  0  0  0  0  0  0  0  0  0  0
    1.7267   -0.6735    1.2686 C   0  0  0  0  0  0  0  0  0  0  0  0
   -1.7946    2.8354    0.5363 C   0  0  0  0  0  0  0  0  0  0  0  0
    2.9999   -2.9188    0.0662 C   0  0  0  0  0  0  0  0  0  0  0  0
    2.4590   -1.5500   -1.9570 C   0  0  0  0  0  0  0  0  0  0  0  0
    2.6130    2.2027    0.5120 C   0  0  0  0  0  0  0  0  0  0  0  0
   -0.7995    3.8524    0.0656 C   0  0  0  0  0  0  0  0  0  0  0  0
    3.3334    2.0604   -2.3913 C   0  0  0  0  0  0  0  0  0  0  0  0
  1  9  1  0
  1 20  1  0
  2 15  1  0
  2 19  1  0
  3 16  1  0
  4 18  1  0
  4 25  1  0
  5 19  2  0
  6 20  2  0
  7  8  1  0
  7 11  1  0
  7 13  1  0
  8  9  1  0
  8 12  1  0
  9 10  1  0
 10 11  1  0
 12 14  2  0
 12 15  1  0
 13 14  1  0
 16 17  1  0
 16 18  1  0
 16 19  1  0
 17 21  1  0
 17 22  1  0
 18 23  1  0
 20 24  1  0
M  END
>  <PUBCHEM_COMPOUND_CID>  (1) 
33555

>  <PUBCHEM_CONFORMER_RMSD>  (1) 
1

>  <PUBCHEM_CONFORMER_DIVERSEORDER>  (1) 
1
373
126
50
310
290
253
168
277
285
150
439
237
271
463
364
229
347
308
170
457
178
233
228
45
353
345
319
38
105
437
236
164
238
400
202
98
130
136
226
419
135
415
365
468
80
118
255
227
466
217
224
18
390
161
203
299
30
461
392
370
154
315
459
359
440
372
247
114
112
354
284
376
219
234
225
147
448
330
24
153
322
406
414
232
360
142
351
52
356
317
331
297
358
113
371
250
71
436
78
452
430
180
91
386
445
200
93
60
381
209
128
158
81
316
68
377
398
70
272
404
107
421
454
342
173
259
444
207
244
44
366
145
374
90
241
389
294
231
174
106
438
124
361
10
166
77
84
309
157
242
201
88
13
213
41
443
9
115
152
121
190
282
181
434
278
110
55
291
433
63
111
408
163
87
3
151
235
137
119
89
311
220
329
223
355
2
449
122
432
40
314
5
306
264
17
338
335
123
208
275
85
252
388
337
401
379
99
206
261
318
349
455
273
357
402
195
280
303
324
420
4
56
162
305
270
42
258
32
450
31
51
307
464
431
7
312
416
196
169
214
328
288
167
409
204
391
26
28
15
395
340
66
397
212
375
394
192
267
103
19
97
104
327
425
79
249
469
146
12
48
61
141
300
239
426
11
378
387
125
171
193
54
411
117
333
183
292
34
429
343
156
393
286
127
321
298
336
412
274
100
279
257
134
410
58
6
144
246
197
382
29
160
296
148
384
352
268
276
140
230
8
269
82
301
101
75
240
348
427
260
92
109
248
339
36
186
176
467
287
23
96
21
194
460
222
289
143
458
14
94
184
332
47
188
346
191
422
185
43
442
149
199
102
46
159
33
182
399
251
27
187
334
65
462
205
283
86
139
302
175
341
323
35
22
405
281
155
380
62
428
465
189
367
326
304
263
69
73
76
67
385
131
20
215
407
417
362
418
396
198
72
108
320
49
456
116
53
95
221
172
262
451
59
265
64
369
25
177
179
295
133
39
368
210
350
453
447
74
254
293
165
37
403
16
423
132
57
120
138
245
129
413
383
435
325
344
424
313
441
211
446
266
218
83
363
243
216
256

>  <PUBCHEM_MMFF94_PARTIAL_CHARGES>  (1) 
22
1 -0.43
11 0.27
12 -0.28
13 0.41
14 -0.29
15 0.42
16 0.34
18 0.28
19 0.66
2 -0.43
20 0.66
24 0.06
25 0.28
3 -0.68
34 0.15
4 -0.56
48 0.4
5 -0.57
6 -0.57
7 -0.81
8 0.41
9 0.28

>  <PUBCHEM_EFFECTIVE_ROTOR_COUNT>  (1) 
9.8

>  <PUBCHEM_PHARMACOPHORE_FEATURES>  (1) 
9
1 3 acceptor
1 3 donor
1 4 acceptor
1 5 acceptor
1 6 acceptor
1 7 cation
3 17 21 22 hydrophobe
5 7 8 12 13 14 rings
5 7 8 9 10 11 rings

>  <PUBCHEM_HEAVY_ATOM_COUNT>  (1) 
25

>  <PUBCHEM_ATOM_DEF_STEREO_COUNT>  (1) 
1

>  <PUBCHEM_ATOM_UDEF_STEREO_COUNT>  (1) 
3

>  <PUBCHEM_BOND_DEF_STEREO_COUNT>  (1) 
0

>  <PUBCHEM_BOND_UDEF_STEREO_COUNT>  (1) 
0

>  <PUBCHEM_ISOTOPIC_ATOM_COUNT>  (1) 
0

>  <PUBCHEM_COMPONENT_COUNT>  (1) 
1

>  <PUBCHEM_CACTVS_TAUTO_COUNT>  (1) 
1

>  <PUBCHEM_CONFORMER_ID>  (1) 
0000831300000001

>  <PUBCHEM_MMFF94_ENERGY>  (1) 
52.2124

>  <PUBCHEM_FEATURE_SELFOVERLAP>  (1) 
46.048

>  <PUBCHEM_SHAPE_FINGERPRINT>  (1) 
10498660 4 18410572933074367773
11578080 2 17704067366113653920
12156800 1 14507182413845653460
12553582 1 18340494473004715553
12596599 1 18334017155294258254
12788726 201 18412832378294317529
13224815 77 17603871134468835203
14790565 3 18340488842962454273
15664445 248 18055355987879828329
19930381 70 17980195619314804039
20715895 44 17536282896880340917
21864079 5 18041561338909177849
23557571 272 18270950323581760019
23558518 356 18338520712135479179
23559900 14 18341040835573185974
469060 322 15359694316687778235
474 4 17313661667509679718
5262128 65 18411708707063583710
5895379 119 18339364059366631304
6786 2 16693352194180854969
81228 2 18341887477111956025
9709674 26 18343017778843597782
9981440 41 17752488934798718648

>  <PUBCHEM_SHAPE_MULTIPOLES>  (1) 
474.29
8.24
4.03
1.72
0.97
2.34
0.11
-1.08
2.66
1.09
-0.19
-1.45
0.14
-1.23

>  <PUBCHEM_SHAPE_SELFOVERLAP>  (1) 
969.004

>  <PUBCHEM_SHAPE_VOLUME>  (1) 
277.3

>  <PUBCHEM_COORDINATE_TYPE>  (1) 
2
5
10

$$$$
