33552
     RDKit          3D

 23 24  0  0  1  0  0  0  0  0999 V2000
    1.2598    1.8528    1.8904 O   0  0  0  0  0  0  0  0  0  0  0  0
   -1.9884   -3.0518   -0.1544 N   0  0  0  0  0  0  0  0  0  0  0  0
    0.1373    0.2009    0.4375 C   0  0  0  0  0  0  0  0  0  0  0  0
   -0.6900   -1.1239    0.7812 C   0  0  0  0  0  0  0  0  0  0  0  0
   -1.0969   -1.9388   -0.4815 C   0  0  0  0  0  0  0  0  0  0  0  0
   -0.5921    1.1988   -0.5216 C   0  0  0  0  0  0  0  0  0  0  0  0
    1.5160   -0.2501   -0.1458 C   0  0  0  0  0  0  0  0  0  0  0  0
    0.3099    1.0778    1.7470 C   0  0  0  0  0  0  0  0  0  0  0  0
    0.0267   -2.0733    1.7700 C   0  0  0  0  0  0  0  0  0  0  0  0
   -0.8074    1.0362    2.7933 C   0  0  0  0  0  0  0  0  0  0  0  0
    0.1852    1.9993   -1.2988 C   0  0  0  0  0  0  0  0  0  0  0  0
    1.6375   -0.2963   -1.4999 C   0  0  0  0  0  0  0  0  0  0  0  0
   -1.9519    1.1951   -0.5099 C   0  0  0  0  0  0  0  0  0  0  0  0
    2.4977   -0.5654    0.7416 C   0  0  0  0  0  0  0  0  0  0  0  0
   -2.3053   -3.8221   -1.3562 C   0  0  0  0  0  0  0  0  0  0  0  0
   -3.2126   -2.5578    0.4741 C   0  0  0  0  0  0  0  0  0  0  0  0
   -0.5068    1.9150    3.9970 C   0  0  0  0  0  0  0  0  0  0  0  0
   -0.4651    2.8892   -2.1537 C   0  0  0  0  0  0  0  0  0  0  0  0
    2.8674   -0.6992   -2.0203 C   0  0  0  0  0  0  0  0  0  0  0  0
   -2.6022    2.0849   -1.3648 C   0  0  0  0  0  0  0  0  0  0  0  0
    3.7276   -0.9682    0.2213 C   0  0  0  0  0  0  0  0  0  0  0  0
   -1.8588    2.9320   -2.1867 C   0  0  0  0  0  0  0  0  0  0  0  0
    3.9123   -1.0351   -1.1598 C   0  0  0  0  0  0  0  0  0  0  0  0
  1  8  2  0
  2  5  1  0
  2 15  1  0
  2 16  1  0
  3  4  1  0
  3  6  1  0
  3  7  1  0
  3  8  1  0
  4  5  1  0
  4  9  1  0
  6 11  2  0
  6 13  1  0
  7 12  2  0
  7 14  1  0
  8 10  1  0
 10 17  1  0
 11 18  1  0
 12 19  1  0
 13 20  2  0
 14 21  2  0
 18 22  2  0
 19 23  2  0
 20 22  1  0
 21 23  1  0
M  END
>  <PUBCHEM_COMPOUND_CID>  (1) 
33552

>  <PUBCHEM_CONFORMER_RMSD>  (1) 
0.8

>  <PUBCHEM_CONFORMER_DIVERSEORDER>  (1) 
1
6
12
5
11
10
4
2
8
9
7
13
3

>  <PUBCHEM_MMFF94_PARTIAL_CHARGES>  (1) 
30
1 -0.57
10 0.06
11 -0.15
12 -0.15
13 -0.15
14 -0.15
15 0.27
16 0.27
18 -0.15
19 -0.15
2 -0.81
20 -0.15
21 -0.15
22 -0.15
23 -0.15
3 0.35
32 0.15
33 0.15
34 0.15
35 0.15
45 0.15
46 0.15
47 0.15
48 0.15
49 0.15
5 0.27
50 0.15
6 -0.14
7 -0.14
8 0.45

>  <PUBCHEM_EFFECTIVE_ROTOR_COUNT>  (1) 
7

>  <PUBCHEM_PHARMACOPHORE_FEATURES>  (1) 
6
1 1 acceptor
1 17 hydrophobe
1 2 cation
1 9 hydrophobe
6 6 11 13 18 20 22 rings
6 7 12 14 19 21 23 rings

>  <PUBCHEM_HEAVY_ATOM_COUNT>  (1) 
23

>  <PUBCHEM_ATOM_DEF_STEREO_COUNT>  (1) 
1

>  <PUBCHEM_ATOM_UDEF_STEREO_COUNT>  (1) 
0

>  <PUBCHEM_BOND_DEF_STEREO_COUNT>  (1) 
0

>  <PUBCHEM_BOND_UDEF_STEREO_COUNT>  (1) 
0

>  <PUBCHEM_ISOTOPIC_ATOM_COUNT>  (1) 
0

>  <PUBCHEM_COMPONENT_COUNT>  (1) 
1

>  <PUBCHEM_CACTVS_TAUTO_COUNT>  (1) 
2

>  <PUBCHEM_CONFORMER_ID>  (1) 
0000831000000001

>  <PUBCHEM_MMFF94_ENERGY>  (1) 
97.8226

>  <PUBCHEM_FEATURE_SELFOVERLAP>  (1) 
30.446

>  <PUBCHEM_SHAPE_FINGERPRINT>  (1) 
11578080 2 18340775939286367152
11833330 49 18114175371508495740
12617007 42 17974564998995184799
12788726 201 17967542276267662246
13149001 5 17914020214685048960
13681431 1 17759253176997493142
14004458 79 18261110789787919278
14181834 199 17696479859297668190
14817 1 16841120062562204233
14863182 85 16973596735849477839
16945 1 18341334379386308244
17980427 23 16031780896750424531
17980427 26 15026019745938173649
20600515 1 18129118872728408303
20602899 9 18053099515210258166
21524375 3 16953099695729206908
229495 10 17681307419410029058
23419403 2 17915155005311325256
23559900 14 18196640819163790410
23598288 3 16881077393627038198
25222932 49 15816685335098763439
266924 78 16971968290187685841
298252 57 17679578939601908692
3052486 1 17897697999436744607
5895379 119 17833531768245648743
81228 2 18262247710533337634

>  <PUBCHEM_SHAPE_MULTIPOLES>  (1) 
462.48
4.45
4.02
3.16
4.4
4.17
-3.28
-0.11
2.31
-4.38
1.93
-1.11
-2.15
0.42

>  <PUBCHEM_SHAPE_SELFOVERLAP>  (1) 
972.017

>  <PUBCHEM_SHAPE_VOLUME>  (1) 
259.5

>  <PUBCHEM_COORDINATE_TYPE>  (1) 
2
5
10

$$$$
