3355
     RDKit          3D

 28 29  0  0  1  0  0  0  0  0999 V2000
    5.9464   -0.9164    0.3289 F   0  0  0  0  0  0  0  0  0  0  0  0
    5.9392   -0.6793   -1.8396 F   0  0  0  0  0  0  0  0  0  0  0  0
    4.3540   -1.8184   -0.8574 F   0  0  0  0  0  0  0  0  0  0  0  0
   -3.7634    4.3219    0.2949 F   0  0  0  0  0  0  0  0  0  0  0  0
   -4.4765    2.7607   -1.0514 F   0  0  0  0  0  0  0  0  0  0  0  0
   -2.7906    4.0231   -1.6341 F   0  0  0  0  0  0  0  0  0  0  0  0
    2.1661   -1.7502    0.9550 O   0  0  0  0  0  0  0  0  0  0  0  0
    3.5346    0.4265    0.5783 O   0  0  0  0  0  0  0  0  0  0  0  0
   -1.2763    3.1191    0.5256 O   0  0  0  0  0  0  0  0  0  0  0  0
   -2.3732   -3.9264   -0.9603 N   0  0  0  0  0  0  0  0  0  0  0  0
   -0.1147   -1.8414    1.0969 N   0  0  0  0  0  0  0  0  0  0  0  0
   -2.0139   -3.0686    0.1760 C   0  0  0  0  0  0  0  0  0  0  0  0
   -3.1544   -2.0956    0.5052 C   0  0  0  0  0  0  0  0  0  0  0  0
   -4.4596   -2.8422    0.7667 C   0  0  0  0  0  0  0  0  0  0  0  0
   -4.7728   -3.7920   -0.3843 C   0  0  0  0  0  0  0  0  0  0  0  0
   -0.7362   -2.3020   -0.1611 C   0  0  0  0  0  0  0  0  0  0  0  0
   -3.5848   -4.7009   -0.6902 C   0  0  0  0  0  0  0  0  0  0  0  0
    1.1382   -1.0893    0.9230 C   0  0  0  0  0  0  0  0  0  0  0  0
    1.1412    0.3808    0.7324 C   0  0  0  0  0  0  0  0  0  0  0  0
    2.3378    1.0784    0.5678 C   0  0  0  0  0  0  0  0  0  0  0  0
   -0.0734    1.0665    0.7180 C   0  0  0  0  0  0  0  0  0  0  0  0
   -0.0914    2.4497    0.5386 C   0  0  0  0  0  0  0  0  0  0  0  0
    2.3199    2.4616    0.3885 C   0  0  0  0  0  0  0  0  0  0  0  0
    1.1053    3.1472    0.3739 C   0  0  0  0  0  0  0  0  0  0  0  0
    4.3369    0.5265   -0.5962 C   0  0  0  0  0  0  0  0  0  0  0  0
   -2.4178    2.4097    0.0467 C   0  0  0  0  0  0  0  0  0  0  0  0
    5.1493   -0.7335   -0.7465 C   0  0  0  0  0  0  0  0  0  0  0  0
   -3.3699    3.3848   -0.5955 C   0  0  0  0  0  0  0  0  0  0  0  0
  1 27  1  0
  2 27  1  0
  3 27  1  0
  4 28  1  0
  5 28  1  0
  6 28  1  0
  7 18  2  0
  8 20  1  0
  8 25  1  0
  9 22  1  0
  9 26  1  0
 10 12  1  0
 10 17  1  0
 11 16  1  0
 11 18  1  0
 12 13  1  0
 12 16  1  0
 13 14  1  0
 14 15  1  0
 15 17  1  0
 18 19  1  0
 19 20  2  0
 19 21  1  0
 20 23  1  0
 21 22  2  0
 22 24  1  0
 23 24  2  0
 25 27  1  0
 26 28  1  0
M  CHG  1  11   1
M  END
>  <PUBCHEM_COMPOUND_CID>  (1) 
3355

>  <PUBCHEM_CONFORMER_RMSD>  (1) 
1

>  <PUBCHEM_CONFORMER_DIVERSEORDER>  (1) 
1
279
2
253
51
39
304
105
274
16
293
255
239
188
175
110
206
194
315
290
314
131
177
301
284
167
90
171
191
294
69
267
168
172
242
308
123
252
303
148
306
88
289
283
297
316
52
72
68
299
312
80
92
207
156
205
277
82
241
115
146
84
249
78
83
44
261
125
181
224
28
202
232
183
275
208
231
162
114
257
210
98
108
190
45
163
165
273
182
310
228
79
48
230
220
7
47
29
164
296
265
250
30
62
147
24
302
245
54
288
38
129
295
292
291
195
55
266
281
280
21
118
260
204
113
154
133
247
237
240
196
61
179
66
278
313
99
81
152
309
212
272
227
75
63
140
5
263
219
282
251
199
130
180
317
43
233
53
235
150
50
127
285
19
59
106
270
256
198
138
145
226
95
246
71
122
216
218
41
158
217
96
213
119
159
56
73
271
166
36
286
234
209
67
89
117
132
86
25
276
107
91
201
244
155
77
144
229
103
58
121
211
143
305
311
101
100
174
26
300
187
264
176
111
173
128
298
116
268
60
243
238
223
74
112
76
6
141
178
104
65
153
9
35
31
15
215
192
248
170
126
64
102
87
160
307
22
20
287
225
124
184
40
189
33
10
236
42
262
8
18
136
14
149
161
254
197
13
93
142
34
203
258
27
169
57
11
193
134
139
200
137
12
185
49
222
4
221
214
32
109
85
186
17
120
46
151
94
37
135
3
23
259
70
157
269
97

>  <PUBCHEM_MMFF94_PARTIAL_CHARGES>  (1) 
31
1 -0.34
10 -0.9
11 -0.8
12 0.27
16 0.5
17 0.27
18 0.88
19 0.09
2 -0.34
20 0.08
21 -0.15
22 0.08
23 -0.15
24 -0.15
25 0.28
26 0.28
27 1.02
28 1.02
3 -0.34
4 -0.34
40 0.36
41 0.45
42 0.45
43 0.15
44 0.15
45 0.15
5 -0.34
6 -0.34
7 -0.57
8 -0.36
9 -0.36

>  <PUBCHEM_EFFECTIVE_ROTOR_COUNT>  (1) 
11.2

>  <PUBCHEM_PHARMACOPHORE_FEATURES>  (1) 
8
1 10 cation
1 10 donor
1 11 donor
1 7 acceptor
1 8 acceptor
1 9 acceptor
6 10 12 13 14 15 17 rings
6 19 20 21 22 23 24 rings

>  <PUBCHEM_HEAVY_ATOM_COUNT>  (1) 
28

>  <PUBCHEM_ATOM_DEF_STEREO_COUNT>  (1) 
0

>  <PUBCHEM_ATOM_UDEF_STEREO_COUNT>  (1) 
1

>  <PUBCHEM_BOND_DEF_STEREO_COUNT>  (1) 
0

>  <PUBCHEM_BOND_UDEF_STEREO_COUNT>  (1) 
0

>  <PUBCHEM_ISOTOPIC_ATOM_COUNT>  (1) 
0

>  <PUBCHEM_COMPONENT_COUNT>  (1) 
1

>  <PUBCHEM_CACTVS_TAUTO_COUNT>  (1) 
2

>  <PUBCHEM_CONFORMER_ID>  (1) 
00000D1B00000001

>  <PUBCHEM_MMFF94_ENERGY>  (1) 
55.9717

>  <PUBCHEM_FEATURE_SELFOVERLAP>  (1) 
40.608

>  <PUBCHEM_SHAPE_FINGERPRINT>  (1) 
116883 192 18267869556899760752
11991303 11 18116440249592575351
12107183 9 18129117747995759107
12788726 201 18189614028674763328
13540713 4 18202558506571363608
13590594 115 18265057006019156211
13690498 29 18337968877615663398
138480 1 16538195517281277177
14117953 113 18413672431570065439
14251757 5 18410573959756245919
14556957 393 17972347211422591054
14681490 219 18194122047744418078
14790565 3 17907584627447642904
15081414 286 17760368090884147851
15210252 30 17249205169196191541
15484559 13 17835782128686296141
18335252 114 18123457548589435687
20775438 99 17840855288200982694
21307412 95 17912949192530338134
21344244 181 17912093750159700510
21478907 32 18340208599912642938
21860390 5 17330839526743885709
221357 26 18265892647604257703
244849 19 17560221605705232736
3103668 31 18335132108073313909
38695281 34 17975979765053223860
4058900 60 17761216518603227429
4409770 3 18410857625303570279
58779409 8 18337389340324588132
7164475 11 18265054815617600300

>  <PUBCHEM_SHAPE_MULTIPOLES>  (1) 
505.01
10.92
6.98
1.12
3.98
6.85
-0.25
-11.69
-3.34
-9.35
-2
0.31
-0.05
1.43

>  <PUBCHEM_SHAPE_SELFOVERLAP>  (1) 
1049.418

>  <PUBCHEM_SHAPE_VOLUME>  (1) 
287.8

>  <PUBCHEM_COORDINATE_TYPE>  (1) 
2
5
10

$$$$
