33551
     RDKit          3D

 16 17  0  0  0  0  0  0  0  0999 V2000
    4.8976   -1.0994   -0.3294 O   0  0  0  0  0  0  0  0  0  0  0  0
   -1.4108    0.0067   -0.0244 N   0  0  0  0  0  0  0  0  0  0  0  0
   -4.2536    0.1276    0.2267 N   0  0  0  0  0  0  0  0  0  0  0  0
   -2.1221    1.2532   -0.3240 C   0  0  0  0  0  0  0  0  0  0  0  0
   -2.1114   -0.9259    0.8675 C   0  0  0  0  0  0  0  0  0  0  0  0
   -3.5589    0.9598   -0.7630 C   0  0  0  0  0  0  0  0  0  0  0  0
   -3.5478   -1.1495    0.3891 C   0  0  0  0  0  0  0  0  0  0  0  0
   -0.0116   -0.0118   -0.0272 C   0  0  0  0  0  0  0  0  0  0  0  0
   -5.6404   -0.1007   -0.1776 C   0  0  0  0  0  0  0  0  0  0  0  0
    0.7303    1.1378    0.3107 C   0  0  0  0  0  0  0  0  0  0  0  0
    0.6980   -1.1810   -0.3669 C   0  0  0  0  0  0  0  0  0  0  0  0
    2.1250    1.1187    0.3092 C   0  0  0  0  0  0  0  0  0  0  0  0
    2.0927   -1.1999   -0.3685 C   0  0  0  0  0  0  0  0  0  0  0  0
    2.8063   -0.0501   -0.0304 C   0  0  0  0  0  0  0  0  0  0  0  0
    4.2606   -0.0695   -0.0308 C   0  0  0  0  0  0  0  0  0  0  0  0
    5.0460    1.1840    0.3390 C   0  0  0  0  0  0  0  0  0  0  0  0
  1 15  2  0
  2  4  1  0
  2  5  1  0
  2  8  1  0
  3  6  1  0
  3  7  1  0
  3  9  1  0
  4  6  1  0
  5  7  1  0
  8 10  2  0
  8 11  1  0
 10 12  1  0
 11 13  2  0
 12 14  2  0
 13 14  1  0
 14 15  1  0
 15 16  1  0
M  END
>  <PUBCHEM_COMPOUND_CID>  (1) 
33551

>  <PUBCHEM_CONFORMER_RMSD>  (1) 
0.6

>  <PUBCHEM_CONFORMER_DIVERSEORDER>  (1) 
1
4
6
7
8
5
3
10
2
9

>  <PUBCHEM_MMFF94_PARTIAL_CHARGES>  (1) 
20
1 -0.57
10 -0.15
11 -0.15
12 -0.15
13 -0.15
14 0.09
15 0.42
16 0.06
2 -0.84
28 0.15
29 0.15
3 -0.81
30 0.15
31 0.15
4 0.37
5 0.37
6 0.27
7 0.27
8 0.1
9 0.27

>  <PUBCHEM_EFFECTIVE_ROTOR_COUNT>  (1) 
3.2

>  <PUBCHEM_PHARMACOPHORE_FEATURES>  (1) 
5
1 1 acceptor
1 2 cation
1 3 cation
6 2 3 4 5 6 7 rings
6 8 10 11 12 13 14 rings

>  <PUBCHEM_HEAVY_ATOM_COUNT>  (1) 
16

>  <PUBCHEM_ATOM_DEF_STEREO_COUNT>  (1) 
0

>  <PUBCHEM_ATOM_UDEF_STEREO_COUNT>  (1) 
0

>  <PUBCHEM_BOND_DEF_STEREO_COUNT>  (1) 
0

>  <PUBCHEM_BOND_UDEF_STEREO_COUNT>  (1) 
0

>  <PUBCHEM_ISOTOPIC_ATOM_COUNT>  (1) 
0

>  <PUBCHEM_COMPONENT_COUNT>  (1) 
1

>  <PUBCHEM_CACTVS_TAUTO_COUNT>  (1) 
2

>  <PUBCHEM_CONFORMER_ID>  (1) 
0000830F00000001

>  <PUBCHEM_MMFF94_ENERGY>  (1) 
53.0425

>  <PUBCHEM_FEATURE_SELFOVERLAP>  (1) 
25.374

>  <PUBCHEM_SHAPE_FINGERPRINT>  (1) 
10608611 8 18408600357833214349
11401426 45 18413106181920984003
11471102 20 18344146999208260608
12032990 46 18341337721340265462
12236239 1 16559033787767630953
124424 183 18335141994302051875
12815109 37 18408322194254806611
13081056 2 18411136931179404260
13675066 3 18411699919919192106
13760787 19 17676209078602917122
14123238 8 18342175574443024285
14252887 29 17560809801207277038
14386348 63 18408608058719800731
15196674 1 18411700980290784992
15219456 202 18410012130425239829
15375358 24 18408887334356874746
17834072 33 17489584592979076573
18522853 276 18341896294178972657
200 152 17846495937627758299
20279233 1 18408611357180967483
20645477 70 18202004279269246022
21267235 1 18411991242834062239
22485316 2 18335419080022782482
22854114 59 18343302591305017168
23402539 116 18040710394471898351
23402655 69 18271518702922547477
23557571 272 17895478024803351796
23559900 14 18334293205759130112
26918003 58 18272090504655664891
351380 180 18335700559236223659
3545911 37 18334296456922675094
4072396 5 18339067225555299922
4214541 1 18335984186028778189
42788 4 18412825785039054373
474 4 15912180175208785642
5104073 3 18337954489142737505
542803 24 16559034891415990105
69090 78 18411697699611341919
77779 3 18407761438892568932
8809292 202 18260835937835427547

>  <PUBCHEM_SHAPE_MULTIPOLES>  (1) 
313.44
11.09
1.41
0.75
1.07
0.01
-0.02
0.32
0.2
-0.35
0.02
0.19
-0.02
0.8

>  <PUBCHEM_SHAPE_SELFOVERLAP>  (1) 
649.511

>  <PUBCHEM_SHAPE_VOLUME>  (1) 
180.3

>  <PUBCHEM_COORDINATE_TYPE>  (1) 
2
5
10

$$$$
