33553
     RDKit          3D

 20 19  0  0  1  0  0  0  0  0999 V2000
    3.4029   -2.1193   -0.9893 Cl  0  0  0  0  0  0  0  0  0  0  0  0
    1.6306   -4.2221    0.8736 Cl  0  0  0  0  0  0  0  0  0  0  0  0
   -0.7383    2.8468    1.7702 Cl  0  0  0  0  0  0  0  0  0  0  0  0
    3.1286    3.8199   -0.0422 Cl  0  0  0  0  0  0  0  0  0  0  0  0
   -4.6218   -1.8988    0.4426 Cl  0  0  0  0  0  0  0  0  0  0  0  0
   -4.1595    0.8759    1.2091 Cl  0  0  0  0  0  0  0  0  0  0  0  0
    0.6193   -0.1998   -1.3460 P   0  0  0  0  0  0  0  0  0  0  0  0
    0.9293   -1.4874   -0.4152 O   0  0  0  0  0  0  0  0  0  0  0  0
    0.6690    1.0150   -0.2747 O   0  0  0  0  0  0  0  0  0  0  0  0
   -0.9501   -0.3538   -1.7186 O   0  0  0  0  0  0  0  0  0  0  0  0
    1.5367   -0.0302   -2.5235 O   0  0  0  0  0  0  0  0  0  0  0  0
    2.1971   -1.6035    0.2186 C   0  0  0  0  0  0  0  0  0  0  0  0
    0.3374    2.3316   -0.6823 C   0  0  0  0  0  0  0  0  0  0  0  0
   -1.8813   -0.5180   -0.6635 C   0  0  0  0  0  0  0  0  0  0  0  0
    2.1176   -2.5779    1.4010 C   0  0  0  0  0  0  0  0  0  0  0  0
    0.4630    3.2812    0.5081 C   0  0  0  0  0  0  0  0  0  0  0  0
   -3.2690   -0.1444   -1.1795 C   0  0  0  0  0  0  0  0  0  0  0  0
    1.1262   -2.0991    2.4579 C   0  0  0  0  0  0  0  0  0  0  0  0
    1.8674    3.3209    1.1131 C   0  0  0  0  0  0  0  0  0  0  0  0
   -4.4050   -0.2370   -0.1592 C   0  0  0  0  0  0  0  0  0  0  0  0
  1 12  1  0
  2 15  1  0
  3 16  1  0
  4 19  1  0
  5 20  1  0
  6 20  1  0
  7  8  1  0
  7  9  1  0
  7 10  1  0
  7 11  2  0
  8 12  1  0
  9 13  1  0
 10 14  1  0
 12 15  1  0
 13 16  1  0
 14 17  1  0
 15 18  1  0
 16 19  1  0
 17 20  1  0
M  END
>  <PUBCHEM_COMPOUND_CID>  (1) 
33553

>  <PUBCHEM_CONFORMER_RMSD>  (1) 
1.4

>  <PUBCHEM_CONFORMER_DIVERSEORDER>  (1) 
1
87
46
64
30
75
96
16
36
17
20
85
15
51
100
66
67
41
37
49
53
56
28
70
8
69
78
40
38
18
31
26
60
42
14
81
86
21
92
73
74
27
95
39
98
58
77
6
13
4
29
55
50
63
25
7
94
54
33
52
97
90
35
57
12
22
48
79
59
65
5
99
76
19
24
34
32
93
83
84
45
88
43
47
62
44
23
102
9
68
80
2
82
71
91
72
3
101
11
61
10
89

>  <PUBCHEM_MMFF94_PARTIAL_CHARGES>  (1) 
18
1 -0.29
10 -0.55
11 -0.7
12 0.57
13 0.28
14 0.28
15 0.29
16 0.29
19 0.29
2 -0.29
20 0.58
3 -0.29
4 -0.29
5 -0.29
6 -0.29
7 1.51
8 -0.55
9 -0.55

>  <PUBCHEM_EFFECTIVE_ROTOR_COUNT>  (1) 
11

>  <PUBCHEM_PHARMACOPHORE_FEATURES>  (1) 
1
1 11 acceptor

>  <PUBCHEM_HEAVY_ATOM_COUNT>  (1) 
20

>  <PUBCHEM_ATOM_DEF_STEREO_COUNT>  (1) 
0

>  <PUBCHEM_ATOM_UDEF_STEREO_COUNT>  (1) 
4

>  <PUBCHEM_BOND_DEF_STEREO_COUNT>  (1) 
0

>  <PUBCHEM_BOND_UDEF_STEREO_COUNT>  (1) 
0

>  <PUBCHEM_ISOTOPIC_ATOM_COUNT>  (1) 
0

>  <PUBCHEM_COMPONENT_COUNT>  (1) 
1

>  <PUBCHEM_CACTVS_TAUTO_COUNT>  (1) 
1

>  <PUBCHEM_CONFORMER_ID>  (1) 
0000831100000001

>  <PUBCHEM_MMFF94_ENERGY>  (1) 
20.0779

>  <PUBCHEM_FEATURE_SELFOVERLAP>  (1) 
5.074

>  <PUBCHEM_SHAPE_FINGERPRINT>  (1) 
10064457 181 17758950815568707936
10382601 240 18341902943173793377
11578080 2 18042104553926056205
12788726 201 17832435202131903195
13275264 69 17905031569820752531
13533116 47 18333454262220422987
14178342 30 17682118017510553431
14787075 74 18334870411125537030
19078846 21 18269848523332436149
20567600 347 18049722120495374097
20600515 1 17988647337448473383
21524375 3 17625253500540446613
23419403 2 17972346107046334970
23598294 1 17908705025236887866
298252 57 17056688319439531596
35225 105 17040904937560071841
81228 2 17551209793022670957
9981440 41 14969520731234193297

>  <PUBCHEM_SHAPE_MULTIPOLES>  (1) 
403.18
6.78
5.59
2.04
9.76
1.75
-0.09
-2.04
-0.23
-6.48
-2.91
-0.52
-0.47
-0.62

>  <PUBCHEM_SHAPE_SELFOVERLAP>  (1) 
695.327

>  <PUBCHEM_SHAPE_VOLUME>  (1) 
271.4

>  <PUBCHEM_COORDINATE_TYPE>  (1) 
2
5
10

$$$$
