33562
     RDKit          3D

  9 10  0  0  0  0  0  0  0  0999 V2000
    1.9881    1.5767   -0.0001 Br  0  0  0  0  0  0  0  0  0  0  0  0
    1.9881   -1.5767    0.0001 Br  0  0  0  0  0  0  0  0  0  0  0  0
   -0.2197   -0.0001   -1.1108 C   0  0  0  0  0  0  0  0  0  0  0  0
   -0.2198    0.0001    1.1109 C   0  0  0  0  0  0  0  0  0  0  0  0
    0.8373    0.0000    0.0001 C   0  0  0  0  0  0  0  0  0  0  0  0
   -1.0934   -1.2345   -0.7703 C   0  0  0  0  0  0  0  0  0  0  0  0
   -1.0935    1.2343   -0.7704 C   0  0  0  0  0  0  0  0  0  0  0  0
   -1.0936   -1.2343    0.7702 C   0  0  0  0  0  0  0  0  0  0  0  0
   -1.0935    1.2345    0.7702 C   0  0  0  0  0  0  0  0  0  0  0  0
  1  5  1  0
  2  5  1  0
  3  5  1  0
  3  6  1  0
  3  7  1  0
  4  5  1  0
  4  8  1  0
  4  9  1  0
  6  8  1  0
  7  9  1  0
M  END
>  <PUBCHEM_COMPOUND_CID>  (1) 
33562

>  <PUBCHEM_CONFORMER_RMSD>  (1) 
0.4

>  <PUBCHEM_CONFORMER_DIVERSEORDER>  (1) 
1

>  <PUBCHEM_MMFF94_PARTIAL_CHARGES>  (1) 
3
1 -0.23
2 -0.23
5 0.46

>  <PUBCHEM_EFFECTIVE_ROTOR_COUNT>  (1) 
1

>  <PUBCHEM_PHARMACOPHORE_FEATURES>  (1) 
4
1 1 hydrophobe
1 2 hydrophobe
3 1 2 5 hydrophobe
7 3 4 5 6 7 8 9 rings

>  <PUBCHEM_HEAVY_ATOM_COUNT>  (1) 
9

>  <PUBCHEM_ATOM_DEF_STEREO_COUNT>  (1) 
0

>  <PUBCHEM_ATOM_UDEF_STEREO_COUNT>  (1) 
0

>  <PUBCHEM_BOND_DEF_STEREO_COUNT>  (1) 
0

>  <PUBCHEM_BOND_UDEF_STEREO_COUNT>  (1) 
0

>  <PUBCHEM_ISOTOPIC_ATOM_COUNT>  (1) 
0

>  <PUBCHEM_COMPONENT_COUNT>  (1) 
1

>  <PUBCHEM_CACTVS_TAUTO_COUNT>  (1) 
1

>  <PUBCHEM_CONFORMER_ID>  (1) 
0000831A00000001

>  <PUBCHEM_MMFF94_ENERGY>  (1) 
37.8971

>  <PUBCHEM_FEATURE_SELFOVERLAP>  (1) 
21.755

>  <PUBCHEM_SHAPE_FINGERPRINT>  (1) 
12423570 1 10941258255652020391
13024252 1 16663199182831600154
137420 1 8748623768100075331
15557651 10 17244137116233706580
16945 1 18410575084726375943
23552423 10 18410569617539119230
29004967 10 17828767574849257883
369184 2 18049715523415479864
5084963 1 18055620729510869033
68250623 7 18342454837775276215

>  <PUBCHEM_SHAPE_MULTIPOLES>  (1) 
197.1
2.28
1.95
1.15
1.21
0
0
0
0
0.53
0
-0.33
0
0

>  <PUBCHEM_SHAPE_SELFOVERLAP>  (1) 
386.492

>  <PUBCHEM_SHAPE_VOLUME>  (1) 
123.1

>  <PUBCHEM_COORDINATE_TYPE>  (1) 
2
5
10

$$$$
