3356
     RDKit          3D

 28 29  0  0  1  0  0  0  0  0999 V2000
    3.2119   -1.4535   -0.3751 F   0  0  0  0  0  0  0  0  0  0  0  0
    3.4538   -3.1035   -1.7813 F   0  0  0  0  0  0  0  0  0  0  0  0
    3.3596   -3.4995    0.3658 F   0  0  0  0  0  0  0  0  0  0  0  0
   -5.7121    0.7518   -1.8484 F   0  0  0  0  0  0  0  0  0  0  0  0
   -5.8486    2.6915   -0.8598 F   0  0  0  0  0  0  0  0  0  0  0  0
   -6.7769    0.9328    0.0464 F   0  0  0  0  0  0  0  0  0  0  0  0
    1.0203   -0.1617    2.4179 O   0  0  0  0  0  0  0  0  0  0  0  0
    0.7828   -2.4461    0.5176 O   0  0  0  0  0  0  0  0  0  0  0  0
   -4.3066   -0.3393    0.2774 O   0  0  0  0  0  0  0  0  0  0  0  0
    4.0446    2.9050    0.8856 N   0  0  0  0  0  0  0  0  0  0  0  0
    0.6455    1.4209    0.7627 N   0  0  0  0  0  0  0  0  0  0  0  0
    2.9955    1.9838    0.4307 C   0  0  0  0  0  0  0  0  0  0  0  0
    2.8162    2.0723   -1.0911 C   0  0  0  0  0  0  0  0  0  0  0  0
    4.1327    1.8139   -1.8187 C   0  0  0  0  0  0  0  0  0  0  0  0
    5.2319    2.7195   -1.2740 C   0  0  0  0  0  0  0  0  0  0  0  0
    5.3291    2.6184    0.2464 C   0  0  0  0  0  0  0  0  0  0  0  0
    1.6884    2.3234    1.1448 C   0  0  0  0  0  0  0  0  0  0  0  0
    0.3892    0.2303    1.4399 C   0  0  0  0  0  0  0  0  0  0  0  0
   -0.7119   -0.6098    0.9022 C   0  0  0  0  0  0  0  0  0  0  0  0
   -0.4698   -1.9118    0.4643 C   0  0  0  0  0  0  0  0  0  0  0  0
   -2.0013   -0.0814    0.8400 C   0  0  0  0  0  0  0  0  0  0  0  0
   -3.0486   -0.8550    0.3396 C   0  0  0  0  0  0  0  0  0  0  0  0
   -1.5170   -2.6854   -0.0362 C   0  0  0  0  0  0  0  0  0  0  0  0
   -2.8064   -2.1570   -0.0985 C   0  0  0  0  0  0  0  0  0  0  0  0
    1.3618   -2.8637   -0.7168 C   0  0  0  0  0  0  0  0  0  0  0  0
   -4.4219    1.0705    0.0913 C   0  0  0  0  0  0  0  0  0  0  0  0
    2.8601   -2.7334   -0.6270 C   0  0  0  0  0  0  0  0  0  0  0  0
   -5.7023    1.3669   -0.6454 C   0  0  0  0  0  0  0  0  0  0  0  0
  1 27  1  0
  2 27  1  0
  3 27  1  0
  4 28  1  0
  5 28  1  0
  6 28  1  0
  7 18  2  0
  8 20  1  0
  8 25  1  0
  9 22  1  0
  9 26  1  0
 10 12  1  0
 10 16  1  0
 11 17  1  0
 11 18  1  0
 12 13  1  0
 12 17  1  0
 13 14  1  0
 14 15  1  0
 15 16  1  0
 18 19  1  0
 19 20  2  0
 19 21  1  0
 20 23  1  0
 21 22  2  0
 22 24  1  0
 23 24  2  0
 25 27  1  0
 26 28  1  0
M  END
>  <PUBCHEM_COMPOUND_CID>  (1) 
3356

>  <PUBCHEM_CONFORMER_RMSD>  (1) 
1

>  <PUBCHEM_CONFORMER_DIVERSEORDER>  (1) 
1
22
167
161
159
132
160
104
63
124
119
169
94
105
171
70
58
147
95
111
176
189
196
179
79
127
216
152
98
65
198
203
221
187
153
208
74
24
131
71
130
195
223
150
99
78
49
46
145
186
142
34
201
175
170
59
172
31
35
3
15
115
148
33
96
141
149
222
90
210
177
173
16
168
194
197
190
128
36
69
53
66
202
13
163
133
143
25
56
14
32
134
120
155
92
55
158
214
89
125
52
86
60
81
103
37
82
72
100
138
80
188
165
215
45
182
30
154
207
8
129
64
107
164
50
139
61
192
20
122
121
199
162
54
183
205
178
225
85
206
88
157
40
166
213
93
136
135
151
174
217
140
102
41
6
144
181
209
108
180
68
109
4
84
43
97
114
212
29
73
19
21
17
39
146
83
123
44
62
11
57
75
224
67
38
218
112
219
184
200
185
26
2
106
126
18
47
76
10
156
116
51
77
118
113
87
117
137
42
48
110
211
7
12
23
9
220
27
204
193
91
101
28
191
5

>  <PUBCHEM_MMFF94_PARTIAL_CHARGES>  (1) 
30
1 -0.34
10 -0.9
11 -0.73
12 0.27
16 0.27
17 0.3
18 0.54
19 0.09
2 -0.34
20 0.08
21 -0.15
22 0.08
23 -0.15
24 -0.15
25 0.28
26 0.28
27 1.02
28 1.02
3 -0.34
38 0.36
4 -0.34
41 0.37
42 0.15
43 0.15
44 0.15
5 -0.34
6 -0.34
7 -0.57
8 -0.36
9 -0.36

>  <PUBCHEM_EFFECTIVE_ROTOR_COUNT>  (1) 
11.2

>  <PUBCHEM_PHARMACOPHORE_FEATURES>  (1) 
8
1 10 cation
1 10 donor
1 11 donor
1 7 acceptor
1 8 acceptor
1 9 acceptor
6 10 12 13 14 15 16 rings
6 19 20 21 22 23 24 rings

>  <PUBCHEM_HEAVY_ATOM_COUNT>  (1) 
28

>  <PUBCHEM_ATOM_DEF_STEREO_COUNT>  (1) 
0

>  <PUBCHEM_ATOM_UDEF_STEREO_COUNT>  (1) 
1

>  <PUBCHEM_BOND_DEF_STEREO_COUNT>  (1) 
0

>  <PUBCHEM_BOND_UDEF_STEREO_COUNT>  (1) 
0

>  <PUBCHEM_ISOTOPIC_ATOM_COUNT>  (1) 
0

>  <PUBCHEM_COMPONENT_COUNT>  (1) 
1

>  <PUBCHEM_CACTVS_TAUTO_COUNT>  (1) 
2

>  <PUBCHEM_CONFORMER_ID>  (1) 
00000D1C00000001

>  <PUBCHEM_MMFF94_ENERGY>  (1) 
54.7901

>  <PUBCHEM_FEATURE_SELFOVERLAP>  (1) 
40.597

>  <PUBCHEM_SHAPE_FINGERPRINT>  (1) 
105312 117 18263923413530298661
10675989 125 18342744022419503856
11370993 70 17982739863915845580
11578080 2 18334021613634225095
12156800 1 15481804936029384126
12422481 6 18114168766418668712
13617811 41 17903637733233922455
14117953 113 18341892953691331550
14508225 48 17911530796233513294
14713325 29 17901959856418897027
14931854 50 18197244523940025910
15163728 17 18187081801550386735
15210252 30 17833834867617640947
15322687 12 18411985753897499930
167882 2 18411700971738066162
17980427 26 18042384894873495243
18365409 1 16838260022624328169
20554085 129 17845357994854541520
20626108 58 12535361111422534184
20715895 44 18408603660889424514
21279426 13 18271539688338276316
21756936 100 17387129977794924609
22393880 68 18058736951843761438
23559900 14 18271243824573011434
23569914 2 17098299157142250053
3298306 158 18270967971992580646
46194498 28 18269551651013942719
513532 50 16773504547245924952
5265222 85 17905339768696597524
5283173 99 18051131690155695288
552612 73 18264225719900482459
56616090 163 18410015476669019699
59755656 215 18197220467317068667

>  <PUBCHEM_SHAPE_MULTIPOLES>  (1) 
505.01
12.88
4.6
1.52
11.56
2.87
-0.02
-13.43
-5.52
-3.9
-1.15
-0.84
-0.38
1.32

>  <PUBCHEM_SHAPE_SELFOVERLAP>  (1) 
1051.461

>  <PUBCHEM_SHAPE_VOLUME>  (1) 
287.2

>  <PUBCHEM_COORDINATE_TYPE>  (1) 
2
5
10

$$$$
