33574
     RDKit          3D

  9  8  0  0  1  0  0  0  0  0999 V2000
    0.5387    1.8557   -0.2956 Cl  0  0  0  0  0  0  0  0  0  0  0  0
    0.5684    0.1763    0.3310 C   0  0  0  0  0  0  0  0  0  0  0  0
   -0.6819   -0.5873   -0.1376 C   0  0  0  0  0  0  0  0  0  0  0  0
    1.8469   -0.5449   -0.1265 C   0  0  0  0  0  0  0  0  0  0  0  0
   -1.9960    0.0877    0.2748 C   0  0  0  0  0  0  0  0  0  0  0  0
    3.1345    0.1705    0.2944 C   0  0  0  0  0  0  0  0  0  0  0  0
   -3.2370   -0.6359   -0.2551 C   0  0  0  0  0  0  0  0  0  0  0  0
    4.3674   -0.5930   -0.1657 C   0  0  0  0  0  0  0  0  0  0  0  0
   -4.5410    0.0709    0.0804 C   0  0  0  0  0  0  0  0  0  0  0  0
  1  2  1  0
  2  3  1  0
  2  4  1  0
  3  5  1  0
  4  6  1  0
  5  7  1  0
  6  8  1  0
  7  9  1  0
M  END
>  <PUBCHEM_COMPOUND_CID>  (1) 
33574

>  <PUBCHEM_CONFORMER_RMSD>  (1) 
0.6

>  <PUBCHEM_CONFORMER_DIVERSEORDER>  (1) 
1
68
45
60
67
75
73
3
79
87
74
85
88
5
54
69
86
44
27
64
82
6
65
23
52
37
7
84
8
31
42
26
12
72
14
33
40
58
25
22
70
32
49
28
39
61
9
53
43
18
81
71
4
46
77
15
50
2
38
16
55
47
63
59
83
29
19
30
34
56
11
35
13
76
51
66
41
57
48
24
78
17
62
21
10
80
36
20

>  <PUBCHEM_MMFF94_PARTIAL_CHARGES>  (1) 
2
1 -0.29
2 0.29

>  <PUBCHEM_EFFECTIVE_ROTOR_COUNT>  (1) 
5

>  <PUBCHEM_PHARMACOPHORE_FEATURES>  (1) 
2
1 8 hydrophobe
1 9 hydrophobe

>  <PUBCHEM_HEAVY_ATOM_COUNT>  (1) 
9

>  <PUBCHEM_ATOM_DEF_STEREO_COUNT>  (1) 
0

>  <PUBCHEM_ATOM_UDEF_STEREO_COUNT>  (1) 
1

>  <PUBCHEM_BOND_DEF_STEREO_COUNT>  (1) 
0

>  <PUBCHEM_BOND_UDEF_STEREO_COUNT>  (1) 
0

>  <PUBCHEM_ISOTOPIC_ATOM_COUNT>  (1) 
0

>  <PUBCHEM_COMPONENT_COUNT>  (1) 
1

>  <PUBCHEM_CACTVS_TAUTO_COUNT>  (1) 
1

>  <PUBCHEM_CONFORMER_ID>  (1) 
0000832600000001

>  <PUBCHEM_MMFF94_ENERGY>  (1) 
0.7259

>  <PUBCHEM_FEATURE_SELFOVERLAP>  (1) 
10.149

>  <PUBCHEM_SHAPE_FINGERPRINT>  (1) 
10219947 1 18343586252293519814
11062470 55 17846498140518836643
12932764 1 17023447755576124187
13690532 89 18413107268716664319
14993402 34 18411982472500229422
17834076 25 17167865261867614286
18342897 14 18261111859572229545
187816 3 17603589612621680042
20211469 26 18131071515332178810
20279233 1 13758080727258543181
20671657 1 18118129301554101261
20711985 327 18343309175326695836
20719005 15 18342175561573979122
21293036 1 18040154019780948202
22485316 2 18411976966468401746
23402539 116 18343012281332736871

>  <PUBCHEM_SHAPE_MULTIPOLES>  (1) 
187.09
8.16
1.2
0.68
1.78
0.67
0
-1.88
0.07
-0.3
0.14
-0.02
0.02
-0.02

>  <PUBCHEM_SHAPE_SELFOVERLAP>  (1) 
319.773

>  <PUBCHEM_SHAPE_VOLUME>  (1) 
126.6

>  <PUBCHEM_COORDINATE_TYPE>  (1) 
2
5
10

$$$$
