33575
     RDKit          3D

  9  8  0  0  1  0  0  0  0  0999 V2000
   -2.1860    2.0518   -0.3769 Cl  0  0  0  0  0  0  0  0  0  0  0  0
   -0.5735    0.2688    0.9120 C   0  0  0  0  0  0  0  0  0  0  0  0
    0.5162    0.2213   -0.1658 C   0  0  0  0  0  0  0  0  0  0  0  0
   -2.0087    0.4361    0.3871 C   0  0  0  0  0  0  0  0  0  0  0  0
    1.8957   -0.0119    0.4565 C   0  0  0  0  0  0  0  0  0  0  0  0
   -2.4855   -0.6353   -0.6015 C   0  0  0  0  0  0  0  0  0  0  0  0
    2.9925   -0.0154   -0.6081 C   0  0  0  0  0  0  0  0  0  0  0  0
   -2.5106   -2.0356   -0.0052 C   0  0  0  0  0  0  0  0  0  0  0  0
    4.3599   -0.2798    0.0019 C   0  0  0  0  0  0  0  0  0  0  0  0
  1  4  1  0
  2  3  1  0
  2  4  1  0
  3  5  1  0
  4  6  1  0
  5  7  1  0
  6  8  1  0
  7  9  1  0
M  END
>  <PUBCHEM_COMPOUND_CID>  (1) 
33575

>  <PUBCHEM_CONFORMER_RMSD>  (1) 
0.6

>  <PUBCHEM_CONFORMER_DIVERSEORDER>  (1) 
3
125
80
7
94
27
130
106
111
42
70
11
43
89
128
83
85
91
121
44
4
103
131
49
65
123
98
129
24
101
1
122
95
8
59
81
74
124
29
16
109
104
2
114
57
78
71
6
100
127
102
35
5
66
96
73
55
117
61
112
118
46
86
14
126
19
38
75
47
53
26
69
37
33
116
15
107
60
99
119
48
17
88
22
25
50
84
105
13
21
92
28
90
45
72
87
18
62
113
10
115
93
39
79
120
67
36
41
56
97
108
54
20
40
68
76
12
110
9
77
82
63
64
51
23
32
58
31
34
30
52

>  <PUBCHEM_MMFF94_PARTIAL_CHARGES>  (1) 
2
1 -0.29
4 0.29

>  <PUBCHEM_EFFECTIVE_ROTOR_COUNT>  (1) 
5

>  <PUBCHEM_PHARMACOPHORE_FEATURES>  (1) 
3
1 8 hydrophobe
1 9 hydrophobe
4 2 3 5 7 hydrophobe

>  <PUBCHEM_HEAVY_ATOM_COUNT>  (1) 
9

>  <PUBCHEM_ATOM_DEF_STEREO_COUNT>  (1) 
0

>  <PUBCHEM_ATOM_UDEF_STEREO_COUNT>  (1) 
1

>  <PUBCHEM_BOND_DEF_STEREO_COUNT>  (1) 
0

>  <PUBCHEM_BOND_UDEF_STEREO_COUNT>  (1) 
0

>  <PUBCHEM_ISOTOPIC_ATOM_COUNT>  (1) 
0

>  <PUBCHEM_COMPONENT_COUNT>  (1) 
1

>  <PUBCHEM_CACTVS_TAUTO_COUNT>  (1) 
1

>  <PUBCHEM_CONFORMER_ID>  (1) 
0000832700000003

>  <PUBCHEM_MMFF94_ENERGY>  (1) 
0.6141

>  <PUBCHEM_FEATURE_SELFOVERLAP>  (1) 
15.223

>  <PUBCHEM_SHAPE_FINGERPRINT>  (1) 
12716758 59 18341886347250785217
12897270 3 18336540607536717163
12932741 1 17774708810169982608
12932764 1 18409167688568622040
14325111 11 18412546496685935594
20645477 56 18339082575177877080
20645477 70 16414640337540597660
20711985 344 18339908377788638065
21061003 4 17060341867771381595
22169311 21 18130784508807005398
22485316 2 18410853223231052354
22959321 105 18341895203774120548
23380061 127 18335416868193590276
23402539 116 18341040840416409581
3248919 1 17346321453780176120
528716 315 18334297590783608670
58051976 100 18336267860065537990

>  <PUBCHEM_SHAPE_MULTIPOLES>  (1) 
187.09
6.55
1.67
0.85
7.62
0.01
-0.04
1.06
0.84
-2.37
0.2
-0.06
-0.04
0.02

>  <PUBCHEM_SHAPE_SELFOVERLAP>  (1) 
320.267

>  <PUBCHEM_SHAPE_VOLUME>  (1) 
125.5

>  <PUBCHEM_COORDINATE_TYPE>  (1) 
2
5
10

$$$$
