33583
     RDKit          3D

 19 21  0  0  1  0  0  0  0  0999 V2000
    6.3228    1.7883    0.2561 Cl  0  0  0  0  0  0  0  0  0  0  0  0
    0.4104   -1.2701    0.3534 O   0  0  0  0  0  0  0  0  0  0  0  0
    0.1828    0.0249   -0.2871 N   0  0  0  0  0  0  0  0  0  0  0  0
   -6.2227    0.5470    0.3642 N   0  0  0  0  0  0  0  0  0  0  0  0
    1.1617    0.9222    0.3443 C   0  0  0  0  0  0  0  0  0  0  0  0
    2.5682    0.4037    0.1428 C   0  0  0  0  0  0  0  0  0  0  0  0
   -1.1828    0.3851    0.0740 C   0  0  0  0  0  0  0  0  0  0  0  0
    2.7626   -0.9658   -0.1245 C   0  0  0  0  0  0  0  0  0  0  0  0
    1.5593   -1.8638   -0.2652 C   0  0  0  0  0  0  0  0  0  0  0  0
   -2.1927   -0.5252   -0.6258 C   0  0  0  0  0  0  0  0  0  0  0  0
    3.6742    1.2499    0.2702 C   0  0  0  0  0  0  0  0  0  0  0  0
    4.0573   -1.4627   -0.3011 C   0  0  0  0  0  0  0  0  0  0  0  0
   -3.6110   -0.1487   -0.2781 C   0  0  0  0  0  0  0  0  0  0  0  0
    4.9633    0.7432    0.1040 C   0  0  0  0  0  0  0  0  0  0  0  0
    5.1540   -0.6085   -0.1845 C   0  0  0  0  0  0  0  0  0  0  0  0
   -4.2210   -0.7310    0.8167 C   0  0  0  0  0  0  0  0  0  0  0  0
   -4.2809    0.7745   -1.0582 C   0  0  0  0  0  0  0  0  0  0  0  0
   -5.5239   -0.3505    1.0949 C   0  0  0  0  0  0  0  0  0  0  0  0
   -5.5813    1.0875   -0.6961 C   0  0  0  0  0  0  0  0  0  0  0  0
  1 14  1  0
  2  3  1  0
  2  9  1  0
  3  5  1  0
  3  7  1  0
  4 18  2  0
  4 19  1  0
  5  6  1  0
  6  8  2  0
  6 11  1  0
  7 10  1  0
  8  9  1  0
  8 12  1  0
 10 13  1  0
 11 14  2  0
 12 15  2  0
 13 16  2  0
 13 17  1  0
 14 15  1  0
 16 18  1  0
 17 19  2  0
M  END
>  <PUBCHEM_COMPOUND_CID>  (1) 
33583

>  <PUBCHEM_CONFORMER_RMSD>  (1) 
0.6

>  <PUBCHEM_CONFORMER_DIVERSEORDER>  (1) 
1
12
16
29
22
23
5
10
15
2
27
25
21
18
6
20
24
8
26
28
4
14
7
3
13
31
19
17
30
11
9

>  <PUBCHEM_MMFF94_PARTIAL_CHARGES>  (1) 
26
1 -0.18
10 0.14
11 -0.15
12 -0.15
13 -0.14
14 0.18
15 -0.15
16 -0.15
17 -0.15
18 0.16
19 0.16
2 -0.18
28 0.15
29 0.15
3 -0.64
30 0.15
31 0.15
32 0.15
33 0.15
34 0.15
4 -0.62
5 0.41
6 -0.14
7 0.27
8 -0.14
9 0.42

>  <PUBCHEM_EFFECTIVE_ROTOR_COUNT>  (1) 
3.8

>  <PUBCHEM_PHARMACOPHORE_FEATURES>  (1) 
4
1 4 acceptor
6 2 3 5 6 8 9 rings
6 4 13 16 17 18 19 rings
6 6 8 11 12 14 15 rings

>  <PUBCHEM_HEAVY_ATOM_COUNT>  (1) 
19

>  <PUBCHEM_ATOM_DEF_STEREO_COUNT>  (1) 
0

>  <PUBCHEM_ATOM_UDEF_STEREO_COUNT>  (1) 
0

>  <PUBCHEM_BOND_DEF_STEREO_COUNT>  (1) 
0

>  <PUBCHEM_BOND_UDEF_STEREO_COUNT>  (1) 
0

>  <PUBCHEM_ISOTOPIC_ATOM_COUNT>  (1) 
0

>  <PUBCHEM_COMPONENT_COUNT>  (1) 
1

>  <PUBCHEM_CACTVS_TAUTO_COUNT>  (1) 
1

>  <PUBCHEM_CONFORMER_ID>  (1) 
0000832F00000001

>  <PUBCHEM_MMFF94_ENERGY>  (1) 
44.0251

>  <PUBCHEM_FEATURE_SELFOVERLAP>  (1) 
20.322

>  <PUBCHEM_SHAPE_FINGERPRINT>  (1) 
10 15 18040996288832923520
10411042 1 17908143175708666022
11089746 13 16845568725241714905
11287383 113 18040437706507619240
12107183 9 17338169498372853731
12166972 35 7997965782285719534
12236239 1 17561365075932794811
12403259 415 18186796955182500572
12616971 3 18271232864100938558
12730499 353 18409173203644532226
12916748 109 17894348865253798708
13073987 5 17531524287642768849
13167372 99 18130229246349392945
13533116 47 17131837526022350118
13955234 65 18340200800801244362
1420 363 18114186323938779299
14251764 18 17846781811109987497
14341114 176 18408046199550942085
14933364 13 18335423464925974253
15048467 5 18272932734462031912
15081414 286 18413110563252330420
15183329 4 16487258767959845037
15475509 35 16516512319496017506
16079462 125 18187353321009430101
17349148 13 12540696994218058903
17834072 33 17846491556682190239
17844677 252 18186526492507698669
18222031 100 13183021830605393442
18785283 64 17678184995092055996
18927931 339 13901900129880287541
19489759 90 16732984219816277593
200 152 17988922245688992929
20281389 69 18187362108512614925
20645477 70 18271806770241716334
21033648 29 18337373986222953141
21033650 10 15576410003841880726
21150785 3 17632006533707385445
21267235 1 18342182116564634398
21623969 137 18411708694284566675
21641784 216 18340505378001234996
220451 1 16200434663143411759
22224240 67 18113335345052324587
23081809 10 17131832049464053567
23402539 116 13623525758257889991
23402655 69 18130783482172613310
23557571 272 17240766116794101143
239999 70 18335424539290452798
2916195 48 18187079580904653449
293599 30 18342174505407513878
29717793 49 17131839742293734980
300161 21 17917705820679449414
3545911 37 18411138047538325413
4073 2 18114467841649359803
42630746 31 18272089383917315270
4340502 62 17240196639028434050
4463277 17 18413108359511769952
5104073 3 18115022983462798993
542803 24 16917350329324250451
59682541 52 17274841155593678060
7495541 125 14923955573445465245

>  <PUBCHEM_SHAPE_MULTIPOLES>  (1) 
377.05
16.39
1.58
0.86
7.08
0.16
0.01
-5.27
1.06
-1.87
-0.05
0.94
-0.02
1

>  <PUBCHEM_SHAPE_SELFOVERLAP>  (1) 
798.933

>  <PUBCHEM_SHAPE_VOLUME>  (1) 
211.8

>  <PUBCHEM_COORDINATE_TYPE>  (1) 
2
5
10

$$$$
