33594
     RDKit          3D

 14 14  0  0  0  0  0  0  0  0999 V2000
   -0.4866    1.8736    0.0576 S   0  0  0  0  0  0  0  0  0  0  0  0
   -0.3888    2.3004   -1.5166 O   0  0  0  0  0  0  0  0  0  0  0  0
   -1.4953    2.7247    0.6687 O   0  0  0  0  0  0  0  0  0  0  0  0
    0.8622    1.8130    0.5960 O   0  0  0  0  0  0  0  0  0  0  0  0
    1.0723   -0.6120   -0.9015 C   0  0  0  0  0  0  0  0  0  0  0  0
    2.0992   -0.7256    0.2274 C   0  0  0  0  0  0  0  0  0  0  0  0
   -0.3327   -0.8296   -0.4009 C   0  0  0  0  0  0  0  0  0  0  0  0
    3.5161   -0.4677   -0.2848 C   0  0  0  0  0  0  0  0  0  0  0  0
   -1.1014    0.2352    0.0481 C   0  0  0  0  0  0  0  0  0  0  0  0
   -0.8358   -2.1237   -0.4020 C   0  0  0  0  0  0  0  0  0  0  0  0
   -2.3987    0.0018    0.5049 C   0  0  0  0  0  0  0  0  0  0  0  0
    4.5369   -0.5390    0.8396 C   0  0  0  0  0  0  0  0  0  0  0  0
   -2.1330   -2.3569    0.0550 C   0  0  0  0  0  0  0  0  0  0  0  0
   -2.9143   -1.2943    0.5085 C   0  0  0  0  0  0  0  0  0  0  0  0
  1  2  1  0
  1  3  2  0
  1  4  2  0
  1  9  1  0
  5  6  1  0
  5  7  1  0
  6  8  1  0
  7  9  2  0
  7 10  1  0
  8 12  1  0
  9 11  1  0
 10 13  2  0
 11 14  2  0
 13 14  1  0
M  END
>  <PUBCHEM_COMPOUND_CID>  (1) 
33594

>  <PUBCHEM_CONFORMER_RMSD>  (1) 
0.6

>  <PUBCHEM_CONFORMER_DIVERSEORDER>  (1) 
1
9
10
4
5
6
17
7
8
15
14
18
11
13
19
16
12
3
20
2

>  <PUBCHEM_MMFF94_PARTIAL_CHARGES>  (1) 
16
1 1.49
10 -0.15
11 -0.15
13 -0.15
14 -0.15
2 -0.68
21 0.15
22 0.15
26 0.15
27 0.15
28 0.5
3 -0.65
4 -0.65
5 0.14
7 -0.14
9 -0.01

>  <PUBCHEM_EFFECTIVE_ROTOR_COUNT>  (1) 
4

>  <PUBCHEM_PHARMACOPHORE_FEATURES>  (1) 
6
1 12 hydrophobe
1 2 acceptor
1 3 acceptor
1 4 acceptor
4 1 2 3 4 anion
6 7 9 10 11 13 14 rings

>  <PUBCHEM_HEAVY_ATOM_COUNT>  (1) 
14

>  <PUBCHEM_ATOM_DEF_STEREO_COUNT>  (1) 
0

>  <PUBCHEM_ATOM_UDEF_STEREO_COUNT>  (1) 
0

>  <PUBCHEM_BOND_DEF_STEREO_COUNT>  (1) 
0

>  <PUBCHEM_BOND_UDEF_STEREO_COUNT>  (1) 
0

>  <PUBCHEM_ISOTOPIC_ATOM_COUNT>  (1) 
0

>  <PUBCHEM_COMPONENT_COUNT>  (1) 
1

>  <PUBCHEM_CACTVS_TAUTO_COUNT>  (1) 
1

>  <PUBCHEM_CONFORMER_ID>  (1) 
0000833A00000001

>  <PUBCHEM_MMFF94_ENERGY>  (1) 
23.7666

>  <PUBCHEM_FEATURE_SELFOVERLAP>  (1) 
30.503

>  <PUBCHEM_SHAPE_FINGERPRINT>  (1) 
10989021 7 18196650911334375622
11132069 177 18343305859733197618
13024252 1 15936413303709943123
13140716 1 18268435796460813131
14420673 8 17761770664422747154
14614273 12 18118965793399575365
14817 1 14446291859246566093
15375462 189 18186802521334015906
16945 1 18271539627607444567
17780758 139 17758080772234946250
20388701 513 18341903956469057518
20510252 161 18200878361823448274
20871998 184 18272934903520814886
21501502 16 17981335800236267375
21650355 55 18339073895223038866
220403 375 17540246549712882837
22802520 49 17557439682220227214
2297311 6 18342190968428993126
2334 1 18052541263666104871
23402539 116 18272078397180099159
23419403 2 18194093408596852077
23463225 33 18196093467576429072
23552423 10 17617103946088062631
23557571 272 18202014192338159982
23559900 14 18270970021161875942
23598294 1 18336824170157794970
2748010 2 18269552913264841839
7364860 26 17765439033794496603
81228 2 18337405841451652898
90316 7 18335420145190470112

>  <PUBCHEM_SHAPE_MULTIPOLES>  (1) 
274.35
5.24
2.8
0.96
6.74
1.51
-0.17
-2.56
1.66
-1.85
-0.13
0.16
0.26
-0.06

>  <PUBCHEM_SHAPE_SELFOVERLAP>  (1) 
546.345

>  <PUBCHEM_SHAPE_VOLUME>  (1) 
162.5

>  <PUBCHEM_COORDINATE_TYPE>  (1) 
2
5
10

$$$$
