33596
     RDKit          3D

  6  5  0  0  0  0  0  0  0  0999 V2000
    0.7678    0.7415    0.0124 S   0  0  0  0  0  0  0  0  0  0  0  0
   -3.4672   -0.4480   -0.0025 S   0  0  0  0  0  0  0  0  0  0  0  0
   -0.7280   -0.2917    0.0149 C   0  0  0  0  0  0  0  0  0  0  0  0
    1.9981   -0.5820   -0.0033 C   0  0  0  0  0  0  0  0  0  0  0  0
   -1.9716    0.5854   -0.0135 C   0  0  0  0  0  0  0  0  0  0  0  0
    3.4010   -0.0052   -0.0080 C   0  0  0  0  0  0  0  0  0  0  0  0
  1  3  1  0
  1  4  1  0
  2  5  1  0
  3  5  1  0
  4  6  1  0
M  END
>  <PUBCHEM_COMPOUND_CID>  (1) 
33596

>  <PUBCHEM_CONFORMER_RMSD>  (1) 
0.4

>  <PUBCHEM_CONFORMER_DIVERSEORDER>  (1) 
1
12
9
10
15
17
3
16
2
13
4
7
6
5
8
14
11

>  <PUBCHEM_MMFF94_PARTIAL_CHARGES>  (1) 
6
1 -0.46
16 0.18
2 -0.41
3 0.23
4 0.23
5 0.23

>  <PUBCHEM_EFFECTIVE_ROTOR_COUNT>  (1) 
3

>  <PUBCHEM_PHARMACOPHORE_FEATURES>  (1) 
1
1 6 hydrophobe

>  <PUBCHEM_HEAVY_ATOM_COUNT>  (1) 
6

>  <PUBCHEM_ATOM_DEF_STEREO_COUNT>  (1) 
0

>  <PUBCHEM_ATOM_UDEF_STEREO_COUNT>  (1) 
0

>  <PUBCHEM_BOND_DEF_STEREO_COUNT>  (1) 
0

>  <PUBCHEM_BOND_UDEF_STEREO_COUNT>  (1) 
0

>  <PUBCHEM_ISOTOPIC_ATOM_COUNT>  (1) 
0

>  <PUBCHEM_COMPONENT_COUNT>  (1) 
1

>  <PUBCHEM_CACTVS_TAUTO_COUNT>  (1) 
1

>  <PUBCHEM_CONFORMER_ID>  (1) 
0000833C00000001

>  <PUBCHEM_MMFF94_ENERGY>  (1) 
5.1619

>  <PUBCHEM_FEATURE_SELFOVERLAP>  (1) 
5.074

>  <PUBCHEM_SHAPE_FINGERPRINT>  (1) 
11062470 55 18411136935110199180
12932764 1 15697708225444515724
14325111 11 18410575063235728195
21293036 1 16660363701188472231
5460574 1 9295286144641129216

>  <PUBCHEM_SHAPE_MULTIPOLES>  (1) 
131.18
6.12
0.9
0.64
0.36
0.06
0
-0.99
0.03
0.05
0
0.04
0
0

>  <PUBCHEM_SHAPE_SELFOVERLAP>  (1) 
201.613

>  <PUBCHEM_SHAPE_VOLUME>  (1) 
95.6

>  <PUBCHEM_COORDINATE_TYPE>  (1) 
2
5
10

$$$$
