33590
     RDKit          3D

  9  9  0  0  0  0  0  0  0  0999 V2000
   -0.8255   -1.1471    0.9588 S   0  0  0  0  0  0  0  0  0  0  0  0
   -0.8245    1.1492   -0.9572 S   0  0  0  0  0  0  0  0  0  0  0  0
    0.2363    0.0002    0.0004 C   0  0  0  0  0  0  0  0  0  0  0  0
    1.0981   -0.8054   -0.9714 C   0  0  0  0  0  0  0  0  0  0  0  0
    1.1004    0.8046    0.9713 C   0  0  0  0  0  0  0  0  0  0  0  0
   -2.3858   -0.7444    0.1349 C   0  0  0  0  0  0  0  0  0  0  0  0
   -2.3860    0.7450   -0.1356 C   0  0  0  0  0  0  0  0  0  0  0  0
    1.9920   -1.7839   -0.2354 C   0  0  0  0  0  0  0  0  0  0  0  0
    1.9951    1.7818    0.2343 C   0  0  0  0  0  0  0  0  0  0  0  0
  1  3  1  0
  1  6  1  0
  2  3  1  0
  2  7  1  0
  3  4  1  0
  3  5  1  0
  4  8  1  0
  5  9  1  0
  6  7  1  0
M  END
>  <PUBCHEM_COMPOUND_CID>  (1) 
33590

>  <PUBCHEM_CONFORMER_RMSD>  (1) 
0.6

>  <PUBCHEM_CONFORMER_DIVERSEORDER>  (1) 
1
5
2
4
3

>  <PUBCHEM_MMFF94_PARTIAL_CHARGES>  (1) 
5
1 -0.46
2 -0.46
3 0.46
6 0.23
7 0.23

>  <PUBCHEM_EFFECTIVE_ROTOR_COUNT>  (1) 
3

>  <PUBCHEM_PHARMACOPHORE_FEATURES>  (1) 
3
1 8 hydrophobe
1 9 hydrophobe
5 1 2 3 6 7 rings

>  <PUBCHEM_HEAVY_ATOM_COUNT>  (1) 
9

>  <PUBCHEM_ATOM_DEF_STEREO_COUNT>  (1) 
0

>  <PUBCHEM_ATOM_UDEF_STEREO_COUNT>  (1) 
0

>  <PUBCHEM_BOND_DEF_STEREO_COUNT>  (1) 
0

>  <PUBCHEM_BOND_UDEF_STEREO_COUNT>  (1) 
0

>  <PUBCHEM_ISOTOPIC_ATOM_COUNT>  (1) 
0

>  <PUBCHEM_COMPONENT_COUNT>  (1) 
1

>  <PUBCHEM_CACTVS_TAUTO_COUNT>  (1) 
1

>  <PUBCHEM_CONFORMER_ID>  (1) 
0000833600000001

>  <PUBCHEM_MMFF94_ENERGY>  (1) 
18.7931

>  <PUBCHEM_FEATURE_SELFOVERLAP>  (1) 
15.223

>  <PUBCHEM_SHAPE_FINGERPRINT>  (1) 
12423570 1 8232534201459295980
13839132 238 18333726931522231061
16945 1 18413108359458749575
20201158 50 18340205168070489782
20653085 51 13898851312152046848
20653091 64 18201164269058780186
20711978 78 18131066026216268629
21040471 1 17822289037974996209
21061003 4 17986678065010497858
21501502 16 18410856563950581121
21922407 69 16916245362982844867
23211744 41 18190162650279707201
23235685 24 18265608969324895089
23235687 12 18059853948331079975
23552423 10 18113905948363095519
23552449 11 18272937102485995887
241688 4 18187933824435940233
2748010 2 18259704501915959839
29004967 10 17702098067214952790
5084963 1 17896045360234743455
528862 383 18201714076712923366
68250623 7 18343009017199900319

>  <PUBCHEM_SHAPE_MULTIPOLES>  (1) 
192.91
3.13
1.91
1.08
0.86
0
0
0
0
-0.9
0
-0.11
0
0.69

>  <PUBCHEM_SHAPE_SELFOVERLAP>  (1) 
343.703

>  <PUBCHEM_SHAPE_VOLUME>  (1) 
125.4

>  <PUBCHEM_COORDINATE_TYPE>  (1) 
2
5
10

$$$$
