336
     RDKit          3D

  9  8  0  0  1  0  0  0  0  0999 V2000
   -1.2318   -1.8809   -0.1101 O   0  0  0  0  0  0  0  0  0  0  0  0
   -1.0596    1.3886   -0.8910 O   0  0  0  0  0  0  0  0  0  0  0  0
   -2.6808    0.5462    0.4433 O   0  0  0  0  0  0  0  0  0  0  0  0
    1.8100    0.6164    1.2497 O   0  0  0  0  0  0  0  0  0  0  0  0
    0.6701   -0.5689   -0.3967 N   0  0  0  0  0  0  0  0  0  0  0  0
    2.8677    0.0286   -0.7018 N   0  0  0  0  0  0  0  0  0  0  0  0
   -0.6047   -0.6752    0.2794 C   0  0  0  0  0  0  0  0  0  0  0  0
   -1.5479    0.4737   -0.0205 C   0  0  0  0  0  0  0  0  0  0  0  0
    1.7771    0.0715    0.1477 C   0  0  0  0  0  0  0  0  0  0  0  0
  1  7  1  0
  2  8  1  0
  3  8  2  0
  4  9  2  0
  5  7  1  0
  5  9  1  0
  6  9  1  0
  7  8  1  0
M  END
>  <PUBCHEM_COMPOUND_CID>  (1) 
336

>  <PUBCHEM_CONFORMER_RMSD>  (1) 
0.6

>  <PUBCHEM_CONFORMER_DIVERSEORDER>  (1) 
1
3
4
9
8
6
7
2
5

>  <PUBCHEM_MMFF94_PARTIAL_CHARGES>  (1) 
14
1 -0.68
11 0.37
12 0.4
13 0.37
14 0.37
15 0.5
2 -0.65
3 -0.57
4 -0.57
5 -0.73
6 -0.8
7 0.64
8 0.66
9 0.69

>  <PUBCHEM_EFFECTIVE_ROTOR_COUNT>  (1) 
3

>  <PUBCHEM_PHARMACOPHORE_FEATURES>  (1) 
8
1 1 acceptor
1 1 donor
1 2 acceptor
1 3 acceptor
1 4 acceptor
1 5 donor
1 6 donor
3 2 3 8 anion

>  <PUBCHEM_HEAVY_ATOM_COUNT>  (1) 
9

>  <PUBCHEM_ATOM_DEF_STEREO_COUNT>  (1) 
0

>  <PUBCHEM_ATOM_UDEF_STEREO_COUNT>  (1) 
1

>  <PUBCHEM_BOND_DEF_STEREO_COUNT>  (1) 
0

>  <PUBCHEM_BOND_UDEF_STEREO_COUNT>  (1) 
0

>  <PUBCHEM_ISOTOPIC_ATOM_COUNT>  (1) 
0

>  <PUBCHEM_COMPONENT_COUNT>  (1) 
1

>  <PUBCHEM_CACTVS_TAUTO_COUNT>  (1) 
3

>  <PUBCHEM_CONFORMER_ID>  (1) 
0000015000000001

>  <PUBCHEM_MMFF94_ENERGY>  (1) 
10.1328

>  <PUBCHEM_FEATURE_SELFOVERLAP>  (1) 
40.756

>  <PUBCHEM_SHAPE_FINGERPRINT>  (1) 
10857977 72 18186528721743035073
12932741 1 17917993922964784026
16714656 1 18334301958828476861
20653085 51 16128665128066560233
21040471 1 18337666417090965042
23235685 24 18341334405071858836
24536 1 17632002143833953904
29004967 10 16845302639560177822
5084963 1 18261957319193724107
54338 74 17970895894032454843

>  <PUBCHEM_SHAPE_MULTIPOLES>  (1) 
151.78
3.51
1.27
0.88
1.03
0.39
-0.11
-0.63
-0.04
-0.69
0.16
0.3
-0.19
0.19

>  <PUBCHEM_SHAPE_SELFOVERLAP>  (1) 
290.083

>  <PUBCHEM_SHAPE_VOLUME>  (1) 
92.3

>  <PUBCHEM_COORDINATE_TYPE>  (1) 
2
5
10

$$$$
