33603
     RDKit          3D

 16 17  0  0  0  0  0  0  0  0999 V2000
    0.9178    2.7937   -0.5357 O   0  0  0  0  0  0  0  0  0  0  0  0
   -0.0020    0.6912   -0.0170 N   0  0  0  0  0  0  0  0  0  0  0  0
   -1.0524    2.7693    0.5950 N   0  0  0  0  0  0  0  0  0  0  0  0
   -1.2083   -0.0092    0.0129 C   0  0  0  0  0  0  0  0  0  0  0  0
    1.2709   -0.0285   -0.0312 C   0  0  0  0  0  0  0  0  0  0  0  0
   -1.2751   -1.2568    0.6333 C   0  0  0  0  0  0  0  0  0  0  0  0
    1.2940   -1.2565   -0.6211 C   0  0  0  0  0  0  0  0  0  0  0  0
   -2.3474    0.5376   -0.5779 C   0  0  0  0  0  0  0  0  0  0  0  0
    2.3449    0.5786    0.5469 C   0  0  0  0  0  0  0  0  0  0  0  0
    0.0040    2.1321   -0.0344 C   0  0  0  0  0  0  0  0  0  0  0  0
   -2.4808   -1.9573    0.6628 C   0  0  0  0  0  0  0  0  0  0  0  0
    2.5079   -1.9433   -0.6343 C   0  0  0  0  0  0  0  0  0  0  0  0
   -3.5531   -0.1630   -0.5483 C   0  0  0  0  0  0  0  0  0  0  0  0
    3.5590   -0.1083    0.5338 C   0  0  0  0  0  0  0  0  0  0  0  0
   -3.6199   -1.4106    0.0721 C   0  0  0  0  0  0  0  0  0  0  0  0
    3.6405   -1.3692   -0.0568 C   0  0  0  0  0  0  0  0  0  0  0  0
  1 10  2  0
  2  4  1  0
  2  5  1  0
  2 10  1  0
  3 10  1  0
  4  6  2  0
  4  8  1  0
  5  7  2  0
  5  9  1  0
  6 11  1  0
  7 12  1  0
  8 13  2  0
  9 14  2  0
 11 15  2  0
 12 16  2  0
 13 15  1  0
 14 16  1  0
M  END
>  <PUBCHEM_COMPOUND_CID>  (1) 
33603

>  <PUBCHEM_CONFORMER_RMSD>  (1) 
0.6

>  <PUBCHEM_CONFORMER_DIVERSEORDER>  (1) 
1
2
5
4
6
3

>  <PUBCHEM_MMFF94_PARTIAL_CHARGES>  (1) 
28
1 -0.57
10 0.69
11 -0.15
12 -0.15
13 -0.15
14 -0.15
15 -0.15
16 -0.15
17 0.15
18 0.15
19 0.15
2 -0.29
20 0.15
21 0.15
22 0.15
23 0.15
24 0.15
25 0.15
26 0.15
27 0.37
28 0.37
3 -0.8
4 0.12
5 0.12
6 -0.15
7 -0.15
8 -0.15
9 -0.15

>  <PUBCHEM_EFFECTIVE_ROTOR_COUNT>  (1) 
3

>  <PUBCHEM_PHARMACOPHORE_FEATURES>  (1) 
4
1 1 acceptor
1 3 donor
6 4 6 8 11 13 15 rings
6 5 7 9 12 14 16 rings

>  <PUBCHEM_HEAVY_ATOM_COUNT>  (1) 
16

>  <PUBCHEM_ATOM_DEF_STEREO_COUNT>  (1) 
0

>  <PUBCHEM_ATOM_UDEF_STEREO_COUNT>  (1) 
0

>  <PUBCHEM_BOND_DEF_STEREO_COUNT>  (1) 
0

>  <PUBCHEM_BOND_UDEF_STEREO_COUNT>  (1) 
0

>  <PUBCHEM_ISOTOPIC_ATOM_COUNT>  (1) 
0

>  <PUBCHEM_COMPONENT_COUNT>  (1) 
1

>  <PUBCHEM_CACTVS_TAUTO_COUNT>  (1) 
2

>  <PUBCHEM_CONFORMER_ID>  (1) 
0000834300000001

>  <PUBCHEM_MMFF94_ENERGY>  (1) 
84.4102

>  <PUBCHEM_FEATURE_SELFOVERLAP>  (1) 
20.297

>  <PUBCHEM_SHAPE_FINGERPRINT>  (1) 
1 1 17762060243157868757
10465860 250 18260536832002045010
10618630 7 18411138017568707806
10967382 1 18194683897822078278
11578080 2 16556460922095652585
116883 192 18340489963040998605
12032990 46 18410576188480600270
12532896 13 17691689987167586141
12553582 1 18338814363064951011
13296908 3 18410573989452134926
14115302 16 17894918425088042231
14648413 74 18118682351591742929
15219456 202 18412259553725552090
15375358 24 18410846668335654475
15490181 7 17256530712412462388
15848700 24 18412534418779138975
16945 1 18411146847894698853
17990270 104 18264488558175013371
200 152 17775276171366196007
20201158 50 18409445903554599203
20645477 70 18047463706754449167
20871998 22 18412549807604736334
21029758 11 18411973672592229309
21296965 67 18411699885332671883
21501502 16 18196374711025663498
221490 88 18118970440786837171
22213442 358 18410291457987127655
22721475 48 18410296912516251367
22802520 49 18127413345588897606
23184049 29 18192988219338788994
23402539 116 18339347574691383670
23419403 2 17971441187581363116
23557571 272 18199192793771885564
23559900 14 18337101251662724570
2748010 2 18412543189118246582
3071541 158 18260828249638174413
474 4 14906176513954691354
5493415 88 18335982090026553179
5902787 121 18187921836881679930
7364860 26 18122345941272762009
81228 2 18265906752086603104
8809292 202 18336266738862906098
9709674 26 18198623229242196502

>  <PUBCHEM_SHAPE_MULTIPOLES>  (1) 
313.44
6.04
2.66
0.82
0.11
1.73
0
-3.28
0
-0.09
0.03
-0.02
-0.09
0.52

>  <PUBCHEM_SHAPE_SELFOVERLAP>  (1) 
679.931

>  <PUBCHEM_SHAPE_VOLUME>  (1) 
169

>  <PUBCHEM_COORDINATE_TYPE>  (1) 
2
5
10

$$$$
