33600
     RDKit          3D

 16 16  0  0  1  0  0  0  0  0999 V2000
    4.2049   -2.6452    0.2352 O   0  0  0  0  0  0  0  0  0  0  0  0
    1.7608   -0.0024   -0.0242 O   0  0  0  0  0  0  0  0  0  0  0  0
    1.4973    1.3226    1.8350 O   0  0  0  0  0  0  0  0  0  0  0  0
    0.4646    1.9927   -0.2750 C   0  0  0  0  0  0  0  0  0  0  0  0
   -0.6767    1.1638   -0.9248 C   0  0  0  0  0  0  0  0  0  0  0  0
   -1.6926    0.5745    0.0642 C   0  0  0  0  0  0  0  0  0  0  0  0
    2.9329   -2.0794   -0.1059 C   0  0  0  0  0  0  0  0  0  0  0  0
   -2.8157   -0.1602   -0.6730 C   0  0  0  0  0  0  0  0  0  0  0  0
   -0.1109    3.2030    0.4797 C   0  0  0  0  0  0  0  0  0  0  0  0
    1.4020    2.4920   -1.3886 C   0  0  0  0  0  0  0  0  0  0  0  0
    4.1163   -1.9624   -1.0220 C   0  0  0  0  0  0  0  0  0  0  0  0
    1.3076    1.0980    0.6450 C   0  0  0  0  0  0  0  0  0  0  0  0
    2.5092   -0.9403    0.7563 C   0  0  0  0  0  0  0  0  0  0  0  0
   -3.8569   -0.7096    0.3037 C   0  0  0  0  0  0  0  0  0  0  0  0
   -4.9944   -1.4142   -0.4352 C   0  0  0  0  0  0  0  0  0  0  0  0
   -6.0488   -1.9328    0.5296 C   0  0  0  0  0  0  0  0  0  0  0  0
  1  7  1  0
  1 11  1  0
  2 12  1  0
  2 13  1  0
  3 12  2  0
  4  5  1  0
  4  9  1  0
  4 10  1  0
  4 12  1  0
  5  6  1  0
  6  8  1  0
  7 11  1  0
  7 13  1  0
  8 14  1  0
 14 15  1  0
 15 16  1  0
M  END
>  <PUBCHEM_COMPOUND_CID>  (1) 
33600

>  <PUBCHEM_CONFORMER_RMSD>  (1) 
1

>  <PUBCHEM_CONFORMER_DIVERSEORDER>  (1) 
1
191
448
373
312
508
17
105
476
306
121
129
469
31
123
15
444
51
346
256
400
463
420
80
194
127
70
7
406
363
330
155
402
14
32
308
222
180
117
183
5
4
79
115
195
203
426
385
138
42
291
24
280
74
251
148
92
52
414
6
2
94
289
120
111
103
95
36
512
41
68
38
270
208
8
435
27
437
35
186
528
9
85
221
365

>  <PUBCHEM_MMFF94_PARTIAL_CHARGES>  (1) 
11
1 -0.3
11 -0.05
12 0.66
13 0.38
2 -0.43
21 0.1
24 0.1
25 0.1
3 -0.57
4 0.06
7 -0.05

>  <PUBCHEM_EFFECTIVE_ROTOR_COUNT>  (1) 
9.6

>  <PUBCHEM_PHARMACOPHORE_FEATURES>  (1) 
6
1 1 acceptor
1 16 hydrophobe
1 3 acceptor
3 4 5 6 hydrophobe
3 4 9 10 hydrophobe
3 8 14 15 hydrophobe

>  <PUBCHEM_HEAVY_ATOM_COUNT>  (1) 
16

>  <PUBCHEM_ATOM_DEF_STEREO_COUNT>  (1) 
0

>  <PUBCHEM_ATOM_UDEF_STEREO_COUNT>  (1) 
1

>  <PUBCHEM_BOND_DEF_STEREO_COUNT>  (1) 
0

>  <PUBCHEM_BOND_UDEF_STEREO_COUNT>  (1) 
0

>  <PUBCHEM_ISOTOPIC_ATOM_COUNT>  (1) 
0

>  <PUBCHEM_COMPONENT_COUNT>  (1) 
1

>  <PUBCHEM_CACTVS_TAUTO_COUNT>  (1) 
1

>  <PUBCHEM_CONFORMER_ID>  (1) 
0000834000000001

>  <PUBCHEM_MMFF94_ENERGY>  (1) 
20.4996

>  <PUBCHEM_FEATURE_SELFOVERLAP>  (1) 
30.863

>  <PUBCHEM_SHAPE_FINGERPRINT>  (1) 
114674 6 18188764067400405379
12006461 19 18411980247928729131
12107183 9 18269849636187772177
122479 349 9799106570650401238
12616999 72 17970630911951869557
12633257 1 15625932158186844971
12841375 25 18408040688965366214
13103583 49 17917442973355943955
13533116 47 18266744765659333779
13631057 29 18265051319931297098
13955234 65 18195532721157729641
14251731 5 18411417276374098135
14251732 17 9727628402250521654
14251740 57 18190465055355322459
14251758 9 18260828177731226621
14251764 30 17845666845663114102
14252887 29 18339070583707899129
14863182 85 18266455593457494228
14866123 147 17908423550787639771
15342816 4 18040989601589864754
17859628 70 18266180724193297355
20388580 30 18261398848954561332
20645477 70 18042400399857680279
20871998 22 18410848863074602677
20871999 31 17895756175501547447
21452121 199 18408884027506512748
21665056 4 16969135939602038596
23016692 55 18340217314396304335
2838139 119 10125652161013607079
3421961 26 18412542145551801003
4416823 128 18411135805644732591
4463277 69 18340759408146479847
5207 123 18410005516898453271
57003041 14 18128248996148965208
8217 86 18270409287290429006
94968 8 18333730229919977307

>  <PUBCHEM_SHAPE_MULTIPOLES>  (1) 
311.66
9.82
3.56
1.16
14.21
0.91
-0.09
-12.64
0.07
-2.99
0.18
-0.58
0.42
0.42

>  <PUBCHEM_SHAPE_SELFOVERLAP>  (1) 
592.792

>  <PUBCHEM_SHAPE_VOLUME>  (1) 
193.5

>  <PUBCHEM_COORDINATE_TYPE>  (1) 
2
5
10

$$$$
