33610
     RDKit          3D

 10 10  0  0  0  0  0  0  0  0999 V2000
   -0.9810    1.2128   -0.8754 S   0  0  0  0  0  0  0  0  0  0  0  0
   -0.9545   -0.9850    1.1526 S   0  0  0  0  0  0  0  0  0  0  0  0
    1.2762   -0.2133   -0.2514 C   0  0  0  0  0  0  0  0  0  0  0  0
    0.0264    0.3722    0.4055 C   0  0  0  0  0  0  0  0  0  0  0  0
    2.1295   -0.9330    0.8063 C   0  0  0  0  0  0  0  0  0  0  0  0
    0.8673   -1.2181   -1.3413 C   0  0  0  0  0  0  0  0  0  0  0  0
    2.1046    0.9149   -0.8881 C   0  0  0  0  0  0  0  0  0  0  0  0
    0.3933    1.3776    1.4966 C   0  0  0  0  0  0  0  0  0  0  0  0
   -2.5667    0.4563   -0.4409 C   0  0  0  0  0  0  0  0  0  0  0  0
   -2.2950   -0.9844   -0.0638 C   0  0  0  0  0  0  0  0  0  0  0  0
  1  4  1  0
  1  9  1  0
  2  4  1  0
  2 10  1  0
  3  4  1  0
  3  5  1  0
  3  6  1  0
  3  7  1  0
  4  8  1  0
  9 10  1  0
M  END
>  <PUBCHEM_COMPOUND_CID>  (1) 
33610

>  <PUBCHEM_CONFORMER_RMSD>  (1) 
0.4

>  <PUBCHEM_CONFORMER_DIVERSEORDER>  (1) 
1

>  <PUBCHEM_MMFF94_PARTIAL_CHARGES>  (1) 
5
1 -0.46
10 0.23
2 -0.46
4 0.46
9 0.23

>  <PUBCHEM_EFFECTIVE_ROTOR_COUNT>  (1) 
2

>  <PUBCHEM_PHARMACOPHORE_FEATURES>  (1) 
2
4 3 5 6 7 hydrophobe
5 1 2 4 9 10 rings

>  <PUBCHEM_HEAVY_ATOM_COUNT>  (1) 
10

>  <PUBCHEM_ATOM_DEF_STEREO_COUNT>  (1) 
0

>  <PUBCHEM_ATOM_UDEF_STEREO_COUNT>  (1) 
0

>  <PUBCHEM_BOND_DEF_STEREO_COUNT>  (1) 
0

>  <PUBCHEM_BOND_UDEF_STEREO_COUNT>  (1) 
0

>  <PUBCHEM_ISOTOPIC_ATOM_COUNT>  (1) 
0

>  <PUBCHEM_COMPONENT_COUNT>  (1) 
1

>  <PUBCHEM_CACTVS_TAUTO_COUNT>  (1) 
1

>  <PUBCHEM_CONFORMER_ID>  (1) 
0000834A00000001

>  <PUBCHEM_MMFF94_ENERGY>  (1) 
38.43

>  <PUBCHEM_FEATURE_SELFOVERLAP>  (1) 
10.148

>  <PUBCHEM_SHAPE_FINGERPRINT>  (1) 
10702982 57 16473483789907872153
12423570 1 9147192017263382784
12897270 3 18041007296501540476
137420 1 13379131479953853617
14128692 85 18187641358527246786
15310529 11 18187930620232120823
16945 1 18188766120051348183
20201158 50 18270959042550045503
20653085 51 16009327438633000310
21040471 1 17312828168902398183
21922407 69 17773060620780732464
23235687 12 18335986376345807965
23552423 10 17676201360103503043
241688 4 17185885986616100866
24536 1 18055935211469238654
29004967 10 17632289051801920947
5084963 1 18188755176675111997
528886 8 17895195540619965729

>  <PUBCHEM_SHAPE_MULTIPOLES>  (1) 
213.49
3.1
1.55
1.43
0.69
0.04
-0.22
-0.14
0.52
0.06
-0.03
-0.35
0.03
0.06

>  <PUBCHEM_SHAPE_SELFOVERLAP>  (1) 
392.644

>  <PUBCHEM_SHAPE_VOLUME>  (1) 
134.5

>  <PUBCHEM_COORDINATE_TYPE>  (1) 
2
5
10

$$$$
