3361
     RDKit          3D

 31 33  0  0  1  0  0  0  0  0999 V2000
   -2.6821   -0.0511   -0.5642 S   0  0  0  0  0  0  0  0  0  0  0  0
    3.8245   -3.9375    0.4217 S   0  0  0  0  0  0  0  0  0  0  0  0
    1.8345   -3.8456   -1.2651 F   0  0  0  0  0  0  0  0  0  0  0  0
    1.5657    0.9907   -1.9574 O   0  0  0  0  0  0  0  0  0  0  0  0
    4.7375    1.7855   -0.2679 O   0  0  0  0  0  0  0  0  0  0  0  0
    3.0073    0.7572    2.2309 O   0  0  0  0  0  0  0  0  0  0  0  0
    0.1892    2.4611    2.5925 O   0  0  0  0  0  0  0  0  0  0  0  0
   -0.9434    0.4943    2.3111 O   0  0  0  0  0  0  0  0  0  0  0  0
    4.9917   -1.1305    1.0893 O   0  0  0  0  0  0  0  0  0  0  0  0
   -6.5396   -2.1578    1.5326 O   0  0  0  0  0  0  0  0  0  0  0  0
    1.6704    1.3835    0.4003 N   0  0  0  0  0  0  0  0  0  0  0  0
    3.7691   -0.4077   -0.7463 N   0  0  0  0  0  0  0  0  0  0  0  0
   -5.4039   -0.5458   -0.5904 N   0  0  0  0  0  0  0  0  0  0  0  0
   -4.9299    1.5697   -0.6445 N   0  0  0  0  0  0  0  0  0  0  0  0
   -6.5886    0.0802   -0.6251 N   0  0  0  0  0  0  0  0  0  0  0  0
   -6.2925    1.3737   -0.6576 N   0  0  0  0  0  0  0  0  0  0  0  0
    2.2887    1.6180   -0.8874 C   0  0  0  0  0  0  0  0  0  0  0  0
    3.5528    0.9663   -0.2807 C   0  0  0  0  0  0  0  0  0  0  0  0
    2.7775    1.0253    1.0752 C   0  0  0  0  0  0  0  0  0  0  0  0
    0.3257    1.4379    0.5364 C   0  0  0  0  0  0  0  0  0  0  0  0
   -0.4482    1.4759   -0.5736 C   0  0  0  0  0  0  0  0  0  0  0  0
    0.1729    1.3578   -1.9731 C   0  0  0  0  0  0  0  0  0  0  0  0
   -1.9479    1.5942   -0.5998 C   0  0  0  0  0  0  0  0  0  0  0  0
   -0.2248    1.3834    1.8948 C   0  0  0  0  0  0  0  0  0  0  0  0
    4.4803   -1.3479   -0.0081 C   0  0  0  0  0  0  0  0  0  0  0  0
    5.2467    2.1438   -1.5442 C   0  0  0  0  0  0  0  0  0  0  0  0
    4.5597   -2.7006   -0.6739 C   0  0  0  0  0  0  0  0  0  0  0  0
   -4.3998    0.3690   -0.6023 C   0  0  0  0  0  0  0  0  0  0  0  0
   -5.3416   -1.9849   -0.5493 C   0  0  0  0  0  0  0  0  0  0  0  0
    2.0833   -3.6299    0.0527 C   0  0  0  0  0  0  0  0  0  0  0  0
   -5.3356   -2.5281    0.8733 C   0  0  0  0  0  0  0  0  0  0  0  0
  1 23  1  0
  1 28  1  0
  2 27  1  0
  2 30  1  0
  3 30  1  0
  4 17  1  0
  4 22  1  0
  5 18  1  0
  5 26  1  0
  6 19  2  0
  7 24  1  0
  8 24  2  0
  9 25  2  0
 10 31  1  0
 11 17  1  0
 11 19  1  0
 11 20  1  0
 12 18  1  0
 12 25  1  0
 13 15  1  0
 13 28  1  0
 13 29  1  0
 14 16  1  0
 14 28  2  0
 15 16  2  0
 17 18  1  0
 18 19  1  0
 20 21  2  0
 20 24  1  0
 21 22  1  0
 21 23  1  0
 25 27  1  0
 29 31  1  0
M  END
>  <PUBCHEM_COMPOUND_CID>  (1) 
3361

>  <PUBCHEM_CONFORMER_RMSD>  (1) 
1.2

>  <PUBCHEM_CONFORMER_DIVERSEORDER>  (1) 
1
26
42
46
84
12
64
37
50
47
83
70
85
35
44
52
74
66
65
49
56
57
14
48
43
82
45
53
69
31
5
63
60
61
76
78
25
86
21
81
73
30
54
75
29
3
67
17
72
9
28
36
80
41
51
77
58
68
40
55
62
59
13
27
71
38
79
33
20
22
39
6
34
16
19
23
18
15
11
32
8
7
2
10
24
4

>  <PUBCHEM_MMFF94_PARTIAL_CHARGES>  (1) 
33
1 -0.29
10 -0.68
11 -0.39
12 -0.65
13 0.31
14 -0.34
15 -0.42
17 0.48
18 0.54
19 0.58
2 -0.46
20 0.12
21 -0.28
22 0.42
23 0.37
24 0.71
25 0.57
26 0.28
27 0.29
28 0.24
29 0.26
3 -0.34
30 0.57
31 0.28
33 0.37
4 -0.54
43 0.5
5 -0.54
50 0.4
6 -0.57
7 -0.65
8 -0.57
9 -0.57

>  <PUBCHEM_EFFECTIVE_ROTOR_COUNT>  (1) 
12.6

>  <PUBCHEM_PHARMACOPHORE_FEATURES>  (1) 
14
1 10 acceptor
1 10 donor
1 12 donor
1 4 acceptor
1 5 acceptor
1 6 acceptor
1 7 acceptor
1 8 acceptor
1 9 acceptor
3 13 14 28 cation
3 7 8 24 anion
4 11 17 18 19 rings
5 13 14 15 16 28 rings
6 4 11 17 20 21 22 rings

>  <PUBCHEM_HEAVY_ATOM_COUNT>  (1) 
31

>  <PUBCHEM_ATOM_DEF_STEREO_COUNT>  (1) 
0

>  <PUBCHEM_ATOM_UDEF_STEREO_COUNT>  (1) 
2

>  <PUBCHEM_BOND_DEF_STEREO_COUNT>  (1) 
0

>  <PUBCHEM_BOND_UDEF_STEREO_COUNT>  (1) 
0

>  <PUBCHEM_ISOTOPIC_ATOM_COUNT>  (1) 
0

>  <PUBCHEM_COMPONENT_COUNT>  (1) 
1

>  <PUBCHEM_CACTVS_TAUTO_COUNT>  (1) 
2

>  <PUBCHEM_CONFORMER_ID>  (1) 
00000D2100000001

>  <PUBCHEM_MMFF94_ENERGY>  (1) 
61.0749

>  <PUBCHEM_FEATURE_SELFOVERLAP>  (1) 
71.448

>  <PUBCHEM_SHAPE_FINGERPRINT>  (1) 
11796584 16 18410006603161104013
12236239 1 17749384880361896693
12633257 1 16701463502223442621
12788726 201 17489315161143762464
13533116 47 18343016662204737876
1361 2 18187087265149688220
13782708 43 18059569265731204735
15183329 4 18334294245462904061
15475509 35 18201707457862495235
15537594 2 18059854016839437183
15799311 1 18337405863427415479
20567600 247 18411978096377181511
21315764 119 18261386694962277413
23559900 14 18337101380770479349
2838139 119 9078820883923719186
3004659 81 18408882911057336196
33382 64 18410578400609959545
338550 245 18335138738902023367
4073 2 18333735745179874029
4340502 62 18270952540602691768
4435113 14 18187094966100656611
46194498 28 17968094184229242804
463206 1 18272358785118913031
5265222 85 18048886487200221636
5326457 24 18410013196025522167

>  <PUBCHEM_SHAPE_MULTIPOLES>  (1) 
567.42
14.96
4.12
1.87
21.44
5.21
0.97
6.69
-1.93
-3.71
-0.19
-0.48
-0.95
0.67

>  <PUBCHEM_SHAPE_SELFOVERLAP>  (1) 
1156.34

>  <PUBCHEM_SHAPE_VOLUME>  (1) 
332.4

>  <PUBCHEM_COORDINATE_TYPE>  (1) 
2
5
10

$$$$
