33624
     RDKit          3D

 21 22  0  0  1  0  0  0  0  0999 V2000
    2.5419   -3.1441   -1.1465 S   0  0  0  0  0  0  0  0  0  0  0  0
    2.7129    3.2229    0.3632 O   0  0  0  0  0  0  0  0  0  0  0  0
    0.1405   -1.0084    0.6462 O   0  0  0  0  0  0  0  0  0  0  0  0
   -1.3506   -0.5842    2.9905 O   0  0  0  0  0  0  0  0  0  0  0  0
   -3.2635   -0.4536   -0.1728 N   0  0  0  0  0  0  0  0  0  0  0  0
    2.4544    0.5088   -0.3330 N   0  0  0  0  0  0  0  0  0  0  0  0
    3.2006   -1.6016   -1.1928 N   0  0  0  0  0  0  0  0  0  0  0  0
    1.1295   -2.8432   -0.2921 N   0  0  0  0  0  0  0  0  0  0  0  0
   -3.8380    0.6731   -0.9155 C   0  0  0  0  0  0  0  0  0  0  0  0
   -2.5709    0.0174    1.0146 C   0  0  0  0  0  0  0  0  0  0  0  0
   -1.9536   -1.1321    1.8146 C   0  0  0  0  0  0  0  0  0  0  0  0
    1.3762    1.4568   -0.6369 C   0  0  0  0  0  0  0  0  0  0  0  0
    3.7813    1.1281   -0.2147 C   0  0  0  0  0  0  0  0  0  0  0  0
   -2.7152    1.6249   -1.3448 C   0  0  0  0  0  0  0  0  0  0  0  0
   -4.8285    1.4045   -0.0034 C   0  0  0  0  0  0  0  0  0  0  0  0
   -4.5644    0.1256   -2.1486 C   0  0  0  0  0  0  0  0  0  0  0  0
    1.4215    2.6133    0.3572 C   0  0  0  0  0  0  0  0  0  0  0  0
    3.7135    2.2881    0.7703 C   0  0  0  0  0  0  0  0  0  0  0  0
   -0.8926   -1.9077    1.0368 C   0  0  0  0  0  0  0  0  0  0  0  0
    2.3157   -0.8457   -0.5389 C   0  0  0  0  0  0  0  0  0  0  0  0
    1.1892   -1.5428   -0.0535 C   0  0  0  0  0  0  0  0  0  0  0  0
  1  7  1  0
  1  8  1  0
  2 17  1  0
  2 18  1  0
  3 19  1  0
  3 21  1  0
  4 11  1  0
  5  9  1  0
  5 10  1  0
  6 12  1  0
  6 13  1  0
  6 20  1  0
  7 20  2  0
  8 21  2  0
  9 14  1  0
  9 15  1  0
  9 16  1  0
 10 11  1  0
 11 19  1  0
 12 17  1  0
 13 18  1  0
 20 21  1  0
M  END
>  <PUBCHEM_COMPOUND_CID>  (1) 
33624

>  <PUBCHEM_CONFORMER_RMSD>  (1) 
1

>  <PUBCHEM_CONFORMER_DIVERSEORDER>  (1) 
1
3
33
12
5
29
45
35
44
16
27
6
24
31
23
14
18
15
22
25
38
37
26
42
11
19
21
46
8
2
41
36
7
30
17
32
34
39
28
4
10
43
13
40
20
9

>  <PUBCHEM_MMFF94_PARTIAL_CHARGES>  (1) 
20
1 0.44
10 0.27
11 0.28
12 0.37
13 0.37
17 0.28
18 0.28
19 0.28
2 -0.56
20 0.37
21 0.35
22 0.36
3 -0.34
4 -0.68
45 0.4
5 -0.9
6 -0.82
7 -0.51
8 -0.51
9 0.27

>  <PUBCHEM_EFFECTIVE_ROTOR_COUNT>  (1) 
8.2

>  <PUBCHEM_PHARMACOPHORE_FEATURES>  (1) 
9
1 2 acceptor
1 4 acceptor
1 4 donor
1 5 cation
1 5 donor
3 6 7 20 cation
4 9 14 15 16 hydrophobe
5 1 7 8 20 21 rings
6 2 6 12 13 17 18 rings

>  <PUBCHEM_HEAVY_ATOM_COUNT>  (1) 
21

>  <PUBCHEM_ATOM_DEF_STEREO_COUNT>  (1) 
1

>  <PUBCHEM_ATOM_UDEF_STEREO_COUNT>  (1) 
0

>  <PUBCHEM_BOND_DEF_STEREO_COUNT>  (1) 
0

>  <PUBCHEM_BOND_UDEF_STEREO_COUNT>  (1) 
0

>  <PUBCHEM_ISOTOPIC_ATOM_COUNT>  (1) 
0

>  <PUBCHEM_COMPONENT_COUNT>  (1) 
1

>  <PUBCHEM_CACTVS_TAUTO_COUNT>  (1) 
1

>  <PUBCHEM_CONFORMER_ID>  (1) 
0000835800000001

>  <PUBCHEM_MMFF94_ENERGY>  (1) 
45.4337

>  <PUBCHEM_FEATURE_SELFOVERLAP>  (1) 
45.67

>  <PUBCHEM_SHAPE_FINGERPRINT>  (1) 
10871710 139 16100521302524668972
11221954 11 18042405896898912949
11370993 70 18267859660799615153
11725454 13 17969203676844003923
12077114 3 18042685177194710888
12100795 323 17974007554778568700
12788726 201 17256817689653956710
12892183 10 8069732036513569391
13009979 54 16916510224751962758
13134695 92 18268157452800364262
13294875 104 17459179707700072418
13402501 40 18260547826897036556
13544592 271 18262236728523533889
13726171 33 15720540641279325421
13965767 371 14273738442990256447
14251732 17 18187632640007477728
14251757 17 18334579006052777121
14251764 38 18189331441122538349
14957384 54 18046895254863454632
17357779 13 18193856846467435454
18186145 218 17968661510733102655
18219364 16 18266756842146982104
19930381 70 18340767160789529437
20429585 67 18122054567293551551
20600515 1 14720103588315683091
21639500 275 18342749519597353370
221357 26 18192151486874049325
22182313 1 18113627811092886795
23557571 272 17750532817655868075
23598288 3 16700639834654065755
238 59 18340762723528806005
2748010 2 18263383519214542626
3187 122 17390520945133270219
3524813 1 17968663705113088685
574716 61 18060417993717342157
5969126 39 17623013396408667886
6049 1 17970095346499035027
621550 5 16960481966768730491
633830 44 17415313721069267824
6913067 236 17977953710901226427
7399639 24 18120106223466195267
7471813 234 17844809187848493506
7615 1 17203059473383857914
9862522 239 18050279568743667872

>  <PUBCHEM_SHAPE_MULTIPOLES>  (1) 
398.49
8.44
3.54
1.81
6.8
0.09
-0.78
3.46
3.16
-4.51
0.2
1.78
-0.61
1.94

>  <PUBCHEM_SHAPE_SELFOVERLAP>  (1) 
792.183

>  <PUBCHEM_SHAPE_VOLUME>  (1) 
239.7

>  <PUBCHEM_COORDINATE_TYPE>  (1) 
2
5
10

$$$$
