3362
     RDKit          3D

 13 13  0  0  0  0  0  0  0  0999 V2000
    0.3596    2.3190    0.2278 O   0  0  0  0  0  0  0  0  0  0  0  0
    0.0345   -2.4661    0.0441 O   0  0  0  0  0  0  0  0  0  0  0  0
    2.1997   -0.2592    1.4158 O   0  0  0  0  0  0  0  0  0  0  0  0
   -3.8867    0.2199   -0.2779 O   0  0  0  0  0  0  0  0  0  0  0  0
    0.2325   -0.0762    0.1397 C   0  0  0  0  0  0  0  0  0  0  0  0
    1.6800   -0.1800    0.2861 C   0  0  0  0  0  0  0  0  0  0  0  0
    2.5755   -0.1929   -0.9631 C   0  0  0  0  0  0  0  0  0  0  0  0
   -0.3777    1.1779    0.1158 C   0  0  0  0  0  0  0  0  0  0  0  0
   -0.5414   -1.2307    0.0235 C   0  0  0  0  0  0  0  0  0  0  0  0
   -1.7620    1.2773   -0.0245 C   0  0  0  0  0  0  0  0  0  0  0  0
   -1.9256   -1.1313   -0.1168 C   0  0  0  0  0  0  0  0  0  0  0  0
   -2.5359    0.1228   -0.1409 C   0  0  0  0  0  0  0  0  0  0  0  0
    3.9476    0.4193   -0.7295 C   0  0  0  0  0  0  0  0  0  0  0  0
  1  8  1  0
  2  9  1  0
  3  6  2  0
  4 12  1  0
  5  6  1  0
  5  8  2  0
  5  9  1  0
  6  7  1  0
  7 13  1  0
  8 10  1  0
  9 11  2  0
 10 12  2  0
 11 12  1  0
M  END
>  <PUBCHEM_COMPOUND_CID>  (1) 
3362

>  <PUBCHEM_CONFORMER_RMSD>  (1) 
0.6

>  <PUBCHEM_CONFORMER_DIVERSEORDER>  (1) 
1
3
2

>  <PUBCHEM_MMFF94_PARTIAL_CHARGES>  (1) 
17
1 -0.53
10 -0.15
11 -0.15
12 0.08
16 0.15
17 0.15
2 -0.53
21 0.45
22 0.45
23 0.45
3 -0.57
4 -0.53
5 0.09
6 0.42
7 0.06
8 0.08
9 0.08

>  <PUBCHEM_EFFECTIVE_ROTOR_COUNT>  (1) 
2

>  <PUBCHEM_PHARMACOPHORE_FEATURES>  (1) 
6
1 1 donor
1 13 hydrophobe
1 2 donor
1 3 acceptor
1 4 donor
6 5 8 9 10 11 12 rings

>  <PUBCHEM_HEAVY_ATOM_COUNT>  (1) 
13

>  <PUBCHEM_ATOM_DEF_STEREO_COUNT>  (1) 
0

>  <PUBCHEM_ATOM_UDEF_STEREO_COUNT>  (1) 
0

>  <PUBCHEM_BOND_DEF_STEREO_COUNT>  (1) 
0

>  <PUBCHEM_BOND_UDEF_STEREO_COUNT>  (1) 
0

>  <PUBCHEM_ISOTOPIC_ATOM_COUNT>  (1) 
0

>  <PUBCHEM_COMPONENT_COUNT>  (1) 
1

>  <PUBCHEM_CACTVS_TAUTO_COUNT>  (1) 
25

>  <PUBCHEM_CONFORMER_ID>  (1) 
00000D2200000001

>  <PUBCHEM_MMFF94_ENERGY>  (1) 
34.1349

>  <PUBCHEM_FEATURE_SELFOVERLAP>  (1) 
30.446

>  <PUBCHEM_SHAPE_FINGERPRINT>  (1) 
11206711 2 18337660945788193437
12119455 92 13984657096509465802
13538477 17 18041273357078229890
14614273 12 18188770518203575565
14911166 2 18411697699384190101
14993402 34 18409167722775333957
15310529 11 16877653552624508301
15775835 57 17894632560691444436
16945 1 18411973655317310585
193761 8 17762336216402396097
20201158 50 17918001568154400758
20645476 183 17822295716290900158
20871999 31 18267870655979242398
21293036 1 18410015441860972933
21501502 16 17981328893496027011
22802520 49 18057066643442002774
23235685 24 18410292497342625255
2334 1 18050561052331145625
23402539 116 18341888593835049390
23402655 69 18124012565727393773
23419403 2 16186282990600202197
23463225 33 18190453870574324154
23552423 10 17900257799528565373
23559900 14 18342742936372240244
2748010 2 18121771996608959013
369184 2 15936410018033445043
5084963 1 17988928876828321569
528886 8 18411700984622792539
53812653 8 18334859381143209324
7364860 26 17913770793049736152
77492 1 17749385962518893082

>  <PUBCHEM_SHAPE_MULTIPOLES>  (1) 
244.06
5.07
1.8
0.85
1.39
0.12
-0.1
-0.55
1.24
-0.4
-0.1
0.57
0.03
-0.09

>  <PUBCHEM_SHAPE_SELFOVERLAP>  (1) 
510.68

>  <PUBCHEM_SHAPE_VOLUME>  (1) 
139

>  <PUBCHEM_COORDINATE_TYPE>  (1) 
2
5
10

$$$$
