33630
     RDKit          3D

 36 39  0  0  0  0  0  0  0  0999 V2000
    6.8026    1.2013    3.0210 Cl  0  0  0  0  0  0  0  0  0  0  0  0
    7.3917    0.7042   -1.3551 F   0  0  0  0  0  0  0  0  0  0  0  0
    7.5866    2.1938    0.2093 F   0  0  0  0  0  0  0  0  0  0  0  0
    8.2984    0.1670    0.5470 F   0  0  0  0  0  0  0  0  0  0  0  0
   -4.3152   -4.0043    3.0174 F   0  0  0  0  0  0  0  0  0  0  0  0
   -6.0885    4.8606    0.9486 F   0  0  0  0  0  0  0  0  0  0  0  0
    3.2507   -2.1103   -1.4138 O   0  0  0  0  0  0  0  0  0  0  0  0
    0.0532   -0.6336   -2.2156 N   0  0  0  0  0  0  0  0  0  0  0  0
    2.6780   -0.9190   -0.8543 C   0  0  0  0  0  0  0  0  0  0  0  0
    1.3276   -1.3031   -0.2091 C   0  0  0  0  0  0  0  0  0  0  0  0
    2.4115    0.1030   -1.9834 C   0  0  0  0  0  0  0  0  0  0  0  0
    0.2637   -1.7058   -1.2370 C   0  0  0  0  0  0  0  0  0  0  0  0
    1.2915   -0.3282   -2.9391 C   0  0  0  0  0  0  0  0  0  0  0  0
   -1.0118   -0.9947   -3.1509 C   0  0  0  0  0  0  0  0  0  0  0  0
    3.7283   -0.3810    0.1190 C   0  0  0  0  0  0  0  0  0  0  0  0
   -2.3297   -1.1945   -2.4029 C   0  0  0  0  0  0  0  0  0  0  0  0
   -2.7375    0.0819   -1.6526 C   0  0  0  0  0  0  0  0  0  0  0  0
   -4.1224   -0.0442   -0.9665 C   0  0  0  0  0  0  0  0  0  0  0  0
    4.9849   -0.0027   -0.3518 C   0  0  0  0  0  0  0  0  0  0  0  0
    3.4272   -0.2698    1.4757 C   0  0  0  0  0  0  0  0  0  0  0  0
    5.9424    0.4877    0.5360 C   0  0  0  0  0  0  0  0  0  0  0  0
   -4.1754   -1.1176    0.1133 C   0  0  0  0  0  0  0  0  0  0  0  0
   -4.6564    1.2874   -0.4473 C   0  0  0  0  0  0  0  0  0  0  0  0
    4.3849    0.2207    2.3635 C   0  0  0  0  0  0  0  0  0  0  0  0
    5.6424    0.5995    1.8936 C   0  0  0  0  0  0  0  0  0  0  0  0
    7.2780    0.8822   -0.0068 C   0  0  0  0  0  0  0  0  0  0  0  0
   -3.8632   -0.7713    1.4112 C   0  0  0  0  0  0  0  0  0  0  0  0
   -3.7568    2.2497   -0.0428 C   0  0  0  0  0  0  0  0  0  0  0  0
   -4.5332   -2.4013   -0.2415 C   0  0  0  0  0  0  0  0  0  0  0  0
   -6.0196    1.4822   -0.4000 C   0  0  0  0  0  0  0  0  0  0  0  0
   -3.9109   -1.7540    2.3999 C   0  0  0  0  0  0  0  0  0  0  0  0
   -4.2446    3.4669    0.4326 C   0  0  0  0  0  0  0  0  0  0  0  0
   -4.5810   -3.3840    0.7474 C   0  0  0  0  0  0  0  0  0  0  0  0
   -6.5074    2.6996    0.0753 C   0  0  0  0  0  0  0  0  0  0  0  0
   -4.2699   -3.0604    2.0680 C   0  0  0  0  0  0  0  0  0  0  0  0
   -5.6199    3.6920    0.4916 C   0  0  0  0  0  0  0  0  0  0  0  0
  1 25  1  0
  2 26  1  0
  3 26  1  0
  4 26  1  0
  5 35  1  0
  6 36  1  0
  7  9  1  0
  8 12  1  0
  8 13  1  0
  8 14  1  0
  9 10  1  0
  9 11  1  0
  9 15  1  0
 10 12  1  0
 11 13  1  0
 14 16  1  0
 15 19  2  0
 15 20  1  0
 16 17  1  0
 17 18  1  0
 18 22  1  0
 18 23  1  0
 19 21  1  0
 20 24  2  0
 21 25  2  0
 21 26  1  0
 22 27  2  0
 22 29  1  0
 23 28  2  0
 23 30  1  0
 24 25  1  0
 27 31  1  0
 28 32  1  0
 29 33  2  0
 30 34  2  0
 31 35  2  0
 32 36  2  0
 33 35  1  0
 34 36  1  0
M  END
>  <PUBCHEM_COMPOUND_CID>  (1) 
33630

>  <PUBCHEM_CONFORMER_RMSD>  (1) 
1

>  <PUBCHEM_CONFORMER_DIVERSEORDER>  (1) 
1
4
187
189
44
46
196
150
180
147
170
131
74
115
32
107
66
41
48
178
203
49
145
216
181
29
93
215
55
169
85
51
116
184
142
144
118
135
186
202
75
205
197
58
123
201
108
114
92
76
125
64
31
154
42
112
134
162
54
36
88
124
95
149
192
100
179
82
63
163
16
148
57
129
56
191
38
207
213
59
176
65
43
158
40
206
69
2
15
219
140
62
198
39
121
193
210
133
80
68
159
102
77
199
90
128
110
218
81
172
17
94
9
212
141
157
30
167
113
195
146
151
185
99
103
97
23
61
83
3
21
165
60
19
14
168
211
130
13
182
7
119
5
105
106
104
33
127
87
89
209
126
160
111
156
217
166
71
28
200
98
173
117
67
143
208
155
34
138
70
164
161
194
101
171
78
174
79
153
11
136
6
139
53
204
10
91
152
214
183
24
18
73
52
72
109
122
27
96
177
26
20
12
47
37
50
132
84
120
220
175
25
137
45
8
35
190
22
188
86

>  <PUBCHEM_MMFF94_PARTIAL_CHARGES>  (1) 
44
1 -0.18
12 0.27
13 0.27
14 0.27
15 -0.14
18 0.29
19 -0.15
2 -0.34
20 -0.15
21 -0.14
22 -0.14
23 -0.14
24 -0.15
25 0.18
26 1.16
27 -0.15
28 -0.15
29 -0.15
3 -0.34
30 -0.15
31 -0.15
32 -0.15
33 -0.15
34 -0.15
35 0.19
36 0.19
4 -0.34
5 -0.19
51 0.4
53 0.15
54 0.15
55 0.15
56 0.15
57 0.15
58 0.15
59 0.15
6 -0.19
60 0.15
61 0.15
62 0.15
63 0.15
7 -0.68
8 -0.81
9 0.42

>  <PUBCHEM_EFFECTIVE_ROTOR_COUNT>  (1) 
9.2

>  <PUBCHEM_PHARMACOPHORE_FEATURES>  (1) 
7
1 7 acceptor
1 7 donor
1 8 cation
6 15 19 20 21 24 25 rings
6 22 27 29 31 33 35 rings
6 23 28 30 32 34 36 rings
6 8 9 10 11 12 13 rings

>  <PUBCHEM_HEAVY_ATOM_COUNT>  (1) 
36

>  <PUBCHEM_ATOM_DEF_STEREO_COUNT>  (1) 
0

>  <PUBCHEM_ATOM_UDEF_STEREO_COUNT>  (1) 
0

>  <PUBCHEM_BOND_DEF_STEREO_COUNT>  (1) 
0

>  <PUBCHEM_BOND_UDEF_STEREO_COUNT>  (1) 
0

>  <PUBCHEM_ISOTOPIC_ATOM_COUNT>  (1) 
0

>  <PUBCHEM_COMPONENT_COUNT>  (1) 
1

>  <PUBCHEM_CACTVS_TAUTO_COUNT>  (1) 
1

>  <PUBCHEM_CONFORMER_ID>  (1) 
0000835E00000001

>  <PUBCHEM_MMFF94_ENERGY>  (1) 
89.841

>  <PUBCHEM_FEATURE_SELFOVERLAP>  (1) 
35.522

>  <PUBCHEM_SHAPE_FINGERPRINT>  (1) 
10074138 170 18188787080609961235
10319688 67 18334865970778374921
10670039 82 13326855530439874007
10864689 126 17560512898888173576
10930396 42 18341057410848799507
11007060 377 17703215334295884566
11621639 183 18340209587534289604
12218070 45 17458625691690447042
12633257 1 17458633285250025175
12788726 201 17754776928935420071
12988421 55 18043244636205215485
13103583 49 17530965786901095279
13560911 23 18260544562985642181
13782708 43 14057540338719277808
13911987 19 16200424750786089173
14068700 675 17678741365910108903
14395042 24 17458641047131856659
14705955 166 18411146831685430275
14844126 61 15936953164383392799
14904525 67 18270954769733657064
14950920 106 18040997409708449205
15444296 121 18408887334404938629
15513586 35 18116429443455632237
16067690 210 18268695144045927881
17809404 112 18131359574884196415
19304152 47 18272369810373490191
19315092 285 17461167818339322215
19438510 23 18200030617485022097
21033648 29 18412829074963352591
21458453 9 18341326790580705200
21792965 106 16987996056217140992
21814621 53 18341059523529772462
312425 54 18113898221806919090
3383291 50 18334020480712100099
3418910 222 17122518331753202244
376196 1 17624978236640217133
4073 2 18408608037097537610
4756326 101 16662881429253468957
4938544 92 18411700993692723391
6289498 60 17344040101003793760
6691757 9 18040716962014957491
9555976 147 18113907086618898641
9981440 41 18271532975610731231
9982175 41 18411139126102819525

>  <PUBCHEM_SHAPE_MULTIPOLES>  (1) 
695.51
21.88
4.07
3.03
31.23
2.41
0.23
14.74
9.47
-11.91
2.28
0.84
-2.03
3.33

>  <PUBCHEM_SHAPE_SELFOVERLAP>  (1) 
1494.569

>  <PUBCHEM_SHAPE_VOLUME>  (1) 
386.4

>  <PUBCHEM_COORDINATE_TYPE>  (1) 
2
5
10

$$$$
