3363
     RDKit          3D

 17 18  0  0  1  0  0  0  0  0999 V2000
   -2.4690    2.4382    0.8719 F   0  0  0  0  0  0  0  0  0  0  0  0
    1.5087    0.3438   -0.7932 O   0  0  0  0  0  0  0  0  0  0  0  0
    3.4856   -0.8905    1.9363 O   0  0  0  0  0  0  0  0  0  0  0  0
    3.5869    2.1814   -1.2650 O   0  0  0  0  0  0  0  0  0  0  0  0
   -1.4506   -2.5294   -1.0072 O   0  0  0  0  0  0  0  0  0  0  0  0
   -4.4794    0.7077    0.2766 O   0  0  0  0  0  0  0  0  0  0  0  0
   -0.6211   -0.4754   -0.2600 N   0  0  0  0  0  0  0  0  0  0  0  0
   -2.9576   -0.9183   -0.3672 N   0  0  0  0  0  0  0  0  0  0  0  0
    2.8250   -0.9378    0.6892 C   0  0  0  0  0  0  0  0  0  0  0  0
    0.7594   -0.8253   -0.4249 C   0  0  0  0  0  0  0  0  0  0  0  0
    1.3879   -1.3753    0.8424 C   0  0  0  0  0  0  0  0  0  0  0  0
    2.6529    0.4406    0.0714 C   0  0  0  0  0  0  0  0  0  0  0  0
    3.8590    0.8985   -0.7293 C   0  0  0  0  0  0  0  0  0  0  0  0
   -1.6527   -1.3918   -0.5765 C   0  0  0  0  0  0  0  0  0  0  0  0
   -0.9306    0.7910    0.2200 C   0  0  0  0  0  0  0  0  0  0  0  0
   -2.1805    1.2092    0.4069 C   0  0  0  0  0  0  0  0  0  0  0  0
   -3.3239    0.3334    0.1087 C   0  0  0  0  0  0  0  0  0  0  0  0
  1 16  1  0
  2 10  1  0
  2 12  1  0
  3  9  1  0
  4 13  1  0
  5 14  2  0
  6 17  2  0
  7 10  1  0
  7 14  1  0
  7 15  1  0
  8 14  1  0
  8 17  1  0
  9 11  1  0
  9 12  1  0
 10 11  1  0
 12 13  1  0
 15 16  2  0
 16 17  1  0
M  END
>  <PUBCHEM_COMPOUND_CID>  (1) 
3363

>  <PUBCHEM_CONFORMER_RMSD>  (1) 
0.6

>  <PUBCHEM_CONFORMER_DIVERSEORDER>  (1) 
2
45
17
18
38
13
60
42
31
40
47
55
53
64
37
23
62
59
30
3
27
22
20
65
41
19
50
1
46
14
36
29
57
63
49
33
5
4
15
32
11
54
61
28
9
25
44
24
48
6
8
43
56
39
58
7
35
34
16
10
51
21
52
12
26

>  <PUBCHEM_MMFF94_PARTIAL_CHARGES>  (1) 
20
1 -0.15
10 0.58
12 0.28
13 0.28
14 0.69
15 -0.04
16 0.16
17 0.62
2 -0.56
25 0.4
26 0.15
27 0.37
28 0.4
3 -0.68
4 -0.68
5 -0.57
6 -0.57
7 -0.47
8 -0.49
9 0.28

>  <PUBCHEM_EFFECTIVE_ROTOR_COUNT>  (1) 
3

>  <PUBCHEM_PHARMACOPHORE_FEATURES>  (1) 
10
1 2 acceptor
1 3 acceptor
1 3 donor
1 4 acceptor
1 4 donor
1 5 acceptor
1 6 acceptor
1 8 donor
5 2 9 10 11 12 rings
6 7 8 14 15 16 17 rings

>  <PUBCHEM_HEAVY_ATOM_COUNT>  (1) 
17

>  <PUBCHEM_ATOM_DEF_STEREO_COUNT>  (1) 
0

>  <PUBCHEM_ATOM_UDEF_STEREO_COUNT>  (1) 
3

>  <PUBCHEM_BOND_DEF_STEREO_COUNT>  (1) 
0

>  <PUBCHEM_BOND_UDEF_STEREO_COUNT>  (1) 
0

>  <PUBCHEM_ISOTOPIC_ATOM_COUNT>  (1) 
0

>  <PUBCHEM_COMPONENT_COUNT>  (1) 
1

>  <PUBCHEM_CACTVS_TAUTO_COUNT>  (1) 
3

>  <PUBCHEM_CONFORMER_ID>  (1) 
00000D2300000002

>  <PUBCHEM_MMFF94_ENERGY>  (1) 
39.6378

>  <PUBCHEM_FEATURE_SELFOVERLAP>  (1) 
50.752

>  <PUBCHEM_SHAPE_FINGERPRINT>  (1) 
11132069 177 17988917856269365571
11640471 11 18261405476268713372
12173636 292 18273209773011774149
12251169 10 18337100173140500338
12553582 1 17767395052201923695
13538477 17 18411412942614836006
14787075 74 17538859378324179179
15279307 12 18409166614806023438
15342168 16 17313960751926274540
15669948 3 18271522108309406287
15775835 57 18408327700223668492
16945 1 18201995555747328391
17846911 113 18059566954495200931
1813 80 17752483154042497322
18186145 218 18040994051165505262
201361 129 18260834787058186696
20510252 161 17917433073440476409
20559304 39 18338232670296171866
2255824 54 17968094201504206514
22854114 111 18186238437651288952
23048698 100 18040434373607696913
23236772 104 18261675981714184059
23402539 116 17987498373915099207
23557571 272 17059200622041504554
23559900 14 17988932132719747366
23598291 2 18335132081860716446
23598294 1 18270114755027543131
2748010 2 17983867674861660575
4340502 62 17168152260530853953
474 4 17678183891643994348
53812653 8 18341618109389537415
7097593 13 18191853540434501602
7615 1 18263909060044961950
77492 1 18334849541478817710
88987 49 18060128873445747422
9981440 41 17544759392981014048

>  <PUBCHEM_SHAPE_MULTIPOLES>  (1) 
303.27
7.22
2.08
1.12
0.02
0.18
0.22
2.56
0.4
-0.23
-0.26
0.92
-0.12
-1.89

>  <PUBCHEM_SHAPE_SELFOVERLAP>  (1) 
639.557

>  <PUBCHEM_SHAPE_VOLUME>  (1) 
170.7

>  <PUBCHEM_COORDINATE_TYPE>  (1) 
2
5
10

$$$$
