33639
     RDKit          3D

 14 13  0  0  0  0  0  0  0  0999 V2000
   -8.2852    0.3860   -0.0790 Cl  0  0  0  0  0  0  0  0  0  0  0  0
    8.2895   -0.3866   -0.0969 Cl  0  0  0  0  0  0  0  0  0  0  0  0
   -4.3531   -0.4537    0.0175 N   0  0  0  0  0  0  0  0  0  0  0  0
    4.3572    0.4462    0.0278 N   0  0  0  0  0  0  0  0  0  0  0  0
   -0.6513    0.4417    0.0317 C   0  0  0  0  0  0  0  0  0  0  0  0
    0.6239   -0.4043    0.0499 C   0  0  0  0  0  0  0  0  0  0  0  0
   -1.9023   -0.4410    0.0412 C   0  0  0  0  0  0  0  0  0  0  0  0
    1.9079    0.4310    0.0724 C   0  0  0  0  0  0  0  0  0  0  0  0
   -3.1742    0.4037   -0.0133 C   0  0  0  0  0  0  0  0  0  0  0  0
    3.1794   -0.4149    0.0124 C   0  0  0  0  0  0  0  0  0  0  0  0
   -5.5734    0.3385   -0.0445 C   0  0  0  0  0  0  0  0  0  0  0  0
    5.5780   -0.3438   -0.0396 C   0  0  0  0  0  0  0  0  0  0  0  0
   -6.7890   -0.5733    0.0157 C   0  0  0  0  0  0  0  0  0  0  0  0
    6.7925    0.5706    0.0046 C   0  0  0  0  0  0  0  0  0  0  0  0
  1 13  1  0
  2 14  1  0
  3  9  1  0
  3 11  1  0
  4 10  1  0
  4 12  1  0
  5  6  1  0
  5  7  1  0
  6  8  1  0
  7  9  1  0
  8 10  1  0
 11 13  1  0
 12 14  1  0
M  END
>  <PUBCHEM_COMPOUND_CID>  (1) 
33639

>  <PUBCHEM_CONFORMER_RMSD>  (1) 
1

>  <PUBCHEM_CONFORMER_DIVERSEORDER>  (1) 
1
49
20
39
5
29
55
38
40
21
9
41
17
52
59
46
54
25
30
23
10
26
37
51
33
6
50
32
43
53
48
45
11
3
22
19
57
35
18
7
16
8
13
14
31
47
44
2
28
24
56
4
42
27
12
58
15
34
36

>  <PUBCHEM_MMFF94_PARTIAL_CHARGES>  (1) 
12
1 -0.29
10 0.27
11 0.27
12 0.27
13 0.29
14 0.29
2 -0.29
27 0.36
28 0.36
3 -0.9
4 -0.9
9 0.27

>  <PUBCHEM_EFFECTIVE_ROTOR_COUNT>  (1) 
11

>  <PUBCHEM_PHARMACOPHORE_FEATURES>  (1) 
5
1 3 cation
1 3 donor
1 4 cation
1 4 donor
4 5 6 7 8 hydrophobe

>  <PUBCHEM_HEAVY_ATOM_COUNT>  (1) 
14

>  <PUBCHEM_ATOM_DEF_STEREO_COUNT>  (1) 
0

>  <PUBCHEM_ATOM_UDEF_STEREO_COUNT>  (1) 
0

>  <PUBCHEM_BOND_DEF_STEREO_COUNT>  (1) 
0

>  <PUBCHEM_BOND_UDEF_STEREO_COUNT>  (1) 
0

>  <PUBCHEM_ISOTOPIC_ATOM_COUNT>  (1) 
0

>  <PUBCHEM_COMPONENT_COUNT>  (1) 
1

>  <PUBCHEM_CACTVS_TAUTO_COUNT>  (1) 
1

>  <PUBCHEM_CONFORMER_ID>  (1) 
0000836700000001

>  <PUBCHEM_MMFF94_ENERGY>  (1) 
-7.1945

>  <PUBCHEM_FEATURE_SELFOVERLAP>  (1) 
25.371

>  <PUBCHEM_SHAPE_FINGERPRINT>  (1) 
11315181 36 18272655667044647561
12091667 2 18186802483470015859
13533116 47 16660631935377284552
14123256 10 18410292505885060958
14251764 18 18410855442953567555
14251764 46 18410856559639809062
17834076 25 18410292514474989034
18006028 8 17203609289448600841
20621476 8 18333448729157333439
22224240 67 18186236251544778914
23521765 1 18341895194640646149
28498 318 18342458114983081206
33684 2 18410855455833201003
42788 4 18410573989821016785
59567204 34 18059577928886735977
8209 1 18410573985156732396

>  <PUBCHEM_SHAPE_MULTIPOLES>  (1) 
281.89
26.98
0.8
0.61
0.17
0
0
-0.04
-0.95
0
0
0
0
0.07

>  <PUBCHEM_SHAPE_SELFOVERLAP>  (1) 
486.672

>  <PUBCHEM_SHAPE_VOLUME>  (1) 
186.7

>  <PUBCHEM_COORDINATE_TYPE>  (1) 
2
5
10

$$$$
