33649
     RDKit          3D

 25 27  0  0  1  0  0  0  0  0999 V2000
    2.8705    2.0674    0.0943 S   0  0  0  0  0  0  0  0  0  0  0  0
   -4.1308    2.0427   -0.3006 O   0  0  0  0  0  0  0  0  0  0  0  0
    0.3670    1.1237   -1.4831 O   0  0  0  0  0  0  0  0  0  0  0  0
    2.8451    2.5892   -1.2586 O   0  0  0  0  0  0  0  0  0  0  0  0
    3.5435    2.7972    1.1513 O   0  0  0  0  0  0  0  0  0  0  0  0
   -0.9691    1.0461    0.4028 N   0  0  0  0  0  0  0  0  0  0  0  0
    1.2763    1.6998    0.5898 N   0  0  0  0  0  0  0  0  0  0  0  0
   -4.2663   -0.2712    0.6211 C   0  0  0  0  0  0  0  0  0  0  0  0
   -3.8472   -1.1082   -0.6304 C   0  0  0  0  0  0  0  0  0  0  0  0
   -2.3393   -0.9378   -0.2920 C   0  0  0  0  0  0  0  0  0  0  0  0
   -3.4615    1.0609    0.4753 C   0  0  0  0  0  0  0  0  0  0  0  0
   -2.1735    0.6057   -0.2468 C   0  0  0  0  0  0  0  0  0  0  0  0
   -3.5727   -1.0381    1.7829 C   0  0  0  0  0  0  0  0  0  0  0  0
   -2.2462   -1.4924    1.1511 C   0  0  0  0  0  0  0  0  0  0  0  0
   -5.7572   -0.0950    0.8441 C   0  0  0  0  0  0  0  0  0  0  0  0
   -4.2642   -0.5353   -1.9994 C   0  0  0  0  0  0  0  0  0  0  0  0
   -4.3299   -2.5756   -0.6339 C   0  0  0  0  0  0  0  0  0  0  0  0
    0.2181    1.2726   -0.2740 C   0  0  0  0  0  0  0  0  0  0  0  0
    3.5910    0.4541    0.0482 C   0  0  0  0  0  0  0  0  0  0  0  0
    3.5337   -0.2779   -1.1252 C   0  0  0  0  0  0  0  0  0  0  0  0
    4.1991   -0.0479    1.1860 C   0  0  0  0  0  0  0  0  0  0  0  0
    4.1017   -1.5513   -1.1622 C   0  0  0  0  0  0  0  0  0  0  0  0
    4.7671   -1.3214    1.1489 C   0  0  0  0  0  0  0  0  0  0  0  0
    4.7184   -2.0730   -0.0252 C   0  0  0  0  0  0  0  0  0  0  0  0
    5.3263   -3.4344   -0.0645 C   0  0  0  0  0  0  0  0  0  0  0  0
  1  4  2  0
  1  5  2  0
  1  7  1  0
  1 19  1  0
  2 11  1  0
  3 18  2  0
  6 12  1  0
  6 18  1  0
  7 18  1  0
  8  9  1  0
  8 11  1  0
  8 13  1  0
  8 15  1  0
  9 10  1  0
  9 16  1  0
  9 17  1  0
 10 12  1  0
 10 14  1  0
 11 12  1  0
 13 14  1  0
 19 20  2  0
 19 21  1  0
 20 22  1  0
 21 23  2  0
 22 24  2  0
 23 24  1  0
 24 25  1  0
M  END
>  <PUBCHEM_COMPOUND_CID>  (1) 
33649

>  <PUBCHEM_CONFORMER_RMSD>  (1) 
0.8

>  <PUBCHEM_CONFORMER_DIVERSEORDER>  (1) 
11
137
43
57
146
89
179
131
187
138
106
167
108
134
132
162
155
176
81
93
13
180
50
156
184
60
27
182
62
190
76
33
80
61
88
147
64
35
149
110
126
5
53
70
99
161
34
82
6
148
39
188
115
107
135
101
105
171
21
154
90
153
65
95
45
103
73
87
66
69
114
151
36
23
124
172
102
79
178
20
92
183
185
71
55
24
111
144
97
44
118
14
165
120
17
128
181
85
54
175
26
104
164
51
186
41
31
15
47
86
56
139
58
30
8
72
123
169
12
174
129
77
116
75
28
67
141
68
173
168
109
59
38
170
9
150
145
29
1
122
52
48
40
94
166
63
84
18
157
49
130
16
163
7
159
19
91
127
119
125
140
152
98
74
4
3
160
100
136
2
83
158
121
143
10
177
46
25
112
142
96
117
42
78
189
37
113
133
32
22

>  <PUBCHEM_MMFF94_PARTIAL_CHARGES>  (1) 
24
1 1.45
11 0.28
12 0.3
18 0.87
19 -0.01
2 -0.68
20 -0.15
21 -0.15
22 -0.15
23 -0.15
24 -0.14
25 0.14
3 -0.57
4 -0.65
42 0.37
43 0.4
44 0.42
45 0.15
46 0.15
47 0.15
48 0.15
5 -0.65
6 -0.73
7 -0.79

>  <PUBCHEM_EFFECTIVE_ROTOR_COUNT>  (1) 
6

>  <PUBCHEM_PHARMACOPHORE_FEATURES>  (1) 
10
1 2 acceptor
1 2 donor
1 3 acceptor
1 4 acceptor
1 5 acceptor
1 6 donor
1 7 donor
3 9 16 17 hydrophobe
6 19 20 21 22 23 24 rings
7 8 9 10 11 12 13 14 rings

>  <PUBCHEM_HEAVY_ATOM_COUNT>  (1) 
25

>  <PUBCHEM_ATOM_DEF_STEREO_COUNT>  (1) 
0

>  <PUBCHEM_ATOM_UDEF_STEREO_COUNT>  (1) 
4

>  <PUBCHEM_BOND_DEF_STEREO_COUNT>  (1) 
0

>  <PUBCHEM_BOND_UDEF_STEREO_COUNT>  (1) 
0

>  <PUBCHEM_ISOTOPIC_ATOM_COUNT>  (1) 
0

>  <PUBCHEM_COMPONENT_COUNT>  (1) 
1

>  <PUBCHEM_CACTVS_TAUTO_COUNT>  (1) 
3

>  <PUBCHEM_CONFORMER_ID>  (1) 
000083710000000B

>  <PUBCHEM_MMFF94_ENERGY>  (1) 
72.5297

>  <PUBCHEM_FEATURE_SELFOVERLAP>  (1) 
50.807

>  <PUBCHEM_SHAPE_FINGERPRINT>  (1) 
10498660 4 9223221954050711158
10670039 82 9295292768151327618
10928967 22 18040997310935316274
11405975 8 18413393120291715953
11595378 159 15410906158079015234
12107183 9 18127421046465584801
12596602 18 16415191325952317298
12616971 3 18202283610846038615
12633257 1 18060145335844461534
13533116 47 18411139177389050465
13551218 46 18410578396700296163
13583140 156 17345738815248641049
13782708 43 17676776491433814123
13914758 101 18342731894027250549
14347332 77 18341607170640980943
14420673 8 18264496078679014803
14848178 5 18411691093440022318
14866123 147 17834679288306001712
15250474 111 18200305657830934510
15788980 27 18410855447259097173
17349148 13 17703794725425851381
17492 89 18340206387767465735
17818456 19 18200886058331710833
17857418 61 18272365399547227759
1813 80 17603307059186646516
1979834 28 17346039970256164718
20403669 9 18409451349794650682
20645477 70 18335136544278631960
20775530 9 18046910373254181994
23559900 14 18334857221038741316
3004659 81 18411142445927948748
341906 21 14979962492488187144
3421961 26 18412825777182550912
34797466 226 11674881065568136841
44062 13 18262799553759236933
497634 4 7925918080327029315
5104073 3 18130513023839712891
543368 44 10809352143702428263
559249 180 18263645065653587793
7970288 3 18123470476135002222
960060 61 17749398065784167254
9709674 26 18335705000084701875

>  <PUBCHEM_SHAPE_MULTIPOLES>  (1) 
484.9
13.97
3.06
1.46
1.45
0.26
0.13
7.14
-1
3.73
0.14
-0.5
0.15
0.04

>  <PUBCHEM_SHAPE_SELFOVERLAP>  (1) 
1019.524

>  <PUBCHEM_SHAPE_VOLUME>  (1) 
278.4

>  <PUBCHEM_COORDINATE_TYPE>  (1) 
2
5
10

$$$$
