33665
     RDKit          3D

 14 15  0  0  0  0  0  0  0  0999 V2000
    1.0778    2.1933    0.2552 O   0  0  0  0  0  0  0  0  0  0  0  0
   -3.5432   -0.3047    1.7932 O   0  0  0  0  0  0  0  0  0  0  0  0
    0.9231   -0.1811   -0.0893 C   0  0  0  0  0  0  0  0  0  0  0  0
   -0.5133   -0.1133   -0.2488 C   0  0  0  0  0  0  0  0  0  0  0  0
    1.6734    0.9703    0.1571 C   0  0  0  0  0  0  0  0  0  0  0  0
   -1.3457   -0.2434    0.8628 C   0  0  0  0  0  0  0  0  0  0  0  0
   -1.0656    0.0828   -1.5146 C   0  0  0  0  0  0  0  0  0  0  0  0
    1.5614   -1.4189   -0.1845 C   0  0  0  0  0  0  0  0  0  0  0  0
   -2.7305   -0.1772    0.7088 C   0  0  0  0  0  0  0  0  0  0  0  0
    3.0573    0.8839    0.3076 C   0  0  0  0  0  0  0  0  0  0  0  0
   -2.4505    0.1488   -1.6686 C   0  0  0  0  0  0  0  0  0  0  0  0
    2.9453   -1.5054   -0.0339 C   0  0  0  0  0  0  0  0  0  0  0  0
   -3.2829    0.0189   -0.5569 C   0  0  0  0  0  0  0  0  0  0  0  0
    3.6934   -0.3540    0.2120 C   0  0  0  0  0  0  0  0  0  0  0  0
  1  5  1  0
  2  9  1  0
  3  4  1  0
  3  5  2  0
  3  8  1  0
  4  6  2  0
  4  7  1  0
  5 10  1  0
  6  9  1  0
  7 11  2  0
  8 12  2  0
  9 13  2  0
 10 14  2  0
 11 13  1  0
 12 14  1  0
M  END
>  <PUBCHEM_COMPOUND_CID>  (1) 
33665

>  <PUBCHEM_CONFORMER_RMSD>  (1) 
0.4

>  <PUBCHEM_CONFORMER_DIVERSEORDER>  (1) 
1
3
5
6
4
2

>  <PUBCHEM_MMFF94_PARTIAL_CHARGES>  (1) 
22
1 -0.53
10 -0.15
11 -0.15
12 -0.15
13 -0.15
14 -0.15
15 0.15
16 0.15
17 0.15
18 0.15
19 0.15
2 -0.53
20 0.15
21 0.15
22 0.15
23 0.45
24 0.45
5 0.08
6 -0.15
7 -0.15
8 -0.15
9 0.08

>  <PUBCHEM_EFFECTIVE_ROTOR_COUNT>  (1) 
1

>  <PUBCHEM_PHARMACOPHORE_FEATURES>  (1) 
4
1 1 donor
1 2 donor
6 3 5 8 10 12 14 rings
6 4 6 7 9 11 13 rings

>  <PUBCHEM_HEAVY_ATOM_COUNT>  (1) 
14

>  <PUBCHEM_ATOM_DEF_STEREO_COUNT>  (1) 
0

>  <PUBCHEM_ATOM_UDEF_STEREO_COUNT>  (1) 
0

>  <PUBCHEM_BOND_DEF_STEREO_COUNT>  (1) 
0

>  <PUBCHEM_BOND_UDEF_STEREO_COUNT>  (1) 
0

>  <PUBCHEM_ISOTOPIC_ATOM_COUNT>  (1) 
0

>  <PUBCHEM_COMPONENT_COUNT>  (1) 
1

>  <PUBCHEM_CACTVS_TAUTO_COUNT>  (1) 
15

>  <PUBCHEM_CONFORMER_ID>  (1) 
0000838100000001

>  <PUBCHEM_MMFF94_ENERGY>  (1) 
43.1126

>  <PUBCHEM_FEATURE_SELFOVERLAP>  (1) 
20.297

>  <PUBCHEM_SHAPE_FINGERPRINT>  (1) 
10219947 1 18343016684017080470
10465860 250 17677315140161061232
10980938 120 18343300379533983660
11471102 20 18411130338409691316
12236239 1 17489864942595266870
124424 183 17822836616129701914
12932764 1 18040428906146237466
13296908 3 17967813833969473570
13538477 17 17060044999816550327
13581323 91 15936405645740978466
14144814 61 17846493733850736014
14993402 34 17846773018610299884
15219456 202 18040432209118246540
15309172 13 18342175570148349430
15375462 478 18060147517951501081
15653759 3 17458061564461610472
15669948 3 15769483322324615973
15775835 57 16917355826587088011
16945 1 18412821408720580916
17357990 137 17274559709642390673
17844478 74 18040718056187119740
1813 80 17844263843430223174
18175812 5 17822008726644506559
18186145 218 18201719574297371142
19049666 15 17823969044107292055
19422 9 17418372501934699262
200 152 18200863059213798599
20201158 50 18187358801202946706
20279233 1 17895187796662257123
20281407 28 17385449803678479179
20645477 70 18339067182120596750
20715346 28 17894909650364081927
21061003 4 18335706017923385504
21639500 275 18269823375887656084
22112679 90 17060055977515770209
23175994 123 18261956250163650892
23402539 116 13973680590209084905
23557571 272 16950286200081598484
23559900 14 16950834796655522154
2748010 2 18125148347789039908
276578 36 15769232560785918623
474 4 17629462353847722008
6049 1 17822012012210150461
63268167 104 18201145633369768860
6992083 37 17775562035440566357
77492 1 17489583476266493606
81228 2 17976252435826986680

>  <PUBCHEM_SHAPE_MULTIPOLES>  (1) 
276.37
6.19
1.33
1.29
0.07
0.31
0.06
-0.7
-0.92
-1.25
-0.07
1.57
-0.04
0.38

>  <PUBCHEM_SHAPE_SELFOVERLAP>  (1) 
604.765

>  <PUBCHEM_SHAPE_VOLUME>  (1) 
150.2

>  <PUBCHEM_COORDINATE_TYPE>  (1) 
2
5
10

$$$$
