33671
     RDKit          3D

 19 21  0  0  0  0  0  0  0  0999 V2000
   -2.5198    3.2333    0.0250 O   0  0  0  0  0  0  0  0  0  0  0  0
   -3.9451    1.6943    0.9006 O   0  0  0  0  0  0  0  0  0  0  0  0
   -0.0245    0.1419   -0.9573 N   0  0  0  0  0  0  0  0  0  0  0  0
   -0.7419   -0.9345   -0.4863 C   0  0  0  0  0  0  0  0  0  0  0  0
   -1.9205   -0.4317    0.0689 C   0  0  0  0  0  0  0  0  0  0  0  0
    1.2636    0.0716   -1.6130 C   0  0  0  0  0  0  0  0  0  0  0  0
   -1.8849    0.9823   -0.0856 C   0  0  0  0  0  0  0  0  0  0  0  0
   -0.7071    1.3047   -0.7194 C   0  0  0  0  0  0  0  0  0  0  0  0
    2.3908    0.1658   -0.6204 C   0  0  0  0  0  0  0  0  0  0  0  0
   -0.4407   -2.3010   -0.5091 C   0  0  0  0  0  0  0  0  0  0  0  0
   -2.8452   -1.3351    0.6297 C   0  0  0  0  0  0  0  0  0  0  0  0
   -1.3729   -3.1780    0.0529 C   0  0  0  0  0  0  0  0  0  0  0  0
   -2.5573   -2.7046    0.6140 C   0  0  0  0  0  0  0  0  0  0  0  0
    2.8985   -0.9936   -0.0499 C   0  0  0  0  0  0  0  0  0  0  0  0
    2.9080    1.4105   -0.2883 C   0  0  0  0  0  0  0  0  0  0  0  0
   -2.8678    1.9441    0.3254 C   0  0  0  0  0  0  0  0  0  0  0  0
    3.9433   -0.9065    0.8701 C   0  0  0  0  0  0  0  0  0  0  0  0
    3.9529    1.4975    0.6317 C   0  0  0  0  0  0  0  0  0  0  0  0
    4.4705    0.3390    1.2110 C   0  0  0  0  0  0  0  0  0  0  0  0
  1 16  1  0
  2 16  2  0
  3  4  1  0
  3  6  1  0
  3  8  1  0
  4  5  2  0
  4 10  1  0
  5  7  1  0
  5 11  1  0
  6  9  1  0
  7  8  2  0
  7 16  1  0
  9 14  2  0
  9 15  1  0
 10 12  2  0
 11 13  2  0
 12 13  1  0
 14 17  1  0
 15 18  2  0
 17 19  2  0
 18 19  1  0
M  END
>  <PUBCHEM_COMPOUND_CID>  (1) 
33671

>  <PUBCHEM_CONFORMER_RMSD>  (1) 
0.6

>  <PUBCHEM_CONFORMER_DIVERSEORDER>  (1) 
1
9
12
11
5
7
8
10
13
3
14
15
4
6
2

>  <PUBCHEM_MMFF94_PARTIAL_CHARGES>  (1) 
29
1 -0.65
10 -0.15
11 -0.15
12 -0.15
13 -0.15
14 -0.15
15 -0.15
16 0.81
17 -0.15
18 -0.15
19 -0.15
2 -0.57
22 0.15
23 0.15
24 0.15
25 0.15
26 0.15
27 0.15
28 0.15
29 0.15
3 0.05
30 0.15
31 0.15
32 0.5
4 -0.15
6 0.4
7 -0.09
8 -0.3
9 -0.14

>  <PUBCHEM_EFFECTIVE_ROTOR_COUNT>  (1) 
3

>  <PUBCHEM_PHARMACOPHORE_FEATURES>  (1) 
7
1 1 acceptor
1 2 acceptor
1 3 cation
3 1 2 16 anion
5 3 4 5 7 8 rings
6 4 5 10 11 12 13 rings
6 9 14 15 17 18 19 rings

>  <PUBCHEM_HEAVY_ATOM_COUNT>  (1) 
19

>  <PUBCHEM_ATOM_DEF_STEREO_COUNT>  (1) 
0

>  <PUBCHEM_ATOM_UDEF_STEREO_COUNT>  (1) 
0

>  <PUBCHEM_BOND_DEF_STEREO_COUNT>  (1) 
0

>  <PUBCHEM_BOND_UDEF_STEREO_COUNT>  (1) 
0

>  <PUBCHEM_ISOTOPIC_ATOM_COUNT>  (1) 
0

>  <PUBCHEM_COMPONENT_COUNT>  (1) 
1

>  <PUBCHEM_CACTVS_TAUTO_COUNT>  (1) 
1

>  <PUBCHEM_CONFORMER_ID>  (1) 
0000838700000001

>  <PUBCHEM_MMFF94_ENERGY>  (1) 
41.1547

>  <PUBCHEM_FEATURE_SELFOVERLAP>  (1) 
35.67

>  <PUBCHEM_SHAPE_FINGERPRINT>  (1) 
10366900 7 18128529569277248738
1100329 8 15456776280025460116
11265709 11 17979075212787853247
11357001 24 18336826502140367995
11370993 70 18267017263204719377
11640471 11 12823030736913124626
11725454 13 17631435787792313469
12173636 292 18411696556627691429
12251169 10 18334576815524536380
12507560 40 18273495689417107438
12553582 1 17977399548150121039
12633257 1 18264193752258015786
12788726 201 18045800115058503587
13004483 165 18125144189865643039
13140716 1 18337394816254929266
14022347 108 17686944825889999743
14081887 123 18196644327376267082
14178342 30 18334850641438695498
14223421 5 18268995448158652854
14289901 80 18263924504947753744
14420673 8 18192711138599373722
14787075 74 18060132116536679897
15295992 7 17846486020448143016
15375462 189 17755308112165878142
16110190 28 18045765816294255930
16945 1 18266760128045149655
17780758 139 18263901316799072794
17804303 29 18337399223461204398
20361792 2 15936402360523644038
20510252 161 18343590663319859043
21065199 12 18341326777869155522
212916 134 18197483048315698848
21524375 3 18200028413723810933
21650355 55 18122623022513954483
21731228 192 18338519616823983627
21756936 100 17913480514434553856
23184049 29 18265055923386359710
23402539 116 18270673277486549351
23419403 2 16266831065236923927
23557571 272 18129115548518185836
23559900 14 18270699596834909132
2748010 2 18048063808169466039
352729 6 18337688455127356317
392239 28 17615967047060268648
4340502 62 18268157457585818281
5104073 3 18337657695009439392
5706482 22 18410570656979246575
58807428 26 18263087617500804827
6049 1 17845397534038280606
6992083 37 18040155106265431732
7097593 13 18261103055094897322
7364860 26 17546170697347315911
81228 2 18263091053400704031
84936 182 17621884188812101585
90316 7 18266468791839097987
9709674 26 18343019991121111478

>  <PUBCHEM_SHAPE_MULTIPOLES>  (1) 
374.29
7.44
3.21
1.09
6.23
0.2
0.12
-1.72
-3.27
-3.79
-0.39
0.48
-0.01
-0.14

>  <PUBCHEM_SHAPE_SELFOVERLAP>  (1) 
829.316

>  <PUBCHEM_SHAPE_VOLUME>  (1) 
201.4

>  <PUBCHEM_COORDINATE_TYPE>  (1) 
2
5
10

$$$$
