33678
     RDKit          3D

 17 17  0  0  0  0  0  0  0  0999 V2000
   -2.2210    3.6896   -1.3476 Cl  0  0  0  0  0  0  0  0  0  0  0  0
   -3.1867   -2.4733    0.1896 Cl  0  0  0  0  0  0  0  0  0  0  0  0
    4.5824    0.9851    1.4114 Cl  0  0  0  0  0  0  0  0  0  0  0  0
   -0.1056   -1.2590   -1.3237 O   0  0  0  0  0  0  0  0  0  0  0  0
   -1.5510    0.1478    0.5005 N   0  0  0  0  0  0  0  0  0  0  0  0
   -0.4464   -0.3027    1.3464 C   0  0  0  0  0  0  0  0  0  0  0  0
   -1.3323    1.5269    0.0655 C   0  0  0  0  0  0  0  0  0  0  0  0
   -2.8218    0.0326    1.2151 C   0  0  0  0  0  0  0  0  0  0  0  0
    0.8718   -0.2544    0.6206 C   0  0  0  0  0  0  0  0  0  0  0  0
    0.9739   -0.7353   -0.6781 C   0  0  0  0  0  0  0  0  0  0  0  0
   -2.4714    2.0067   -0.8200 C   0  0  0  0  0  0  0  0  0  0  0  0
   -3.0940   -1.4090    1.6149 C   0  0  0  0  0  0  0  0  0  0  0  0
    1.9766    0.2775    1.2728 C   0  0  0  0  0  0  0  0  0  0  0  0
    2.2023   -0.6836   -1.3365 C   0  0  0  0  0  0  0  0  0  0  0  0
    3.2052    0.3292    0.6144 C   0  0  0  0  0  0  0  0  0  0  0  0
    3.3180   -0.1513   -0.6902 C   0  0  0  0  0  0  0  0  0  0  0  0
    0.0999   -1.7267   -2.6552 C   0  0  0  0  0  0  0  0  0  0  0  0
  1 11  1  0
  2 12  1  0
  3 15  1  0
  4 10  1  0
  4 17  1  0
  5  6  1  0
  5  7  1  0
  5  8  1  0
  6  9  1  0
  7 11  1  0
  8 12  1  0
  9 10  2  0
  9 13  1  0
 10 14  1  0
 13 15  2  0
 14 16  2  0
 15 16  1  0
M  END
>  <PUBCHEM_COMPOUND_CID>  (1) 
33678

>  <PUBCHEM_CONFORMER_RMSD>  (1) 
0.8

>  <PUBCHEM_CONFORMER_DIVERSEORDER>  (1) 
23
19
25
16
9
21
3
10
7
11
22
1
20
6
15
5
8
13
4
18
17
24
2
14
12

>  <PUBCHEM_MMFF94_PARTIAL_CHARGES>  (1) 
20
1 -0.29
10 0.08
11 0.29
12 0.29
13 -0.15
14 -0.15
15 0.18
16 -0.15
17 0.28
2 -0.29
28 0.15
29 0.15
3 -0.18
30 0.15
4 -0.36
5 -0.81
6 0.41
7 0.27
8 0.27
9 -0.14

>  <PUBCHEM_EFFECTIVE_ROTOR_COUNT>  (1) 
7

>  <PUBCHEM_PHARMACOPHORE_FEATURES>  (1) 
3
1 4 acceptor
1 5 cation
6 9 10 13 14 15 16 rings

>  <PUBCHEM_HEAVY_ATOM_COUNT>  (1) 
17

>  <PUBCHEM_ATOM_DEF_STEREO_COUNT>  (1) 
0

>  <PUBCHEM_ATOM_UDEF_STEREO_COUNT>  (1) 
0

>  <PUBCHEM_BOND_DEF_STEREO_COUNT>  (1) 
0

>  <PUBCHEM_BOND_UDEF_STEREO_COUNT>  (1) 
0

>  <PUBCHEM_ISOTOPIC_ATOM_COUNT>  (1) 
0

>  <PUBCHEM_COMPONENT_COUNT>  (1) 
1

>  <PUBCHEM_CACTVS_TAUTO_COUNT>  (1) 
1

>  <PUBCHEM_CONFORMER_ID>  (1) 
0000838E00000017

>  <PUBCHEM_MMFF94_ENERGY>  (1) 
50.2832

>  <PUBCHEM_FEATURE_SELFOVERLAP>  (1) 
15.223

>  <PUBCHEM_SHAPE_FINGERPRINT>  (1) 
11132069 177 18200886174395567251
11640471 11 16517399607218886301
11725454 13 18052503661554846464
12403814 3 18128529547448835162
13296909 8 17676198061552827880
13380537 58 17971199131882611505
13583140 156 18340188736068694442
14289901 80 18114187440804349922
14817 1 10636453300220825613
15309172 13 17203338831015589882
15852999 172 18053091835703003725
16945 1 18408325505379192826
17357779 13 17414970707938277759
17357990 137 15794299162324625189
18186145 218 17131838642639727516
18219364 16 17847058874364091840
200 152 16805593836788626378
20600515 1 18118982505497158683
21160774 45 17345458448557855863
21304303 282 17608051379378611045
23402539 116 18260824955366616427
23526113 38 17335632912178327695
23557571 272 18264508238031733205
238 59 17414420706905071773
2748010 2 17775289343940962166
57100710 210 18333445460729763570
5845 1 11036422447615317985
633830 44 16487267542899732184
6442390 28 17905063460581342289
7615 1 16660653950831010396
77492 1 16443361870000849824
81228 2 18117866363998741809
88987 49 17968951759790032845
90316 7 18261683652863326577
9925002 15 17411054354477362781

>  <PUBCHEM_SHAPE_MULTIPOLES>  (1) 
344.61
6.5
2.79
2.06
4.24
2.67
-0.95
0.54
2.65
-4.3
-1.36
0.28
-0.74
1.79

>  <PUBCHEM_SHAPE_SELFOVERLAP>  (1) 
667.552

>  <PUBCHEM_SHAPE_VOLUME>  (1) 
213.4

>  <PUBCHEM_COORDINATE_TYPE>  (1) 
2
5
10

$$$$
