33685
     RDKit          3D

 18 17  0  0  0  0  0  0  0  0999 V2000
    1.0766   -1.2738   -0.1056 C   0  0  0  0  0  0  0  0  0  0  0  0
   -0.1468   -1.3041    0.8132 C   0  0  0  0  0  0  0  0  0  0  0  0
    2.2920   -0.6585    0.5911 C   0  0  0  0  0  0  0  0  0  0  0  0
   -1.3914   -1.8790    0.1280 C   0  0  0  0  0  0  0  0  0  0  0  0
    3.5281   -0.5895   -0.3117 C   0  0  0  0  0  0  0  0  0  0  0  0
   -2.6045   -1.9814    1.0569 C   0  0  0  0  0  0  0  0  0  0  0  0
    4.7563    0.0046    0.3838 C   0  0  0  0  0  0  0  0  0  0  0  0
   -3.8311   -2.6078    0.3817 C   0  0  0  0  0  0  0  0  0  0  0  0
    5.9640    0.0339   -0.5564 C   0  0  0  0  0  0  0  0  0  0  0  0
   -4.3447   -1.8645   -0.8565 C   0  0  0  0  0  0  0  0  0  0  0  0
    7.2265    0.5980    0.0991 C   0  0  0  0  0  0  0  0  0  0  0  0
   -4.7054   -0.4324   -0.5833 C   0  0  0  0  0  0  0  0  0  0  0  0
    8.4239    0.6528   -0.8367 C   0  0  0  0  0  0  0  0  0  0  0  0
   -4.4924    2.0454   -0.9229 C   0  0  0  0  0  0  0  0  0  0  0  0
   -4.1313    0.6137   -1.1966 C   0  0  0  0  0  0  0  0  0  0  0  0
   -3.3132    2.8837   -0.4182 C   0  0  0  0  0  0  0  0  0  0  0  0
   -2.7148    2.4321    0.9169 C   0  0  0  0  0  0  0  0  0  0  0  0
   -1.5919    3.3267    1.4171 C   0  0  0  0  0  0  0  0  0  0  0  0
  1  2  1  0
  1  3  1  0
  2  4  1  0
  3  5  1  0
  4  6  1  0
  5  7  1  0
  6  8  1  0
  7  9  1  0
  8 10  1  0
  9 11  1  0
 10 12  1  0
 11 13  1  0
 12 15  2  0
 14 15  1  0
 14 16  1  0
 16 17  1  0
 17 18  1  0
M  END
>  <PUBCHEM_COMPOUND_CID>  (1) 
33685

>  <PUBCHEM_CONFORMER_RMSD>  (1) 
1.2

>  <PUBCHEM_CONFORMER_DIVERSEORDER>  (1) 
1
69
30
88
56
4
134
80
11
33
127
42
103
59
32
36
101
21
85
119
14
118
99
5
132
39
81
131
129
26
82
49
41
128
15
23
10
6
102
86
112
62
38
27
12
46
72
19
120
90
44
45
61
110
123
25
76
28
58
71
105
70
60
48
16
126
37
35
84
106
43
94
54
92
18
108
2
91
97
50
125
83
13
117
22
3
93
130
124
115
53
79
57
51
24
87
29
47
66
100
8
9
104
114
55
116
34
73
40
121
107
52
113
111
133
17
68
77
96
122
95
78
64
135
74
75
67
63
98
31
109
89
65
20
7

>  <PUBCHEM_MMFF94_PARTIAL_CHARGES>  (1) 
6
10 0.14
12 -0.29
14 0.14
15 -0.29
41 0.15
47 0.15

>  <PUBCHEM_EFFECTIVE_ROTOR_COUNT>  (1) 
14

>  <PUBCHEM_PHARMACOPHORE_FEATURES>  (1) 
3
1 13 hydrophobe
1 18 hydrophobe
4 14 15 16 17 hydrophobe

>  <PUBCHEM_HEAVY_ATOM_COUNT>  (1) 
18

>  <PUBCHEM_ATOM_DEF_STEREO_COUNT>  (1) 
0

>  <PUBCHEM_ATOM_UDEF_STEREO_COUNT>  (1) 
0

>  <PUBCHEM_BOND_DEF_STEREO_COUNT>  (1) 
0

>  <PUBCHEM_BOND_UDEF_STEREO_COUNT>  (1) 
1

>  <PUBCHEM_ISOTOPIC_ATOM_COUNT>  (1) 
0

>  <PUBCHEM_COMPONENT_COUNT>  (1) 
1

>  <PUBCHEM_CACTVS_TAUTO_COUNT>  (1) 
1

>  <PUBCHEM_CONFORMER_ID>  (1) 
0000839500000001

>  <PUBCHEM_MMFF94_ENERGY>  (1) 
-5.4154

>  <PUBCHEM_FEATURE_SELFOVERLAP>  (1) 
15.224

>  <PUBCHEM_SHAPE_FINGERPRINT>  (1) 
10087517 78 18187079559688228364
10291535 26 18407764733385848843
10454371 7 18412831283257044276
10669705 176 18411423895952221766
10730089 173 18410009940002552943
11524674 6 11891326560978185945
12091667 2 18114463469747471290
14251764 75 17764310535987354441
14931854 50 18267849619941544317
15348495 7 11314317174232720382
155225 5 18264485088021702508
20765182 40 18340758278506660650
20765182 5 18334576810960881965
21236236 1 18409730655823069060
328310 18 17775290417682949089
397830 11 7925617870851102166
441001 317 18334855021777979014
445580 37 18335146405987676662
484985 159 10159689150180723337
531348 171 18272930488221185918
59567204 34 18409730664244711796
6299153 45 17968930869839401282
68570916 9 10591753295682873106

>  <PUBCHEM_SHAPE_MULTIPOLES>  (1) 
370.43
18.55
3.54
1.17
48.21
2.28
0.08
4.23
-6.42
-7.16
1.03
-0.81
0.39
-0.04

>  <PUBCHEM_SHAPE_SELFOVERLAP>  (1) 
666.082

>  <PUBCHEM_SHAPE_VOLUME>  (1) 
237.1

>  <PUBCHEM_COORDINATE_TYPE>  (1) 
2
5
10

$$$$
