33686
     RDKit          3D

 12 12  0  0  0  0  0  0  0  0999 V2000
    2.9175   -0.2334    0.3710 C   0  0  0  0  0  0  0  0  0  0  0  0
    2.0937    1.0626    0.4689 C   0  0  0  0  0  0  0  0  0  0  0  0
    2.2115   -1.4713   -0.2036 C   0  0  0  0  0  0  0  0  0  0  0  0
   -0.8135    2.2373    0.3390 C   0  0  0  0  0  0  0  0  0  0  0  0
   -1.6433    1.0950    0.9383 C   0  0  0  0  0  0  0  0  0  0  0  0
    1.3220    1.3988   -0.7739 C   0  0  0  0  0  0  0  0  0  0  0  0
    0.0606    1.8560   -0.8249 C   0  0  0  0  0  0  0  0  0  0  0  0
    0.8453   -1.7095    0.3664 C   0  0  0  0  0  0  0  0  0  0  0  0
   -1.6421   -1.9468    0.1554 C   0  0  0  0  0  0  0  0  0  0  0  0
   -2.5518    0.4234   -0.0518 C   0  0  0  0  0  0  0  0  0  0  0  0
   -0.2521   -1.8351   -0.3959 C   0  0  0  0  0  0  0  0  0  0  0  0
   -2.5478   -0.8768   -0.3887 C   0  0  0  0  0  0  0  0  0  0  0  0
  1  2  1  0
  1  3  1  0
  2  6  1  0
  3  8  1  0
  4  5  1  0
  4  7  1  0
  5 10  1  0
  6  7  2  0
  8 11  2  0
  9 11  1  0
  9 12  1  0
 10 12  2  0
M  END
>  <PUBCHEM_COMPOUND_CID>  (1) 
33686

>  <PUBCHEM_CONFORMER_RMSD>  (1) 
0.4

>  <PUBCHEM_CONFORMER_DIVERSEORDER>  (1) 
1

>  <PUBCHEM_MMFF94_PARTIAL_CHARGES>  (1) 
17
10 -0.29
11 -0.29
12 -0.29
2 0.14
23 0.15
24 0.15
25 0.15
28 0.15
29 0.15
3 0.14
30 0.15
4 0.14
5 0.14
6 -0.29
7 -0.29
8 -0.29
9 0.28

>  <PUBCHEM_EFFECTIVE_ROTOR_COUNT>  (1) 
1.2

>  <PUBCHEM_PHARMACOPHORE_FEATURES>  (1) 
0

>  <PUBCHEM_HEAVY_ATOM_COUNT>  (1) 
12

>  <PUBCHEM_ATOM_DEF_STEREO_COUNT>  (1) 
0

>  <PUBCHEM_ATOM_UDEF_STEREO_COUNT>  (1) 
0

>  <PUBCHEM_BOND_DEF_STEREO_COUNT>  (1) 
0

>  <PUBCHEM_BOND_UDEF_STEREO_COUNT>  (1) 
3

>  <PUBCHEM_ISOTOPIC_ATOM_COUNT>  (1) 
0

>  <PUBCHEM_COMPONENT_COUNT>  (1) 
1

>  <PUBCHEM_CACTVS_TAUTO_COUNT>  (1) 
1

>  <PUBCHEM_CONFORMER_ID>  (1) 
0000839600000001

>  <PUBCHEM_MMFF94_ENERGY>  (1) 
9.0225

>  <PUBCHEM_FEATURE_SELFOVERLAP>  (1) 
0

>  <PUBCHEM_SHAPE_FINGERPRINT>  (1) 
12382932 28 18340199786460416376
12696612 119 18263089962220645231
14251711 518 18336259050892727315
14251717 144 16969413020965128533
14251745 187 18128841706141543694
15775835 57 18270689666374732472
15881359 60 18047714240089933669
16945 1 18339645546758596082
19973954 147 18338521935969582562
22802520 49 18056779653537698182
22959321 45 18266190430502712979
241688 4 18336265647951502744
2748010 2 18410857702122462287
2897 32 17904484360790673781
59345606 92 18409450301526971629
63268167 104 18334856151359399286
66348 1 18338235959835107407

>  <PUBCHEM_SHAPE_MULTIPOLES>  (1) 
246.95
3.9
2.78
0.88
0.43
0.04
-0.01
-0.6
0.28
-0.25
-0.12
-0.01
0.23
-0.28

>  <PUBCHEM_SHAPE_SELFOVERLAP>  (1) 
474.145

>  <PUBCHEM_SHAPE_VOLUME>  (1) 
143.4

>  <PUBCHEM_COORDINATE_TYPE>  (1) 
2
5
10

$$$$
