3369
     RDKit          3D

 21 23  0  0  0  0  0  0  0  0999 V2000
    0.8975   -4.4177    0.9876 Cl  0  0  0  0  0  0  0  0  0  0  0  0
   -2.7527    1.6447    1.4910 F   0  0  0  0  0  0  0  0  0  0  0  0
    2.1827    3.4721   -0.3010 O   0  0  0  0  0  0  0  0  0  0  0  0
    2.3728    1.1673   -0.5867 N   0  0  0  0  0  0  0  0  0  0  0  0
   -0.2391    1.7352    0.8548 N   0  0  0  0  0  0  0  0  0  0  0  0
    0.6915   -0.4701    0.2876 C   0  0  0  0  0  0  0  0  0  0  0  0
    1.9675   -0.1653   -0.2303 C   0  0  0  0  0  0  0  0  0  0  0  0
   -0.3999    0.5446    0.3846 C   0  0  0  0  0  0  0  0  0  0  0  0
    1.0866    2.1097    1.2998 C   0  0  0  0  0  0  0  0  0  0  0  0
   -1.7634    0.1858   -0.1019 C   0  0  0  0  0  0  0  0  0  0  0  0
    1.9141    2.3224    0.0573 C   0  0  0  0  0  0  0  0  0  0  0  0
    0.3753   -1.7842    0.6780 C   0  0  0  0  0  0  0  0  0  0  0  0
    2.8686   -1.2332   -0.4125 C   0  0  0  0  0  0  0  0  0  0  0  0
    3.3729    1.3226   -1.6430 C   0  0  0  0  0  0  0  0  0  0  0  0
    1.2981   -2.8127    0.5153 C   0  0  0  0  0  0  0  0  0  0  0  0
    2.5397   -2.5395   -0.0415 C   0  0  0  0  0  0  0  0  0  0  0  0
   -2.8808    0.7648    0.4874 C   0  0  0  0  0  0  0  0  0  0  0  0
   -1.9008   -0.7255   -1.1422 C   0  0  0  0  0  0  0  0  0  0  0  0
   -4.1546    0.4276    0.0295 C   0  0  0  0  0  0  0  0  0  0  0  0
   -3.1746   -1.0626   -1.5999 C   0  0  0  0  0  0  0  0  0  0  0  0
   -4.3014   -0.4861   -1.0140 C   0  0  0  0  0  0  0  0  0  0  0  0
  1 15  1  0
  2 17  1  0
  3 11  2  0
  4  7  1  0
  4 11  1  0
  4 14  1  0
  5  8  2  0
  5  9  1  0
  6  7  2  0
  6  8  1  0
  6 12  1  0
  7 13  1  0
  8 10  1  0
  9 11  1  0
 10 17  2  0
 10 18  1  0
 12 15  2  0
 13 16  2  0
 15 16  1  0
 17 19  1  0
 18 20  2  0
 19 21  2  0
 20 21  1  0
M  END
>  <PUBCHEM_COMPOUND_CID>  (1) 
3369

>  <PUBCHEM_CONFORMER_RMSD>  (1) 
0.6

>  <PUBCHEM_CONFORMER_DIVERSEORDER>  (1) 
2
1
7
8
3
4
5
6

>  <PUBCHEM_MMFF94_PARTIAL_CHARGES>  (1) 
28
1 -0.18
10 0.09
11 0.57
12 -0.15
13 -0.15
14 0.3
15 0.18
16 -0.15
17 0.19
18 -0.15
19 -0.15
2 -0.19
20 -0.15
21 -0.15
24 0.15
25 0.15
29 0.15
3 -0.57
30 0.15
31 0.15
32 0.15
33 0.15
4 -0.48
5 -0.7
6 0.09
7 0.12
8 0.28
9 0.31

>  <PUBCHEM_EFFECTIVE_ROTOR_COUNT>  (1) 
1.4

>  <PUBCHEM_PHARMACOPHORE_FEATURES>  (1) 
5
1 3 acceptor
1 5 acceptor
6 10 17 18 19 20 21 rings
6 6 7 12 13 15 16 rings
7 4 5 6 7 8 9 11 rings

>  <PUBCHEM_HEAVY_ATOM_COUNT>  (1) 
21

>  <PUBCHEM_ATOM_DEF_STEREO_COUNT>  (1) 
0

>  <PUBCHEM_ATOM_UDEF_STEREO_COUNT>  (1) 
0

>  <PUBCHEM_BOND_DEF_STEREO_COUNT>  (1) 
0

>  <PUBCHEM_BOND_UDEF_STEREO_COUNT>  (1) 
0

>  <PUBCHEM_ISOTOPIC_ATOM_COUNT>  (1) 
0

>  <PUBCHEM_COMPONENT_COUNT>  (1) 
1

>  <PUBCHEM_CACTVS_TAUTO_COUNT>  (1) 
1

>  <PUBCHEM_CONFORMER_ID>  (1) 
00000D2900000002

>  <PUBCHEM_MMFF94_ENERGY>  (1) 
83.115

>  <PUBCHEM_FEATURE_SELFOVERLAP>  (1) 
25.383

>  <PUBCHEM_SHAPE_FINGERPRINT>  (1) 
108634 29 17475504453343445102
1100329 8 18408599288803310106
11578080 2 17911770532391104632
12553582 1 18050283670089743595
12716301 132 17403157692284680432
12730499 353 18261960760079862611
13004483 165 17398938389000480203
13009979 54 17773318937394426019
13140716 1 18338792424424893979
13583140 156 18117578236360542689
14787075 74 18201146711954991906
15375462 189 18269276768485152387
16752209 62 17489299742891359325
16945 1 18187930512800033058
1813 80 17980204088864484582
18186145 218 18338516468549944701
20291156 8 18052252890982856011
20559304 39 18272360954198099467
20600515 1 17058085489770595704
21452121 199 17973707096220145298
21452121 99 17831292066864043688
21634736 98 18272089404748437230
22112679 90 17987802878063456177
22182313 1 17407981232980315796
2255824 54 18410006637230893414
22907989 373 17109323135114597388
23388829 49 18195247702896075786
23419403 2 17534664535516468914
23598291 2 18200040525330989093
23728640 28 16102462331437080027
238 59 18336828688162781123
25 1 18336269041076016748
257057 1 17905314131519323114
2748010 2 16254749785567296401
3060560 45 18262511623557736268
34934 24 17978790112531008672
352729 6 17835520792821571128
4409770 3 17114091730335241084
474 4 18337104682687446861
633830 44 18270969075794323509
6442390 28 18046355394464383779
6992083 37 17768535988841003569
7097593 13 18196933267148803011
7364860 26 18272640260068593634
81228 2 16964898443263634330
84936 182 18200027472783439152
90316 7 17692804892079275755
9981440 41 17195992088083066256

>  <PUBCHEM_SHAPE_MULTIPOLES>  (1) 
410.93
6.19
4.03
1.3
6.07
2.37
-0.19
-0.53
-2.18
-4.25
1.24
0.27
-0.19
-1.38

>  <PUBCHEM_SHAPE_SELFOVERLAP>  (1) 
895.479

>  <PUBCHEM_SHAPE_VOLUME>  (1) 
224.1

>  <PUBCHEM_COORDINATE_TYPE>  (1) 
2
5
10

$$$$
