33696
     RDKit          3D

 22 24  0  0  0  0  0  0  0  0999 V2000
   -3.5928   -0.8647   -0.1321 N   0  0  0  0  0  0  0  0  0  0  0  0
   -1.8305   -1.9460    0.6793 N   0  0  0  0  0  0  0  0  0  0  0  0
    4.6190   -1.3903   -0.5480 N   0  0  0  0  0  0  0  0  0  0  0  0
   -2.5223   -0.0312   -0.3356 C   0  0  0  0  0  0  0  0  0  0  0  0
   -2.6447    1.2908   -1.0047 C   0  0  0  0  0  0  0  0  0  0  0  0
   -1.3220    1.7536   -1.6230 C   0  0  0  0  0  0  0  0  0  0  0  0
   -1.4477   -0.7210    0.1876 C   0  0  0  0  0  0  0  0  0  0  0  0
   -0.0842   -0.2728    0.2354 C   0  0  0  0  0  0  0  0  0  0  0  0
   -0.2930    2.1299   -0.5766 C   0  0  0  0  0  0  0  0  0  0  0  0
    0.2903    1.1747    0.2875 C   0  0  0  0  0  0  0  0  0  0  0  0
   -3.1275   -1.9984    0.4737 C   0  0  0  0  0  0  0  0  0  0  0  0
    0.9282   -1.1629    0.2021 C   0  0  0  0  0  0  0  0  0  0  0  0
    2.3721   -0.7764    0.2152 C   0  0  0  0  0  0  0  0  0  0  0  0
    0.0826    3.4812   -0.4657 C   0  0  0  0  0  0  0  0  0  0  0  0
    1.2118    1.6165    1.2580 C   0  0  0  0  0  0  0  0  0  0  0  0
   -4.9689   -0.5991   -0.4880 C   0  0  0  0  0  0  0  0  0  0  0  0
    3.2168   -1.7920   -0.5533 C   0  0  0  0  0  0  0  0  0  0  0  0
   -4.0175   -3.1203    0.8360 C   0  0  0  0  0  0  0  0  0  0  0  0
    1.0098    3.8925    0.4897 C   0  0  0  0  0  0  0  0  0  0  0  0
    1.5713    2.9612    1.3539 C   0  0  0  0  0  0  0  0  0  0  0  0
    5.4291   -2.3382   -1.3147 C   0  0  0  0  0  0  0  0  0  0  0  0
    5.1200   -1.2870    0.8234 C   0  0  0  0  0  0  0  0  0  0  0  0
  1  4  1  0
  1 11  1  0
  1 16  1  0
  2  7  1  0
  2 11  2  0
  3 17  1  0
  3 21  1  0
  3 22  1  0
  4  5  1  0
  4  7  2  0
  5  6  1  0
  6  9  1  0
  7  8  1  0
  8 10  1  0
  8 12  2  0
  9 10  2  0
  9 14  1  0
 10 15  1  0
 11 18  1  0
 12 13  1  0
 13 17  1  0
 14 19  2  0
 15 20  2  0
 19 20  1  0
M  END
>  <PUBCHEM_COMPOUND_CID>  (1) 
33696

>  <PUBCHEM_CONFORMER_RMSD>  (1) 
0.6

>  <PUBCHEM_CONFORMER_DIVERSEORDER>  (1) 
2
11
9
14
12
10
13
15
3
7
6
4
5
8
1

>  <PUBCHEM_MMFF94_PARTIAL_CHARGES>  (1) 
27
1 0.05
10 0.03
11 0.01
12 -0.29
13 0.14
14 -0.15
15 -0.15
16 0.26
17 0.27
18 0.18
19 -0.15
2 -0.57
20 -0.15
21 0.27
22 0.27
27 0.15
3 -0.81
30 0.15
31 0.15
4 -0.33
40 0.15
41 0.15
5 0.18
6 0.14
7 0.18
8 0.02
9 -0.14

>  <PUBCHEM_EFFECTIVE_ROTOR_COUNT>  (1) 
3.4

>  <PUBCHEM_PHARMACOPHORE_FEATURES>  (1) 
5
1 3 cation
3 1 2 11 cation
5 1 2 4 7 11 rings
6 9 10 14 15 19 20 rings
7 4 5 6 7 8 9 10 rings

>  <PUBCHEM_HEAVY_ATOM_COUNT>  (1) 
22

>  <PUBCHEM_ATOM_DEF_STEREO_COUNT>  (1) 
0

>  <PUBCHEM_ATOM_UDEF_STEREO_COUNT>  (1) 
0

>  <PUBCHEM_BOND_DEF_STEREO_COUNT>  (1) 
0

>  <PUBCHEM_BOND_UDEF_STEREO_COUNT>  (1) 
1

>  <PUBCHEM_ISOTOPIC_ATOM_COUNT>  (1) 
0

>  <PUBCHEM_COMPONENT_COUNT>  (1) 
1

>  <PUBCHEM_CACTVS_TAUTO_COUNT>  (1) 
1

>  <PUBCHEM_CONFORMER_ID>  (1) 
000083A000000002

>  <PUBCHEM_MMFF94_ENERGY>  (1) 
61.7142

>  <PUBCHEM_FEATURE_SELFOVERLAP>  (1) 
25.415

>  <PUBCHEM_SHAPE_FINGERPRINT>  (1) 
10764073 3 15259793467318811154
1100329 8 18268435637774448113
11578080 2 16374057461732267428
11680986 33 18264764531868245533
12173636 292 17544755634435925380
12293681 160 17691946194773001980
12553582 1 18336538327046629587
12788726 201 18189618229058236098
12839892 36 17186714459985227851
13027679 85 18339078185926970549
13140716 1 18410005524866058104
13540713 4 18043805606041478247
13544592 145 18335691759386239589
14347329 18 16589686995582688031
14790565 3 17618784656674902160
14863182 85 17324934041217120055
14866123 147 18125164827304397569
17492 89 18123188172050242323
17980427 23 17346609538775021857
1813 80 17917445210822752662
20510252 161 18049720720183119336
20600515 1 18265350437962896333
21049683 271 18118702138574491678
21339142 36 18339924801405967796
21339142 51 18337388236454449358
22182313 1 18265312040829110588
2297311 6 18339934705864848950
23175994 123 18342177747738732655
23352939 185 18343308071709927200
23419403 2 17916565610110641992
23557571 272 18197788704427758526
23559900 14 18337664334591067235
23566358 27 18052536861572819495
238078 22 18337397028542544092
2748010 2 18264183937820258029
283562 15 18266184929119520994
352729 6 17398088471255478459
458136 41 17763755681545327289
57262259 84 18198349450983575380
59554788 248 17543315681782547404
59755656 520 17688600364152084340
7364860 26 18195527223441185537
81228 2 18054527810879198368
84936 31 17844808281283287964
9709674 26 18119521283601789563

>  <PUBCHEM_SHAPE_MULTIPOLES>  (1) 
437.81
8.78
4.42
1.2
5.68
3.28
-0.11
-10.83
-1.41
0.92
0.55
0.39
0.29
2.33

>  <PUBCHEM_SHAPE_SELFOVERLAP>  (1) 
934.456

>  <PUBCHEM_SHAPE_VOLUME>  (1) 
244.9

>  <PUBCHEM_COORDINATE_TYPE>  (1) 
2
5
10

$$$$
