33691
     RDKit          3D

 18 18  0  0  0  0  0  0  0  0999 V2000
   -0.5948   -2.0486    0.3230 O   0  0  0  0  0  0  0  0  0  0  0  0
   -2.5601    0.7973   -0.0135 N   0  0  0  0  0  0  0  0  0  0  0  0
    3.5596    2.7387    0.1299 N   0  0  0  0  0  0  0  0  0  0  0  0
   -2.3440    0.0633    1.2274 C   0  0  0  0  0  0  0  0  0  0  0  0
   -2.7752   -1.3906    1.0645 C   0  0  0  0  0  0  0  0  0  0  0  0
   -2.1483    2.1943    0.1353 C   0  0  0  0  0  0  0  0  0  0  0  0
   -3.9649    0.7229   -0.4190 C   0  0  0  0  0  0  0  0  0  0  0  0
   -1.9724   -2.0931   -0.0221 C   0  0  0  0  0  0  0  0  0  0  0  0
    0.2100   -2.6909   -0.6567 C   0  0  0  0  0  0  0  0  0  0  0  0
    1.6768   -2.6193   -0.2467 C   0  0  0  0  0  0  0  0  0  0  0  0
   -0.6920    2.2956    0.5560 C   0  0  0  0  0  0  0  0  0  0  0  0
   -4.1916    1.4279   -1.7455 C   0  0  0  0  0  0  0  0  0  0  0  0
    2.1761   -1.1984   -0.1468 C   0  0  0  0  0  0  0  0  0  0  0  0
    2.7277   -0.5922   -1.2643 C   0  0  0  0  0  0  0  0  0  0  0  0
    2.0744   -0.5257    1.0608 C   0  0  0  0  0  0  0  0  0  0  0  0
    3.1894    0.7209   -1.1720 C   0  0  0  0  0  0  0  0  0  0  0  0
    2.5360    0.7873    1.1530 C   0  0  0  0  0  0  0  0  0  0  0  0
    3.0935    1.4106    0.0366 C   0  0  0  0  0  0  0  0  0  0  0  0
  1  8  1  0
  1  9  1  0
  2  4  1  0
  2  6  1  0
  2  7  1  0
  3 18  1  0
  4  5  1  0
  5  8  1  0
  6 11  1  0
  7 12  1  0
  9 10  1  0
 10 13  1  0
 13 14  2  0
 13 15  1  0
 14 16  1  0
 15 17  2  0
 16 18  2  0
 17 18  1  0
M  END
>  <PUBCHEM_COMPOUND_CID>  (1) 
33691

>  <PUBCHEM_CONFORMER_RMSD>  (1) 
0.8

>  <PUBCHEM_CONFORMER_DIVERSEORDER>  (1) 
2
39
107
146
139
119
7
38
145
99
95
92
97
164
170
26
41
132
171
61
74
55
71
90
65
176
70
83
156
53
32
46
30
40
34
28
162
91
12
120
69
77
56
111
14
18
33
178
102
79
105
152
128
60
48
36
63
87
45
8
101
110
115
117
21
173
125
86
9
43
130
143
150
13
54
52
22
134
159
144
172
154
59
174
20
126
165
24
96
10
29
42
133
113
47
75
177
163
108
109
76
93
167
141
103
68
19
100
136
114
66
140
49
124
1
148
57
64
127
27
175
129
62
84
168
16
104
123
106
112
67
72
160
116
131
169
11
17
4
82
5
118
161
137
78
94
151
158
35
23
89
121
149
15
73
147
51
3
135
138
98
153
85
50
155
122
157
31
25
142
88
81
37
166
6
44
58
80

>  <PUBCHEM_MMFF94_PARTIAL_CHARGES>  (1) 
21
1 -0.56
10 0.14
13 -0.14
14 -0.15
15 -0.15
16 -0.15
17 -0.15
18 0.1
2 -0.81
3 -0.9
39 0.15
4 0.27
40 0.15
41 0.15
42 0.15
43 0.4
44 0.4
6 0.27
7 0.27
8 0.28
9 0.28

>  <PUBCHEM_EFFECTIVE_ROTOR_COUNT>  (1) 
9

>  <PUBCHEM_PHARMACOPHORE_FEATURES>  (1) 
5
1 1 acceptor
1 2 cation
1 3 cation
1 3 donor
6 13 14 15 16 17 18 rings

>  <PUBCHEM_HEAVY_ATOM_COUNT>  (1) 
18

>  <PUBCHEM_ATOM_DEF_STEREO_COUNT>  (1) 
0

>  <PUBCHEM_ATOM_UDEF_STEREO_COUNT>  (1) 
0

>  <PUBCHEM_BOND_DEF_STEREO_COUNT>  (1) 
0

>  <PUBCHEM_BOND_UDEF_STEREO_COUNT>  (1) 
0

>  <PUBCHEM_ISOTOPIC_ATOM_COUNT>  (1) 
0

>  <PUBCHEM_COMPONENT_COUNT>  (1) 
1

>  <PUBCHEM_CACTVS_TAUTO_COUNT>  (1) 
1

>  <PUBCHEM_CONFORMER_ID>  (1) 
0000839B00000002

>  <PUBCHEM_MMFF94_ENERGY>  (1) 
42.833

>  <PUBCHEM_FEATURE_SELFOVERLAP>  (1) 
25.371

>  <PUBCHEM_SHAPE_FINGERPRINT>  (1) 
10498660 4 18411421751687471813
10759866 29 18113902693231377488
11370993 70 18408315584010377709
11615756 56 18267582403691694899
11715629 250 18339652259903580762
12596599 1 16773798048209977429
128993 33 18202016407792243714
13618510 140 18409735032020262326
13764800 53 18334583455454350627
14250199 8 18126002663907561039
14386348 128 18271260381634416730
14957384 54 18188474870077153560
15635459 17 18341051903782697897
18981168 100 18410293614145216902
192875 21 18123174711110371235
20715895 44 17827054240061402541
21141583 151 18057339464159929576
22749437 52 18336542712107719565
23559900 14 18338793399361195290
238 59 18272366417343882663
2748010 2 18342182218752384035
3524813 1 17915185838955324922
3797600 57 16593409082344010586
4028521 119 18410858784570135527
43658 37 18336819815134679687
44154327 71 18410302406048422393
5262128 65 17626951876537725223
58051976 378 18342737416680310504

>  <PUBCHEM_SHAPE_MULTIPOLES>  (1) 
354.6
7.33
3.35
1.31
2.85
0.54
-0.19
-3.75
-1.81
-0.6
-0.1
0.34
-0.16
0.97

>  <PUBCHEM_SHAPE_SELFOVERLAP>  (1) 
700.103

>  <PUBCHEM_SHAPE_VOLUME>  (1) 
213.3

>  <PUBCHEM_COORDINATE_TYPE>  (1) 
2
5
10

$$$$
