33692
     RDKit          3D

 19 19  0  0  0  0  0  0  0  0999 V2000
   -0.8602    0.3092    0.0430 O   0  0  0  0  0  0  0  0  0  0  0  0
   -5.6379   -0.3390    0.5053 N   0  0  0  0  0  0  0  0  0  0  0  0
    7.6628   -1.4186    0.4573 N   0  0  0  0  0  0  0  0  0  0  0  0
   -4.6053    0.5750    0.0320 C   0  0  0  0  0  0  0  0  0  0  0  0
   -3.2220   -0.0261    0.2584 C   0  0  0  0  0  0  0  0  0  0  0  0
   -2.1202    0.9164   -0.2067 C   0  0  0  0  0  0  0  0  0  0  0  0
   -5.8855   -1.3924   -0.4808 C   0  0  0  0  0  0  0  0  0  0  0  0
   -6.8761    0.3867    0.7941 C   0  0  0  0  0  0  0  0  0  0  0  0
    1.5287    0.4370   -0.0768 C   0  0  0  0  0  0  0  0  0  0  0  0
    0.2131    1.1438   -0.3714 C   0  0  0  0  0  0  0  0  0  0  0  0
    2.7285    1.2896   -0.4857 C   0  0  0  0  0  0  0  0  0  0  0  0
   -6.9122   -2.3901    0.0276 C   0  0  0  0  0  0  0  0  0  0  0  0
   -7.4386    1.0340   -0.4600 C   0  0  0  0  0  0  0  0  0  0  0  0
    4.0315    0.5743   -0.2365 C   0  0  0  0  0  0  0  0  0  0  0  0
    4.6797    0.7129    0.9908 C   0  0  0  0  0  0  0  0  0  0  0  0
    4.5893   -0.2262   -1.2334 C   0  0  0  0  0  0  0  0  0  0  0  0
    5.8857    0.0510    1.2213 C   0  0  0  0  0  0  0  0  0  0  0  0
    5.7952   -0.8882   -1.0029 C   0  0  0  0  0  0  0  0  0  0  0  0
    6.4435   -0.7495    0.2244 C   0  0  0  0  0  0  0  0  0  0  0  0
  1  6  1  0
  1 10  1  0
  2  4  1  0
  2  7  1  0
  2  8  1  0
  3 19  1  0
  4  5  1  0
  5  6  1  0
  7 12  1  0
  8 13  1  0
  9 10  1  0
  9 11  1  0
 11 14  1  0
 14 15  2  0
 14 16  1  0
 15 17  1  0
 16 18  2  0
 17 19  2  0
 18 19  1  0
M  END
>  <PUBCHEM_COMPOUND_CID>  (1) 
33692

>  <PUBCHEM_CONFORMER_RMSD>  (1) 
1

>  <PUBCHEM_CONFORMER_DIVERSEORDER>  (1) 
1
142
11
164
20
91
66
18
98
159
41
105
152
16
143
27
153
161
84
156
88
48
7
163
77
78
4
30
150
87
54
23
5
63
146
107
165
6
149
75
131
46
72
53
10
116
155
106
36
92
19
120
70
139
95
137
57
96
81
147
49
108
133
58
115
69
121
162
73
173
51
114
169
138
97
127
42
45
129
56
79
158
130
13
68
83
65
118
136
112
128
154
125
103
167
160
111
15
144
140
110
141
90
61
151
55
170
100
21
109
82
166
64
85
38
126
74
168
145
43
148
80
71
47
9
171
89
52
25
62
12
26
22
28
119
8
60
50
39
67
94
102
135
32
99
134
31
104
3
122
35
123
17
76
59
29
33
117
2
157
14
113
34
37
24
86
101
124
93
44
40
132
172

>  <PUBCHEM_MMFF94_PARTIAL_CHARGES>  (1) 
21
1 -0.56
10 0.28
11 0.14
14 -0.14
15 -0.15
16 -0.15
17 -0.15
18 -0.15
19 0.1
2 -0.81
3 -0.9
4 0.27
42 0.15
43 0.15
44 0.15
45 0.15
46 0.4
47 0.4
6 0.28
7 0.27
8 0.27

>  <PUBCHEM_EFFECTIVE_ROTOR_COUNT>  (1) 
10

>  <PUBCHEM_PHARMACOPHORE_FEATURES>  (1) 
5
1 1 acceptor
1 2 cation
1 3 cation
1 3 donor
6 14 15 16 17 18 19 rings

>  <PUBCHEM_HEAVY_ATOM_COUNT>  (1) 
19

>  <PUBCHEM_ATOM_DEF_STEREO_COUNT>  (1) 
0

>  <PUBCHEM_ATOM_UDEF_STEREO_COUNT>  (1) 
0

>  <PUBCHEM_BOND_DEF_STEREO_COUNT>  (1) 
0

>  <PUBCHEM_BOND_UDEF_STEREO_COUNT>  (1) 
0

>  <PUBCHEM_ISOTOPIC_ATOM_COUNT>  (1) 
0

>  <PUBCHEM_COMPONENT_COUNT>  (1) 
1

>  <PUBCHEM_CACTVS_TAUTO_COUNT>  (1) 
1

>  <PUBCHEM_CONFORMER_ID>  (1) 
0000839C00000001

>  <PUBCHEM_MMFF94_ENERGY>  (1) 
43.3634

>  <PUBCHEM_FEATURE_SELFOVERLAP>  (1) 
25.371

>  <PUBCHEM_SHAPE_FINGERPRINT>  (1) 
10 15 16845570941539960352
10162869 55 15769477786001553421
10299344 5 16660365865957672953
11315181 36 18272655667044939833
11524674 6 18272652363999227207
11724838 91 14045733829435238440
11991303 11 15140967309096906611
12091667 2 17675926500278469089
12166972 35 17603589642249400845
125118 31 15841559556615769025
12616971 3 17060051583817350805
13533116 47 15984833597296104806
13668630 136 18186517717583375659
13685833 64 18411981347820229904
13862211 1 18334295387707842469
13885169 127 18410292476453786333
14123256 10 13984664746099485996
14251752 14 18040995125260919653
14251764 18 18343020025586013452
14251764 46 17918274238184345185
14729087 3 10519988153776920323
15048467 5 10375871874573512916
15183329 4 16081081589274069379
15188451 53 18342175544879582264
15348495 7 17488738003448802579
15419008 91 18340468033223620817
15716309 27 18342175579075627757
17093844 174 16917068850791122465
20281389 69 11815903340161750107
20526848 3 10303815392963912586
20621476 8 18114179714606849989
21130983 4 11383831571657015402
21150785 3 12612757908228906728
220451 1 14562528501178983129
221357 26 13912321279286373694
22224240 67 14979952562613723348
22956985 138 17608925384013183658
23035841 295 18333453149327462425
23081809 10 18261401091450080005
23522609 53 17972068944080731077
23559900 14 17168715270255770453
28498 318 18186799145568484885
29717793 49 17240487996555976932
3004659 81 17167864166978144380
33532 11 18335136458717435610
4340502 62 16487259872077417260
445580 37 12179836191862042055
559249 180 18411138061351947575
5758199 1 11527952261892192813
59682541 35 17703503368367624842
59682541 52 14634858748087832248
59755656 520 16008751325480530105

>  <PUBCHEM_SHAPE_MULTIPOLES>  (1) 
375.18
26.33
1.54
0.99
12.96
0.74
0.02
9.71
2.6
1.81
-0.1
-1.09
0.01
0.15

>  <PUBCHEM_SHAPE_SELFOVERLAP>  (1) 
734.858

>  <PUBCHEM_SHAPE_VOLUME>  (1) 
227.5

>  <PUBCHEM_COORDINATE_TYPE>  (1) 
2
5
10

$$$$
