33704
     RDKit          3D

 24 25  0  0  0  0  0  0  0  0999 V2000
    0.4017    1.3654   -0.6383 O   0  0  0  0  0  0  0  0  0  0  0  0
   -1.0110    1.6615    1.3086 O   0  0  0  0  0  0  0  0  0  0  0  0
   -1.1181    4.3587    0.7751 O   0  0  0  0  0  0  0  0  0  0  0  0
   -0.8492    3.7270   -1.3902 O   0  0  0  0  0  0  0  0  0  0  0  0
    5.3851   -1.9362    1.2562 O   0  0  0  0  0  0  0  0  0  0  0  0
   -5.0334   -2.3170   -1.3965 O   0  0  0  0  0  0  0  0  0  0  0  0
    5.7715   -1.8619   -0.9079 O   0  0  0  0  0  0  0  0  0  0  0  0
   -4.1679   -3.6296    0.1417 O   0  0  0  0  0  0  0  0  0  0  0  0
    5.0726   -1.5805    0.0949 N   0  0  0  0  0  0  0  0  0  0  0  0
   -4.2500   -2.5207   -0.4385 N   0  0  0  0  0  0  0  0  0  0  0  0
   -0.0871    2.2363    0.3839 C   0  0  0  0  0  0  0  0  0  0  0  0
    1.5431    0.6460   -0.4593 C   0  0  0  0  0  0  0  0  0  0  0  0
   -1.8074    0.6337    0.8795 C   0  0  0  0  0  0  0  0  0  0  0  0
    1.9146    0.2346    0.8208 C   0  0  0  0  0  0  0  0  0  0  0  0
   -2.6820    0.8365   -0.1828 C   0  0  0  0  0  0  0  0  0  0  0  0
    2.3407    0.3190   -1.5558 C   0  0  0  0  0  0  0  0  0  0  0  0
   -1.7336   -0.6044    1.5088 C   0  0  0  0  0  0  0  0  0  0  0  0
    3.8813   -0.8307   -0.0923 C   0  0  0  0  0  0  0  0  0  0  0  0
   -3.4233   -1.4551    0.0060 C   0  0  0  0  0  0  0  0  0  0  0  0
    3.0837   -0.5038    1.0043 C   0  0  0  0  0  0  0  0  0  0  0  0
   -3.4924   -0.2110   -0.6209 C   0  0  0  0  0  0  0  0  0  0  0  0
    3.5098   -0.4195   -1.3723 C   0  0  0  0  0  0  0  0  0  0  0  0
   -2.5439   -1.6518    1.0707 C   0  0  0  0  0  0  0  0  0  0  0  0
   -0.7049    3.5034   -0.1956 C   0  0  0  0  0  0  0  0  0  0  0  0
  1 11  1  0
  1 12  1  0
  2 11  1  0
  2 13  1  0
  3 24  1  0
  4 24  2  0
  5  9  1  0
  6 10  1  0
  7  9  2  0
  8 10  2  0
  9 18  1  0
 10 19  1  0
 11 24  1  0
 12 14  2  0
 12 16  1  0
 13 15  2  0
 13 17  1  0
 14 20  1  0
 15 21  1  0
 16 22  2  0
 17 23  2  0
 18 20  2  0
 18 22  1  0
 19 21  2  0
 19 23  1  0
M  CHG  4   5  -1   6  -1   9   1  10   1
M  END
>  <PUBCHEM_COMPOUND_CID>  (1) 
33704

>  <PUBCHEM_CONFORMER_RMSD>  (1) 
0.8

>  <PUBCHEM_CONFORMER_DIVERSEORDER>  (1) 
1
12
44
13
9
26
39
31
14
18
11
46
16
52
19
29
2
35
53
3
43
55
36
48
30
47
27
20
37
10
34
42
49
22
56
5
40
41
24
50
7
38
32
6
15
8
28
25
54
23
51
33
21
4
45
17

>  <PUBCHEM_MMFF94_PARTIAL_CHARGES>  (1) 
33
1 -0.36
10 0.91
11 0.62
12 0.08
13 0.08
14 -0.15
15 -0.15
16 -0.15
17 -0.15
18 0.13
19 0.13
2 -0.36
20 -0.15
21 -0.15
22 -0.15
23 -0.15
24 0.66
26 0.15
27 0.15
28 0.15
29 0.15
3 -0.65
30 0.15
31 0.15
32 0.15
33 0.15
34 0.5
4 -0.57
5 -0.52
6 -0.52
7 -0.52
8 -0.52
9 0.91

>  <PUBCHEM_EFFECTIVE_ROTOR_COUNT>  (1) 
7

>  <PUBCHEM_PHARMACOPHORE_FEATURES>  (1) 
13
1 1 acceptor
1 2 acceptor
1 3 acceptor
1 4 acceptor
1 5 acceptor
1 5 anion
1 6 acceptor
1 6 anion
1 7 acceptor
1 8 acceptor
3 3 4 24 anion
6 12 14 16 18 20 22 rings
6 13 15 17 19 21 23 rings

>  <PUBCHEM_HEAVY_ATOM_COUNT>  (1) 
24

>  <PUBCHEM_ATOM_DEF_STEREO_COUNT>  (1) 
0

>  <PUBCHEM_ATOM_UDEF_STEREO_COUNT>  (1) 
0

>  <PUBCHEM_BOND_DEF_STEREO_COUNT>  (1) 
0

>  <PUBCHEM_BOND_UDEF_STEREO_COUNT>  (1) 
0

>  <PUBCHEM_ISOTOPIC_ATOM_COUNT>  (1) 
0

>  <PUBCHEM_COMPONENT_COUNT>  (1) 
1

>  <PUBCHEM_CACTVS_TAUTO_COUNT>  (1) 
1

>  <PUBCHEM_CONFORMER_ID>  (1) 
000083A800000001

>  <PUBCHEM_MMFF94_ENERGY>  (1) 
86.7041

>  <PUBCHEM_FEATURE_SELFOVERLAP>  (1) 
66.235

>  <PUBCHEM_SHAPE_FINGERPRINT>  (1) 
10622 236 17750780065822497754
11552529 35 18267304223434935216
12363563 72 18340493360454990735
12523318 42 18268414747342969434
12553582 1 18264226827205173731
12788726 201 18117271463377670489
13004483 165 18412825802277088753
13083527 12 18337664338928869120
13583140 156 15051451544704733090
13878862 14 9724315531120599851
13911987 19 17393348897525038524
13955234 65 17621324971622597489
14251764 75 7925368349851227743
14341114 328 14045461210338356683
15250474 111 18044372726329432482
16752209 62 18042678399705188945
17539 30 18337386037616349293
1813 80 18271257130665764399
19784866 34 8358274630638120671
20626108 58 18270395122044785027
20645477 70 17835524100310424691
20671657 53 18339081613500270129
20775438 99 17329130877217483251
20832881 197 18335142038048284091
21452121 199 18339364187656883792
21756936 100 8718538398697310822
23559900 14 18410284792673001944
23728640 28 18119540838070995393
255183 313 18052268301758421249
3027735 51 18195522593545652655
44062 13 18408601487779008479
463206 1 18334858372027199803
5924683 9 18266455417479639522
59755656 520 17766842719265050920
7471813 234 18259710003890717020
7970288 3 18341051912236249031
81228 2 18337401422094433601

>  <PUBCHEM_SHAPE_MULTIPOLES>  (1) 
436.99
10.15
4.21
1.4
7.95
3.54
-0.06
-13
-1.71
-4
-0.23
0.24
-0.04
-0.83

>  <PUBCHEM_SHAPE_SELFOVERLAP>  (1) 
938.387

>  <PUBCHEM_SHAPE_VOLUME>  (1) 
240.8

>  <PUBCHEM_COORDINATE_TYPE>  (1) 
2
5
10

$$$$
