33705
     RDKit          3D

 26 28  0  0  0  0  0  0  0  0999 V2000
   -1.5753    3.7267   -0.8724 Cl  0  0  0  0  0  0  0  0  0  0  0  0
   -4.9074   -3.0498   -1.4370 Cl  0  0  0  0  0  0  0  0  0  0  0  0
   -7.7870   -2.3372   -0.1438 Cl  0  0  0  0  0  0  0  0  0  0  0  0
    6.5216   -2.8984    1.0117 Cl  0  0  0  0  0  0  0  0  0  0  0  0
    8.5454   -0.6498   -0.1400 Cl  0  0  0  0  0  0  0  0  0  0  0  0
   -3.2626    1.4694    0.2769 N   0  0  0  0  0  0  0  0  0  0  0  0
    2.2788    0.7109    0.5808 N   0  0  0  0  0  0  0  0  0  0  0  0
    2.6884    0.1239   -0.4483 N   0  0  0  0  0  0  0  0  0  0  0  0
   -1.8610    1.3000    0.3430 C   0  0  0  0  0  0  0  0  0  0  0  0
   -4.3269    0.5564    0.1687 C   0  0  0  0  0  0  0  0  0  0  0  0
   -0.9892    2.2694   -0.1531 C   0  0  0  0  0  0  0  0  0  0  0  0
   -1.3542    0.1347    0.9180 C   0  0  0  0  0  0  0  0  0  0  0  0
    0.8965    0.9078    0.5009 C   0  0  0  0  0  0  0  0  0  0  0  0
    0.3897    2.0733   -0.0742 C   0  0  0  0  0  0  0  0  0  0  0  0
    0.0245   -0.0614    0.9969 C   0  0  0  0  0  0  0  0  0  0  0  0
   -4.1441   -0.6587   -0.4956 C   0  0  0  0  0  0  0  0  0  0  0  0
   -5.5712    0.8611    0.7255 C   0  0  0  0  0  0  0  0  0  0  0  0
   -5.1999   -1.5641   -0.6026 C   0  0  0  0  0  0  0  0  0  0  0  0
   -6.6268   -0.0442    0.6186 C   0  0  0  0  0  0  0  0  0  0  0  0
   -6.4413   -1.2568   -0.0452 C   0  0  0  0  0  0  0  0  0  0  0  0
    4.0774   -0.0736   -0.3676 C   0  0  0  0  0  0  0  0  0  0  0  0
    4.5769   -1.2379    0.2077 C   0  0  0  0  0  0  0  0  0  0  0  0
    4.9427    0.8965   -0.8639 C   0  0  0  0  0  0  0  0  0  0  0  0
    5.9557   -1.4339    0.2876 C   0  0  0  0  0  0  0  0  0  0  0  0
    6.3213    0.7005   -0.7840 C   0  0  0  0  0  0  0  0  0  0  0  0
    6.8278   -0.4648   -0.2085 C   0  0  0  0  0  0  0  0  0  0  0  0
  1 11  1  0
  2 18  1  0
  3 20  1  0
  4 24  1  0
  5 26  1  0
  6  9  1  0
  6 10  1  0
  7  8  2  0
  7 13  1  0
  8 21  1  0
  9 11  2  0
  9 12  1  0
 10 16  2  0
 10 17  1  0
 11 14  1  0
 12 15  2  0
 13 14  2  0
 13 15  1  0
 16 18  1  0
 17 19  2  0
 18 20  2  0
 19 20  1  0
 21 22  2  0
 21 23  1  0
 22 24  1  0
 23 25  2  0
 24 26  2  0
 25 26  1  0
M  END
>  <PUBCHEM_COMPOUND_CID>  (1) 
33705

>  <PUBCHEM_CONFORMER_RMSD>  (1) 
0.8

>  <PUBCHEM_CONFORMER_DIVERSEORDER>  (1) 
3
43
53
23
38
45
12
17
50
42
26
44
49
46
24
48
47
29
27
9
1
63
62
22
25
55
4
34
39
7
57
61
20
6
21
5
19
14
28
32
51
58
8
2
52
16
30
18
13
56
15
10
11
54
35
41
31
59
36
37
60
33
40

>  <PUBCHEM_MMFF94_PARTIAL_CHARGES>  (1) 
36
1 -0.18
10 0.1
11 0.18
12 -0.15
13 0.18
14 -0.15
15 -0.15
16 -0.15
17 -0.15
18 0.18
19 -0.15
2 -0.18
20 0.18
21 0.18
22 -0.15
23 -0.15
24 0.18
25 -0.15
26 0.18
27 0.4
28 0.15
29 0.15
3 -0.18
30 0.15
31 0.15
32 0.15
33 0.15
34 0.15
35 0.15
36 0.15
4 -0.18
5 -0.18
6 -0.6
7 -0.18
8 -0.18
9 0.1

>  <PUBCHEM_EFFECTIVE_ROTOR_COUNT>  (1) 
4

>  <PUBCHEM_PHARMACOPHORE_FEATURES>  (1) 
5
1 6 cation
1 6 donor
6 10 16 17 18 19 20 rings
6 21 22 23 24 25 26 rings
6 9 11 12 13 14 15 rings

>  <PUBCHEM_HEAVY_ATOM_COUNT>  (1) 
26

>  <PUBCHEM_ATOM_DEF_STEREO_COUNT>  (1) 
0

>  <PUBCHEM_ATOM_UDEF_STEREO_COUNT>  (1) 
0

>  <PUBCHEM_BOND_DEF_STEREO_COUNT>  (1) 
0

>  <PUBCHEM_BOND_UDEF_STEREO_COUNT>  (1) 
0

>  <PUBCHEM_ISOTOPIC_ATOM_COUNT>  (1) 
0

>  <PUBCHEM_COMPONENT_COUNT>  (1) 
1

>  <PUBCHEM_CACTVS_TAUTO_COUNT>  (1) 
2

>  <PUBCHEM_CONFORMER_ID>  (1) 
000083A900000003

>  <PUBCHEM_MMFF94_ENERGY>  (1) 
83.1113

>  <PUBCHEM_FEATURE_SELFOVERLAP>  (1) 
25.373

>  <PUBCHEM_SHAPE_FINGERPRINT>  (1) 
10299344 5 18411985762381945978
10595046 47 18334298635315463788
106641 1 12391507599283737909
10693767 8 18262795284825488603
10939801 23 18129377262930700814
10951579 204 10882225481380637178
11524674 6 16487254378993743391
11963148 33 18341326725882240102
12166972 35 17748831808643144564
13248334 5 17978508964379345309
13533116 47 18259985947302633794
1361 4 18411982421499439022
13668630 136 17988369178988017942
13673619 4 18131631201010722401
13690498 29 18187075166533056453
13782708 43 18202277000754064384
13862211 1 18409168805233595673
14068700 675 18202005455879405553
14178184 131 18058731454777370079
14347332 77 18334573491225260344
14556957 393 17023199183816712597
14767858 380 17894914035583700530
15183329 4 17385720305187977978
15198563 99 16805597028234054597
15352257 5 18273214200843728110
15461852 350 18410300186394492516
16628084 112 18188766137253180651
17780758 139 17775006774238299185
18603816 31 17489011748449751879
19958102 18 17167864136623509314
20028762 73 18337951165799107018
20691028 202 9511167547805897994
21033648 29 12108364728111287812
21130935 74 18198904713483945202
21150785 3 17313105263123314810
21267235 1 18337956792331812915
21424621 283 9079122158995180533
22224240 67 11743843560534374061
22956985 138 17485384274727556806
23035841 295 18342741819089951457
23522609 53 18123222118902323753
23559900 14 17895764014381988456
23569943 247 18336546006617324443
2838139 119 12179843935297523871
3004659 81 18113334232307563624
335352 9 18412260632933481501
397830 11 16486395711387782354
4325135 7 18410858746194848846
439807 62 18409167705489846083
44802255 64 13984668057350551657
5104073 3 17632577188605438793
54039377 194 18337677520573643779
5470011 282 17676772071321421255
559249 180 18342739625010444555
5718773 13 18337105675273395794
5758199 1 9871755689127930957
5969126 39 18260829276146446877
6691757 9 17489316266179024257
6700243 42 17984731955426505980
7495541 125 18202560671002824088
96874 4 18410288125055901175

>  <PUBCHEM_SHAPE_MULTIPOLES>  (1) 
529.47
24.3
3.16
1.01
15.04
0.36
-0.07
-18.84
-1.34
-2.56
-0.75
-0.21
-0.22
-2.37

>  <PUBCHEM_SHAPE_SELFOVERLAP>  (1) 
1104.382

>  <PUBCHEM_SHAPE_VOLUME>  (1) 
301.1

>  <PUBCHEM_COORDINATE_TYPE>  (1) 
2
5
10

$$$$
