33706
     RDKit          3D

 10 10  0  0  0  0  0  0  0  0999 V2000
    3.1667    0.0005    0.7531 O   0  0  0  0  0  0  0  0  0  0  0  0
    1.0281    0.0001   -0.2875 C   0  0  0  0  0  0  0  0  0  0  0  0
   -1.0419    1.2080    0.0180 C   0  0  0  0  0  0  0  0  0  0  0  0
   -1.0415   -1.2081    0.0184 C   0  0  0  0  0  0  0  0  0  0  0  0
    0.3384   -1.2079   -0.1853 C   0  0  0  0  0  0  0  0  0  0  0  0
    0.3379    1.2080   -0.1860 C   0  0  0  0  0  0  0  0  0  0  0  0
   -1.7318   -0.0001    0.1202 C   0  0  0  0  0  0  0  0  0  0  0  0
    2.5037    0.0001   -0.5052 C   0  0  0  0  0  0  0  0  0  0  0  0
   -1.7802    2.4993    0.1274 C   0  0  0  0  0  0  0  0  0  0  0  0
   -1.7793   -2.4999    0.1270 C   0  0  0  0  0  0  0  0  0  0  0  0
  1  8  1  0
  2  5  2  0
  2  6  1  0
  2  8  1  0
  3  6  2  0
  3  7  1  0
  3  9  1  0
  4  5  1  0
  4  7  2  0
  4 10  1  0
M  END
>  <PUBCHEM_COMPOUND_CID>  (1) 
33706

>  <PUBCHEM_CONFORMER_RMSD>  (1) 
0.4

>  <PUBCHEM_CONFORMER_DIVERSEORDER>  (1) 
1
2

>  <PUBCHEM_MMFF94_PARTIAL_CHARGES>  (1) 
14
1 -0.68
10 0.14
11 0.15
12 0.15
13 0.15
2 -0.14
22 0.4
3 -0.14
4 -0.14
5 -0.15
6 -0.15
7 -0.15
8 0.42
9 0.14

>  <PUBCHEM_EFFECTIVE_ROTOR_COUNT>  (1) 
1

>  <PUBCHEM_PHARMACOPHORE_FEATURES>  (1) 
3
1 1 acceptor
1 1 donor
6 2 3 4 5 6 7 rings

>  <PUBCHEM_HEAVY_ATOM_COUNT>  (1) 
10

>  <PUBCHEM_ATOM_DEF_STEREO_COUNT>  (1) 
0

>  <PUBCHEM_ATOM_UDEF_STEREO_COUNT>  (1) 
0

>  <PUBCHEM_BOND_DEF_STEREO_COUNT>  (1) 
0

>  <PUBCHEM_BOND_UDEF_STEREO_COUNT>  (1) 
0

>  <PUBCHEM_ISOTOPIC_ATOM_COUNT>  (1) 
0

>  <PUBCHEM_COMPONENT_COUNT>  (1) 
1

>  <PUBCHEM_CACTVS_TAUTO_COUNT>  (1) 
1

>  <PUBCHEM_CONFORMER_ID>  (1) 
000083AA00000001

>  <PUBCHEM_MMFF94_ENERGY>  (1) 
23.9315

>  <PUBCHEM_FEATURE_SELFOVERLAP>  (1) 
15.223

>  <PUBCHEM_SHAPE_FINGERPRINT>  (1) 
1 1 17689437079299467253
10857977 72 18198336449943620586
12423570 1 7964713758985369014
12716758 59 18269561550470506270
13380535 76 18196647402245731735
16945 1 18410581681769768959
20871998 184 18272655691991836774
21040471 1 18266186019481642108
23552423 10 17899421071184985772
23559900 14 18055647114645345846
2748010 2 18049175371068915799
3071541 236 18262225647417979563
369184 2 18412537713272087042
81228 2 18411143558171302843

>  <PUBCHEM_SHAPE_MULTIPOLES>  (1) 
199.93
3.3
2.49
0.69
2.77
0
-0.02
0
-0.42
-2.36
-0.08
0.2
0
0

>  <PUBCHEM_SHAPE_SELFOVERLAP>  (1) 
408.649

>  <PUBCHEM_SHAPE_VOLUME>  (1) 
118.5

>  <PUBCHEM_COORDINATE_TYPE>  (1) 
2
5
10

$$$$
