33713
     RDKit          3D

 25 26  0  0  1  0  0  0  0  0999 V2000
   -3.3709    0.0715    0.3836 O   0  0  0  0  0  0  0  0  0  0  0  0
   -1.1829    1.6703   -0.3120 O   0  0  0  0  0  0  0  0  0  0  0  0
   -1.0536   -1.7881    0.2353 O   0  0  0  0  0  0  0  0  0  0  0  0
   -0.6410    3.9066   -0.3795 O   0  0  0  0  0  0  0  0  0  0  0  0
    0.2491   -2.7277    1.8843 O   0  0  0  0  0  0  0  0  0  0  0  0
   -3.2715    0.6552   -0.9145 C   0  0  0  0  0  0  0  0  0  0  0  0
   -3.4103   -1.3453    0.3110 C   0  0  0  0  0  0  0  0  0  0  0  0
   -2.4912    1.9579   -0.7942 C   0  0  0  0  0  0  0  0  0  0  0  0
   -2.2062   -1.8967    1.0638 C   0  0  0  0  0  0  0  0  0  0  0  0
   -4.6731    0.8937   -1.4554 C   0  0  0  0  0  0  0  0  0  0  0  0
   -4.7172   -1.8327    0.9179 C   0  0  0  0  0  0  0  0  0  0  0  0
   -0.3585    2.7408   -0.1502 C   0  0  0  0  0  0  0  0  0  0  0  0
    0.1113   -2.2429    0.7719 C   0  0  0  0  0  0  0  0  0  0  0  0
    0.9696    2.3087    0.3537 C   0  0  0  0  0  0  0  0  0  0  0  0
    1.2321   -2.0728   -0.1869 C   0  0  0  0  0  0  0  0  0  0  0  0
    2.1124    3.0357    0.0201 C   0  0  0  0  0  0  0  0  0  0  0  0
    2.5199   -2.4756    0.1671 C   0  0  0  0  0  0  0  0  0  0  0  0
    1.0747    1.1759    1.1611 C   0  0  0  0  0  0  0  0  0  0  0  0
    0.9975   -1.5107   -1.4418 C   0  0  0  0  0  0  0  0  0  0  0  0
    3.3601    2.6299    0.4936 C   0  0  0  0  0  0  0  0  0  0  0  0
    3.5730   -2.3161   -0.7337 C   0  0  0  0  0  0  0  0  0  0  0  0
    2.3224    0.7704    1.6346 C   0  0  0  0  0  0  0  0  0  0  0  0
    2.0506   -1.3513   -2.3425 C   0  0  0  0  0  0  0  0  0  0  0  0
    3.4652    1.4974    1.3009 C   0  0  0  0  0  0  0  0  0  0  0  0
    3.3383   -1.7541   -1.9884 C   0  0  0  0  0  0  0  0  0  0  0  0
  1  6  1  0
  1  7  1  0
  2  8  1  0
  2 12  1  0
  3  9  1  0
  3 13  1  0
  4 12  2  0
  5 13  2  0
  6  8  1  0
  6 10  1  0
  7  9  1  0
  7 11  1  0
 12 14  1  0
 13 15  1  0
 14 16  2  0
 14 18  1  0
 15 17  2  0
 15 19  1  0
 16 20  1  0
 17 21  1  0
 18 22  2  0
 19 23  2  0
 20 24  2  0
 21 25  2  0
 22 24  1  0
 23 25  1  0
M  END
>  <PUBCHEM_COMPOUND_CID>  (1) 
33713

>  <PUBCHEM_CONFORMER_RMSD>  (1) 
1

>  <PUBCHEM_CONFORMER_DIVERSEORDER>  (1) 
2
207
172
208
193
67
91
183
54
80
24
128
100
224
27
20
111
156
32
178
7
116
56
129
12
22
13
15
82
43
222
63
142
118
152
81
66
70
59
143
115
154
45
14
33
144
17
16
187
85
76
86
60
165
211
231
8
53
44
140
97
155
192
4
34
189
1
148
177
149
167
175
102
179
228
161
123
151
87
68
61
89
114
132
3
214
58
157
226
104
18
200
73
196
135
216
31
218
133
6
188
170
146
195
79
158
181
109
35
62
78
110
153
38
121
186
64
150
57
164
199
47
223
101
90
213
190
141
194
220
30
106
46
49
74
48
83
203
209
119
225
99
51
138
173
122
72
127
163
37
174
124
169
198
205
40
130
25
185
197
229
166
39
212
112
52
168
221
105
180
145
77
147
103
41
125
23
10
9
120
75
42
117
182
201
55
206
88
50
84
113
160
11
139
184
219
65
215
29
162
36
159
21
69
95
126
227
210
136
107
5
204
171
93
96
71
137
131
28
19
202
191
230
26
98
176
108
134
92
94
217

>  <PUBCHEM_MMFF94_PARTIAL_CHARGES>  (1) 
33
1 -0.56
12 0.63
13 0.63
14 0.09
15 0.09
16 -0.15
17 -0.15
18 -0.15
19 -0.15
2 -0.43
20 -0.15
21 -0.15
22 -0.15
23 -0.15
24 -0.15
25 -0.15
3 -0.43
38 0.15
39 0.15
4 -0.57
40 0.15
41 0.15
42 0.15
43 0.15
44 0.15
45 0.15
46 0.15
47 0.15
5 -0.57
6 0.28
7 0.28
8 0.28
9 0.28

>  <PUBCHEM_EFFECTIVE_ROTOR_COUNT>  (1) 
10

>  <PUBCHEM_PHARMACOPHORE_FEATURES>  (1) 
5
1 1 acceptor
1 4 acceptor
1 5 acceptor
6 14 16 18 20 22 24 rings
6 15 17 19 21 23 25 rings

>  <PUBCHEM_HEAVY_ATOM_COUNT>  (1) 
25

>  <PUBCHEM_ATOM_DEF_STEREO_COUNT>  (1) 
0

>  <PUBCHEM_ATOM_UDEF_STEREO_COUNT>  (1) 
2

>  <PUBCHEM_BOND_DEF_STEREO_COUNT>  (1) 
0

>  <PUBCHEM_BOND_UDEF_STEREO_COUNT>  (1) 
0

>  <PUBCHEM_ISOTOPIC_ATOM_COUNT>  (1) 
0

>  <PUBCHEM_COMPONENT_COUNT>  (1) 
1

>  <PUBCHEM_CACTVS_TAUTO_COUNT>  (1) 
1

>  <PUBCHEM_CONFORMER_ID>  (1) 
000083B100000002

>  <PUBCHEM_MMFF94_ENERGY>  (1) 
67.1532

>  <PUBCHEM_FEATURE_SELFOVERLAP>  (1) 
25.373

>  <PUBCHEM_SHAPE_FINGERPRINT>  (1) 
10675989 125 16174526523009303244
12156800 1 12692091799599593422
12422481 6 17985799645920543138
12539773 59 14088013766342655818
12553582 1 17979351954615320281
12596599 1 17414990249706956609
13009979 54 17034997811361613235
133893 2 17840626813057043418
13402501 40 18337670918375083352
13617811 41 17604144802044803205
14251757 17 18410858741488665419
14790565 3 16541865691285357296
15006816 218 18338795740276789609
17093844 170 18410853283018112376
17357779 13 18058736784335047726
19319366 153 17107075209772876009
20642791 35 18267300937832504373
20691752 17 18187379747869226075
20764821 26 18408605855048065567
20775438 99 18126252390829574679
20905425 154 18340478989573390296
21141583 151 17909275680414574326
21197605 99 17617945072810982603
22182313 1 18335419097666758259
23558518 356 18125996075106787545
23559900 14 18334016064298712173
238 59 18127104546130457381
238918 7 18198332047839493136
3052486 1 18040434373686922074
3298306 158 18267866262243574716
6287921 2 17917160484651173055
6438718 38 17477757352927142912
6823239 73 18409448064165391721
9709674 26 18338785750568215021

>  <PUBCHEM_SHAPE_MULTIPOLES>  (1) 
485.14
7.39
4.65
1.75
6.71
2.01
0.42
-1.07
0.76
-2.42
-0.08
-0.69
-0.86
2.86

>  <PUBCHEM_SHAPE_SELFOVERLAP>  (1) 
1013.099

>  <PUBCHEM_SHAPE_VOLUME>  (1) 
274.1

>  <PUBCHEM_COORDINATE_TYPE>  (1) 
2
5
10

$$$$
