33727
     RDKit          3D

 13 13  0  0  1  0  0  0  0  0999 V2000
    1.2113    0.8467    0.3531 N   0  0  0  0  0  0  0  0  0  0  0  0
    3.1319   -0.5008   -0.1851 N   0  0  0  0  0  0  0  0  0  0  0  0
   -0.0031    1.3630   -0.2717 C   0  0  0  0  0  0  0  0  0  0  0  0
   -1.1715    0.4162   -0.1119 C   0  0  0  0  0  0  0  0  0  0  0  0
   -0.2994    2.7331    0.3324 C   0  0  0  0  0  0  0  0  0  0  0  0
   -1.2485   -0.3787    1.0192 C   0  0  0  0  0  0  0  0  0  0  0  0
   -2.1398    0.3633   -1.1003 C   0  0  0  0  0  0  0  0  0  0  0  0
    1.9302    0.1328   -0.4465 C   0  0  0  0  0  0  0  0  0  0  0  0
   -2.3260   -1.2523    1.1664 C   0  0  0  0  0  0  0  0  0  0  0  0
   -3.2174   -0.5100   -0.9530 C   0  0  0  0  0  0  0  0  0  0  0  0
   -3.3105   -1.3179    0.1803 C   0  0  0  0  0  0  0  0  0  0  0  0
    3.7569   -0.4156    1.1272 C   0  0  0  0  0  0  0  0  0  0  0  0
    3.6858   -1.4798   -1.1100 C   0  0  0  0  0  0  0  0  0  0  0  0
  1  3  1  0
  1  8  2  0
  2  8  1  0
  2 12  1  0
  2 13  1  0
  3  4  1  0
  3  5  1  0
  4  6  2  0
  4  7  1  0
  6  9  1  0
  7 10  2  0
  9 11  2  0
 10 11  1  0
M  END
>  <PUBCHEM_COMPOUND_CID>  (1) 
33727

>  <PUBCHEM_CONFORMER_RMSD>  (1) 
0.6

>  <PUBCHEM_CONFORMER_DIVERSEORDER>  (1) 
2
7
11
4
10
3
9
1
8
6
5
12

>  <PUBCHEM_MMFF94_PARTIAL_CHARGES>  (1) 
18
1 -0.7
10 -0.15
11 -0.15
12 0.37
13 0.37
18 0.15
19 0.15
2 -0.79
20 0.06
21 0.15
22 0.15
23 0.15
3 0.39
4 -0.14
6 -0.15
7 -0.15
8 0.44
9 -0.15

>  <PUBCHEM_EFFECTIVE_ROTOR_COUNT>  (1) 
3

>  <PUBCHEM_PHARMACOPHORE_FEATURES>  (1) 
2
3 1 2 8 cation
6 4 6 7 9 10 11 rings

>  <PUBCHEM_HEAVY_ATOM_COUNT>  (1) 
13

>  <PUBCHEM_ATOM_DEF_STEREO_COUNT>  (1) 
0

>  <PUBCHEM_ATOM_UDEF_STEREO_COUNT>  (1) 
1

>  <PUBCHEM_BOND_DEF_STEREO_COUNT>  (1) 
0

>  <PUBCHEM_BOND_UDEF_STEREO_COUNT>  (1) 
0

>  <PUBCHEM_ISOTOPIC_ATOM_COUNT>  (1) 
0

>  <PUBCHEM_COMPONENT_COUNT>  (1) 
1

>  <PUBCHEM_CACTVS_TAUTO_COUNT>  (1) 
1

>  <PUBCHEM_CONFORMER_ID>  (1) 
000083BF00000002

>  <PUBCHEM_MMFF94_ENERGY>  (1) 
33.5675

>  <PUBCHEM_FEATURE_SELFOVERLAP>  (1) 
10.148

>  <PUBCHEM_SHAPE_FINGERPRINT>  (1) 
10465860 71 17676494951277739022
10618630 7 18412549795004671214
11127187 94 17967818249380580663
11137873 295 18411141333484011399
11543360 7 15502383364962391662
12251169 10 14117799145502364411
12363563 72 18411140233919597102
13296908 3 18342738498937787374
13296909 8 16559037064796205137
14252887 29 18272372005365366466
15775835 57 10015865375123606500
16945 1 17531235167513507633
17834072 14 18410280424400728096
19107657 162 18412545397021671422
20201158 50 18261108573521581338
20281407 28 18202003213868981716
20361792 2 18272092724779301501
20645476 183 15140950777530192459
20645477 70 18339353192825072679
20653085 51 13551194376786071268
20671657 53 17749107798851347548
20711985 344 18265048033505543832
20871998 22 18343587347594693252
21061003 4 18342184383610722595
21296965 67 18413106182137385233
23403322 49 18334857173825892490
23559900 14 18114446908716990328
25 1 11530753782811718300
27216 239 10447630384163685734
2748010 2 17317037267428997787
3082319 5 15936128573290550834
81228 2 18267306430494705224
90316 7 15554459495723939091

>  <PUBCHEM_SHAPE_MULTIPOLES>  (1) 
257.57
6.53
1.92
1.21
4.53
1.27
0.03
-4.19
-0.58
-0.16
0.16
0.02
-0.32
0.67

>  <PUBCHEM_SHAPE_SELFOVERLAP>  (1) 
516.881

>  <PUBCHEM_SHAPE_VOLUME>  (1) 
151.9

>  <PUBCHEM_COORDINATE_TYPE>  (1) 
2
5
10

$$$$
