33725
     RDKit          3D

 12 12  0  0  1  0  0  0  0  0999 V2000
    0.5682    2.9274    0.5126 Cl  0  0  0  0  0  0  0  0  0  0  0  0
    2.9727    0.9692   -0.6041 Cl  0  0  0  0  0  0  0  0  0  0  0  0
   -2.4259    1.7595   -0.0956 Cl  0  0  0  0  0  0  0  0  0  0  0  0
    2.5738   -2.1493    0.4416 Cl  0  0  0  0  0  0  0  0  0  0  0  0
   -1.5574   -0.9345   -1.7813 Cl  0  0  0  0  0  0  0  0  0  0  0  0
   -2.7413   -1.4219    0.8268 Cl  0  0  0  0  0  0  0  0  0  0  0  0
    0.2859    1.2691   -0.1460 C   0  0  0  0  0  0  0  0  0  0  0  0
    1.4843    0.3666    0.2158 C   0  0  0  0  0  0  0  0  0  0  0  0
   -1.0452    0.7082    0.4016 C   0  0  0  0  0  0  0  0  0  0  0  0
    1.2448   -1.1023   -0.1667 C   0  0  0  0  0  0  0  0  0  0  0  0
   -1.2821   -0.7651   -0.0063 C   0  0  0  0  0  0  0  0  0  0  0  0
   -0.0779   -1.6268    0.4018 C   0  0  0  0  0  0  0  0  0  0  0  0
  1  7  1  0
  2  8  1  0
  3  9  1  0
  4 10  1  0
  5 11  1  0
  6 11  1  0
  7  8  1  0
  7  9  1  0
  8 10  1  0
  9 11  1  0
 10 12  1  0
 11 12  1  0
M  END
>  <PUBCHEM_COMPOUND_CID>  (1) 
33725

>  <PUBCHEM_CONFORMER_RMSD>  (1) 
0.4

>  <PUBCHEM_CONFORMER_DIVERSEORDER>  (1) 
1
32
34
10
23
27
24
21
4
13
31
33
15
7
28
2
22
14
18
30
9
29
17
8
16
3
11
25
12
26
6
5
20
19

>  <PUBCHEM_MMFF94_PARTIAL_CHARGES>  (1) 
11
1 -0.29
10 0.29
11 0.58
2 -0.29
3 -0.29
4 -0.29
5 -0.29
6 -0.29
7 0.29
8 0.29
9 0.29

>  <PUBCHEM_EFFECTIVE_ROTOR_COUNT>  (1) 
1.2

>  <PUBCHEM_PHARMACOPHORE_FEATURES>  (1) 
1
6 7 8 9 10 11 12 rings

>  <PUBCHEM_HEAVY_ATOM_COUNT>  (1) 
12

>  <PUBCHEM_ATOM_DEF_STEREO_COUNT>  (1) 
0

>  <PUBCHEM_ATOM_UDEF_STEREO_COUNT>  (1) 
4

>  <PUBCHEM_BOND_DEF_STEREO_COUNT>  (1) 
0

>  <PUBCHEM_BOND_UDEF_STEREO_COUNT>  (1) 
0

>  <PUBCHEM_ISOTOPIC_ATOM_COUNT>  (1) 
0

>  <PUBCHEM_COMPONENT_COUNT>  (1) 
1

>  <PUBCHEM_CACTVS_TAUTO_COUNT>  (1) 
1

>  <PUBCHEM_CONFORMER_ID>  (1) 
000083BD00000001

>  <PUBCHEM_MMFF94_ENERGY>  (1) 
26.1892

>  <PUBCHEM_FEATURE_SELFOVERLAP>  (1) 
5.074

>  <PUBCHEM_SHAPE_FINGERPRINT>  (1) 
10353120 184 18195541504107081764
11206711 2 18338517559439872501
12423570 1 8046513541520484967
12932764 1 17917990611471288770
13140716 1 18337955562958414162
13380535 21 18335997379914980497
14251711 518 18272367602738869518
14817 1 7847333535340992175
161256 15 18195534924307108193
16945 1 18267575999705435474
193761 8 18408889507604863408
20511035 2 18269549451267935108
20871998 184 17985259669071954190
21501502 16 18335987488779312707
21524375 3 16611934277103116370
22802520 49 17985851266731267358
2334 1 18410295804514987362
23419403 2 16244255673256474056
23552423 10 18260552186562953490
241688 4 18339353050795577402
2748010 2 18411983524814637622
5084963 1 17844253053681038840
53812653 217 18201997750612689183
53812654 25 18127958724746623972
66348 1 18121780788037963200
68250623 7 18336276647431520899
81228 2 17833253234762405386

>  <PUBCHEM_SHAPE_MULTIPOLES>  (1) 
258.17
3.91
2.92
1.08
0.62
1.21
-0.43
-0.76
-0.02
0.51
0.57
-0.45
-0.29
-0.2

>  <PUBCHEM_SHAPE_SELFOVERLAP>  (1) 
457.21

>  <PUBCHEM_SHAPE_VOLUME>  (1) 
167.4

>  <PUBCHEM_COORDINATE_TYPE>  (1) 
2
5
10

$$$$
