33722
     RDKit          3D

  7  7  0  0  0  0  0  0  0  0999 V2000
   -2.2280    0.0220    0.2864 O   0  0  0  0  0  0  0  0  0  0  0  0
    1.0217    1.2162    0.2985 N   0  0  0  0  0  0  0  0  0  0  0  0
    1.0731   -1.2468    0.2696 C   0  0  0  0  0  0  0  0  0  0  0  0
    1.7899    0.0433   -0.1223 C   0  0  0  0  0  0  0  0  0  0  0  0
   -0.3270   -1.3027   -0.3238 C   0  0  0  0  0  0  0  0  0  0  0  0
   -0.2837    1.2691   -0.3545 C   0  0  0  0  0  0  0  0  0  0  0  0
   -1.0459   -0.0011   -0.0539 C   0  0  0  0  0  0  0  0  0  0  0  0
  1  7  2  0
  2  4  1  0
  2  6  1  0
  3  4  1  0
  3  5  1  0
  5  7  1  0
  6  7  1  0
M  END
>  <PUBCHEM_COMPOUND_CID>  (1) 
33722

>  <PUBCHEM_CONFORMER_RMSD>  (1) 
0.4

>  <PUBCHEM_CONFORMER_DIVERSEORDER>  (1) 
1
2

>  <PUBCHEM_MMFF94_PARTIAL_CHARGES>  (1) 
7
1 -0.57
16 0.36
2 -0.9
4 0.27
5 0.06
6 0.33
7 0.45

>  <PUBCHEM_EFFECTIVE_ROTOR_COUNT>  (1) 
1

>  <PUBCHEM_PHARMACOPHORE_FEATURES>  (1) 
4
1 1 acceptor
1 2 cation
1 2 donor
6 2 3 4 5 6 7 rings

>  <PUBCHEM_HEAVY_ATOM_COUNT>  (1) 
7

>  <PUBCHEM_ATOM_DEF_STEREO_COUNT>  (1) 
0

>  <PUBCHEM_ATOM_UDEF_STEREO_COUNT>  (1) 
0

>  <PUBCHEM_BOND_DEF_STEREO_COUNT>  (1) 
0

>  <PUBCHEM_BOND_UDEF_STEREO_COUNT>  (1) 
0

>  <PUBCHEM_ISOTOPIC_ATOM_COUNT>  (1) 
0

>  <PUBCHEM_COMPONENT_COUNT>  (1) 
1

>  <PUBCHEM_CACTVS_TAUTO_COUNT>  (1) 
3

>  <PUBCHEM_CONFORMER_ID>  (1) 
000083BA00000001

>  <PUBCHEM_MMFF94_ENERGY>  (1) 
1.98

>  <PUBCHEM_FEATURE_SELFOVERLAP>  (1) 
20.297

>  <PUBCHEM_SHAPE_FINGERPRINT>  (1) 
16714656 1 18410582781576821910
18185500 45 18339635741216500910
20096714 4 18341050821292423698
21040471 1 18267024044889364932
23552423 10 17756156583203259198
29004967 10 18114189622252136209

>  <PUBCHEM_SHAPE_MULTIPOLES>  (1) 
133.21
2.13
1.51
0.66
0.41
0.02
0.02
-0.05
-0.19
-0.24
0.05
-0.01
-0.01
0

>  <PUBCHEM_SHAPE_SELFOVERLAP>  (1) 
257.969

>  <PUBCHEM_SHAPE_VOLUME>  (1) 
80.9

>  <PUBCHEM_COORDINATE_TYPE>  (1) 
2
5
10

$$$$
