33721
     RDKit          3D

  7  7  0  0  0  0  0  0  0  0999 V2000
   -2.2654    0.0000    0.2536 O   0  0  0  0  0  0  0  0  0  0  0  0
    1.7995   -0.0003   -0.1551 N   0  0  0  0  0  0  0  0  0  0  0  0
    1.0862   -1.2038    0.2811 C   0  0  0  0  0  0  0  0  0  0  0  0
    1.0867    1.2038    0.2806 C   0  0  0  0  0  0  0  0  0  0  0  0
   -0.3172   -1.2827   -0.3079 C   0  0  0  0  0  0  0  0  0  0  0  0
   -0.3172    1.2829   -0.3074 C   0  0  0  0  0  0  0  0  0  0  0  0
   -1.0725    0.0001   -0.0449 C   0  0  0  0  0  0  0  0  0  0  0  0
  1  7  2  0
  2  3  1  0
  2  4  1  0
  3  5  1  0
  4  6  1  0
  5  7  1  0
  6  7  1  0
M  END
>  <PUBCHEM_COMPOUND_CID>  (1) 
33721

>  <PUBCHEM_CONFORMER_RMSD>  (1) 
0.4

>  <PUBCHEM_CONFORMER_DIVERSEORDER>  (1) 
1

>  <PUBCHEM_MMFF94_PARTIAL_CHARGES>  (1) 
8
1 -0.57
16 0.36
2 -0.9
3 0.27
4 0.27
5 0.06
6 0.06
7 0.45

>  <PUBCHEM_EFFECTIVE_ROTOR_COUNT>  (1) 
1

>  <PUBCHEM_PHARMACOPHORE_FEATURES>  (1) 
4
1 1 acceptor
1 2 cation
1 2 donor
6 2 3 4 5 6 7 rings

>  <PUBCHEM_HEAVY_ATOM_COUNT>  (1) 
7

>  <PUBCHEM_ATOM_DEF_STEREO_COUNT>  (1) 
0

>  <PUBCHEM_ATOM_UDEF_STEREO_COUNT>  (1) 
0

>  <PUBCHEM_BOND_DEF_STEREO_COUNT>  (1) 
0

>  <PUBCHEM_BOND_UDEF_STEREO_COUNT>  (1) 
0

>  <PUBCHEM_ISOTOPIC_ATOM_COUNT>  (1) 
0

>  <PUBCHEM_COMPONENT_COUNT>  (1) 
1

>  <PUBCHEM_CACTVS_TAUTO_COUNT>  (1) 
2

>  <PUBCHEM_CONFORMER_ID>  (1) 
000083B900000001

>  <PUBCHEM_MMFF94_ENERGY>  (1) 
2.1344

>  <PUBCHEM_FEATURE_SELFOVERLAP>  (1) 
20.297

>  <PUBCHEM_SHAPE_FINGERPRINT>  (1) 
16714656 1 18410864260832636614
18185500 45 18339917216177348318
20096714 4 18341050825571527770
21040471 1 18194965364214213548
23552423 10 17756439157691591134
29004967 10 18114188531362130521

>  <PUBCHEM_SHAPE_MULTIPOLES>  (1) 
133.21
2.11
1.55
0.65
0.51
0
0.01
0
-0.19
-0.3
0.03
0
0
0

>  <PUBCHEM_SHAPE_SELFOVERLAP>  (1) 
257.558

>  <PUBCHEM_SHAPE_VOLUME>  (1) 
81.1

>  <PUBCHEM_COORDINATE_TYPE>  (1) 
2
5
10

$$$$
