33744
     RDKit          3D

  9  8  0  0  0  0  0  0  0  0999 V2000
   -1.2356   -0.5553   -0.1145 C   0  0  0  0  0  0  0  0  0  0  0  0
   -2.4274    0.3717    0.1309 C   0  0  0  0  0  0  0  0  0  0  0  0
    0.0817    0.1145    0.2822 C   0  0  0  0  0  0  0  0  0  0  0  0
   -3.7459   -0.3096   -0.2345 C   0  0  0  0  0  0  0  0  0  0  0  0
    1.2693   -0.8259    0.0670 C   0  0  0  0  0  0  0  0  0  0  0  0
   -4.9306    0.6195   -0.0231 C   0  0  0  0  0  0  0  0  0  0  0  0
    2.5650   -0.1577    0.4248 C   0  0  0  0  0  0  0  0  0  0  0  0
    3.5661    0.0421   -0.4446 C   0  0  0  0  0  0  0  0  0  0  0  0
    4.8573    0.7008   -0.0882 C   0  0  0  0  0  0  0  0  0  0  0  0
  1  2  1  0
  1  3  1  0
  2  4  1  0
  3  5  1  0
  4  6  1  0
  5  7  1  0
  7  8  2  0
  8  9  1  0
M  END
>  <PUBCHEM_COMPOUND_CID>  (1) 
33744

>  <PUBCHEM_CONFORMER_RMSD>  (1) 
0.6

>  <PUBCHEM_CONFORMER_DIVERSEORDER>  (1) 
1
25
14
28
40
32
8
29
10
18
36
24
4
41
19
22
15
3
43
47
33
26
31
46
5
34
39
6
44
11
9
27
35
45
16
20
7
37
42
13
30
12
17
23
21
2
38

>  <PUBCHEM_MMFF94_PARTIAL_CHARGES>  (1) 
6
23 0.15
24 0.15
5 0.14
7 -0.29
8 -0.29
9 0.14

>  <PUBCHEM_EFFECTIVE_ROTOR_COUNT>  (1) 
5

>  <PUBCHEM_PHARMACOPHORE_FEATURES>  (1) 
4
1 6 hydrophobe
1 9 hydrophobe
3 1 2 4 hydrophobe
3 3 5 7 hydrophobe

>  <PUBCHEM_HEAVY_ATOM_COUNT>  (1) 
9

>  <PUBCHEM_ATOM_DEF_STEREO_COUNT>  (1) 
0

>  <PUBCHEM_ATOM_UDEF_STEREO_COUNT>  (1) 
0

>  <PUBCHEM_BOND_DEF_STEREO_COUNT>  (1) 
0

>  <PUBCHEM_BOND_UDEF_STEREO_COUNT>  (1) 
1

>  <PUBCHEM_ISOTOPIC_ATOM_COUNT>  (1) 
0

>  <PUBCHEM_COMPONENT_COUNT>  (1) 
1

>  <PUBCHEM_CACTVS_TAUTO_COUNT>  (1) 
1

>  <PUBCHEM_CONFORMER_ID>  (1) 
000083D000000001

>  <PUBCHEM_MMFF94_ENERGY>  (1) 
-3.7451

>  <PUBCHEM_FEATURE_SELFOVERLAP>  (1) 
20.312

>  <PUBCHEM_SHAPE_FINGERPRINT>  (1) 
11062470 55 17894631452463281243
114248 4 16988562420279230064
13690532 89 10447929468548169820
14123238 8 17167582696016598767
14252887 29 12107779679992212224
17834072 33 17632290232997191661
17834076 25 18409730660102205585
18342897 14 17821729433521770629
20645477 70 17775011129024187086
20719005 15 18410293613991917538
20767249 213 17894349999024782205
20828058 44 14345800456738922513
21119208 17 16845854598280747564
21293036 1 17846499240178099002
22485316 2 12031783656519736844
23402539 116 11746934317795256211
23402655 69 18131348579498919125
42 15 7997973478882301172
42788 4 18410575088958059213
449060 50 17822012008015331751

>  <PUBCHEM_SHAPE_MULTIPOLES>  (1) 
185.22
10.65
0.85
0.68
1.08
0.01
0
-2.97
-0.9
-0.04
0
-0.11
0
-0.11

>  <PUBCHEM_SHAPE_SELFOVERLAP>  (1) 
325.379

>  <PUBCHEM_SHAPE_VOLUME>  (1) 
122.2

>  <PUBCHEM_COORDINATE_TYPE>  (1) 
2
5
10

$$$$
