33749
     RDKit          3D

 31 34  0  0  0  0  0  0  0  0999 V2000
   -0.3276   -4.6050    1.9146 Cl  0  0  0  0  0  0  0  0  0  0  0  0
    4.7855    2.5894    0.2218 O   0  0  0  0  0  0  0  0  0  0  0  0
    1.1690    1.0874   -0.0085 N   0  0  0  0  0  0  0  0  0  0  0  0
    4.9889   -0.7282   -0.0724 N   0  0  0  0  0  0  0  0  0  0  0  0
   -2.1531    0.0649    0.6947 N   0  0  0  0  0  0  0  0  0  0  0  0
    5.5447    1.4917   -1.6524 N   0  0  0  0  0  0  0  0  0  0  0  0
    4.0106    0.3545   -0.1730 C   0  0  0  0  0  0  0  0  0  0  0  0
    3.0131    0.0522   -1.2983 C   0  0  0  0  0  0  0  0  0  0  0  0
    3.2762    0.5190    1.1635 C   0  0  0  0  0  0  0  0  0  0  0  0
    1.8440    1.0441   -1.3121 C   0  0  0  0  0  0  0  0  0  0  0  0
    2.0968    1.4928    1.0556 C   0  0  0  0  0  0  0  0  0  0  0  0
    0.0202    1.9920   -0.0573 C   0  0  0  0  0  0  0  0  0  0  0  0
    4.8125    1.5906   -0.4931 C   0  0  0  0  0  0  0  0  0  0  0  0
   -0.7492    2.0127    1.2672 C   0  0  0  0  0  0  0  0  0  0  0  0
   -1.2739    0.6504    1.7193 C   0  0  0  0  0  0  0  0  0  0  0  0
    5.9928   -0.4158    0.9437 C   0  0  0  0  0  0  0  0  0  0  0  0
    4.3218   -1.9916    0.2384 C   0  0  0  0  0  0  0  0  0  0  0  0
   -1.7399   -1.2176    0.2497 C   0  0  0  0  0  0  0  0  0  0  0  0
   -3.3555    0.7576    0.3832 C   0  0  0  0  0  0  0  0  0  0  0  0
   -1.7512   -1.5655   -1.1112 C   0  0  0  0  0  0  0  0  0  0  0  0
   -4.0927    0.5769   -0.8123 C   0  0  0  0  0  0  0  0  0  0  0  0
   -2.2097   -0.5745   -2.1417 C   0  0  0  0  0  0  0  0  0  0  0  0
   -3.6968   -0.3079   -1.9756 C   0  0  0  0  0  0  0  0  0  0  0  0
   -1.2903   -2.1887    1.1710 C   0  0  0  0  0  0  0  0  0  0  0  0
   -3.9038    1.6608    1.3333 C   0  0  0  0  0  0  0  0  0  0  0  0
   -1.3234   -2.8407   -1.5222 C   0  0  0  0  0  0  0  0  0  0  0  0
   -5.3230    1.2584   -0.9884 C   0  0  0  0  0  0  0  0  0  0  0  0
   -0.8689   -3.4534    0.7561 C   0  0  0  0  0  0  0  0  0  0  0  0
   -5.1084    2.3393    1.1313 C   0  0  0  0  0  0  0  0  0  0  0  0
   -0.8847   -3.7794   -0.5929 C   0  0  0  0  0  0  0  0  0  0  0  0
   -5.8240    2.1334   -0.0323 C   0  0  0  0  0  0  0  0  0  0  0  0
  1 28  1  0
  2 13  2  0
  3 10  1  0
  3 11  1  0
  3 12  1  0
  4  7  1  0
  4 16  1  0
  4 17  1  0
  5 15  1  0
  5 18  1  0
  5 19  1  0
  6 13  1  0
  7  8  1  0
  7  9  1  0
  7 13  1  0
  8 10  1  0
  9 11  1  0
 12 14  1  0
 14 15  1  0
 18 20  2  0
 18 24  1  0
 19 21  2  0
 19 25  1  0
 20 22  1  0
 20 26  1  0
 21 23  1  0
 21 27  1  0
 22 23  1  0
 24 28  2  0
 25 29  2  0
 26 30  2  0
 27 31  2  0
 28 30  1  0
 29 31  1  0
M  END
>  <PUBCHEM_COMPOUND_CID>  (1) 
33749

>  <PUBCHEM_CONFORMER_RMSD>  (1) 
1

>  <PUBCHEM_CONFORMER_DIVERSEORDER>  (1) 
1
82
95
90
45
53
83
85
65
75
94
72
3
50
29
30
68
21
46
7
74
51
81
93
41
52
49
87
54
20
37
33
55
43
32
86
60
57
71
84
42
70
73
62
26
27
79
40
2
67
63
11
88
25
76
77
8
91
66
9
44
92
38
13
6
61
4
16
47
59
58
31
36
64
12
18
69
15
14
56
35
34
5
89
23
80
24
48
22
17
19
28
39
10
78

>  <PUBCHEM_MMFF94_PARTIAL_CHARGES>  (1) 
37
1 -0.18
10 0.27
11 0.27
12 0.27
13 0.57
15 0.37
16 0.27
17 0.27
18 0.1
19 0.1
2 -0.57
20 -0.14
21 -0.14
22 0.14
23 0.14
24 -0.15
25 -0.15
26 -0.15
27 -0.15
28 0.18
29 -0.15
3 -0.81
30 -0.15
31 -0.15
4 -0.81
5 -0.57
52 0.37
53 0.37
58 0.15
59 0.15
6 -0.8
60 0.15
61 0.15
62 0.15
63 0.15
64 0.15
7 0.33

>  <PUBCHEM_EFFECTIVE_ROTOR_COUNT>  (1) 
7.8

>  <PUBCHEM_PHARMACOPHORE_FEATURES>  (1) 
9
1 2 acceptor
1 3 cation
1 4 cation
1 5 cation
1 6 donor
6 18 20 24 26 28 30 rings
6 19 21 25 27 29 31 rings
6 3 7 8 9 10 11 rings
7 5 18 19 20 21 22 23 rings

>  <PUBCHEM_HEAVY_ATOM_COUNT>  (1) 
31

>  <PUBCHEM_ATOM_DEF_STEREO_COUNT>  (1) 
0

>  <PUBCHEM_ATOM_UDEF_STEREO_COUNT>  (1) 
0

>  <PUBCHEM_BOND_DEF_STEREO_COUNT>  (1) 
0

>  <PUBCHEM_BOND_UDEF_STEREO_COUNT>  (1) 
0

>  <PUBCHEM_ISOTOPIC_ATOM_COUNT>  (1) 
0

>  <PUBCHEM_COMPONENT_COUNT>  (1) 
1

>  <PUBCHEM_CACTVS_TAUTO_COUNT>  (1) 
2

>  <PUBCHEM_CONFORMER_ID>  (1) 
000083D500000001

>  <PUBCHEM_MMFF94_ENERGY>  (1) 
117.5045

>  <PUBCHEM_FEATURE_SELFOVERLAP>  (1) 
45.687

>  <PUBCHEM_SHAPE_FINGERPRINT>  (1) 
10366900 7 17060347327107643168
107951 10 18409736179098738439
10906281 52 17916884476956937192
12156800 1 15766065963066273671
12422481 6 17829038823762278273
12788726 201 17846226509792337608
13135754 10 17460329960414465835
133893 2 17905623098908574721
14790565 3 18340206289247059529
14840074 17 18262235508520485700
15183329 4 18060419088718231485
15420108 30 16909766774115776769
15463212 79 18335690680896007929
20197701 30 18412544284772581419
20511986 3 17987217980938058348
23419403 2 12749798933650800303
23559900 14 16916775323007915481
249057 3 18408610241154225852
3178227 256 18341909489342126865
3298306 158 18339078160357211105
3383291 50 18272649073416208419
3411729 13 18053956052539183977
38695281 34 18200592472121633935
4015057 19 17203048590016228216
404807 14 14973803878684788438
4058900 60 18263087609121762801
5385378 56 18193282888829358825
6138700 20 18270963410426296783
7226269 152 18060416889462744081
9981440 41 17917714616725714038

>  <PUBCHEM_SHAPE_MULTIPOLES>  (1) 
614.04
12.26
4.23
1.86
7.55
5.56
0.27
-9.36
1.24
-1.16
-1.5
-0.81
0.5
-1.41

>  <PUBCHEM_SHAPE_SELFOVERLAP>  (1) 
1304.8

>  <PUBCHEM_SHAPE_VOLUME>  (1) 
342

>  <PUBCHEM_COORDINATE_TYPE>  (1) 
2
5
10

$$$$
