33745
     RDKit          3D

 24 26  0  0  1  0  0  0  0  0999 V2000
   -1.7056    0.8667    2.6978 Cl  0  0  0  0  0  0  0  0  0  0  0  0
   -2.0985    5.1878   -0.4872 Cl  0  0  0  0  0  0  0  0  0  0  0  0
    7.1598   -0.9026   -0.6518 Cl  0  0  0  0  0  0  0  0  0  0  0  0
    0.5680   -0.8090   -0.1328 O   0  0  0  0  0  0  0  0  0  0  0  0
   -3.4492   -2.0518    0.8183 N   0  0  0  0  0  0  0  0  0  0  0  0
   -4.5256   -3.3072   -0.7604 N   0  0  0  0  0  0  0  0  0  0  0  0
   -0.8116   -0.6414    0.1626 C   0  0  0  0  0  0  0  0  0  0  0  0
   -1.6320   -1.5492   -0.7647 C   0  0  0  0  0  0  0  0  0  0  0  0
   -3.1295   -1.4790   -0.5050 C   0  0  0  0  0  0  0  0  0  0  0  0
   -1.1425    0.8271    0.0314 C   0  0  0  0  0  0  0  0  0  0  0  0
    1.3866   -0.0631    0.7597 C   0  0  0  0  0  0  0  0  0  0  0  0
   -3.8912   -2.3950   -1.4059 C   0  0  0  0  0  0  0  0  0  0  0  0
   -1.5516    1.5693    1.1287 C   0  0  0  0  0  0  0  0  0  0  0  0
   -1.0230    1.4064   -1.2233 C   0  0  0  0  0  0  0  0  0  0  0  0
    2.8209   -0.2724    0.4084 C   0  0  0  0  0  0  0  0  0  0  0  0
   -1.8484    2.9228    0.9682 C   0  0  0  0  0  0  0  0  0  0  0  0
   -1.3198    2.7597   -1.3837 C   0  0  0  0  0  0  0  0  0  0  0  0
   -4.2288   -3.0555    0.5540 C   0  0  0  0  0  0  0  0  0  0  0  0
   -1.7325    3.5180   -0.2881 C   0  0  0  0  0  0  0  0  0  0  0  0
    3.5374   -1.3160    0.9939 C   0  0  0  0  0  0  0  0  0  0  0  0
    3.4461    0.5764   -0.5052 C   0  0  0  0  0  0  0  0  0  0  0  0
    4.8791   -1.5110    0.6661 C   0  0  0  0  0  0  0  0  0  0  0  0
    4.7878    0.3814   -0.8332 C   0  0  0  0  0  0  0  0  0  0  0  0
    5.5044   -0.6623   -0.2476 C   0  0  0  0  0  0  0  0  0  0  0  0
  1 13  1  0
  2 19  1  0
  3 24  1  0
  4  7  1  0
  4 11  1  0
  5  9  1  0
  5 18  2  0
  6 12  2  0
  6 18  1  0
  7  8  1  0
  7 10  1  0
  8  9  1  0
  9 12  1  0
 10 13  2  0
 10 14  1  0
 11 15  1  0
 13 16  1  0
 14 17  2  0
 15 20  2  0
 15 21  1  0
 16 19  2  0
 17 19  1  0
 20 22  1  0
 21 23  2  0
 22 24  2  0
 23 24  1  0
M  END
>  <PUBCHEM_COMPOUND_CID>  (1) 
33745

>  <PUBCHEM_CONFORMER_RMSD>  (1) 
0.8

>  <PUBCHEM_CONFORMER_DIVERSEORDER>  (1) 
1
96
110
13
104
93
60
52
100
2
71
109
97
77
55
102
68
18
107
95
48
108
40
31
28
41
86
113
79
30
59
67
57
36
101
51
38
78
47
29
87
32
99
26
6
56
22
62
25
44
69
65
103
81
94
54
24
105
23
16
21
61
45
83
80
50
73
3
19
72
85
74
70
64
114
58
11
66
76
9
82
84
15
112
63
7
115
8
42
4
90
89
46
12
20
35
10
98
34
53
49
37
14
92
88
75
39
27
106
43
17
5
33
111
91

>  <PUBCHEM_MMFF94_PARTIAL_CHARGES>  (1) 
32
1 -0.18
10 -0.14
11 0.42
12 0.33
13 0.18
14 -0.15
15 -0.14
16 -0.15
17 -0.15
18 0.6
19 0.18
2 -0.18
20 -0.15
21 -0.15
22 -0.15
23 -0.15
24 0.18
3 -0.18
31 0.06
32 0.15
33 0.15
34 0.15
35 0.06
36 0.15
37 0.15
38 0.15
39 0.15
4 -0.56
5 -0.7
6 -0.66
7 0.42
9 0.31

>  <PUBCHEM_EFFECTIVE_ROTOR_COUNT>  (1) 
6.2

>  <PUBCHEM_PHARMACOPHORE_FEATURES>  (1) 
6
1 4 acceptor
1 6 acceptor
3 5 6 18 cation
5 5 6 9 12 18 rings
6 10 13 14 16 17 19 rings
6 15 20 21 22 23 24 rings

>  <PUBCHEM_HEAVY_ATOM_COUNT>  (1) 
24

>  <PUBCHEM_ATOM_DEF_STEREO_COUNT>  (1) 
0

>  <PUBCHEM_ATOM_UDEF_STEREO_COUNT>  (1) 
2

>  <PUBCHEM_BOND_DEF_STEREO_COUNT>  (1) 
0

>  <PUBCHEM_BOND_UDEF_STEREO_COUNT>  (1) 
0

>  <PUBCHEM_ISOTOPIC_ATOM_COUNT>  (1) 
0

>  <PUBCHEM_COMPONENT_COUNT>  (1) 
1

>  <PUBCHEM_CACTVS_TAUTO_COUNT>  (1) 
1

>  <PUBCHEM_CONFORMER_ID>  (1) 
000083D100000001

>  <PUBCHEM_MMFF94_ENERGY>  (1) 
59.8094

>  <PUBCHEM_FEATURE_SELFOVERLAP>  (1) 
30.447

>  <PUBCHEM_SHAPE_FINGERPRINT>  (1) 
105312 117 18125723379475201340
10764073 3 14617749213214450631
11045515 52 18114457972088423805
11056379 131 18410577254022886502
11101153 10 18263088867858832772
11545043 162 17989201509338145762
11582403 64 16013795656874057997
11763715 3 18262818357353165844
11809386 21 18337103476477149458
12714826 92 18131624586850510210
12788726 201 18262222332083171907
13004483 165 18339354266540477043
13009979 54 17914912061045688611
13583140 156 15625949694554314410
13955234 65 17472702902654189915
14347332 77 18411134732457166934
14508225 48 18339353171260682277
14556957 393 18188219787600832748
14713325 29 18270684164743152774
14955137 171 18122634013704841871
15842332 3 17678721350897624138
16087824 20 18337952282875323021
17539 30 18339913853698146605
1813 80 18199196268084098903
18222031 100 18128807741266399103
19427546 20 18336264561667863260
20101258 96 18408892857663939537
20600515 1 18198356249743173559
21120745 212 18337401512125067053
21202864 24 18269848527564340377
21304303 172 18272373084013807961
21424621 283 11891591508689399879
21426921 1 18410572851644166436
22907989 373 18338221691974966652
22950370 63 18338800146913722479
23419403 2 17700950362365868593
249057 25 17821731629352462934
283562 15 18334288764668383890
3027735 51 18411412874080599435
312423 11 18337964467053281388
3388396 114 17899156059383275212
3552219 110 17985567751640057088
4015057 19 14057004966065731454
4058900 60 17478050454185645377
4409770 3 18338227164517558485
469060 322 18410581703350224474
497634 4 18059866073287507280
5219985 9 18341048635655652247
5486654 2 18267575811534607013
58260988 587 17187855216801762369
59755656 520 17771913726947549689
633830 44 11243342534370344107
6677587 24 15656290537708462557
6786 2 17764593118985759153
70251023 43 18336548325814436106
7164475 11 18409162204111675526
7399639 24 18129366263535098024
77188 2 18266739280427018397
9981440 41 17689435984009805177

>  <PUBCHEM_SHAPE_MULTIPOLES>  (1) 
483.69
11.64
4.92
1.53
23.89
4.46
0.7
-8.71
-2.09
-10.33
-1.18
-1.01
0.28
-0.93

>  <PUBCHEM_SHAPE_SELFOVERLAP>  (1) 
1013.736

>  <PUBCHEM_SHAPE_VOLUME>  (1) 
277.4

>  <PUBCHEM_COORDINATE_TYPE>  (1) 
2
5
10

$$$$
