33746
     RDKit          3D

 26 29  0  0  1  0  0  0  0  0999 V2000
    4.4448    2.7936   -0.3807 Cl  0  0  0  0  0  0  0  0  0  0  0  0
   -0.5837    2.0068    0.0210 O   0  0  0  0  0  0  0  0  0  0  0  0
   -2.7902    0.1456    2.8428 O   0  0  0  0  0  0  0  0  0  0  0  0
   -0.6964   -3.0804    1.6251 O   0  0  0  0  0  0  0  0  0  0  0  0
   -0.8900    0.1407    1.4772 N   0  0  0  0  0  0  0  0  0  0  0  0
    1.1012   -2.0605    0.5521 N   0  0  0  0  0  0  0  0  0  0  0  0
   -0.2994    0.5916    0.1863 C   0  0  0  0  0  0  0  0  0  0  0  0
    1.2462    0.4095    0.1941 C   0  0  0  0  0  0  0  0  0  0  0  0
   -0.8978   -0.0962   -1.0710 C   0  0  0  0  0  0  0  0  0  0  0  0
   -0.1924   -0.8545    2.2797 C   0  0  0  0  0  0  0  0  0  0  0  0
    1.8551   -0.8723    0.2708 C   0  0  0  0  0  0  0  0  0  0  0  0
   -2.1419    0.5889    1.8975 C   0  0  0  0  0  0  0  0  0  0  0  0
    0.0330   -2.1000    1.4545 C   0  0  0  0  0  0  0  0  0  0  0  0
    2.0842    1.5324    0.0088 C   0  0  0  0  0  0  0  0  0  0  0  0
   -1.8747    2.3978    0.2970 C   0  0  0  0  0  0  0  0  0  0  0  0
   -2.6807    1.7320    1.1312 C   0  0  0  0  0  0  0  0  0  0  0  0
    3.2460   -0.9854    0.0733 C   0  0  0  0  0  0  0  0  0  0  0  0
   -0.4999    0.3215   -2.3334 C   0  0  0  0  0  0  0  0  0  0  0  0
   -1.8230   -1.1191   -0.9156 C   0  0  0  0  0  0  0  0  0  0  0  0
    1.5201   -3.3076   -0.0848 C   0  0  0  0  0  0  0  0  0  0  0  0
    3.4639    1.3990   -0.1456 C   0  0  0  0  0  0  0  0  0  0  0  0
    4.0423    0.1397   -0.1286 C   0  0  0  0  0  0  0  0  0  0  0  0
   -2.3000    3.6346   -0.4257 C   0  0  0  0  0  0  0  0  0  0  0  0
   -1.0377   -0.2960   -3.4627 C   0  0  0  0  0  0  0  0  0  0  0  0
   -2.3608   -1.7366   -2.0448 C   0  0  0  0  0  0  0  0  0  0  0  0
   -1.9681   -1.3250   -3.3184 C   0  0  0  0  0  0  0  0  0  0  0  0
  1 21  1  0
  2  7  1  0
  2 15  1  0
  3 12  2  0
  4 13  2  0
  5  7  1  0
  5 10  1  0
  5 12  1  0
  6 11  1  0
  6 13  1  0
  6 20  1  0
  7  8  1  0
  7  9  1  0
  8 11  2  0
  8 14  1  0
  9 18  2  0
  9 19  1  0
 10 13  1  0
 11 17  1  0
 12 16  1  0
 14 21  2  0
 15 16  2  0
 15 23  1  0
 17 22  2  0
 18 24  1  0
 19 25  2  0
 21 22  1  0
 24 26  2  0
 25 26  1  0
M  END
>  <PUBCHEM_COMPOUND_CID>  (1) 
33746

>  <PUBCHEM_CONFORMER_RMSD>  (1) 
0.6

>  <PUBCHEM_CONFORMER_DIVERSEORDER>  (1) 
1
4
3
2

>  <PUBCHEM_MMFF94_PARTIAL_CHARGES>  (1) 
35
1 -0.18
10 0.36
11 0.12
12 0.62
13 0.57
14 -0.15
15 -0.06
16 -0.14
17 -0.15
18 -0.15
19 -0.15
2 -0.36
20 0.3
21 0.18
22 -0.15
23 0.14
24 -0.15
25 -0.15
26 -0.15
29 0.15
3 -0.57
30 0.15
31 0.15
32 0.15
33 0.15
37 0.15
4 -0.57
41 0.15
42 0.15
43 0.15
5 -0.66
6 -0.48
7 0.87
8 -0.14
9 -0.14

>  <PUBCHEM_EFFECTIVE_ROTOR_COUNT>  (1) 
1.6

>  <PUBCHEM_PHARMACOPHORE_FEATURES>  (1) 
7
1 2 acceptor
1 3 acceptor
1 4 acceptor
6 2 5 7 12 15 16 rings
6 8 11 14 17 21 22 rings
6 9 18 19 24 25 26 rings
7 5 6 7 8 10 11 13 rings

>  <PUBCHEM_HEAVY_ATOM_COUNT>  (1) 
26

>  <PUBCHEM_ATOM_DEF_STEREO_COUNT>  (1) 
0

>  <PUBCHEM_ATOM_UDEF_STEREO_COUNT>  (1) 
1

>  <PUBCHEM_BOND_DEF_STEREO_COUNT>  (1) 
0

>  <PUBCHEM_BOND_UDEF_STEREO_COUNT>  (1) 
0

>  <PUBCHEM_ISOTOPIC_ATOM_COUNT>  (1) 
0

>  <PUBCHEM_COMPONENT_COUNT>  (1) 
1

>  <PUBCHEM_CACTVS_TAUTO_COUNT>  (1) 
1

>  <PUBCHEM_CONFORMER_ID>  (1) 
000083D200000001

>  <PUBCHEM_MMFF94_ENERGY>  (1) 
99.7883

>  <PUBCHEM_FEATURE_SELFOVERLAP>  (1) 
35.544

>  <PUBCHEM_SHAPE_FINGERPRINT>  (1) 
10165383 225 15942622048277021166
10863032 1 18049167661534073785
11578080 2 15578378069510207093
12173636 292 18263095447410872916
12714826 92 16271643515751020556
12788726 201 17489024993026527247
13149001 5 17185279562987703668
133893 2 17826203269416092354
13911987 19 17544469117384147172
14817 1 14661053079105137495
14863182 85 17537768508592752571
16752209 62 17416375733332087253
16945 1 18196669392499386360
17349148 13 18194375966754185896
17492 54 17246076959793731718
17980427 23 16807041885656096097
17980427 26 17100855332513481457
18981168 100 14638240647890632847
20567600 347 14565021003601887863
20905425 154 12788646298335644962
21033648 29 16302626387765586101
21756936 100 18266756830059288724
22149856 69 13843613717285493751
22889148 1 17273673439056552607
22907989 373 17971199372564609804
229495 10 18270410390479326001
23419403 2 17172648330827573913
238 59 17243546764468006318
394222 165 17462523378505145594
5845 1 13099145190864206933
9981440 41 15648147790663209804

>  <PUBCHEM_SHAPE_MULTIPOLES>  (1) 
509.37
5.27
3.54
2.89
6.22
0.55
-1.03
2.94
-1.03
-0.43
0.15
-3.12
-1.32
-1.68

>  <PUBCHEM_SHAPE_SELFOVERLAP>  (1) 
1115.354

>  <PUBCHEM_SHAPE_VOLUME>  (1) 
273.8

>  <PUBCHEM_COORDINATE_TYPE>  (1) 
2
5
10

$$$$
