33747
     RDKit          3D

 22 23  0  0  1  0  0  0  0  0999 V2000
   -0.2008   -0.5240   -0.5541 O   0  0  0  0  0  0  0  0  0  0  0  0
    1.4372   -1.8142   -1.5544 O   0  0  0  0  0  0  0  0  0  0  0  0
   -4.3423   -0.6696    0.7751 O   0  0  0  0  0  0  0  0  0  0  0  0
    2.6088    0.0988    0.9340 C   0  0  0  0  0  0  0  0  0  0  0  0
    3.4520   -0.2290   -0.2505 C   0  0  0  0  0  0  0  0  0  0  0  0
    2.0321    0.1809   -0.4489 C   0  0  0  0  0  0  0  0  0  0  0  0
    2.9320    1.3593    1.6637 C   0  0  0  0  0  0  0  0  0  0  0  0
    2.1027   -0.9844    1.8275 C   0  0  0  0  0  0  0  0  0  0  0  0
    4.5073    0.7084   -0.6797 C   0  0  0  0  0  0  0  0  0  0  0  0
    1.0729   -0.8351   -0.9191 C   0  0  0  0  0  0  0  0  0  0  0  0
    5.7773    0.7783   -0.2367 C   0  0  0  0  0  0  0  0  0  0  0  0
    6.7359    1.8004   -0.7812 C   0  0  0  0  0  0  0  0  0  0  0  0
    6.3467   -0.1314    0.8149 C   0  0  0  0  0  0  0  0  0  0  0  0
   -1.2036   -1.4570   -0.9693 C   0  0  0  0  0  0  0  0  0  0  0  0
   -2.5443   -0.9784   -0.4949 C   0  0  0  0  0  0  0  0  0  0  0  0
   -3.1316   -1.2811    0.6939 C   0  0  0  0  0  0  0  0  0  0  0  0
   -3.4141   -0.1400   -1.2023 C   0  0  0  0  0  0  0  0  0  0  0  0
   -4.5066    0.0229   -0.3827 C   0  0  0  0  0  0  0  0  0  0  0  0
   -2.7412   -2.0979    1.8524 C   0  0  0  0  0  0  0  0  0  0  0  0
   -5.7638    0.7712   -0.5195 C   0  0  0  0  0  0  0  0  0  0  0  0
   -5.6391    2.1532    0.0022 C   0  0  0  0  0  0  0  0  0  0  0  0
   -5.5176    3.2687    0.4297 C   0  0  0  0  0  0  0  0  0  0  0  0
  1 10  1  0
  1 14  1  0
  2 10  2  0
  3 16  1  0
  3 18  1  0
  4  5  1  0
  4  6  1  0
  4  7  1  0
  4  8  1  0
  5  6  1  0
  5  9  1  0
  6 10  1  0
  9 11  2  3
 11 12  1  0
 11 13  1  0
 14 15  1  0
 15 16  2  0
 15 17  1  0
 16 19  1  0
 17 18  2  0
 18 20  1  0
 20 21  1  0
 21 22  3  0
M  END
>  <PUBCHEM_COMPOUND_CID>  (1) 
33747

>  <PUBCHEM_CONFORMER_RMSD>  (1) 
1.2

>  <PUBCHEM_CONFORMER_DIVERSEORDER>  (1) 
1
185
105
100
131
158
88
120
70
106
76
16
155
176
114
110
3
63
12
104
59
48
187
179
10
177
4
6
86
95
90
119
183
125
61
20
62
85
102
27
144
53
182
94
132
126
8
30
43
140
75
141
2
146
5
137
82
139
118
109
78
13
51
80
81
152
66
147
74
101
184
65
160
145
112
136
72
171
69
129
96
117
77
45
26
130
71
7
21
172
164
116
173
163
188
17
33
170
54
142
73
58
9
121
97
157
60
36
41
128
150
15
149
37
156
44
92
40
107
143
46
55
138
42
23
67
111
93
127
122
18
31
91
34
84
148
68
99
161
24
22
28
115
25
154
135
166
169
64
57
134
29
186
14
56
39
50
108
133
19
32
175
11
38
168
159
151
123
113
79
178
35
49
98
124
167
87
47
83
162
174
89
103
180
181
52
165
153

>  <PUBCHEM_MMFF94_PARTIAL_CHARGES>  (1) 
27
1 -0.43
10 0.72
11 -0.28
12 0.14
13 0.14
14 0.46
15 -0.18
16 -0.04
17 -0.15
18 -0.04
19 0.18
2 -0.57
20 0.38
21 -0.2
22 -0.18
23 0.1
24 0.1
3 -0.28
31 0.15
4 -0.19
40 0.15
46 0.18
5 -0.06
6 -0.1
7 0.09
8 0.09
9 -0.19

>  <PUBCHEM_EFFECTIVE_ROTOR_COUNT>  (1) 
6.6

>  <PUBCHEM_PHARMACOPHORE_FEATURES>  (1) 
6
1 2 acceptor
1 22 hydrophobe
1 3 acceptor
3 11 12 13 hydrophobe
3 4 7 8 hydrophobe
5 3 15 16 17 18 rings

>  <PUBCHEM_HEAVY_ATOM_COUNT>  (1) 
22

>  <PUBCHEM_ATOM_DEF_STEREO_COUNT>  (1) 
0

>  <PUBCHEM_ATOM_UDEF_STEREO_COUNT>  (1) 
2

>  <PUBCHEM_BOND_DEF_STEREO_COUNT>  (1) 
0

>  <PUBCHEM_BOND_UDEF_STEREO_COUNT>  (1) 
0

>  <PUBCHEM_ISOTOPIC_ATOM_COUNT>  (1) 
0

>  <PUBCHEM_COMPONENT_COUNT>  (1) 
1

>  <PUBCHEM_CACTVS_TAUTO_COUNT>  (1) 
1

>  <PUBCHEM_CONFORMER_ID>  (1) 
000083D300000001

>  <PUBCHEM_MMFF94_ENERGY>  (1) 
29.6741

>  <PUBCHEM_FEATURE_SELFOVERLAP>  (1) 
30.447

>  <PUBCHEM_SHAPE_FINGERPRINT>  (1) 
10763959 59 18131912672009041568
11089746 13 18271796947571927676
11315181 36 17676769885241024639
12236239 1 18259982699938047254
12403259 415 17632007650066637595
12596602 18 17603588508994829513
12616971 3 15068627118937638198
12633257 1 17458621233471422485
12778500 126 18187642441296602122
12788726 201 18271241600080568105
13167372 99 18408885131629697108
13402501 40 18202276988028100097
13740256 8 10737291238138927991
14251751 18 9151166550298261745
14341114 176 17240758480700775758
14341114 328 17749384884149870328
14347329 18 18272930484036624745
15183329 4 15985114011394690238
15238133 3 18340473492094392672
15510800 12 11314324827970463209
15537594 2 14996277024551780586
20281389 69 18343017813477564580
20775438 99 11669195504069006029
21033648 29 18201710782114415505
21709351 56 17060333071599329029
220451 1 16805040731707186746
22224240 67 16009025133529017154
22393880 68 16630230481391585423
23559900 14 18042422239397863079
2838139 119 18130497583311256237
439807 62 10087631607761549845
465052 167 11818988587749906548
5104073 3 17313662767406507744
59682541 35 12901546875923611620
6328613 192 18410013269114488476
8863177 126 11026098879338715357

>  <PUBCHEM_SHAPE_MULTIPOLES>  (1) 
435.14
16.87
2.3
1.52
5.19
1.33
0.44
11.94
0.08
-3.46
0.52
0.41
-0.53
-0.26

>  <PUBCHEM_SHAPE_SELFOVERLAP>  (1) 
897.818

>  <PUBCHEM_SHAPE_VOLUME>  (1) 
253.6

>  <PUBCHEM_COORDINATE_TYPE>  (1) 
2
5
10

$$$$
