33752
     RDKit          3D

 23 24  0  0  0  0  0  0  0  0999 V2000
   -1.5936   -1.8731    1.0253 O   0  0  0  0  0  0  0  0  0  0  0  0
   -3.5043   -0.2215    0.0271 N   0  0  0  0  0  0  0  0  0  0  0  0
    0.0453   -0.1950    0.9621 N   0  0  0  0  0  0  0  0  0  0  0  0
   -2.3625    0.3697    0.7173 C   0  0  0  0  0  0  0  0  0  0  0  0
   -1.2801   -0.6858    0.9039 C   0  0  0  0  0  0  0  0  0  0  0  0
    0.3587    1.1572    1.4500 C   0  0  0  0  0  0  0  0  0  0  0  0
   -3.1049   -0.7290   -1.2863 C   0  0  0  0  0  0  0  0  0  0  0  0
   -4.5837    0.7570   -0.1126 C   0  0  0  0  0  0  0  0  0  0  0  0
    1.1750   -1.0439    0.6409 C   0  0  0  0  0  0  0  0  0  0  0  0
    1.0473    1.9871    0.3994 C   0  0  0  0  0  0  0  0  0  0  0  0
   -4.2841   -1.3480   -2.0174 C   0  0  0  0  0  0  0  0  0  0  0  0
   -5.0578    1.2488    1.2445 C   0  0  0  0  0  0  0  0  0  0  0  0
    0.9880   -2.0470   -0.2714 C   0  0  0  0  0  0  0  0  0  0  0  0
    2.3659   -0.7943    1.2679 C   0  0  0  0  0  0  0  0  0  0  0  0
    2.0758   -2.8636   -0.5804 C   0  0  0  0  0  0  0  0  0  0  0  0
    1.9442    2.9731    0.7863 C   0  0  0  0  0  0  0  0  0  0  0  0
    0.7751    1.7544   -0.9416 C   0  0  0  0  0  0  0  0  0  0  0  0
    3.4537   -1.6111    0.9590 C   0  0  0  0  0  0  0  0  0  0  0  0
    3.3087   -2.6461    0.0350 C   0  0  0  0  0  0  0  0  0  0  0  0
    1.9211   -3.9710   -1.5678 C   0  0  0  0  0  0  0  0  0  0  0  0
    2.5823    3.7418   -0.1875 C   0  0  0  0  0  0  0  0  0  0  0  0
    1.4130    2.5232   -1.9152 C   0  0  0  0  0  0  0  0  0  0  0  0
    2.3169    3.5167   -1.5384 C   0  0  0  0  0  0  0  0  0  0  0  0
  1  5  2  0
  2  4  1  0
  2  7  1  0
  2  8  1  0
  3  5  1  0
  3  6  1  0
  3  9  1  0
  4  5  1  0
  6 10  1  0
  7 11  1  0
  8 12  1  0
  9 13  2  0
  9 14  1  0
 10 16  2  0
 10 17  1  0
 13 15  1  0
 14 18  2  0
 15 19  2  0
 15 20  1  0
 16 21  1  0
 17 22  2  0
 18 19  1  0
 21 23  2  0
 22 23  1  0
M  END
>  <PUBCHEM_COMPOUND_CID>  (1) 
33752

>  <PUBCHEM_CONFORMER_RMSD>  (1) 
0.8

>  <PUBCHEM_CONFORMER_DIVERSEORDER>  (1) 
1
209
224
174
154
124
97
53
62
140
107
71
129
216
125
33
51
134
203
196
183
118
175
116
227
220
166
50
87
232
143
145
213
152
88
12
60
63
34
189
165
127
179
77
123
16
211
37
104
150
225
137
72
176
153
142
171
28
113
114
84
111
102
45
190
185
121
52
146
199
167
131
99
13
200
210
217
109
120
75
115
14
105
54
197
186
21
126
208
66
160
132
36
94
35
74
25
101
163
187
188
148
47
139
49
122
92
218
204
117
40
184
180
90
194
39
170
226
201
95
106
6
15
173
157
181
229
42
10
85
141
41
164
80
214
11
22
96
169
69
219
112
119
192
215
73
86
191
222
231
147
27
65
205
100
2
223
212
89
44
7
149
81
17
93
3
48
31
78
177
67
161
182
29
151
168
133
43
198
172
5
46
32
59
70
56
103
23
159
83
230
136
76
79
8
233
68
4
18
91
162
206
221
57
20
30
138
135
158
19
61
64
26
9
193
38
202
195
58
156
228
207
108
144
98
55
130
110
155
24
128
178
82

>  <PUBCHEM_MMFF94_PARTIAL_CHARGES>  (1) 
30
1 -0.57
10 -0.14
13 -0.15
14 -0.15
15 -0.14
16 -0.15
17 -0.15
18 -0.15
19 -0.15
2 -0.81
20 0.14
21 -0.15
22 -0.15
23 -0.15
3 -0.48
38 0.15
39 0.15
4 0.33
40 0.15
41 0.15
42 0.15
43 0.15
47 0.15
48 0.15
49 0.15
5 0.57
6 0.44
7 0.27
8 0.27
9 0.12

>  <PUBCHEM_EFFECTIVE_ROTOR_COUNT>  (1) 
8

>  <PUBCHEM_PHARMACOPHORE_FEATURES>  (1) 
4
1 1 acceptor
1 2 cation
6 10 16 17 21 22 23 rings
6 9 13 14 15 18 19 rings

>  <PUBCHEM_HEAVY_ATOM_COUNT>  (1) 
23

>  <PUBCHEM_ATOM_DEF_STEREO_COUNT>  (1) 
0

>  <PUBCHEM_ATOM_UDEF_STEREO_COUNT>  (1) 
0

>  <PUBCHEM_BOND_DEF_STEREO_COUNT>  (1) 
0

>  <PUBCHEM_BOND_UDEF_STEREO_COUNT>  (1) 
0

>  <PUBCHEM_ISOTOPIC_ATOM_COUNT>  (1) 
0

>  <PUBCHEM_COMPONENT_COUNT>  (1) 
1

>  <PUBCHEM_CACTVS_TAUTO_COUNT>  (1) 
1

>  <PUBCHEM_CONFORMER_ID>  (1) 
000083D800000001

>  <PUBCHEM_MMFF94_ENERGY>  (1) 
78.6452

>  <PUBCHEM_FEATURE_SELFOVERLAP>  (1) 
20.297

>  <PUBCHEM_SHAPE_FINGERPRINT>  (1) 
10369192 42 17318483107718557269
11477941 20 17760961471171999070
11578080 2 16735840784815408977
11582403 64 15837864278555614528
121448 382 17553765457572461293
12160290 23 17254278921578816624
12422481 6 18044906122422901840
12617007 42 18263085422556004761
12788726 201 17756994406831889282
13004483 165 17836081178384331867
13134695 92 18114452384277903574
13149001 5 17968674755990569195
133893 2 18260831535377735577
13681431 1 18336558131150958434
13690498 29 17406286434327161982
14022347 108 18045515109476556707
14181834 199 18410284848142982072
14863182 85 18057585754321342378
14955137 171 17761805886910809193
15163728 17 17607550199038588620
15210252 30 17898303701151803948
15420108 30 18196636605315355760
15463212 79 17180526400302536944
1601671 61 18335417985175406744
17357779 13 18121766245141412629
17818456 19 17702388338865136409
17980427 23 18341878710714562914
1813 80 18193000317987017379
18785283 64 18261126200373118121
20600515 1 18041566806561074282
21033648 29 12544294652578733111
21285901 2 17981323382968954174
21304253 335 17916585324089606369
21524375 3 17682674382540462857
22907989 373 17401219867433579798
23402539 116 18192421974950415938
23419403 2 17751612456480482540
23557571 272 17976261240588954370
23558518 356 18263640822421793251
25222932 49 15545946162147814535
26353 1 18193279598319686918
312423 11 18341891931351906387
340366 18 18200310997218633671
38695281 34 18268152131419955408
46194498 28 18190718939308513407
5081480 168 18187086105424317453
57262259 84 17618229407686519582
6287921 2 18409725184214127789
6443956 14 18339924792589563288
7364860 26 18410577309572520896
7495541 125 17458923564941347675
81228 2 17832157030259304698
84936 31 18340761632723326044
9981440 41 18052246594861306017

>  <PUBCHEM_SHAPE_MULTIPOLES>  (1) 
457.5
7.41
4.97
1.76
11.62
1.29
0.6
-1.05
0.26
-6.85
2.33
0.36
0.16
-1.33

>  <PUBCHEM_SHAPE_SELFOVERLAP>  (1) 
953.357

>  <PUBCHEM_SHAPE_VOLUME>  (1) 
262

>  <PUBCHEM_COORDINATE_TYPE>  (1) 
2
5
10

$$$$
