33767
     RDKit          3D

 27 29  0  0  0  0  0  0  0  0999 V2000
    4.8557   -0.5729    0.2830 O   0  0  0  0  0  0  0  0  0  0  0  0
   -4.8583   -0.5508    0.3078 O   0  0  0  0  0  0  0  0  0  0  0  0
    3.7959   -2.0564    1.6968 O   0  0  0  0  0  0  0  0  0  0  0  0
   -3.7980   -2.0393    1.7159 O   0  0  0  0  0  0  0  0  0  0  0  0
   -0.0007   -0.4137    0.4247 C   0  0  0  0  0  0  0  0  0  0  0  0
   -0.0211   -0.4030   -1.1052 C   0  0  0  0  0  0  0  0  0  0  0  0
    0.0224    1.0846    0.7339 C   0  0  0  0  0  0  0  0  0  0  0  0
    1.2619   -1.1039    0.9532 C   0  0  0  0  0  0  0  0  0  0  0  0
   -1.2649   -1.0728    0.9875 C   0  0  0  0  0  0  0  0  0  0  0  0
   -0.0116    0.9251   -1.5885 C   0  0  0  0  0  0  0  0  0  0  0  0
    0.0147    1.8349   -0.4638 C   0  0  0  0  0  0  0  0  0  0  0  0
    2.5157   -0.4871    0.3498 C   0  0  0  0  0  0  0  0  0  0  0  0
   -2.5173   -0.4825    0.3552 C   0  0  0  0  0  0  0  0  0  0  0  0
   -0.0458   -1.4816   -1.9769 C   0  0  0  0  0  0  0  0  0  0  0  0
    0.0472    1.7116    1.9710 C   0  0  0  0  0  0  0  0  0  0  0  0
   -0.0269    1.1811   -2.9506 C   0  0  0  0  0  0  0  0  0  0  0  0
    0.0318    3.2203   -0.4294 C   0  0  0  0  0  0  0  0  0  0  0  0
   -0.0612   -1.2229   -3.3486 C   0  0  0  0  0  0  0  0  0  0  0  0
    0.0648    3.1070    2.0048 C   0  0  0  0  0  0  0  0  0  0  0  0
   -0.0517    0.0958   -3.8308 C   0  0  0  0  0  0  0  0  0  0  0  0
    0.0569    3.8540    0.8160 C   0  0  0  0  0  0  0  0  0  0  0  0
    3.7684   -1.1502    0.8754 C   0  0  0  0  0  0  0  0  0  0  0  0
   -3.7706   -1.1355    0.8919 C   0  0  0  0  0  0  0  0  0  0  0  0
    6.1260   -1.0987    0.6813 C   0  0  0  0  0  0  0  0  0  0  0  0
   -6.1292   -1.0652    0.7186 C   0  0  0  0  0  0  0  0  0  0  0  0
    7.2198   -0.3591   -0.0591 C   0  0  0  0  0  0  0  0  0  0  0  0
   -7.2236   -0.3186   -0.0138 C   0  0  0  0  0  0  0  0  0  0  0  0
  1 22  1  0
  1 24  1  0
  2 23  1  0
  2 25  1  0
  3 22  2  0
  4 23  2  0
  5  6  1  0
  5  7  1  0
  5  8  1  0
  5  9  1  0
  6 10  2  0
  6 14  1  0
  7 11  2  0
  7 15  1  0
  8 12  1  0
  9 13  1  0
 10 11  1  0
 10 16  1  0
 11 17  1  0
 12 22  1  0
 13 23  1  0
 14 18  2  0
 15 19  2  0
 16 20  2  0
 17 21  2  0
 18 20  1  0
 19 21  1  0
 24 26  1  0
 25 27  1  0
M  END
>  <PUBCHEM_COMPOUND_CID>  (1) 
33767

>  <PUBCHEM_CONFORMER_RMSD>  (1) 
1

>  <PUBCHEM_CONFORMER_DIVERSEORDER>  (1) 
1
6
5
7
4
2
3

>  <PUBCHEM_MMFF94_PARTIAL_CHARGES>  (1) 
29
1 -0.43
12 0.06
13 0.06
14 -0.15
15 -0.15
16 -0.15
17 -0.15
18 -0.15
19 -0.15
2 -0.43
20 -0.15
21 -0.15
22 0.66
23 0.66
24 0.28
25 0.28
3 -0.57
36 0.15
37 0.15
38 0.15
39 0.15
4 -0.57
40 0.15
41 0.15
42 0.15
43 0.15
5 0.29
6 -0.14
7 -0.14

>  <PUBCHEM_EFFECTIVE_ROTOR_COUNT>  (1) 
10.2

>  <PUBCHEM_PHARMACOPHORE_FEATURES>  (1) 
5
1 3 acceptor
1 4 acceptor
5 5 6 7 10 11 rings
6 6 10 14 16 18 20 rings
6 7 11 15 17 19 21 rings

>  <PUBCHEM_HEAVY_ATOM_COUNT>  (1) 
27

>  <PUBCHEM_ATOM_DEF_STEREO_COUNT>  (1) 
0

>  <PUBCHEM_ATOM_UDEF_STEREO_COUNT>  (1) 
0

>  <PUBCHEM_BOND_DEF_STEREO_COUNT>  (1) 
0

>  <PUBCHEM_BOND_UDEF_STEREO_COUNT>  (1) 
0

>  <PUBCHEM_ISOTOPIC_ATOM_COUNT>  (1) 
0

>  <PUBCHEM_COMPONENT_COUNT>  (1) 
1

>  <PUBCHEM_CACTVS_TAUTO_COUNT>  (1) 
1

>  <PUBCHEM_CONFORMER_ID>  (1) 
000083E700000001

>  <PUBCHEM_MMFF94_ENERGY>  (1) 
69.7803

>  <PUBCHEM_FEATURE_SELFOVERLAP>  (1) 
25.531

>  <PUBCHEM_SHAPE_FINGERPRINT>  (1) 
10756046 70 17631162172632186773
10816530 23 15727521268779561733
10940486 97 17458633379787440675
11582403 64 16906954704312933337
12516196 113 18410291423601217507
13134695 92 18338795719134334009
133893 2 17620711362192504408
13726171 33 14852986384751332527
14955137 171 18060140989247685723
15131766 46 16699743900613559848
15849732 13 17561079241295318363
17980427 23 17846511330796193033
17980427 26 17836078249143056292
18006028 8 18411136935168397290
20238998 120 17167579388554275797
20600515 1 18199491954870137283
21521721 280 11241976970919343431
22224240 67 15123787384078369475
23352939 185 17458632215808313012
23419403 2 18043226089470794829
23559900 14 17168424978407293355
25222932 49 16399433408740335767
3380486 77 18339941375679716091
469060 322 17772723083791417502
497634 4 18041564621002891126

>  <PUBCHEM_SHAPE_MULTIPOLES>  (1) 
532.17
11.35
3.09
2.9
0.05
3.45
1.95
-4.94
-9.33
-0.09
2.13
0.06
-1.39
-0.08

>  <PUBCHEM_SHAPE_SELFOVERLAP>  (1) 
1135.598

>  <PUBCHEM_SHAPE_VOLUME>  (1) 
296.8

>  <PUBCHEM_COORDINATE_TYPE>  (1) 
2
5
10

$$$$
