33775
     RDKit          3D

 20 21  0  0  0  0  0  0  0  0999 V2000
   -3.4386   -2.6530    0.5267 Cl  0  0  0  0  0  0  0  0  0  0  0  0
    5.1854   -0.3110   -0.3101 F   0  0  0  0  0  0  0  0  0  0  0  0
    3.9026   -1.8896    0.4428 F   0  0  0  0  0  0  0  0  0  0  0  0
    3.7856   -1.3015   -1.6474 F   0  0  0  0  0  0  0  0  0  0  0  0
   -0.6871   -1.8256    0.8282 O   0  0  0  0  0  0  0  0  0  0  0  0
   -0.8598    0.4190    0.1774 N   0  0  0  0  0  0  0  0  0  0  0  0
   -1.6898    1.4645   -0.1324 N   0  0  0  0  0  0  0  0  0  0  0  0
   -4.9838   -0.0700   -0.2471 N   0  0  0  0  0  0  0  0  0  0  0  0
    0.5343    0.7897    0.2142 C   0  0  0  0  0  0  0  0  0  0  0  0
    1.5159   -0.1534   -0.0910 C   0  0  0  0  0  0  0  0  0  0  0  0
    2.8632    0.2059   -0.0566 C   0  0  0  0  0  0  0  0  0  0  0  0
    0.9008    2.0922    0.5537 C   0  0  0  0  0  0  0  0  0  0  0  0
   -1.3530   -0.8637    0.4458 C   0  0  0  0  0  0  0  0  0  0  0  0
   -3.6374   -0.0498   -0.0599 C   0  0  0  0  0  0  0  0  0  0  0  0
    3.2295    1.5081    0.2830 C   0  0  0  0  0  0  0  0  0  0  0  0
   -2.8242   -1.0550    0.2703 C   0  0  0  0  0  0  0  0  0  0  0  0
    2.2482    2.4514    0.5881 C   0  0  0  0  0  0  0  0  0  0  0  0
   -2.9538    1.2379   -0.2333 C   0  0  0  0  0  0  0  0  0  0  0  0
    3.9129   -0.8023   -0.3836 C   0  0  0  0  0  0  0  0  0  0  0  0
   -5.6510    0.8061   -1.1688 C   0  0  0  0  0  0  0  0  0  0  0  0
  1 16  1  0
  2 19  1  0
  3 19  1  0
  4 19  1  0
  5 13  2  0
  6  7  1  0
  6  9  1  0
  6 13  1  0
  7 18  2  0
  8 14  1  0
  8 20  1  0
  9 10  2  0
  9 12  1  0
 10 11  1  0
 11 15  2  0
 11 19  1  0
 12 17  2  0
 13 16  1  0
 14 16  2  0
 14 18  1  0
 15 17  1  0
M  END
>  <PUBCHEM_COMPOUND_CID>  (1) 
33775

>  <PUBCHEM_CONFORMER_RMSD>  (1) 
0.6

>  <PUBCHEM_CONFORMER_DIVERSEORDER>  (1) 
1
4
5
7
2
3
6

>  <PUBCHEM_MMFF94_PARTIAL_CHARGES>  (1) 
26
1 -0.14
10 -0.15
11 -0.14
12 -0.15
13 0.62
14 0.11
15 -0.15
16 0.15
17 -0.15
18 0.38
19 1.16
2 -0.34
20 0.37
21 0.15
22 0.15
23 0.15
24 0.15
25 0.06
26 0.4
3 -0.34
4 -0.34
5 -0.57
6 -0.11
7 -0.51
8 -0.87
9 0.12

>  <PUBCHEM_EFFECTIVE_ROTOR_COUNT>  (1) 
3

>  <PUBCHEM_PHARMACOPHORE_FEATURES>  (1) 
6
1 5 acceptor
1 7 acceptor
1 8 cation
1 8 donor
6 6 7 13 14 16 18 rings
6 9 10 11 12 15 17 rings

>  <PUBCHEM_HEAVY_ATOM_COUNT>  (1) 
20

>  <PUBCHEM_ATOM_DEF_STEREO_COUNT>  (1) 
0

>  <PUBCHEM_ATOM_UDEF_STEREO_COUNT>  (1) 
0

>  <PUBCHEM_BOND_DEF_STEREO_COUNT>  (1) 
0

>  <PUBCHEM_BOND_UDEF_STEREO_COUNT>  (1) 
0

>  <PUBCHEM_ISOTOPIC_ATOM_COUNT>  (1) 
0

>  <PUBCHEM_COMPONENT_COUNT>  (1) 
1

>  <PUBCHEM_CACTVS_TAUTO_COUNT>  (1) 
2

>  <PUBCHEM_CONFORMER_ID>  (1) 
000083EF00000001

>  <PUBCHEM_MMFF94_ENERGY>  (1) 
59.6812

>  <PUBCHEM_FEATURE_SELFOVERLAP>  (1) 
30.446

>  <PUBCHEM_SHAPE_FINGERPRINT>  (1) 
10608611 8 18266174113990923489
11405975 8 18412546543782876753
11471102 20 18342454867645160720
116883 192 18342181029347324524
12403259 415 18187076257375692917
12555020 224 18410848846580438623
12592029 89 17418096503463083167
13134695 92 17632854256597965984
13296908 3 18337674225352065347
13544592 145 18408601470255948925
13583140 156 17558542762797033817
14115302 16 18186811291493314084
14790565 3 17475239002942976393
14866123 147 17623017793668110240
14911166 2 18408601444512330469
15099037 51 18410572868939963223
15196674 1 18337672030898038139
15219456 202 18268429203638495337
15242439 84 18408039615476847165
15536298 74 18340766034901261281
15848700 24 18202285762809146948
17349148 13 16200436883583403493
17804303 29 18408609171079303193
17834072 8 18408601453160196583
18186145 218 18114452448744598053
18222031 100 17703793592029076542
200 152 17561081406391397673
20369508 70 18413102858043623288
20374829 77 18407757045125207458
20645477 70 18201720677808541302
20832881 197 18337952294467209273
20871999 31 18336276652027201092
21029758 11 18342738507269584008
21065198 57 18339078297843858185
21065201 7 18041271179751064785
21267235 1 18412553101786526162
21279426 13 18192990422746273637
21521239 73 18200573905305159023
221357 26 18341043043661039053
221490 88 18338521966213201688
2215653 11 18341891879237156405
22943178 12 18266174114164620089
23402539 116 18060415781914997893
23559900 14 18411133684052422112
3004659 81 18041279847370172850
314173 41 18411989052790904004
32948 21 18187080629071891701
335352 9 18410009914601936511
351380 180 18341608218127399053
4214541 1 18410293622919592241
495365 180 17845641676821949536
5104073 3 18339924925844066689
58051976 100 18409728486722504231
633830 44 16805602616033880409
69090 78 18271801354593423711
7364860 26 18200313355040102152
8809292 202 18335988639677502451
9709674 26 18192433193277983203

>  <PUBCHEM_SHAPE_MULTIPOLES>  (1) 
370.83
10.42
2.42
0.88
2.77
0.33
-0.19
1.6
-2.89
-0.2
0.46
-0.05
0.12
1.49

>  <PUBCHEM_SHAPE_SELFOVERLAP>  (1) 
787.939

>  <PUBCHEM_SHAPE_VOLUME>  (1) 
208.5

>  <PUBCHEM_COORDINATE_TYPE>  (1) 
2
5
10

$$$$
