33776
     RDKit          3D

 13 14  0  0  0  0  0  0  0  0999 V2000
    1.4212   -2.4123    0.0012 O   0  0  0  0  0  0  0  0  0  0  0  0
    0.2010    2.8522    0.0014 O   0  0  0  0  0  0  0  0  0  0  0  0
    1.0026   -1.0933    0.0003 N   0  0  0  0  0  0  0  0  0  0  0  0
    0.4790    1.6049   -0.0001 N   0  0  0  0  0  0  0  0  0  0  0  0
    1.6999    1.2194    0.0007 N   0  0  0  0  0  0  0  0  0  0  0  0
    3.2611   -0.4073   -0.0017 N   0  0  0  0  0  0  0  0  0  0  0  0
   -0.3441   -0.7191    0.0000 C   0  0  0  0  0  0  0  0  0  0  0  0
   -0.6342    0.6494   -0.0005 C   0  0  0  0  0  0  0  0  0  0  0  0
   -1.3971   -1.6393    0.0004 C   0  0  0  0  0  0  0  0  0  0  0  0
   -1.9584    1.0999   -0.0010 C   0  0  0  0  0  0  0  0  0  0  0  0
    1.9888   -0.1329   -0.0004 C   0  0  0  0  0  0  0  0  0  0  0  0
   -2.7202   -1.1937    0.0001 C   0  0  0  0  0  0  0  0  0  0  0  0
   -2.9997    0.1723   -0.0005 C   0  0  0  0  0  0  0  0  0  0  0  0
  1  3  1  0
  2  4  1  0
  3  7  1  0
  3 11  1  0
  4  5  2  0
  4  8  1  0
  5 11  1  0
  6 11  2  0
  7  8  2  0
  7  9  1  0
  8 10  1  0
  9 12  2  0
 10 13  2  0
 12 13  1  0
M  CHG  2   2  -1   4   1
M  END
>  <PUBCHEM_COMPOUND_CID>  (1) 
33776

>  <PUBCHEM_CONFORMER_RMSD>  (1) 
0.4

>  <PUBCHEM_CONFORMER_DIVERSEORDER>  (1) 
1

>  <PUBCHEM_MMFF94_PARTIAL_CHARGES>  (1) 
19
1 -0.38
10 -0.15
11 0.71
12 -0.15
13 -0.15
14 0.15
15 0.15
16 0.15
17 0.15
18 0.4
19 0.4
2 -0.63
3 -0.17
4 0.87
5 -0.42
6 -0.85
7 0.1
8 -0.03
9 -0.15

>  <PUBCHEM_EFFECTIVE_ROTOR_COUNT>  (1) 
0

>  <PUBCHEM_PHARMACOPHORE_FEATURES>  (1) 
5
1 2 anion
1 6 donor
4 3 5 6 11 cation
6 3 4 5 7 8 11 rings
6 7 8 9 10 12 13 rings

>  <PUBCHEM_HEAVY_ATOM_COUNT>  (1) 
13

>  <PUBCHEM_ATOM_DEF_STEREO_COUNT>  (1) 
0

>  <PUBCHEM_ATOM_UDEF_STEREO_COUNT>  (1) 
0

>  <PUBCHEM_BOND_DEF_STEREO_COUNT>  (1) 
0

>  <PUBCHEM_BOND_UDEF_STEREO_COUNT>  (1) 
0

>  <PUBCHEM_ISOTOPIC_ATOM_COUNT>  (1) 
0

>  <PUBCHEM_COMPONENT_COUNT>  (1) 
1

>  <PUBCHEM_CACTVS_TAUTO_COUNT>  (1) 
1

>  <PUBCHEM_CONFORMER_ID>  (1) 
000083F000000001

>  <PUBCHEM_MMFF94_ENERGY>  (1) 
39.4934

>  <PUBCHEM_FEATURE_SELFOVERLAP>  (1) 
25.399

>  <PUBCHEM_SHAPE_FINGERPRINT>  (1) 
10967382 1 18338799030132015527
11471102 20 18338231682648989479
12032990 46 18411427206296307918
12382932 28 18340201895220644130
12423570 1 12540706898328403585
12524768 44 18199191689538282263
16945 1 18410856598626889063
17990270 104 18265613358596550059
193761 8 17617940227427709895
19973954 147 18194122039080429073
20201158 50 18409164407187324695
20588541 1 18408606937495992151
21501502 16 18266181819341106701
2334 1 18122344850266484388
23463225 33 18407757028145804818
23552423 10 18192429886390321047
23559900 14 18342181043059882166
241688 4 18194403294802804905
2748010 2 18194118744524092909
5084963 1 18058454385781937579
528886 8 18411695474190301395
53812653 166 18341890783725096673
63268167 104 18410296951397888489
66348 1 18411982421039645587
7364860 26 18126568065913106248

>  <PUBCHEM_SHAPE_MULTIPOLES>  (1) 
235.87
3.97
2.35
0.57
0.05
0.58
0
-0.82
0
0.4
0
-0.06
-0.01
0

>  <PUBCHEM_SHAPE_SELFOVERLAP>  (1) 
511.809

>  <PUBCHEM_SHAPE_VOLUME>  (1) 
126.8

>  <PUBCHEM_COORDINATE_TYPE>  (1) 
2
5
10

$$$$
