33774
     RDKit          3D

 21 23  0  0  0  0  0  0  0  0999 V2000
    5.2549    0.9500    0.0003 Br  0  0  0  0  0  0  0  0  0  0  0  0
    0.0058    2.6102   -0.0018 O   0  0  0  0  0  0  0  0  0  0  0  0
   -0.5325   -2.7057   -0.0016 O   0  0  0  0  0  0  0  0  0  0  0  0
    1.9935   -3.0628    0.0007 O   0  0  0  0  0  0  0  0  0  0  0  0
   -2.5163    2.9668   -0.0002 O   0  0  0  0  0  0  0  0  0  0  0  0
    2.5596    2.4790    0.0016 N   0  0  0  0  0  0  0  0  0  0  0  0
   -3.1158   -2.5665    0.0004 N   0  0  0  0  0  0  0  0  0  0  0  0
    1.0795    0.5109   -0.0003 C   0  0  0  0  0  0  0  0  0  0  0  0
   -1.6007   -0.6068    0.0000 C   0  0  0  0  0  0  0  0  0  0  0  0
    0.9309   -0.8776   -0.0005 C   0  0  0  0  0  0  0  0  0  0  0  0
   -1.4522    0.7817   -0.0003 C   0  0  0  0  0  0  0  0  0  0  0  0
   -0.1067    1.3912   -0.0009 C   0  0  0  0  0  0  0  0  0  0  0  0
   -0.4146   -1.4872   -0.0006 C   0  0  0  0  0  0  0  0  0  0  0  0
    2.3603    1.0761    0.0003 C   0  0  0  0  0  0  0  0  0  0  0  0
   -2.8817   -1.1720    0.0007 C   0  0  0  0  0  0  0  0  0  0  0  0
    2.0633   -1.7009   -0.0003 C   0  0  0  0  0  0  0  0  0  0  0  0
   -2.5845    1.6051   -0.0001 C   0  0  0  0  0  0  0  0  0  0  0  0
    3.4860    0.2520    0.0005 C   0  0  0  0  0  0  0  0  0  0  0  0
    3.3379   -1.1336    0.0001 C   0  0  0  0  0  0  0  0  0  0  0  0
   -4.0074   -0.3478    0.0012 C   0  0  0  0  0  0  0  0  0  0  0  0
   -3.8592    1.0378    0.0008 C   0  0  0  0  0  0  0  0  0  0  0  0
  1 18  1  0
  2 12  2  0
  3 13  2  0
  4 16  1  0
  5 17  1  0
  6 14  1  0
  7 15  1  0
  8 10  2  0
  8 12  1  0
  8 14  1  0
  9 11  2  0
  9 13  1  0
  9 15  1  0
 10 13  1  0
 10 16  1  0
 11 12  1  0
 11 17  1  0
 14 18  2  0
 15 20  2  0
 16 19  2  0
 17 21  2  0
 18 19  1  0
 20 21  1  0
M  END
>  <PUBCHEM_COMPOUND_CID>  (1) 
33774

>  <PUBCHEM_CONFORMER_RMSD>  (1) 
0.6

>  <PUBCHEM_CONFORMER_DIVERSEORDER>  (1) 
1

>  <PUBCHEM_MMFF94_PARTIAL_CHARGES>  (1) 
30
1 -0.11
10 0.09
11 0.09
12 0.4
13 0.4
14 0.1
15 0.1
16 0.08
17 0.08
18 0.11
19 -0.15
2 -0.57
20 -0.15
21 -0.15
22 0.15
23 0.15
24 0.15
25 0.4
26 0.4
27 0.4
28 0.4
29 0.45
3 -0.57
30 0.45
4 -0.53
5 -0.53
6 -0.9
7 -0.9
8 0.09
9 0.09

>  <PUBCHEM_EFFECTIVE_ROTOR_COUNT>  (1) 
0

>  <PUBCHEM_PHARMACOPHORE_FEATURES>  (1) 
12
1 1 hydrophobe
1 2 acceptor
1 3 acceptor
1 4 donor
1 5 donor
1 6 cation
1 6 donor
1 7 cation
1 7 donor
6 8 10 14 16 18 19 rings
6 8 9 10 11 12 13 rings
6 9 11 15 17 20 21 rings

>  <PUBCHEM_HEAVY_ATOM_COUNT>  (1) 
21

>  <PUBCHEM_ATOM_DEF_STEREO_COUNT>  (1) 
0

>  <PUBCHEM_ATOM_UDEF_STEREO_COUNT>  (1) 
0

>  <PUBCHEM_BOND_DEF_STEREO_COUNT>  (1) 
0

>  <PUBCHEM_BOND_UDEF_STEREO_COUNT>  (1) 
0

>  <PUBCHEM_ISOTOPIC_ATOM_COUNT>  (1) 
0

>  <PUBCHEM_COMPONENT_COUNT>  (1) 
1

>  <PUBCHEM_CACTVS_TAUTO_COUNT>  (1) 
169

>  <PUBCHEM_CONFORMER_ID>  (1) 
000083EE00000001

>  <PUBCHEM_MMFF94_ENERGY>  (1) 
93.3114

>  <PUBCHEM_FEATURE_SELFOVERLAP>  (1) 
60.937

>  <PUBCHEM_SHAPE_FINGERPRINT>  (1) 
10319926 262 18269814524946250272
10411042 1 17473825503778930630
10493431 412 18269565957455508201
10608611 8 18410854330631040141
10616163 171 18411420643528133983
10863032 1 18340205193734441130
10967382 1 18338516318114922919
11132069 177 18410570690927430985
11578080 2 17024857170374030030
12236239 1 17822006558556446820
12553582 1 18338792441889644787
12838862 33 18338779187452050069
12839892 36 18337934733016193370
13140716 1 17978234081838609515
138480 1 17906453221413598086
14178342 30 18338503167326061120
14223421 5 18410576192917687087
14790565 3 18265340676099103868
15196674 1 18410575046045322502
15442244 35 18194399983378036978
15536298 74 18342739577006318022
16945 1 18338234993488467367
17492 89 18410010996866156027
19591789 44 18050851314278213418
200 152 18059850688519253157
20510252 161 18343585122553844360
20905425 154 18341615888622556679
21267235 1 18338525243067870799
21421861 104 17969779666613568154
21501502 16 18338233756506250626
221490 88 18409456903118766714
2334 1 18410855456012588035
23366157 5 18041847186621895554
23402539 116 18342169020407294478
23463225 33 18409166575924003261
23559900 14 18126563423802558494
238 59 16816259911738492229
2748010 2 18410856529685827415
335352 9 17834113044001407319
34934 24 18410568470624660543
350125 39 18410295817442437961
4409770 3 16094869134722480862
474 4 17604155916918322228
5104073 3 18338235955666624682
58051976 378 18412543214877390516
7364860 26 18341332180737780942
7832392 63 18339642209537371462
9709674 26 18412548682265600966

>  <PUBCHEM_SHAPE_MULTIPOLES>  (1) 
404.67
7.78
3.17
0.6
3.37
0.38
0
-1.38
0
-0.58
0
0.05
-0.01
0

>  <PUBCHEM_SHAPE_SELFOVERLAP>  (1) 
905.399

>  <PUBCHEM_SHAPE_VOLUME>  (1) 
219.5

>  <PUBCHEM_COORDINATE_TYPE>  (1) 
2
5
10

$$$$
