33785
     RDKit          3D

 20 23  0  0  0  0  0  0  0  0999 V2000
   -4.2193    1.8082   -0.1273 O   0  0  0  0  0  0  0  0  0  0  0  0
   -1.6229   -0.7304   -0.0099 C   0  0  0  0  0  0  0  0  0  0  0  0
   -2.4980   -1.9699   -0.0203 C   0  0  0  0  0  0  0  0  0  0  0  0
   -0.1947   -0.8336   -0.0293 C   0  0  0  0  0  0  0  0  0  0  0  0
   -2.2282    0.5386   -0.0223 C   0  0  0  0  0  0  0  0  0  0  0  0
   -3.8986   -1.7070    0.5191 C   0  0  0  0  0  0  0  0  0  0  0  0
    0.6130    0.3402    0.0104 C   0  0  0  0  0  0  0  0  0  0  0  0
   -4.5466   -0.5533   -0.2168 C   0  0  0  0  0  0  0  0  0  0  0  0
   -0.0575    1.5832    0.0407 C   0  0  0  0  0  0  0  0  0  0  0  0
   -3.7061    0.6929   -0.1004 C   0  0  0  0  0  0  0  0  0  0  0  0
   -1.4467    1.6871    0.0141 C   0  0  0  0  0  0  0  0  0  0  0  0
    2.0534    0.2354    0.0117 C   0  0  0  0  0  0  0  0  0  0  0  0
    0.4644   -2.0760   -0.0948 C   0  0  0  0  0  0  0  0  0  0  0  0
    2.6551   -1.0454   -0.0428 C   0  0  0  0  0  0  0  0  0  0  0  0
    1.8530   -2.1816   -0.0995 C   0  0  0  0  0  0  0  0  0  0  0  0
    0.5669    2.9436    0.0829 C   0  0  0  0  0  0  0  0  0  0  0  0
    2.9409    1.3426    0.0626 C   0  0  0  0  0  0  0  0  0  0  0  0
    4.0537   -1.1883   -0.0451 C   0  0  0  0  0  0  0  0  0  0  0  0
    4.3306    1.1904    0.0603 C   0  0  0  0  0  0  0  0  0  0  0  0
    4.8877   -0.0767    0.0065 C   0  0  0  0  0  0  0  0  0  0  0  0
  1 10  2  0
  2  3  1  0
  2  4  1  0
  2  5  2  0
  3  6  1  0
  4  7  2  0
  4 13  1  0
  5 10  1  0
  5 11  1  0
  6  8  1  0
  7  9  1  0
  7 12  1  0
  8 10  1  0
  9 11  2  0
  9 16  1  0
 12 14  2  0
 12 17  1  0
 13 15  2  0
 14 15  1  0
 14 18  1  0
 17 19  2  0
 18 20  2  0
 19 20  1  0
M  END
>  <PUBCHEM_COMPOUND_CID>  (1) 
33785

>  <PUBCHEM_CONFORMER_RMSD>  (1) 
0.6

>  <PUBCHEM_CONFORMER_DIVERSEORDER>  (1) 
1

>  <PUBCHEM_MMFF94_PARTIAL_CHARGES>  (1) 
22
1 -0.57
10 0.42
11 -0.15
13 -0.15
15 -0.15
16 0.14
17 -0.15
18 -0.15
19 -0.15
2 -0.14
20 -0.15
27 0.15
28 0.15
29 0.15
3 0.14
33 0.15
34 0.15
35 0.15
36 0.15
5 0.09
8 0.06
9 -0.14

>  <PUBCHEM_EFFECTIVE_ROTOR_COUNT>  (1) 
0.6

>  <PUBCHEM_PHARMACOPHORE_FEATURES>  (1) 
5
1 1 acceptor
6 12 14 17 18 19 20 rings
6 2 3 5 6 8 10 rings
6 2 4 5 7 9 11 rings
6 4 7 12 13 14 15 rings

>  <PUBCHEM_HEAVY_ATOM_COUNT>  (1) 
20

>  <PUBCHEM_ATOM_DEF_STEREO_COUNT>  (1) 
0

>  <PUBCHEM_ATOM_UDEF_STEREO_COUNT>  (1) 
0

>  <PUBCHEM_BOND_DEF_STEREO_COUNT>  (1) 
0

>  <PUBCHEM_BOND_UDEF_STEREO_COUNT>  (1) 
0

>  <PUBCHEM_ISOTOPIC_ATOM_COUNT>  (1) 
0

>  <PUBCHEM_COMPONENT_COUNT>  (1) 
1

>  <PUBCHEM_CACTVS_TAUTO_COUNT>  (1) 
2

>  <PUBCHEM_CONFORMER_ID>  (1) 
000083F900000001

>  <PUBCHEM_MMFF94_ENERGY>  (1) 
78.1383

>  <PUBCHEM_FEATURE_SELFOVERLAP>  (1) 
25.438

>  <PUBCHEM_SHAPE_FINGERPRINT>  (1) 
10062212 137 18409442613577859051
10411042 1 16897646286818954926
10498660 4 18410295787604169572
10608611 8 18410008819269244205
10616163 171 18411702079966241975
10967382 1 18411136905309198198
11112241 14 16412360177868414448
11132069 177 18410007741148128448
11471102 20 18411133649497121654
11578080 2 16808125801962319390
12011746 2 18411417323476002007
12236239 1 17894348883008375372
12403814 3 17603865581360737629
13132413 78 18412826906120607349
13140716 1 18338232665748289450
13214271 11 18412542111234397183
13862211 1 18411412934156958526
14223421 5 18267022760921081342
14787075 74 18261957456770048482
14790565 3 18265903642942302500
15196674 1 18410573985351963174
15375358 24 18409729547452734691
15536298 74 18342458132062703934
1601671 61 18412546509191237344
16945 1 18122909724576341842
17492 89 18336546010569659482
1813 80 17240485814090215629
19591789 44 18339079422708304886
200 152 18059852874589106367
20028762 73 17986110940397117823
20510252 161 18343303634718384696
21029758 11 18341608231081106489
21267235 1 18410864269132907895
21279426 13 18338798888345276206
21421861 104 17825382986201829874
221490 88 18263650743368387619
2334 1 18411138073471828366
23366157 5 17897440833711815052
23402539 116 18342731936328148406
23463225 33 18409166610552741006
23557571 272 18343312461213872438
23559900 14 18268708303894306774
2748010 2 18411980265024169838
2871803 45 18408601452859788894
335352 9 18338516318109648605
34934 24 18337949000475316591
350125 39 18338240474600109561
3545911 37 18410294696328944447
3886686 26 17037506918950913626
4214541 1 18410011022529542189
474 4 17386294323789059772
5104073 3 18410292493031847482
537710 114 18410298038161946260
59755656 215 18339929225723936702
7364860 26 18268710695795276465
77779 3 18410013238648296870
8809292 202 18261115205230661467
9709674 26 18340773636967365207

>  <PUBCHEM_SHAPE_MULTIPOLES>  (1) 
405.72
8.81
2.66
0.63
0.18
0.52
0.01
-0.51
0.03
-0.27
0.04
-0.05
-0.03
0.27

>  <PUBCHEM_SHAPE_SELFOVERLAP>  (1) 
917.648

>  <PUBCHEM_SHAPE_VOLUME>  (1) 
213

>  <PUBCHEM_COORDINATE_TYPE>  (1) 
2
5
10

$$$$
