33784
     RDKit          3D

 26 29  0  0  0  0  0  0  0  0999 V2000
   -0.7031    2.0851   -0.3444 O   0  0  0  0  0  0  0  0  0  0  0  0
   -3.9011   -2.1470    0.2941 O   0  0  0  0  0  0  0  0  0  0  0  0
    5.3418   -0.6023    1.6685 O   0  0  0  0  0  0  0  0  0  0  0  0
    1.3935    0.6028   -0.8118 N   0  0  0  0  0  0  0  0  0  0  0  0
   -1.9689   -3.8457   -0.1446 N   0  0  0  0  0  0  0  0  0  0  0  0
   -0.8694   -0.2790   -0.3362 C   0  0  0  0  0  0  0  0  0  0  0  0
   -1.7053   -1.3852   -0.1699 C   0  0  0  0  0  0  0  0  0  0  0  0
    0.4865   -0.4665   -0.6304 C   0  0  0  0  0  0  0  0  0  0  0  0
   -2.8370    1.2747    0.1071 C   0  0  0  0  0  0  0  0  0  0  0  0
   -3.6729    0.1686    0.2738 C   0  0  0  0  0  0  0  0  0  0  0  0
   -1.4047    1.0914   -0.2040 C   0  0  0  0  0  0  0  0  0  0  0  0
   -3.1376   -1.2018    0.1416 C   0  0  0  0  0  0  0  0  0  0  0  0
   -1.1855   -2.6788   -0.2983 C   0  0  0  0  0  0  0  0  0  0  0  0
    1.0004   -1.7574   -0.7573 C   0  0  0  0  0  0  0  0  0  0  0  0
    0.1662   -2.8612   -0.5918 C   0  0  0  0  0  0  0  0  0  0  0  0
   -3.3568    2.5684    0.2354 C   0  0  0  0  0  0  0  0  0  0  0  0
   -5.0286    0.3560    0.5687 C   0  0  0  0  0  0  0  0  0  0  0  0
    2.7743    0.7280   -0.5781 C   0  0  0  0  0  0  0  0  0  0  0  0
   -4.7084    2.7507    0.5296 C   0  0  0  0  0  0  0  0  0  0  0  0
   -5.5425    1.6469    0.6957 C   0  0  0  0  0  0  0  0  0  0  0  0
    3.3825   -0.0073    0.4423 C   0  0  0  0  0  0  0  0  0  0  0  0
    3.5446    1.5872   -1.3657 C   0  0  0  0  0  0  0  0  0  0  0  0
    4.7526    0.1158    0.6737 C   0  0  0  0  0  0  0  0  0  0  0  0
    4.9146    1.7103   -1.1341 C   0  0  0  0  0  0  0  0  0  0  0  0
    5.5185    0.9747   -0.1145 C   0  0  0  0  0  0  0  0  0  0  0  0
    6.7462   -0.4286    1.8504 C   0  0  0  0  0  0  0  0  0  0  0  0
  1 11  2  0
  2 12  2  0
  3 23  1  0
  3 26  1  0
  4  8  1  0
  4 18  1  0
  5 13  1  0
  6  7  2  0
  6  8  1  0
  6 11  1  0
  7 12  1  0
  7 13  1  0
  8 14  2  0
  9 10  2  0
  9 11  1  0
  9 16  1  0
 10 12  1  0
 10 17  1  0
 13 15  2  0
 14 15  1  0
 16 19  2  0
 17 20  2  0
 18 21  2  0
 18 22  1  0
 19 20  1  0
 21 23  1  0
 22 24  2  0
 23 25  2  0
 24 25  1  0
M  END
>  <PUBCHEM_COMPOUND_CID>  (1) 
33784

>  <PUBCHEM_CONFORMER_RMSD>  (1) 
0.6

>  <PUBCHEM_CONFORMER_DIVERSEORDER>  (1) 
1
16
13
2
8
5
20
14
15
19
7
6
11
10
12
9
3
4
18
17

>  <PUBCHEM_MMFF94_PARTIAL_CHARGES>  (1) 
39
1 -0.57
10 0.09
11 0.4
12 0.4
13 0.1
14 -0.15
15 -0.15
16 -0.15
17 -0.15
18 0.1
19 -0.15
2 -0.57
20 -0.15
21 -0.15
22 -0.15
23 0.08
24 -0.15
25 -0.15
26 0.28
27 0.15
28 0.15
29 0.4
3 -0.36
30 0.15
31 0.15
32 0.15
33 0.15
34 0.4
35 0.4
36 0.15
37 0.15
38 0.15
39 0.15
4 -0.6
5 -0.9
6 0.09
7 0.09
8 0.1
9 0.09

>  <PUBCHEM_EFFECTIVE_ROTOR_COUNT>  (1) 
3

>  <PUBCHEM_PHARMACOPHORE_FEATURES>  (1) 
11
1 1 acceptor
1 2 acceptor
1 3 acceptor
1 4 cation
1 4 donor
1 5 cation
1 5 donor
6 18 21 22 23 24 25 rings
6 6 7 8 13 14 15 rings
6 6 7 9 10 11 12 rings
6 9 10 16 17 19 20 rings

>  <PUBCHEM_HEAVY_ATOM_COUNT>  (1) 
26

>  <PUBCHEM_ATOM_DEF_STEREO_COUNT>  (1) 
0

>  <PUBCHEM_ATOM_UDEF_STEREO_COUNT>  (1) 
0

>  <PUBCHEM_BOND_DEF_STEREO_COUNT>  (1) 
0

>  <PUBCHEM_BOND_UDEF_STEREO_COUNT>  (1) 
0

>  <PUBCHEM_ISOTOPIC_ATOM_COUNT>  (1) 
0

>  <PUBCHEM_COMPONENT_COUNT>  (1) 
1

>  <PUBCHEM_CACTVS_TAUTO_COUNT>  (1) 
9

>  <PUBCHEM_CONFORMER_ID>  (1) 
000083F800000001

>  <PUBCHEM_MMFF94_ENERGY>  (1) 
119.7539

>  <PUBCHEM_FEATURE_SELFOVERLAP>  (1) 
55.863

>  <PUBCHEM_SHAPE_FINGERPRINT>  (1) 
10 15 18334305270612551537
10074138 170 18337661027055248011
10319926 262 18271235110822040952
10411042 1 17620200175217297607
10493431 412 18340779165339062357
10692045 39 18128814132525849698
1100329 8 18340494486032269597
12107183 9 18262794061144925026
12236239 1 17967533492948609512
12390115 104 18200614530741363201
12403260 363 18339637970626151269
12422481 6 18115025195370832580
12596602 18 17458348575878246905
12633257 1 18410011039915497260
12788726 201 18047761686931879558
12838862 33 18340477886643047065
12839892 36 18409444769598700642
12969540 114 16559032679423612229
13140716 1 17906183102541278259
13726171 33 18054813903305442288
138480 1 17545893624723159399
14068700 675 18056190513632965119
14117953 113 18263926535898157637
14341114 328 18186522103013906512
14420673 8 18264767663301156146
14466204 15 18341612598767688064
14790565 3 18410866455461367181
14951699 99 18200019794368565832
15021287 119 17458339737283944348
15042514 8 18193847157158742215
15131766 46 16662631005765857060
15238133 3 18343018896368648560
15250474 111 18262229027958707346
16110190 28 18335413591677252232
16728300 4 17389082478807245096
16994733 274 15984826983151977353
17818456 19 18408888443001788724
17980427 23 18187091680312927693
1813 80 16805609123320953558
19246450 95 17753868551287870248
20511986 3 18041268967664111164
20554085 129 17987504940894013649
20715895 44 18192429658815862765
21033648 29 17489585693144890544
21065198 48 18187646951001914596
21236236 1 18341615953658852863
21452121 103 18268995284691692527
21756936 100 18272928349711678356
21781055 127 17915762906962464272
21859007 373 17098612371969436645
22149856 69 18050603710764566737
22182313 1 18126877991185852151
23522609 53 17822875138393565676
23559900 14 18127708045113045134
23569917 315 18410856547246700199
25147074 1 18113901619705844636
350125 39 18339933726912738625
3680242 22 18336554815336362736
4093350 32 16844458120299099293
4340502 62 18270970038009149429
445580 182 18339058451274497330
495365 180 17346321458354887878
5104073 3 18261109725153020488
513202 73 16588574298083539548
5265222 85 18199194065604431766
5385378 56 18199757933620797963
54039377 194 17169261539648199042
56633871 153 18044637734491129690
58807428 26 18334858264404603587
59755656 215 18199478679685355718
6058803 2 18044095881189491878
6371009 1 18411132533265366301
7064713 232 18411418393186953396
7226269 152 17917709093771966936
7808743 9 18339648939841068036
9981440 41 18409736123649143171

>  <PUBCHEM_SHAPE_MULTIPOLES>  (1) 
507.5
13.56
3.32
1.13
12.57
2.08
-0.25
-7.01
-5.86
-3.71
0.44
1.95
-0.11
-1.54

>  <PUBCHEM_SHAPE_SELFOVERLAP>  (1) 
1141.527

>  <PUBCHEM_SHAPE_VOLUME>  (1) 
265.6

>  <PUBCHEM_COORDINATE_TYPE>  (1) 
2
5
10

$$$$
