33780
     RDKit          3D

 12 12  0  0  1  0  0  0  0  0999 V2000
   -2.4754    2.3014    0.7137 Cl  0  0  0  0  0  0  0  0  0  0  0  0
    0.2624   -0.4439   -1.3023 S   0  0  0  0  0  0  0  0  0  0  0  0
    1.8589   -1.2199   -0.2744 S   0  0  0  0  0  0  0  0  0  0  0  0
    5.2861    0.8684    0.2980 N   0  0  0  0  0  0  0  0  0  0  0  0
   -0.6741    0.3575    0.0588 C   0  0  0  0  0  0  0  0  0  0  0  0
   -1.8821    1.1206   -0.5116 C   0  0  0  0  0  0  0  0  0  0  0  0
   -1.0805   -0.6844    1.1119 C   0  0  0  0  0  0  0  0  0  0  0  0
   -3.0353    0.1977   -0.9269 C   0  0  0  0  0  0  0  0  0  0  0  0
   -2.2197   -1.5977    0.6580 C   0  0  0  0  0  0  0  0  0  0  0  0
   -3.4232   -0.8039    0.1603 C   0  0  0  0  0  0  0  0  0  0  0  0
    3.0477    0.1415   -0.3534 C   0  0  0  0  0  0  0  0  0  0  0  0
    4.3352   -0.2371    0.3679 C   0  0  0  0  0  0  0  0  0  0  0  0
  1  6  1  0
  2  3  1  0
  2  5  1  0
  3 11  1  0
  4 12  1  0
  5  6  1  0
  5  7  1  0
  6  8  1  0
  7  9  1  0
  8 10  1  0
  9 10  1  0
 11 12  1  0
M  END
>  <PUBCHEM_COMPOUND_CID>  (1) 
33780

>  <PUBCHEM_CONFORMER_RMSD>  (1) 
0.6

>  <PUBCHEM_CONFORMER_DIVERSEORDER>  (1) 
1
126
96
143
116
132
87
91
144
53
82
115
130
86
95
3
35
112
102
85
43
97
134
92
56
17
118
88
55
73
142
129
47
11
39
107
110
78
24
62
29
103
63
79
48
75
106
31
34
124
20
81
60
121
71
139
99
114
120
10
42
113
131
122
98
32
141
50
4
45
145
49
136
133
89
61
80
19
109
138
9
40
37
77
68
27
105
76
146
59
8
67
119
69
117
44
51
94
30
123
18
21
108
135
22
65
64
23
128
125
14
58
7
70
36
38
15
41
140
16
28
111
93
74
84
25
66
83
101
26
57
12
137
5
54
72
90
33
13
46
127
2
6
52
100
104

>  <PUBCHEM_MMFF94_PARTIAL_CHARGES>  (1) 
10
1 -0.29
11 0.23
12 0.27
2 -0.23
27 0.36
28 0.36
3 -0.23
4 -0.99
5 0.23
6 0.29

>  <PUBCHEM_EFFECTIVE_ROTOR_COUNT>  (1) 
5.2

>  <PUBCHEM_PHARMACOPHORE_FEATURES>  (1) 
3
1 4 cation
1 4 donor
6 5 6 7 8 9 10 rings

>  <PUBCHEM_HEAVY_ATOM_COUNT>  (1) 
12

>  <PUBCHEM_ATOM_DEF_STEREO_COUNT>  (1) 
2

>  <PUBCHEM_ATOM_UDEF_STEREO_COUNT>  (1) 
0

>  <PUBCHEM_BOND_DEF_STEREO_COUNT>  (1) 
0

>  <PUBCHEM_BOND_UDEF_STEREO_COUNT>  (1) 
0

>  <PUBCHEM_ISOTOPIC_ATOM_COUNT>  (1) 
0

>  <PUBCHEM_COMPONENT_COUNT>  (1) 
1

>  <PUBCHEM_CACTVS_TAUTO_COUNT>  (1) 
1

>  <PUBCHEM_CONFORMER_ID>  (1) 
000083F400000001

>  <PUBCHEM_MMFF94_ENERGY>  (1) 
2.8246

>  <PUBCHEM_FEATURE_SELFOVERLAP>  (1) 
15.223

>  <PUBCHEM_SHAPE_FINGERPRINT>  (1) 
11132069 177 17749107773134213286
12162725 195 18334018293666449636
12186901 62 12175630559453048067
124424 183 13190339075744914918
12932764 1 16916774154871353118
13024252 1 12973608837547302367
13296909 8 18113337509335812806
14577589 140 9295283954366245781
15279308 16 18129949974627250620
200 152 18411692218837297263
20645477 56 18265341616142547029
21339142 149 18408890611801842107
23402539 116 18409442605504805103
23557571 272 18342187660544285919
23559900 14 18335135337688604146
3086196 2 18188216501750494131
3248919 1 18187096026529615510
6333449 129 18334013878366229151

>  <PUBCHEM_SHAPE_MULTIPOLES>  (1) 
251.54
8.08
1.73
1.1
12.08
0.64
-0.12
1.68
1
-1.38
0.41
-0.38
-0.1
0.24

>  <PUBCHEM_SHAPE_SELFOVERLAP>  (1) 
445.232

>  <PUBCHEM_SHAPE_VOLUME>  (1) 
166.3

>  <PUBCHEM_COORDINATE_TYPE>  (1) 
2
5
10

$$$$
