33783
     RDKit          3D

 27 29  0  0  1  0  0  0  0  0999 V2000
   -7.5849   -3.0400   -0.5495 Cl  0  0  0  0  0  0  0  0  0  0  0  0
    8.0237   -1.9012    0.7913 F   0  0  0  0  0  0  0  0  0  0  0  0
   -1.9239   -0.1585    1.4276 O   0  0  0  0  0  0  0  0  0  0  0  0
    0.4069    1.2262   -0.9004 N   0  0  0  0  0  0  0  0  0  0  0  0
    3.0558    0.2536   -0.4571 N   0  0  0  0  0  0  0  0  0  0  0  0
   -2.8913    1.6405    0.3299 N   0  0  0  0  0  0  0  0  0  0  0  0
    0.9320    0.1123   -1.6998 C   0  0  0  0  0  0  0  0  0  0  0  0
    1.4929    2.1547   -0.5638 C   0  0  0  0  0  0  0  0  0  0  0  0
    2.0060   -0.6584   -0.9285 C   0  0  0  0  0  0  0  0  0  0  0  0
    2.5866    1.4522    0.2447 C   0  0  0  0  0  0  0  0  0  0  0  0
   -0.6560    1.9212   -1.6256 C   0  0  0  0  0  0  0  0  0  0  0  0
   -1.2154    3.0658   -0.7763 C   0  0  0  0  0  0  0  0  0  0  0  0
   -1.8111    2.5731    0.5511 C   0  0  0  0  0  0  0  0  0  0  0  0
    4.3064   -0.2898   -0.1428 C   0  0  0  0  0  0  0  0  0  0  0  0
   -2.3083    3.7456    1.3905 C   0  0  0  0  0  0  0  0  0  0  0  0
    4.8464   -0.1662    1.1532 C   0  0  0  0  0  0  0  0  0  0  0  0
    5.0644   -0.9766   -1.1125 C   0  0  0  0  0  0  0  0  0  0  0  0
   -2.8536    0.3349    0.7946 C   0  0  0  0  0  0  0  0  0  0  0  0
    6.0936   -0.7069    1.4665 C   0  0  0  0  0  0  0  0  0  0  0  0
    6.3117   -1.5171   -0.7992 C   0  0  0  0  0  0  0  0  0  0  0  0
    6.8263   -1.3821    0.4903 C   0  0  0  0  0  0  0  0  0  0  0  0
   -4.0320   -0.5063    0.4616 C   0  0  0  0  0  0  0  0  0  0  0  0
   -3.8699   -1.8728    0.3637 C   0  0  0  0  0  0  0  0  0  0  0  0
   -5.2514    0.1064    0.2590 C   0  0  0  0  0  0  0  0  0  0  0  0
   -4.9765   -2.6618    0.0488 C   0  0  0  0  0  0  0  0  0  0  0  0
   -6.3580   -0.6824   -0.0561 C   0  0  0  0  0  0  0  0  0  0  0  0
   -6.2204   -2.0665   -0.1613 C   0  0  0  0  0  0  0  0  0  0  0  0
  1 27  1  0
  2 21  1  0
  3 18  2  0
  4  7  1  0
  4  8  1  0
  4 11  1  0
  5  9  1  0
  5 10  1  0
  5 14  1  0
  6 13  1  0
  6 18  1  0
  7  9  1  0
  8 10  1  0
 11 12  1  0
 12 13  1  0
 13 15  1  0
 14 16  2  0
 14 17  1  0
 16 19  1  0
 17 20  2  0
 18 22  1  0
 19 21  2  0
 20 21  1  0
 22 23  2  0
 22 24  1  0
 23 25  1  0
 24 26  2  0
 25 27  2  0
 26 27  1  0
M  END
>  <PUBCHEM_COMPOUND_CID>  (1) 
33783

>  <PUBCHEM_CONFORMER_RMSD>  (1) 
1

>  <PUBCHEM_CONFORMER_DIVERSEORDER>  (1) 
2
17
60
29
3
4
54
20
32
26
44
13
14
36
37
51
52
33
39
34
6
61
50
27
10
43
35
59
24
11
21
49
16
30
31
40
22
1
53
57
15
25
18
38
23
48
9
28
41
58
42
55
7
8
12
45
5
47
19
56
46

>  <PUBCHEM_MMFF94_PARTIAL_CHARGES>  (1) 
34
1 -0.18
10 0.37
11 0.27
13 0.3
14 0.1
16 -0.15
17 -0.15
18 0.54
19 -0.15
2 -0.19
20 -0.15
21 0.19
22 0.09
23 -0.15
24 -0.15
25 -0.15
26 -0.15
27 0.18
3 -0.57
4 -0.81
44 0.37
45 0.15
46 0.15
47 0.15
48 0.15
49 0.15
5 -0.84
50 0.15
51 0.15
52 0.15
6 -0.73
7 0.27
8 0.27
9 0.37

>  <PUBCHEM_EFFECTIVE_ROTOR_COUNT>  (1) 
8.2

>  <PUBCHEM_PHARMACOPHORE_FEATURES>  (1) 
7
1 3 acceptor
1 4 cation
1 5 cation
1 6 donor
6 14 16 17 19 20 21 rings
6 22 23 24 25 26 27 rings
6 4 5 7 8 9 10 rings

>  <PUBCHEM_HEAVY_ATOM_COUNT>  (1) 
27

>  <PUBCHEM_ATOM_DEF_STEREO_COUNT>  (1) 
0

>  <PUBCHEM_ATOM_UDEF_STEREO_COUNT>  (1) 
1

>  <PUBCHEM_BOND_DEF_STEREO_COUNT>  (1) 
0

>  <PUBCHEM_BOND_UDEF_STEREO_COUNT>  (1) 
0

>  <PUBCHEM_ISOTOPIC_ATOM_COUNT>  (1) 
0

>  <PUBCHEM_COMPONENT_COUNT>  (1) 
1

>  <PUBCHEM_CACTVS_TAUTO_COUNT>  (1) 
2

>  <PUBCHEM_CONFORMER_ID>  (1) 
000083F700000002

>  <PUBCHEM_MMFF94_ENERGY>  (1) 
73.3383

>  <PUBCHEM_FEATURE_SELFOVERLAP>  (1) 
35.523

>  <PUBCHEM_SHAPE_FINGERPRINT>  (1) 
10 15 17775279474580889138
10190206 1 12757425012851646294
10674148 151 14996271518651588263
10753850 27 18187645838473314779
10904742 90 9871476417569643859
11456790 92 18341345483095574779
12166972 35 17894915182677553005
12838863 1 18341324591826683007
12895836 83 8358259237554459433
13540713 5 18263949729033279173
13631057 29 18335700512149832632
13782708 43 18131076987516581838
13885169 86 11167936991549790827
14068700 675 18408041822974278473
14344974 204 18339923715197168774
14556957 393 15719687441826082982
15183329 4 14201389478328243103
15188451 53 18409163312075970886
16126227 98 9439401341771357815
18222031 100 18186806885373956436
20028762 73 18413109476457059478
20621476 66 10447923984381510450
21304304 249 18410855494546598351
21315759 148 17988924410769169858
21585480 29 17415261004408873558
21756936 100 11311766276690459357
229767 44 18059854003965858063
23198884 109 12035449428323710669
23389318 12 17967256425526054582
23522609 53 18045818690687408692
23559900 14 18263362645816337769
23569914 152 12109994062398903784
23622692 118 18334297565235727924
255183 313 18121517756406170401
3004659 81 18187082897025412471
312425 54 17916315952024715683
32027 91 18124311864691521843
38570 142 11383841488784494628
397830 11 18342727525776927064
406291 66 18338233877494147119
463206 1 18265900348971210427
559249 180 18408605868940691935
5718773 13 18410572929122714119
5758199 1 10879996869583062399
59682541 52 14201382890085671354
6712543 237 16702310070200194807
96874 4 18187358827068151090
9689198 14 8502381061502389743

>  <PUBCHEM_SHAPE_MULTIPOLES>  (1) 
529.43
20.3
3.63
1.35
8.5
2.18
-0.09
-23.4
3.18
-4.67
0.2
1.03
0.36
-1.15

>  <PUBCHEM_SHAPE_SELFOVERLAP>  (1) 
1105.362

>  <PUBCHEM_SHAPE_VOLUME>  (1) 
301.7

>  <PUBCHEM_COORDINATE_TYPE>  (1) 
2
5
10

$$$$
