33791
     RDKit          3D

 14 15  0  0  0  0  0  0  0  0999 V2000
    1.5532    2.9425   -0.0024 Cl  0  0  0  0  0  0  0  0  0  0  0  0
   -0.7268   -2.9130   -0.0017 Cl  0  0  0  0  0  0  0  0  0  0  0  0
    3.5595    0.4692    0.0026 Cl  0  0  0  0  0  0  0  0  0  0  0  0
    2.4079   -2.4624    0.0001 Cl  0  0  0  0  0  0  0  0  0  0  0  0
   -2.6641    1.1757    0.0015 O   0  0  0  0  0  0  0  0  0  0  0  0
   -3.1155   -1.0797   -0.0002 O   0  0  0  0  0  0  0  0  0  0  0  0
   -0.3845    1.0828    0.0001 C   0  0  0  0  0  0  0  0  0  0  0  0
   -0.8769   -0.2063    0.0003 C   0  0  0  0  0  0  0  0  0  0  0  0
   -1.5022    2.0433   -0.0001 C   0  0  0  0  0  0  0  0  0  0  0  0
    0.9790    1.3124   -0.0005 C   0  0  0  0  0  0  0  0  0  0  0  0
   -0.0568   -1.3192    0.0001 C   0  0  0  0  0  0  0  0  0  0  0  0
   -2.3302   -0.1532    0.0008 C   0  0  0  0  0  0  0  0  0  0  0  0
    1.8362    0.2078   -0.0004 C   0  0  0  0  0  0  0  0  0  0  0  0
    1.3212   -1.0999   -0.0003 C   0  0  0  0  0  0  0  0  0  0  0  0
  1 10  1  0
  2 11  1  0
  3 13  1  0
  4 14  1  0
  5  9  1  0
  5 12  1  0
  6 12  2  0
  7  8  2  0
  7  9  1  0
  7 10  1  0
  8 11  1  0
  8 12  1  0
 10 13  2  0
 11 14  2  0
 13 14  1  0
M  END
>  <PUBCHEM_COMPOUND_CID>  (1) 
33791

>  <PUBCHEM_CONFORMER_RMSD>  (1) 
0.4

>  <PUBCHEM_CONFORMER_DIVERSEORDER>  (1) 
1

>  <PUBCHEM_MMFF94_PARTIAL_CHARGES>  (1) 
14
1 -0.18
10 0.18
11 0.18
12 0.63
13 0.18
14 0.18
2 -0.18
3 -0.18
4 -0.18
5 -0.43
6 -0.57
7 -0.14
8 0.09
9 0.42

>  <PUBCHEM_EFFECTIVE_ROTOR_COUNT>  (1) 
0.4

>  <PUBCHEM_PHARMACOPHORE_FEATURES>  (1) 
3
1 6 acceptor
5 5 7 8 9 12 rings
6 7 8 10 11 13 14 rings

>  <PUBCHEM_HEAVY_ATOM_COUNT>  (1) 
14

>  <PUBCHEM_ATOM_DEF_STEREO_COUNT>  (1) 
0

>  <PUBCHEM_ATOM_UDEF_STEREO_COUNT>  (1) 
0

>  <PUBCHEM_BOND_DEF_STEREO_COUNT>  (1) 
0

>  <PUBCHEM_BOND_UDEF_STEREO_COUNT>  (1) 
0

>  <PUBCHEM_ISOTOPIC_ATOM_COUNT>  (1) 
0

>  <PUBCHEM_COMPONENT_COUNT>  (1) 
1

>  <PUBCHEM_CACTVS_TAUTO_COUNT>  (1) 
1

>  <PUBCHEM_CONFORMER_ID>  (1) 
000083FF00000001

>  <PUBCHEM_MMFF94_ENERGY>  (1) 
34.7977

>  <PUBCHEM_FEATURE_SELFOVERLAP>  (1) 
15.314

>  <PUBCHEM_SHAPE_FINGERPRINT>  (1) 
10967382 1 18410855473145016934
11471102 20 18337948970727186709
12423570 1 9187151881989623735
13140716 1 18050568739985099714
13380535 76 18410570725635608130
16945 1 18338799017273363974
17990270 104 18409446955673530042
193761 8 17978511158863624292
20588541 1 18410859901346093330
21501502 16 18339080367569422523
2334 1 18338797806177040998
23463225 33 18264487278633487754
23526114 1 18266457611859884942
23552423 10 18335706009386237509
23559900 14 18343029900539026348
241688 4 18122344575562625128
2748010 2 18266457607554329166
5084963 1 18130790087468337097
5255222 1 18338793519683706516
528886 8 18338792317050678761
53812653 166 18342735204671790024
54173680 148 18193277627004050730
63268167 104 18339645529436445136
7364860 26 18413388761041990736

>  <PUBCHEM_SHAPE_MULTIPOLES>  (1) 
283.85
4.22
3.33
0.62
0.25
0.42
0
-0.01
0
0.76
0
0.06
0.01
0

>  <PUBCHEM_SHAPE_SELFOVERLAP>  (1) 
587.042

>  <PUBCHEM_SHAPE_VOLUME>  (1) 
167.3

>  <PUBCHEM_COORDINATE_TYPE>  (1) 
2
5
10

$$$$
