33792
     RDKit          3D

 17 19  0  0  0  0  0  0  0  0999 V2000
   -0.0275   -0.7136    0.0006 N   0  0  0  0  0  0  0  0  0  0  0  0
    1.8778    0.7620   -0.0005 C   0  0  0  0  0  0  0  0  0  0  0  0
    1.3060   -0.5275    0.0004 C   0  0  0  0  0  0  0  0  0  0  0  0
   -0.8256    0.3787   -0.0002 C   0  0  0  0  0  0  0  0  0  0  0  0
    3.2741    0.9192   -0.0006 C   0  0  0  0  0  0  0  0  0  0  0  0
    4.1084   -0.1950    0.0002 C   0  0  0  0  0  0  0  0  0  0  0  0
    1.0148    1.8662   -0.0012 C   0  0  0  0  0  0  0  0  0  0  0  0
   -2.2415    0.0962   -0.0004 C   0  0  0  0  0  0  0  0  0  0  0  0
   -0.3597    1.6778   -0.0011 C   0  0  0  0  0  0  0  0  0  0  0  0
    2.1638   -1.6241    0.0012 C   0  0  0  0  0  0  0  0  0  0  0  0
    3.5521   -1.4682    0.0011 C   0  0  0  0  0  0  0  0  0  0  0  0
    5.5890   -0.0237   -0.0002 C   0  0  0  0  0  0  0  0  0  0  0  0
   -2.9285   -0.0419   -1.2082 C   0  0  0  0  0  0  0  0  0  0  0  0
   -2.9286   -0.0378    1.2078 C   0  0  0  0  0  0  0  0  0  0  0  0
   -4.2968   -0.3129   -1.2077 C   0  0  0  0  0  0  0  0  0  0  0  0
   -4.2969   -0.3089    1.2083 C   0  0  0  0  0  0  0  0  0  0  0  0
   -4.9810   -0.4465    0.0006 C   0  0  0  0  0  0  0  0  0  0  0  0
  1  3  2  0
  1  4  1  0
  2  3  1  0
  2  5  1  0
  2  7  2  0
  3 10  1  0
  4  8  1  0
  4  9  2  0
  5  6  2  0
  6 11  1  0
  6 12  1  0
  7  9  1  0
  8 13  2  0
  8 14  1  0
 10 11  2  0
 13 15  1  0
 14 16  2  0
 15 17  2  0
 16 17  1  0
M  END
>  <PUBCHEM_COMPOUND_CID>  (1) 
33792

>  <PUBCHEM_CONFORMER_RMSD>  (1) 
0.6

>  <PUBCHEM_CONFORMER_DIVERSEORDER>  (1) 
1
2

>  <PUBCHEM_MMFF94_PARTIAL_CHARGES>  (1) 
25
1 -0.62
10 -0.15
11 -0.15
12 0.14
13 -0.15
14 -0.15
15 -0.15
16 -0.15
17 -0.15
18 0.15
19 0.15
20 0.15
21 0.15
22 0.15
26 0.15
27 0.15
28 0.15
29 0.15
3 0.31
30 0.15
4 0.31
5 -0.15
6 -0.14
7 -0.15
9 -0.15

>  <PUBCHEM_EFFECTIVE_ROTOR_COUNT>  (1) 
1

>  <PUBCHEM_PHARMACOPHORE_FEATURES>  (1) 
4
1 1 acceptor
6 1 2 3 4 7 9 rings
6 2 3 5 6 10 11 rings
6 8 13 14 15 16 17 rings

>  <PUBCHEM_HEAVY_ATOM_COUNT>  (1) 
17

>  <PUBCHEM_ATOM_DEF_STEREO_COUNT>  (1) 
0

>  <PUBCHEM_ATOM_UDEF_STEREO_COUNT>  (1) 
0

>  <PUBCHEM_BOND_DEF_STEREO_COUNT>  (1) 
0

>  <PUBCHEM_BOND_UDEF_STEREO_COUNT>  (1) 
0

>  <PUBCHEM_ISOTOPIC_ATOM_COUNT>  (1) 
0

>  <PUBCHEM_COMPONENT_COUNT>  (1) 
1

>  <PUBCHEM_CACTVS_TAUTO_COUNT>  (1) 
1

>  <PUBCHEM_CONFORMER_ID>  (1) 
0000840000000001

>  <PUBCHEM_MMFF94_ENERGY>  (1) 
55.3276

>  <PUBCHEM_FEATURE_SELFOVERLAP>  (1) 
20.329

>  <PUBCHEM_SHAPE_FINGERPRINT>  (1) 
11287383 113 16805609195913183108
11471102 20 18409166636354355708
11796584 16 16588016884169059018
11806522 49 18411698785799906100
12032990 46 18335143068117722224
12107183 9 16696699055624877147
12236239 1 17775849029835153001
12596602 18 17131831001381400299
12670546 56 17418088828077138377
13140716 1 18195244640673967264
13544653 18 18335986384809102852
13760787 5 18411141363321987668
13862211 1 18410851049861744346
14252887 29 18130514050321208238
14289901 80 15123789604122378183
14386348 63 17967818253680627987
14576447 43 18272357715640102678
15196674 1 18338517426680754404
15375358 24 18040997349325692858
15375462 189 18130787854027256016
15961568 22 15647623392446774764
16945 1 18410574011269654884
17357779 13 18114731681748764133
17834072 33 17346596413122758664
1813 80 18271260347301266764
19433438 38 17675919876557813823
19489759 90 16008745805577031447
200 152 18342735208971758969
20279233 1 17821450153352463075
20645477 70 18336259055113906551
21267235 1 18412271622968671814
21641784 216 18042423373601545500
22094290 60 16298103177279579341
221490 88 18191308393035911395
22646028 1 17989485229923005215
23175994 123 18186524310880505605
23402539 116 18273493455316747188
23402655 69 18411694353230250029
23557571 272 16877656846885588933
23559900 14 17240479174513965290
26918003 58 18187366532043638627
2871803 45 18261110730048604210
34797466 226 16298683732103850854
474 4 17700116983590826128
4990 188 12685093661655263744
5104073 3 18267017259463517344
542803 24 16989127564755204922
573450 72 17060621096954884699
602551 16 15267050497427981751
7495541 125 17313394473172666596
77492 1 17703793647837387717
83771 10 18341892974190241264

>  <PUBCHEM_SHAPE_MULTIPOLES>  (1) 
344.87
10.58
1.43
0.96
0.04
0.25
0
-2.42
0
-1.09
0
1.26
-0.06
0

>  <PUBCHEM_SHAPE_SELFOVERLAP>  (1) 
768.864

>  <PUBCHEM_SHAPE_VOLUME>  (1) 
183.3

>  <PUBCHEM_COORDINATE_TYPE>  (1) 
2
5
10

$$$$
