33805
     RDKit          3D

 11 11  0  0  1  0  0  0  0  0999 V2000
   -1.1488   -0.3812   -0.7940 O   0  0  0  0  0  0  0  0  0  0  0  0
   -2.8747   -1.7907   -0.2191 O   0  0  0  0  0  0  0  0  0  0  0  0
    0.5720    1.0556    0.2214 N   0  0  0  0  0  0  0  0  0  0  0  0
    2.9598    0.7468   -0.0932 C   0  0  0  0  0  0  0  0  0  0  0  0
    3.5952   -0.6397   -0.1161 C   0  0  0  0  0  0  0  0  0  0  0  0
   -0.7428    0.9407   -0.4029 C   0  0  0  0  0  0  0  0  0  0  0  0
    1.5301    0.6936   -0.5592 C   0  0  0  0  0  0  0  0  0  0  0  0
    2.8766   -1.6273    0.7923 C   0  0  0  0  0  0  0  0  0  0  0  0
   -1.7913    1.3461    0.5578 C   0  0  0  0  0  0  0  0  0  0  0  0
   -2.6912    0.3847    0.7352 C   0  0  0  0  0  0  0  0  0  0  0  0
   -2.2848   -0.7286   -0.1222 C   0  0  0  0  0  0  0  0  0  0  0  0
  1  6  1  0
  1 11  1  0
  2 11  2  0
  3  6  1  0
  3  7  2  0
  4  5  1  0
  4  7  1  0
  5  8  1  0
  6  9  1  0
  9 10  2  0
 10 11  1  0
M  END
>  <PUBCHEM_COMPOUND_CID>  (1) 
33805

>  <PUBCHEM_CONFORMER_RMSD>  (1) 
0.6

>  <PUBCHEM_CONFORMER_DIVERSEORDER>  (1) 
3
6
8
16
1
9
11
14
2
4
5
15
7
12
10
13

>  <PUBCHEM_MMFF94_PARTIAL_CHARGES>  (1) 
12
1 -0.43
10 -0.14
11 0.71
17 0.06
2 -0.57
21 0.15
22 0.15
3 -0.7
4 0.06
6 0.66
7 0.33
9 -0.29

>  <PUBCHEM_EFFECTIVE_ROTOR_COUNT>  (1) 
3.4

>  <PUBCHEM_PHARMACOPHORE_FEATURES>  (1) 
4
1 2 acceptor
1 3 acceptor
1 8 hydrophobe
5 1 6 9 10 11 rings

>  <PUBCHEM_HEAVY_ATOM_COUNT>  (1) 
11

>  <PUBCHEM_ATOM_DEF_STEREO_COUNT>  (1) 
0

>  <PUBCHEM_ATOM_UDEF_STEREO_COUNT>  (1) 
0

>  <PUBCHEM_BOND_DEF_STEREO_COUNT>  (1) 
0

>  <PUBCHEM_BOND_UDEF_STEREO_COUNT>  (1) 
1

>  <PUBCHEM_ISOTOPIC_ATOM_COUNT>  (1) 
0

>  <PUBCHEM_COMPONENT_COUNT>  (1) 
1

>  <PUBCHEM_CACTVS_TAUTO_COUNT>  (1) 
1

>  <PUBCHEM_CONFORMER_ID>  (1) 
0000840D00000003

>  <PUBCHEM_MMFF94_ENERGY>  (1) 
7.1178

>  <PUBCHEM_FEATURE_SELFOVERLAP>  (1) 
20.297

>  <PUBCHEM_SHAPE_FINGERPRINT>  (1) 
10149128 111 10087640411895406034
10857977 72 17203613708927671981
11769659 78 18409163337555637310
12897270 3 13407074820760312348
12932764 1 18335145263094255252
14144814 61 18343585135696994332
14390081 3 9583514317701510460
15375462 189 18409173199153938208
19422 9 18411707590646347804
20201158 50 17894914035847691586
20281407 28 18407477764919086948
20645464 45 15841555154137081372
22445834 79 18336550417278951226
22485316 2 18335136488328135984
23402539 116 18130220468312166813
23463225 33 18410296886931070566
23500284 5 18339083799638987731
23552423 10 18264492964922469309
3248919 1 17632298943206880556
581208 293 18186800314152965160

>  <PUBCHEM_SHAPE_MULTIPOLES>  (1) 
209.66
6.05
1.64
0.84
3.05
0.51
-0.05
2.03
-0.61
-0.18
-0.11
-0.07
0.03
-0.71

>  <PUBCHEM_SHAPE_SELFOVERLAP>  (1) 
417.224

>  <PUBCHEM_SHAPE_VOLUME>  (1) 
125.9

>  <PUBCHEM_COORDINATE_TYPE>  (1) 
2
5
10

$$$$
