33802
     RDKit          3D

 16 16  0  0  0  0  0  0  0  0999 V2000
    4.1837   -0.0178   -0.2330 N   0  0  0  0  0  0  0  0  0  0  0  0
   -3.7810   -0.0143   -0.1981 N   0  0  0  0  0  0  0  0  0  0  0  0
    2.6991    0.0282   -0.5646 C   0  0  0  0  0  0  0  0  0  0  0  0
    1.8722    0.0497    0.7165 C   0  0  0  0  0  0  0  0  0  0  0  0
    4.9914   -0.0357   -1.5228 C   0  0  0  0  0  0  0  0  0  0  0  0
    4.5591    1.2103    0.5838 C   0  0  0  0  0  0  0  0  0  0  0  0
    4.4852   -1.2738    0.5717 C   0  0  0  0  0  0  0  0  0  0  0  0
    0.3829    0.0328    0.4754 C   0  0  0  0  0  0  0  0  0  0  0  0
   -2.3535    0.0017    0.0327 C   0  0  0  0  0  0  0  0  0  0  0  0
   -4.1545    0.6765   -1.5406 C   0  0  0  0  0  0  0  0  0  0  0  0
   -4.5564    0.7089    0.9399 C   0  0  0  0  0  0  0  0  0  0  0  0
   -4.4219   -1.4355   -0.2829 C   0  0  0  0  0  0  0  0  0  0  0  0
   -0.2975    1.2327    0.3407 C   0  0  0  0  0  0  0  0  0  0  0  0
   -0.2787   -1.1826    0.3930 C   0  0  0  0  0  0  0  0  0  0  0  0
   -1.6744    1.2172    0.1181 C   0  0  0  0  0  0  0  0  0  0  0  0
   -1.6556   -1.1983    0.1702 C   0  0  0  0  0  0  0  0  0  0  0  0
  1  3  1  0
  1  5  1  0
  1  6  1  0
  1  7  1  0
  2  9  1  0
  2 10  1  0
  2 11  1  0
  2 12  1  0
  3  4  1  0
  4  8  1  0
  8 13  2  0
  8 14  1  0
  9 15  2  0
  9 16  1  0
 13 15  1  0
 14 16  2  0
M  CHG  2   1   1   2   1
M  END
>  <PUBCHEM_COMPOUND_CID>  (1) 
33802

>  <PUBCHEM_CONFORMER_RMSD>  (1) 
0.6

>  <PUBCHEM_CONFORMER_DIVERSEORDER>  (1) 
1
2

>  <PUBCHEM_MMFF94_PARTIAL_CHARGES>  (1) 
20
1 -1.01
10 0.5
11 0.5
12 0.5
13 -0.15
14 -0.15
15 -0.15
16 -0.15
2 -0.87
3 0.5
39 0.15
4 0.14
40 0.15
41 0.15
42 0.15
5 0.5
6 0.5
7 0.5
8 -0.14
9 0.36

>  <PUBCHEM_EFFECTIVE_ROTOR_COUNT>  (1) 
4

>  <PUBCHEM_PHARMACOPHORE_FEATURES>  (1) 
3
1 1 cation
1 2 cation
6 8 9 13 14 15 16 rings

>  <PUBCHEM_HEAVY_ATOM_COUNT>  (1) 
16

>  <PUBCHEM_ATOM_DEF_STEREO_COUNT>  (1) 
0

>  <PUBCHEM_ATOM_UDEF_STEREO_COUNT>  (1) 
0

>  <PUBCHEM_BOND_DEF_STEREO_COUNT>  (1) 
0

>  <PUBCHEM_BOND_UDEF_STEREO_COUNT>  (1) 
0

>  <PUBCHEM_ISOTOPIC_ATOM_COUNT>  (1) 
0

>  <PUBCHEM_COMPONENT_COUNT>  (1) 
1

>  <PUBCHEM_CACTVS_TAUTO_COUNT>  (1) 
1

>  <PUBCHEM_CONFORMER_ID>  (1) 
0000840A00000001

>  <PUBCHEM_MMFF94_ENERGY>  (1) 
69.3347

>  <PUBCHEM_FEATURE_SELFOVERLAP>  (1) 
15.223

>  <PUBCHEM_SHAPE_FINGERPRINT>  (1) 
10680689 15 17967814951124953889
11287383 113 18131069376501729986
11401426 45 18410569595942885457
12236239 1 17676200269745994018
13533116 47 18334573495879073602
13675066 3 17676488354165702616
13760787 5 18260828176760717851
14123238 8 17821449079557715998
14911166 2 18411130347120951629
14943859 89 18186518812784017243
15375358 24 18202846573689597622
17834072 33 18334293192916484518
18186145 218 18411412930014835817
200 152 16917071057497009618
20279233 1 18131918174178229938
20281475 54 18343297046328405147
20645476 183 17676205805447668339
20645477 56 17967810582990395420
20645477 70 18060424612452011878
20871999 31 18260546766335344423
22485316 2 18202280320774378854
23402539 116 18273211976103188965
23402655 69 18187079520769784740
23557571 272 17560253409458498012
23559900 14 18341612642492242696
26918003 58 13470688126847288446
2838139 119 15141778662789376239
3545911 37 18186806889790041394
4990 188 18131353003220262422
5104073 3 18342175583117453354
5374978 207 18412538813147783552
542803 24 17704356575941478360
633830 44 18060134340696366045
69090 78 18273210911162289646

>  <PUBCHEM_SHAPE_MULTIPOLES>  (1) 
319.31
11.54
1.38
1.11
5.04
0.15
0.36
0.19
2.18
-0.32
-0.16
0.14
-0.13
-0.01

>  <PUBCHEM_SHAPE_SELFOVERLAP>  (1) 
629.429

>  <PUBCHEM_SHAPE_VOLUME>  (1) 
195.1

>  <PUBCHEM_COORDINATE_TYPE>  (1) 
2
5
10

$$$$
