33809
     RDKit          3D

 13 13  0  0  0  0  0  0  0  0999 V2000
   -1.6661    0.4767    0.2425 N   0  0  0  0  0  0  0  0  0  0  0  0
    0.3130   -0.7675    0.0571 N   0  0  0  0  0  0  0  0  0  0  0  0
    0.3701    1.6311    0.0993 N   0  0  0  0  0  0  0  0  0  0  0  0
    2.4123    0.3855   -0.0896 N   0  0  0  0  0  0  0  0  0  0  0  0
    2.3255   -1.9576   -0.1265 N   0  0  0  0  0  0  0  0  0  0  0  0
   -2.4941   -0.6966    0.2865 C   0  0  0  0  0  0  0  0  0  0  0  0
   -3.9760   -0.3575    0.3938 C   0  0  0  0  0  0  0  0  0  0  0  0
   -0.2814    0.4457    0.1286 C   0  0  0  0  0  0  0  0  0  0  0  0
   -4.4812    0.4531   -0.7912 C   0  0  0  0  0  0  0  0  0  0  0  0
    1.6507   -0.7197   -0.0499 C   0  0  0  0  0  0  0  0  0  0  0  0
    1.7040    1.5236   -0.0104 C   0  0  0  0  0  0  0  0  0  0  0  0
    2.4776    2.7975   -0.0460 C   0  0  0  0  0  0  0  0  0  0  0  0
    1.6454   -3.2144   -0.0944 C   0  0  0  0  0  0  0  0  0  0  0  0
  1  6  1  0
  1  8  1  0
  2  8  2  0
  2 10  1  0
  3  8  1  0
  3 11  2  0
  4 10  2  0
  4 11  1  0
  5 10  1  0
  5 13  1  0
  6  7  1  0
  7  9  1  0
 11 12  1  0
M  END
>  <PUBCHEM_COMPOUND_CID>  (1) 
33809

>  <PUBCHEM_CONFORMER_RMSD>  (1) 
0.6

>  <PUBCHEM_CONFORMER_DIVERSEORDER>  (1) 
1
13
10
14
21
20
11
18
22
8
19
12
17
23
2
3
7
15
6
4
16
9
5

>  <PUBCHEM_MMFF94_PARTIAL_CHARGES>  (1) 
13
1 -0.87
10 0.72
11 0.48
12 0.14
13 0.37
18 0.4
2 -0.62
22 0.4
3 -0.62
4 -0.62
5 -0.87
6 0.37
8 0.72

>  <PUBCHEM_EFFECTIVE_ROTOR_COUNT>  (1) 
4

>  <PUBCHEM_PHARMACOPHORE_FEATURES>  (1) 
6
1 1 donor
1 5 donor
1 9 hydrophobe
4 1 2 3 8 cation
4 2 4 5 10 cation
6 2 3 4 8 10 11 rings

>  <PUBCHEM_HEAVY_ATOM_COUNT>  (1) 
13

>  <PUBCHEM_ATOM_DEF_STEREO_COUNT>  (1) 
0

>  <PUBCHEM_ATOM_UDEF_STEREO_COUNT>  (1) 
0

>  <PUBCHEM_BOND_DEF_STEREO_COUNT>  (1) 
0

>  <PUBCHEM_BOND_UDEF_STEREO_COUNT>  (1) 
0

>  <PUBCHEM_ISOTOPIC_ATOM_COUNT>  (1) 
0

>  <PUBCHEM_COMPONENT_COUNT>  (1) 
1

>  <PUBCHEM_CACTVS_TAUTO_COUNT>  (1) 
9

>  <PUBCHEM_CONFORMER_ID>  (1) 
0000841100000001

>  <PUBCHEM_MMFF94_ENERGY>  (1) 
30.7193

>  <PUBCHEM_FEATURE_SELFOVERLAP>  (1) 
30.488

>  <PUBCHEM_SHAPE_FINGERPRINT>  (1) 
1 1 18338518659151719748
10608611 8 18333728044377800581
10980938 120 18339079392875726857
11471102 20 18410572894298472773
12346645 6 18410854399376929636
13380535 76 18263361571615045346
14251717 144 18412260644805481343
14415576 193 18261675986146613421
15219456 202 18260827133416136573
15442244 35 18124882261553810073
15477762 27 18411981321565291911
16945 1 18411427210622644512
20201158 50 18408042896726528755
20645477 70 18409162204264805767
20671657 53 18196092140505621591
20871998 22 18125443012362734254
21499 59 18194680599435206501
2255824 54 18412831282618500238
22943178 12 18113621201206789963
23402655 69 18341889715043462325
23530152 11 18195251250423076142
23557571 272 17385723617266749927
257057 1 17977381629804648018
2748010 2 18048897469573644978
3060560 45 18410578430880543892
3071541 37 18335146431383232708
33824 294 18337672018029285363
54173680 148 17545884824060486266
581208 293 18341326785984342681
58779409 8 17905340867933249742
7364860 26 18412263930439404706
81228 2 17474949827125807442
81539 233 18262799691245747572

>  <PUBCHEM_SHAPE_MULTIPOLES>  (1) 
242.63
6.3
2.93
0.66
9.12
1.26
-0.03
-0.83
-0.69
-4
-0.15
0.32
-0.02
0.3

>  <PUBCHEM_SHAPE_SELFOVERLAP>  (1) 
478.867

>  <PUBCHEM_SHAPE_VOLUME>  (1) 
137.6

>  <PUBCHEM_COORDINATE_TYPE>  (1) 
2
5
10

$$$$
