33806
     RDKit          3D

 15 16  0  0  0  0  0  0  0  0999 V2000
   -1.0180   -1.2011    0.0015 O   0  0  0  0  0  0  0  0  0  0  0  0
   -4.0649    0.5091   -0.0022 O   0  0  0  0  0  0  0  0  0  0  0  0
   -3.5917   -1.6346    0.0007 O   0  0  0  0  0  0  0  0  0  0  0  0
   -3.2121   -0.4267    0.0000 N   0  0  0  0  0  0  0  0  0  0  0  0
    0.2427    0.6734    0.0001 C   0  0  0  0  0  0  0  0  0  0  0  0
    0.2561   -0.7176    0.0004 C   0  0  0  0  0  0  0  0  0  0  0  0
   -1.1272    1.0462    0.0005 C   0  0  0  0  0  0  0  0  0  0  0  0
    2.6567    0.6088   -0.0003 C   0  0  0  0  0  0  0  0  0  0  0  0
    2.6276   -0.7881   -0.0010 C   0  0  0  0  0  0  0  0  0  0  0  0
    1.4712    1.3567    0.0000 C   0  0  0  0  0  0  0  0  0  0  0  0
    1.4175   -1.4882   -0.0004 C   0  0  0  0  0  0  0  0  0  0  0  0
   -1.8480   -0.1256    0.0012 C   0  0  0  0  0  0  0  0  0  0  0  0
   -1.6703    2.4186   -0.0006 C   0  0  0  0  0  0  0  0  0  0  0  0
    3.9599    1.3425    0.0015 C   0  0  0  0  0  0  0  0  0  0  0  0
    3.9006   -1.5733   -0.0013 C   0  0  0  0  0  0  0  0  0  0  0  0
  1  6  1  0
  1 12  1  0
  2  4  1  0
  3  4  2  0
  4 12  1  0
  5  6  2  0
  5  7  1  0
  5 10  1  0
  6 11  1  0
  7 12  2  0
  7 13  1  0
  8  9  1  0
  8 10  2  0
  8 14  1  0
  9 11  2  0
  9 15  1  0
M  CHG  2   2  -1   4   1
M  END
>  <PUBCHEM_COMPOUND_CID>  (1) 
33806

>  <PUBCHEM_CONFORMER_RMSD>  (1) 
0.4

>  <PUBCHEM_CONFORMER_DIVERSEORDER>  (1) 
1

>  <PUBCHEM_MMFF94_PARTIAL_CHARGES>  (1) 
16
1 -0.28
10 -0.15
11 -0.15
12 0.22
13 0.18
14 0.14
15 0.14
16 0.15
17 0.15
2 -0.52
3 -0.52
4 0.96
6 0.14
7 -0.18
8 -0.14
9 -0.14

>  <PUBCHEM_EFFECTIVE_ROTOR_COUNT>  (1) 
1

>  <PUBCHEM_PHARMACOPHORE_FEATURES>  (1) 
6
1 1 acceptor
1 2 acceptor
1 2 anion
1 3 acceptor
5 1 5 6 7 12 rings
6 5 6 8 9 10 11 rings

>  <PUBCHEM_HEAVY_ATOM_COUNT>  (1) 
15

>  <PUBCHEM_ATOM_DEF_STEREO_COUNT>  (1) 
0

>  <PUBCHEM_ATOM_UDEF_STEREO_COUNT>  (1) 
0

>  <PUBCHEM_BOND_DEF_STEREO_COUNT>  (1) 
0

>  <PUBCHEM_BOND_UDEF_STEREO_COUNT>  (1) 
0

>  <PUBCHEM_ISOTOPIC_ATOM_COUNT>  (1) 
0

>  <PUBCHEM_COMPONENT_COUNT>  (1) 
1

>  <PUBCHEM_CACTVS_TAUTO_COUNT>  (1) 
1

>  <PUBCHEM_CONFORMER_ID>  (1) 
0000840E00000001

>  <PUBCHEM_MMFF94_ENERGY>  (1) 
32.334

>  <PUBCHEM_FEATURE_SELFOVERLAP>  (1) 
30.641

>  <PUBCHEM_SHAPE_FINGERPRINT>  (1) 
10608611 8 18410570648157495724
10967382 1 18338516472986998624
11132069 177 18412821391313832587
11471102 20 18410569587168269717
11769659 78 18410289207350359498
12032990 46 18408890667541666219
13140716 1 17834670874744409768
13221675 6 18412544327321366734
13380535 76 18336547230740427506
14144814 61 18411983550621390784
14325111 11 18410856542676445060
14576447 43 17984690379968636351
15196674 1 18410575093289975751
15219456 202 18408599245093579069
15442244 35 18266178318926916818
15536298 74 18342176661591827174
15775835 57 18201158849084293996
16945 1 18338239374650592840
18186145 218 17822004307133792727
18522853 276 18341046333426093968
200 152 18059564772509441741
20510252 161 18343021073146947496
20645477 70 18413105039465354607
21267235 1 18338807727356640754
21501502 16 18338239267218531136
21501925 9 18337662041152397322
221490 88 18409174302934548978
2334 1 18410855434701528724
23402539 116 18338788009298577868
23402655 69 18413384328625192093
23463225 33 18409448064149560716
23559900 14 18411695461853856706
25610 137 18410014368261599501
2748010 2 18338794507784764564
3312278 4 18409731798284343929
335352 9 18266740173278640533
5104073 3 18411138034663993475
528886 8 18339637957625243634
53812653 166 18200307857418432472
57096353 35 18338517546528363148
7364860 26 18342738525182331672
8809292 202 18260835890543476867
9709674 26 18409735075249938794

>  <PUBCHEM_SHAPE_MULTIPOLES>  (1) 
286.1
6.74
2.06
0.59
0.77
0.42
0
-0.99
0
-0.06
0
-0.08
0.02
0

>  <PUBCHEM_SHAPE_SELFOVERLAP>  (1) 
622.7

>  <PUBCHEM_SHAPE_VOLUME>  (1) 
159.1

>  <PUBCHEM_COORDINATE_TYPE>  (1) 
2
5
10

$$$$
