33811
     RDKit          3D

 14 14  0  0  0  0  0  0  0  0999 V2000
    1.0420    0.9058    0.0503 N   0  0  0  0  0  0  0  0  0  0  0  0
   -0.6857   -0.6794    0.0182 N   0  0  0  0  0  0  0  0  0  0  0  0
   -1.1747    1.6698    0.0091 N   0  0  0  0  0  0  0  0  0  0  0  0
   -2.9642    0.0716   -0.0258 N   0  0  0  0  0  0  0  0  0  0  0  0
   -2.4557   -2.2176   -0.0183 N   0  0  0  0  0  0  0  0  0  0  0  0
    3.4575    0.5318    0.0315 C   0  0  0  0  0  0  0  0  0  0  0  0
    2.0711   -0.1057    0.0700 C   0  0  0  0  0  0  0  0  0  0  0  0
    4.5831   -0.5052    0.0036 C   0  0  0  0  0  0  0  0  0  0  0  0
    5.9474    0.1589   -0.1009 C   0  0  0  0  0  0  0  0  0  0  0  0
   -0.3148    0.6232    0.0257 C   0  0  0  0  0  0  0  0  0  0  0  0
   -2.0136   -0.8766   -0.0075 C   0  0  0  0  0  0  0  0  0  0  0  0
   -2.4709    1.3205   -0.0160 C   0  0  0  0  0  0  0  0  0  0  0  0
   -3.4635    2.4327   -0.0370 C   0  0  0  0  0  0  0  0  0  0  0  0
   -1.5581   -3.3298   -0.0029 C   0  0  0  0  0  0  0  0  0  0  0  0
  1  7  1  0
  1 10  1  0
  2 10  2  0
  2 11  1  0
  3 10  1  0
  3 12  2  0
  4 11  2  0
  4 12  1  0
  5 11  1  0
  5 14  1  0
  6  7  1  0
  6  8  1  0
  8  9  1  0
 12 13  1  0
M  END
>  <PUBCHEM_COMPOUND_CID>  (1) 
33811

>  <PUBCHEM_CONFORMER_RMSD>  (1) 
0.6

>  <PUBCHEM_CONFORMER_DIVERSEORDER>  (1) 
1
74
78
5
32
69
7
38
4
63
21
49
61
3
34
60
45
70
65
56
41
28
39
40
77
59
16
15
44
36
75
66
54
43
31
71
55
20
52
76
30
50
26
29
72
51
48
25
2
11
53
57
17
8
12
6
47
64
13
62
58
73
68
35
14
46
9
42
22
19
67
10
18
27
24
33
23
37

>  <PUBCHEM_MMFF94_PARTIAL_CHARGES>  (1) 
13
1 -0.87
10 0.72
11 0.72
12 0.48
13 0.14
14 0.37
2 -0.62
21 0.4
28 0.4
3 -0.62
4 -0.62
5 -0.87
7 0.37

>  <PUBCHEM_EFFECTIVE_ROTOR_COUNT>  (1) 
5

>  <PUBCHEM_PHARMACOPHORE_FEATURES>  (1) 
6
1 1 donor
1 5 donor
1 9 hydrophobe
4 1 2 3 10 cation
4 2 4 5 11 cation
6 2 3 4 10 11 12 rings

>  <PUBCHEM_HEAVY_ATOM_COUNT>  (1) 
14

>  <PUBCHEM_ATOM_DEF_STEREO_COUNT>  (1) 
0

>  <PUBCHEM_ATOM_UDEF_STEREO_COUNT>  (1) 
0

>  <PUBCHEM_BOND_DEF_STEREO_COUNT>  (1) 
0

>  <PUBCHEM_BOND_UDEF_STEREO_COUNT>  (1) 
0

>  <PUBCHEM_ISOTOPIC_ATOM_COUNT>  (1) 
0

>  <PUBCHEM_COMPONENT_COUNT>  (1) 
1

>  <PUBCHEM_CACTVS_TAUTO_COUNT>  (1) 
9

>  <PUBCHEM_CONFORMER_ID>  (1) 
0000841300000001

>  <PUBCHEM_MMFF94_ENERGY>  (1) 
30.3677

>  <PUBCHEM_FEATURE_SELFOVERLAP>  (1) 
30.488

>  <PUBCHEM_SHAPE_FINGERPRINT>  (1) 
10014705 185 18333167254608423308
10616163 171 18410576219141775630
10680689 15 18408893953449863824
12500047 106 18411695457247808888
12757275 245 18410293653016128694
13167823 11 18260265244662600442
14508225 48 18267007544194908453
14965852 173 18410855507641983304
15042514 8 18337115691306032539
167882 2 17831009135888229335
20279233 1 17917435302533647692
20524608 308 18412261744322292923
20645477 56 18410858720024650936
20645477 70 16773239466691919212
20871998 184 18200879590268750751
21339142 51 18342454846170493216
21426921 1 18410293644114749886
22485316 2 18409165498699504344
23402539 116 18342731936618084557
23557571 272 18272660060385000868
23559900 14 18271524205228937776
23598291 2 17895482534940901740
3071541 12 17330836816867778957
366044 4 18337953377205370265
4214541 1 18410856556015001604
559249 180 18262232214919204682
573450 72 18261381240247991786
58051976 100 18408886248241572652
7062679 117 18337393846478264454
77779 3 18411139152157492124
9709674 26 18272093786132362286

>  <PUBCHEM_SHAPE_MULTIPOLES>  (1) 
263.21
9.23
2.72
0.59
17.06
2.16
0
-1.83
0.27
-4.25
0.02
0.05
0
0.01

>  <PUBCHEM_SHAPE_SELFOVERLAP>  (1) 
516.035

>  <PUBCHEM_SHAPE_VOLUME>  (1) 
149.6

>  <PUBCHEM_COORDINATE_TYPE>  (1) 
2
5
10

$$$$
