33815
     RDKit          3D

 15 15  0  0  1  0  0  0  0  0999 V2000
    1.8531   -0.4846   -0.2358 N   0  0  0  0  0  0  0  0  0  0  0  0
   -0.3434    0.3096   -0.0279 N   0  0  0  0  0  0  0  0  0  0  0  0
    0.1053   -2.0449   -0.1385 N   0  0  0  0  0  0  0  0  0  0  0  0
   -2.5607    1.0440    0.1834 N   0  0  0  0  0  0  0  0  0  0  0  0
   -2.1530   -1.2628    0.0760 N   0  0  0  0  0  0  0  0  0  0  0  0
    2.4340    0.8377   -0.2443 C   0  0  0  0  0  0  0  0  0  0  0  0
    3.9195    0.7981    0.1370 C   0  0  0  0  0  0  0  0  0  0  0  0
    2.2436    1.4741   -1.6172 C   0  0  0  0  0  0  0  0  0  0  0  0
    4.1592    0.1690    1.5034 C   0  0  0  0  0  0  0  0  0  0  0  0
    0.4664   -0.7538   -0.1291 C   0  0  0  0  0  0  0  0  0  0  0  0
   -1.6410   -0.0215    0.0710 C   0  0  0  0  0  0  0  0  0  0  0  0
   -1.2212   -2.2237   -0.0323 C   0  0  0  0  0  0  0  0  0  0  0  0
   -2.1776    2.4514    0.1947 C   0  0  0  0  0  0  0  0  0  0  0  0
   -3.3752    3.3397    0.2924 C   0  0  0  0  0  0  0  0  0  0  0  0
   -1.7090   -3.6325   -0.0329 C   0  0  0  0  0  0  0  0  0  0  0  0
  1  6  1  0
  1 10  1  0
  2 10  2  0
  2 11  1  0
  3 10  1  0
  3 12  2  0
  4 11  1  0
  4 13  1  0
  5 11  2  0
  5 12  1  0
  6  7  1  0
  6  8  1  0
  7  9  1  0
 12 15  1  0
 13 14  1  0
M  END
>  <PUBCHEM_COMPOUND_CID>  (1) 
33815

>  <PUBCHEM_CONFORMER_RMSD>  (1) 
0.6

>  <PUBCHEM_CONFORMER_DIVERSEORDER>  (1) 
1
138
16
120
92
149
78
223
30
214
199
140
65
191
203
99
188
102
47
107
204
117
176
31
195
227
86
213
72
196
222
212
170
189
59
136
211
49
216
226
130
34
134
10
94
55
113
41
164
206
29
22
125
38
127
172
181
205
220
197
165
18
147
175
215
137
80
48
54
217
155
69
23
174
161
75
198
169
221
231
118
194
210
135
229
143
68
100
20
27
116
168
151
109
159
108
21
184
218
63
67
93
228
66
219
178
79
152
60
13
193
180
201
4
106
150
157
64
14
232
190
166
208
163
177
225
129
98
119
114
44
7
88
42
133
3
126
56
141
110
160
28
105
158
173
71
97
5
122
103
182
167
185
82
81
35
192
77
87
104
89
85
11
207
224
6
61
95
156
32
148
142
146
183
83
45
111
101
139
171
162
123
90
200
33
53
186
115
154
124
26
153
230
15
70
131
144
57
209
84
37
132
187
96
24
46
112
52
179
43
12
17
121
58
25
128
51
39
145
36
50
76
91
73
202
74
62
8
40
9
19
2

>  <PUBCHEM_MMFF94_PARTIAL_CHARGES>  (1) 
13
1 -0.87
10 0.72
11 0.72
12 0.48
13 0.37
15 0.14
19 0.4
2 -0.62
28 0.4
3 -0.62
4 -0.87
5 -0.62
6 0.37

>  <PUBCHEM_EFFECTIVE_ROTOR_COUNT>  (1) 
5

>  <PUBCHEM_PHARMACOPHORE_FEATURES>  (1) 
6
1 1 donor
1 4 donor
1 9 hydrophobe
4 1 2 3 10 cation
4 2 4 5 11 cation
6 2 3 5 10 11 12 rings

>  <PUBCHEM_HEAVY_ATOM_COUNT>  (1) 
15

>  <PUBCHEM_ATOM_DEF_STEREO_COUNT>  (1) 
0

>  <PUBCHEM_ATOM_UDEF_STEREO_COUNT>  (1) 
1

>  <PUBCHEM_BOND_DEF_STEREO_COUNT>  (1) 
0

>  <PUBCHEM_BOND_UDEF_STEREO_COUNT>  (1) 
0

>  <PUBCHEM_ISOTOPIC_ATOM_COUNT>  (1) 
0

>  <PUBCHEM_COMPONENT_COUNT>  (1) 
1

>  <PUBCHEM_CACTVS_TAUTO_COUNT>  (1) 
9

>  <PUBCHEM_CONFORMER_ID>  (1) 
0000841700000001

>  <PUBCHEM_MMFF94_ENERGY>  (1) 
33.8296

>  <PUBCHEM_FEATURE_SELFOVERLAP>  (1) 
30.49

>  <PUBCHEM_SHAPE_FINGERPRINT>  (1) 
1 1 17978514126770428613
11357001 24 18336264664515106243
11725454 13 17129833116166704616
12500047 106 18341610391665765328
13140716 1 18049726509883593115
13955234 65 17618792358341834169
14178000 22 18339632343929122249
14178342 30 18336253622665943042
15042514 8 18337677545784401979
15842332 3 17895761815384645540
16945 1 18339652255360557359
1741750 31 18342176613820043305
20510252 161 18343307001956875033
20671657 1 17693382135900083789
212916 134 18198041613334409904
21524375 3 18260830345840735897
21650355 55 18050840314941289354
2306618 200 17969480762279709967
23402539 116 18270951462265162111
23557571 272 18059585731870965260
23558518 356 18335424543200584099
23559900 14 18130233666935987068
23598291 2 17968945309413649876
2748010 2 18193856859199284967
305870 269 18265332794158206896
3071541 12 17764593114405740639
3091708 16 9126537498357448771
6992083 37 18113329817392393860
7364860 26 17691689983025190413
7615 1 17968655059639606724
81228 2 18198358440202673291
84936 182 17697310724894864393
88987 49 18339654416203854652
90316 7 18123755515253489123

>  <PUBCHEM_SHAPE_MULTIPOLES>  (1) 
283.79
6.26
3.84
0.96
5.23
0.99
0.07
-4.18
-1.67
-5.59
-0.02
1.08
-0.33
-0.7

>  <PUBCHEM_SHAPE_SELFOVERLAP>  (1) 
557.443

>  <PUBCHEM_SHAPE_VOLUME>  (1) 
162.8

>  <PUBCHEM_COORDINATE_TYPE>  (1) 
2
5
10

$$$$
