33817
     RDKit          3D

 16 16  0  0  0  0  0  0  0  0999 V2000
   -0.8111    1.2062    0.0476 N   0  0  0  0  0  0  0  0  0  0  0  0
    0.9994   -0.2838    0.0195 N   0  0  0  0  0  0  0  0  0  0  0  0
    1.3612    2.0882    0.0000 N   0  0  0  0  0  0  0  0  0  0  0  0
    2.8497   -1.7245   -0.0062 N   0  0  0  0  0  0  0  0  0  0  0  0
    3.2342    0.5885   -0.0277 N   0  0  0  0  0  0  0  0  0  0  0  0
   -3.2029    0.7030    0.0338 C   0  0  0  0  0  0  0  0  0  0  0  0
   -4.2725   -0.3933    0.0099 C   0  0  0  0  0  0  0  0  0  0  0  0
   -1.7842    0.1409    0.0719 C   0  0  0  0  0  0  0  0  0  0  0  0
   -5.6790    0.2057   -0.0164 C   0  0  0  0  0  0  0  0  0  0  0  0
   -6.7447   -0.8769   -0.0811 C   0  0  0  0  0  0  0  0  0  0  0  0
    0.5588    0.9970    0.0210 C   0  0  0  0  0  0  0  0  0  0  0  0
    2.3361   -0.4094   -0.0055 C   0  0  0  0  0  0  0  0  0  0  0  0
    2.0133   -2.8835    0.0159 C   0  0  0  0  0  0  0  0  0  0  0  0
    2.6744    1.8091   -0.0235 C   0  0  0  0  0  0  0  0  0  0  0  0
    2.8615   -4.1404   -0.0136 C   0  0  0  0  0  0  0  0  0  0  0  0
    3.6058    2.9731   -0.0455 C   0  0  0  0  0  0  0  0  0  0  0  0
  1  8  1  0
  1 11  1  0
  2 11  2  0
  2 12  1  0
  3 11  1  0
  3 14  2  0
  4 12  1  0
  4 13  1  0
  5 12  2  0
  5 14  1  0
  6  7  1  0
  6  8  1  0
  7  9  1  0
  9 10  1  0
 13 15  1  0
 14 16  1  0
M  END
>  <PUBCHEM_COMPOUND_CID>  (1) 
33817

>  <PUBCHEM_CONFORMER_RMSD>  (1) 
0.8

>  <PUBCHEM_CONFORMER_DIVERSEORDER>  (1) 
1
85
65
115
105
94
113
47
6
107
78
112
118
36
69
14
24
121
116
38
62
117
44
77
21
122
11
33
30
103
23
7
9
104
81
42
54
71
63
27
66
106
57
10
70
75
39
84
68
55
86
13
79
100
96
108
67
56
26
37
89
58
17
95
49
93
92
35
12
2
91
60
110
51
34
61
80
3
102
74
4
20
46
40
76
120
59
18
98
16
43
101
72
48
8
64
73
124
99
22
123
97
109
29
50
5
114
90
41
88
111
32
25
82
15
52
53
31
19
83
119
45
87
28

>  <PUBCHEM_MMFF94_PARTIAL_CHARGES>  (1) 
13
1 -0.87
11 0.72
12 0.72
13 0.37
14 0.48
16 0.14
2 -0.62
25 0.4
3 -0.62
31 0.4
4 -0.87
5 -0.62
8 0.37

>  <PUBCHEM_EFFECTIVE_ROTOR_COUNT>  (1) 
7

>  <PUBCHEM_PHARMACOPHORE_FEATURES>  (1) 
6
1 1 donor
1 10 hydrophobe
1 4 donor
4 1 2 3 11 cation
4 2 4 5 12 cation
6 2 3 5 11 12 14 rings

>  <PUBCHEM_HEAVY_ATOM_COUNT>  (1) 
16

>  <PUBCHEM_ATOM_DEF_STEREO_COUNT>  (1) 
0

>  <PUBCHEM_ATOM_UDEF_STEREO_COUNT>  (1) 
0

>  <PUBCHEM_BOND_DEF_STEREO_COUNT>  (1) 
0

>  <PUBCHEM_BOND_UDEF_STEREO_COUNT>  (1) 
0

>  <PUBCHEM_ISOTOPIC_ATOM_COUNT>  (1) 
0

>  <PUBCHEM_COMPONENT_COUNT>  (1) 
1

>  <PUBCHEM_CACTVS_TAUTO_COUNT>  (1) 
9

>  <PUBCHEM_CONFORMER_ID>  (1) 
0000841900000001

>  <PUBCHEM_MMFF94_ENERGY>  (1) 
28.3367

>  <PUBCHEM_FEATURE_SELFOVERLAP>  (1) 
30.489

>  <PUBCHEM_SHAPE_FINGERPRINT>  (1) 
10411042 1 18050286973136027818
10912923 1 17917716808091977161
114674 6 18187647964055599459
12107183 9 17910403779988296705
12730499 353 18336554922789231091
13073987 5 18413394237874425233
13167823 11 18272088306049153647
13533116 47 18343019991637777275
13836976 161 18261397792751471524
13955234 65 18413106177620638555
15442244 35 18124600786260705225
15477762 27 18338235964351646810
17492 89 18339642227208026507
17834072 33 18342455997896617461
17859628 70 18411420579056418071
19427546 62 18192432102425075885
20645477 70 18334855009241067963
21054139 6 18055624273059244935
21285901 2 17748821917343842445
220451 1 18059579139908256807
22224240 67 18199738297563103304
23530152 11 18193843863018461908
23532345 1 18409452526499554425
23557571 272 17312818256503254957
239999 70 18202010936083225214
3060560 45 18336272340085926924
33824 294 18409448111025033378
3421961 26 18339077086214694315
42630746 31 18341612650602454020
6025842 7 18410574015321730461
621550 34 18334286608747821325
7364860 26 18411418393429247664
77188 2 18122624955834332494
7970288 3 17977663109066789835
8272917 22 18411703200947230245
9709674 26 18334581209502985587

>  <PUBCHEM_SHAPE_MULTIPOLES>  (1) 
304.37
11.69
3.78
0.59
26.45
3.7
0
1.68
-0.29
-7.83
-0.04
0.05
0.01
-0.07

>  <PUBCHEM_SHAPE_SELFOVERLAP>  (1) 
591.723

>  <PUBCHEM_SHAPE_VOLUME>  (1) 
175.5

>  <PUBCHEM_COORDINATE_TYPE>  (1) 
2
5
10

$$$$
