33816
     RDKit          3D

 15 15  0  0  0  0  0  0  0  0999 V2000
   -1.9387    0.8326   -0.0010 N   0  0  0  0  0  0  0  0  0  0  0  0
    0.1508   -0.2319    0.0025 N   0  0  0  0  0  0  0  0  0  0  0  0
   -0.0072    2.1625   -0.0032 N   0  0  0  0  0  0  0  0  0  0  0  0
    2.2685   -1.2397    0.0092 N   0  0  0  0  0  0  0  0  0  0  0  0
    2.1454    1.1021    0.0020 N   0  0  0  0  0  0  0  0  0  0  0  0
   -2.6570   -0.4294   -0.0007 C   0  0  0  0  0  0  0  0  0  0  0  0
   -4.1609   -0.1413   -0.0026 C   0  0  0  0  0  0  0  0  0  0  0  0
   -2.2647   -1.2118   -1.2562 C   0  0  0  0  0  0  0  0  0  0  0  0
   -2.2739   -1.2151    1.2566 C   0  0  0  0  0  0  0  0  0  0  0  0
   -0.5605    0.9235   -0.0012 C   0  0  0  0  0  0  0  0  0  0  0  0
    1.4834   -0.0662    0.0036 C   0  0  0  0  0  0  0  0  0  0  0  0
    1.3356    2.1732   -0.0015 C   0  0  0  0  0  0  0  0  0  0  0  0
    1.7014   -2.5517    0.0116 C   0  0  0  0  0  0  0  0  0  0  0  0
    1.9942    3.5107   -0.0018 C   0  0  0  0  0  0  0  0  0  0  0  0
    2.7837   -3.6176   -0.0172 C   0  0  0  0  0  0  0  0  0  0  0  0
  1  6  1  0
  1 10  1  0
  2 10  2  0
  2 11  1  0
  3 10  1  0
  3 12  2  0
  4 11  1  0
  4 13  1  0
  5 11  2  0
  5 12  1  0
  6  7  1  0
  6  8  1  0
  6  9  1  0
 12 14  1  0
 13 15  1  0
M  END
>  <PUBCHEM_COMPOUND_CID>  (1) 
33816

>  <PUBCHEM_CONFORMER_RMSD>  (1) 
0.6

>  <PUBCHEM_CONFORMER_DIVERSEORDER>  (1) 
1
9
21
27
16
32
31
18
33
26
28
13
25
24
12
19
5
17
11
14
4
7
22
15
6
23
29
10
30
8
20
3
2

>  <PUBCHEM_MMFF94_PARTIAL_CHARGES>  (1) 
13
1 -0.87
10 0.72
11 0.72
12 0.48
13 0.37
14 0.14
2 -0.62
25 0.4
26 0.4
3 -0.62
4 -0.87
5 -0.62
6 0.37

>  <PUBCHEM_EFFECTIVE_ROTOR_COUNT>  (1) 
4

>  <PUBCHEM_PHARMACOPHORE_FEATURES>  (1) 
6
1 1 donor
1 4 donor
4 1 2 3 10 cation
4 2 4 5 11 cation
4 6 7 8 9 hydrophobe
6 2 3 5 10 11 12 rings

>  <PUBCHEM_HEAVY_ATOM_COUNT>  (1) 
15

>  <PUBCHEM_ATOM_DEF_STEREO_COUNT>  (1) 
0

>  <PUBCHEM_ATOM_UDEF_STEREO_COUNT>  (1) 
0

>  <PUBCHEM_BOND_DEF_STEREO_COUNT>  (1) 
0

>  <PUBCHEM_BOND_UDEF_STEREO_COUNT>  (1) 
0

>  <PUBCHEM_ISOTOPIC_ATOM_COUNT>  (1) 
0

>  <PUBCHEM_COMPONENT_COUNT>  (1) 
1

>  <PUBCHEM_CACTVS_TAUTO_COUNT>  (1) 
9

>  <PUBCHEM_CONFORMER_ID>  (1) 
0000841800000001

>  <PUBCHEM_MMFF94_ENERGY>  (1) 
45.774

>  <PUBCHEM_FEATURE_SELFOVERLAP>  (1) 
30.488

>  <PUBCHEM_SHAPE_FINGERPRINT>  (1) 
1 1 18266177421073199084
11357001 24 17616816526702664426
12553582 1 18268150859688142950
14817 1 13221990686914168022
15042514 8 17545606647476208347
15279307 12 18057605575901271127
15309172 13 17906177600239668889
15442244 35 18268714913864637377
15775835 57 17913497019350053917
16945 1 18410574032480721285
17841504 4 18410014290957527907
17990270 104 18409444769577380891
19591789 44 17977113679927813774
20201158 50 18334574672230224275
20645477 70 18335410322964358463
20871998 184 17623844626533945670
20871998 22 18267300941631456674
21160774 45 17040071511946453095
2255824 54 18339643450883081988
23526113 38 18187082823905850571
23530152 11 17977668941620665540
23552423 10 18341327898454621573
23598291 2 18059578044021651205
23728640 28 16823329693863520002
257057 1 18194675969502340958
2748010 2 18195796371903850820
3071541 236 17258477372333103072
3091708 16 9215157040318337424
33824 294 18120657091755565059
54173680 148 17689998929825760494
58779409 8 17615699861270836188
6338986 31 18267573611740821534
6992083 37 17840320916838103017
7364860 26 18411418436015021184
81228 2 17760921845117474600

>  <PUBCHEM_SHAPE_MULTIPOLES>  (1) 
283.79
5.22
3.98
0.82
4.19
0.46
0
1.84
0
-5.64
-0.01
0.53
0.27
0.01

>  <PUBCHEM_SHAPE_SELFOVERLAP>  (1) 
565.228

>  <PUBCHEM_SHAPE_VOLUME>  (1) 
161.4

>  <PUBCHEM_COORDINATE_TYPE>  (1) 
2
5
10

$$$$
