33828
     RDKit          3D

 14 14  0  0  0  0  0  0  0  0999 V2000
   -1.9976   -0.3646   -0.2354 N   0  0  0  0  0  0  0  0  0  0  0  0
    2.2800    1.5331    0.0737 N   0  0  0  0  0  0  0  0  0  0  0  0
    0.1287    0.6132   -0.0835 N   0  0  0  0  0  0  0  0  0  0  0  0
   -0.1272   -1.7726   -0.0997 N   0  0  0  0  0  0  0  0  0  0  0  0
    2.0614   -0.8017    0.0585 N   0  0  0  0  0  0  0  0  0  0  0  0
   -2.6666    0.9059   -0.2851 C   0  0  0  0  0  0  0  0  0  0  0  0
   -4.1811    0.7614   -0.3719 C   0  0  0  0  0  0  0  0  0  0  0  0
   -0.6193   -0.5129   -0.1369 C   0  0  0  0  0  0  0  0  0  0  0  0
    1.4496    0.3929    0.0127 C   0  0  0  0  0  0  0  0  0  0  0  0
   -4.7727    0.0365    0.8287 C   0  0  0  0  0  0  0  0  0  0  0  0
    1.2105   -1.8386   -0.0024 C   0  0  0  0  0  0  0  0  0  0  0  0
    3.7173    1.3877    0.1802 C   0  0  0  0  0  0  0  0  0  0  0  0
    1.7051    2.8616    0.0164 C   0  0  0  0  0  0  0  0  0  0  0  0
    1.8119   -3.2018    0.0447 C   0  0  0  0  0  0  0  0  0  0  0  0
  1  6  1  0
  1  8  1  0
  2  9  1  0
  2 12  1  0
  2 13  1  0
  3  8  2  0
  3  9  1  0
  4  8  1  0
  4 11  2  0
  5  9  2  0
  5 11  1  0
  6  7  1  0
  7 10  1  0
 11 14  1  0
M  END
>  <PUBCHEM_COMPOUND_CID>  (1) 
33828

>  <PUBCHEM_CONFORMER_RMSD>  (1) 
0.6

>  <PUBCHEM_CONFORMER_DIVERSEORDER>  (1) 
1
27
11
29
12
14
25
31
18
19
5
16
22
20
10
8
7
30
15
9
28
23
21
6
2
17
26
24
13
3
4

>  <PUBCHEM_MMFF94_PARTIAL_CHARGES>  (1) 
13
1 -0.87
11 0.48
12 0.37
13 0.37
14 0.14
19 0.4
2 -0.84
3 -0.62
4 -0.62
5 -0.62
6 0.37
8 0.72
9 0.72

>  <PUBCHEM_EFFECTIVE_ROTOR_COUNT>  (1) 
4

>  <PUBCHEM_PHARMACOPHORE_FEATURES>  (1) 
5
1 1 donor
1 10 hydrophobe
4 1 3 4 8 cation
4 2 3 5 9 cation
6 3 4 5 8 9 11 rings

>  <PUBCHEM_HEAVY_ATOM_COUNT>  (1) 
14

>  <PUBCHEM_ATOM_DEF_STEREO_COUNT>  (1) 
0

>  <PUBCHEM_ATOM_UDEF_STEREO_COUNT>  (1) 
0

>  <PUBCHEM_BOND_DEF_STEREO_COUNT>  (1) 
0

>  <PUBCHEM_BOND_UDEF_STEREO_COUNT>  (1) 
0

>  <PUBCHEM_ISOTOPIC_ATOM_COUNT>  (1) 
0

>  <PUBCHEM_COMPONENT_COUNT>  (1) 
1

>  <PUBCHEM_CACTVS_TAUTO_COUNT>  (1) 
4

>  <PUBCHEM_CONFORMER_ID>  (1) 
0000842400000001

>  <PUBCHEM_MMFF94_ENERGY>  (1) 
39.193

>  <PUBCHEM_FEATURE_SELFOVERLAP>  (1) 
25.414

>  <PUBCHEM_SHAPE_FINGERPRINT>  (1) 
1 1 18410852187600459356
10465860 228 18341335504863055105
10608611 8 18334290921364133765
10980938 120 18410852153177527669
11471102 20 18411132520073820557
12346645 6 18411134723196734629
12644460 14 18335987480078680210
13380535 76 18335697286270878995
15219456 202 18333452023977452547
15442244 35 18053102818087529377
15501101 241 18187931616796292197
15775835 57 18272651285561060717
18186145 218 18272374187134964725
193761 8 17834672700237365972
20339313 130 18126286341891479007
20559304 39 18340768135171930401
20645477 70 18338506431838959095
20671657 1 18413671292306258815
20871998 22 17910391680416888670
21041028 32 18124029035818762048
212916 134 18056455456921980976
21499 59 18338508754925616717
21524375 3 18199184164591802501
21639500 275 18339061744987054741
221490 88 18264213521776383003
22854114 111 18411700980676023805
22943178 12 18041278764995625093
23532345 1 18409444800306959029
23557571 272 13470107581098553881
23558518 356 17685769525548191544
23598291 2 17988349382903697159
25 1 18410291432317459788
2748010 2 18265621059831757342
3060560 45 18412262848265986540
3071541 250 18124321506180958006
3071541 37 18335707126383722198
3091708 16 9548193601918441858
449060 62 18342459244517359801
7364860 26 18340204098681531918
81228 2 17256792920250025994
81539 233 18333167279971506022

>  <PUBCHEM_SHAPE_MULTIPOLES>  (1) 
263.21
6.96
2.98
0.67
9.04
1.01
0.04
-2.64
0.95
-3.61
0.03
0.32
-0.02
0.22

>  <PUBCHEM_SHAPE_SELFOVERLAP>  (1) 
519.488

>  <PUBCHEM_SHAPE_VOLUME>  (1) 
150.9

>  <PUBCHEM_COORDINATE_TYPE>  (1) 
2
5
10

$$$$
