33824
     RDKit          3D

 18 18  0  0  0  0  0  0  0  0999 V2000
    0.4633   -1.3774   -0.0840 N   0  0  0  0  0  0  0  0  0  0  0  0
   -3.2554    1.4705    0.1524 N   0  0  0  0  0  0  0  0  0  0  0  0
   -1.3768    0.0717    0.0360 N   0  0  0  0  0  0  0  0  0  0  0  0
   -1.6892   -2.3065   -0.0300 N   0  0  0  0  0  0  0  0  0  0  0  0
   -3.5918   -0.8495    0.0908 N   0  0  0  0  0  0  0  0  0  0  0  0
    3.8918    0.2934   -0.0499 C   0  0  0  0  0  0  0  0  0  0  0  0
    2.8441   -0.8245   -0.0959 C   0  0  0  0  0  0  0  0  0  0  0  0
    5.3097   -0.2814    0.0045 C   0  0  0  0  0  0  0  0  0  0  0  0
    1.4137   -0.2916   -0.0850 C   0  0  0  0  0  0  0  0  0  0  0  0
    6.3971    0.7923    0.0829 C   0  0  0  0  0  0  0  0  0  0  0  0
    7.8030    0.2256    0.2081 C   0  0  0  0  0  0  0  0  0  0  0  0
   -2.4435    2.6469    0.1615 C   0  0  0  0  0  0  0  0  0  0  0  0
   -0.9099   -1.1985   -0.0235 C   0  0  0  0  0  0  0  0  0  0  0  0
   -2.7150    0.1676    0.0906 C   0  0  0  0  0  0  0  0  0  0  0  0
   -1.9772    2.9542   -1.2557 C   0  0  0  0  0  0  0  0  0  0  0  0
   -3.2429    3.8039    0.7457 C   0  0  0  0  0  0  0  0  0  0  0  0
   -3.0071   -2.0567    0.0288 C   0  0  0  0  0  0  0  0  0  0  0  0
   -3.9139   -3.2400    0.0228 C   0  0  0  0  0  0  0  0  0  0  0  0
  1  9  1  0
  1 13  1  0
  2 12  1  0
  2 14  1  0
  3 13  2  0
  3 14  1  0
  4 13  1  0
  4 17  2  0
  5 14  2  0
  5 17  1  0
  6  7  1  0
  6  8  1  0
  7  9  1  0
  8 10  1  0
 10 11  1  0
 12 15  1  0
 12 16  1  0
 17 18  1  0
M  END
>  <PUBCHEM_COMPOUND_CID>  (1) 
33824

>  <PUBCHEM_CONFORMER_RMSD>  (1) 
0.8

>  <PUBCHEM_CONFORMER_DIVERSEORDER>  (1) 
1
296
164
209
98
150
374
272
6
317
269
140
120
141
347
228
227
386
50
395
143
211
392
340
190
45
118
201
313
147
11
343
255
407
181
281
351
115
282
275
345
214
287
325
265
131
235
375
225
405
259
258
26
97
208
415
328
322
178
75
155
370
170
277
264
68
130
273
177
377
202
145
332
3
206
260
168
117
2
91
127
266
204
385
46
159
263
279
330
327
311
221
305
270
283
207
67
126
381
285
242
200
93
88
61
224
352
90
371
368
105
101
199
307
316
334
223
186
333
342
121
128
72
100
137
157
243
276
182
149
185
142
60
125
188
267
196
191
152
110
167
308
337
294
304
389
42
96
414
10
84
399
151
83
70
66
388
244
413
183
216
241
291
161
48
77
387
213
41
16
284
363
346
400
354
81
252
53
106
336
271
135
289
47
38
35
299
124
99
376
132
262
394
382
220
39
349
396
111
367
15
119
82
58
309
23
303
359
166
28
104
134
32
56
113
402
22
350
239
7
71
184
315
43
136
233
278
379
62
138
286
158
109
129
222
40
107
192
33
338
112
358
169
341
89
162
384
274
417
364
69
80
160
240
27
133
369
253
229
144
411
295
348
116
172
256
37
383
353
231
372
257
14
24
86
215
393
103
94
268
362
102
146
331
49
34
114
180
288
51
218
344
193
154
261
173
366
320
74
321
30
361
410
57
76
251
92
249
64
300
230
197
312
319
329
378
212
187
398
203
156
108
310
171
21
306
380
78
339
302
301
355
31
250
5
236
248
4
217
318
280
195
73
360
175
139
314
29
148
52
298
290
416
13
409
418
226
373
79
18
44
179
397
165
9
246
408
403
326
205
356
245
406
65
176
297
85
401
293
404
55
174
8
292
12
391
25
17
198
63
189
238
210
95
390
237
163
365
247
323
20
219
122
254
324
335
153
54
19
234
194
59
87
232
357
123
412
36

>  <PUBCHEM_MMFF94_PARTIAL_CHARGES>  (1) 
13
1 -0.87
12 0.37
13 0.72
14 0.72
17 0.48
18 0.14
2 -0.87
29 0.4
3 -0.62
34 0.4
4 -0.62
5 -0.62
9 0.37

>  <PUBCHEM_EFFECTIVE_ROTOR_COUNT>  (1) 
8

>  <PUBCHEM_PHARMACOPHORE_FEATURES>  (1) 
8
1 1 donor
1 11 hydrophobe
1 2 donor
3 12 15 16 hydrophobe
4 1 3 4 13 cation
4 2 3 5 14 cation
4 6 7 8 10 hydrophobe
6 3 4 5 13 14 17 rings

>  <PUBCHEM_HEAVY_ATOM_COUNT>  (1) 
18

>  <PUBCHEM_ATOM_DEF_STEREO_COUNT>  (1) 
0

>  <PUBCHEM_ATOM_UDEF_STEREO_COUNT>  (1) 
0

>  <PUBCHEM_BOND_DEF_STEREO_COUNT>  (1) 
0

>  <PUBCHEM_BOND_UDEF_STEREO_COUNT>  (1) 
0

>  <PUBCHEM_ISOTOPIC_ATOM_COUNT>  (1) 
0

>  <PUBCHEM_COMPONENT_COUNT>  (1) 
1

>  <PUBCHEM_CACTVS_TAUTO_COUNT>  (1) 
9

>  <PUBCHEM_CONFORMER_ID>  (1) 
0000842000000001

>  <PUBCHEM_MMFF94_ENERGY>  (1) 
31.9994

>  <PUBCHEM_FEATURE_SELFOVERLAP>  (1) 
40.639

>  <PUBCHEM_SHAPE_FINGERPRINT>  (1) 
10087517 78 18334573569004202756
10411042 1 18123188176392558883
10493431 412 18196098742166209473
10595046 47 18334857260378937458
10912923 1 17894907439342193498
11101153 10 18192433189563725932
11315181 36 18113899411929273214
12107183 9 17903066743127941154
12390115 104 18127706941026946073
13073987 5 18408882932949345954
13403585 85 18341327877533874400
14251764 75 17695073201684885561
14508225 48 18268697493635183423
14598715 104 17917413364637720712
15778101 99 18341054017281069336
16087824 20 18411981348642870549
17844677 252 18410862101107788176
19433438 28 18200590414890250170
19489759 90 18408602591537831866
20645477 56 18341334409356023448
21236236 1 18410853253042674396
21304253 13 18270970171659544787
21315763 129 18411981403987068676
21426921 1 18411701001792183667
22182937 141 18342461387490087737
2297311 6 18340211898400378038
2306618 200 18273224101128195011
23402539 116 18337668723510054495
23557571 272 18201444657503794820
283562 15 18408601474688521163
4214541 1 18410856560283413264
441001 317 18412261723195629072
5104073 3 18261109618000371370
5969126 39 18200303442091949071
6327066 14 18190736423730725389
7062679 6 18334863810140922956
7808743 9 18338234860613942120

>  <PUBCHEM_SHAPE_MULTIPOLES>  (1) 
345.53
14.26
3.91
0.73
38.63
2.26
-0.09
1.55
1.29
-8.9
0.1
-0.25
0.42
-0.12

>  <PUBCHEM_SHAPE_SELFOVERLAP>  (1) 
670.682

>  <PUBCHEM_SHAPE_VOLUME>  (1) 
200.6

>  <PUBCHEM_COORDINATE_TYPE>  (1) 
2
5
10

$$$$
