33827
     RDKit          3D

 12 12  0  0  0  0  0  0  0  0999 V2000
   -2.0812    0.7482   -0.0036 N   0  0  0  0  0  0  0  0  0  0  0  0
    0.2599    0.8838   -0.0005 N   0  0  0  0  0  0  0  0  0  0  0  0
   -0.8465   -1.2454    0.0004 N   0  0  0  0  0  0  0  0  0  0  0  0
    1.5507   -1.1390    0.0019 N   0  0  0  0  0  0  0  0  0  0  0  0
    2.6041    0.9562   -0.0007 N   0  0  0  0  0  0  0  0  0  0  0  0
   -0.8434    0.1051   -0.0005 C   0  0  0  0  0  0  0  0  0  0  0  0
   -3.3225   -0.0153   -0.0058 C   0  0  0  0  0  0  0  0  0  0  0  0
   -2.1700    2.2028    0.0094 C   0  0  0  0  0  0  0  0  0  0  0  0
    1.4136    0.1968    0.0009 C   0  0  0  0  0  0  0  0  0  0  0  0
    0.3788   -1.7947    0.0016 C   0  0  0  0  0  0  0  0  0  0  0  0
    0.4449   -3.2840    0.0008 C   0  0  0  0  0  0  0  0  0  0  0  0
    2.6117    2.3855   -0.0037 C   0  0  0  0  0  0  0  0  0  0  0  0
  1  6  1  0
  1  7  1  0
  1  8  1  0
  2  6  2  0
  2  9  1  0
  3  6  1  0
  3 10  2  0
  4  9  2  0
  4 10  1  0
  5  9  1  0
  5 12  1  0
 10 11  1  0
M  END
>  <PUBCHEM_COMPOUND_CID>  (1) 
33827

>  <PUBCHEM_CONFORMER_RMSD>  (1) 
0.6

>  <PUBCHEM_CONFORMER_DIVERSEORDER>  (1) 
1
3
2
4

>  <PUBCHEM_MMFF94_PARTIAL_CHARGES>  (1) 
13
1 -0.84
10 0.48
11 0.14
12 0.37
19 0.4
2 -0.62
3 -0.62
4 -0.62
5 -0.87
6 0.72
7 0.37
8 0.37
9 0.72

>  <PUBCHEM_EFFECTIVE_ROTOR_COUNT>  (1) 
2

>  <PUBCHEM_PHARMACOPHORE_FEATURES>  (1) 
4
1 5 donor
4 1 2 3 6 cation
4 2 4 5 9 cation
6 2 3 4 6 9 10 rings

>  <PUBCHEM_HEAVY_ATOM_COUNT>  (1) 
12

>  <PUBCHEM_ATOM_DEF_STEREO_COUNT>  (1) 
0

>  <PUBCHEM_ATOM_UDEF_STEREO_COUNT>  (1) 
0

>  <PUBCHEM_BOND_DEF_STEREO_COUNT>  (1) 
0

>  <PUBCHEM_BOND_UDEF_STEREO_COUNT>  (1) 
0

>  <PUBCHEM_ISOTOPIC_ATOM_COUNT>  (1) 
0

>  <PUBCHEM_COMPONENT_COUNT>  (1) 
1

>  <PUBCHEM_CACTVS_TAUTO_COUNT>  (1) 
4

>  <PUBCHEM_CONFORMER_ID>  (1) 
0000842300000001

>  <PUBCHEM_MMFF94_ENERGY>  (1) 
41.293

>  <PUBCHEM_FEATURE_SELFOVERLAP>  (1) 
20.34

>  <PUBCHEM_SHAPE_FINGERPRINT>  (1) 
1 1 18410575046129809710
13380535 76 18341329015214768174
14325111 11 18410856568430489545
14648413 74 18120656825372419761
16945 1 18266458711387414823
17990270 104 18121779418122860843
193761 8 18266740169226324391
19973954 147 18194683657657584449
20645477 70 18267015073562669927
20871998 184 17623019301397063142
21040471 1 18338797917925260006
21524375 3 18343017830588673612
23402539 116 17911227639792036879
23526114 1 18051133596798648110
23552423 10 18267584602851860061
241688 4 17185878290066348890
2748010 2 18337121170998259527
7364860 26 18196371420511067535
81228 2 17763463220005324098

>  <PUBCHEM_SHAPE_MULTIPOLES>  (1) 
222.05
3.96
3.22
0.58
1.46
1.59
0
-2.8
-0.01
-1.29
0
0.01
0
-0.01

>  <PUBCHEM_SHAPE_SELFOVERLAP>  (1) 
443.41

>  <PUBCHEM_SHAPE_VOLUME>  (1) 
125.4

>  <PUBCHEM_COORDINATE_TYPE>  (1) 
2
5
10

$$$$
