33825
     RDKit          3D

 24 24  0  0  0  0  0  0  0  0999 V2000
    2.7410   -1.5058    0.0099 N   0  0  0  0  0  0  0  0  0  0  0  0
    4.3866    0.1333    0.0582 N   0  0  0  0  0  0  0  0  0  0  0  0
    6.1010    1.7325    0.1078 N   0  0  0  0  0  0  0  0  0  0  0  0
    4.9587   -2.1951   -0.0385 N   0  0  0  0  0  0  0  0  0  0  0  0
    6.6907   -0.5351    0.0116 N   0  0  0  0  0  0  0  0  0  0  0  0
   -4.7378   -0.6279    0.0539 C   0  0  0  0  0  0  0  0  0  0  0  0
   -3.3622    0.0439    0.0931 C   0  0  0  0  0  0  0  0  0  0  0  0
   -5.9018    0.3669    0.0535 C   0  0  0  0  0  0  0  0  0  0  0  0
   -2.1986   -0.9474    0.0195 C   0  0  0  0  0  0  0  0  0  0  0  0
   -7.2459   -0.3578   -0.0587 C   0  0  0  0  0  0  0  0  0  0  0  0
   -0.8503   -0.2261    0.0943 C   0  0  0  0  0  0  0  0  0  0  0  0
   -8.4506    0.5878   -0.0420 C   0  0  0  0  0  0  0  0  0  0  0  0
    0.3139   -1.2206    0.0504 C   0  0  0  0  0  0  0  0  0  0  0  0
   -9.7958   -0.1409   -0.0797 C   0  0  0  0  0  0  0  0  0  0  0  0
    1.6765   -0.5327    0.0578 C   0  0  0  0  0  0  0  0  0  0  0  0
  -10.9617    0.8446    0.0125 C   0  0  0  0  0  0  0  0  0  0  0  0
  -12.3007    0.1245    0.0142 C   0  0  0  0  0  0  0  0  0  0  0  0
    4.0870   -1.1747    0.0092 C   0  0  0  0  0  0  0  0  0  0  0  0
    5.1643    2.8111    0.1568 C   0  0  0  0  0  0  0  0  0  0  0  0
    5.7069    0.3778    0.0561 C   0  0  0  0  0  0  0  0  0  0  0  0
    6.2420   -1.7999   -0.0342 C   0  0  0  0  0  0  0  0  0  0  0  0
    5.8458    4.0515    0.7199 C   0  0  0  0  0  0  0  0  0  0  0  0
    4.6175    3.0649   -1.2418 C   0  0  0  0  0  0  0  0  0  0  0  0
    7.2738   -2.8748   -0.0838 C   0  0  0  0  0  0  0  0  0  0  0  0
  1 15  1  0
  1 18  1  0
  2 18  2  0
  2 20  1  0
  3 19  1  0
  3 20  1  0
  4 18  1  0
  4 21  2  0
  5 20  2  0
  5 21  1  0
  6  7  1  0
  6  8  1  0
  7  9  1  0
  8 10  1  0
  9 11  1  0
 10 12  1  0
 11 13  1  0
 12 14  1  0
 13 15  1  0
 14 16  1  0
 16 17  1  0
 19 22  1  0
 19 23  1  0
 21 24  1  0
M  END
>  <PUBCHEM_COMPOUND_CID>  (1) 
33825

>  <PUBCHEM_CONFORMER_RMSD>  (1) 
1.4

>  <PUBCHEM_CONFORMER_DIVERSEORDER>  (1) 
1
37
10
46
6
20
42
50
51
38
44
36
11
23
52
49
12
45
48
35
4
55
29
31
24
7
22
27
16
58
13
40
47
59
56
57
61
53
30
54
39
2
5
14
8
28
32
41
9
3
26
60
15
17
18
33
25
34
19
21
43

>  <PUBCHEM_MMFF94_PARTIAL_CHARGES>  (1) 
13
1 -0.87
15 0.37
18 0.72
19 0.37
2 -0.62
20 0.72
21 0.48
24 0.14
3 -0.87
4 -0.62
5 -0.62
50 0.4
52 0.4

>  <PUBCHEM_EFFECTIVE_ROTOR_COUNT>  (1) 
14

>  <PUBCHEM_PHARMACOPHORE_FEATURES>  (1) 
7
1 1 donor
1 17 hydrophobe
1 3 donor
3 19 22 23 hydrophobe
4 1 2 4 18 cation
4 2 3 5 20 cation
6 2 4 5 18 20 21 rings

>  <PUBCHEM_HEAVY_ATOM_COUNT>  (1) 
24

>  <PUBCHEM_ATOM_DEF_STEREO_COUNT>  (1) 
0

>  <PUBCHEM_ATOM_UDEF_STEREO_COUNT>  (1) 
0

>  <PUBCHEM_BOND_DEF_STEREO_COUNT>  (1) 
0

>  <PUBCHEM_BOND_UDEF_STEREO_COUNT>  (1) 
0

>  <PUBCHEM_ISOTOPIC_ATOM_COUNT>  (1) 
0

>  <PUBCHEM_COMPONENT_COUNT>  (1) 
1

>  <PUBCHEM_CACTVS_TAUTO_COUNT>  (1) 
9

>  <PUBCHEM_CONFORMER_ID>  (1) 
0000842100000001

>  <PUBCHEM_MMFF94_ENERGY>  (1) 
31.8711

>  <PUBCHEM_FEATURE_SELFOVERLAP>  (1) 
35.565

>  <PUBCHEM_SHAPE_FINGERPRINT>  (1) 
10411042 1 18195246608687561834
11135609 127 18272083955078685632
11211813 74 18342454880973551401
12089408 11 18202844366999502223
13617811 41 15698007344120855832
14251764 46 12607397785714083823
15510794 2 18334299765266623651
15840311 113 18335422378583994461
16120349 18 18411417319682239805
20157964 124 18411700998161854570
20771845 171 17203621371391714334
20812841 46 18260546727390527409
21315763 28 18411981325881143851
21362267 2 18337657695152961485
21362267 313 18193834848383475931
21792934 111 18335135392916537160
232437 2 18412262819098371047
23378982 89 15871710601150259756
33684 2 18272931593129735939
444735 82 18333453166022840869
44555599 121 18201447947438512937
59520647 147 16376662402237508244
59521099 67 17988924466884119488
59521120 56 15266520447509779777
59521506 201 17200217447209033376
60111433 81 17699561752237760496
67123 10 18411699877734650435
8209 1 18411981339605004091

>  <PUBCHEM_SHAPE_MULTIPOLES>  (1) 
469
39.7
3.19
0.69
125.84
3.13
0.07
6.24
0.12
-13.27
-0.05
-0.39
0.31
0.23

>  <PUBCHEM_SHAPE_SELFOVERLAP>  (1) 
898.837

>  <PUBCHEM_SHAPE_VOLUME>  (1) 
280.6

>  <PUBCHEM_COORDINATE_TYPE>  (1) 
2
5
10

$$$$
