33836
     RDKit          3D

 16 16  0  0  0  0  0  0  0  0999 V2000
    0.0515   -3.2183    1.4657 Cl  0  0  0  0  0  0  0  0  0  0  0  0
   -2.3983   -2.8631   -0.0102 Cl  0  0  0  0  0  0  0  0  0  0  0  0
    0.0720   -3.2101   -1.4608 Cl  0  0  0  0  0  0  0  0  0  0  0  0
   -2.1211    2.1064   -0.0056 N   0  0  0  0  0  0  0  0  0  0  0  0
    2.4752    1.1746    0.0091 N   0  0  0  0  0  0  0  0  0  0  0  0
    0.1833    1.6716    0.0035 N   0  0  0  0  0  0  0  0  0  0  0  0
   -1.4054   -0.1267   -0.0014 N   0  0  0  0  0  0  0  0  0  0  0  0
    0.9463   -0.6034    0.0061 N   0  0  0  0  0  0  0  0  0  0  0  0
   -1.0757    1.1830   -0.0004 C   0  0  0  0  0  0  0  0  0  0  0  0
    1.1364    0.7258    0.0067 C   0  0  0  0  0  0  0  0  0  0  0  0
    3.5919    0.2824    0.0106 C   0  0  0  0  0  0  0  0  0  0  0  0
   -0.3494   -0.9561    0.0020 C   0  0  0  0  0  0  0  0  0  0  0  0
   -3.5103    1.6659   -0.0118 C   0  0  0  0  0  0  0  0  0  0  0  0
   -1.8554    3.5393    0.0093 C   0  0  0  0  0  0  0  0  0  0  0  0
    4.9048    1.0460   -0.0219 C   0  0  0  0  0  0  0  0  0  0  0  0
   -0.6457   -2.4172   -0.0008 C   0  0  0  0  0  0  0  0  0  0  0  0
  1 16  1  0
  2 16  1  0
  3 16  1  0
  4  9  1  0
  4 13  1  0
  4 14  1  0
  5 10  1  0
  5 11  1  0
  6  9  2  0
  6 10  1  0
  7  9  1  0
  7 12  2  0
  8 10  2  0
  8 12  1  0
 11 15  1  0
 12 16  1  0
M  END
>  <PUBCHEM_COMPOUND_CID>  (1) 
33836

>  <PUBCHEM_CONFORMER_RMSD>  (1) 
0.6

>  <PUBCHEM_CONFORMER_DIVERSEORDER>  (1) 
1
12
17
15
14
7
3
9
11
5
8
6
16
4
2
10
13

>  <PUBCHEM_MMFF94_PARTIAL_CHARGES>  (1) 
16
1 -0.29
10 0.72
11 0.37
12 0.48
13 0.37
14 0.37
16 1.01
19 0.4
2 -0.29
3 -0.29
4 -0.84
5 -0.87
6 -0.62
7 -0.62
8 -0.62
9 0.72

>  <PUBCHEM_EFFECTIVE_ROTOR_COUNT>  (1) 
4

>  <PUBCHEM_PHARMACOPHORE_FEATURES>  (1) 
4
1 5 donor
4 4 6 7 9 cation
4 5 6 8 10 cation
6 6 7 8 9 10 12 rings

>  <PUBCHEM_HEAVY_ATOM_COUNT>  (1) 
16

>  <PUBCHEM_ATOM_DEF_STEREO_COUNT>  (1) 
0

>  <PUBCHEM_ATOM_UDEF_STEREO_COUNT>  (1) 
0

>  <PUBCHEM_BOND_DEF_STEREO_COUNT>  (1) 
0

>  <PUBCHEM_BOND_UDEF_STEREO_COUNT>  (1) 
0

>  <PUBCHEM_ISOTOPIC_ATOM_COUNT>  (1) 
0

>  <PUBCHEM_COMPONENT_COUNT>  (1) 
1

>  <PUBCHEM_CACTVS_TAUTO_COUNT>  (1) 
4

>  <PUBCHEM_CONFORMER_ID>  (1) 
0000842C00000001

>  <PUBCHEM_MMFF94_ENERGY>  (1) 
43.7323

>  <PUBCHEM_FEATURE_SELFOVERLAP>  (1) 
20.34

>  <PUBCHEM_SHAPE_FINGERPRINT>  (1) 
11357001 24 18263927803287510146
12553582 1 17690847083072472110
12788726 201 18191018100744426642
13380535 76 18339923714499745020
14178342 30 18264469824413956952
14648413 74 17472420954767099825
15042514 8 18337113461547573202
16945 1 18338797930556986792
193761 8 18338797797613967367
19591789 44 18193561064590593218
20510252 161 18342460369645999328
20524608 308 18341332275274241892
20645476 183 18041582272911932470
20645477 70 17906165154078761309
20711985 344 18193825162398669394
20711985 365 18194120939489797052
20871998 184 18199192956674778550
21041028 32 17758686924172016611
21524375 3 18339357461859086168
2255824 54 17618782458035748533
23366157 5 17538856784163782800
23402539 116 18200025291245702639
23419403 2 16912334339929870767
23526113 38 17632300034486970884
23557571 272 18197229259431712948
23558518 356 18334862710086255342
23598291 2 17895766209289157516
23598294 1 18336252552722798706
257057 1 17621311768312776574
2748010 2 18048052786940213501
305870 269 18120372051586765864
3071541 12 17620196429683431668
3091708 16 9127380819206744040
352729 6 18410860962055471869
43471831 8 18191586350244437681
474229 33 18410294709683572105
54173680 148 18265615570473039417
559249 180 18409445870144296746
5939293 188 17257930399351911655
6138700 20 17763469409802849182
6992083 37 17695928995261093515
7364860 26 17692812592681343629
81228 2 18122052371578397416
81539 233 18118401748345771869

>  <PUBCHEM_SHAPE_MULTIPOLES>  (1) 
309.98
5.4
4.79
0.91
8.09
0.55
0
-2.66
0.03
-4.53
-0.01
-0.09
1
0

>  <PUBCHEM_SHAPE_SELFOVERLAP>  (1) 
593.012

>  <PUBCHEM_SHAPE_VOLUME>  (1) 
188.5

>  <PUBCHEM_COORDINATE_TYPE>  (1) 
2
5
10

$$$$
