33847
     RDKit          3D

 21 23  0  0  1  0  0  0  0  0999 V2000
   -3.5022    0.1603   -0.1661 N   0  0  0  0  0  0  0  0  0  0  0  0
    0.1796   -0.2127    0.3319 N   0  0  0  0  0  0  0  0  0  0  0  0
    1.8525   -1.8677    0.7037 N   0  0  0  0  0  0  0  0  0  0  0  0
    3.2009    0.8242    0.5854 N   0  0  0  0  0  0  0  0  0  0  0  0
   -4.6853   -0.3652    0.5147 C   0  0  0  0  0  0  0  0  0  0  0  0
   -3.6491    1.6146   -0.1147 C   0  0  0  0  0  0  0  0  0  0  0  0
   -5.8047    0.5192   -0.0147 C   0  0  0  0  0  0  0  0  0  0  0  0
   -5.1232    1.8190   -0.4315 C   0  0  0  0  0  0  0  0  0  0  0  0
   -2.2618   -0.2947    0.4446 C   0  0  0  0  0  0  0  0  0  0  0  0
   -1.0504    0.2303   -0.3119 C   0  0  0  0  0  0  0  0  0  0  0  0
    0.8655    0.7199    1.2173 C   0  0  0  0  0  0  0  0  0  0  0  0
    0.6932   -1.4882    0.0970 C   0  0  0  0  0  0  0  0  0  0  0  0
    1.9983    1.4252    0.5201 C   0  0  0  0  0  0  0  0  0  0  0  0
   -0.0134   -2.3317   -0.7617 C   0  0  0  0  0  0  0  0  0  0  0  0
    1.7428    2.6158   -0.1278 C   0  0  0  0  0  0  0  0  0  0  0  0
    0.4857   -3.6063   -1.0057 C   0  0  0  0  0  0  0  0  0  0  0  0
    2.3070   -3.1138    0.4425 C   0  0  0  0  0  0  0  0  0  0  0  0
    1.6675   -4.0126   -0.3960 C   0  0  0  0  0  0  0  0  0  0  0  0
    2.8102    3.2419   -0.7618 C   0  0  0  0  0  0  0  0  0  0  0  0
    4.2142    1.4621   -0.0423 C   0  0  0  0  0  0  0  0  0  0  0  0
    4.0727    2.6605   -0.7230 C   0  0  0  0  0  0  0  0  0  0  0  0
  1  5  1  0
  1  6  1  0
  1  9  1  0
  2 10  1  0
  2 11  1  0
  2 12  1  0
  3 12  2  0
  3 17  1  0
  4 13  2  0
  4 20  1  0
  5  7  1  0
  6  8  1  0
  7  8  1  0
  9 10  1  0
 11 13  1  0
 12 14  1  0
 13 15  1  0
 14 16  2  0
 15 19  2  0
 16 18  1  0
 17 18  2  0
 19 21  1  0
 20 21  2  0
M  END
>  <PUBCHEM_COMPOUND_CID>  (1) 
33847

>  <PUBCHEM_CONFORMER_RMSD>  (1) 
0.8

>  <PUBCHEM_CONFORMER_DIVERSEORDER>  (1) 
1
471
97
77
486
452
256
358
281
467
320
19
361
365
56
472
214
408
140
475
205
439
170
217
450
130
396
368
485
399
249
61
282
57
362
274
316
144
483
299
47
335
59
405
352
412
285
401
289
251
306
336
133
228
212
253
422
239
407
346
371
48
166
203
31
264
287
160
343
379
275
55
290
351
478
446
114
58
75
102
375
157
103
25
135
242
100
284
136
435
437
179
28
266
413
474
93
43
131
466
476
461
434
209
268
153
72
196
192
383
423
108
447
418
473
142
211
388
421
121
204
49
384
8
428
233
443
409
411
397
178
112
263
246
189
381
260
26
124
174
243
91
206
279
63
151
385
198
127
415
459
180
469
453
338
252
27
50
161
417
71
305
332
403
241
18
227
193
30
414
87
255
454
325
482
400
176
465
105
477
116
254
353
129
111
173
84
138
487
76
389
53
324
337
348
272
134
194
451
10
200
317
68
248
98
141
165
92
296
207
126
187
427
292
319
479
37
183
3
42
410
125
460
370
334
342
17
32
438
210
79
208
484
186
404
457
163
168
378
167
156
51
259
315
265
359
230
38
23
364
235
220
308
99
331
391
238
237
182
416
294
34
95
184
106
433
39
96
470
291
394
360
115
82
390
330
311
445
321
367
213
458
24
118
425
480
297
406
12
303
327
283
426
14
64
190
448
387
62
149
155
318
349
277
468
104
301
5
60
171
11
148
323
2
52
195
199
22
169
257
90
293
172
430
309
286
393
382
146
147
191
340
436
354
420
69
344
221
307
449
122
177
6
109
123
185
376
88
231
181
7
175
424
444
54
21
377
35
250
366
225
188
431
432
419
326
455
229
328
258
373
456
159
29
9
295
462
463
101
333
363
298
16
240
132
442
304
216
40
46
89
270
197
226
302
262
372
236
402
86
44
66
218
441
288
374
215
164
345
80
143
369
110
113
245
380
154
4
278
139
128
45
312
429
398
276
33
81
356
150
280
65
314
201
70
158
73
232
355
310
357
464
223
350
119
107
20
300
481
152
219
339
329
273
41
341
67
395
392
15
222
322
85
117
440
120
234
74
94
261
347
386
244
162
267
269
36
202
313
137
224
83
13
247
78
271
145

>  <PUBCHEM_MMFF94_PARTIAL_CHARGES>  (1) 
27
1 -0.81
10 0.37
11 0.51
12 0.41
13 0.17
14 -0.15
15 -0.15
16 -0.15
17 0.16
18 -0.15
19 -0.15
2 -0.84
20 0.16
21 -0.15
3 -0.62
36 0.15
37 0.15
38 0.15
39 0.15
4 -0.62
40 0.15
41 0.15
42 0.15
43 0.15
5 0.27
6 0.27
9 0.27

>  <PUBCHEM_EFFECTIVE_ROTOR_COUNT>  (1) 
7

>  <PUBCHEM_PHARMACOPHORE_FEATURES>  (1) 
7
1 1 cation
1 2 cation
1 3 acceptor
1 4 acceptor
5 1 5 6 7 8 rings
6 3 12 14 16 17 18 rings
6 4 13 15 19 20 21 rings

>  <PUBCHEM_HEAVY_ATOM_COUNT>  (1) 
21

>  <PUBCHEM_ATOM_DEF_STEREO_COUNT>  (1) 
0

>  <PUBCHEM_ATOM_UDEF_STEREO_COUNT>  (1) 
0

>  <PUBCHEM_BOND_DEF_STEREO_COUNT>  (1) 
0

>  <PUBCHEM_BOND_UDEF_STEREO_COUNT>  (1) 
0

>  <PUBCHEM_ISOTOPIC_ATOM_COUNT>  (1) 
0

>  <PUBCHEM_COMPONENT_COUNT>  (1) 
1

>  <PUBCHEM_CACTVS_TAUTO_COUNT>  (1) 
1

>  <PUBCHEM_CONFORMER_ID>  (1) 
0000843700000001

>  <PUBCHEM_MMFF94_ENERGY>  (1) 
58.8508

>  <PUBCHEM_FEATURE_SELFOVERLAP>  (1) 
35.523

>  <PUBCHEM_SHAPE_FINGERPRINT>  (1) 
10411042 1 17834114143556109682
12173636 292 17978786040986661492
12293681 160 17845383300464713560
12592029 89 18410015454824879344
12730499 353 18410585002375561963
12788726 201 17472972282522992442
12895836 83 18045515359217785948
12895837 130 17174923229345474780
13009979 54 17485935133598154003
133893 2 18127435378702476771
13681431 1 18125451808218184842
13836976 161 18411978074453640256
138480 1 18122626050460376630
13955234 65 18410016498855581115
14178342 30 17618766399454209776
14508225 48 17620757184829482774
14790565 3 18266180723903523821
15502722 9 18411703149576401611
15961568 22 17822009813714942397
16752209 62 17910947268896376986
167882 2 18410015420792454562
17134986 127 18338238270912478724
17492 54 18193300549919639262
17539 30 17407113730705248582
1813 80 17698731302423534926
18681886 176 18337386162328903608
18785283 64 18335981982483708558
18915476 22 18338254703541977187
19591789 44 18196091272774411315
20645477 70 18338791209598079755
20739085 24 18267857286088830770
21307412 95 17985299411443360876
21524375 3 18262516025725043672
2255824 54 18341049618928726495
23366157 5 18262524667436425075
23558518 356 17615680074419754664
23559900 14 18268139873667539459
298252 57 18263645237394563264
3060560 45 18409731776946865372
3298306 158 18411707616052284726
3729539 64 18194993814874246230
38695281 34 18411701014808876438
394222 165 18260822730937320656
458136 41 18341057388656174019
46194498 28 18264203617898186373
474 4 18410012152179865649
5104073 3 18262247612830440737
57724786 102 18267590096701295833
60123966 16 18046046191532121741
6025842 7 18412259515650991327
6138700 20 18339086982795290494
6443956 14 18121219775072568447
7364860 26 18339643334876877271
81228 2 17044848885584502178
81539 233 18410294722088179183
8272917 22 18411702050027798585
9709674 26 18336828598749293691
9841814 1 17971188127907718867

>  <PUBCHEM_SHAPE_MULTIPOLES>  (1) 
412.25
9.58
4.86
0.92
14.4
3.96
0.02
-8.03
-0.47
-5.92
-1.43
-0.27
0.08
-0.32

>  <PUBCHEM_SHAPE_SELFOVERLAP>  (1) 
869.061

>  <PUBCHEM_SHAPE_VOLUME>  (1) 
229.4

>  <PUBCHEM_COORDINATE_TYPE>  (1) 
2
5
10

$$$$
