33845
     RDKit          3D

 21 22  0  0  1  0  0  0  0  0999 V2000
   -3.4167   -0.8381   -0.1688 N   0  0  0  0  0  0  0  0  0  0  0  0
    0.1236    0.2086    0.3399 N   0  0  0  0  0  0  0  0  0  0  0  0
    1.4468    2.1629    0.6653 N   0  0  0  0  0  0  0  0  0  0  0  0
    3.2533   -0.4581    0.5039 N   0  0  0  0  0  0  0  0  0  0  0  0
   -2.2936   -0.1520    0.4689 C   0  0  0  0  0  0  0  0  0  0  0  0
   -1.0058   -0.4744   -0.2783 C   0  0  0  0  0  0  0  0  0  0  0  0
   -3.1962   -2.2838   -0.1740 C   0  0  0  0  0  0  0  0  0  0  0  0
   -4.6681   -0.5144    0.5152 C   0  0  0  0  0  0  0  0  0  0  0  0
    0.9569   -0.5449    1.2680 C   0  0  0  0  0  0  0  0  0  0  0  0
    0.3911    1.5488    0.0611 C   0  0  0  0  0  0  0  0  0  0  0  0
   -4.3248   -3.0088   -0.8873 C   0  0  0  0  0  0  0  0  0  0  0  0
   -4.9137    0.9848    0.5302 C   0  0  0  0  0  0  0  0  0  0  0  0
    2.1265   -1.1910    0.5740 C   0  0  0  0  0  0  0  0  0  0  0  0
   -0.4464    2.2117   -0.8374 C   0  0  0  0  0  0  0  0  0  0  0  0
    1.9774   -2.4638    0.0638 C   0  0  0  0  0  0  0  0  0  0  0  0
   -0.1925    3.5481   -1.1255 C   0  0  0  0  0  0  0  0  0  0  0  0
    1.6624    3.4623    0.3607 C   0  0  0  0  0  0  0  0  0  0  0  0
    3.0762   -3.0322   -0.5710 C   0  0  0  0  0  0  0  0  0  0  0  0
    0.8801    4.1926   -0.5194 C   0  0  0  0  0  0  0  0  0  0  0  0
    4.3001   -1.0433   -0.1202 C   0  0  0  0  0  0  0  0  0  0  0  0
    4.2634   -2.3150   -0.6690 C   0  0  0  0  0  0  0  0  0  0  0  0
  1  5  1  0
  1  7  1  0
  1  8  1  0
  2  6  1  0
  2  9  1  0
  2 10  1  0
  3 10  2  0
  3 17  1  0
  4 13  2  0
  4 20  1  0
  5  6  1  0
  7 11  1  0
  8 12  1  0
  9 13  1  0
 10 14  1  0
 13 15  1  0
 14 16  2  0
 15 18  2  0
 16 19  1  0
 17 19  2  0
 18 21  1  0
 20 21  2  0
M  END
>  <PUBCHEM_COMPOUND_CID>  (1) 
33845

>  <PUBCHEM_CONFORMER_RMSD>  (1) 
1

>  <PUBCHEM_CONFORMER_DIVERSEORDER>  (1) 
1
210
167
145
228
85
175
166
208
233
161
111
86
162
226
238
199
29
138
108
224
143
144
183
93
24
212
225
172
244
103
219
215
245
70
20
53
157
104
35
36
45
5
230
186
10
202
246
22
232
176
38
37
180
205
55
187
76
229
221
195
171
136
113
48
247
52
188
243
84
170
50
237
105
102
12
151
66
130
141
46
83
74
68
191
123
204
26
65
128
127
9
99
217
207
189
168
116
110
73
241
30
235
115
96
33
63
147
155
164
107
163
132
153
122
184
72
158
231
194
31
81
227
80
6
92
79
190
174
95
40
177
160
213
242
41
125
17
201
75
192
67
82
18
120
101
42
146
94
34
236
137
59
114
61
39
126
203
69
109
197
179
2
234
77
196
106
44
100
129
112
87
89
25
193
54
47
218
240
165
58
152
222
178
182
97
57
185
148
56
209
21
216
200
206
173
64
3
11
135
91
23
220
49
154
4
51
223
119
139
159
211
156
121
90
43
62
16
19
88
131
124
142
14
28
98
150
78
117
13
169
60
71
134
15
239
32
149
118
198
140
181
133
8
214
7
27

>  <PUBCHEM_MMFF94_PARTIAL_CHARGES>  (1) 
27
1 -0.81
10 0.41
13 0.17
14 -0.15
15 -0.15
16 -0.15
17 0.16
18 -0.15
19 -0.15
2 -0.84
20 0.16
21 -0.15
3 -0.62
38 0.15
39 0.15
4 -0.62
40 0.15
41 0.15
42 0.15
43 0.15
44 0.15
45 0.15
5 0.27
6 0.37
7 0.27
8 0.27
9 0.51

>  <PUBCHEM_EFFECTIVE_ROTOR_COUNT>  (1) 
8

>  <PUBCHEM_PHARMACOPHORE_FEATURES>  (1) 
6
1 1 cation
1 2 cation
1 3 acceptor
1 4 acceptor
6 3 10 14 16 17 19 rings
6 4 13 15 18 20 21 rings

>  <PUBCHEM_HEAVY_ATOM_COUNT>  (1) 
21

>  <PUBCHEM_ATOM_DEF_STEREO_COUNT>  (1) 
0

>  <PUBCHEM_ATOM_UDEF_STEREO_COUNT>  (1) 
0

>  <PUBCHEM_BOND_DEF_STEREO_COUNT>  (1) 
0

>  <PUBCHEM_BOND_UDEF_STEREO_COUNT>  (1) 
0

>  <PUBCHEM_ISOTOPIC_ATOM_COUNT>  (1) 
0

>  <PUBCHEM_COMPONENT_COUNT>  (1) 
1

>  <PUBCHEM_CACTVS_TAUTO_COUNT>  (1) 
1

>  <PUBCHEM_CONFORMER_ID>  (1) 
0000843500000001

>  <PUBCHEM_MMFF94_ENERGY>  (1) 
61.1492

>  <PUBCHEM_FEATURE_SELFOVERLAP>  (1) 
30.447

>  <PUBCHEM_SHAPE_FINGERPRINT>  (1) 
10764073 3 15763049805028739761
11014199 57 18411139182021887755
11045515 52 18335705996675421892
11069576 57 17840848983352561487
11582403 64 15908816910626017168
12166972 35 18272930497791776209
12173636 292 17328014374798544860
12553582 1 18335973173743388851
12788726 201 17972321715853519826
12841375 25 18410012096107777522
13004483 165 18120089485777948651
13009979 54 18059306426074064731
13533116 47 18128249190013473495
13583140 156 16987701567320724627
138480 1 18410293648541715948
14251757 5 18046344133022963733
14790565 3 17617942426504810892
14955137 171 18191046555061122051
15664445 248 18271264767344399220
17357779 13 18266724806065237309
17492 89 18267584792237447427
17818456 19 17988655064674823169
1813 80 18408889507589182091
18785283 64 18118130405043626379
19141452 34 18271807874475520531
20286276 3 18266466580353459923
20600515 1 18059023769691157775
20645477 70 18119233215755411911
20775438 99 17690511452304695796
21285901 2 17983863280873162391
21524375 3 17322942817022141569
22182313 1 18265309769039590656
2255824 54 18193559101727073117
22849341 161 18195552345047869697
23352939 185 18342748377515822128
23366157 5 18116994583926041943
23557571 272 18124883361197150798
23559900 14 18269262621211064891
23566358 27 18192159398335832739
23598291 2 18341330097805158607
25147074 1 17987525982498186159
3060560 45 17903632230974406804
312423 11 18267592497513849307
314173 41 18409733949820944259
352729 6 17110704684554789721
4280585 95 18337096921961345410
4409770 3 17829885434978314253
46194498 28 18046040900079801919
532947 4 18122637303834082348
53777708 50 18197785603740906259
57262259 84 18052263890683751292
6287921 2 18124871510965805443
6443956 14 18409169926199324516
7164475 11 18046629993388285874
7364860 26 18266176330183108865
7399639 24 18271792485939852650
81228 2 18044666295379641024
9709674 26 18192148411715025075
9981440 41 17617658104333321297

>  <PUBCHEM_SHAPE_MULTIPOLES>  (1) 
412.25
8.54
5.24
0.97
6.14
4.53
0.02
-8.46
0.14
-1.95
1.72
0.03
0.11
-0.09

>  <PUBCHEM_SHAPE_SELFOVERLAP>  (1) 
847.591

>  <PUBCHEM_SHAPE_VOLUME>  (1) 
234.7

>  <PUBCHEM_COORDINATE_TYPE>  (1) 
2
5
10

$$$$
