33858
     RDKit          3D

 12 12  0  0  0  0  0  0  0  0999 V2000
    2.0538    1.7504    0.4024 O   0  0  0  0  0  0  0  0  0  0  0  0
    2.1311   -1.6940   -0.4132 O   0  0  0  0  0  0  0  0  0  0  0  0
    1.4643    0.4899    0.1068 N   0  0  0  0  0  0  0  0  0  0  0  0
    0.0854    0.2824    0.0664 C   0  0  0  0  0  0  0  0  0  0  0  0
   -2.6722   -0.1326   -0.0148 C   0  0  0  0  0  0  0  0  0  0  0  0
   -0.7662    1.3241   -0.3018 C   0  0  0  0  0  0  0  0  0  0  0  0
   -0.4419   -0.9667    0.3939 C   0  0  0  0  0  0  0  0  0  0  0  0
   -2.1450    1.1165   -0.3423 C   0  0  0  0  0  0  0  0  0  0  0  0
   -1.8207   -1.1742    0.3534 C   0  0  0  0  0  0  0  0  0  0  0  0
   -4.1460   -0.3550   -0.0585 C   0  0  0  0  0  0  0  0  0  0  0  0
    2.4012   -0.5244   -0.1400 C   0  0  0  0  0  0  0  0  0  0  0  0
    3.8562   -0.1164   -0.0523 C   0  0  0  0  0  0  0  0  0  0  0  0
  1  3  1  0
  2 11  2  0
  3  4  1  0
  3 11  1  0
  4  6  2  0
  4  7  1  0
  5  8  2  0
  5  9  1  0
  5 10  1  0
  6  8  1  0
  7  9  2  0
 11 12  1  0
M  END
>  <PUBCHEM_COMPOUND_CID>  (1) 
33858

>  <PUBCHEM_CONFORMER_RMSD>  (1) 
0.6

>  <PUBCHEM_CONFORMER_DIVERSEORDER>  (1) 
1
3
2
6
5
4

>  <PUBCHEM_MMFF94_PARTIAL_CHARGES>  (1) 
17
1 -0.44
10 0.14
11 0.57
12 0.06
13 0.15
14 0.15
15 0.15
16 0.15
2 -0.57
23 0.4
3 -0.14
4 0.12
5 -0.14
6 -0.15
7 -0.15
8 -0.15
9 -0.15

>  <PUBCHEM_EFFECTIVE_ROTOR_COUNT>  (1) 
2

>  <PUBCHEM_PHARMACOPHORE_FEATURES>  (1) 
2
1 2 acceptor
6 4 5 6 7 8 9 rings

>  <PUBCHEM_HEAVY_ATOM_COUNT>  (1) 
12

>  <PUBCHEM_ATOM_DEF_STEREO_COUNT>  (1) 
0

>  <PUBCHEM_ATOM_UDEF_STEREO_COUNT>  (1) 
0

>  <PUBCHEM_BOND_DEF_STEREO_COUNT>  (1) 
0

>  <PUBCHEM_BOND_UDEF_STEREO_COUNT>  (1) 
0

>  <PUBCHEM_ISOTOPIC_ATOM_COUNT>  (1) 
0

>  <PUBCHEM_COMPONENT_COUNT>  (1) 
1

>  <PUBCHEM_CACTVS_TAUTO_COUNT>  (1) 
1

>  <PUBCHEM_CONFORMER_ID>  (1) 
0000844200000001

>  <PUBCHEM_MMFF94_ENERGY>  (1) 
42.3931

>  <PUBCHEM_FEATURE_SELFOVERLAP>  (1) 
10.148

>  <PUBCHEM_SHAPE_FINGERPRINT>  (1) 
10608611 8 18410005542019773964
11062470 55 16845574210009975067
12032990 46 18333737944261372779
12524768 44 18335698398836109713
12897270 3 18408603673220516470
12932764 1 16916771964327086872
13380535 76 18409166644997206754
14144814 61 18410856521085349882
14325111 11 18336546019105904333
14993402 34 16805326595465201863
15219456 202 18339640147958539168
16945 1 18411417302064481787
17844478 74 18186811270440477041
19026448 5 17203330044118754265
200 152 17917987282950606287
20201158 50 18411983554953443602
20279233 1 18409732863167467738
20645476 183 16443067222549736411
20645477 70 18270677572042635543
21501502 16 18266743480408791258
23402539 116 18334847325301969495
23402655 69 18340760456276807613
23552423 10 18113902696898616687
23559900 14 18194679277344973406
2748010 2 18120096336150370331
369184 2 17989486325086924665
5084963 1 18040438758953980909
69090 78 18343014519327449415
7364860 26 18266181810683250060
8809292 202 18260553363194238226

>  <PUBCHEM_SHAPE_MULTIPOLES>  (1) 
230.23
6.08
1.51
0.66
0.35
0.16
0
-0.77
-0.31
0.25
0
-0.01
-0.01
0.39

>  <PUBCHEM_SHAPE_SELFOVERLAP>  (1) 
473.296

>  <PUBCHEM_SHAPE_VOLUME>  (1) 
132.7

>  <PUBCHEM_COORDINATE_TYPE>  (1) 
2
5
10

$$$$
