33865
     RDKit          3D

 14 13  0  0  0  0  0  0  0  0999 V2000
   -7.7129    0.8310    0.1831 O   0  0  0  0  0  0  0  0  0  0  0  0
    2.2448   -0.4061    0.3465 C   0  0  0  0  0  0  0  0  0  0  0  0
    0.9178   -0.9243   -0.2136 C   0  0  0  0  0  0  0  0  0  0  0  0
    3.4666   -1.1381   -0.2183 C   0  0  0  0  0  0  0  0  0  0  0  0
   -0.2989   -0.1417    0.2906 C   0  0  0  0  0  0  0  0  0  0  0  0
    4.8215   -0.7208    0.3669 C   0  0  0  0  0  0  0  0  0  0  0  0
   -1.6289   -0.6742   -0.2501 C   0  0  0  0  0  0  0  0  0  0  0  0
    5.2394    0.7398    0.1131 C   0  0  0  0  0  0  0  0  0  0  0  0
   -2.8063    0.1598    0.2618 C   0  0  0  0  0  0  0  0  0  0  0  0
   -4.1663   -0.3353   -0.2391 C   0  0  0  0  0  0  0  0  0  0  0  0
   -5.3355    0.5394    0.2104 C   0  0  0  0  0  0  0  0  0  0  0  0
    5.3494    1.0632   -1.3772 C   0  0  0  0  0  0  0  0  0  0  0  0
    6.5769    1.0216    0.8033 C   0  0  0  0  0  0  0  0  0  0  0  0
   -6.6677   -0.0144   -0.2775 C   0  0  0  0  0  0  0  0  0  0  0  0
  1 14  1  0
  2  3  1  0
  2  4  1  0
  3  5  1  0
  4  6  1  0
  5  7  1  0
  6  8  1  0
  7  9  1  0
  8 12  1  0
  8 13  1  0
  9 10  1  0
 10 11  1  0
 11 14  1  0
M  END
>  <PUBCHEM_COMPOUND_CID>  (1) 
33865

>  <PUBCHEM_CONFORMER_RMSD>  (1) 
1

>  <PUBCHEM_CONFORMER_DIVERSEORDER>  (1) 
1
47
192
415
71
17
420
453
2
321
349
123
6
551
363
243
41
106
214
405
15
48
429
209
286
213
556
115
397
276
559
34
96
16
430
35
372
136
393
107
277
337
558
157
80
95
302
443
335
519
19
33
144
68
548
143
490
230
14
129
139
537
7
86
54
105
42
306
365
4
377
545
26
269
255
173
400
149
426
23
57
53
508
8
303
418
44
500
142
403
39
195
131
501
518
73
141
166
280
256
466
138
150
406
13
442
267
30
382
260
451
5
215
202
90
237
495
91
199
352
305
359
557
245
126
31
174
240
485
226
231
383
350
194
40
409
395
425

>  <PUBCHEM_MMFF94_PARTIAL_CHARGES>  (1) 
3
1 -0.68
14 0.28
42 0.4

>  <PUBCHEM_EFFECTIVE_ROTOR_COUNT>  (1) 
10

>  <PUBCHEM_PHARMACOPHORE_FEATURES>  (1) 
3
1 1 acceptor
1 1 donor
3 8 12 13 hydrophobe

>  <PUBCHEM_HEAVY_ATOM_COUNT>  (1) 
14

>  <PUBCHEM_ATOM_DEF_STEREO_COUNT>  (1) 
0

>  <PUBCHEM_ATOM_UDEF_STEREO_COUNT>  (1) 
0

>  <PUBCHEM_BOND_DEF_STEREO_COUNT>  (1) 
0

>  <PUBCHEM_BOND_UDEF_STEREO_COUNT>  (1) 
0

>  <PUBCHEM_ISOTOPIC_ATOM_COUNT>  (1) 
0

>  <PUBCHEM_COMPONENT_COUNT>  (1) 
1

>  <PUBCHEM_CACTVS_TAUTO_COUNT>  (1) 
1

>  <PUBCHEM_CONFORMER_ID>  (1) 
0000844900000001

>  <PUBCHEM_MMFF94_ENERGY>  (1) 
3.2177

>  <PUBCHEM_FEATURE_SELFOVERLAP>  (1) 
15.223

>  <PUBCHEM_SHAPE_FINGERPRINT>  (1) 
10968037 39 17988923375761179311
11638347 137 16298383539564394240
117890 112 18410293601106989674
125118 31 17894631418425855541
12714333 28 18272651255337878130
13533116 47 16081358623597481688
13668630 136 9079121072379023672
14123256 10 17846779611184801392
1420 363 12031785868623092559
14251732 16 18260551160276798931
14251752 14 10375879550244807283
14251764 18 18408042927471586791
14251764 46 18343582937143328146
14729087 3 17749665208914239509
15048467 5 18341892995685962435
17834072 33 18131066056270626398
17834072 8 15410894071735198951
17834076 25 18202844352885524451
20281389 69 18409445864931431753
20397935 70 14924214994445483008
20621476 66 18408606942513548467
20735858 18 15068337912702809432
20767249 213 18407478860357189563
21130983 4 18334860515315236341
21150785 3 15123508129441144656
220451 1 16343981395392274415
22224240 67 17022903454639929331
22896161 15 18342173397643899367
23035841 295 9295286141105856269
23402539 116 12973889225971445651
246663 6 11167940286395854941
300161 21 18412823594627183238
33532 11 8646776594504219640
34797466 226 16774081795330279056
42788 4 18411418393186771435
4340502 62 16588022407502425650
4463277 17 18342457028504054729
465052 167 8718829799760310664
59755656 215 12247685967379197525
6025842 7 17917434186148716830
6438161 24 15913055262395857494
8209 1 17918273147542220418

>  <PUBCHEM_SHAPE_MULTIPOLES>  (1) 
282.24
21.28
1.12
0.85
18.96
0
0.15
8.13
-0.54
-1.13
0.06
-1.03
0.17
-0.36

>  <PUBCHEM_SHAPE_SELFOVERLAP>  (1) 
503.281

>  <PUBCHEM_SHAPE_VOLUME>  (1) 
184

>  <PUBCHEM_COORDINATE_TYPE>  (1) 
2
5
10

$$$$
