33863
     RDKit          3D

 19 20  0  0  0  0  0  0  0  0999 V2000
    5.8420    1.1350    0.3002 Cl  0  0  0  0  0  0  0  0  0  0  0  0
    0.0301    0.5095   -0.3596 O   0  0  0  0  0  0  0  0  0  0  0  0
    2.2247   -2.8368    0.4254 O   0  0  0  0  0  0  0  0  0  0  0  0
   -2.5851   -1.8987   -0.3399 O   0  0  0  0  0  0  0  0  0  0  0  0
   -3.9635    0.8955    1.4793 O   0  0  0  0  0  0  0  0  0  0  0  0
   -5.9667    1.0177    0.4210 O   0  0  0  0  0  0  0  0  0  0  0  0
   -2.5792    0.4073   -0.6819 N   0  0  0  0  0  0  0  0  0  0  0  0
    2.1992   -0.4980    0.0726 C   0  0  0  0  0  0  0  0  0  0  0  0
    1.3900    0.6063   -0.1977 C   0  0  0  0  0  0  0  0  0  0  0  0
   -0.5439   -0.7392   -0.2471 C   0  0  0  0  0  0  0  0  0  0  0  0
    1.5752   -1.8273    0.1902 C   0  0  0  0  0  0  0  0  0  0  0  0
    0.1103   -1.8789    0.0080 C   0  0  0  0  0  0  0  0  0  0  0  0
    3.5783   -0.3412    0.2280 C   0  0  0  0  0  0  0  0  0  0  0  0
    1.9578    1.8752   -0.3143 C   0  0  0  0  0  0  0  0  0  0  0  0
   -1.9950   -0.8210   -0.4227 C   0  0  0  0  0  0  0  0  0  0  0  0
    4.1431    0.9295    0.1106 C   0  0  0  0  0  0  0  0  0  0  0  0
    3.3351    2.0350   -0.1599 C   0  0  0  0  0  0  0  0  0  0  0  0
   -3.9986    0.5790   -0.8938 C   0  0  0  0  0  0  0  0  0  0  0  0
   -4.7537    0.8511    0.3817 C   0  0  0  0  0  0  0  0  0  0  0  0
  1 16  1  0
  2  9  1  0
  2 10  1  0
  3 11  2  0
  4 15  2  0
  5 19  1  0
  6 19  2  0
  7 15  1  0
  7 18  1  0
  8  9  2  0
  8 11  1  0
  8 13  1  0
  9 14  1  0
 10 12  2  0
 10 15  1  0
 11 12  1  0
 13 16  2  0
 14 17  2  0
 16 17  1  0
 18 19  1  0
M  END
>  <PUBCHEM_COMPOUND_CID>  (1) 
33863

>  <PUBCHEM_CONFORMER_RMSD>  (1) 
0.6

>  <PUBCHEM_CONFORMER_DIVERSEORDER>  (1) 
1
9
20
3
4
21
12
8
5
13
19
18
2
6
14
10
16
7
15
17
11

>  <PUBCHEM_MMFF94_PARTIAL_CHARGES>  (1) 
25
1 -0.18
10 0.09
11 0.47
12 -0.14
13 -0.15
14 -0.15
15 0.62
16 0.18
17 -0.15
18 0.36
19 0.66
2 -0.16
20 0.15
21 0.15
22 0.15
23 0.15
24 0.37
27 0.5
3 -0.57
4 -0.57
5 -0.65
6 -0.57
7 -0.73
8 0.09
9 0.08

>  <PUBCHEM_EFFECTIVE_ROTOR_COUNT>  (1) 
4

>  <PUBCHEM_PHARMACOPHORE_FEATURES>  (1) 
9
1 2 acceptor
1 3 acceptor
1 4 acceptor
1 5 acceptor
1 6 acceptor
1 7 donor
3 5 6 19 anion
6 2 8 9 10 11 12 rings
6 8 9 13 14 16 17 rings

>  <PUBCHEM_HEAVY_ATOM_COUNT>  (1) 
19

>  <PUBCHEM_ATOM_DEF_STEREO_COUNT>  (1) 
0

>  <PUBCHEM_ATOM_UDEF_STEREO_COUNT>  (1) 
0

>  <PUBCHEM_BOND_DEF_STEREO_COUNT>  (1) 
0

>  <PUBCHEM_BOND_UDEF_STEREO_COUNT>  (1) 
0

>  <PUBCHEM_ISOTOPIC_ATOM_COUNT>  (1) 
0

>  <PUBCHEM_COMPONENT_COUNT>  (1) 
1

>  <PUBCHEM_CACTVS_TAUTO_COUNT>  (1) 
2

>  <PUBCHEM_CONFORMER_ID>  (1) 
0000844700000001

>  <PUBCHEM_MMFF94_ENERGY>  (1) 
41.3855

>  <PUBCHEM_FEATURE_SELFOVERLAP>  (1) 
45.76

>  <PUBCHEM_SHAPE_FINGERPRINT>  (1) 
10354089 29 18409452479165223769
10382601 240 18114455691571650194
10411042 1 17761490288419437730
10465860 228 18411420596362517502
10493431 412 18409448106798696247
11089746 13 17846491551991876208
11471102 20 18409159996345394342
11724838 91 18411702115058956527
11796584 16 15410898453129408148
12236239 1 17989204820288146501
12390115 104 18194135233320644020
12403260 363 18049429637512397246
12507560 40 17968657104133612981
12644460 14 18260263010709862034
13140716 1 18263361559025782704
13583140 156 16081629163017841429
13675066 3 17676487220500084399
14739800 52 17560500851361730474
14790565 3 18263367052595396900
15081414 286 18410576154606295388
15188451 53 15864642786077241545
15196674 1 18337386145306542526
15475509 35 16443906038015093291
1601671 61 18408038524845414828
18186145 218 18410572907457636004
19784866 170 18187364333099595180
19784866 9 18410853261395102392
20157964 124 18337952291090106981
21421861 104 17969774194930611042
22956985 138 13769030634595047969
23402539 116 18201431536832373340
23402655 69 18272930565946373524
23559900 14 18200874093591638136
25 1 18335696165674720422
25147074 1 18269537438545790391
293599 30 18410292545188762620
3004659 81 10231751163697397453
335352 9 18410291402811942702
34934 24 18343015597079176782
350125 39 18120376720184197811
3545911 37 18410855473292710085
474 4 18409167739897252185
5104073 3 18262510533005146144
59755656 215 18201730518222376788
602551 16 15719687535998501025
633830 44 18341891952441569716
7364860 26 18339638941489687822
8272917 22 18340488872108820982

>  <PUBCHEM_SHAPE_MULTIPOLES>  (1) 
358.55
11.12
2.29
0.81
6.44
1.13
0.1
-6.7
1.9
-1.18
0.11
0.63
-0.14
-0.61

>  <PUBCHEM_SHAPE_SELFOVERLAP>  (1) 
765.495

>  <PUBCHEM_SHAPE_VOLUME>  (1) 
198.4

>  <PUBCHEM_COORDINATE_TYPE>  (1) 
2
5
10

$$$$
