33867
     RDKit          3D

 20 21  0  0  0  0  0  0  0  0999 V2000
    0.5936   -4.1559    0.2468 O   0  0  0  0  0  0  0  0  0  0  0  0
   -4.2688    0.7616   -0.0313 O   0  0  0  0  0  0  0  0  0  0  0  0
   -2.4516    1.0243    1.3644 O   0  0  0  0  0  0  0  0  0  0  0  0
    1.4371    1.2038   -0.5396 N   0  0  0  0  0  0  0  0  0  0  0  0
   -0.6735    0.5553   -0.7683 C   0  0  0  0  0  0  0  0  0  0  0  0
    0.1106   -0.5876   -0.4457 C   0  0  0  0  0  0  0  0  0  0  0  0
    0.1700    1.6410   -0.8190 C   0  0  0  0  0  0  0  0  0  0  0  0
    1.4306   -0.1532   -0.3074 C   0  0  0  0  0  0  0  0  0  0  0  0
   -2.1318    0.5740   -1.0078 C   0  0  0  0  0  0  0  0  0  0  0  0
    2.6149    2.0458   -0.4937 C   0  0  0  0  0  0  0  0  0  0  0  0
   -0.1769   -1.9542   -0.2574 C   0  0  0  0  0  0  0  0  0  0  0  0
    2.4816   -1.0205    0.0113 C   0  0  0  0  0  0  0  0  0  0  0  0
   -0.1228    3.0606   -1.1111 C   0  0  0  0  0  0  0  0  0  0  0  0
    0.8644   -2.8333    0.0617 C   0  0  0  0  0  0  0  0  0  0  0  0
    2.1724   -2.3714    0.1936 C   0  0  0  0  0  0  0  0  0  0  0  0
    2.8431    2.5989    0.8785 C   0  0  0  0  0  0  0  0  0  0  0  0
   -2.9342    0.8148    0.2598 C   0  0  0  0  0  0  0  0  0  0  0  0
    3.9556    2.3880    1.5908 C   0  0  0  0  0  0  0  0  0  0  0  0
   -0.7640   -4.5661    0.0980 C   0  0  0  0  0  0  0  0  0  0  0  0
   -5.1501    0.9741    1.0764 C   0  0  0  0  0  0  0  0  0  0  0  0
  1 14  1  0
  1 19  1  0
  2 17  1  0
  2 20  1  0
  3 17  2  0
  4  7  1  0
  4  8  1  0
  4 10  1  0
  5  6  1  0
  5  7  2  0
  5  9  1  0
  6  8  2  0
  6 11  1  0
  7 13  1  0
  8 12  1  0
  9 17  1  0
 10 16  1  0
 11 14  2  0
 12 15  2  0
 14 15  1  0
 16 18  2  0
M  END
>  <PUBCHEM_COMPOUND_CID>  (1) 
33867

>  <PUBCHEM_CONFORMER_RMSD>  (1) 
0.8

>  <PUBCHEM_CONFORMER_DIVERSEORDER>  (1) 
1
24
25
28
33
26
20
18
29
34
6
30
10
27
13
31
36
12
23
17
32
19
3
14
21
22
5
2
15
35
16
4
11
7
9
8

>  <PUBCHEM_MMFF94_PARTIAL_CHARGES>  (1) 
25
1 -0.36
10 0.39
11 -0.15
12 -0.15
13 0.18
14 0.08
15 -0.15
16 -0.29
17 0.66
18 -0.3
19 0.28
2 -0.43
20 0.28
25 0.15
26 0.15
3 -0.57
30 0.15
31 0.15
32 0.15
33 0.15
4 0.05
5 -0.18
7 -0.33
8 -0.15
9 0.24

>  <PUBCHEM_EFFECTIVE_ROTOR_COUNT>  (1) 
6

>  <PUBCHEM_PHARMACOPHORE_FEATURES>  (1) 
6
1 1 acceptor
1 18 hydrophobe
1 3 acceptor
1 4 cation
5 4 5 6 7 8 rings
6 6 8 11 12 14 15 rings

>  <PUBCHEM_HEAVY_ATOM_COUNT>  (1) 
20

>  <PUBCHEM_ATOM_DEF_STEREO_COUNT>  (1) 
0

>  <PUBCHEM_ATOM_UDEF_STEREO_COUNT>  (1) 
0

>  <PUBCHEM_BOND_DEF_STEREO_COUNT>  (1) 
0

>  <PUBCHEM_BOND_UDEF_STEREO_COUNT>  (1) 
0

>  <PUBCHEM_ISOTOPIC_ATOM_COUNT>  (1) 
0

>  <PUBCHEM_COMPONENT_COUNT>  (1) 
1

>  <PUBCHEM_CACTVS_TAUTO_COUNT>  (1) 
1

>  <PUBCHEM_CONFORMER_ID>  (1) 
0000844B00000001

>  <PUBCHEM_MMFF94_ENERGY>  (1) 
42.7825

>  <PUBCHEM_FEATURE_SELFOVERLAP>  (1) 
30.537

>  <PUBCHEM_SHAPE_FINGERPRINT>  (1) 
10064457 181 18340211911221911608
10493431 412 18267302217136990912
1100329 8 18412261727306291834
12553582 1 18049156670871688055
12788726 201 17256250869887236676
13140716 1 18410287017006884794
13533116 47 18266754485180809353
14178342 30 18194116549869800556
14787075 74 17628912628177491833
14790565 3 18337125466588515876
14863182 85 18188791512335923805
15475509 84 17695076500409517209
16945 1 18193544589196201478
19591789 44 18335711558827206878
20510252 161 17475792529964275936
20645477 70 18187643553872466853
20739085 24 18261965058730787501
21731228 192 18339915038945596336
2255824 54 18337121068055921807
2334 1 18264203780574284654
23419403 2 15582103443003232796
23558518 356 18126285482897806023
23559900 14 17970349217805421373
2748010 2 18334861657665897574
3091708 16 9549600985212302158
31174 14 18194120720441079701
3421961 26 18191314780073942417
352729 6 17688589785178337407
427121 178 18201164350658234880
4340502 62 18342180020361968801
495365 180 18409730634422391097
57672749 33 18267584594072125466
58807428 26 18337656612192474496
7097593 13 17765448551885240489
81228 2 17686339080934590718
8809292 202 16462202766184095559
9709674 26 16465289095376432655
9981440 41 16913952997630531800

>  <PUBCHEM_SHAPE_MULTIPOLES>  (1) 
389
6.11
5.1
1.14
4.84
6.81
0.22
-6.13
3.37
-0.79
0.34
-0.07
-0.86
0.19

>  <PUBCHEM_SHAPE_SELFOVERLAP>  (1) 
821.468

>  <PUBCHEM_SHAPE_VOLUME>  (1) 
221.6

>  <PUBCHEM_COORDINATE_TYPE>  (1) 
2
5
10

$$$$
