33878
     RDKit          3D

 28 29  0  0  0  0  0  0  0  0999 V2000
   -1.6224   -0.4634    0.2780 O   0  0  0  0  0  0  0  0  0  0  0  0
    1.0191   -1.5290    0.3384 O   0  0  0  0  0  0  0  0  0  0  0  0
   -3.5381    0.3870   -0.6369 O   0  0  0  0  0  0  0  0  0  0  0  0
    2.7331   -1.8527   -1.1405 O   0  0  0  0  0  0  0  0  0  0  0  0
   -1.5382   -4.1481    0.2024 N   0  0  0  0  0  0  0  0  0  0  0  0
   -1.8752    1.7666    0.2642 N   0  0  0  0  0  0  0  0  0  0  0  0
    2.8008   -0.1739    0.4895 N   0  0  0  0  0  0  0  0  0  0  0  0
   -1.0337   -2.7971    0.4555 C   0  0  0  0  0  0  0  0  0  0  0  0
   -2.7667   -4.3833    0.9588 C   0  0  0  0  0  0  0  0  0  0  0  0
   -1.7709   -4.3452   -1.2273 C   0  0  0  0  0  0  0  0  0  0  0  0
   -2.0742   -1.7802   -0.0136 C   0  0  0  0  0  0  0  0  0  0  0  0
    0.3079   -2.6072   -0.2591 C   0  0  0  0  0  0  0  0  0  0  0  0
   -2.5415   -4.1824    2.4479 C   0  0  0  0  0  0  0  0  0  0  0  0
   -2.2386   -5.7614   -1.5173 C   0  0  0  0  0  0  0  0  0  0  0  0
   -2.4575    0.5644   -0.0880 C   0  0  0  0  0  0  0  0  0  0  0  0
    2.2491   -1.2368   -0.1988 C   0  0  0  0  0  0  0  0  0  0  0  0
   -2.3870    3.0703    0.0740 C   0  0  0  0  0  0  0  0  0  0  0  0
    4.0499    0.4506    0.2707 C   0  0  0  0  0  0  0  0  0  0  0  0
   -1.6514    4.1771    0.4981 C   0  0  0  0  0  0  0  0  0  0  0  0
    4.4443    1.5213    1.0730 C   0  0  0  0  0  0  0  0  0  0  0  0
   -3.6273    3.2505   -0.5384 C   0  0  0  0  0  0  0  0  0  0  0  0
    4.8886   -0.0043   -0.7469 C   0  0  0  0  0  0  0  0  0  0  0  0
   -2.1560    5.4637    0.3101 C   0  0  0  0  0  0  0  0  0  0  0  0
    5.6771    2.1375    0.8575 C   0  0  0  0  0  0  0  0  0  0  0  0
   -4.1319    4.5373   -0.7265 C   0  0  0  0  0  0  0  0  0  0  0  0
    6.1214    0.6118   -0.9623 C   0  0  0  0  0  0  0  0  0  0  0  0
   -3.3961    5.6439   -0.3022 C   0  0  0  0  0  0  0  0  0  0  0  0
    6.5155    1.6827   -0.1600 C   0  0  0  0  0  0  0  0  0  0  0  0
  1 11  1  0
  1 15  1  0
  2 12  1  0
  2 16  1  0
  3 15  2  0
  4 16  2  0
  5  8  1  0
  5  9  1  0
  5 10  1  0
  6 15  1  0
  6 17  1  0
  7 16  1  0
  7 18  1  0
  8 11  1  0
  8 12  1  0
  9 13  1  0
 10 14  1  0
 17 19  2  0
 17 21  1  0
 18 20  2  0
 18 22  1  0
 19 23  1  0
 20 24  1  0
 21 25  2  0
 22 26  2  0
 23 27  2  0
 24 28  2  0
 25 27  1  0
 26 28  1  0
M  END
>  <PUBCHEM_COMPOUND_CID>  (1) 
33878

>  <PUBCHEM_CONFORMER_RMSD>  (1) 
1.2

>  <PUBCHEM_CONFORMER_DIVERSEORDER>  (1) 
1
23
84
60
68
34
9
82
51
8
32
72
21
50
13
14
27
28
55
44
31
47
2
56
10
73
83
12
49
38
62
33
74
4
22
52
65
75
41
7
54
6
40
66
57
36
58
59
86
67
43
24
53
42
39
79
64
88
17
89
78
3
30
35
77
71
25
91
87
80
37
85
29
69
19
46
76
92
18
15
70
11
26
20
48
81
63
16
45
90
5
61

>  <PUBCHEM_MMFF94_PARTIAL_CHARGES>  (1) 
38
1 -0.43
10 0.27
11 0.28
12 0.28
15 0.78
16 0.78
17 0.12
18 0.12
19 -0.15
2 -0.43
20 -0.15
21 -0.15
22 -0.15
23 -0.15
24 -0.15
25 -0.15
26 -0.15
27 -0.15
28 -0.15
3 -0.57
4 -0.57
44 0.37
45 0.37
46 0.15
47 0.15
48 0.15
49 0.15
5 -0.81
50 0.15
51 0.15
52 0.15
53 0.15
54 0.15
55 0.15
6 -0.55
7 -0.55
8 0.27
9 0.27

>  <PUBCHEM_EFFECTIVE_ROTOR_COUNT>  (1) 
13

>  <PUBCHEM_PHARMACOPHORE_FEATURES>  (1) 
7
1 3 acceptor
1 4 acceptor
1 5 cation
1 6 donor
1 7 donor
6 17 19 21 23 25 27 rings
6 18 20 22 24 26 28 rings

>  <PUBCHEM_HEAVY_ATOM_COUNT>  (1) 
28

>  <PUBCHEM_ATOM_DEF_STEREO_COUNT>  (1) 
0

>  <PUBCHEM_ATOM_UDEF_STEREO_COUNT>  (1) 
0

>  <PUBCHEM_BOND_DEF_STEREO_COUNT>  (1) 
0

>  <PUBCHEM_BOND_UDEF_STEREO_COUNT>  (1) 
0

>  <PUBCHEM_ISOTOPIC_ATOM_COUNT>  (1) 
0

>  <PUBCHEM_COMPONENT_COUNT>  (1) 
1

>  <PUBCHEM_CACTVS_TAUTO_COUNT>  (1) 
3

>  <PUBCHEM_CONFORMER_ID>  (1) 
0000845600000001

>  <PUBCHEM_MMFF94_ENERGY>  (1) 
73.3839

>  <PUBCHEM_FEATURE_SELFOVERLAP>  (1) 
35.521

>  <PUBCHEM_SHAPE_FINGERPRINT>  (1) 
10675989 125 17691968163831492568
10937287 8 18193835946692394628
11014199 57 18192714677224943116
11059845 2 18120626112778620856
11477941 20 17982171424957505340
12788726 201 18335969956939484675
138480 1 16825586986876670080
13944108 23 17183631988254420996
14068700 686 18193280694206922417
14251764 75 18053387595536206736
14363568 33 17110734912307804800
14508225 48 17909538803117783943
15198563 99 18269268148406694759
15400415 2 18194681471805223680
15684970 41 17326920846187481658
15961568 22 17620189176180111432
18681886 176 16684277744803121519
20101258 96 18121220054372179987
21796203 349 17324680010791690378
376196 1 18046910372900221451
508706 21 18342170107498659600
6700243 42 17768287774491837284
7288768 16 18041564620100954297
9849439 229 18264203604264685140
9981440 41 18263645057027165801

>  <PUBCHEM_SHAPE_MULTIPOLES>  (1) 
537.81
11.81
10.47
1.26
27.14
2.86
0.35
8.53
-0.81
-20.89
-0.77
-0.45
-1.62
1.76

>  <PUBCHEM_SHAPE_SELFOVERLAP>  (1) 
1111.063

>  <PUBCHEM_SHAPE_VOLUME>  (1) 
307.4

>  <PUBCHEM_COORDINATE_TYPE>  (1) 
2
5
10

$$$$
