33888
     RDKit          3D

 15 15  0  0  0  0  0  0  0  0999 V2000
   -1.5950    0.7370    0.1811 N   0  0  0  0  0  0  0  0  0  0  0  0
    0.4902   -0.3284    0.0558 N   0  0  0  0  0  0  0  0  0  0  0  0
    2.6039   -1.3371   -0.0668 N   0  0  0  0  0  0  0  0  0  0  0  0
    0.3351    2.0658    0.0939 N   0  0  0  0  0  0  0  0  0  0  0  0
    2.4835    1.0046   -0.0331 N   0  0  0  0  0  0  0  0  0  0  0  0
   -3.8355   -0.3007    0.2442 C   0  0  0  0  0  0  0  0  0  0  0  0
   -2.3159   -0.5139    0.2038 C   0  0  0  0  0  0  0  0  0  0  0  0
   -4.3357    0.5034   -0.9571 C   0  0  0  0  0  0  0  0  0  0  0  0
   -4.5987   -1.6211    0.3628 C   0  0  0  0  0  0  0  0  0  0  0  0
   -0.2143    0.8276    0.1075 C   0  0  0  0  0  0  0  0  0  0  0  0
    1.8211   -0.1632   -0.0128 C   0  0  0  0  0  0  0  0  0  0  0  0
    2.0362   -2.6487   -0.0532 C   0  0  0  0  0  0  0  0  0  0  0  0
    1.6760    2.0760    0.0231 C   0  0  0  0  0  0  0  0  0  0  0  0
    3.1139   -3.7145   -0.1561 C   0  0  0  0  0  0  0  0  0  0  0  0
    2.3353    3.4130    0.0068 C   0  0  0  0  0  0  0  0  0  0  0  0
  1  7  1  0
  1 10  1  0
  2 10  2  0
  2 11  1  0
  3 11  1  0
  3 12  1  0
  4 10  1  0
  4 13  2  0
  5 11  2  0
  5 13  1  0
  6  7  1  0
  6  8  1  0
  6  9  1  0
 12 14  1  0
 13 15  1  0
M  END
>  <PUBCHEM_COMPOUND_CID>  (1) 
33888

>  <PUBCHEM_CONFORMER_RMSD>  (1) 
0.6

>  <PUBCHEM_CONFORMER_DIVERSEORDER>  (1) 
1
35
14
12
21
4
18
25
27
30
9
33
26
10
29
22
28
34
15
19
2
32
24
13
31
11
16
23
8
3
7
17
20
5
6

>  <PUBCHEM_MMFF94_PARTIAL_CHARGES>  (1) 
13
1 -0.87
10 0.72
11 0.72
12 0.37
13 0.48
15 0.14
2 -0.62
25 0.4
28 0.4
3 -0.87
4 -0.62
5 -0.62
7 0.37

>  <PUBCHEM_EFFECTIVE_ROTOR_COUNT>  (1) 
5

>  <PUBCHEM_PHARMACOPHORE_FEATURES>  (1) 
6
1 1 donor
1 3 donor
3 6 8 9 hydrophobe
4 1 2 4 10 cation
4 2 3 5 11 cation
6 2 4 5 10 11 13 rings

>  <PUBCHEM_HEAVY_ATOM_COUNT>  (1) 
15

>  <PUBCHEM_ATOM_DEF_STEREO_COUNT>  (1) 
0

>  <PUBCHEM_ATOM_UDEF_STEREO_COUNT>  (1) 
0

>  <PUBCHEM_BOND_DEF_STEREO_COUNT>  (1) 
0

>  <PUBCHEM_BOND_UDEF_STEREO_COUNT>  (1) 
0

>  <PUBCHEM_ISOTOPIC_ATOM_COUNT>  (1) 
0

>  <PUBCHEM_COMPONENT_COUNT>  (1) 
1

>  <PUBCHEM_CACTVS_TAUTO_COUNT>  (1) 
9

>  <PUBCHEM_CONFORMER_ID>  (1) 
0000846000000001

>  <PUBCHEM_MMFF94_ENERGY>  (1) 
33.5313

>  <PUBCHEM_FEATURE_SELFOVERLAP>  (1) 
30.488

>  <PUBCHEM_SHAPE_FINGERPRINT>  (1) 
11265709 11 18122628253936965522
12107183 9 18054241938525864241
12532896 13 17765717206273978044
12553582 1 18122921831889163538
13533116 47 18343304808278710643
13955234 65 18340771541307739531
15042514 8 17546452176154945562
15442244 35 18268997483968363761
15477762 27 18411138021768787978
15502722 9 18337956800040974165
17539 30 17618214010460807196
18186145 218 17749102284429707281
20645477 70 18336256916826594599
20671657 53 18268151967868391191
20871998 22 18339640015057081146
21452121 199 18191300477811949274
221490 88 18335708247307246627
2255824 54 18340210786035048708
22943178 12 18186797011439048655
23526113 38 18114471084307275491
23530152 11 17978234082118190548
23559900 14 18410284805145914457
257057 1 18122344584384713472
3060560 45 18265057014714657276
3091708 16 9143380929947229552
33824 294 18265615562094289947
3421961 26 18411981325754783826
54173680 148 17762339115605710104
58779409 8 17688604075083228852
6025842 7 18339077215543566383
7364860 26 18411701010593017456
81539 233 18191303977693460628
9709674 26 18334577966839840731

>  <PUBCHEM_SHAPE_MULTIPOLES>  (1) 
283.79
7.65
3.96
0.68
10.41
1.16
-0.06
3.62
-0.5
-6.32
-0.09
0.37
0
0.57

>  <PUBCHEM_SHAPE_SELFOVERLAP>  (1) 
556.709

>  <PUBCHEM_SHAPE_VOLUME>  (1) 
162.3

>  <PUBCHEM_COORDINATE_TYPE>  (1) 
2
5
10

$$$$
