33889
     RDKit          3D

 16 16  0  0  0  0  0  0  0  0999 V2000
   -1.7596   -0.7848   -0.1972 N   0  0  0  0  0  0  0  0  0  0  0  0
    2.5982    0.9410   -0.0373 N   0  0  0  0  0  0  0  0  0  0  0  0
    0.4079    0.1075   -0.1204 N   0  0  0  0  0  0  0  0  0  0  0  0
    0.0542   -2.2651   -0.0624 N   0  0  0  0  0  0  0  0  0  0  0  0
    2.2838   -1.3822    0.0194 N   0  0  0  0  0  0  0  0  0  0  0  0
   -3.9067    0.4323   -0.2945 C   0  0  0  0  0  0  0  0  0  0  0  0
   -2.3743    0.5198   -0.2689 C   0  0  0  0  0  0  0  0  0  0  0  0
   -4.4630   -0.2774    0.9410 C   0  0  0  0  0  0  0  0  0  0  0  0
   -4.5583    1.8057   -0.4648 C   0  0  0  0  0  0  0  0  0  0  0  0
    2.1414    2.2938   -0.1045 C   0  0  0  0  0  0  0  0  0  0  0  0
   -0.3907   -0.9870   -0.1251 C   0  0  0  0  0  0  0  0  0  0  0  0
    1.7206   -0.1649   -0.0472 C   0  0  0  0  0  0  0  0  0  0  0  0
    3.2771    3.1833   -0.5926 C   0  0  0  0  0  0  0  0  0  0  0  0
    1.6438    2.7315    1.2670 C   0  0  0  0  0  0  0  0  0  0  0  0
    1.3899   -2.3839    0.0073 C   0  0  0  0  0  0  0  0  0  0  0  0
    1.9359   -3.7693    0.0802 C   0  0  0  0  0  0  0  0  0  0  0  0
  1  7  1  0
  1 11  1  0
  2 10  1  0
  2 12  1  0
  3 11  2  0
  3 12  1  0
  4 11  1  0
  4 15  2  0
  5 12  2  0
  5 15  1  0
  6  7  1  0
  6  8  1  0
  6  9  1  0
 10 13  1  0
 10 14  1  0
 15 16  1  0
M  END
>  <PUBCHEM_COMPOUND_CID>  (1) 
33889

>  <PUBCHEM_CONFORMER_RMSD>  (1) 
0.6

>  <PUBCHEM_CONFORMER_DIVERSEORDER>  (1) 
1
32
57
25
42
39
54
59
58
48
23
19
15
56
28
44
22
37
61
31
26
63
30
24
29
16
62
27
35
12
38
53
55
46
41
20
21
60
5
34
8
43
47
51
50
14
33
36
45
49
17
13
2
7
4
52
3
11
40
6
10
9
18

>  <PUBCHEM_MMFF94_PARTIAL_CHARGES>  (1) 
13
1 -0.87
10 0.37
11 0.72
12 0.72
15 0.48
16 0.14
2 -0.87
27 0.4
28 0.4
3 -0.62
4 -0.62
5 -0.62
7 0.37

>  <PUBCHEM_EFFECTIVE_ROTOR_COUNT>  (1) 
5

>  <PUBCHEM_PHARMACOPHORE_FEATURES>  (1) 
7
1 1 donor
1 2 donor
3 10 13 14 hydrophobe
3 6 8 9 hydrophobe
4 1 3 4 11 cation
4 2 3 5 12 cation
6 3 4 5 11 12 15 rings

>  <PUBCHEM_HEAVY_ATOM_COUNT>  (1) 
16

>  <PUBCHEM_ATOM_DEF_STEREO_COUNT>  (1) 
0

>  <PUBCHEM_ATOM_UDEF_STEREO_COUNT>  (1) 
0

>  <PUBCHEM_BOND_DEF_STEREO_COUNT>  (1) 
0

>  <PUBCHEM_BOND_UDEF_STEREO_COUNT>  (1) 
0

>  <PUBCHEM_ISOTOPIC_ATOM_COUNT>  (1) 
0

>  <PUBCHEM_COMPONENT_COUNT>  (1) 
1

>  <PUBCHEM_CACTVS_TAUTO_COUNT>  (1) 
9

>  <PUBCHEM_CONFORMER_ID>  (1) 
0000846100000001

>  <PUBCHEM_MMFF94_ENERGY>  (1) 
37.0719

>  <PUBCHEM_FEATURE_SELFOVERLAP>  (1) 
35.563

>  <PUBCHEM_SHAPE_FINGERPRINT>  (1) 
10608611 8 18334857178431563557
10681291 71 18193568975857432308
12173636 292 17906448084458152028
13134695 92 18121491358760936167
14123255 52 18266177412341229397
14178000 15 18124591977240173622
17134986 127 18337393858851664956
1741750 31 18051973916014514024
18186145 218 18201728374643305421
18785283 64 18333453157643142278
20645477 70 18267860589224824911
20671657 1 18272365382277681089
20681677 76 18335700508303251615
21041028 32 17979913809051121495
21065198 57 18264491694371434555
21478907 32 17113535918317311511
21524375 3 18199466747648950574
21639500 275 18340190934854494869
221490 88 18335991852772352395
2255824 54 18341049631581584919
22943178 12 18113902620412112155
23532345 1 18409444791679990781
23558518 356 17975685410123681354
23559900 14 18264201414485206163
25 1 18199755902190963420
3071541 12 18410857642188079510
3091708 16 9402389563955772818
31174 14 18262798463106673103
458136 41 18338247058209902905
474 4 18410852187663977009
49207404 50 18188781651191044081
6442390 28 18050578631268661747
68521 5 17546446674629419710
7364860 26 18411980226237718766
7471813 234 17843097239807293821
7808743 9 17688032333084546964
81228 2 17260751741888549530
84936 182 18272083928776222985

>  <PUBCHEM_SHAPE_MULTIPOLES>  (1) 
304.37
7.35
4.24
0.81
10.66
1.04
0.17
-4.45
-0.1
-5.6
0.12
0.12
-0.39
0.27

>  <PUBCHEM_SHAPE_SELFOVERLAP>  (1) 
598.412

>  <PUBCHEM_SHAPE_VOLUME>  (1) 
174.3

>  <PUBCHEM_COORDINATE_TYPE>  (1) 
2
5
10

$$$$
