33886
     RDKit          3D

 30 31  0  0  0  0  0  0  0  0999 V2000
   -4.0455    1.1906   -2.3047 Cl  0  0  0  0  0  0  0  0  0  0  0  0
    0.5114    1.5403   -0.7623 O   0  0  0  0  0  0  0  0  0  0  0  0
   -1.9250    2.3632   -0.5655 O   0  0  0  0  0  0  0  0  0  0  0  0
    5.8226    1.1454    0.6944 O   0  0  0  0  0  0  0  0  0  0  0  0
   -2.4338   -3.3140    0.3379 N   0  0  0  0  0  0  0  0  0  0  0  0
   -2.8216    0.4135    0.3937 N   0  0  0  0  0  0  0  0  0  0  0  0
   -2.7077   -1.9835   -0.1895 C   0  0  0  0  0  0  0  0  0  0  0  0
   -2.5771   -0.9412    0.9113 C   0  0  0  0  0  0  0  0  0  0  0  0
   -0.9919   -3.5272    0.4778 C   0  0  0  0  0  0  0  0  0  0  0  0
   -3.0165   -4.3422   -0.5267 C   0  0  0  0  0  0  0  0  0  0  0  0
   -4.1728    0.9352    0.4100 C   0  0  0  0  0  0  0  0  0  0  0  0
   -0.6947   -4.8857    1.0896 C   0  0  0  0  0  0  0  0  0  0  0  0
   -2.3953   -4.3107   -1.9128 C   0  0  0  0  0  0  0  0  0  0  0  0
   -1.7867    1.2210   -0.1175 C   0  0  0  0  0  0  0  0  0  0  0  0
   -0.3956    0.6156   -0.1641 C   0  0  0  0  0  0  0  0  0  0  0  0
   -4.8193    1.3177   -0.7654 C   0  0  0  0  0  0  0  0  0  0  0  0
   -4.8276    1.0528    1.6360 C   0  0  0  0  0  0  0  0  0  0  0  0
   -6.1206    1.8176   -0.7145 C   0  0  0  0  0  0  0  0  0  0  0  0
   -6.1288    1.5529    1.6868 C   0  0  0  0  0  0  0  0  0  0  0  0
    7.9538    0.1766    0.1915 C   0  0  0  0  0  0  0  0  0  0  0  0
   -6.7752    1.9353    0.5116 C   0  0  0  0  0  0  0  0  0  0  0  0
    8.7139   -1.1087   -0.1233 C   0  0  0  0  0  0  0  0  0  0  0  0
    6.4728   -0.0884    0.4222 C   0  0  0  0  0  0  0  0  0  0  0  0
    1.8211    1.4427   -0.4050 C   0  0  0  0  0  0  0  0  0  0  0  0
    4.5044    1.2432    0.3315 C   0  0  0  0  0  0  0  0  0  0  0  0
    2.3550    0.2059   -0.0430 C   0  0  0  0  0  0  0  0  0  0  0  0
    2.6290    2.5799   -0.3989 C   0  0  0  0  0  0  0  0  0  0  0  0
   10.1842   -0.8340   -0.3955 C   0  0  0  0  0  0  0  0  0  0  0  0
    3.6966    0.1061    0.3251 C   0  0  0  0  0  0  0  0  0  0  0  0
    3.9708    2.4801   -0.0307 C   0  0  0  0  0  0  0  0  0  0  0  0
  1 16  1  0
  2 15  1  0
  2 24  1  0
  3 14  2  0
  4 23  1  0
  4 25  1  0
  5  7  1  0
  5  9  1  0
  5 10  1  0
  6  8  1  0
  6 11  1  0
  6 14  1  0
  7  8  1  0
  9 12  1  0
 10 13  1  0
 11 16  2  0
 11 17  1  0
 14 15  1  0
 16 18  1  0
 17 19  2  0
 18 21  2  0
 19 21  1  0
 20 22  1  0
 20 23  1  0
 22 28  1  0
 24 26  2  0
 24 27  1  0
 25 29  2  0
 25 30  1  0
 26 29  1  0
 27 30  2  0
M  END
>  <PUBCHEM_COMPOUND_CID>  (1) 
33886

>  <PUBCHEM_CONFORMER_RMSD>  (1) 
1.2

>  <PUBCHEM_CONFORMER_DIVERSEORDER>  (1) 
2
55
12
57
43
45
76
77
35
24
17
38
56
111
36
112
68
51
25
27
40
109
26
37
81
69
113
49
8
62
101
30
114
99
61
20
115
28
65
110
22
39
80
47
33
104
23
53
10
59
11
85
98
42
29
70
6
13
87
15
60
107
91
96
88
78
58
64
46
67
50
102
75
103
1
66
84
94
54
72
31
9
93
18
79
97
14
95
48
100
7
86
5
21
92
89
4
34
90
83
106
108
73
16
19
105
41
3
44
82
32
63
74
52
71

>  <PUBCHEM_MMFF94_PARTIAL_CHARGES>  (1) 
33
1 -0.18
10 0.27
11 0.12
14 0.57
15 0.34
16 0.18
17 -0.15
18 -0.15
19 -0.15
2 -0.36
21 -0.15
23 0.28
24 0.08
25 0.08
26 -0.15
27 -0.15
29 -0.15
3 -0.57
30 -0.15
4 -0.36
47 0.15
48 0.15
49 0.15
5 -0.81
54 0.15
57 0.15
58 0.15
6 -0.48
62 0.15
63 0.15
7 0.27
8 0.3
9 0.27

>  <PUBCHEM_EFFECTIVE_ROTOR_COUNT>  (1) 
14

>  <PUBCHEM_PHARMACOPHORE_FEATURES>  (1) 
7
1 2 acceptor
1 28 hydrophobe
1 3 acceptor
1 4 acceptor
1 5 cation
6 11 16 17 18 19 21 rings
6 24 25 26 27 29 30 rings

>  <PUBCHEM_HEAVY_ATOM_COUNT>  (1) 
30

>  <PUBCHEM_ATOM_DEF_STEREO_COUNT>  (1) 
0

>  <PUBCHEM_ATOM_UDEF_STEREO_COUNT>  (1) 
0

>  <PUBCHEM_BOND_DEF_STEREO_COUNT>  (1) 
0

>  <PUBCHEM_BOND_UDEF_STEREO_COUNT>  (1) 
0

>  <PUBCHEM_ISOTOPIC_ATOM_COUNT>  (1) 
0

>  <PUBCHEM_COMPONENT_COUNT>  (1) 
1

>  <PUBCHEM_CACTVS_TAUTO_COUNT>  (1) 
1

>  <PUBCHEM_CONFORMER_ID>  (1) 
0000845E00000002

>  <PUBCHEM_MMFF94_ENERGY>  (1) 
97.6742

>  <PUBCHEM_FEATURE_SELFOVERLAP>  (1) 
35.534

>  <PUBCHEM_SHAPE_FINGERPRINT>  (1) 
10050765 1 18265334105009955580
10305334 12 18412546517655149670
11524674 6 18411702084730343871
12107183 9 18409451384228209960
12643181 29 18411699885802189746
12788726 201 18051682533028637227
12977781 61 17416991537158659903
14117953 113 18335420136495443780
14444916 359 18336273348939010882
14856354 85 16226056604027850769
14866123 147 18266180707309249827
15230672 131 18334571322736398138
15361156 5 18041006184759424196
15439362 3 18119524333350095697
16112460 7 18341336570041390154
18603816 31 17703777129229508134
19611394 137 11742967300605265349
21133665 82 18261675866177296170
21150785 3 13262405453772061688
21267235 1 18186805751698392468
21781055 127 18195270848217222037
23516275 137 17970362416830766682
23559900 14 18339635754677098088
23569917 315 18410859897579342031
249057 3 18407761434993539392
255183 313 18268163105631102835
335352 9 18335419058706312124
38695281 34 18337388250119968953
4017518 198 18341611490624194270
4073 2 18342455989385641800
5104073 3 18268706289607445128
559249 180 18409447011666425339
59755656 520 18410289220615050149
6009941 240 18272652364114790858
6669772 16 18338800005322350279
6691757 9 18059863865436921027

>  <PUBCHEM_SHAPE_MULTIPOLES>  (1) 
591.69
22.32
5.08
1.34
56.92
9.75
0.34
-6.77
-1.55
-6.12
0.51
-2.39
0.21
-0.62

>  <PUBCHEM_SHAPE_SELFOVERLAP>  (1) 
1199.771

>  <PUBCHEM_SHAPE_VOLUME>  (1) 
345.1

>  <PUBCHEM_COORDINATE_TYPE>  (1) 
2
5
10

$$$$
