33898
     RDKit          3D

 14 14  0  0  0  0  0  0  0  0999 V2000
   -3.0486   -0.9709   -1.4673 Cl  0  0  0  0  0  0  0  0  0  0  0  0
   -1.4202   -2.8363    0.0078 Cl  0  0  0  0  0  0  0  0  0  0  0  0
   -3.0549   -0.9527    1.4593 Cl  0  0  0  0  0  0  0  0  0  0  0  0
    2.6009    0.0969    0.0093 N   0  0  0  0  0  0  0  0  0  0  0  0
    0.3374   -0.5158    0.0028 N   0  0  0  0  0  0  0  0  0  0  0  0
    0.9837    1.7950    0.0011 N   0  0  0  0  0  0  0  0  0  0  0  0
   -1.3407    1.1994   -0.0039 N   0  0  0  0  0  0  0  0  0  0  0  0
   -0.6789    3.4490   -0.0038 N   0  0  0  0  0  0  0  0  0  0  0  0
    3.0531   -1.2659    0.0145 C   0  0  0  0  0  0  0  0  0  0  0  0
    1.2622    0.4714    0.0036 C   0  0  0  0  0  0  0  0  0  0  0  0
   -0.9327   -0.0799   -0.0010 C   0  0  0  0  0  0  0  0  0  0  0  0
    4.5652   -1.3488   -0.0195 C   0  0  0  0  0  0  0  0  0  0  0  0
   -0.3282    2.0813   -0.0029 C   0  0  0  0  0  0  0  0  0  0  0  0
   -1.9982   -1.1226   -0.0002 C   0  0  0  0  0  0  0  0  0  0  0  0
  1 14  1  0
  2 14  1  0
  3 14  1  0
  4  9  1  0
  4 10  1  0
  5 10  2  0
  5 11  1  0
  6 10  1  0
  6 13  2  0
  7 11  2  0
  7 13  1  0
  8 13  1  0
  9 12  1  0
 11 14  1  0
M  END
>  <PUBCHEM_COMPOUND_CID>  (1) 
33898

>  <PUBCHEM_CONFORMER_RMSD>  (1) 
0.6

>  <PUBCHEM_CONFORMER_DIVERSEORDER>  (1) 
1
8
6
4
7
2
5
9
3

>  <PUBCHEM_MMFF94_PARTIAL_CHARGES>  (1) 
16
1 -0.29
10 0.72
11 0.48
13 0.72
14 1.01
17 0.4
2 -0.29
21 0.4
22 0.4
3 -0.29
4 -0.87
5 -0.62
6 -0.62
7 -0.62
8 -0.9
9 0.37

>  <PUBCHEM_EFFECTIVE_ROTOR_COUNT>  (1) 
3

>  <PUBCHEM_PHARMACOPHORE_FEATURES>  (1) 
5
1 4 donor
1 8 donor
4 4 5 6 10 cation
4 6 7 8 13 cation
6 5 6 7 10 11 13 rings

>  <PUBCHEM_HEAVY_ATOM_COUNT>  (1) 
14

>  <PUBCHEM_ATOM_DEF_STEREO_COUNT>  (1) 
0

>  <PUBCHEM_ATOM_UDEF_STEREO_COUNT>  (1) 
0

>  <PUBCHEM_BOND_DEF_STEREO_COUNT>  (1) 
0

>  <PUBCHEM_BOND_UDEF_STEREO_COUNT>  (1) 
0

>  <PUBCHEM_ISOTOPIC_ATOM_COUNT>  (1) 
0

>  <PUBCHEM_COMPONENT_COUNT>  (1) 
1

>  <PUBCHEM_CACTVS_TAUTO_COUNT>  (1) 
9

>  <PUBCHEM_CONFORMER_ID>  (1) 
0000846A00000001

>  <PUBCHEM_MMFF94_ENERGY>  (1) 
31.404

>  <PUBCHEM_FEATURE_SELFOVERLAP>  (1) 
25.414

>  <PUBCHEM_SHAPE_FINGERPRINT>  (1) 
11357001 24 18263930938418379496
12553582 1 18411145761690394942
14178342 30 17765995382356901739
16945 1 18050567644837244417
20645477 70 17688013632981387671
20711985 344 18264755580586838104
20711985 365 18408886204980819060
20871998 184 18270123387942923998
20871998 22 18338237188353944864
21061003 4 18334585680395142187
21524375 3 17472693633339584184
23402539 116 18271515416966559039
23526113 38 18043516420981052691
23552423 10 17763187242734321751
23557571 272 18201447922485866596
23559900 14 18340195311980005264
23598294 1 18264205803677883146
2748010 2 18338225050634279245
57426455 70 18336563671643290747
6338986 31 18269822250537613934
6992083 37 18201170926569526659
7364860 26 17835239321786250336
81228 2 18336819788948547208

>  <PUBCHEM_SHAPE_MULTIPOLES>  (1) 
268.82
5.71
3.08
0.95
5.63
2
0
-4.51
-0.02
-0.49
0
-1.11
-0.31
0

>  <PUBCHEM_SHAPE_SELFOVERLAP>  (1) 
514.829

>  <PUBCHEM_SHAPE_VOLUME>  (1) 
162

>  <PUBCHEM_COORDINATE_TYPE>  (1) 
2
5
10

$$$$
