33892
     RDKit          3D

 16 16  0  0  0  0  0  0  0  0999 V2000
   -1.8847   -1.2352    0.0087 N   0  0  0  0  0  0  0  0  0  0  0  0
    2.2974    0.8871    0.0104 N   0  0  0  0  0  0  0  0  0  0  0  0
    0.2206   -0.2024    0.0102 N   0  0  0  0  0  0  0  0  0  0  0  0
   -1.7872    1.1029   -0.1411 N   0  0  0  0  0  0  0  0  0  0  0  0
    0.3527    2.1888   -0.1403 N   0  0  0  0  0  0  0  0  0  0  0  0
   -3.3309   -1.1680   -0.0419 C   0  0  0  0  0  0  0  0  0  0  0  0
   -1.2389   -2.5288    0.0999 C   0  0  0  0  0  0  0  0  0  0  0  0
   -1.1129   -0.0542   -0.0439 C   0  0  0  0  0  0  0  0  0  0  0  0
    3.0313   -0.3509    0.1152 C   0  0  0  0  0  0  0  0  0  0  0  0
    4.5297   -0.0838    0.2125 C   0  0  0  0  0  0  0  0  0  0  0  0
   -3.9133   -0.8402    1.3226 C   0  0  0  0  0  0  0  0  0  0  0  0
   -0.7735   -3.0075   -1.2649 C   0  0  0  0  0  0  0  0  0  0  0  0
    0.9142    0.9600   -0.0422 C   0  0  0  0  0  0  0  0  0  0  0  0
   -0.9894    2.1822   -0.1846 C   0  0  0  0  0  0  0  0  0  0  0  0
    5.3475   -1.3582    0.3704 C   0  0  0  0  0  0  0  0  0  0  0  0
   -1.6625    3.5082   -0.2909 C   0  0  0  0  0  0  0  0  0  0  0  0
  1  6  1  0
  1  7  1  0
  1  8  1  0
  2  9  1  0
  2 13  1  0
  3  8  2  0
  3 13  1  0
  4  8  1  0
  4 14  2  0
  5 13  2  0
  5 14  1  0
  6 11  1  0
  7 12  1  0
  9 10  1  0
 10 15  1  0
 14 16  1  0
M  END
>  <PUBCHEM_COMPOUND_CID>  (1) 
33892

>  <PUBCHEM_CONFORMER_RMSD>  (1) 
0.8

>  <PUBCHEM_CONFORMER_DIVERSEORDER>  (1) 
1
30
5
24
36
26
22
15
20
35
37
23
6
13
29
21
25
31
28
27
18
11
17
4
8
12
14
32
7
9
19
34
33
2
10
3
16

>  <PUBCHEM_MMFF94_PARTIAL_CHARGES>  (1) 
13
1 -0.84
13 0.72
14 0.48
16 0.14
2 -0.87
3 -0.62
31 0.4
4 -0.62
5 -0.62
6 0.37
7 0.37
8 0.72
9 0.37

>  <PUBCHEM_EFFECTIVE_ROTOR_COUNT>  (1) 
6

>  <PUBCHEM_PHARMACOPHORE_FEATURES>  (1) 
5
1 15 hydrophobe
1 2 donor
4 1 3 4 8 cation
4 2 3 5 13 cation
6 3 4 5 8 13 14 rings

>  <PUBCHEM_HEAVY_ATOM_COUNT>  (1) 
16

>  <PUBCHEM_ATOM_DEF_STEREO_COUNT>  (1) 
0

>  <PUBCHEM_ATOM_UDEF_STEREO_COUNT>  (1) 
0

>  <PUBCHEM_BOND_DEF_STEREO_COUNT>  (1) 
0

>  <PUBCHEM_BOND_UDEF_STEREO_COUNT>  (1) 
0

>  <PUBCHEM_ISOTOPIC_ATOM_COUNT>  (1) 
0

>  <PUBCHEM_COMPONENT_COUNT>  (1) 
1

>  <PUBCHEM_CACTVS_TAUTO_COUNT>  (1) 
4

>  <PUBCHEM_CONFORMER_ID>  (1) 
0000846400000001

>  <PUBCHEM_MMFF94_ENERGY>  (1) 
36.0449

>  <PUBCHEM_FEATURE_SELFOVERLAP>  (1) 
25.414

>  <PUBCHEM_SHAPE_FINGERPRINT>  (1) 
10616163 171 18410009893549710034
11357001 24 18335981986841895008
12500047 106 18267573608142011056
12507560 14 18270406130335881015
12553582 1 18338234998137005598
13140716 1 18196376037653989778
15042514 8 18263085422519497128
15279308 51 17982169229849538391
15442244 35 18124319573619546499
16752209 62 18264752320701249074
16945 1 17833552671471793229
17804303 29 18413672413662053072
19141452 34 18202003273730076599
193761 8 17978231548198158239
19784866 135 18408882932247271560
20510252 161 18271525308286875720
20711985 365 18408885144071350844
20871998 184 18412545375224828292
21029758 27 18260839244844083709
21339142 126 18412541015759306150
22182313 1 18126296250328173375
22959321 94 18336256921058232650
23402539 116 18272080613351296047
23526113 38 17630033855043709352
23552423 10 17330556960966800735
23557571 272 18272098184563865196
23559900 14 18411970370147812488
23598294 1 18263914463108539552
2748010 2 18196379117266607023
3091708 16 9422353392117945121
3250762 1 17835533622026086175
34934 24 18122058968722081756
352729 6 18265894644621716557
465052 167 18117013267556448291
559249 180 18118114772249411986
57426455 70 18335711593202548579
58051976 100 18187926106601294484
6992083 37 18198636612486624955

>  <PUBCHEM_SHAPE_MULTIPOLES>  (1) 
304.37
7.48
3.55
0.84
11.25
1.22
0.03
-3.52
2.28
-2.68
-0.99
-0.49
-0.42
0.11

>  <PUBCHEM_SHAPE_SELFOVERLAP>  (1) 
596.284

>  <PUBCHEM_SHAPE_VOLUME>  (1) 
175.4

>  <PUBCHEM_COORDINATE_TYPE>  (1) 
2
5
10

$$$$
