3389
     RDKit          3D

 38 41  0  0  0  0  0  0  0  0999 V2000
    6.7990    1.9790   -1.0673 S   0  0  0  0  0  0  0  0  0  0  0  0
    0.7941    4.4239    0.6718 F   0  0  0  0  0  0  0  0  0  0  0  0
    0.1481    2.5474   -0.2029 F   0  0  0  0  0  0  0  0  0  0  0  0
    0.7914    2.6115    1.8733 F   0  0  0  0  0  0  0  0  0  0  0  0
   -5.3279   -1.3127   -0.4601 O   0  0  0  0  0  0  0  0  0  0  0  0
   -6.3902   -0.8000    1.5222 O   0  0  0  0  0  0  0  0  0  0  0  0
    1.0139   -2.5011    0.2613 N   0  0  0  0  0  0  0  0  0  0  0  0
   -1.8605   -2.4907   -0.0499 N   0  0  0  0  0  0  0  0  0  0  0  0
    4.6934   -0.1936   -0.3521 N   0  0  0  0  0  0  0  0  0  0  0  0
    0.1561   -1.6819    1.1265 C   0  0  0  0  0  0  0  0  0  0  0  0
    0.2920   -3.6958   -0.1935 C   0  0  0  0  0  0  0  0  0  0  0  0
   -1.1385   -1.2953    0.4028 C   0  0  0  0  0  0  0  0  0  0  0  0
   -1.0031   -3.3094   -0.9159 C   0  0  0  0  0  0  0  0  0  0  0  0
    2.2467   -2.8714    0.9535 C   0  0  0  0  0  0  0  0  0  0  0  0
    3.2711   -1.7327    0.9476 C   0  0  0  0  0  0  0  0  0  0  0  0
   -3.0943   -2.1213   -0.7406 C   0  0  0  0  0  0  0  0  0  0  0  0
    3.6712   -1.2441   -0.4441 C   0  0  0  0  0  0  0  0  0  0  0  0
   -4.1546   -1.6777    0.2546 C   0  0  0  0  0  0  0  0  0  0  0  0
    4.2443    1.1487   -0.2694 C   0  0  0  0  0  0  0  0  0  0  0  0
    6.0485   -0.6055   -0.2869 C   0  0  0  0  0  0  0  0  0  0  0  0
    5.1125    2.2232   -0.5468 C   0  0  0  0  0  0  0  0  0  0  0  0
    7.0955    0.2951   -0.5662 C   0  0  0  0  0  0  0  0  0  0  0  0
    2.9284    1.4740    0.1260 C   0  0  0  0  0  0  0  0  0  0  0  0
    6.4144   -1.9156    0.0922 C   0  0  0  0  0  0  0  0  0  0  0  0
    2.4891    2.7975    0.2190 C   0  0  0  0  0  0  0  0  0  0  0  0
   -6.3842   -0.8867    0.3019 C   0  0  0  0  0  0  0  0  0  0  0  0
    4.6639    3.5529   -0.4562 C   0  0  0  0  0  0  0  0  0  0  0  0
   -7.5344   -0.5075   -0.6046 C   0  0  0  0  0  0  0  0  0  0  0  0
   -8.7322    0.0679    0.1509 C   0  0  0  0  0  0  0  0  0  0  0  0
    8.4381   -0.1168   -0.4930 C   0  0  0  0  0  0  0  0  0  0  0  0
   -9.8896    0.4375   -0.7821 C   0  0  0  0  0  0  0  0  0  0  0  0
    3.3569    3.8380   -0.0756 C   0  0  0  0  0  0  0  0  0  0  0  0
    7.7506   -2.3183    0.1682 C   0  0  0  0  0  0  0  0  0  0  0  0
  -11.0830    0.9836    0.0044 C   0  0  0  0  0  0  0  0  0  0  0  0
    8.7633   -1.4188   -0.1280 C   0  0  0  0  0  0  0  0  0  0  0  0
    1.0850    3.0901    0.6294 C   0  0  0  0  0  0  0  0  0  0  0  0
  -12.2493    1.3264   -0.9221 C   0  0  0  0  0  0  0  0  0  0  0  0
  -13.4255    1.9000   -0.1482 C   0  0  0  0  0  0  0  0  0  0  0  0
  1 21  1  0
  1 22  1  0
  2 36  1  0
  3 36  1  0
  4 36  1  0
  5 18  1  0
  5 26  1  0
  6 26  2  0
  7 10  1  0
  7 11  1  0
  7 14  1  0
  8 12  1  0
  8 13  1  0
  8 16  1  0
  9 17  1  0
  9 19  1  0
  9 20  1  0
 10 12  1  0
 11 13  1  0
 14 15  1  0
 15 17  1  0
 16 18  1  0
 19 21  2  0
 19 23  1  0
 20 22  2  0
 20 24  1  0
 21 27  1  0
 22 30  1  0
 23 25  2  0
 24 33  2  0
 25 32  1  0
 25 36  1  0
 26 28  1  0
 27 32  2  0
 28 29  1  0
 29 31  1  0
 30 35  2  0
 31 34  1  0
 33 35  1  0
 34 37  1  0
 37 38  1  0
M  END
>  <PUBCHEM_COMPOUND_CID>  (1) 
3389

>  <PUBCHEM_CONFORMER_RMSD>  (1) 
1.4

>  <PUBCHEM_CONFORMER_DIVERSEORDER>  (1) 
1
113
45
8
77
67
25
107
131
95
55
44
127
125
16
108
94
71
111
126
121
39
30
69
79
33
41
139
78
130
140
106
143
102
89
48
46
117
87
7
100
42
47
65
110
57
70
75
144
116
29
135
9
64
114
146
104
18
128
76
34
49
96
19
82
17
123
60
90
88
26
73
20
122
35
66
43
24
59
91
132
36
3
138
141
14
93
52
145
27
124
5
119
50
38
56
32
61
13
109
112
134
53
12
105
101
51
23
68
81
92
99
115
21
40
10
97
22
86
85
84
103
133
63
28
74
37
98
118
72
15
2
142
129
11
58
120
62
136
137
54
83
4
6
31
80

>  <PUBCHEM_MMFF94_PARTIAL_CHARGES>  (1) 
39
1 -0.2
10 0.27
11 0.27
12 0.27
13 0.27
14 0.27
16 0.27
17 0.37
18 0.28
19 0.1
2 -0.34
20 0.1
21 0.1
22 0.1
23 -0.15
24 -0.15
25 -0.14
26 0.66
27 -0.15
28 0.06
3 -0.34
30 -0.15
32 -0.15
33 -0.15
35 -0.15
36 1.16
4 -0.34
5 -0.43
57 0.15
58 0.15
6 -0.57
61 0.15
64 0.15
67 0.15
68 0.15
7 -0.81
71 0.15
8 -0.81
9 -0.57

>  <PUBCHEM_EFFECTIVE_ROTOR_COUNT>  (1) 
15.6

>  <PUBCHEM_PHARMACOPHORE_FEATURES>  (1) 
10
1 38 hydrophobe
1 6 acceptor
1 7 cation
1 8 cation
1 9 cation
5 28 29 31 34 37 hydrophobe
6 1 9 19 20 21 22 rings
6 19 21 23 25 27 32 rings
6 20 22 24 30 33 35 rings
6 7 8 10 11 12 13 rings

>  <PUBCHEM_HEAVY_ATOM_COUNT>  (1) 
38

>  <PUBCHEM_ATOM_DEF_STEREO_COUNT>  (1) 
0

>  <PUBCHEM_ATOM_UDEF_STEREO_COUNT>  (1) 
0

>  <PUBCHEM_BOND_DEF_STEREO_COUNT>  (1) 
0

>  <PUBCHEM_BOND_UDEF_STEREO_COUNT>  (1) 
0

>  <PUBCHEM_ISOTOPIC_ATOM_COUNT>  (1) 
0

>  <PUBCHEM_COMPONENT_COUNT>  (1) 
1

>  <PUBCHEM_CACTVS_TAUTO_COUNT>  (1) 
1

>  <PUBCHEM_CONFORMER_ID>  (1) 
00000D3D00000001

>  <PUBCHEM_MMFF94_ENERGY>  (1) 
80.4292

>  <PUBCHEM_FEATURE_SELFOVERLAP>  (1) 
50.779

>  <PUBCHEM_SHAPE_FINGERPRINT>  (1) 
10483366 6 18412546521965161891
12664476 115 18113333099174630631
14117953 113 18202009832809685502
14400156 260 18334006221141122064
14400156 350 18413669098232670239
15439362 3 18049724315677908000
15890870 6 18409168818129599159
16087824 20 18410575098434275852
18335252 114 18410849980024829078
21057603 323 17979644434231946284
24893992 56 18335701689172098499
4144715 1 17900546984478787034
439807 62 18408042918328225796
54131252 126 18114188548948877668
57676310 18 18340771425143506520
58902169 19 18131062779279697799
59520647 33 17984143647817538945
60124534 255 15624279455457278377

>  <PUBCHEM_SHAPE_MULTIPOLES>  (1) 
737.37
37.93
5.02
1
144.2
2.62
-0.17
14.38
8.68
-5.43
-0.39
0.25
0.05
-0.42

>  <PUBCHEM_SHAPE_SELFOVERLAP>  (1) 
1520.792

>  <PUBCHEM_SHAPE_VOLUME>  (1) 
426.1

>  <PUBCHEM_COORDINATE_TYPE>  (1) 
2
5
10

$$$$
