33896
     RDKit          3D

 17 17  0  0  0  0  0  0  0  0999 V2000
    3.6109   -0.1050   -1.6089 Cl  0  0  0  0  0  0  0  0  0  0  0  0
    2.8257    2.3454   -0.3107 Cl  0  0  0  0  0  0  0  0  0  0  0  0
    3.7254    0.1310    1.3059 Cl  0  0  0  0  0  0  0  0  0  0  0  0
   -1.9800    1.0859   -0.0085 N   0  0  0  0  0  0  0  0  0  0  0  0
    0.3498    0.8312   -0.0849 N   0  0  0  0  0  0  0  0  0  0  0  0
   -1.0871   -1.0776    0.1374 N   0  0  0  0  0  0  0  0  0  0  0  0
    1.2935   -1.3701    0.0637 N   0  0  0  0  0  0  0  0  0  0  0  0
   -0.1357   -3.2164    0.2821 N   0  0  0  0  0  0  0  0  0  0  0  0
   -1.8309    2.5299   -0.1360 C   0  0  0  0  0  0  0  0  0  0  0  0
   -3.3285    0.5402    0.0797 C   0  0  0  0  0  0  0  0  0  0  0  0
   -0.8646    0.2487    0.0149 C   0  0  0  0  0  0  0  0  0  0  0  0
   -1.5059    3.1686    1.2037 C   0  0  0  0  0  0  0  0  0  0  0  0
   -3.8057    0.0346   -1.2712 C   0  0  0  0  0  0  0  0  0  0  0  0
    1.3755   -0.0348   -0.0535 C   0  0  0  0  0  0  0  0  0  0  0  0
    0.0316   -1.8201    0.1542 C   0  0  0  0  0  0  0  0  0  0  0  0
    2.7449    0.5452   -0.1578 C   0  0  0  0  0  0  0  0  0  0  0  0
   -1.4190   -3.8366    0.3901 C   0  0  0  0  0  0  0  0  0  0  0  0
  1 16  1  0
  2 16  1  0
  3 16  1  0
  4  9  1  0
  4 10  1  0
  4 11  1  0
  5 11  2  0
  5 14  1  0
  6 11  1  0
  6 15  2  0
  7 14  2  0
  7 15  1  0
  8 15  1  0
  8 17  1  0
  9 12  1  0
 10 13  1  0
 14 16  1  0
M  END
>  <PUBCHEM_COMPOUND_CID>  (1) 
33896

>  <PUBCHEM_CONFORMER_RMSD>  (1) 
0.6

>  <PUBCHEM_CONFORMER_DIVERSEORDER>  (1) 
1
18
30
33
24
27
42
32
45
21
19
39
38
44
43
10
20
49
46
12
36
47
28
50
40
7
25
41
3
22
6
23
8
37
34
35
31
16
11
48
2
26
4
29
15
9
13
17
14
5

>  <PUBCHEM_MMFF94_PARTIAL_CHARGES>  (1) 
16
1 -0.29
10 0.37
11 0.72
14 0.48
15 0.72
16 1.01
17 0.37
2 -0.29
28 0.4
3 -0.29
4 -0.84
5 -0.62
6 -0.62
7 -0.62
8 -0.87
9 0.37

>  <PUBCHEM_EFFECTIVE_ROTOR_COUNT>  (1) 
5

>  <PUBCHEM_PHARMACOPHORE_FEATURES>  (1) 
4
1 8 donor
4 4 5 6 11 cation
4 6 7 8 15 cation
6 5 6 7 11 14 15 rings

>  <PUBCHEM_HEAVY_ATOM_COUNT>  (1) 
17

>  <PUBCHEM_ATOM_DEF_STEREO_COUNT>  (1) 
0

>  <PUBCHEM_ATOM_UDEF_STEREO_COUNT>  (1) 
0

>  <PUBCHEM_BOND_DEF_STEREO_COUNT>  (1) 
0

>  <PUBCHEM_BOND_UDEF_STEREO_COUNT>  (1) 
0

>  <PUBCHEM_ISOTOPIC_ATOM_COUNT>  (1) 
0

>  <PUBCHEM_COMPONENT_COUNT>  (1) 
1

>  <PUBCHEM_CACTVS_TAUTO_COUNT>  (1) 
4

>  <PUBCHEM_CONFORMER_ID>  (1) 
0000846800000001

>  <PUBCHEM_MMFF94_ENERGY>  (1) 
42.1922

>  <PUBCHEM_FEATURE_SELFOVERLAP>  (1) 
20.34

>  <PUBCHEM_SHAPE_FINGERPRINT>  (1) 
108231 29 18269836578975651289
13140716 1 18267020755012903936
13380535 76 18412256246732745910
13538477 17 18187921845956741986
13583140 156 17022896904086880337
14178342 30 18052528881328489184
15042514 8 18336264655777738370
15490181 8 18338242561305394914
16945 1 18410580586727214202
18186145 218 18200597999169732204
193761 8 17545600518890244609
20510252 161 18341620355499483280
20645476 183 17676498292857455062
20671657 1 17621603808872391425
21501502 16 18050006584722037953
21524375 3 18114464465952419938
2334 1 17906173202018707536
23402539 116 18270100392519352772
23419403 2 16894788603898693052
23526113 38 17702965668574344454
23552423 10 17978508633639158119
23557571 272 18051141581696700412
23558518 356 18198627635857244101
23559900 14 18341900736140332596
23598291 2 17696190305682328061
23598294 1 18119810459090774498
2748010 2 17981044429190267330
305870 269 18121776132382981400
3071541 236 18262510506734396242
3091708 16 9198875450427512906
352729 6 18409731802326506266
43471831 8 18265049128880167571
58051976 378 18340481184238401183
633830 44 18271811198526987413
7364860 26 17835797495730945691
74978 22 18335986458451307404
81228 2 18122353633559332378

>  <PUBCHEM_SHAPE_MULTIPOLES>  (1) 
330.56
5.99
3.87
1.11
1.81
2.05
0.15
-1.94
1.31
-2.46
-1.17
0.55
-0.21
-0.15

>  <PUBCHEM_SHAPE_SELFOVERLAP>  (1) 
632.768

>  <PUBCHEM_SHAPE_VOLUME>  (1) 
200.6

>  <PUBCHEM_COORDINATE_TYPE>  (1) 
2
5
10

$$$$
