33893
     RDKit          3D

 16 16  0  0  0  0  0  0  0  0999 V2000
   -2.4899   -2.3119   -1.4682 Cl  0  0  0  0  0  0  0  0  0  0  0  0
   -0.2260   -3.3102    0.0097 Cl  0  0  0  0  0  0  0  0  0  0  0  0
   -2.5071   -2.2979    1.4583 Cl  0  0  0  0  0  0  0  0  0  0  0  0
    2.1711    1.0517    0.0144 N   0  0  0  0  0  0  0  0  0  0  0  0
    0.3813   -0.4633    0.0056 N   0  0  0  0  0  0  0  0  0  0  0  0
   -0.0137    1.9034    0.0032 N   0  0  0  0  0  0  0  0  0  0  0  0
   -1.8659    0.3781   -0.0041 N   0  0  0  0  0  0  0  0  0  0  0  0
   -2.2210    2.6960   -0.0045 N   0  0  0  0  0  0  0  0  0  0  0  0
    3.1598   -0.0199    0.0207 C   0  0  0  0  0  0  0  0  0  0  0  0
    4.5711    0.5612   -0.0071 C   0  0  0  0  0  0  0  0  0  0  0  0
    0.8121    0.8250    0.0069 C   0  0  0  0  0  0  0  0  0  0  0  0
    5.6223   -0.5379   -0.0226 C   0  0  0  0  0  0  0  0  0  0  0  0
   -0.9538   -0.6074    0.0000 C   0  0  0  0  0  0  0  0  0  0  0  0
   -1.3232    1.6062   -0.0023 C   0  0  0  0  0  0  0  0  0  0  0  0
   -1.4764   -2.0036    0.0001 C   0  0  0  0  0  0  0  0  0  0  0  0
   -3.6407    2.5306   -0.0101 C   0  0  0  0  0  0  0  0  0  0  0  0
  1 15  1  0
  2 15  1  0
  3 15  1  0
  4  9  1  0
  4 11  1  0
  5 11  2  0
  5 13  1  0
  6 11  1  0
  6 14  2  0
  7 13  2  0
  7 14  1  0
  8 14  1  0
  8 16  1  0
  9 10  1  0
 10 12  1  0
 13 15  1  0
M  END
>  <PUBCHEM_COMPOUND_CID>  (1) 
33893

>  <PUBCHEM_CONFORMER_RMSD>  (1) 
0.6

>  <PUBCHEM_CONFORMER_DIVERSEORDER>  (1) 
1
28
39
16
29
38
46
43
35
31
40
37
50
42
47
17
41
33
10
45
27
23
4
8
51
11
14
24
36
25
13
19
15
12
20
3
22
9
34
30
44
2
26
49
32
21
6
48
18
7
5

>  <PUBCHEM_MMFF94_PARTIAL_CHARGES>  (1) 
16
1 -0.29
11 0.72
13 0.48
14 0.72
15 1.01
16 0.37
2 -0.29
21 0.4
25 0.4
3 -0.29
4 -0.87
5 -0.62
6 -0.62
7 -0.62
8 -0.87
9 0.37

>  <PUBCHEM_EFFECTIVE_ROTOR_COUNT>  (1) 
5

>  <PUBCHEM_PHARMACOPHORE_FEATURES>  (1) 
6
1 12 hydrophobe
1 4 donor
1 8 donor
4 4 5 6 11 cation
4 6 7 8 14 cation
6 5 6 7 11 13 14 rings

>  <PUBCHEM_HEAVY_ATOM_COUNT>  (1) 
16

>  <PUBCHEM_ATOM_DEF_STEREO_COUNT>  (1) 
0

>  <PUBCHEM_ATOM_UDEF_STEREO_COUNT>  (1) 
0

>  <PUBCHEM_BOND_DEF_STEREO_COUNT>  (1) 
0

>  <PUBCHEM_BOND_UDEF_STEREO_COUNT>  (1) 
0

>  <PUBCHEM_ISOTOPIC_ATOM_COUNT>  (1) 
0

>  <PUBCHEM_COMPONENT_COUNT>  (1) 
1

>  <PUBCHEM_CACTVS_TAUTO_COUNT>  (1) 
9

>  <PUBCHEM_CONFORMER_ID>  (1) 
0000846500000001

>  <PUBCHEM_MMFF94_ENERGY>  (1) 
34.627

>  <PUBCHEM_FEATURE_SELFOVERLAP>  (1) 
30.488

>  <PUBCHEM_SHAPE_FINGERPRINT>  (1) 
10616163 171 18409731764357719746
11357001 24 18335708281413420283
12500047 106 18340482279872000640
12553582 1 18050576441072678566
13380535 76 18338517409210871317
14508225 48 18267007539367405565
15042514 8 18335427863056862025
16752209 62 18338504326825059234
16945 1 17185595166212319907
17539 30 18200017564652109439
20602899 9 16343410744087445655
20645477 56 18410577241269989652
20711985 365 18337955709113993252
20871998 184 18341621442041592038
21041028 32 18118696653959380787
21339142 126 18342177825190815599
21524375 3 18265894653422394249
22224240 67 18340215077388665561
23402539 116 18342730845374592527
23419403 2 16628816591089974059
23557571 272 18272380806170275836
23558518 356 18115594897255748088
23559900 14 18272647906223515552
23598291 2 17677063433571147836
23598294 1 18335412474452570586
23728640 28 18410291406579486602
2748010 2 18196113061370194903
3071541 12 17330556445217777873
3091708 16 9057008763809774473
366044 4 18338234838864837745
3759504 43 18260549970291295973
474229 33 18409732820824586217
5104073 3 18410289225532679360
53917941 68 18265309777587217293
559249 180 18336259030140466842
58051976 100 18260833683362458996
7364860 26 17547851854789647501
81228 2 18264474264845943593
9709674 26 18343304743537514742

>  <PUBCHEM_SHAPE_MULTIPOLES>  (1) 
309.98
7.57
3.73
0.91
14.27
0.49
0
-0.64
0.04
-4.81
0.01
-0.81
0.69
0.01

>  <PUBCHEM_SHAPE_SELFOVERLAP>  (1) 
589.784

>  <PUBCHEM_SHAPE_VOLUME>  (1) 
188.3

>  <PUBCHEM_COORDINATE_TYPE>  (1) 
2
5
10

$$$$
