33910
     RDKit          3D

 20 19  0  0  0  0  0  0  0  0999 V2000
    3.1594   -0.5796    0.4307 O   0  0  0  0  0  0  0  0  0  0  0  0
   -3.1989   -0.4964    0.4592 O   0  0  0  0  0  0  0  0  0  0  0  0
    4.5857   -0.6564   -1.3679 O   0  0  0  0  0  0  0  0  0  0  0  0
   -3.3495    1.4981   -0.6697 O   0  0  0  0  0  0  0  0  0  0  0  0
   -0.0455   -2.3103   -0.1336 N   0  0  0  0  0  0  0  0  0  0  0  0
    5.1642    0.4371    0.5947 N   0  0  0  0  0  0  0  0  0  0  0  0
   -5.0661    0.7434    0.6962 N   0  0  0  0  0  0  0  0  0  0  0  0
    0.9777   -1.5484    0.5815 C   0  0  0  0  0  0  0  0  0  0  0  0
   -1.3695   -2.0369    0.4243 C   0  0  0  0  0  0  0  0  0  0  0  0
    2.2008   -1.3367   -0.2964 C   0  0  0  0  0  0  0  0  0  0  0  0
   -1.9072   -0.7125   -0.0936 C   0  0  0  0  0  0  0  0  0  0  0  0
    0.2484   -3.7416   -0.0745 C   0  0  0  0  0  0  0  0  0  0  0  0
    6.4771    0.8932    0.2002 C   0  0  0  0  0  0  0  0  0  0  0  0
   -5.9802    1.8469    0.5115 C   0  0  0  0  0  0  0  0  0  0  0  0
    6.4411    2.2681   -0.4562 C   0  0  0  0  0  0  0  0  0  0  0  0
   -6.9286    1.6249   -0.6605 C   0  0  0  0  0  0  0  0  0  0  0  0
    4.3316   -0.2982   -0.2226 C   0  0  0  0  0  0  0  0  0  0  0  0
   -3.8300    0.6637    0.0902 C   0  0  0  0  0  0  0  0  0  0  0  0
    5.8960    3.3471    0.4686 C   0  0  0  0  0  0  0  0  0  0  0  0
   -7.8066    0.3945   -0.4821 C   0  0  0  0  0  0  0  0  0  0  0  0
  1 10  1  0
  1 17  1  0
  2 11  1  0
  2 18  1  0
  3 17  2  0
  4 18  2  0
  5  8  1  0
  5  9  1  0
  5 12  1  0
  6 13  1  0
  6 17  1  0
  7 14  1  0
  7 18  1  0
  8 10  1  0
  9 11  1  0
 13 15  1  0
 14 16  1  0
 15 19  1  0
 16 20  1  0
M  END
>  <PUBCHEM_COMPOUND_CID>  (1) 
33910

>  <PUBCHEM_CONFORMER_RMSD>  (1) 
1

>  <PUBCHEM_CONFORMER_DIVERSEORDER>  (1) 
1
109
10
176
27
137
152
169
181
103
52
147
190
17
178
118
82
188
110
129
36
159
131
59
85
136
95
126
42
183
55
139
158
75
162
182
25
135
83
185
114
175
146
140
57
143
127
104
150
192
142
157
172
21
193
53
122
74
65
180
184
144
130
149
91
24
141
80
113
81
4
153
19
155
76
145
70
174
151
102
138
123
5
60
128
46
51
97
61
106
86
186
116
112
117
132
124
13
115
12
39
41
8
119
125
3
40
47
92
28
148
58
62
67
66
171
26
7
56
38
94
100
54
9
77
2
64
63
111
78
73
105
107
16
168
45
189
15
11
156
23
33
69
99
134
31
160
32
187
34
164
191
96
101
37
179
43
22
120
35
177
20
68
108
173
133
165
163
88
167
161
93
71
121
30
72
14
89
48
29
84
98
170
44
90
6
49
166
79
154
87
18
50

>  <PUBCHEM_MMFF94_PARTIAL_CHARGES>  (1) 
18
1 -0.43
10 0.28
11 0.28
12 0.27
13 0.3
14 0.3
17 0.78
18 0.78
2 -0.43
3 -0.57
4 -0.57
40 0.37
41 0.37
5 -0.81
6 -0.73
7 -0.73
8 0.27
9 0.27

>  <PUBCHEM_EFFECTIVE_ROTOR_COUNT>  (1) 
14

>  <PUBCHEM_PHARMACOPHORE_FEATURES>  (1) 
7
1 19 hydrophobe
1 20 hydrophobe
1 3 acceptor
1 4 acceptor
1 5 cation
1 6 donor
1 7 donor

>  <PUBCHEM_HEAVY_ATOM_COUNT>  (1) 
20

>  <PUBCHEM_ATOM_DEF_STEREO_COUNT>  (1) 
0

>  <PUBCHEM_ATOM_UDEF_STEREO_COUNT>  (1) 
0

>  <PUBCHEM_BOND_DEF_STEREO_COUNT>  (1) 
0

>  <PUBCHEM_BOND_UDEF_STEREO_COUNT>  (1) 
0

>  <PUBCHEM_ISOTOPIC_ATOM_COUNT>  (1) 
0

>  <PUBCHEM_COMPONENT_COUNT>  (1) 
1

>  <PUBCHEM_CACTVS_TAUTO_COUNT>  (1) 
3

>  <PUBCHEM_CONFORMER_ID>  (1) 
0000847600000001

>  <PUBCHEM_MMFF94_ENERGY>  (1) 
11.6875

>  <PUBCHEM_FEATURE_SELFOVERLAP>  (1) 
35.52

>  <PUBCHEM_SHAPE_FINGERPRINT>  (1) 
10753850 27 10159697984395181174
10981352 41 12396292656365500936
12592606 108 9079105658416767849
12760667 363 9655575219149099495
12821665 9 18341889723897102151
13685833 64 9511455624014889111
13885169 86 18410863186843503464
14123256 34 10592039167977587797
14251764 75 18409165537132930418
14257110 125 18411417293569492755
14565420 104 18259700073446417242
15519825 34 16081944783411876177
20281389 69 18186800244847945449
20526848 3 18411703175109010561
20715895 44 18412547630826639152
21095086 4 11242786182109649976
21585482 57 18339070601483977845
22224240 67 18186801370678133147
270888 7 18410574007058843360
2748736 6 18411132532806098944
2838139 119 18335411331743440622
3004659 81 12175616274439359242
3014063 24 10665232570190695809
312425 54 13551484699316712632
3246875 12 18409168831494419099
3472631 163 18342177782388550134
3627633 1 17689156037967981570
5104073 3 17895747517755230266
5283384 27 18040990722929711597
56633871 153 10953745525115339465
59682541 35 18187660111340671593
59682541 52 17203338775950863126
6327066 14 18410572902872667631
6712543 237 15430029963758087937
7062679 13 9079127644011016368
77188 2 17401205569256511442

>  <PUBCHEM_SHAPE_MULTIPOLES>  (1) 
373.17
21.81
3.54
0.84
9.49
0.97
-0.08
-23.1
-1.85
-3.02
0.14
-0.09
-0.07
0.63

>  <PUBCHEM_SHAPE_SELFOVERLAP>  (1) 
699.63

>  <PUBCHEM_SHAPE_VOLUME>  (1) 
232.6

>  <PUBCHEM_COORDINATE_TYPE>  (1) 
2
5
10

$$$$
