33918
     RDKit          3D

 24 24  0  0  0  0  0  0  0  0999 V2000
    3.8205   -0.9493   -0.8921 N   0  0  0  0  0  0  0  0  0  0  0  0
    3.1190   -1.5095    0.2861 C   0  0  0  0  0  0  0  0  0  0  0  0
    2.6325   -2.9247   -0.0004 C   0  0  0  0  0  0  0  0  0  0  0  0
    4.3195    0.4750   -0.6067 C   0  0  0  0  0  0  0  0  0  0  0  0
    1.8416   -3.5992    1.1268 C   0  0  0  0  0  0  0  0  0  0  0  0
    2.8853   -0.8898   -2.1090 C   0  0  0  0  0  0  0  0  0  0  0  0
    5.0347   -1.8114   -1.2680 C   0  0  0  0  0  0  0  0  0  0  0  0
    0.5874   -2.8566    1.5975 C   0  0  0  0  0  0  0  0  0  0  0  0
   -0.4149   -2.5817    0.4735 C   0  0  0  0  0  0  0  0  0  0  0  0
    3.2173    1.4187   -0.2256 C   0  0  0  0  0  0  0  0  0  0  0  0
   -1.6846   -1.9206    1.0164 C   0  0  0  0  0  0  0  0  0  0  0  0
   -2.7369   -1.6462   -0.0619 C   0  0  0  0  0  0  0  0  0  0  0  0
   -3.9959   -0.9630    0.4767 C   0  0  0  0  0  0  0  0  0  0  0  0
   -5.0413   -0.7796   -0.6259 C   0  0  0  0  0  0  0  0  0  0  0  0
    2.8605    1.5701    1.1143 C   0  0  0  0  0  0  0  0  0  0  0  0
    2.5486    2.1442   -1.2117 C   0  0  0  0  0  0  0  0  0  0  0  0
   -6.3157   -0.1318   -0.0820 C   0  0  0  0  0  0  0  0  0  0  0  0
    1.8351    2.4469    1.4682 C   0  0  0  0  0  0  0  0  0  0  0  0
    1.5231    3.0209   -0.8578 C   0  0  0  0  0  0  0  0  0  0  0  0
    1.1663    3.1723    0.4821 C   0  0  0  0  0  0  0  0  0  0  0  0
   -7.3471    0.0821   -1.1895 C   0  0  0  0  0  0  0  0  0  0  0  0
    0.0696    4.1096    0.8601 C   0  0  0  0  0  0  0  0  0  0  0  0
   -8.6281    0.6949   -0.6464 C   0  0  0  0  0  0  0  0  0  0  0  0
   -1.2966    3.4288    0.8754 C   0  0  0  0  0  0  0  0  0  0  0  0
  1  2  1  0
  1  4  1  0
  1  6  1  0
  1  7  1  0
  2  3  1  0
  3  5  1  0
  4 10  1  0
  5  8  1  0
  8  9  1  0
  9 11  1  0
 10 15  2  0
 10 16  1  0
 11 12  1  0
 12 13  1  0
 13 14  1  0
 14 17  1  0
 15 18  1  0
 16 19  2  0
 17 21  1  0
 18 20  2  0
 19 20  1  0
 20 22  1  0
 21 23  1  0
 22 24  1  0
M  CHG  1   1   1
M  END
>  <PUBCHEM_COMPOUND_CID>  (1) 
33918

>  <PUBCHEM_CONFORMER_RMSD>  (1) 
1.6

>  <PUBCHEM_CONFORMER_DIVERSEORDER>  (1) 
1
40
30
35
31
5
20
21
24
17
16
14
45
48
23
19
28
46
11
43
22
27
32
18
25
39
26
41
44
50
4
7
2
10
37
6
49
3
29
33
38
36
42
47
34
15
13
12
9
8

>  <PUBCHEM_MMFF94_PARTIAL_CHARGES>  (1) 
16
1 -1.01
10 -0.14
15 -0.15
16 -0.15
18 -0.15
19 -0.15
2 0.5
20 -0.14
22 0.14
4 0.65
51 0.15
52 0.15
55 0.15
56 0.15
6 0.5
7 0.5

>  <PUBCHEM_EFFECTIVE_ROTOR_COUNT>  (1) 
14

>  <PUBCHEM_PHARMACOPHORE_FEATURES>  (1) 
4
1 1 cation
1 23 hydrophobe
1 24 hydrophobe
6 10 15 16 18 19 20 rings

>  <PUBCHEM_HEAVY_ATOM_COUNT>  (1) 
24

>  <PUBCHEM_ATOM_DEF_STEREO_COUNT>  (1) 
0

>  <PUBCHEM_ATOM_UDEF_STEREO_COUNT>  (1) 
0

>  <PUBCHEM_BOND_DEF_STEREO_COUNT>  (1) 
0

>  <PUBCHEM_BOND_UDEF_STEREO_COUNT>  (1) 
0

>  <PUBCHEM_ISOTOPIC_ATOM_COUNT>  (1) 
0

>  <PUBCHEM_COMPONENT_COUNT>  (1) 
1

>  <PUBCHEM_CACTVS_TAUTO_COUNT>  (1) 
1

>  <PUBCHEM_CONFORMER_ID>  (1) 
0000847E00000001

>  <PUBCHEM_MMFF94_ENERGY>  (1) 
42.9171

>  <PUBCHEM_FEATURE_SELFOVERLAP>  (1) 
20.297

>  <PUBCHEM_SHAPE_FINGERPRINT>  (1) 
10256941 240 16115690126550304433
10675989 125 18336548304171560849
12769317 202 18260821622620051147
13111901 137 17604691298057024149
14251764 38 17905324374737223374
14537116 161 18411418376539438567
14681490 219 18412261714568881653
14931854 50 18337124396829734406
15210252 30 18114470053989949252
15322687 12 18334858346283126515
15326921 28 16760271095756588880
15351339 4 18263074436420253401
17093844 170 18338516473293356816
20621476 13 18124035890644524032
21315764 21 18188500193025255841
21344244 78 17827332424492337098
21860390 5 18270967963445195342
238 59 17553780842604426726
24893992 56 18259984894814749891
3014063 31 18411139117032784977
3298306 158 18264765631548724011
5047190 2 18269564832395616521
513532 50 18130215047161047610
5312510 48 18335420175714215999
54672768 99 17974858581452631636

>  <PUBCHEM_SHAPE_MULTIPOLES>  (1) 
488.93
14.83
5.45
1.54
44.6
2.54
0.19
-1.53
7.62
-4.45
-2.29
-0.99
-0.12
0.57

>  <PUBCHEM_SHAPE_SELFOVERLAP>  (1) 
941.341

>  <PUBCHEM_SHAPE_VOLUME>  (1) 
299.9

>  <PUBCHEM_COORDINATE_TYPE>  (1) 
2
5
10

$$$$
