33921
     RDKit          3D

 23 23  0  0  0  0  0  0  0  0999 V2000
    2.1612    1.9685   -0.6745 O   0  0  0  0  0  0  0  0  0  0  0  0
   -2.3677    1.5455   -0.7651 O   0  0  0  0  0  0  0  0  0  0  0  0
    0.1598   -1.5517    1.5985 O   0  0  0  0  0  0  0  0  0  0  0  0
    2.8290   -1.2113   -0.2459 O   0  0  0  0  0  0  0  0  0  0  0  0
   -2.4455   -1.7103   -0.3528 O   0  0  0  0  0  0  0  0  0  0  0  0
    4.8604   -1.7129    0.7333 O   0  0  0  0  0  0  0  0  0  0  0  0
   -4.3126   -2.6719    0.6095 O   0  0  0  0  0  0  0  0  0  0  0  0
    1.2094    0.2625    0.5940 N   0  0  0  0  0  0  0  0  0  0  0  0
   -1.1666    0.0392    0.5442 N   0  0  0  0  0  0  0  0  0  0  0  0
   -0.1573    2.1920   -0.0532 C   0  0  0  0  0  0  0  0  0  0  0  0
   -0.2324    3.2384   -1.1786 C   0  0  0  0  0  0  0  0  0  0  0  0
   -0.2530    2.9170    1.3020 C   0  0  0  0  0  0  0  0  0  0  0  0
    1.1849    1.4772   -0.1067 C   0  0  0  0  0  0  0  0  0  0  0  0
   -1.3403    1.2406   -0.1580 C   0  0  0  0  0  0  0  0  0  0  0  0
    0.0728   -0.4866    0.9776 C   0  0  0  0  0  0  0  0  0  0  0  0
   -0.1200    2.5814   -2.5356 C   0  0  0  0  0  0  0  0  0  0  0  0
   -1.5804    3.6277    1.4437 C   0  0  0  0  0  0  0  0  0  0  0  0
    2.5111   -0.3463    0.8469 C   0  0  0  0  0  0  0  0  0  0  0  0
   -2.3408   -0.8031    0.7470 C   0  0  0  0  0  0  0  0  0  0  0  0
    4.0415   -1.8304   -0.1682 C   0  0  0  0  0  0  0  0  0  0  0  0
   -3.4836   -2.5918   -0.2869 C   0  0  0  0  0  0  0  0  0  0  0  0
    4.2384   -2.6990   -1.3734 C   0  0  0  0  0  0  0  0  0  0  0  0
   -3.4685   -3.4747   -1.4979 C   0  0  0  0  0  0  0  0  0  0  0  0
  1 13  2  0
  2 14  2  0
  3 15  2  0
  4 18  1  0
  4 20  1  0
  5 19  1  0
  5 21  1  0
  6 20  2  0
  7 21  2  0
  8 13  1  0
  8 15  1  0
  8 18  1  0
  9 14  1  0
  9 15  1  0
  9 19  1  0
 10 11  1  0
 10 12  1  0
 10 13  1  0
 10 14  1  0
 11 16  1  0
 12 17  1  0
 20 22  1  0
 21 23  1  0
M  END
>  <PUBCHEM_COMPOUND_CID>  (1) 
33921

>  <PUBCHEM_CONFORMER_RMSD>  (1) 
0.8

>  <PUBCHEM_CONFORMER_DIVERSEORDER>  (1) 
1
59
50
113
90
39
116
111
85
74
84
82
102
101
105
68
26
64
32
96
52
38
69
58
91
22
75
56
92
29
93
97
48
87
11
103
98
63
21
73
88
37
79
115
112
83
110
18
41
66
14
99
44
104
60
95
78
45
65
62
57
34
76
86
70
61
71
109
80
19
72
28
16
117
81
49
53
100
27
55
114
77
23
20
67
108
36
107
31
40
89
54
9
43
30
33
47
25
42
12
106
8
10
51
15
46
7
35
13
94
24
17
6
2
3
4
5

>  <PUBCHEM_MMFF94_PARTIAL_CHARGES>  (1) 
19
1 -0.57
10 0.12
13 0.57
14 0.57
15 0.69
18 0.58
19 0.58
2 -0.57
20 0.66
21 0.66
22 0.06
23 0.06
3 -0.57
4 -0.43
5 -0.43
6 -0.57
7 -0.57
8 -0.42
9 -0.42

>  <PUBCHEM_EFFECTIVE_ROTOR_COUNT>  (1) 
8.6

>  <PUBCHEM_PHARMACOPHORE_FEATURES>  (1) 
8
1 1 acceptor
1 16 hydrophobe
1 17 hydrophobe
1 2 acceptor
1 3 acceptor
1 6 acceptor
1 7 acceptor
6 8 9 10 13 14 15 rings

>  <PUBCHEM_HEAVY_ATOM_COUNT>  (1) 
23

>  <PUBCHEM_ATOM_DEF_STEREO_COUNT>  (1) 
0

>  <PUBCHEM_ATOM_UDEF_STEREO_COUNT>  (1) 
0

>  <PUBCHEM_BOND_DEF_STEREO_COUNT>  (1) 
0

>  <PUBCHEM_BOND_UDEF_STEREO_COUNT>  (1) 
0

>  <PUBCHEM_ISOTOPIC_ATOM_COUNT>  (1) 
0

>  <PUBCHEM_COMPONENT_COUNT>  (1) 
1

>  <PUBCHEM_CACTVS_TAUTO_COUNT>  (1) 
1

>  <PUBCHEM_CONFORMER_ID>  (1) 
0000848100000001

>  <PUBCHEM_MMFF94_ENERGY>  (1) 
44.9802

>  <PUBCHEM_FEATURE_SELFOVERLAP>  (1) 
40.599

>  <PUBCHEM_SHAPE_FINGERPRINT>  (1) 
12160290 23 18118111472896507251
12173636 292 17477484205955439528
13134695 92 18126560356878969293
13140716 1 18410572877144945305
14863182 85 17690839385963452888
16945 1 18270128889601351600
17539 30 18263913367591113958
1813 80 18338244854929213899
19141452 34 18272656701467549779
20602899 9 17760628292360899116
21344244 181 17694773035078217207
21452121 199 18339350980906235818
23419403 2 17326276424397516121
23557571 272 18340752776659024178
23559900 14 18340757153758492176
26353 1 18113897195108996790
2748010 2 18186513332416680232
46194498 28 17608350661269047943
463206 1 18052264182821227062
81228 2 18261116244675797592

>  <PUBCHEM_SHAPE_MULTIPOLES>  (1) 
422.28
6.71
5.17
1.64
5.64
0.39
-0.68
-10.19
-0.61
-3.77
-1.22
-0.17
0.78
-0.47

>  <PUBCHEM_SHAPE_SELFOVERLAP>  (1) 
861.631

>  <PUBCHEM_SHAPE_VOLUME>  (1) 
241.7

>  <PUBCHEM_COORDINATE_TYPE>  (1) 
2
5
10

$$$$
