33928
     RDKit          3D

 18 18  0  0  0  0  0  0  0  0999 V2000
    2.2644    2.9366   -1.3312 Cl  0  0  0  0  0  0  0  0  0  0  0  0
   -0.1624    3.6093    0.0706 Cl  0  0  0  0  0  0  0  0  0  0  0  0
    2.1551    2.8056    1.5905 Cl  0  0  0  0  0  0  0  0  0  0  0  0
   -2.0360   -0.9942   -0.1947 N   0  0  0  0  0  0  0  0  0  0  0  0
    0.2311   -1.5901   -0.1309 N   0  0  0  0  0  0  0  0  0  0  0  0
    2.5135   -2.1247   -0.0604 N   0  0  0  0  0  0  0  0  0  0  0  0
   -0.4351    0.7141   -0.0636 N   0  0  0  0  0  0  0  0  0  0  0  0
    1.8927    0.1357    0.0049 N   0  0  0  0  0  0  0  0  0  0  0  0
   -4.4962   -0.7778   -0.2348 C   0  0  0  0  0  0  0  0  0  0  0  0
   -3.1388   -0.0620   -0.1985 C   0  0  0  0  0  0  0  0  0  0  0  0
   -4.6837   -1.7160    0.9586 C   0  0  0  0  0  0  0  0  0  0  0  0
   -5.6629    0.2065   -0.3336 C   0  0  0  0  0  0  0  0  0  0  0  0
   -0.7059   -0.6117   -0.1283 C   0  0  0  0  0  0  0  0  0  0  0  0
    1.4963   -1.1454   -0.0629 C   0  0  0  0  0  0  0  0  0  0  0  0
    3.9034   -1.7985    0.0099 C   0  0  0  0  0  0  0  0  0  0  0  0
    0.8733    1.0097    0.0001 C   0  0  0  0  0  0  0  0  0  0  0  0
    4.7612   -3.0522    0.0297 C   0  0  0  0  0  0  0  0  0  0  0  0
    1.2301    2.4552    0.0748 C   0  0  0  0  0  0  0  0  0  0  0  0
  1 18  1  0
  2 18  1  0
  3 18  1  0
  4 10  1  0
  4 13  1  0
  5 13  2  0
  5 14  1  0
  6 14  1  0
  6 15  1  0
  7 13  1  0
  7 16  2  0
  8 14  2  0
  8 16  1  0
  9 10  1  0
  9 11  1  0
  9 12  1  0
 15 17  1  0
 16 18  1  0
M  END
>  <PUBCHEM_COMPOUND_CID>  (1) 
33928

>  <PUBCHEM_CONFORMER_RMSD>  (1) 
0.8

>  <PUBCHEM_CONFORMER_DIVERSEORDER>  (1) 
1
8
14
19
24
20
10
15
5
2
18
21
7
22
25
11
17
23
4
6
9
3
13
16
12

>  <PUBCHEM_MMFF94_PARTIAL_CHARGES>  (1) 
16
1 -0.29
10 0.37
13 0.72
14 0.72
15 0.37
16 0.48
18 1.01
2 -0.29
28 0.4
3 -0.29
31 0.4
4 -0.87
5 -0.62
6 -0.87
7 -0.62
8 -0.62

>  <PUBCHEM_EFFECTIVE_ROTOR_COUNT>  (1) 
6

>  <PUBCHEM_PHARMACOPHORE_FEATURES>  (1) 
6
1 4 donor
1 6 donor
3 9 11 12 hydrophobe
4 4 5 7 13 cation
4 5 6 8 14 cation
6 5 7 8 13 14 16 rings

>  <PUBCHEM_HEAVY_ATOM_COUNT>  (1) 
18

>  <PUBCHEM_ATOM_DEF_STEREO_COUNT>  (1) 
0

>  <PUBCHEM_ATOM_UDEF_STEREO_COUNT>  (1) 
0

>  <PUBCHEM_BOND_DEF_STEREO_COUNT>  (1) 
0

>  <PUBCHEM_BOND_UDEF_STEREO_COUNT>  (1) 
0

>  <PUBCHEM_ISOTOPIC_ATOM_COUNT>  (1) 
0

>  <PUBCHEM_COMPONENT_COUNT>  (1) 
1

>  <PUBCHEM_CACTVS_TAUTO_COUNT>  (1) 
9

>  <PUBCHEM_CONFORMER_ID>  (1) 
0000848800000001

>  <PUBCHEM_MMFF94_ENERGY>  (1) 
37.7328

>  <PUBCHEM_FEATURE_SELFOVERLAP>  (1) 
30.488

>  <PUBCHEM_SHAPE_FINGERPRINT>  (1) 
10411042 1 18338797806066602550
10756046 70 18060127778023482751
11265709 11 18338799996647499622
11405975 8 18409733972060373195
12173636 292 17184750736581455085
12788726 201 18118686513547539202
12841375 25 18338796719471434270
13009979 54 17987534648945163451
13052359 8 17688586061563160028
13134695 92 18343292674025343605
13140716 1 17980472683634590488
13294875 104 17772184469106981640
13533116 47 18338800143436263907
13955234 65 18267589189676531115
14178000 15 18412263930228739364
15042514 8 17834675998492739458
17492 89 18267020734229994951
17980427 26 17771327953828496436
1813 80 18129955472349381374
18186145 218 17771640219720644137
18222031 100 18271237236035001086
18785283 64 18116432737932235636
20645477 70 18336819888307717007
20671657 1 18270400619549987895
20832881 197 18261674770771108579
21029758 11 18410010992280317250
21029758 27 18339362972360246870
21041028 32 18341048519195435893
21478907 32 17977946787165914326
221490 88 18334864960775485219
22182313 1 18191842618295620996
22943178 12 18114741646595006211
2297311 6 18127979603443129790
23352939 185 18202005404655763442
23402539 116 18196928877207072918
23419403 2 18192685926750449628
23526113 38 17967541185292812522
23557571 272 17911523095530984702
23559900 14 18261107491733018315
2748010 2 18194094383839037124
283562 15 18120939395861638370
3071541 37 18264212580819875220
3091708 16 9069080345015531232
3421961 26 18411698798458110739
458136 41 18047762773378757373
5104073 3 18341057410711558763
54173680 148 17906733596624882278
59755656 215 18339079397350471172
68521 5 18194403286381831062
7364860 26 18342173422854235128
7471813 234 18059846256187083905
77188 2 18339642244314153108
81228 2 17907314160508385314
8863177 126 18041859423063233715
9709674 26 18190744322623774035
9841814 1 18187352225592264338
9971528 1 18342728611728036035

>  <PUBCHEM_SHAPE_MULTIPOLES>  (1) 
351.14
9.31
4.31
0.95
12.01
2.45
-0.16
-7.61
-0.18
-6.01
-0.24
-0.31
0.69
0.46

>  <PUBCHEM_SHAPE_SELFOVERLAP>  (1) 
668.708

>  <PUBCHEM_SHAPE_VOLUME>  (1) 
213.5

>  <PUBCHEM_COORDINATE_TYPE>  (1) 
2
5
10

$$$$
