33924
     RDKit          3D

 16 16  0  0  0  0  0  0  0  0999 V2000
   -3.9217   -1.4315    0.3557 Cl  0  0  0  0  0  0  0  0  0  0  0  0
   -2.3395    2.5412   -0.2212 O   0  0  0  0  0  0  0  0  0  0  0  0
   -3.9710    1.1362    0.2068 O   0  0  0  0  0  0  0  0  0  0  0  0
   -2.7699    1.3758   -0.0582 N   0  0  0  0  0  0  0  0  0  0  0  0
    5.1589    0.5495   -0.9039 N   0  0  0  0  0  0  0  0  0  0  0  0
    2.3371    0.0971    2.5265 N   0  0  0  0  0  0  0  0  0  0  0  0
    0.3896   -0.4797   -0.6026 C   0  0  0  0  0  0  0  0  0  0  0  0
   -1.8625    0.2854   -0.1788 C   0  0  0  0  0  0  0  0  0  0  0  0
   -0.5279    0.5631   -0.4745 C   0  0  0  0  0  0  0  0  0  0  0  0
   -0.0276   -1.8001   -0.4349 C   0  0  0  0  0  0  0  0  0  0  0  0
   -2.2797   -1.0350   -0.0113 C   0  0  0  0  0  0  0  0  0  0  0  0
   -1.3622   -2.0778   -0.1391 C   0  0  0  0  0  0  0  0  0  0  0  0
    1.7809   -0.1905   -0.9125 C   0  0  0  0  0  0  0  0  0  0  0  0
    2.7748    0.0582   -0.0238 C   0  0  0  0  0  0  0  0  0  0  0  0
    4.0894    0.3293   -0.5106 C   0  0  0  0  0  0  0  0  0  0  0  0
    2.5312    0.0787    1.3824 C   0  0  0  0  0  0  0  0  0  0  0  0
  1 11  1  0
  2  4  1  0
  3  4  2  0
  4  8  1  0
  5 15  3  0
  6 16  3  0
  7  9  2  0
  7 10  1  0
  7 13  1  0
  8  9  1  0
  8 11  2  0
 10 12  2  0
 11 12  1  0
 13 14  2  3
 14 15  1  0
 14 16  1  0
M  CHG  2   2  -1   4   1
M  END
>  <PUBCHEM_COMPOUND_CID>  (1) 
33924

>  <PUBCHEM_CONFORMER_RMSD>  (1) 
0.6

>  <PUBCHEM_CONFORMER_DIVERSEORDER>  (1) 
1
5
3
6
4
2

>  <PUBCHEM_MMFF94_PARTIAL_CHARGES>  (1) 
20
1 -0.18
10 -0.15
11 0.18
12 -0.15
13 -0.18
14 0.13
15 0.49
16 0.49
17 0.15
18 0.15
19 0.15
2 -0.52
20 0.15
3 -0.52
4 0.91
5 -0.56
6 -0.56
7 0.03
8 0.13
9 -0.15

>  <PUBCHEM_EFFECTIVE_ROTOR_COUNT>  (1) 
2

>  <PUBCHEM_PHARMACOPHORE_FEATURES>  (1) 
6
1 2 acceptor
1 2 anion
1 3 acceptor
1 5 acceptor
1 6 acceptor
6 7 8 9 10 11 12 rings

>  <PUBCHEM_HEAVY_ATOM_COUNT>  (1) 
16

>  <PUBCHEM_ATOM_DEF_STEREO_COUNT>  (1) 
0

>  <PUBCHEM_ATOM_UDEF_STEREO_COUNT>  (1) 
0

>  <PUBCHEM_BOND_DEF_STEREO_COUNT>  (1) 
0

>  <PUBCHEM_BOND_UDEF_STEREO_COUNT>  (1) 
0

>  <PUBCHEM_ISOTOPIC_ATOM_COUNT>  (1) 
0

>  <PUBCHEM_COMPONENT_COUNT>  (1) 
1

>  <PUBCHEM_CACTVS_TAUTO_COUNT>  (1) 
1

>  <PUBCHEM_CONFORMER_ID>  (1) 
0000848400000001

>  <PUBCHEM_MMFF94_ENERGY>  (1) 
47.6382

>  <PUBCHEM_FEATURE_SELFOVERLAP>  (1) 
30.53

>  <PUBCHEM_SHAPE_FINGERPRINT>  (1) 
12186901 62 18341619226070543510
12236239 1 17676488380252115086
124424 183 17418096503626651886
12500047 106 18343862221280672606
12916754 54 15913036685686271143
12932764 1 17703782643778007638
13134695 92 15913329083545693160
13583140 156 16805326643221441093
13764800 53 18342175548942187649
14787075 74 16668821372220510914
15219456 202 18130518443751193998
15375462 189 17385719193018249272
15775835 57 18186803556468229752
16945 1 18340476876418221895
18186145 218 16558744628899567214
19422 9 17967527961436842938
200 152 15502650554814539927
20510252 161 18341620316960529619
20645477 70 15213838485720170890
21486144 27 16773228608218327514
21524375 3 18128529371513704415
21618674 53 17894923944421496272
21639500 275 15482095189518184178
23048698 100 17240473715352023490
23175994 123 16916522427455092056
23402539 116 18341893047795795919
23493267 7 18410013230248273090
23526113 38 17560528278996540646
23557571 272 18130795589901848103
23559900 14 18342179908376392694
23598294 1 18334287682304385666
25 1 17632018528986527302
2748010 2 18267315231346639271
3286 77 16486414433123825379
53812653 166 18201158767337497051
6049 1 17774998059258856760
7364860 26 17912645700802499671
77492 1 17676480666332628098
81228 2 17340100640054855894

>  <PUBCHEM_SHAPE_MULTIPOLES>  (1) 
304.46
7.84
1.84
1.23
4.42
0.32
0.92
1.46
-0.16
-2.4
-0.18
1.41
0.02
0.11

>  <PUBCHEM_SHAPE_SELFOVERLAP>  (1) 
635.354

>  <PUBCHEM_SHAPE_VOLUME>  (1) 
172.2

>  <PUBCHEM_COORDINATE_TYPE>  (1) 
2
5
10

$$$$
