33937
     RDKit          3D

 10 10  0  0  0  0  0  0  0  0999 V2000
   -1.1638    0.7717    0.0096 C   0  0  0  0  0  0  0  0  0  0  0  0
   -1.5155   -0.5780    0.0182 C   0  0  0  0  0  0  0  0  0  0  0  0
    0.1795    1.1419   -0.0569 C   0  0  0  0  0  0  0  0  0  0  0  0
    1.1709    0.1625   -0.1152 C   0  0  0  0  0  0  0  0  0  0  0  0
   -0.5241   -1.5575   -0.0400 C   0  0  0  0  0  0  0  0  0  0  0  0
    0.8192   -1.1873   -0.1069 C   0  0  0  0  0  0  0  0  0  0  0  0
   -2.2076    1.8381    0.0718 C   0  0  0  0  0  0  0  0  0  0  0  0
   -2.9469   -0.9983    0.0881 C   0  0  0  0  0  0  0  0  0  0  0  0
    2.5716    0.5481   -0.1854 C   0  0  0  0  0  0  0  0  0  0  0  0
    3.6167   -0.1412    0.3167 C   0  0  0  0  0  0  0  0  0  0  0  0
  1  2  2  0
  1  3  1  0
  1  7  1  0
  2  5  1  0
  2  8  1  0
  3  4  2  0
  4  6  1  0
  4  9  1  0
  5  6  2  0
  9 10  2  0
M  END
>  <PUBCHEM_COMPOUND_CID>  (1) 
33937

>  <PUBCHEM_CONFORMER_RMSD>  (1) 
0.4

>  <PUBCHEM_CONFORMER_DIVERSEORDER>  (1) 
1
2

>  <PUBCHEM_MMFF94_PARTIAL_CHARGES>  (1) 
16
1 -0.14
10 -0.3
11 0.15
12 0.15
13 0.15
2 -0.14
20 0.15
21 0.15
22 0.15
3 -0.15
4 0.03
5 -0.15
6 -0.15
7 0.14
8 0.14
9 -0.18

>  <PUBCHEM_EFFECTIVE_ROTOR_COUNT>  (1) 
1

>  <PUBCHEM_PHARMACOPHORE_FEATURES>  (1) 
2
1 10 hydrophobe
6 1 2 3 4 5 6 rings

>  <PUBCHEM_HEAVY_ATOM_COUNT>  (1) 
10

>  <PUBCHEM_ATOM_DEF_STEREO_COUNT>  (1) 
0

>  <PUBCHEM_ATOM_UDEF_STEREO_COUNT>  (1) 
0

>  <PUBCHEM_BOND_DEF_STEREO_COUNT>  (1) 
0

>  <PUBCHEM_BOND_UDEF_STEREO_COUNT>  (1) 
0

>  <PUBCHEM_ISOTOPIC_ATOM_COUNT>  (1) 
0

>  <PUBCHEM_COMPONENT_COUNT>  (1) 
1

>  <PUBCHEM_CACTVS_TAUTO_COUNT>  (1) 
1

>  <PUBCHEM_CONFORMER_ID>  (1) 
0000849100000001

>  <PUBCHEM_MMFF94_ENERGY>  (1) 
27.8576

>  <PUBCHEM_FEATURE_SELFOVERLAP>  (1) 
10.148

>  <PUBCHEM_SHAPE_FINGERPRINT>  (1) 
10857977 72 18340480166167582664
11206711 2 18410291428122745629
12032990 46 18337961197871486714
12423570 1 16957581687312593189
12932764 1 17489582385766800046
13024252 1 13262391163608174647
13380535 21 18196949780886255191
13380535 76 18266736892224280415
14325111 11 18410856542913704972
14897335 6 18266734684621854141
15219456 202 18059582326040981990
15310529 11 14332862473044194815
16945 1 18339367464669022631
193761 8 18050568443653656263
20510252 161 18272371983742889152
20871998 184 18200879577151746751
21040471 1 18338803290649902452
23235685 24 18339355258430151981
23402539 116 18342163510069943703
23402655 69 18268694027976767093
23463225 33 18334011658084414946
23552423 10 18260834743834577406
2748010 2 18267594506825119639
369184 2 18060416941191729218
5084963 1 18201442514256883936
53812653 166 18272084959431061585
6333449 129 18341891866173094437

>  <PUBCHEM_SHAPE_MULTIPOLES>  (1) 
205.8
4.54
1.7
0.63
2.49
0.17
0
0.08
0.38
-1.06
0
0.04
0
-0.04

>  <PUBCHEM_SHAPE_SELFOVERLAP>  (1) 
423.14

>  <PUBCHEM_SHAPE_VOLUME>  (1) 
115.8

>  <PUBCHEM_COORDINATE_TYPE>  (1) 
2
5
10

$$$$
