33938
     RDKit          3D

 16 17  0  0  0  0  0  0  0  0999 V2000
    2.9586   -2.3957    0.8770 O   0  0  0  0  0  0  0  0  0  0  0  0
   -0.3161    1.2036    0.4278 C   0  0  0  0  0  0  0  0  0  0  0  0
    1.0579    0.5531    0.0563 C   0  0  0  0  0  0  0  0  0  0  0  0
   -1.4723    0.3255    0.0853 C   0  0  0  0  0  0  0  0  0  0  0  0
   -0.1771    1.5829    1.9504 C   0  0  0  0  0  0  0  0  0  0  0  0
   -0.5160    2.5894   -0.2805 C   0  0  0  0  0  0  0  0  0  0  0  0
    1.3680   -0.6309    0.6481 C   0  0  0  0  0  0  0  0  0  0  0  0
    1.8428    1.2186   -0.8322 C   0  0  0  0  0  0  0  0  0  0  0  0
   -1.6823   -0.0669   -1.2366 C   0  0  0  0  0  0  0  0  0  0  0  0
   -2.3434   -0.1031    1.0868 C   0  0  0  0  0  0  0  0  0  0  0  0
    2.5925   -1.2107    0.3166 C   0  0  0  0  0  0  0  0  0  0  0  0
    3.0674    0.6387   -1.1637 C   0  0  0  0  0  0  0  0  0  0  0  0
   -2.7634   -0.8879   -1.5570 C   0  0  0  0  0  0  0  0  0  0  0  0
   -3.4245   -0.9241    0.7663 C   0  0  0  0  0  0  0  0  0  0  0  0
    3.4423   -0.5758   -0.5892 C   0  0  0  0  0  0  0  0  0  0  0  0
   -3.6346   -1.3167   -0.5555 C   0  0  0  0  0  0  0  0  0  0  0  0
  1 11  1  0
  2  3  1  0
  2  4  1  0
  2  5  1  0
  2  6  1  0
  3  7  2  0
  3  8  1  0
  4  9  2  0
  4 10  1  0
  7 11  1  0
  8 12  2  0
  9 13  1  0
 10 14  2  0
 11 15  2  0
 12 15  1  0
 13 16  2  0
 14 16  1  0
M  END
>  <PUBCHEM_COMPOUND_CID>  (1) 
33938

>  <PUBCHEM_CONFORMER_RMSD>  (1) 
0.6

>  <PUBCHEM_CONFORMER_DIVERSEORDER>  (1) 
1
3
7
2
4
8
5
6

>  <PUBCHEM_MMFF94_PARTIAL_CHARGES>  (1) 
24
1 -0.53
10 -0.15
11 0.08
12 -0.15
13 -0.15
14 -0.15
15 -0.15
16 -0.15
2 0.29
23 0.15
24 0.15
25 0.15
26 0.15
27 0.15
28 0.15
29 0.15
3 -0.14
30 0.15
31 0.15
32 0.45
4 -0.14
7 -0.15
8 -0.15
9 -0.15

>  <PUBCHEM_EFFECTIVE_ROTOR_COUNT>  (1) 
2

>  <PUBCHEM_PHARMACOPHORE_FEATURES>  (1) 
4
1 1 donor
3 2 5 6 hydrophobe
6 3 7 8 11 12 15 rings
6 4 9 10 13 14 16 rings

>  <PUBCHEM_HEAVY_ATOM_COUNT>  (1) 
16

>  <PUBCHEM_ATOM_DEF_STEREO_COUNT>  (1) 
0

>  <PUBCHEM_ATOM_UDEF_STEREO_COUNT>  (1) 
0

>  <PUBCHEM_BOND_DEF_STEREO_COUNT>  (1) 
0

>  <PUBCHEM_BOND_UDEF_STEREO_COUNT>  (1) 
0

>  <PUBCHEM_ISOTOPIC_ATOM_COUNT>  (1) 
0

>  <PUBCHEM_COMPONENT_COUNT>  (1) 
1

>  <PUBCHEM_CACTVS_TAUTO_COUNT>  (1) 
3

>  <PUBCHEM_CONFORMER_ID>  (1) 
0000849200000001

>  <PUBCHEM_MMFF94_ENERGY>  (1) 
61.969

>  <PUBCHEM_FEATURE_SELFOVERLAP>  (1) 
20.297

>  <PUBCHEM_SHAPE_FINGERPRINT>  (1) 
10618630 7 18131637759451871174
11578080 2 18200858626317816009
11769659 78 18409728422297747826
12491281 212 12035450549199450716
12553582 1 18343021098916679511
13299463 15 17240488008855374552
13705890 14 17676203593734247734
14787075 74 18057879337533586024
15375462 189 18271813453120748683
15852999 172 15430043175340948104
15906896 17 18050290267354559049
16752209 62 17917435250967808993
16945 1 18262520419518726808
18186145 218 16081088160273410409
18522851 12 18271253801813331271
18522851 268 17168146788136285831
19422 9 18129677386043402797
200 152 18260270745993213606
20291156 8 18343023289286625534
20361792 2 18272082829385596141
20671657 53 17967809397563759854
21452121 199 18188749713555761712
21713013 43 17749392610986420719
21731516 1 18272929423042077815
22112679 90 17988100948831098641
22169311 14 14117528635598350543
2255824 54 18055071231484741669
22802520 49 17458335334520239045
23114952 82 17095248016400670926
232386 152 17417819503615506053
23402539 116 18411706482771690916
23419403 2 16026111423717847280
23559900 14 14634869773880817076
298252 57 17032462363091009084
3323516 105 17896043311498504483
465052 167 18057336183179721743
5262128 65 16370733625096437014
603831 33 18410581686465715020
7364860 26 16700047399402010393
77492 1 18271822223396513649
81228 2 17059220219908925753
83771 10 18342462564310658857

>  <PUBCHEM_SHAPE_MULTIPOLES>  (1) 
323.4
5.96
2.05
1.47
0.45
0.48
-0.1
-3.69
0.96
-0.56
-0.35
0.31
0.12
-0.9

>  <PUBCHEM_SHAPE_SELFOVERLAP>  (1) 
697.625

>  <PUBCHEM_SHAPE_VOLUME>  (1) 
178.9

>  <PUBCHEM_COORDINATE_TYPE>  (1) 
2
5
10

$$$$
