33944
     RDKit          3D

  9  9  0  0  0  0  0  0  0  0999 V2000
    0.1013    0.2883    0.2191 N   0  0  0  0  0  0  0  0  0  0  0  0
    3.7941   -0.0651   -0.0865 N   0  0  0  0  0  0  0  0  0  0  0  0
   -0.2889   -1.0252   -0.3122 C   0  0  0  0  0  0  0  0  0  0  0  0
   -0.8484    1.3315   -0.1931 C   0  0  0  0  0  0  0  0  0  0  0  0
   -1.6858   -1.4221    0.1682 C   0  0  0  0  0  0  0  0  0  0  0  0
   -2.2635    1.0116    0.2911 C   0  0  0  0  0  0  0  0  0  0  0  0
   -2.7185   -0.3606   -0.1928 C   0  0  0  0  0  0  0  0  0  0  0  0
    1.4566    0.6319   -0.2104 C   0  0  0  0  0  0  0  0  0  0  0  0
    2.4531   -0.3901    0.3167 C   0  0  0  0  0  0  0  0  0  0  0  0
  1  3  1  0
  1  4  1  0
  1  8  1  0
  2  9  1  0
  3  5  1  0
  4  6  1  0
  5  7  1  0
  6  7  1  0
  8  9  1  0
M  END
>  <PUBCHEM_COMPOUND_CID>  (1) 
33944

>  <PUBCHEM_CONFORMER_RMSD>  (1) 
0.6

>  <PUBCHEM_CONFORMER_DIVERSEORDER>  (1) 
1
3
6
5
2
4

>  <PUBCHEM_MMFF94_PARTIAL_CHARGES>  (1) 
8
1 -0.81
2 -0.99
24 0.36
25 0.36
3 0.27
4 0.27
8 0.27
9 0.27

>  <PUBCHEM_EFFECTIVE_ROTOR_COUNT>  (1) 
3.2

>  <PUBCHEM_PHARMACOPHORE_FEATURES>  (1) 
4
1 1 cation
1 2 cation
1 2 donor
6 1 3 4 5 6 7 rings

>  <PUBCHEM_HEAVY_ATOM_COUNT>  (1) 
9

>  <PUBCHEM_ATOM_DEF_STEREO_COUNT>  (1) 
0

>  <PUBCHEM_ATOM_UDEF_STEREO_COUNT>  (1) 
0

>  <PUBCHEM_BOND_DEF_STEREO_COUNT>  (1) 
0

>  <PUBCHEM_BOND_UDEF_STEREO_COUNT>  (1) 
0

>  <PUBCHEM_ISOTOPIC_ATOM_COUNT>  (1) 
0

>  <PUBCHEM_COMPONENT_COUNT>  (1) 
1

>  <PUBCHEM_CACTVS_TAUTO_COUNT>  (1) 
1

>  <PUBCHEM_CONFORMER_ID>  (1) 
0000849800000001

>  <PUBCHEM_MMFF94_ENERGY>  (1) 
-0.6127

>  <PUBCHEM_FEATURE_SELFOVERLAP>  (1) 
20.297

>  <PUBCHEM_SHAPE_FINGERPRINT>  (1) 
10857977 72 18342165704581733112
12932764 1 17748819705351145352
13024252 1 15068340107773988621
14325111 11 18412262796636662216
15310529 11 16370713803769396834
16714656 1 18410011035424889653
20201158 50 18201720639259544886
20645464 45 17846502521385400638
20871998 184 18201442531500492087
21040471 1 18339929195194577693
23235685 24 18341045220924186001
23402539 116 18201710761319840141
23552423 10 18115306829150420340
29004967 10 16128661855111569645
369184 2 15913325797088485827
5084963 1 18410571794876548217
75552 356 18410857676341842530

>  <PUBCHEM_SHAPE_MULTIPOLES>  (1) 
175.25
4.72
1.37
0.65
3.86
0.03
0
0.26
-0.11
-0.76
0.01
-0.04
0
-0.1

>  <PUBCHEM_SHAPE_SELFOVERLAP>  (1) 
331.245

>  <PUBCHEM_SHAPE_VOLUME>  (1) 
108.1

>  <PUBCHEM_COORDINATE_TYPE>  (1) 
2
5
10

$$$$
