33948
     RDKit          3D

 30 32  0  0  0  0  0  0  0  0999 V2000
    3.6582   -1.5819    2.1721 Cl  0  0  0  0  0  0  0  0  0  0  0  0
    1.9996   -2.5711   -0.1337 O   0  0  0  0  0  0  0  0  0  0  0  0
   -0.4651   -1.9526   -0.5347 O   0  0  0  0  0  0  0  0  0  0  0  0
   -5.6451   -0.6994    0.9251 O   0  0  0  0  0  0  0  0  0  0  0  0
    2.2189    3.1959    0.0290 N   0  0  0  0  0  0  0  0  0  0  0  0
    2.8955   -0.4097   -0.5610 N   0  0  0  0  0  0  0  0  0  0  0  0
    2.4359    4.1025    1.1559 C   0  0  0  0  0  0  0  0  0  0  0  0
    0.8329    3.4231   -0.3796 C   0  0  0  0  0  0  0  0  0  0  0  0
    1.7558    5.3840    0.6976 C   0  0  0  0  0  0  0  0  0  0  0  0
    0.7000    4.9372   -0.3089 C   0  0  0  0  0  0  0  0  0  0  0  0
    2.4749    1.8061    0.3766 C   0  0  0  0  0  0  0  0  0  0  0  0
    2.6509    0.9699   -0.8824 C   0  0  0  0  0  0  0  0  0  0  0  0
    4.2811   -0.8455   -0.3815 C   0  0  0  0  0  0  0  0  0  0  0  0
    1.8570   -1.3758   -0.4080 C   0  0  0  0  0  0  0  0  0  0  0  0
    0.4448   -0.8807   -0.6622 C   0  0  0  0  0  0  0  0  0  0  0  0
    4.7220   -1.3908    0.8244 C   0  0  0  0  0  0  0  0  0  0  0  0
    5.1681   -0.7046   -1.4488 C   0  0  0  0  0  0  0  0  0  0  0  0
    6.0498   -1.7951    0.9628 C   0  0  0  0  0  0  0  0  0  0  0  0
    6.4959   -1.1090   -1.3102 C   0  0  0  0  0  0  0  0  0  0  0  0
    6.9368   -1.6541   -0.1045 C   0  0  0  0  0  0  0  0  0  0  0  0
   -1.7546   -1.6416   -0.1731 C   0  0  0  0  0  0  0  0  0  0  0  0
   -7.8555   -0.1584    0.1655 C   0  0  0  0  0  0  0  0  0  0  0  0
   -6.3729    0.1686    0.0577 C   0  0  0  0  0  0  0  0  0  0  0  0
   -8.6958    0.7256   -0.7517 C   0  0  0  0  0  0  0  0  0  0  0  0
   -2.3039   -0.4121   -0.5370 C   0  0  0  0  0  0  0  0  0  0  0  0
   -2.5130   -2.5547    0.5596 C   0  0  0  0  0  0  0  0  0  0  0  0
   -4.3696   -1.0086    0.5644 C   0  0  0  0  0  0  0  0  0  0  0  0
   -3.6112   -0.0956   -0.1684 C   0  0  0  0  0  0  0  0  0  0  0  0
   -3.8206   -2.2383    0.9283 C   0  0  0  0  0  0  0  0  0  0  0  0
  -10.1710    0.3667   -0.6732 C   0  0  0  0  0  0  0  0  0  0  0  0
  1 16  1  0
  2 14  2  0
  3 15  1  0
  3 21  1  0
  4 23  1  0
  4 27  1  0
  5  7  1  0
  5  8  1  0
  5 11  1  0
  6 12  1  0
  6 13  1  0
  6 14  1  0
  7  9  1  0
  8 10  1  0
  9 10  1  0
 11 12  1  0
 13 16  2  0
 13 17  1  0
 14 15  1  0
 16 18  1  0
 17 19  2  0
 18 20  2  0
 19 20  1  0
 21 25  2  0
 21 26  1  0
 22 23  1  0
 22 24  1  0
 24 30  1  0
 25 28  1  0
 26 29  2  0
 27 28  2  0
 27 29  1  0
M  END
>  <PUBCHEM_COMPOUND_CID>  (1) 
33948

>  <PUBCHEM_CONFORMER_RMSD>  (1) 
1.2

>  <PUBCHEM_CONFORMER_DIVERSEORDER>  (1) 
1
87
66
4
28
83
61
86
11
17
21
51
62
52
32
57
91
71
63
15
75
24
3
84
39
110
82
5
33
72
19
108
67
98
8
30
47
41
27
88
69
20
102
53
81
36
80
26
9
68
6
35
45
50
14
54
48
37
100
34
59
90
60
96
64
95
12
104
97
107
2
16
99
49
89
43
109
22
13
29
73
79
44
55
77
10
58
92
78
70
105
46
76
25
56
65
23
94
42
85
74
106
101
40
103
38
93
7
18
31

>  <PUBCHEM_MMFF94_PARTIAL_CHARGES>  (1) 
33
1 -0.18
11 0.27
12 0.3
13 0.12
14 0.57
15 0.34
16 0.18
17 -0.15
18 -0.15
19 -0.15
2 -0.57
20 -0.15
21 0.08
23 0.28
25 -0.15
26 -0.15
27 0.08
28 -0.15
29 -0.15
3 -0.36
4 -0.36
45 0.15
46 0.15
47 0.15
48 0.15
5 -0.81
55 0.15
56 0.15
57 0.15
58 0.15
6 -0.48
7 0.27
8 0.27

>  <PUBCHEM_EFFECTIVE_ROTOR_COUNT>  (1) 
13

>  <PUBCHEM_PHARMACOPHORE_FEATURES>  (1) 
8
1 2 acceptor
1 3 acceptor
1 30 hydrophobe
1 4 acceptor
1 5 cation
5 5 7 8 9 10 rings
6 13 16 17 18 19 20 rings
6 21 25 26 27 28 29 rings

>  <PUBCHEM_HEAVY_ATOM_COUNT>  (1) 
30

>  <PUBCHEM_ATOM_DEF_STEREO_COUNT>  (1) 
0

>  <PUBCHEM_ATOM_UDEF_STEREO_COUNT>  (1) 
0

>  <PUBCHEM_BOND_DEF_STEREO_COUNT>  (1) 
0

>  <PUBCHEM_BOND_UDEF_STEREO_COUNT>  (1) 
0

>  <PUBCHEM_ISOTOPIC_ATOM_COUNT>  (1) 
0

>  <PUBCHEM_COMPONENT_COUNT>  (1) 
1

>  <PUBCHEM_CACTVS_TAUTO_COUNT>  (1) 
1

>  <PUBCHEM_CONFORMER_ID>  (1) 
0000849C00000001

>  <PUBCHEM_MMFF94_ENERGY>  (1) 
96.1707

>  <PUBCHEM_FEATURE_SELFOVERLAP>  (1) 
40.61

>  <PUBCHEM_SHAPE_FINGERPRINT>  (1) 
10050765 1 18195245753361192663
10162869 55 18272360985170583159
11421498 54 18115304467789236042
11456790 92 18260553278027953233
12166972 35 18130791191385949138
12788726 201 18189897522718775666
12925494 130 18265614476132234905
13008946 113 18116714226274792868
13560911 43 18410015412503402409
13878862 14 18336814399328989757
14068700 675 18131637759357335240
14117953 113 18343306942070400487
14725015 67 18336259064342118449
14955137 171 18411425025123029614
15198563 99 18197518250801788700
15420108 30 17628341986465092764
15439362 3 18122908895869901488
15840311 113 17418367008813679810
18335252 114 18412262826986335287
18335252 98 10303813190489786583
19301679 30 18193833735618427858
21792934 111 18411694384334186074
22311459 1 18411700959623531335
23559900 14 18339080505203697987
23576562 1 18198347444917558767
249057 3 18413390943149426775
2838139 119 18411416216561349855
3103668 31 18192152598822972276
335352 9 18410296908575011287
345986 75 17896584117165245578
4760202 170 18339913815808592045
57359948 33 11671519863123396699
58902169 19 17917423251282553757
6086070 43 18410013273367023867
6371009 1 18273218582490851897
6371380 46 18260548931373434147

>  <PUBCHEM_SHAPE_MULTIPOLES>  (1) 
591.69
21.98
5.25
1.24
52.83
11.69
-0.27
-8.47
3.2
-5.99
-1.43
-1.38
-0.29
1.02

>  <PUBCHEM_SHAPE_SELFOVERLAP>  (1) 
1219.711

>  <PUBCHEM_SHAPE_VOLUME>  (1) 
340.2

>  <PUBCHEM_COORDINATE_TYPE>  (1) 
2
5
10

$$$$
