33947
     RDKit          3D

 28 29  0  0  0  0  0  0  0  0999 V2000
    2.1356   -1.7439    0.9524 O   0  0  0  0  0  0  0  0  0  0  0  0
   -0.3279   -2.5542    1.4700 O   0  0  0  0  0  0  0  0  0  0  0  0
   -6.0107   -0.4178   -0.0031 O   0  0  0  0  0  0  0  0  0  0  0  0
    6.9161   -0.0669   -1.2192 O   0  0  0  0  0  0  0  0  0  0  0  0
   -1.3569    3.1831    0.1520 N   0  0  0  0  0  0  0  0  0  0  0  0
   -1.2831   -0.4999    0.8431 N   0  0  0  0  0  0  0  0  0  0  0  0
   -1.3673    1.7582   -0.1530 C   0  0  0  0  0  0  0  0  0  0  0  0
   -1.2458    0.9427    1.1260 C   0  0  0  0  0  0  0  0  0  0  0  0
   -0.1204    3.5545    0.8426 C   0  0  0  0  0  0  0  0  0  0  0  0
   -1.5117    3.9739   -1.0706 C   0  0  0  0  0  0  0  0  0  0  0  0
   -2.4545   -1.0561    0.1977 C   0  0  0  0  0  0  0  0  0  0  0  0
   -0.1258    5.0246    1.2259 C   0  0  0  0  0  0  0  0  0  0  0  0
   -2.7896    3.6052   -1.8048 C   0  0  0  0  0  0  0  0  0  0  0  0
   -0.2186   -1.3595    1.1785 C   0  0  0  0  0  0  0  0  0  0  0  0
   -3.6623   -0.4522    0.4229 C   0  0  0  0  0  0  0  0  0  0  0  0
    1.1711   -0.7514    1.2317 C   0  0  0  0  0  0  0  0  0  0  0  0
   -2.2882   -2.1545   -0.6024 C   0  0  0  0  0  0  0  0  0  0  0  0
   -4.7899   -0.9874   -0.1995 C   0  0  0  0  0  0  0  0  0  0  0  0
   -3.4160   -2.6898   -1.2247 C   0  0  0  0  0  0  0  0  0  0  0  0
   -4.6668   -2.1063   -1.0233 C   0  0  0  0  0  0  0  0  0  0  0  0
    3.3283   -1.3253    0.4112 C   0  0  0  0  0  0  0  0  0  0  0  0
    3.8127   -0.0614    0.7182 C   0  0  0  0  0  0  0  0  0  0  0  0
    4.0297   -2.1735   -0.4345 C   0  0  0  0  0  0  0  0  0  0  0  0
   -7.1209   -1.0161   -0.6701 C   0  0  0  0  0  0  0  0  0  0  0  0
    5.0226    0.3628    0.1688 C   0  0  0  0  0  0  0  0  0  0  0  0
    5.2395   -1.7492   -0.9839 C   0  0  0  0  0  0  0  0  0  0  0  0
    5.7361   -0.4811   -0.6823 C   0  0  0  0  0  0  0  0  0  0  0  0
    7.3647    1.2417   -0.8696 C   0  0  0  0  0  0  0  0  0  0  0  0
  1 16  1  0
  1 21  1  0
  2 14  2  0
  3 18  1  0
  3 24  1  0
  4 27  1  0
  4 28  1  0
  5  7  1  0
  5  9  1  0
  5 10  1  0
  6  8  1  0
  6 11  1  0
  6 14  1  0
  7  8  1  0
  9 12  1  0
 10 13  1  0
 11 15  2  0
 11 17  1  0
 14 16  1  0
 15 18  1  0
 17 19  2  0
 18 20  2  0
 19 20  1  0
 21 22  2  0
 21 23  1  0
 22 25  1  0
 23 26  2  0
 25 27  2  0
 26 27  1  0
M  END
>  <PUBCHEM_COMPOUND_CID>  (1) 
33947

>  <PUBCHEM_CONFORMER_RMSD>  (1) 
1.2

>  <PUBCHEM_CONFORMER_DIVERSEORDER>  (1) 
1
61
107
81
89
33
77
99
66
94
101
8
18
13
97
75
115
80
26
86
113
49
102
100
14
19
93
67
110
64
68
105
53
83
69
85
10
23
45
4
12
30
87
9
52
28
82
103
62
92
91
74
35
84
48
79
6
88
47
34
16
41
96
78
50
55
43
95
37
15
3
70
39
59
38
31
5
22
104
20
32
2
56
60
112
51
11
36
76
65
109
106
24
63
111
25
27
73
114
7
21
71
108
42
17
29
46
54
58
57
98
90
40
44
72

>  <PUBCHEM_MMFF94_PARTIAL_CHARGES>  (1) 
34
1 -0.36
10 0.27
11 0.12
14 0.57
15 -0.15
16 0.34
17 -0.15
18 0.08
19 -0.15
2 -0.57
20 -0.15
21 0.08
22 -0.15
23 -0.15
24 0.28
25 -0.15
26 -0.15
27 0.08
28 0.28
3 -0.36
4 -0.36
43 0.15
46 0.15
47 0.15
48 0.15
49 0.15
5 -0.81
50 0.15
54 0.15
55 0.15
6 -0.48
7 0.27
8 0.3
9 0.27

>  <PUBCHEM_EFFECTIVE_ROTOR_COUNT>  (1) 
12

>  <PUBCHEM_PHARMACOPHORE_FEATURES>  (1) 
7
1 1 acceptor
1 2 acceptor
1 3 acceptor
1 4 acceptor
1 5 cation
6 11 15 17 18 19 20 rings
6 21 22 23 25 26 27 rings

>  <PUBCHEM_HEAVY_ATOM_COUNT>  (1) 
28

>  <PUBCHEM_ATOM_DEF_STEREO_COUNT>  (1) 
0

>  <PUBCHEM_ATOM_UDEF_STEREO_COUNT>  (1) 
0

>  <PUBCHEM_BOND_DEF_STEREO_COUNT>  (1) 
0

>  <PUBCHEM_BOND_UDEF_STEREO_COUNT>  (1) 
0

>  <PUBCHEM_ISOTOPIC_ATOM_COUNT>  (1) 
0

>  <PUBCHEM_COMPONENT_COUNT>  (1) 
1

>  <PUBCHEM_CACTVS_TAUTO_COUNT>  (1) 
1

>  <PUBCHEM_CONFORMER_ID>  (1) 
0000849B00000001

>  <PUBCHEM_MMFF94_ENERGY>  (1) 
112.2832

>  <PUBCHEM_FEATURE_SELFOVERLAP>  (1) 
35.532

>  <PUBCHEM_SHAPE_FINGERPRINT>  (1) 
10670039 82 18334862680442886234
10871710 139 18261114019761424937
11045515 52 18410290350080594787
11049842 53 17394733216987294605
12788726 201 18334852779746859890
14068700 675 18335139817181479228
14347332 77 18268990886946323186
14681490 219 18409447020399025180
14910302 57 17989200417873347818
14955137 171 18339090375687650803
15183329 4 17846784004868448939
15276724 80 18410013195803976277
15439362 3 18049998093983728705
15475509 8 18344146990866441043
15575132 122 18262235521679869951
16994733 274 15430306989649384933
20642791 35 18338223960076368953
21033648 29 13335306463696509916
21033650 10 18121806962354947494
21049683 271 18187929525753912677
21285901 2 18131071489731810511
21304304 249 10303817591892209922
21344244 246 17763458817521420854
21403212 168 9583249318398857827
21641784 216 17968096369998259837
22122407 14 14346090715214281294
221357 26 18342460331529032290
22907989 373 18123457302994759205
23352939 185 18272371987948062537
23559900 14 18128809940046327795
23576562 1 18265037215701276975
24771750 20 17757280644768985197
255183 451 18052530260899481071
283562 15 18262521390291852681
3004659 81 17775566455458409498
46194498 28 18131638894214469198
497634 4 17703801292678611138
5081480 168 18265312071716457757
532947 4 18050562151342120681
7237137 82 18336546019090281597

>  <PUBCHEM_SHAPE_MULTIPOLES>  (1) 
542.79
15.55
5.11
1.4
14.58
8.61
-0.08
-7.72
-7.47
-3.5
-0.3
0.03
0.37
0

>  <PUBCHEM_SHAPE_SELFOVERLAP>  (1) 
1121.769

>  <PUBCHEM_SHAPE_VOLUME>  (1) 
312.8

>  <PUBCHEM_COORDINATE_TYPE>  (1) 
2
5
10

$$$$
