33959
     RDKit          3D

 23 23  0  0  1  0  0  0  0  0999 V2000
   -3.1151    0.5249   -0.5613 P   0  0  0  0  0  0  0  0  0  0  0  0
    1.6557   -0.7269   -0.0325 O   0  0  0  0  0  0  0  0  0  0  0  0
   -2.9501   -0.7394    0.4133 O   0  0  0  0  0  0  0  0  0  0  0  0
   -2.7615    1.7875    0.3905 O   0  0  0  0  0  0  0  0  0  0  0  0
   -4.7231    0.6278   -0.7302 O   0  0  0  0  0  0  0  0  0  0  0  0
   -2.3418    0.4565   -1.8474 O   0  0  0  0  0  0  0  0  0  0  0  0
    0.9462   -2.3451    1.4533 O   0  0  0  0  0  0  0  0  0  0  0  0
    2.9929   -1.2329    0.0391 C   0  0  0  0  0  0  0  0  0  0  0  0
    3.9665   -0.0950   -0.1555 C   0  0  0  0  0  0  0  0  0  0  0  0
    3.1798   -2.3303   -1.0027 C   0  0  0  0  0  0  0  0  0  0  0  0
    3.6244    0.9843   -0.9704 C   0  0  0  0  0  0  0  0  0  0  0  0
    5.2083   -0.1232    0.4794 C   0  0  0  0  0  0  0  0  0  0  0  0
    4.5239    2.0351   -1.1502 C   0  0  0  0  0  0  0  0  0  0  0  0
    6.1077    0.9277    0.2996 C   0  0  0  0  0  0  0  0  0  0  0  0
   -1.7386   -1.3716    0.6083 C   0  0  0  0  0  0  0  0  0  0  0  0
    0.7395   -1.3846    0.7296 C   0  0  0  0  0  0  0  0  0  0  0  0
    5.7655    2.0067   -0.5152 C   0  0  0  0  0  0  0  0  0  0  0  0
   -0.5689   -0.7191    0.5236 C   0  0  0  0  0  0  0  0  0  0  0  0
   -3.4517    1.9179    1.6212 C   0  0  0  0  0  0  0  0  0  0  0  0
   -5.3991   -0.4188   -1.4052 C   0  0  0  0  0  0  0  0  0  0  0  0
   -1.8206   -2.8347    0.9200 C   0  0  0  0  0  0  0  0  0  0  0  0
   -2.9598    3.1601    2.3332 C   0  0  0  0  0  0  0  0  0  0  0  0
   -6.8800   -0.1071   -1.4406 C   0  0  0  0  0  0  0  0  0  0  0  0
  1  3  1  0
  1  4  1  0
  1  5  1  0
  1  6  2  0
  2  8  1  0
  2 16  1  0
  3 15  1  0
  4 19  1  0
  5 20  1  0
  7 16  2  0
  8  9  1  0
  8 10  1  0
  9 11  2  0
  9 12  1  0
 11 13  1  0
 12 14  2  0
 13 17  2  0
 14 17  1  0
 15 18  2  0
 15 21  1  0
 16 18  1  0
 19 22  1  0
 20 23  1  0
M  END
>  <PUBCHEM_COMPOUND_CID>  (1) 
33959

>  <PUBCHEM_CONFORMER_RMSD>  (1) 
1

>  <PUBCHEM_CONFORMER_DIVERSEORDER>  (1) 
1
101
109
114
46
31
82
35
106
43
14
41
126
19
61
73
11
7
21
72
55
105
75
57
74
58
121
103
27
26
33
113
117
62
93
70
90
80
107
108
96
112
12
15
89
119
78
88
122
39
100
84
94
2
66
38
6
120
77
67
13
115
60
37
10
9
92
22
51
124
65
44
3
71
111
104
50
116
87
68
64
8
76
25
4
91
5
54
16
95
20
125
85
69
36
86
56
45
17
81
102
48
118
18
123
30
97
23
98
63
40
83
47
28
53
29
127
49
110
79
42
52
59
99
34
24
32

>  <PUBCHEM_MMFF94_PARTIAL_CHARGES>  (1) 
26
1 1.51
11 -0.15
12 -0.15
13 -0.15
14 -0.15
15 -0.06
16 0.71
17 -0.15
18 -0.14
19 0.28
2 -0.43
20 0.28
21 0.14
28 0.15
29 0.15
3 -0.35
30 0.15
31 0.15
32 0.15
33 0.15
4 -0.55
5 -0.55
6 -0.7
7 -0.57
8 0.42
9 -0.14

>  <PUBCHEM_EFFECTIVE_ROTOR_COUNT>  (1) 
10

>  <PUBCHEM_PHARMACOPHORE_FEATURES>  (1) 
3
1 6 acceptor
1 7 acceptor
6 9 11 12 13 14 17 rings

>  <PUBCHEM_HEAVY_ATOM_COUNT>  (1) 
23

>  <PUBCHEM_ATOM_DEF_STEREO_COUNT>  (1) 
0

>  <PUBCHEM_ATOM_UDEF_STEREO_COUNT>  (1) 
0

>  <PUBCHEM_BOND_DEF_STEREO_COUNT>  (1) 
0

>  <PUBCHEM_BOND_UDEF_STEREO_COUNT>  (1) 
1

>  <PUBCHEM_ISOTOPIC_ATOM_COUNT>  (1) 
0

>  <PUBCHEM_COMPONENT_COUNT>  (1) 
1

>  <PUBCHEM_CACTVS_TAUTO_COUNT>  (1) 
1

>  <PUBCHEM_CONFORMER_ID>  (1) 
000084A700000001

>  <PUBCHEM_MMFF94_ENERGY>  (1) 
42.6396

>  <PUBCHEM_FEATURE_SELFOVERLAP>  (1) 
15.223

>  <PUBCHEM_SHAPE_FINGERPRINT>  (1) 
10595046 47 18059573546742589942
11049842 53 16841350809939242415
12633257 1 17967813864793802684
12788726 201 18131344177679725827
13402501 40 17894905248191837948
13941219 33 9295291646805601825
14617045 38 11743842494976348644
14767858 380 18341038697306661751
14931854 50 18413671305138959084
15183329 4 18334298639815802010
15537594 2 10087639312536979976
16994733 274 16878495710946656149
20157964 124 18261387841164774278
20645477 56 17894915117910710438
20715895 44 18040992942953075820
21033650 10 17631193925678924984
21315763 76 18260264161661058764
21315764 268 17603573115562690740
21623110 236 18260557748535305757
21864079 5 18119815707319270585
23503953 91 12612756812927752724
235170 7 16271933688079112484
2838139 119 17968364710811913999
312425 54 11891338677002046852
312425 83 17559410062538141052
3472631 163 18113896091539946838
351380 3 10519987067076419396
46194498 28 16056588902687687080
465052 167 9727362346359202536
469060 322 16878808108980509403
474 4 18260831492792020410
633830 44 18268440026982649842
7970288 3 11455595613191783741

>  <PUBCHEM_SHAPE_MULTIPOLES>  (1) 
441.96
15.3
2.97
1.66
0.8
0.5
0.18
6.72
-6.11
-0.21
1.59
-2.03
0.67
-1.91

>  <PUBCHEM_SHAPE_SELFOVERLAP>  (1) 
872.042

>  <PUBCHEM_SHAPE_VOLUME>  (1) 
264.3

>  <PUBCHEM_COORDINATE_TYPE>  (1) 
2
5
10

$$$$
