33962
     RDKit          3D

 12 13  0  0  0  0  0  0  0  0999 V2000
   -1.4567   -1.0695    0.0000 N   0  0  0  0  0  0  0  0  0  0  0  0
    0.3803    0.4902   -0.0001 C   0  0  0  0  0  0  0  0  0  0  0  0
    1.7682    0.7102    0.0000 C   0  0  0  0  0  0  0  0  0  0  0  0
   -0.1328   -0.8238   -0.0001 C   0  0  0  0  0  0  0  0  0  0  0  0
   -0.5314    1.5545   -0.0001 C   0  0  0  0  0  0  0  0  0  0  0  0
    2.6517   -0.3654    0.0000 C   0  0  0  0  0  0  0  0  0  0  0  0
    0.7733   -1.8806    0.0000 C   0  0  0  0  0  0  0  0  0  0  0  0
   -2.3031   -0.0143   -0.0001 C   0  0  0  0  0  0  0  0  0  0  0  0
   -1.8962    1.3044   -0.0001 C   0  0  0  0  0  0  0  0  0  0  0  0
    2.1533   -1.6623    0.0000 C   0  0  0  0  0  0  0  0  0  0  0  0
    2.3547    2.0874    0.0001 C   0  0  0  0  0  0  0  0  0  0  0  0
   -3.7613   -0.3308    0.0002 C   0  0  0  0  0  0  0  0  0  0  0  0
  1  4  2  0
  1  8  1  0
  2  3  1  0
  2  4  1  0
  2  5  2  0
  3  6  2  0
  3 11  1  0
  4  7  1  0
  5  9  1  0
  6 10  1  0
  7 10  2  0
  8  9  2  0
  8 12  1  0
M  END
>  <PUBCHEM_COMPOUND_CID>  (1) 
33962

>  <PUBCHEM_CONFORMER_RMSD>  (1) 
0.4

>  <PUBCHEM_CONFORMER_DIVERSEORDER>  (1) 
1

>  <PUBCHEM_MMFF94_PARTIAL_CHARGES>  (1) 
16
1 -0.62
10 -0.15
11 0.14
12 0.14
13 0.15
14 0.15
15 0.15
16 0.15
17 0.15
3 -0.14
4 0.31
5 -0.15
6 -0.15
7 -0.15
8 0.17
9 -0.15

>  <PUBCHEM_EFFECTIVE_ROTOR_COUNT>  (1) 
0

>  <PUBCHEM_PHARMACOPHORE_FEATURES>  (1) 
3
1 1 acceptor
6 1 2 4 5 8 9 rings
6 2 3 4 6 7 10 rings

>  <PUBCHEM_HEAVY_ATOM_COUNT>  (1) 
12

>  <PUBCHEM_ATOM_DEF_STEREO_COUNT>  (1) 
0

>  <PUBCHEM_ATOM_UDEF_STEREO_COUNT>  (1) 
0

>  <PUBCHEM_BOND_DEF_STEREO_COUNT>  (1) 
0

>  <PUBCHEM_BOND_UDEF_STEREO_COUNT>  (1) 
0

>  <PUBCHEM_ISOTOPIC_ATOM_COUNT>  (1) 
0

>  <PUBCHEM_COMPONENT_COUNT>  (1) 
1

>  <PUBCHEM_CACTVS_TAUTO_COUNT>  (1) 
1

>  <PUBCHEM_CONFORMER_ID>  (1) 
000084AA00000001

>  <PUBCHEM_MMFF94_ENERGY>  (1) 
35.6447

>  <PUBCHEM_FEATURE_SELFOVERLAP>  (1) 
15.254

>  <PUBCHEM_SHAPE_FINGERPRINT>  (1) 
10608611 8 18335697217920888293
10967382 1 18410574032401392132
11206711 2 18263930933959875549
11471102 20 18410288095370399005
12524768 44 18407761451624405569
12696612 119 18339367344525878864
12897270 3 18409449180556292605
13380535 76 18337951324168499474
13897977 150 18338514273905870229
14251717 144 18340480153736556247
14325111 11 18410575097743484417
15775835 57 18200598119296713789
161256 15 18409167684073187932
16945 1 18410573950855133222
17844478 74 18041288694659456417
17990270 104 18267304235750124746
193761 8 14519463464906541797
19973954 147 18339080376212273521
20201158 50 18408603634719006003
20645477 70 18412539899785325207
21040471 1 18194682798690252128
21501502 16 18338802199876038697
2334 1 18050568735595348834
23402655 69 18341039736651928093
23463225 33 18409166588793067905
23552423 10 18335703806031045879
23559900 14 17261590674447963046
241688 4 17833833768232522986
2748010 2 18193846074399241542
449060 62 18341055206707325001
5084963 1 18201155464370438106
528886 8 18339075007502984786
53812653 166 18127971016985483296
581208 293 18340761637018169805
63268167 104 18338520729114966360
7364860 26 18343302570072890596

>  <PUBCHEM_SHAPE_MULTIPOLES>  (1) 
241.97
4.52
2.08
0.61
2.62
0.2
0
-0.05
0
-1.16
0
-0.01
0.01
0

>  <PUBCHEM_SHAPE_SELFOVERLAP>  (1) 
527.382

>  <PUBCHEM_SHAPE_VOLUME>  (1) 
132.8

>  <PUBCHEM_COORDINATE_TYPE>  (1) 
2
5
10

$$$$
