33970
     RDKit          3D

 14 13  0  0  1  0  0  0  0  0999 V2000
   -1.1485   -2.2114    0.8901 O   0  0  0  0  0  0  0  0  0  0  0  0
   -1.1777   -1.7419   -1.3282 O   0  0  0  0  0  0  0  0  0  0  0  0
   -0.9925    0.0951    0.2697 C   0  0  0  0  0  0  0  0  0  0  0  0
    0.3350    0.6754   -0.2596 C   0  0  0  0  0  0  0  0  0  0  0  0
   -2.2076    0.9397   -0.1622 C   0  0  0  0  0  0  0  0  0  0  0  0
    1.5969   -0.0078    0.2849 C   0  0  0  0  0  0  0  0  0  0  0  0
    2.8620    0.6753   -0.2433 C   0  0  0  0  0  0  0  0  0  0  0  0
   -3.5624    0.3977    0.3180 C   0  0  0  0  0  0  0  0  0  0  0  0
    4.1567    0.0587    0.2943 C   0  0  0  0  0  0  0  0  0  0  0  0
   -4.7752    1.1594   -0.2130 C   0  0  0  0  0  0  0  0  0  0  0  0
   -1.1087   -1.3594   -0.1676 C   0  0  0  0  0  0  0  0  0  0  0  0
    5.4203    0.6921   -0.2888 C   0  0  0  0  0  0  0  0  0  0  0  0
   -6.0743    0.5730    0.3196 C   0  0  0  0  0  0  0  0  0  0  0  0
    6.6761    0.0542    0.2860 C   0  0  0  0  0  0  0  0  0  0  0  0
  1 11  1  0
  2 11  2  0
  3  4  1  0
  3  5  1  0
  3 11  1  0
  4  6  1  0
  5  8  1  0
  6  7  1  0
  7  9  1  0
  8 10  1  0
  9 12  1  0
 10 13  1  0
 12 14  1  0
M  END
>  <PUBCHEM_COMPOUND_CID>  (1) 
33970

>  <PUBCHEM_CONFORMER_RMSD>  (1) 
0.8

>  <PUBCHEM_CONFORMER_DIVERSEORDER>  (1) 
1
277
138
393
241
147
345
382
128
194
390
272
69
208
70
394
129
342
130
384
330
168
379
105
383
156
288
371
15
304
387
285
334
101
283
372
212
355
259
335
199
320
351
6
145
363
141
358
11
174
189
289
251
53
211
215
100
370
226
201
222
155
217
354
269
319
239
86
300
47
326
313
127
322
102
109
361
260
14
20
56
223
182
106
337
205
257
170
238
43
381
5
111
210
50
281
119
389
94
362
373
19
352
270
72
35
203
73
353
90
282
254
290
237
13
80
297
279
84
391
253
303
108
308
44
8
295
232
329
293
3
376
291
185
126
344
213
314
114
75
307
39
2
82
12
343
248
388
198
133
200
55
262
332
160
301
40
26
356
392
110
305
240
74
380
22
256
146
27
154
230
131
243
273
346
169
318
151
180
336
49
292
207
81
79
103
378
87
280
247
267
175
28
340
42
158
299
214
67
136
264
92
286
161
140
333
98
77
46
177
278
64
341
261
176
315
59
41
124
375
121
17
317
71
25
209
225
91
76
83
245
137
36
219
188
350
197
37
88
104
116
142
122
258
99
235
143
296
30
227
183
192
276
60
233
377
181
159
16
252
302
167
58
360
51
366
7
310
96
374
244
364
242
52
23
323
163
93
266
195
54
357
144
107
150
368
271
38
187
157
112
206
349
338
367
149
309
48
234
57
385
218
120
221
324
263
202
246
224
9
190
268
113
312
265
191
4
325
164
65
255
63
32
369
216
275
236
61
298
311
171
66
95
220
359
386
45
29
193
134
89
274
287
97
18
231
148
21
331
228
178
33
132
294
328
229
184
165
179
284
31
204
118
152
139
115
250
196
123
153
327
10
34
306
365
166
347
316
62
117
135
85
125
78
186
173
68
162
348
24
321
339
172
249

>  <PUBCHEM_MMFF94_PARTIAL_CHARGES>  (1) 
5
1 -0.65
11 0.66
2 -0.57
3 0.06
38 0.5

>  <PUBCHEM_EFFECTIVE_ROTOR_COUNT>  (1) 
9

>  <PUBCHEM_PHARMACOPHORE_FEATURES>  (1) 
5
1 1 acceptor
1 13 hydrophobe
1 14 hydrophobe
1 2 acceptor
3 1 2 11 anion

>  <PUBCHEM_HEAVY_ATOM_COUNT>  (1) 
14

>  <PUBCHEM_ATOM_DEF_STEREO_COUNT>  (1) 
0

>  <PUBCHEM_ATOM_UDEF_STEREO_COUNT>  (1) 
1

>  <PUBCHEM_BOND_DEF_STEREO_COUNT>  (1) 
0

>  <PUBCHEM_BOND_UDEF_STEREO_COUNT>  (1) 
0

>  <PUBCHEM_ISOTOPIC_ATOM_COUNT>  (1) 
0

>  <PUBCHEM_COMPONENT_COUNT>  (1) 
1

>  <PUBCHEM_CACTVS_TAUTO_COUNT>  (1) 
1

>  <PUBCHEM_CONFORMER_ID>  (1) 
000084B200000001

>  <PUBCHEM_MMFF94_ENERGY>  (1) 
3.9629

>  <PUBCHEM_FEATURE_SELFOVERLAP>  (1) 
25.431

>  <PUBCHEM_SHAPE_FINGERPRINT>  (1) 
10014705 185 18342454889404788376
11315181 36 17775007921036661232
12815109 37 9439401328438127921
13533116 47 16988283063164937134
13740256 8 9727335945053205437
1420 363 7997969085558356664
14251718 22 10807935964409958360
15501527 16 18410856572525029320
17834072 8 18343027675276078676
17834076 25 17989487416151263496
187816 3 17346881139400229649
200 152 12247680461162285680
20279233 1 17274832371915616996
20281389 69 18333448738275392608
20645477 56 18411698794453391092
20645477 70 16629974218405659060
20681677 155 18334290998646879298
20767249 213 18410575093612079928
22224240 67 18407763634417384145
23402539 116 18059850675481747405
23559900 14 17775276210168497648
23622692 88 17676491656974513022
300161 21 18411132559488109944
3545911 37 18410293601798105608
366044 4 18272370862961996919
42788 4 18113900450836825952
474229 33 18409451393192385227
559249 180 18411696599909907574
59755656 520 18334571356700497303

>  <PUBCHEM_SHAPE_MULTIPOLES>  (1) 
276.37
14.27
1.46
0.8
10.01
0.94
0.09
-5.02
-1.28
-1.07
0.07
-0.13
0.23
-0.15

>  <PUBCHEM_SHAPE_SELFOVERLAP>  (1) 
503.724

>  <PUBCHEM_SHAPE_VOLUME>  (1) 
176.6

>  <PUBCHEM_COORDINATE_TYPE>  (1) 
2
5
10

$$$$
