33975
     RDKit          3D

 21 21  0  0  0  0  0  0  0  0999 V2000
   -3.1096    0.9731    1.1096 S   0  0  0  0  0  0  0  0  0  0  0  0
   -3.2911    2.1745    0.0157 O   0  0  0  0  0  0  0  0  0  0  0  0
   -4.4364    0.6596    1.6199 O   0  0  0  0  0  0  0  0  0  0  0  0
   -2.0352    1.3466    2.0164 O   0  0  0  0  0  0  0  0  0  0  0  0
    3.5021   -0.8647    1.2686 C   0  0  0  0  0  0  0  0  0  0  0  0
    4.2572    0.4682    1.2674 C   0  0  0  0  0  0  0  0  0  0  0  0
    3.6993   -1.6793   -0.0119 C   0  0  0  0  0  0  0  0  0  0  0  0
    3.8452    1.4711    0.1850 C   0  0  0  0  0  0  0  0  0  0  0  0
    2.9123   -2.9910    0.0430 C   0  0  0  0  0  0  0  0  0  0  0  0
    2.3598    1.8391    0.2245 C   0  0  0  0  0  0  0  0  0  0  0  0
    1.3984   -2.7883    0.1781 C   0  0  0  0  0  0  0  0  0  0  0  0
    2.0088    2.8335   -0.8855 C   0  0  0  0  0  0  0  0  0  0  0  0
    0.7501   -1.9287   -0.9147 C   0  0  0  0  0  0  0  0  0  0  0  0
    0.5388    3.2578   -0.8757 C   0  0  0  0  0  0  0  0  0  0  0  0
   -0.7287   -1.7055   -0.7207 C   0  0  0  0  0  0  0  0  0  0  0  0
    0.1797    4.2259   -1.9922 C   0  0  0  0  0  0  0  0  0  0  0  0
   -1.1784   -0.6075    0.0125 C   0  0  0  0  0  0  0  0  0  0  0  0
   -1.6469   -2.5976   -1.2744 C   0  0  0  0  0  0  0  0  0  0  0  0
   -2.5462   -0.4014    0.1917 C   0  0  0  0  0  0  0  0  0  0  0  0
   -3.0148   -2.3916   -1.0952 C   0  0  0  0  0  0  0  0  0  0  0  0
   -3.4644   -1.2935   -0.3620 C   0  0  0  0  0  0  0  0  0  0  0  0
  1  2  1  0
  1  3  2  0
  1  4  2  0
  1 19  1  0
  5  6  1  0
  5  7  1  0
  6  8  1  0
  7  9  1  0
  8 10  1  0
  9 11  1  0
 10 12  1  0
 11 13  1  0
 12 14  1  0
 13 15  1  0
 14 16  1  0
 15 17  2  0
 15 18  1  0
 17 19  1  0
 18 20  2  0
 19 21  2  0
 20 21  1  0
M  END
>  <PUBCHEM_COMPOUND_CID>  (1) 
33975

>  <PUBCHEM_CONFORMER_RMSD>  (1) 
1.2

>  <PUBCHEM_CONFORMER_DIVERSEORDER>  (1) 
10
61
134
103
29
124
5
121
34
71
90
38
22
68
101
128
96
33
7
55
78
4
57
127
85
67
123
137
47
131
26
102
91
126
75
116
11
28
118
83
54
45
104
125
21
2
16
58
92
77
52
65
6
111
100
79
135
64
80
25
82
14
66
133
36
107
81
17
12
41
93
15
62
23
20
119
18
50
30
97
60
73
9
99
120
31
37
74
70
132
122
3
87
32
49
44
129
8
27
69
51
117
84
76
136
59
40
53
24
95
42
130
106
72
138
108
46
39
35
13
112
115
89
1
19
94
86
88
56
98
109
105
114
43
113
48
63
110

>  <PUBCHEM_MMFF94_PARTIAL_CHARGES>  (1) 
16
1 1.49
13 0.14
15 -0.14
17 -0.15
18 -0.15
19 -0.01
2 -0.68
20 -0.15
21 -0.15
3 -0.65
4 -0.65
45 0.15
46 0.15
47 0.15
48 0.15
49 0.5

>  <PUBCHEM_EFFECTIVE_ROTOR_COUNT>  (1) 
11

>  <PUBCHEM_PHARMACOPHORE_FEATURES>  (1) 
6
1 16 hydrophobe
1 2 acceptor
1 3 acceptor
1 4 acceptor
4 1 2 3 4 anion
6 15 17 18 19 20 21 rings

>  <PUBCHEM_HEAVY_ATOM_COUNT>  (1) 
21

>  <PUBCHEM_ATOM_DEF_STEREO_COUNT>  (1) 
0

>  <PUBCHEM_ATOM_UDEF_STEREO_COUNT>  (1) 
0

>  <PUBCHEM_BOND_DEF_STEREO_COUNT>  (1) 
0

>  <PUBCHEM_BOND_UDEF_STEREO_COUNT>  (1) 
0

>  <PUBCHEM_ISOTOPIC_ATOM_COUNT>  (1) 
0

>  <PUBCHEM_COMPONENT_COUNT>  (1) 
1

>  <PUBCHEM_CACTVS_TAUTO_COUNT>  (1) 
1

>  <PUBCHEM_CONFORMER_ID>  (1) 
000084B70000000A

>  <PUBCHEM_MMFF94_ENERGY>  (1) 
17.6303

>  <PUBCHEM_FEATURE_SELFOVERLAP>  (1) 
30.503

>  <PUBCHEM_SHAPE_FINGERPRINT>  (1) 
10708813 3 18412828022928142172
11244481 83 15141533596028516902
12100795 323 18194111924459386060
12422481 6 17976842903720738089
12553582 1 18259984907567581332
12788726 201 17480037714178173501
13402501 40 17544756724946285164
13583140 156 18042975264003265795
13965767 371 18055638317560117818
14787075 74 17904471158299654443
15003188 8 18339342090271529648
17859628 37 18340488850897494830
20621476 7 18195536899865444472
4409770 3 17186161964536294022
474 4 18336823199347862946
5312544 6 17397536988527407006
7064713 232 18130780153514859040

>  <PUBCHEM_SHAPE_MULTIPOLES>  (1) 
418.41
7.9
5.02
1.56
0.54
3.09
0.2
-0.64
3.14
1.73
-2.82
-0.69
0.92
-1.93

>  <PUBCHEM_SHAPE_SELFOVERLAP>  (1) 
808.346

>  <PUBCHEM_SHAPE_VOLUME>  (1) 
254.5

>  <PUBCHEM_COORDINATE_TYPE>  (1) 
2
5
10

$$$$
