33971
     RDKit          3D

  8  8  0  0  0  0  0  0  0  0999 V2000
   -0.0116    1.0419    0.0001 N   0  0  0  0  0  0  0  0  0  0  0  0
   -1.1710   -1.0589    0.0001 N   0  0  0  0  0  0  0  0  0  0  0  0
    1.2281   -1.0126   -0.0001 N   0  0  0  0  0  0  0  0  0  0  0  0
    2.3333    1.0559    0.0001 N   0  0  0  0  0  0  0  0  0  0  0  0
   -1.1192    0.2829    0.0001 C   0  0  0  0  0  0  0  0  0  0  0  0
   -2.4245    1.0033   -0.0001 C   0  0  0  0  0  0  0  0  0  0  0  0
    1.1245    0.3262   -0.0002 C   0  0  0  0  0  0  0  0  0  0  0  0
    0.0403   -1.6387    0.0000 C   0  0  0  0  0  0  0  0  0  0  0  0
  1  5  2  0
  1  7  1  0
  2  5  1  0
  2  8  2  0
  3  7  2  0
  3  8  1  0
  4  7  1  0
  5  6  1  0
M  END
>  <PUBCHEM_COMPOUND_CID>  (1) 
33971

>  <PUBCHEM_CONFORMER_RMSD>  (1) 
0.4

>  <PUBCHEM_CONFORMER_DIVERSEORDER>  (1) 
1

>  <PUBCHEM_MMFF94_PARTIAL_CHARGES>  (1) 
11
1 -0.62
12 0.15
13 0.4
14 0.4
2 -0.62
3 -0.62
4 -0.9
5 0.48
6 0.14
7 0.72
8 0.47

>  <PUBCHEM_EFFECTIVE_ROTOR_COUNT>  (1) 
0

>  <PUBCHEM_PHARMACOPHORE_FEATURES>  (1) 
3
1 4 donor
4 1 3 4 7 cation
6 1 2 3 5 7 8 rings

>  <PUBCHEM_HEAVY_ATOM_COUNT>  (1) 
8

>  <PUBCHEM_ATOM_DEF_STEREO_COUNT>  (1) 
0

>  <PUBCHEM_ATOM_UDEF_STEREO_COUNT>  (1) 
0

>  <PUBCHEM_BOND_DEF_STEREO_COUNT>  (1) 
0

>  <PUBCHEM_BOND_UDEF_STEREO_COUNT>  (1) 
0

>  <PUBCHEM_ISOTOPIC_ATOM_COUNT>  (1) 
0

>  <PUBCHEM_COMPONENT_COUNT>  (1) 
1

>  <PUBCHEM_CACTVS_TAUTO_COUNT>  (1) 
4

>  <PUBCHEM_CONFORMER_ID>  (1) 
000084B300000001

>  <PUBCHEM_MMFF94_ENERGY>  (1) 
19.7903

>  <PUBCHEM_FEATURE_SELFOVERLAP>  (1) 
15.223

>  <PUBCHEM_SHAPE_FINGERPRINT>  (1) 
16714656 1 18122349248476434902
20096714 4 18411137996041006803
21040471 1 18410574002373602788
23552423 10 18260831557242988014
29004967 10 18046635494913785979

>  <PUBCHEM_SHAPE_MULTIPOLES>  (1) 
144.71
2.66
1.59
0.57
0.49
0.44
0
-1.19
0
-0.23
0
0.03
0
0

>  <PUBCHEM_SHAPE_SELFOVERLAP>  (1) 
294.749

>  <PUBCHEM_SHAPE_VOLUME>  (1) 
78.5

>  <PUBCHEM_COORDINATE_TYPE>  (1) 
2
5
10

$$$$
