33987
     RDKit          3D

 22 23  0  0  1  0  0  0  0  0999 V2000
    6.0995   -0.6377   -1.9571 Cl  0  0  0  0  0  0  0  0  0  0  0  0
    6.7250    0.5582    0.6270 Cl  0  0  0  0  0  0  0  0  0  0  0  0
   -1.4179    2.9725   -0.3465 O   0  0  0  0  0  0  0  0  0  0  0  0
   -3.9297    2.3823    0.1434 O   0  0  0  0  0  0  0  0  0  0  0  0
    4.7919   -1.8140    0.6374 O   0  0  0  0  0  0  0  0  0  0  0  0
   -0.9809    0.8791    0.6470 N   0  0  0  0  0  0  0  0  0  0  0  0
   -1.7186    1.5846   -0.3817 C   0  0  0  0  0  0  0  0  0  0  0  0
    0.3439    0.4864    0.5284 C   0  0  0  0  0  0  0  0  0  0  0  0
   -3.2283    1.3823   -0.1212 C   0  0  0  0  0  0  0  0  0  0  0  0
   -3.8239    0.0569   -0.1722 C   0  0  0  0  0  0  0  0  0  0  0  0
    1.1276    0.9124   -0.5596 C   0  0  0  0  0  0  0  0  0  0  0  0
    0.9377   -0.3479    1.4929 C   0  0  0  0  0  0  0  0  0  0  0  0
    3.0312   -0.3102    0.2875 C   0  0  0  0  0  0  0  0  0  0  0  0
    2.4599    0.5173   -0.6791 C   0  0  0  0  0  0  0  0  0  0  0  0
    2.2702   -0.7429    1.3735 C   0  0  0  0  0  0  0  0  0  0  0  0
   -3.2863   -0.9175   -1.0133 C   0  0  0  0  0  0  0  0  0  0  0  0
   -4.9326   -0.2407    0.6204 C   0  0  0  0  0  0  0  0  0  0  0  0
    4.4206   -0.7214    0.1634 C   0  0  0  0  0  0  0  0  0  0  0  0
   -3.8575   -2.1891   -1.0621 C   0  0  0  0  0  0  0  0  0  0  0  0
   -5.5036   -1.5124    0.5717 C   0  0  0  0  0  0  0  0  0  0  0  0
   -4.9660   -2.4866   -0.2697 C   0  0  0  0  0  0  0  0  0  0  0  0
    5.4376    0.1884   -0.5304 C   0  0  0  0  0  0  0  0  0  0  0  0
  1 22  1  0
  2 22  1  0
  3  7  1  0
  4  9  2  0
  5 18  2  0
  6  7  1  0
  6  8  1  0
  7  9  1  0
  8 11  2  0
  8 12  1  0
  9 10  1  0
 10 16  2  0
 10 17  1  0
 11 14  1  0
 12 15  2  0
 13 14  2  0
 13 15  1  0
 13 18  1  0
 16 19  1  0
 17 20  2  0
 18 22  1  0
 19 21  2  0
 20 21  1  0
M  END
>  <PUBCHEM_COMPOUND_CID>  (1) 
33987

>  <PUBCHEM_CONFORMER_RMSD>  (1) 
0.8

>  <PUBCHEM_CONFORMER_DIVERSEORDER>  (1) 
1
247
187
45
385
400
259
72
414
194
386
257
415
387
395
265
150
371
203
167
172
111
224
161
123
56
125
109
337
428
214
390
280
355
60
219
417
215
272
346
412
249
49
318
352
422
14
147
356
143
105
286
427
17
104
216
132
426
5
12
165
357
207
91
394
303
291
389
302
420
83
217
282
198
262
366
13
78
360
177
327
168
246
38
86
402
425
88
268
4
315
158
235
52
307
87
245
304
195
411
301
108
404
362
118
401
26
310
348
47
266
48
345
305
373
288
277
50
155
181
342
77
41
20
35
335
27
419
121
260
358
368
289
174
388
397
231
208
274
405
399
54
311
189
306
44
296
234
164
329
413
206
133
130
149
153
254
316
202
62
29
197
226
191
339
347
112
15
218
324
204
300
321
267
103
377
320
24
210
258
367
117
30
178
331
334
255
85
407
7
116
271
193
137
46
71
273
222
340
264
223
375
100
252
313
256
68
65
37
39
176
221
248
361
240
241
140
238
293
298
392
250
138
145
122
243
173
299
192
119
146
79
376
190
124
278
70
416
269
242
232
84
6
343
59
263
384
281
179
365
113
237
239
51
199
127
211
233
28
9
261
101
188
136
349
8
328
284
180
148
184
107
23
160
341
364
81
200
114
196
90
131
75
141
322
251
159
209
336
380
89
139
370
53
63
279
106
74
213
16
393
142
43
292
290
134
323
378
382
157
230
309
66
244
418
201
186
332
294
154
326
398
285
351
152
156
403
128
151
308
69
283
182
391
338
110
171
93
61
40
95
92
225
98
120
115
372
383
144
175
94
236
229
97
129
21
3
32
333
314
10
396
369
99
408
363
76
102
319
212
423
359
11
163
379
205
381
33
410
295
126
57
353
36
350
330
325
317
374
227
183
287
96
169
276
354
80
424
185
18
421
73
162
253
275
406
55
166
344
270
34
2
228
82
22
42
312
58
135
31
19
64
220
297
25
409
170
67

>  <PUBCHEM_MMFF94_PARTIAL_CHARGES>  (1) 
33
1 -0.29
10 0.09
11 -0.15
12 -0.15
13 0.09
14 -0.15
15 -0.15
16 -0.15
17 -0.15
18 0.42
19 -0.15
2 -0.29
20 -0.15
21 -0.15
22 0.64
24 0.4
25 0.15
26 0.15
27 0.15
28 0.15
29 0.15
3 -0.68
30 0.15
31 0.4
32 0.15
33 0.15
34 0.15
4 -0.57
5 -0.57
6 -0.87
7 0.71
8 0.1
9 0.42

>  <PUBCHEM_EFFECTIVE_ROTOR_COUNT>  (1) 
6

>  <PUBCHEM_PHARMACOPHORE_FEATURES>  (1) 
8
1 3 acceptor
1 3 donor
1 4 acceptor
1 5 acceptor
1 6 cation
1 6 donor
6 10 16 17 19 20 21 rings
6 8 11 12 13 14 15 rings

>  <PUBCHEM_HEAVY_ATOM_COUNT>  (1) 
22

>  <PUBCHEM_ATOM_DEF_STEREO_COUNT>  (1) 
0

>  <PUBCHEM_ATOM_UDEF_STEREO_COUNT>  (1) 
1

>  <PUBCHEM_BOND_DEF_STEREO_COUNT>  (1) 
0

>  <PUBCHEM_BOND_UDEF_STEREO_COUNT>  (1) 
0

>  <PUBCHEM_ISOTOPIC_ATOM_COUNT>  (1) 
0

>  <PUBCHEM_COMPONENT_COUNT>  (1) 
1

>  <PUBCHEM_CACTVS_TAUTO_COUNT>  (1) 
23

>  <PUBCHEM_CONFORMER_ID>  (1) 
000084C300000001

>  <PUBCHEM_MMFF94_ENERGY>  (1) 
68.1674

>  <PUBCHEM_FEATURE_SELFOVERLAP>  (1) 
40.645

>  <PUBCHEM_SHAPE_FINGERPRINT>  (1) 
10042902 136 18057317495339076207
10595046 47 18334576828799633368
11046707 91 18412258437498109905
11056379 131 18340211777988365141
11089746 13 8790885159940503834
11524674 6 16845853482122332815
11796584 16 18058167237464938038
12236239 1 18040997319276713341
12553582 1 18335969970246145883
12633257 1 16271645715054026023
13167823 11 18335699408158699082
13288520 33 18411420609511137517
13911987 19 15502389919325111318
14251732 14 18411709798338847854
14251732 16 18341610456190670592
14251757 5 18337392750397200579
14251758 9 9799698125397295784
14251764 38 12324250463700728702
14461889 52 18271237318636003130
14466204 15 9079116648483613566
14528608 73 18113625577857559956
14576447 43 18113332024715440170
14767858 380 17822301214434140630
15461852 350 13334746755879154482
15537594 2 18333731308452693115
16110190 28 18130790126355099439
17349148 13 17385439908406262096
17780758 139 17775007903724897411
17834072 33 18334014986826500716
17844677 252 18272090500303084688
18335252 98 17989211477935926398
18927931 339 18413673517642695871
200 152 17894348878112222873
20291156 8 18335977671111756457
20621476 21 17917443024716502534
21054139 6 18040711489683537618
21150785 3 18261404373163316326
21267235 1 18336271232163504379
21623969 137 16486981687209322110
220451 1 18336555910795310808
22950370 63 18410856594405852787
2297311 6 18271814509761935141
2303208 19 17704359853423375686
23081809 10 17749112158659832056
23402539 116 18040434373697595020
23559900 14 18341882026777929721
238078 22 18412823564789285353
2838139 119 13045932521367127447
33382 64 17703518714180661574
335352 9 18410570692135544381
34797466 226 18130795590149845620
351380 3 18334293188880123123
4325135 7 18408322202997793516
5104073 3 18272643524592035400
602551 16 18202277022028791302
6328613 192 10735870716814552210
6898599 12 18115868495094159661
7062679 117 18408604772853561002
7495541 125 18059849584971368152
7970288 3 18266455593764274367

>  <PUBCHEM_SHAPE_MULTIPOLES>  (1) 
433.9
15.99
2.27
1.27
11.41
0.52
-0.13
-6.46
-1.82
-3.51
-0.35
1.25
-0.37
-0.21

>  <PUBCHEM_SHAPE_SELFOVERLAP>  (1) 
902.711

>  <PUBCHEM_SHAPE_VOLUME>  (1) 
247

>  <PUBCHEM_COORDINATE_TYPE>  (1) 
2
5
10

$$$$
