33986
     RDKit          3D

 23 24  0  0  1  0  0  0  0  0999 V2000
   -2.8809   -3.4510   -1.4788 Cl  0  0  0  0  0  0  0  0  0  0  0  0
    6.5143   -0.7222    1.5483 Cl  0  0  0  0  0  0  0  0  0  0  0  0
    5.8541   -2.3145   -0.8027 Cl  0  0  0  0  0  0  0  0  0  0  0  0
   -1.5142    3.1597   -0.6891 O   0  0  0  0  0  0  0  0  0  0  0  0
   -3.9196    2.4607    0.1007 O   0  0  0  0  0  0  0  0  0  0  0  0
    5.3143    0.6924   -0.9784 O   0  0  0  0  0  0  0  0  0  0  0  0
   -0.8502    1.2600    0.5234 N   0  0  0  0  0  0  0  0  0  0  0  0
   -1.6999    1.7616   -0.5201 C   0  0  0  0  0  0  0  0  0  0  0  0
    0.5107    0.9418    0.3341 C   0  0  0  0  0  0  0  0  0  0  0  0
   -3.1488    1.5248   -0.1068 C   0  0  0  0  0  0  0  0  0  0  0  0
   -3.6496    0.1274    0.0619 C   0  0  0  0  0  0  0  0  0  0  0  0
    1.2226    0.2941    1.3439 C   0  0  0  0  0  0  0  0  0  0  0  0
    1.1449    1.2747   -0.8629 C   0  0  0  0  0  0  0  0  0  0  0  0
    3.2026    0.3124   -0.0400 C   0  0  0  0  0  0  0  0  0  0  0  0
    2.5686   -0.0204    1.1569 C   0  0  0  0  0  0  0  0  0  0  0  0
    2.4909    0.9600   -1.0499 C   0  0  0  0  0  0  0  0  0  0  0  0
   -3.0892   -0.8693   -0.7023 C   0  0  0  0  0  0  0  0  0  0  0  0
   -4.6500   -0.1060    0.9765 C   0  0  0  0  0  0  0  0  0  0  0  0
    4.6057   -0.0163   -0.2353 C   0  0  0  0  0  0  0  0  0  0  0  0
   -3.5560   -2.1741   -0.5431 C   0  0  0  0  0  0  0  0  0  0  0  0
   -5.1168   -1.4106    1.1358 C   0  0  0  0  0  0  0  0  0  0  0  0
   -4.5698   -2.4447    0.3762 C   0  0  0  0  0  0  0  0  0  0  0  0
    5.2163   -1.2405    0.4516 C   0  0  0  0  0  0  0  0  0  0  0  0
  1 20  1  0
  2 23  1  0
  3 23  1  0
  4  8  1  0
  5 10  2  0
  6 19  2  0
  7  8  1  0
  7  9  1  0
  8 10  1  0
  9 12  2  0
  9 13  1  0
 10 11  1  0
 11 17  2  0
 11 18  1  0
 12 15  1  0
 13 16  2  0
 14 15  2  0
 14 16  1  0
 14 19  1  0
 17 20  1  0
 18 21  2  0
 19 23  1  0
 20 22  2  0
 21 22  1  0
M  END
>  <PUBCHEM_COMPOUND_CID>  (1) 
33986

>  <PUBCHEM_CONFORMER_RMSD>  (1) 
1

>  <PUBCHEM_CONFORMER_DIVERSEORDER>  (1) 
1
167
54
28
112
9
66
218
150
199
57
219
88
134
172
53
212
69
119
228
185
85
166
136
59
186
94
214
78
139
38
19
20
55
86
217
143
34
115
174
176
120
26
189
93
61
162
193
4
140
81
95
132
114
103
216
187
82
144
23
232
156
211
7
209
12
122
30
163
121
10
205
229
22
227
221
92
145
158
137
168
79
178
118
202
116
50
39
5
70
207
68
3
177
195
173
123
146
33
191
234
111
60
21
175
160
148
130
27
204
226
67
110
41
152
89
183
101
233
91
117
113
155
51
98
47
80
44
100
43
142
96
104
179
76
203
125
242
231
25
52
11
13
133
135
182
126
29
77
129
243
24
153
65
56
90
48
99
171
106
138
238
190
74
71
240
151
237
102
149
49
124
46
97
15
164
188
224
84
206
161
225
87
241
73
220
64
230
32
210
222
105
215
181
35
147
196
127
2
154
40
157
128
184
159
107
37
180
36
18
16
83
198
235
108
17
170
169
42
194
72
62
192
197
201
6
200
208
239
223
45
8
165
131
58
109
31
75
213
14
63
141
236

>  <PUBCHEM_MMFF94_PARTIAL_CHARGES>  (1) 
33
1 -0.18
10 0.42
11 0.09
12 -0.15
13 -0.15
14 0.09
15 -0.15
16 -0.15
17 -0.15
18 -0.15
19 0.42
2 -0.29
20 0.18
21 -0.15
22 -0.15
23 0.64
25 0.4
26 0.15
27 0.15
28 0.15
29 0.15
3 -0.29
30 0.15
31 0.15
32 0.15
33 0.4
34 0.15
4 -0.68
5 -0.57
6 -0.57
7 -0.87
8 0.71
9 0.1

>  <PUBCHEM_EFFECTIVE_ROTOR_COUNT>  (1) 
6

>  <PUBCHEM_PHARMACOPHORE_FEATURES>  (1) 
8
1 4 acceptor
1 4 donor
1 5 acceptor
1 6 acceptor
1 7 cation
1 7 donor
6 11 17 18 20 21 22 rings
6 9 12 13 14 15 16 rings

>  <PUBCHEM_HEAVY_ATOM_COUNT>  (1) 
23

>  <PUBCHEM_ATOM_DEF_STEREO_COUNT>  (1) 
0

>  <PUBCHEM_ATOM_UDEF_STEREO_COUNT>  (1) 
1

>  <PUBCHEM_BOND_DEF_STEREO_COUNT>  (1) 
0

>  <PUBCHEM_BOND_UDEF_STEREO_COUNT>  (1) 
0

>  <PUBCHEM_ISOTOPIC_ATOM_COUNT>  (1) 
0

>  <PUBCHEM_COMPONENT_COUNT>  (1) 
1

>  <PUBCHEM_CACTVS_TAUTO_COUNT>  (1) 
23

>  <PUBCHEM_CONFORMER_ID>  (1) 
000084C200000001

>  <PUBCHEM_MMFF94_ENERGY>  (1) 
69.3264

>  <PUBCHEM_FEATURE_SELFOVERLAP>  (1) 
40.646

>  <PUBCHEM_SHAPE_FINGERPRINT>  (1) 
11089746 13 9223235113919865044
11370993 144 17203615908214425083
11524674 6 17632576011963682623
117089 54 17974585876768660755
11796584 16 18270117895091371322
12236239 1 17894915126421361333
12422481 6 18059863843846442806
12553582 1 18262790908601993339
12616971 3 17531251617301795316
12633257 1 17202496652896451667
13167823 11 18334577927968389284
13583140 156 17916849254330705656
13911987 19 14418428680163425710
13994607 96 10665227077386291363
14251751 18 18342173367346961426
14251751 93 18335416824985629886
14251764 30 18044667618594006915
14347332 77 18187080633371938610
14844126 61 18411415107884787545
14950920 106 17274824709356591547
15183329 4 17313103060306681026
15209294 21 11455890256527154240
15348495 7 17918265472541047610
15537594 2 18260831514187950363
16110190 28 18343305898277075043
17349148 13 17168145616079621448
17780758 139 17988926669494687329
18927931 339 18408325471256883279
200 152 17676209091055399537
20281389 69 10231754483416843582
20291156 8 18263081183982621445
21054139 6 17894625946990727546
22393880 68 17458894977222423588
22950370 63 18337115669371753229
23402539 116 17821728308367121352
23559900 14 18340475716714060448
25122255 55 18129111035083019046
338550 245 18409172091248145878
34797466 226 12180139644027845338
351380 3 18259984911508900043
397830 11 18130207351513076928
5104073 3 18342738528966246400
559249 180 18261670385909796009
56633871 153 18198910395546907575
602551 16 18273213131517859390
6437827 68 18270120102483522398
7495541 125 18272929445245298160
7970288 3 18192714673009330971

>  <PUBCHEM_SHAPE_MULTIPOLES>  (1) 
456.35
14.93
3.14
1.31
14.61
1.05
-0.15
8.91
-2.72
-3.67
1.27
0.55
0.35
-0.34

>  <PUBCHEM_SHAPE_SELFOVERLAP>  (1) 
944.489

>  <PUBCHEM_SHAPE_VOLUME>  (1) 
262.5

>  <PUBCHEM_COORDINATE_TYPE>  (1) 
2
5
10

$$$$
