33982
     RDKit          3D

 12 12  0  0  1  0  0  0  0  0999 V2000
    1.9527    1.3962   -1.4118 Cl  0  0  0  0  0  0  0  0  0  0  0  0
    3.7630   -0.5170   -0.1835 Cl  0  0  0  0  0  0  0  0  0  0  0  0
   -0.6404   -2.6823   -0.0900 Cl  0  0  0  0  0  0  0  0  0  0  0  0
    1.6119    0.6352    1.6376 O   0  0  0  0  0  0  0  0  0  0  0  0
    1.1261   -0.2596    0.6259 C   0  0  0  0  0  0  0  0  0  0  0  0
   -0.3106   -0.0057    0.3015 C   0  0  0  0  0  0  0  0  0  0  0  0
    2.0579   -0.1961   -0.6064 C   0  0  0  0  0  0  0  0  0  0  0  0
   -1.1799   -1.0438   -0.0332 C   0  0  0  0  0  0  0  0  0  0  0  0
   -0.7758    1.3088    0.3395 C   0  0  0  0  0  0  0  0  0  0  0  0
   -2.5145   -0.7676   -0.3300 C   0  0  0  0  0  0  0  0  0  0  0  0
   -2.1105    1.5850    0.0426 C   0  0  0  0  0  0  0  0  0  0  0  0
   -2.9798    0.5469   -0.2922 C   0  0  0  0  0  0  0  0  0  0  0  0
  1  7  1  0
  2  7  1  0
  3  8  1  0
  4  5  1  0
  5  6  1  0
  5  7  1  0
  6  8  2  0
  6  9  1  0
  8 10  1  0
  9 11  2  0
 10 12  2  0
 11 12  1  0
M  END
>  <PUBCHEM_COMPOUND_CID>  (1) 
33982

>  <PUBCHEM_CONFORMER_RMSD>  (1) 
0.6

>  <PUBCHEM_CONFORMER_DIVERSEORDER>  (1) 
1
9
11
6
8
3
7
4
10
5
2

>  <PUBCHEM_MMFF94_PARTIAL_CHARGES>  (1) 
17
1 -0.29
10 -0.15
11 -0.15
12 -0.15
15 0.15
16 0.15
17 0.15
18 0.15
19 0.4
2 -0.29
3 -0.18
4 -0.68
5 0.42
6 -0.14
7 0.58
8 0.18
9 -0.15

>  <PUBCHEM_EFFECTIVE_ROTOR_COUNT>  (1) 
2

>  <PUBCHEM_PHARMACOPHORE_FEATURES>  (1) 
3
1 4 acceptor
1 4 donor
6 6 8 9 10 11 12 rings

>  <PUBCHEM_HEAVY_ATOM_COUNT>  (1) 
12

>  <PUBCHEM_ATOM_DEF_STEREO_COUNT>  (1) 
0

>  <PUBCHEM_ATOM_UDEF_STEREO_COUNT>  (1) 
1

>  <PUBCHEM_BOND_DEF_STEREO_COUNT>  (1) 
0

>  <PUBCHEM_BOND_UDEF_STEREO_COUNT>  (1) 
0

>  <PUBCHEM_ISOTOPIC_ATOM_COUNT>  (1) 
0

>  <PUBCHEM_COMPONENT_COUNT>  (1) 
1

>  <PUBCHEM_CACTVS_TAUTO_COUNT>  (1) 
1

>  <PUBCHEM_CONFORMER_ID>  (1) 
000084BE00000001

>  <PUBCHEM_MMFF94_ENERGY>  (1) 
28.3643

>  <PUBCHEM_FEATURE_SELFOVERLAP>  (1) 
15.223

>  <PUBCHEM_SHAPE_FINGERPRINT>  (1) 
12423570 1 17252295415175928536
12716758 59 18341327872415967810
13024252 1 13479137899740275191
14993402 34 18186800244985024350
15207287 21 17561079189977445798
15219456 202 17774991436393049048
15279308 132 18272083881531446242
15775835 57 18199469874538083777
161256 15 17401493040264945283
16945 1 18339356499928563867
20201158 50 17561365058700275782
20645464 45 17917414462961859523
20645476 183 18040428897830706819
20653085 51 17749682860290757564
207724 885 18041000592358278030
20871998 22 17691687105476853603
21040471 1 18411691072086167347
22802520 49 18200319942944628706
23402539 116 18342448227567406924
23552423 10 18193557753529621087
23557571 272 18055641861129643544
23559900 14 18130786716905570098
2748010 2 17980749756153829859
369184 2 10231759955083794445
5084963 1 18342459209893740877
528886 8 18334577893223490125
81228 2 18051964016204658611
9939556 21 18188215406860654078

>  <PUBCHEM_SHAPE_MULTIPOLES>  (1) 
246.69
4.72
2.03
1.05
2.17
0.99
-0.11
-0.41
0.75
-0.75
0.27
0.6
-0.31
-0.34

>  <PUBCHEM_SHAPE_SELFOVERLAP>  (1) 
479.396

>  <PUBCHEM_SHAPE_VOLUME>  (1) 
150.1

>  <PUBCHEM_COORDINATE_TYPE>  (1) 
2
5
10

$$$$
