33998
     RDKit          3D

 31 33  0  0  1  0  0  0  0  0999 V2000
    3.2274   -1.0693   -1.0929 O   0  0  0  0  0  0  0  0  0  0  0  0
    0.9408   -1.9918   -0.0668 O   0  0  0  0  0  0  0  0  0  0  0  0
    2.0174   -1.3775    1.8702 O   0  0  0  0  0  0  0  0  0  0  0  0
   -1.8849   -1.8626    0.0682 N   0  0  0  0  0  0  0  0  0  0  0  0
    2.5040   -0.1860   -0.2116 C   0  0  0  0  0  0  0  0  0  0  0  0
    1.5023    0.6408   -1.0208 C   0  0  0  0  0  0  0  0  0  0  0  0
    3.4775    0.7221    0.5437 C   0  0  0  0  0  0  0  0  0  0  0  0
   -1.0701   -2.3681    1.1726 C   0  0  0  0  0  0  0  0  0  0  0  0
   -3.0739   -1.1822    0.5800 C   0  0  0  0  0  0  0  0  0  0  0  0
    1.8261   -1.2400    0.6677 C   0  0  0  0  0  0  0  0  0  0  0  0
    0.2185   -2.9836    0.6510 C   0  0  0  0  0  0  0  0  0  0  0  0
   -3.8785   -0.5545   -0.5588 C   0  0  0  0  0  0  0  0  0  0  0  0
    0.3209    1.0142   -0.4226 C   0  0  0  0  0  0  0  0  0  0  0  0
    4.6465    1.0959   -0.0779 C   0  0  0  0  0  0  0  0  0  0  0  0
    1.8218    0.9794   -2.3155 C   0  0  0  0  0  0  0  0  0  0  0  0
    3.1457    1.1298    1.8150 C   0  0  0  0  0  0  0  0  0  0  0  0
   -2.2662   -2.9544   -0.8268 C   0  0  0  0  0  0  0  0  0  0  0  0
   -5.0960    0.1699   -0.0423 C   0  0  0  0  0  0  0  0  0  0  0  0
    4.1225   -1.8834   -0.3617 C   0  0  0  0  0  0  0  0  0  0  0  0
   -0.5919    1.7680   -1.1604 C   0  0  0  0  0  0  0  0  0  0  0  0
    5.5334    1.9236    0.6106 C   0  0  0  0  0  0  0  0  0  0  0  0
    0.9089    1.7332   -3.0532 C   0  0  0  0  0  0  0  0  0  0  0  0
    4.0326    1.9575    2.5035 C   0  0  0  0  0  0  0  0  0  0  0  0
   -0.2980    2.1275   -2.4757 C   0  0  0  0  0  0  0  0  0  0  0  0
    5.2266    2.3544    1.9013 C   0  0  0  0  0  0  0  0  0  0  0  0
    4.8591   -2.7924   -1.3224 C   0  0  0  0  0  0  0  0  0  0  0  0
   -6.2931   -0.5179    0.0885 C   0  0  0  0  0  0  0  0  0  0  0  0
   -4.9990    1.5119    0.2931 C   0  0  0  0  0  0  0  0  0  0  0  0
   -7.4194    0.1519    0.5662 C   0  0  0  0  0  0  0  0  0  0  0  0
   -6.1254    2.1817    0.7707 C   0  0  0  0  0  0  0  0  0  0  0  0
   -7.3357    1.5019    0.9073 C   0  0  0  0  0  0  0  0  0  0  0  0
  1  5  1  0
  1 19  1  0
  2 10  1  0
  2 11  1  0
  3 10  2  0
  4  8  1  0
  4  9  1  0
  4 17  1  0
  5  6  1  0
  5  7  1  0
  5 10  1  0
  6 13  2  0
  6 15  1  0
  7 14  2  0
  7 16  1  0
  8 11  1  0
  9 12  1  0
 12 18  1  0
 13 20  1  0
 14 21  1  0
 15 22  2  0
 16 23  2  0
 18 27  2  0
 18 28  1  0
 19 26  1  0
 20 24  2  0
 21 25  2  0
 22 24  1  0
 23 25  1  0
 27 29  1  0
 28 30  2  0
 29 31  2  0
 30 31  1  0
M  END
>  <PUBCHEM_COMPOUND_CID>  (1) 
33998

>  <PUBCHEM_CONFORMER_RMSD>  (1) 
1.2

>  <PUBCHEM_CONFORMER_DIVERSEORDER>  (1) 
2
20
28
100
1
13
139
8
105
70
106
25
127
47
11
23
56
38
116
110
142
114
101
75
33
37
6
123
117
30
76
67
44
137
125
10
94
103
63
120
99
26
18
59
115
39
91
16
54
121
109
17
15
21
93
89
138
40
61
41
98
129
45
27
77
4
55
79
111
85
42
119
74
62
9
124
104
92
107
131
97
72
82
102
64
60
69
135
132
46
57
65
24
19
81
32
43
31
113
50
133
52
5
88
130
68
36
108
96
34
66
48
12
84
122
134
78
49
87
90
83
3
71
22
58
118
128
7
53
140
86
35
73
80
14
141
112
136
29
95
51
126

>  <PUBCHEM_MMFF94_PARTIAL_CHARGES>  (1) 
45
1 -0.56
10 0.66
11 0.28
12 0.14
13 -0.15
14 -0.15
15 -0.15
16 -0.15
17 0.27
18 -0.14
19 0.28
2 -0.43
20 -0.15
21 -0.15
22 -0.15
23 -0.15
24 -0.15
25 -0.15
27 -0.15
28 -0.15
29 -0.15
3 -0.57
30 -0.15
31 -0.15
4 -0.81
40 0.15
41 0.15
42 0.15
43 0.15
49 0.15
5 0.63
50 0.15
51 0.15
52 0.15
53 0.15
54 0.15
58 0.15
59 0.15
6 -0.14
60 0.15
61 0.15
62 0.15
7 -0.14
8 0.27
9 0.27

>  <PUBCHEM_EFFECTIVE_ROTOR_COUNT>  (1) 
12

>  <PUBCHEM_PHARMACOPHORE_FEATURES>  (1) 
6
1 1 acceptor
1 3 acceptor
1 4 cation
6 18 27 28 29 30 31 rings
6 6 13 15 20 22 24 rings
6 7 14 16 21 23 25 rings

>  <PUBCHEM_HEAVY_ATOM_COUNT>  (1) 
31

>  <PUBCHEM_ATOM_DEF_STEREO_COUNT>  (1) 
0

>  <PUBCHEM_ATOM_UDEF_STEREO_COUNT>  (1) 
0

>  <PUBCHEM_BOND_DEF_STEREO_COUNT>  (1) 
0

>  <PUBCHEM_BOND_UDEF_STEREO_COUNT>  (1) 
0

>  <PUBCHEM_ISOTOPIC_ATOM_COUNT>  (1) 
0

>  <PUBCHEM_COMPONENT_COUNT>  (1) 
1

>  <PUBCHEM_CACTVS_TAUTO_COUNT>  (1) 
1

>  <PUBCHEM_CONFORMER_ID>  (1) 
000084CE00000002

>  <PUBCHEM_MMFF94_ENERGY>  (1) 
101.3049

>  <PUBCHEM_FEATURE_SELFOVERLAP>  (1) 
30.447

>  <PUBCHEM_SHAPE_FINGERPRINT>  (1) 
10165383 225 18411421744137280628
10190108 129 17458335296461658890
10906281 52 17751087014724208108
11479125 193 15909363337644949217
11578080 2 18201718513614515710
11828532 37 17704351087954553131
12107698 1 17346035558849803016
12422481 6 17823396237272719337
12553582 1 17603581911413041735
12596602 18 18131351895757101257
13726171 33 17388564845196461500
13965767 371 18262220166918839082
14394314 77 18341055134543026081
14747282 305 17897709987044149706
14840074 17 17749383801681325412
15001296 14 17968107459783419245
15183329 4 16056885728336098771
15238133 3 16732983141320771290
15420108 30 18339346582892224018
15840311 113 18341897351695780961
17980427 23 18045772644605901868
1979834 28 18187647973103806811
20511986 3 18340760465251967821
21033648 29 18339078310480808410
21304253 335 18409731776799074911
22149856 69 18266200426036466707
3680242 22 17458057175015492824
404807 78 15050587488054156909
4093350 32 17846781784849872414
4340502 62 18412822490831222312
513532 50 18202014208758738159
550186 83 17022903428147153180
5951187 136 17344923914699356825
653340 110 18189047591303583637

>  <PUBCHEM_SHAPE_MULTIPOLES>  (1) 
615.38
15.87
3.42
2.21
26.26
1.81
-0.87
-7.35
6.55
-1.69
0.1
-2.54
-1.53
1.44

>  <PUBCHEM_SHAPE_SELFOVERLAP>  (1) 
1310.488

>  <PUBCHEM_SHAPE_VOLUME>  (1) 
341

>  <PUBCHEM_COORDINATE_TYPE>  (1) 
2
5
10

$$$$
