33994
     RDKit          3D

 23 24  0  0  1  0  0  0  0  0999 V2000
   -5.2119   -3.8391   -0.1588 Cl  0  0  0  0  0  0  0  0  0  0  0  0
    6.5457   -1.1679    1.4592 Cl  0  0  0  0  0  0  0  0  0  0  0  0
    5.8749   -2.3959   -1.0983 Cl  0  0  0  0  0  0  0  0  0  0  0  0
   -1.2705    3.3195   -0.3576 O   0  0  0  0  0  0  0  0  0  0  0  0
   -3.7187    2.6222    0.2893 O   0  0  0  0  0  0  0  0  0  0  0  0
    5.4592    0.6272   -0.8694 O   0  0  0  0  0  0  0  0  0  0  0  0
   -0.7095    1.2460    0.5941 N   0  0  0  0  0  0  0  0  0  0  0  0
   -1.5153    1.9205   -0.3847 C   0  0  0  0  0  0  0  0  0  0  0  0
    0.6415    0.8991    0.3855 C   0  0  0  0  0  0  0  0  0  0  0  0
   -2.9813    1.6914   -0.0317 C   0  0  0  0  0  0  0  0  0  0  0  0
   -3.5409    0.3066   -0.0642 C   0  0  0  0  0  0  0  0  0  0  0  0
    1.3045    0.0904    1.3087 C   0  0  0  0  0  0  0  0  0  0  0  0
    1.3147    1.3646   -0.7440 C   0  0  0  0  0  0  0  0  0  0  0  0
    3.3138    0.2129   -0.0268 C   0  0  0  0  0  0  0  0  0  0  0  0
    2.6407   -0.2526    1.1026 C   0  0  0  0  0  0  0  0  0  0  0  0
    2.6509    1.0215   -0.9501 C   0  0  0  0  0  0  0  0  0  0  0  0
   -3.0045   -0.5987   -0.9499 C   0  0  0  0  0  0  0  0  0  0  0  0
   -4.5688   -0.0081    0.7940 C   0  0  0  0  0  0  0  0  0  0  0  0
    4.7067   -0.1454   -0.2422 C   0  0  0  0  0  0  0  0  0  0  0  0
   -3.5257   -1.8922   -0.9793 C   0  0  0  0  0  0  0  0  0  0  0  0
   -5.0899   -1.3017    0.7648 C   0  0  0  0  0  0  0  0  0  0  0  0
   -4.5684   -2.2438   -0.1219 C   0  0  0  0  0  0  0  0  0  0  0  0
    5.2528   -1.4765    0.2806 C   0  0  0  0  0  0  0  0  0  0  0  0
  1 22  1  0
  2 23  1  0
  3 23  1  0
  4  8  1  0
  5 10  2  0
  6 19  2  0
  7  8  1  0
  7  9  1  0
  8 10  1  0
  9 12  2  0
  9 13  1  0
 10 11  1  0
 11 17  2  0
 11 18  1  0
 12 15  1  0
 13 16  2  0
 14 15  2  0
 14 16  1  0
 14 19  1  0
 17 20  1  0
 18 21  2  0
 19 23  1  0
 20 22  2  0
 21 22  1  0
M  END
>  <PUBCHEM_COMPOUND_CID>  (1) 
33994

>  <PUBCHEM_CONFORMER_RMSD>  (1) 
0.8

>  <PUBCHEM_CONFORMER_DIVERSEORDER>  (1) 
1
317
94
172
354
99
397
255
112
424
109
428
10
230
26
396
142
22
123
150
204
259
4
245
41
144
434
133
75
356
391
311
404
232
222
325
238
304
132
268
45
104
323
345
167
381
348
252
175
199
36
79
131
265
418
83
294
262
306
2
450
81
187
392
149
197
93
126
24
332
168
382
7
34
440
145
61
263
101
377
320
387
42
326
445
334
239
411
366
98
171
421
162
16
426
92
291
296
192
355
371
31
20
63
226
280
100
375
13
69
246
441
203
200
181
188
67
185
15
105
376
273
11
277
207
127
351
158
122
272
114
71
217
225
33
281
32
379
164
247
39
254
206
324
419
338
78
68
447
186
401
70
28
337
153
316
283
288
166
74
430
302
190
405
261
52
143
111
176
25
29
249
107
224
308
342
147
82
211
407
141
12
148
395
21
452
173
274
119
300
163
267
350
413
297
243
322
154
179
449
108
286
403
270
358
85
336
370
223
23
102
388
231
313
346
242
347
365
386
367
352
14
66
289
432
183
198
73
335
90
319
309
209
369
80
307
215
250
110
442
437
298
136
56
146
333
128
241
178
137
180
412
394
402
159
341
269
285
236
429
327
3
64
253
420
8
275
248
86
364
169
220
292
48
72
53
37
89
435
140
414
237
84
210
295
195
214
212
398
227
303
422
357
138
399
196
135
106
77
251
58
264
433
57
409
219
139
38
278
417
221
284
208
373
423
363
258
194
385
329
362
416
129
310
372
103
216
201
91
436
425
229
406
174
240
193
160
368
443
374
438
340
384
155
282
400
177
410
390
157
151
117
121
287
378
339
446
87
35
415
5
88
315
120
271
353
393
17
321
165
202
170
218
213
54
113
59
314
152
266
95
49
359
62
18
305
343
408
125
60
65
380
116
51
431
234
344
9
19
328
290
349
44
279
46
182
451
55
96
130
233
257
184
189
134
40
244
115
43
383
318
76
30
47
330
256
27
50
444
312
331
6
361
191
161
301
427
228
205
389
439
293
235
97
299
124
360
118
156
448
276
260

>  <PUBCHEM_MMFF94_PARTIAL_CHARGES>  (1) 
33
1 -0.18
10 0.42
11 0.09
12 -0.15
13 -0.15
14 0.09
15 -0.15
16 -0.15
17 -0.15
18 -0.15
19 0.42
2 -0.29
20 -0.15
21 -0.15
22 0.18
23 0.64
25 0.4
26 0.15
27 0.15
28 0.15
29 0.15
3 -0.29
30 0.15
31 0.15
32 0.15
33 0.15
34 0.4
4 -0.68
5 -0.57
6 -0.57
7 -0.87
8 0.71
9 0.1

>  <PUBCHEM_EFFECTIVE_ROTOR_COUNT>  (1) 
6

>  <PUBCHEM_PHARMACOPHORE_FEATURES>  (1) 
8
1 4 acceptor
1 4 donor
1 5 acceptor
1 6 acceptor
1 7 cation
1 7 donor
6 11 17 18 20 21 22 rings
6 9 12 13 14 15 16 rings

>  <PUBCHEM_HEAVY_ATOM_COUNT>  (1) 
23

>  <PUBCHEM_ATOM_DEF_STEREO_COUNT>  (1) 
0

>  <PUBCHEM_ATOM_UDEF_STEREO_COUNT>  (1) 
1

>  <PUBCHEM_BOND_DEF_STEREO_COUNT>  (1) 
0

>  <PUBCHEM_BOND_UDEF_STEREO_COUNT>  (1) 
0

>  <PUBCHEM_ISOTOPIC_ATOM_COUNT>  (1) 
0

>  <PUBCHEM_COMPONENT_COUNT>  (1) 
1

>  <PUBCHEM_CACTVS_TAUTO_COUNT>  (1) 
23

>  <PUBCHEM_CONFORMER_ID>  (1) 
000084CA00000001

>  <PUBCHEM_MMFF94_ENERGY>  (1) 
69.3779

>  <PUBCHEM_FEATURE_SELFOVERLAP>  (1) 
40.646

>  <PUBCHEM_SHAPE_FINGERPRINT>  (1) 
10595046 47 18335989773997742308
11089746 13 8862944944680589580
11524674 6 17346595232270289247
117089 54 18120666987403296523
11796584 16 18270117886453938002
11809386 21 18334287665462418939
12236239 1 18113339699716743268
12422481 6 17703795790720575382
12553582 1 18335974381108681779
12592606 108 18266178521740874427
12616971 3 17822017458682544188
12633257 1 15912768422403502735
13103583 49 18059027180391277723
13167823 11 18408604730215163372
1361 4 18411704313903702174
13911987 19 14779564365185902686
14211702 104 18410295792221565850
14216079 64 18271243924111529415
14251751 18 18343863308076190402
14251764 30 18266743657025261539
14347332 77 18333728000926740246
14576447 43 18113333141575631672
14866123 147 18412268346594498915
14950920 106 16486691484680126859
15183329 4 17821445768692449218
15209294 21 10807932661158186032
15250474 111 18188480260245870882
15537594 2 18260267451969835755
16120349 189 10951788369202040907
17349148 13 17386008334722599544
17492 89 18411139172893688212
17780758 139 17846500327036888579
19958102 18 16950280732557186586
200 152 17894352185036879513
20028762 73 18335417959559207466
20281389 69 9511458922813464766
20291156 8 18336825420283499389
20621476 21 18200886093065878630
20621476 30 18409451349773850466
20775438 99 17328849410925451595
21033648 29 15123248615080514187
21054139 6 18040991831073790418
22393880 68 17676756604848730564
22950370 63 18339084890470704573
23379529 103 18337959016133894227
23402539 116 18040435451940257444
23522609 53 18120689969456487317
23559900 14 18340476863892399489
25122255 55 18129673980704523862
270888 7 9367086457876221215
312425 54 17988928846616195819
34797466 226 12757447016016127674
351380 3 18333449867640346907
397830 11 18201421598626087120
484985 159 18409160005531616367
5104073 3 18201999945388814312
559249 180 18262234422521793109
56633871 153 18057324101379059743
6431902 208 18409726291788864343
7495541 125 18202559588686889784
7970288 3 18267021850631387223

>  <PUBCHEM_SHAPE_MULTIPOLES>  (1) 
456.35
15.86
3.36
1.17
12.15
0.96
-0.12
13.44
-0.86
-4.58
0.61
0.99
0.25
-0.42

>  <PUBCHEM_SHAPE_SELFOVERLAP>  (1) 
944.454

>  <PUBCHEM_SHAPE_VOLUME>  (1) 
262.9

>  <PUBCHEM_COORDINATE_TYPE>  (1) 
2
5
10

$$$$
