33996
     RDKit          3D

 22 24  0  0  1  0  0  0  0  0999 V2000
   -1.9998    0.6593    0.7358 N   0  0  0  0  0  0  0  0  0  0  0  0
    0.3813    0.7027    1.3158 C   0  0  0  0  0  0  0  0  0  0  0  0
   -0.9249    1.4935    1.2595 C   0  0  0  0  0  0  0  0  0  0  0  0
    0.7871    0.1910   -0.0727 C   0  0  0  0  0  0  0  0  0  0  0  0
    2.0865   -0.5530   -0.0400 C   0  0  0  0  0  0  0  0  0  0  0  0
   -3.2322    1.4363    0.5921 C   0  0  0  0  0  0  0  0  0  0  0  0
    3.3194    0.0932   -0.2270 C   0  0  0  0  0  0  0  0  0  0  0  0
    4.5124   -0.6669   -0.1844 C   0  0  0  0  0  0  0  0  0  0  0  0
    2.0307   -1.9288    0.1853 C   0  0  0  0  0  0  0  0  0  0  0  0
   -2.2266   -0.4958    1.6061 C   0  0  0  0  0  0  0  0  0  0  0  0
   -4.3210    0.5915   -0.0093 C   0  0  0  0  0  0  0  0  0  0  0  0
    3.3945    1.4770   -0.4550 C   0  0  0  0  0  0  0  0  0  0  0  0
    4.4375   -2.0506    0.0438 C   0  0  0  0  0  0  0  0  0  0  0  0
    3.2039   -2.6762    0.2274 C   0  0  0  0  0  0  0  0  0  0  0  0
    5.7453   -0.0210   -0.3713 C   0  0  0  0  0  0  0  0  0  0  0  0
   -4.4727    0.5494   -1.3893 C   0  0  0  0  0  0  0  0  0  0  0  0
   -5.1622   -0.1362    0.8223 C   0  0  0  0  0  0  0  0  0  0  0  0
    4.6280    2.1022   -0.6388 C   0  0  0  0  0  0  0  0  0  0  0  0
    5.8013    1.3547   -0.5971 C   0  0  0  0  0  0  0  0  0  0  0  0
   -5.4830   -0.2340   -1.9473 C   0  0  0  0  0  0  0  0  0  0  0  0
   -6.1725   -0.9197    0.2644 C   0  0  0  0  0  0  0  0  0  0  0  0
   -6.3329   -0.9685   -1.1204 C   0  0  0  0  0  0  0  0  0  0  0  0
  1  3  1  0
  1  6  1  0
  1 10  1  0
  2  3  1  0
  2  4  1  0
  4  5  1  0
  5  7  1  0
  5  9  2  0
  6 11  1  0
  7  8  2  0
  7 12  1  0
  8 13  1  0
  8 15  1  0
  9 14  1  0
 11 16  2  0
 11 17  1  0
 12 18  2  0
 13 14  2  0
 15 19  2  0
 16 20  1  0
 17 21  2  0
 18 19  1  0
 20 22  2  0
 21 22  1  0
M  END
>  <PUBCHEM_COMPOUND_CID>  (1) 
33996

>  <PUBCHEM_CONFORMER_RMSD>  (1) 
0.8

>  <PUBCHEM_CONFORMER_DIVERSEORDER>  (1) 
17
14
41
39
4
79
84
49
51
72
48
29
75
60
5
92
68
74
24
7
59
46
42
30
20
70
25
77
55
81
93
22
61
62
28
69
65
23
1
53
57
90
47
33
52
40
19
64
88
83
73
6
58
71
3
32
66
27
85
86
67
10
43
35
87
89
36
38
26
37
16
56
54
34
76
2
11
44
63
15
8
82
78
12
50
91
18
13
21
45
9
80
31

>  <PUBCHEM_MMFF94_PARTIAL_CHARGES>  (1) 
31
1 -0.81
10 0.27
11 -0.14
12 -0.15
13 -0.15
14 -0.15
15 -0.15
16 -0.15
17 -0.15
18 -0.15
19 -0.15
20 -0.15
21 -0.15
22 -0.15
3 0.27
31 0.15
35 0.15
36 0.15
37 0.15
38 0.15
39 0.15
4 0.14
40 0.15
41 0.15
42 0.15
43 0.15
44 0.15
45 0.15
5 -0.14
6 0.41
9 -0.15

>  <PUBCHEM_EFFECTIVE_ROTOR_COUNT>  (1) 
6

>  <PUBCHEM_PHARMACOPHORE_FEATURES>  (1) 
4
1 1 cation
6 11 16 17 20 21 22 rings
6 5 7 8 9 13 14 rings
6 7 8 12 15 18 19 rings

>  <PUBCHEM_HEAVY_ATOM_COUNT>  (1) 
22

>  <PUBCHEM_ATOM_DEF_STEREO_COUNT>  (1) 
0

>  <PUBCHEM_ATOM_UDEF_STEREO_COUNT>  (1) 
0

>  <PUBCHEM_BOND_DEF_STEREO_COUNT>  (1) 
0

>  <PUBCHEM_BOND_UDEF_STEREO_COUNT>  (1) 
0

>  <PUBCHEM_ISOTOPIC_ATOM_COUNT>  (1) 
0

>  <PUBCHEM_COMPONENT_COUNT>  (1) 
1

>  <PUBCHEM_CACTVS_TAUTO_COUNT>  (1) 
1

>  <PUBCHEM_CONFORMER_ID>  (1) 
000084CC00000011

>  <PUBCHEM_MMFF94_ENERGY>  (1) 
68.1505

>  <PUBCHEM_FEATURE_SELFOVERLAP>  (1) 
20.324

>  <PUBCHEM_SHAPE_FINGERPRINT>  (1) 
10299344 5 18131074848902027163
10319926 262 13398632788410950291
10447042 23 18412262822316964130
105312 117 16008748005376091939
10595046 47 18412547587244093321
11069576 57 18270960116408511838
11089746 13 14562531807686180573
11646440 116 16153716401458539157
12236239 1 18060140916555066324
12788726 201 17489316239586417785
13533116 47 18413389813272107178
13673619 4 12463306786609293720
14251757 5 17915734478041578983
14251764 18 7853569111338972193
14251764 30 15123517990680735868
14528608 73 18412549808000492156
14767858 380 18272091629837096828
15003188 100 17895477028534690020
15183329 4 17603862274167393145
15348495 7 11671771698303528005
15537594 2 17918273164864664103
16993438 75 18044382849145856547
17134984 74 18261949738941158307
17138139 8 17916849339898184335
17492 89 18056486041273357854
18681886 176 18202281369464057970
19319366 153 18341602724933624462
19377110 9 18131359578641133057
19489759 90 15502375638833086857
200 152 18343586213554567809
20028762 73 18200312096694319006
20157964 124 18260552242661187940
20281389 69 10737287952694895559
20645477 70 18335989679508201810
21054139 6 18273493464239257670
21196832 93 18194680595605067095
21774942 28 16588848093416385821
22061861 79 18114180813575041767
22950370 63 17917993863120163185
23035841 295 16415484852390722637
235170 7 17822005368470717615
23522609 53 17772780305831133049
23559900 14 18262801881642457425
2767999 5 13695863732055549837
2838139 119 13623524671863201463
3004659 81 18340203003322537626
314194 84 18201721747524644203
329604 57 18272088301163446561
335352 9 18409177615477493132
34797466 226 17676208000687328061
351380 3 17489585675796066975
4015057 19 18335427875952521841
4098825 35 18334293120561663957
4325135 7 18342740723472442397
439807 62 18341045303256915991
46194498 28 17749391524512513717
5283173 99 17749103353476131461
602551 16 15697986444867665142
6327066 14 17900551370099358260
6669772 16 17913758690196068720
7495541 125 17561075891474048584

>  <PUBCHEM_SHAPE_MULTIPOLES>  (1) 
447.77
17.3
2.09
1.33
11.39
0.68
-0.1
1.21
-6.1
-3.03
0.07
2.02
-0.16
-1

>  <PUBCHEM_SHAPE_SELFOVERLAP>  (1) 
962.689

>  <PUBCHEM_SHAPE_VOLUME>  (1) 
246.7

>  <PUBCHEM_COORDINATE_TYPE>  (1) 
2
5
10

$$$$
