33995
     RDKit          3D

 29 31  0  0  1  0  0  0  0  0999 V2000
   -6.6172   -2.5679   -1.3629 Cl  0  0  0  0  0  0  0  0  0  0  0  0
   -5.6299   -3.3282    1.2726 Cl  0  0  0  0  0  0  0  0  0  0  0  0
    5.3362   -0.8923    0.4729 S   0  0  0  0  0  0  0  0  0  0  0  0
   -0.9085    4.4691    0.1811 O   0  0  0  0  0  0  0  0  0  0  0  0
    1.6447    4.6368   -0.4116 O   0  0  0  0  0  0  0  0  0  0  0  0
   -6.2853   -0.3696    0.8467 O   0  0  0  0  0  0  0  0  0  0  0  0
   -0.6839    2.2768   -0.6335 N   0  0  0  0  0  0  0  0  0  0  0  0
   -0.1906    3.2493    0.3010 C   0  0  0  0  0  0  0  0  0  0  0  0
   -1.8332    1.4914   -0.4062 C   0  0  0  0  0  0  0  0  0  0  0  0
    2.2790    2.4320    0.0933 C   0  0  0  0  0  0  0  0  0  0  0  0
    1.2715    3.5279   -0.0320 C   0  0  0  0  0  0  0  0  0  0  0  0
   -2.6563    1.7602    0.6873 C   0  0  0  0  0  0  0  0  0  0  0  0
   -2.1476    0.4470   -1.2758 C   0  0  0  0  0  0  0  0  0  0  0  0
   -4.1082   -0.0598    0.0418 C   0  0  0  0  0  0  0  0  0  0  0  0
    2.0710    1.4516    1.0351 C   0  0  0  0  0  0  0  0  0  0  0  0
    3.3745    2.4477   -0.7384 C   0  0  0  0  0  0  0  0  0  0  0  0
   -3.7937    0.9846    0.9115 C   0  0  0  0  0  0  0  0  0  0  0  0
   -3.2851   -0.3286   -1.0517 C   0  0  0  0  0  0  0  0  0  0  0  0
    4.1341    0.4150    0.3236 C   0  0  0  0  0  0  0  0  0  0  0  0
    3.0120    0.4285    1.1520 C   0  0  0  0  0  0  0  0  0  0  0  0
    4.3154    1.4246   -0.6216 C   0  0  0  0  0  0  0  0  0  0  0  0
   -5.2949   -0.8677    0.2749 C   0  0  0  0  0  0  0  0  0  0  0  0
    4.3341   -2.3297    0.1227 C   0  0  0  0  0  0  0  0  0  0  0  0
   -5.3296   -2.3345   -0.1613 C   0  0  0  0  0  0  0  0  0  0  0  0
    3.6877   -2.4416   -1.1057 C   0  0  0  0  0  0  0  0  0  0  0  0
    4.2035   -3.3330    1.0797 C   0  0  0  0  0  0  0  0  0  0  0  0
    2.9058   -3.5639   -1.3791 C   0  0  0  0  0  0  0  0  0  0  0  0
    3.4217   -4.4554    0.8064 C   0  0  0  0  0  0  0  0  0  0  0  0
    2.7728   -4.5707   -0.4229 C   0  0  0  0  0  0  0  0  0  0  0  0
  1 24  1  0
  2 24  1  0
  3 19  1  0
  3 23  1  0
  4  8  1  0
  5 11  2  0
  6 22  2  0
  7  8  1  0
  7  9  1  0
  8 11  1  0
  9 12  2  0
  9 13  1  0
 10 11  1  0
 10 15  2  0
 10 16  1  0
 12 17  1  0
 13 18  2  0
 14 17  2  0
 14 18  1  0
 14 22  1  0
 15 20  1  0
 16 21  2  0
 19 20  2  0
 19 21  1  0
 22 24  1  0
 23 25  2  0
 23 26  1  0
 25 27  1  0
 26 28  2  0
 27 29  2  0
 28 29  1  0
M  END
>  <PUBCHEM_COMPOUND_CID>  (1) 
33995

>  <PUBCHEM_CONFORMER_RMSD>  (1) 
1

>  <PUBCHEM_CONFORMER_DIVERSEORDER>  (1) 
2
191
160
14
181
122
125
38
155
142
196
62
80
220
61
206
84
112
19
192
168
109
42
159
154
124
96
152
78
146
226
204
136
214
157
172
58
22
13
31
73
108
100
221
87
143
211
178
97
161
64
210
72
218
88
53
184
29
36
105
203
103
12
113
26
123
54
117
209
139
39
208
63
111
164
94
156
188
127
107
128
132
193
15
85
116
98
81
77
27
199
28
55
91
144
147
165
183
47
215
130
7
17
163
171
67
137
202
121
52
140
82
213
133
60
114
104
101
95
59
177
45
37
71
174
166
10
134
180
176
110
50
30
9
33
205
119
57
148
207
118
34
225
145
49
24
48
182
175
35
8
169
189
126
6
102
224
1
65
190
74
151
135
150
138
223
179
162
90
197
11
16
76
120
212
43
129
106
79
93
170
69
40
153
219
194
216
68
141
4
187
167
99
75
222
115
185
3
149
66
20
41
21
200
217
83
131
89
195
25
56
46
23
32
70
86
186
198
158
173
44
5
51
18
92
201

>  <PUBCHEM_MMFF94_PARTIAL_CHARGES>  (1) 
44
1 -0.29
10 0.09
11 0.42
12 -0.15
13 -0.15
14 0.09
15 -0.15
16 -0.15
17 -0.15
18 -0.15
19 0.1
2 -0.29
20 -0.15
21 -0.15
22 0.42
23 0.1
24 0.64
25 -0.15
26 -0.15
27 -0.15
28 -0.15
29 -0.15
3 -0.2
31 0.4
32 0.15
33 0.15
34 0.15
35 0.15
36 0.15
37 0.15
38 0.15
39 0.15
4 -0.68
40 0.4
42 0.15
43 0.15
44 0.15
45 0.15
46 0.15
5 -0.57
6 -0.57
7 -0.87
8 0.71
9 0.1

>  <PUBCHEM_EFFECTIVE_ROTOR_COUNT>  (1) 
8

>  <PUBCHEM_PHARMACOPHORE_FEATURES>  (1) 
9
1 4 acceptor
1 4 donor
1 5 acceptor
1 6 acceptor
1 7 cation
1 7 donor
6 10 15 16 19 20 21 rings
6 23 25 26 27 28 29 rings
6 9 12 13 14 17 18 rings

>  <PUBCHEM_HEAVY_ATOM_COUNT>  (1) 
29

>  <PUBCHEM_ATOM_DEF_STEREO_COUNT>  (1) 
0

>  <PUBCHEM_ATOM_UDEF_STEREO_COUNT>  (1) 
1

>  <PUBCHEM_BOND_DEF_STEREO_COUNT>  (1) 
0

>  <PUBCHEM_BOND_UDEF_STEREO_COUNT>  (1) 
0

>  <PUBCHEM_ISOTOPIC_ATOM_COUNT>  (1) 
0

>  <PUBCHEM_COMPONENT_COUNT>  (1) 
1

>  <PUBCHEM_CACTVS_TAUTO_COUNT>  (1) 
23

>  <PUBCHEM_CONFORMER_ID>  (1) 
000084CB00000002

>  <PUBCHEM_MMFF94_ENERGY>  (1) 
88.7594

>  <PUBCHEM_FEATURE_SELFOVERLAP>  (1) 
45.721

>  <PUBCHEM_SHAPE_FINGERPRINT>  (1) 
10075450 59 17986410914272842783
10928967 22 18272364270039492118
11014199 57 18267020544733754762
117089 54 18411426085210143030
11963148 33 18046343025570968954
12107183 9 18270129998589352177
12422481 6 17482845467195999304
12633257 1 15697989773436313833
12655387 17 18050862026929443957
13533116 47 18124031493252588737
13553639 21 18333740117262949579
1361 2 18267301130372627995
13692114 37 17764299944592403184
13785724 45 18270413684951434805
13911852 28 18410851066904340173
14429380 30 18265049142208707250
14863182 85 18337105791559668804
15320291 9 17834672695320796459
15320467 1 18338236075847437819
17492 89 18266175037788199858
17909252 39 18411979118726766936
19301676 85 17761481496821063983
19301679 30 18410862023476883697
20028762 73 18198339765437041383
20764821 26 18335152972592466730
20775530 9 18199461083019571356
21315759 227 18119237373331065038
25222932 49 18342738550519730014
325973 47 18193839481466842987
3737641 26 18342178809070414900
373842 8 18267022954527815407
3886686 26 17768263310184252673
437795 163 18048319943414935466
4394409 98 16312156838495059694
4435113 14 17678189389344740387
44880168 125 17059773296196692862
50080093 196 18339066198505234911
5047190 2 17913759785449841215
5309563 4 18411981351751194030
56633871 153 18268436724495840361
6422251 121 18260829242145209907
7970288 3 18409728447845953801
86090 222 17531543065182096843

>  <PUBCHEM_SHAPE_MULTIPOLES>  (1) 
581.81
14.97
7.03
1.25
19.24
1.19
-0.08
15.33
0.93
-5.68
-0.15
0.37
0.7
-0.37

>  <PUBCHEM_SHAPE_SELFOVERLAP>  (1) 
1219.258

>  <PUBCHEM_SHAPE_VOLUME>  (1) 
331

>  <PUBCHEM_COORDINATE_TYPE>  (1) 
2
5
10

$$$$
