34003
     RDKit          3D

 19 20  0  0  0  0  0  0  0  0999 V2000
    2.7366   -1.7396    0.9263 O   0  0  0  0  0  0  0  0  0  0  0  0
    4.1548   -0.5513   -1.1482 O   0  0  0  0  0  0  0  0  0  0  0  0
   -3.5001   -1.2021   -0.0433 N   0  0  0  0  0  0  0  0  0  0  0  0
   -1.8311    0.4110    0.6174 N   0  0  0  0  0  0  0  0  0  0  0  0
   -5.1508    0.2690   -0.7479 C   0  0  0  0  0  0  0  0  0  0  0  0
   -4.7186   -1.1961   -0.8331 C   0  0  0  0  0  0  0  0  0  0  0  0
   -3.8481    1.0599   -0.6115 C   0  0  0  0  0  0  0  0  0  0  0  0
   -2.9442    0.0545    0.0689 C   0  0  0  0  0  0  0  0  0  0  0  0
   -2.8498   -2.4438    0.2938 C   0  0  0  0  0  0  0  0  0  0  0  0
   -1.5391    1.8345    0.5198 C   0  0  0  0  0  0  0  0  0  0  0  0
   -0.2105    2.1415    1.2055 C   0  0  0  0  0  0  0  0  0  0  0  0
    0.9564    1.4188    0.5785 C   0  0  0  0  0  0  0  0  0  0  0  0
    1.3096    0.1630    1.0471 C   0  0  0  0  0  0  0  0  0  0  0  0
    1.6544    2.0235   -0.4550 C   0  0  0  0  0  0  0  0  0  0  0  0
    2.3881   -0.5053    0.4672 C   0  0  0  0  0  0  0  0  0  0  0  0
    2.7331    1.3554   -1.0346 C   0  0  0  0  0  0  0  0  0  0  0  0
    3.0999    0.0911   -0.5736 C   0  0  0  0  0  0  0  0  0  0  0  0
    2.1174   -2.8622    0.3011 C   0  0  0  0  0  0  0  0  0  0  0  0
    5.4420   -0.3217   -0.5782 C   0  0  0  0  0  0  0  0  0  0  0  0
  1 15  1  0
  1 18  1  0
  2 17  1  0
  2 19  1  0
  3  6  1  0
  3  8  1  0
  3  9  1  0
  4  8  2  0
  4 10  1  0
  5  6  1  0
  5  7  1  0
  7  8  1  0
 10 11  1  0
 11 12  1  0
 12 13  2  0
 12 14  1  0
 13 15  1  0
 14 16  2  0
 15 17  2  0
 16 17  1  0
M  END
>  <PUBCHEM_COMPOUND_CID>  (1) 
34003

>  <PUBCHEM_CONFORMER_RMSD>  (1) 
0.8

>  <PUBCHEM_CONFORMER_DIVERSEORDER>  (1) 
1
16
20
22
24
40
19
35
10
30
11
27
29
4
14
25
38
36
12
9
34
21
7
32
37
13
15
23
17
18
26
28
3
31
5
33
6
39
2
8

>  <PUBCHEM_MMFF94_PARTIAL_CHARGES>  (1) 
21
1 -0.36
10 0.25
11 0.14
12 -0.14
13 -0.15
14 -0.15
15 0.08
16 -0.15
17 0.08
18 0.28
19 0.28
2 -0.36
3 -0.79
33 0.15
34 0.15
35 0.15
4 -0.7
6 0.37
7 0.06
8 0.44
9 0.37

>  <PUBCHEM_EFFECTIVE_ROTOR_COUNT>  (1) 
5.8

>  <PUBCHEM_PHARMACOPHORE_FEATURES>  (1) 
5
1 1 acceptor
1 2 acceptor
3 3 4 8 cation
5 3 5 6 7 8 rings
6 12 13 14 15 16 17 rings

>  <PUBCHEM_HEAVY_ATOM_COUNT>  (1) 
19

>  <PUBCHEM_ATOM_DEF_STEREO_COUNT>  (1) 
0

>  <PUBCHEM_ATOM_UDEF_STEREO_COUNT>  (1) 
0

>  <PUBCHEM_BOND_DEF_STEREO_COUNT>  (1) 
0

>  <PUBCHEM_BOND_UDEF_STEREO_COUNT>  (1) 
0

>  <PUBCHEM_ISOTOPIC_ATOM_COUNT>  (1) 
0

>  <PUBCHEM_COMPONENT_COUNT>  (1) 
1

>  <PUBCHEM_CACTVS_TAUTO_COUNT>  (1) 
2

>  <PUBCHEM_CONFORMER_ID>  (1) 
000084D300000001

>  <PUBCHEM_MMFF94_ENERGY>  (1) 
71.4404

>  <PUBCHEM_FEATURE_SELFOVERLAP>  (1) 
25.376

>  <PUBCHEM_SHAPE_FINGERPRINT>  (1) 
10616163 171 18411703192526418863
10803635 8 18260261924072378581
11724838 91 8214137448425060401
11806522 49 18341618114138588112
12363563 72 17561085825854982825
12553582 1 18413112740610306641
12596602 18 13183017410656804246
12670546 177 17967813851228379789
12707595 3 17988922310018790721
12788726 201 18058734572643344097
12892183 10 11383846956130065397
13083527 12 17606383377600857818
14576447 43 18410012113662121524
14617045 38 18408046212879234963
14787075 74 18130507526672379648
14931854 50 18408319965162031999
15183329 4 18341604877423987037
15188451 53 14836111200858384277
15537594 2 18413114944097671907
15880784 105 16343411895207362487
16752209 62 18269545066808335969
1798214 20 18412821382840000869
18915474 69 18341336664277352260
19862831 5 18260547835787456465
200 152 18411140229424228084
20645477 70 18059007406066506093
20871999 31 18410293567006175377
21054139 6 18409449181147292254
21250096 35 18273490157066693993
21634736 98 18337956787134947264
21713013 43 18188204411839269957
21857420 4 12414525496478511285
221490 88 18265341796457132136
22393880 68 18335699468182661886
23379529 103 18129116652504720454
23402655 69 18040436559804345684
23559900 14 18339633542425815313
2838139 119 15502951851771899158
2871803 45 18411982459794656004
3004659 81 18408317791844840917
314173 41 18342178907685864097
339767 52 18341887472527058814
46194498 28 17676490570442882493
474 4 9799687099715268957
4921388 177 16805611425338859275
7808743 9 10881983691267783382
960060 61 18338509837605554581
9709674 26 18125150783119743155

>  <PUBCHEM_SHAPE_MULTIPOLES>  (1) 
369.31
10.33
2.64
1.1
3.55
1.03
0.01
3.34
-4.18
-0.13
0.52
-0.34
-0.19
-0.43

>  <PUBCHEM_SHAPE_SELFOVERLAP>  (1) 
761.525

>  <PUBCHEM_SHAPE_VOLUME>  (1) 
214.4

>  <PUBCHEM_COORDINATE_TYPE>  (1) 
2
5
10

$$$$
