34021
     RDKit          3D

 17 19  0  0  0  0  0  0  0  0999 V2000
    0.9876   -2.3368   -0.4704 S   0  0  0  0  0  0  0  0  0  0  0  0
   -1.0505   -2.3004   -0.3669 S   0  0  0  0  0  0  0  0  0  0  0  0
    5.0164    1.0765    0.1258 O   0  0  0  0  0  0  0  0  0  0  0  0
   -4.9975    0.9960   -0.0114 O   0  0  0  0  0  0  0  0  0  0  0  0
    2.3910   -0.1268   -0.0261 N   0  0  0  0  0  0  0  0  0  0  0  0
   -2.3832    0.0095    0.2303 N   0  0  0  0  0  0  0  0  0  0  0  0
    3.6313   -0.9223   -0.2687 C   0  0  0  0  0  0  0  0  0  0  0  0
    2.5713    1.3195    0.2989 C   0  0  0  0  0  0  0  0  0  0  0  0
   -2.6108    1.4238   -0.0666 C   0  0  0  0  0  0  0  0  0  0  0  0
   -3.4861   -0.6533    0.9264 C   0  0  0  0  0  0  0  0  0  0  0  0
    1.2242   -0.6613   -0.0941 C   0  0  0  0  0  0  0  0  0  0  0  0
   -1.1754   -0.5932    0.0344 C   0  0  0  0  0  0  0  0  0  0  0  0
    4.7623   -0.2753    0.5169 C   0  0  0  0  0  0  0  0  0  0  0  0
    3.8678    1.7849   -0.3471 C   0  0  0  0  0  0  0  0  0  0  0  0
   -3.9460    1.5795   -0.7847 C   0  0  0  0  0  0  0  0  0  0  0  0
   -4.7835   -0.4065    0.1656 C   0  0  0  0  0  0  0  0  0  0  0  0
   -0.0189    0.0862    0.1374 C   0  0  0  0  0  0  0  0  0  0  0  0
  1  2  1  0
  1 11  1  0
  2 12  1  0
  3 13  1  0
  3 14  1  0
  4 15  1  0
  4 16  1  0
  5  7  1  0
  5  8  1  0
  5 11  2  3
  6  9  1  0
  6 10  1  0
  6 12  1  0
  7 13  1  0
  8 14  1  0
  9 15  1  0
 10 16  1  0
 11 17  1  0
 12 17  2  0
M  CHG  1   5   1
M  END
>  <PUBCHEM_COMPOUND_CID>  (1) 
34021

>  <PUBCHEM_CONFORMER_RMSD>  (1) 
0.6

>  <PUBCHEM_CONFORMER_DIVERSEORDER>  (1) 
1
5
6
2
4
3

>  <PUBCHEM_MMFF94_PARTIAL_CHARGES>  (1) 
18
1 -0.14
10 0.37
11 0.53
12 0.2
13 0.28
14 0.28
15 0.28
16 0.28
17 -0.14
2 -0.1
3 -0.56
34 0.15
4 -0.56
5 -0.09
6 -0.84
7 0.35
8 0.35
9 0.37

>  <PUBCHEM_EFFECTIVE_ROTOR_COUNT>  (1) 
3.2

>  <PUBCHEM_PHARMACOPHORE_FEATURES>  (1) 
6
1 3 acceptor
1 4 acceptor
1 6 cation
5 1 2 11 12 17 rings
6 3 5 7 8 13 14 rings
6 4 6 9 10 15 16 rings

>  <PUBCHEM_HEAVY_ATOM_COUNT>  (1) 
17

>  <PUBCHEM_ATOM_DEF_STEREO_COUNT>  (1) 
0

>  <PUBCHEM_ATOM_UDEF_STEREO_COUNT>  (1) 
0

>  <PUBCHEM_BOND_DEF_STEREO_COUNT>  (1) 
0

>  <PUBCHEM_BOND_UDEF_STEREO_COUNT>  (1) 
0

>  <PUBCHEM_ISOTOPIC_ATOM_COUNT>  (1) 
0

>  <PUBCHEM_COMPONENT_COUNT>  (1) 
1

>  <PUBCHEM_CACTVS_TAUTO_COUNT>  (1) 
1

>  <PUBCHEM_CONFORMER_ID>  (1) 
000084E500000001

>  <PUBCHEM_MMFF94_ENERGY>  (1) 
48.6976

>  <PUBCHEM_FEATURE_SELFOVERLAP>  (1) 
30.446

>  <PUBCHEM_SHAPE_FINGERPRINT>  (1) 
10608611 8 18263926545041388333
11471102 20 18343302539839333966
11543360 7 13901902336649302786
122479 349 18335142028820299058
12403259 415 18335707096192409133
12500047 106 18270958063592822954
12592029 89 18409731733802442722
12596602 18 14996294633881101781
12670546 56 17385996256725657659
13081056 2 18409732850208621925
13214271 11 18334295383771694847
13583140 156 17894634759582825059
13675066 3 18187088368592402890
14123255 352 18408319986356890429
14123255 52 18410854360695967174
14415576 193 18410014312316177108
14897335 6 18342738520223077030
15196674 1 18410293613991924037
15375358 24 18334298643435685627
17834072 32 18411983589281552996
17834072 8 18272940406112107126
18186145 218 18130238076870549558
18222031 100 12612754635463879290
19489759 90 17240480312891106713
200 152 17917707990154866065
20281475 54 9367348149637246774
204376 136 18342741823052953583
20645477 56 18340486763495889872
20645477 70 17917157100380441854
212847 35 18411418423599806184
21524375 3 18342176673965493878
21652331 79 18408323306335149989
22854114 59 18410577283876264603
231179 274 18335983086411538470
23227448 37 18341331196878975743
23402539 116 18271799138063206037
23402655 69 18060136514155435805
23559900 14 18195244416824627242
335352 9 18412262818786953246
351380 180 18334574637701706761
3545911 37 18342742940176570904
4214541 1 18408041818494357145
4325135 7 18202279234696377119
474229 33 18412262874247195735
5104073 3 18335703823268931747
58051976 378 18271243829099379279
6333272 397 18411702084218874786
633830 44 17774173283872766551
6430166 295 18410853270132658290
69090 78 18341893017129527143
77779 3 18334859424082267928
81539 233 18341333305644900230
90127 26 18187656799039976200
9709674 26 18337398149571888371
9999458 23 18187086139984632182

>  <PUBCHEM_SHAPE_MULTIPOLES>  (1) 
335.85
10.7
2.2
0.76
0.08
0.62
0
-4.73
-0.64
0.22
0.45
-0.21
0.03
0.44

>  <PUBCHEM_SHAPE_SELFOVERLAP>  (1) 
672.662

>  <PUBCHEM_SHAPE_VOLUME>  (1) 
200.8

>  <PUBCHEM_COORDINATE_TYPE>  (1) 
2
5
10

$$$$
