34023
     RDKit          3D

 10  9  0  0  1  0  0  0  0  0999 V2000
    0.2813    0.2433   -0.2679 O   0  0  0  0  0  0  0  0  0  0  0  0
    2.7361    1.2748    0.5835 O   0  0  0  0  0  0  0  0  0  0  0  0
   -0.9135   -1.7215   -0.1640 O   0  0  0  0  0  0  0  0  0  0  0  0
    1.4926   -0.4973   -0.4508 C   0  0  0  0  0  0  0  0  0  0  0  0
    2.6406    0.4926   -0.6023 C   0  0  0  0  0  0  0  0  0  0  0  0
    1.6982   -1.4083    0.7499 C   0  0  0  0  0  0  0  0  0  0  0  0
   -0.8510   -0.5004   -0.1377 C   0  0  0  0  0  0  0  0  0  0  0  0
   -2.0223    0.4017    0.0430 C   0  0  0  0  0  0  0  0  0  0  0  0
   -1.8365    1.8881    0.0602 C   0  0  0  0  0  0  0  0  0  0  0  0
   -3.2255   -0.1731    0.1862 C   0  0  0  0  0  0  0  0  0  0  0  0
  1  4  1  0
  1  7  1  0
  2  5  1  0
  3  7  2  0
  4  5  1  0
  4  6  1  0
  7  8  1  0
  8  9  1  0
  8 10  2  0
M  END
>  <PUBCHEM_COMPOUND_CID>  (1) 
34023

>  <PUBCHEM_CONFORMER_RMSD>  (1) 
0.6

>  <PUBCHEM_CONFORMER_DIVERSEORDER>  (1) 
9
29
31
16
19
1
36
32
43
20
21
25
34
28
11
41
5
26
3
33
35
27
37
8
30
39
17
4
7
10
42
40
14
12
38
13
6
24
23
22
18
2
15

>  <PUBCHEM_MMFF94_PARTIAL_CHARGES>  (1) 
12
1 -0.43
10 -0.3
17 0.4
2 -0.68
21 0.15
22 0.15
3 -0.57
4 0.28
5 0.28
7 0.71
8 -0.12
9 0.14

>  <PUBCHEM_EFFECTIVE_ROTOR_COUNT>  (1) 
4

>  <PUBCHEM_PHARMACOPHORE_FEATURES>  (1) 
3
1 2 acceptor
1 2 donor
1 3 acceptor

>  <PUBCHEM_HEAVY_ATOM_COUNT>  (1) 
10

>  <PUBCHEM_ATOM_DEF_STEREO_COUNT>  (1) 
0

>  <PUBCHEM_ATOM_UDEF_STEREO_COUNT>  (1) 
1

>  <PUBCHEM_BOND_DEF_STEREO_COUNT>  (1) 
0

>  <PUBCHEM_BOND_UDEF_STEREO_COUNT>  (1) 
0

>  <PUBCHEM_ISOTOPIC_ATOM_COUNT>  (1) 
0

>  <PUBCHEM_COMPONENT_COUNT>  (1) 
1

>  <PUBCHEM_CACTVS_TAUTO_COUNT>  (1) 
1

>  <PUBCHEM_CONFORMER_ID>  (1) 
000084E700000009

>  <PUBCHEM_MMFF94_ENERGY>  (1) 
19.172

>  <PUBCHEM_FEATURE_SELFOVERLAP>  (1) 
15.223

>  <PUBCHEM_SHAPE_FINGERPRINT>  (1) 
10857977 72 18114188574580796273
12932764 1 18412548682407564463
14325111 11 18410295770376736565
14390081 3 18341895194688339796
15775835 57 18337400335314265417
19973954 147 18268432330348364837
20653085 51 17916320337391961913
20871998 184 18057894726032363351
21028194 46 18341336608395103188
21040471 1 18410015407585669494
230 275 18408319990952518452
23552423 10 18189900803372299211
29004967 10 15719399412306868526
3248919 1 16805614654700448151
369184 2 18408602539660334663
5084963 1 17677338199355170095
7364860 26 18341894031200842350
8030462 33 18261117335338988551

>  <PUBCHEM_SHAPE_MULTIPOLES>  (1) 
188.19
4.6
1.65
0.75
0.32
0.14
-0.03
1.03
-0.29
0.01
-0.19
-0.29
-0.02
-0.13

>  <PUBCHEM_SHAPE_SELFOVERLAP>  (1) 
357.205

>  <PUBCHEM_SHAPE_VOLUME>  (1) 
116.3

>  <PUBCHEM_COORDINATE_TYPE>  (1) 
2
5
10

$$$$
