34029
     RDKit          3D

 24 26  0  0  0  0  0  0  0  0999 V2000
    1.2858    0.0923   -0.3682 O   0  0  0  0  0  0  0  0  0  0  0  0
    0.1240   -0.0717    1.6247 O   0  0  0  0  0  0  0  0  0  0  0  0
    4.9524    0.1703    0.0201 N   0  0  0  0  0  0  0  0  0  0  0  0
   -1.0831    0.0408   -0.4292 C   0  0  0  0  0  0  0  0  0  0  0  0
   -1.9026    1.2716   -0.1035 C   0  0  0  0  0  0  0  0  0  0  0  0
   -1.8430   -1.2600   -0.2767 C   0  0  0  0  0  0  0  0  0  0  0  0
   -4.0274   -0.0168   -0.5965 C   0  0  0  0  0  0  0  0  0  0  0  0
   -3.3060    1.2416   -0.1834 C   0  0  0  0  0  0  0  0  0  0  0  0
   -3.2464   -1.2849   -0.3564 C   0  0  0  0  0  0  0  0  0  0  0  0
    0.1690    0.0128    0.4058 C   0  0  0  0  0  0  0  0  0  0  0  0
   -1.2584    2.4673    0.2515 C   0  0  0  0  0  0  0  0  0  0  0  0
   -1.1429   -2.4616   -0.0857 C   0  0  0  0  0  0  0  0  0  0  0  0
   -4.0388    2.4082    0.0786 C   0  0  0  0  0  0  0  0  0  0  0  0
   -3.9234   -2.5093   -0.2584 C   0  0  0  0  0  0  0  0  0  0  0  0
    3.6662    0.1687   -0.6608 C   0  0  0  0  0  0  0  0  0  0  0  0
    2.5279    0.0731    0.3425 C   0  0  0  0  0  0  0  0  0  0  0  0
   -1.9983    3.6177    0.5232 C   0  0  0  0  0  0  0  0  0  0  0  0
   -1.8276   -3.6715    0.0244 C   0  0  0  0  0  0  0  0  0  0  0  0
   -3.3874    3.5886    0.4352 C   0  0  0  0  0  0  0  0  0  0  0  0
   -3.2167   -3.6954   -0.0635 C   0  0  0  0  0  0  0  0  0  0  0  0
    6.0484    0.3046   -0.9427 C   0  0  0  0  0  0  0  0  0  0  0  0
    5.1216   -1.0511    0.8110 C   0  0  0  0  0  0  0  0  0  0  0  0
    5.8723    1.5694   -1.7611 C   0  0  0  0  0  0  0  0  0  0  0  0
    6.4344   -1.0047    1.5690 C   0  0  0  0  0  0  0  0  0  0  0  0
  1 10  1  0
  1 16  1  0
  2 10  2  0
  3 15  1  0
  3 21  1  0
  3 22  1  0
  4  5  1  0
  4  6  1  0
  4 10  1  0
  5  8  2  0
  5 11  1  0
  6  9  2  0
  6 12  1  0
  7  8  1  0
  7  9  1  0
  8 13  1  0
  9 14  1  0
 11 17  2  0
 12 18  2  0
 13 19  2  0
 14 20  2  0
 15 16  1  0
 17 19  1  0
 18 20  1  0
 21 23  1  0
 22 24  1  0
M  END
>  <PUBCHEM_COMPOUND_CID>  (1) 
34029

>  <PUBCHEM_CONFORMER_RMSD>  (1) 
0.8

>  <PUBCHEM_CONFORMER_DIVERSEORDER>  (1) 
1
37
9
30
56
28
31
47
49
60
53
14
23
42
10
27
59
40
55
24
21
41
32
52
12
16
54
22
25
38
34
45
6
44
13
20
7
29
61
19
57
48
39
11
36
8
17
43
2
3
35
26
51
5
58
4
33
50
46
18
15

>  <PUBCHEM_MMFF94_PARTIAL_CHARGES>  (1) 
30
1 -0.43
10 0.66
11 -0.15
12 -0.15
13 -0.15
14 -0.15
15 0.27
16 0.28
17 -0.15
18 -0.15
19 -0.15
2 -0.57
20 -0.15
21 0.27
22 0.27
28 0.15
29 0.15
3 -0.81
30 0.15
31 0.15
36 0.15
37 0.15
38 0.15
39 0.15
4 0.35
5 -0.14
6 -0.14
7 0.29
8 -0.14
9 -0.14

>  <PUBCHEM_EFFECTIVE_ROTOR_COUNT>  (1) 
7.4

>  <PUBCHEM_PHARMACOPHORE_FEATURES>  (1) 
5
1 2 acceptor
1 3 cation
6 4 5 6 7 8 9 rings
6 5 8 11 13 17 19 rings
6 6 9 12 14 18 20 rings

>  <PUBCHEM_HEAVY_ATOM_COUNT>  (1) 
24

>  <PUBCHEM_ATOM_DEF_STEREO_COUNT>  (1) 
0

>  <PUBCHEM_ATOM_UDEF_STEREO_COUNT>  (1) 
0

>  <PUBCHEM_BOND_DEF_STEREO_COUNT>  (1) 
0

>  <PUBCHEM_BOND_UDEF_STEREO_COUNT>  (1) 
0

>  <PUBCHEM_ISOTOPIC_ATOM_COUNT>  (1) 
0

>  <PUBCHEM_COMPONENT_COUNT>  (1) 
1

>  <PUBCHEM_CACTVS_TAUTO_COUNT>  (1) 
1

>  <PUBCHEM_CONFORMER_ID>  (1) 
000084ED00000001

>  <PUBCHEM_MMFF94_ENERGY>  (1) 
60.0705

>  <PUBCHEM_FEATURE_SELFOVERLAP>  (1) 
25.414

>  <PUBCHEM_SHAPE_FINGERPRINT>  (1) 
10319926 262 18199165375038343610
10411042 1 18123751126314312375
10595046 47 18261957453218652508
10912923 1 18113336419189540292
1100329 8 18339081592532264489
11049842 53 18124866859843596794
11056379 131 18340497732889901974
11315181 36 18260261963170117652
12107183 9 18046621206111831130
12236239 1 17894347774178890877
12390115 104 18057617477345715345
12616971 3 17748824078086613352
12788726 201 18335705000248777986
13140716 1 18268152144816326481
13167823 11 18260544533390317402
138480 1 16538205412812067447
13911987 19 18263630776873213205
14251757 5 18412549829253496800
14713325 29 18411990165119362155
14790565 3 17979642229916879329
14844126 61 18409725192641032507
14866123 147 18412545423208089843
15021287 119 17386005006402311956
15042514 8 18410293644679466763
15230672 131 18121784920630854862
15250474 111 18334286570652284538
15463212 79 18260827059879329969
16087824 20 18411981352990598375
16990350 14 17045715842462617704
17818456 19 18265046926105107904
17844677 252 18339364166862243464
19958102 18 18266171734736914254
20101258 96 18194976351035969185
21033650 10 18192460561553099702
2297311 6 18268720565508725678
23557571 272 18202294601651681140
23559900 14 18268984457063458024
25147074 1 18040715871013915616
255183 451 17623293084288456719
3298306 158 17917428675499739838
335352 9 18339078311398894359
3610482 184 18115046159549264500
4409770 3 18408597068436664647
484989 97 18263353863457147679
497634 4 18186801417743250782
5104073 3 18271240616659131728
559249 180 18336539418321841554
6700243 42 17698200483473188636
7364860 26 17187000338073270319
9981440 41 18121503449542332489

>  <PUBCHEM_SHAPE_MULTIPOLES>  (1) 
477.19
13.02
4.42
1.09
29.13
0.29
-0.04
-0.45
1.05
-7.96
-0.41
1.79
-0.15
-2.07

>  <PUBCHEM_SHAPE_SELFOVERLAP>  (1) 
1015.417

>  <PUBCHEM_SHAPE_VOLUME>  (1) 
266

>  <PUBCHEM_COORDINATE_TYPE>  (1) 
2
5
10

$$$$
