34025
     RDKit          3D

 29 30  0  0  0  0  0  0  0  0999 V2000
    1.6020   -2.9123   -0.0573 S   0  0  0  0  0  0  0  0  0  0  0  0
   -2.1324    2.6145    0.2259 S   0  0  0  0  0  0  0  0  0  0  0  0
   -7.3224   -0.7025   -2.1647 S   0  0  0  0  0  0  0  0  0  0  0  0
    0.8509   -2.9456    1.3925 O   0  0  0  0  0  0  0  0  0  0  0  0
   -1.3802    2.5546   -1.2226 O   0  0  0  0  0  0  0  0  0  0  0  0
    0.5679   -2.9740   -1.0771 O   0  0  0  0  0  0  0  0  0  0  0  0
    2.6843   -3.8810   -0.0318 O   0  0  0  0  0  0  0  0  0  0  0  0
   -3.1814    3.6156    0.1229 O   0  0  0  0  0  0  0  0  0  0  0  0
   -1.1184    2.6994    1.2625 O   0  0  0  0  0  0  0  0  0  0  0  0
    6.1936    2.3875   -0.2319 O   0  0  0  0  0  0  0  0  0  0  0  0
    5.7587    0.0760   -0.0681 N   0  0  0  0  0  0  0  0  0  0  0  0
   -6.3416   -0.2991    0.3990 N   0  0  0  0  0  0  0  0  0  0  0  0
    1.6026   -0.1660   -0.2852 C   0  0  0  0  0  0  0  0  0  0  0  0
    2.3462   -1.3279   -0.1464 C   0  0  0  0  0  0  0  0  0  0  0  0
   -2.1627   -0.1143    0.6077 C   0  0  0  0  0  0  0  0  0  0  0  0
   -2.9028    1.0500    0.4019 C   0  0  0  0  0  0  0  0  0  0  0  0
    3.7368   -1.2472   -0.0738 C   0  0  0  0  0  0  0  0  0  0  0  0
    0.1317   -0.2040   -0.3658 C   0  0  0  0  0  0  0  0  0  0  0  0
    4.3678   -0.0051   -0.1409 C   0  0  0  0  0  0  0  0  0  0  0  0
    2.2176    1.0758   -0.3533 C   0  0  0  0  0  0  0  0  0  0  0  0
   -0.7077   -0.0961    0.6891 C   0  0  0  0  0  0  0  0  0  0  0  0
    3.6082    1.1564   -0.2806 C   0  0  0  0  0  0  0  0  0  0  0  0
   -2.8144   -1.3402    0.7436 C   0  0  0  0  0  0  0  0  0  0  0  0
   -4.2945    0.9884    0.3320 C   0  0  0  0  0  0  0  0  0  0  0  0
   -4.9462   -0.2373    0.4679 C   0  0  0  0  0  0  0  0  0  0  0  0
   -4.2060   -1.4016    0.6737 C   0  0  0  0  0  0  0  0  0  0  0  0
    6.5622    1.2230   -0.1175 C   0  0  0  0  0  0  0  0  0  0  0  0
    8.0276    0.8844   -0.0057 C   0  0  0  0  0  0  0  0  0  0  0  0
   -6.7474   -0.4713   -0.6960 C   0  0  0  0  0  0  0  0  0  0  0  0
  1  4  1  0
  1  6  2  0
  1  7  2  0
  1 14  1  0
  2  5  1  0
  2  8  2  0
  2  9  2  0
  2 16  1  0
  3 29  2  0
 10 27  2  0
 11 19  1  0
 11 27  1  0
 12 25  1  0
 12 29  2  0
 13 14  2  0
 13 18  1  0
 13 20  1  0
 14 17  1  0
 15 16  2  0
 15 21  1  0
 15 23  1  0
 16 24  1  0
 17 19  2  0
 18 21  2  0
 19 22  1  0
 20 22  2  0
 23 26  2  0
 24 25  2  0
 25 26  1  0
 27 28  1  0
M  END
>  <PUBCHEM_COMPOUND_CID>  (1) 
34025

>  <PUBCHEM_CONFORMER_RMSD>  (1) 
0.8

>  <PUBCHEM_CONFORMER_DIVERSEORDER>  (1) 
1
23
29
10
31
6
20
14
28
27
35
33
30
32
22
13
9
36
17
4
24
8
34
18
26
12
25
15
3
19
2
11
16
7
21
5

>  <PUBCHEM_MMFF94_PARTIAL_CHARGES>  (1) 
40
1 1.49
10 -0.57
11 -0.55
12 -0.48
13 0.03
14 -0.01
15 0.03
16 -0.01
17 -0.15
18 -0.18
19 0.12
2 1.49
20 -0.15
21 -0.18
22 -0.15
23 -0.15
24 -0.15
25 0.18
26 -0.15
27 0.57
28 0.06
29 0.57
3 -0.27
30 0.15
31 0.15
32 0.15
33 0.15
34 0.15
35 0.15
36 0.15
37 0.15
38 0.37
39 0.5
4 -0.68
40 0.5
5 -0.68
6 -0.65
7 -0.65
8 -0.65
9 -0.65

>  <PUBCHEM_EFFECTIVE_ROTOR_COUNT>  (1) 
7

>  <PUBCHEM_PHARMACOPHORE_FEATURES>  (1) 
14
1 10 acceptor
1 11 donor
1 12 acceptor
1 3 acceptor
1 4 acceptor
1 5 acceptor
1 6 acceptor
1 7 acceptor
1 8 acceptor
1 9 acceptor
4 1 4 6 7 anion
4 2 5 8 9 anion
6 13 14 17 19 20 22 rings
6 15 16 23 24 25 26 rings

>  <PUBCHEM_HEAVY_ATOM_COUNT>  (1) 
29

>  <PUBCHEM_ATOM_DEF_STEREO_COUNT>  (1) 
0

>  <PUBCHEM_ATOM_UDEF_STEREO_COUNT>  (1) 
0

>  <PUBCHEM_BOND_DEF_STEREO_COUNT>  (1) 
0

>  <PUBCHEM_BOND_UDEF_STEREO_COUNT>  (1) 
1

>  <PUBCHEM_ISOTOPIC_ATOM_COUNT>  (1) 
0

>  <PUBCHEM_COMPONENT_COUNT>  (1) 
1

>  <PUBCHEM_CACTVS_TAUTO_COUNT>  (1) 
2

>  <PUBCHEM_CONFORMER_ID>  (1) 
000084E900000001

>  <PUBCHEM_MMFF94_ENERGY>  (1) 
75.0049

>  <PUBCHEM_FEATURE_SELFOVERLAP>  (1) 
71.173

>  <PUBCHEM_SHAPE_FINGERPRINT>  (1) 
10 15 18339074995726365864
10050765 1 18194685864890661219
10366900 7 18413673512988922139
10595046 47 18342176622953043353
10835480 77 18335135346241713229
11135926 11 18410293627504891943
11315181 36 17894918459337147033
11578080 2 16951956259275397711
11719270 70 18410008836892718930
12107183 9 8430315753439311365
12788726 201 18336541626034661339
12838862 33 18338502132254747136
13150687 139 18343028804753017566
13402501 40 18410859892819605520
13631057 29 18273213088716327929
13914758 101 15791720893457232573
14117953 113 18187648028553494436
14394314 77 18341339907880267329
1454969 45 18412542136782479524
14790565 3 18409738383055336324
14840074 17 18131630093541948567
15238133 3 13262398830747764855
15961568 22 18333455330865381180
17492 89 18125161533265369999
18681886 176 18338516451797285040
21033648 29 18272923939245086952
22224240 67 18412542145979120762
22393880 68 18196105339129955182
23559900 14 18336263548124309097
24771750 20 17754752842510904973
335352 9 18411706496358122030
350125 39 18410859897415493192
4325135 7 18059857285214713941
5104073 3 18189908508411487520
54039377 194 17773308141012800007
5486654 2 18341619256367390434
59755656 215 18411142424442673382
6371009 1 18335423504013612484
9709674 26 18265344910657016627
9961470 85 17836925973236299472
9981440 41 18260559921820146954

>  <PUBCHEM_SHAPE_MULTIPOLES>  (1) 
557.31
17.75
3.54
1.1
5.2
0.61
0.31
-3.88
4.86
1.13
-0.22
-1.8
0.19
-0.65

>  <PUBCHEM_SHAPE_SELFOVERLAP>  (1) 
1159.513

>  <PUBCHEM_SHAPE_VOLUME>  (1) 
316.9

>  <PUBCHEM_COORDINATE_TYPE>  (1) 
2
5
10

$$$$
