34034
     RDKit          3D

 16 17  0  0  1  0  0  0  0  0999 V2000
   -1.0763    3.1616   -0.7738 Cl  0  0  0  0  0  0  0  0  0  0  0  0
   -4.2031   -0.7420    1.2014 Cl  0  0  0  0  0  0  0  0  0  0  0  0
    0.9303    0.9605   -1.0995 O   0  0  0  0  0  0  0  0  0  0  0  0
    3.7404    1.0220    1.2576 O   0  0  0  0  0  0  0  0  0  0  0  0
    1.7748   -1.7824    0.0364 N   0  0  0  0  0  0  0  0  0  0  0  0
    2.8387    0.4212    0.3289 C   0  0  0  0  0  0  0  0  0  0  0  0
    1.8262    1.4791   -0.1142 C   0  0  0  0  0  0  0  0  0  0  0  0
    2.1901   -0.7822    1.0153 C   0  0  0  0  0  0  0  0  0  0  0  0
   -0.4622   -0.7767   -0.2093 C   0  0  0  0  0  0  0  0  0  0  0  0
   -0.2482    0.5669   -0.5246 C   0  0  0  0  0  0  0  0  0  0  0  0
    0.5880   -1.7837   -0.4631 C   0  0  0  0  0  0  0  0  0  0  0  0
   -1.6859   -1.1872    0.3241 C   0  0  0  0  0  0  0  0  0  0  0  0
   -1.2640    1.5037   -0.3278 C   0  0  0  0  0  0  0  0  0  0  0  0
    0.2279   -2.9106   -1.4032 C   0  0  0  0  0  0  0  0  0  0  0  0
   -2.6931   -0.2457    0.5394 C   0  0  0  0  0  0  0  0  0  0  0  0
   -2.4836    1.0956    0.2125 C   0  0  0  0  0  0  0  0  0  0  0  0
  1 13  1  0
  2 15  1  0
  3  7  1  0
  3 10  1  0
  4  6  1  0
  5  8  1  0
  5 11  2  0
  6  7  1  0
  6  8  1  0
  9 10  2  0
  9 11  1  0
  9 12  1  0
 10 13  1  0
 11 14  1  0
 12 15  2  0
 13 16  2  0
 15 16  1  0
M  END
>  <PUBCHEM_COMPOUND_CID>  (1) 
34034

>  <PUBCHEM_CONFORMER_RMSD>  (1) 
0.4

>  <PUBCHEM_CONFORMER_DIVERSEORDER>  (1) 
1
3
4
2

>  <PUBCHEM_MMFF94_PARTIAL_CHARGES>  (1) 
19
1 -0.18
10 0.08
11 0.3
12 -0.15
13 0.18
14 0.06
15 0.18
16 -0.15
2 -0.18
22 0.15
26 0.15
27 0.4
3 -0.36
4 -0.68
5 -0.7
6 0.28
7 0.28
8 0.25
9 0.09

>  <PUBCHEM_EFFECTIVE_ROTOR_COUNT>  (1) 
0.8

>  <PUBCHEM_PHARMACOPHORE_FEATURES>  (1) 
5
1 3 acceptor
1 4 acceptor
1 4 donor
1 5 acceptor
6 9 10 12 13 15 16 rings

>  <PUBCHEM_HEAVY_ATOM_COUNT>  (1) 
16

>  <PUBCHEM_ATOM_DEF_STEREO_COUNT>  (1) 
0

>  <PUBCHEM_ATOM_UDEF_STEREO_COUNT>  (1) 
1

>  <PUBCHEM_BOND_DEF_STEREO_COUNT>  (1) 
0

>  <PUBCHEM_BOND_UDEF_STEREO_COUNT>  (1) 
0

>  <PUBCHEM_ISOTOPIC_ATOM_COUNT>  (1) 
0

>  <PUBCHEM_COMPONENT_COUNT>  (1) 
1

>  <PUBCHEM_CACTVS_TAUTO_COUNT>  (1) 
1

>  <PUBCHEM_CONFORMER_ID>  (1) 
000084F200000001

>  <PUBCHEM_MMFF94_ENERGY>  (1) 
60.7633

>  <PUBCHEM_FEATURE_SELFOVERLAP>  (1) 
25.372

>  <PUBCHEM_SHAPE_FINGERPRINT>  (1) 
10610426 29 15430307079194928899
11132069 177 18340767130297198339
11471102 22 18334588957249188051
11680986 33 18122064208803540677
12251169 10 18334857259371284699
12382932 28 18408042892463184081
12400797 245 18040711467855104170
12423570 1 10440975049186950134
12524768 44 18050283665767824495
12696612 119 18261396615634792582
13140716 1 18049161369196170512
13172582 1 18267028443083517117
14223421 5 18266180534887500409
14648413 74 17908416961806595504
14761567 1 14804588833153646436
15219456 202 18339361855773881017
15309172 13 18343578555611937602
15375462 478 18113332046105737609
15775835 57 18130506434985399058
16945 1 18260829310457958590
18380122 1 18339083692137925159
19049666 15 17834678192999221773
20511035 2 18048581647833165174
20871998 184 18409724058489876757
21501925 9 18187652427058745971
22112679 90 17979065317108843598
2334 1 17257389959912769981
23388829 49 18338794640991800935
23463225 33 18261115218036272889
2748010 2 18193556670770309077
3250762 1 18050852109058114405
7364860 26 18058179331702466511
81228 2 17767379633395346422
84936 31 16987160418162875151

>  <PUBCHEM_SHAPE_MULTIPOLES>  (1) 
316.29
5.03
2.93
1.15
1.19
0.44
0
0.13
-2.96
0.07
1.3
-0.17
-0.25
0.76

>  <PUBCHEM_SHAPE_SELFOVERLAP>  (1) 
653.116

>  <PUBCHEM_SHAPE_VOLUME>  (1) 
181.9

>  <PUBCHEM_COORDINATE_TYPE>  (1) 
2
5
10

$$$$
