34032
     RDKit          3D

 21 23  0  0  1  0  0  0  0  0999 V2000
    2.2222   -0.2976   -1.4972 O   0  0  0  0  0  0  0  0  0  0  0  0
    3.7948   -3.3121   -0.1205 O   0  0  0  0  0  0  0  0  0  0  0  0
    0.8727   -1.4720    1.0173 N   0  0  0  0  0  0  0  0  0  0  0  0
   -0.9168    0.1125    0.8585 C   0  0  0  0  0  0  0  0  0  0  0  0
    0.5499   -0.2455    0.7946 C   0  0  0  0  0  0  0  0  0  0  0  0
    2.7365   -2.3757   -0.3181 C   0  0  0  0  0  0  0  0  0  0  0  0
   -1.6926   -0.6309   -0.2176 C   0  0  0  0  0  0  0  0  0  0  0  0
    1.4827    0.8531    0.4722 C   0  0  0  0  0  0  0  0  0  0  0  0
    2.2680   -1.8988    1.0580 C   0  0  0  0  0  0  0  0  0  0  0  0
    3.2547   -1.2411   -1.2041 C   0  0  0  0  0  0  0  0  0  0  0  0
    2.2990    0.7821   -0.6589 C   0  0  0  0  0  0  0  0  0  0  0  0
   -3.1676   -0.3104   -0.2193 C   0  0  0  0  0  0  0  0  0  0  0  0
    1.5201    1.9801    1.2962 C   0  0  0  0  0  0  0  0  0  0  0  0
    3.1417    1.8463   -0.9833 C   0  0  0  0  0  0  0  0  0  0  0  0
    2.3783    3.0345    0.9814 C   0  0  0  0  0  0  0  0  0  0  0  0
   -4.0299   -1.0746    0.5512 C   0  0  0  0  0  0  0  0  0  0  0  0
   -3.6334    0.7427   -0.9908 C   0  0  0  0  0  0  0  0  0  0  0  0
    3.1855    2.9687   -0.1561 C   0  0  0  0  0  0  0  0  0  0  0  0
   -5.3929   -0.7784    0.5499 C   0  0  0  0  0  0  0  0  0  0  0  0
   -4.9965    1.0390   -0.9919 C   0  0  0  0  0  0  0  0  0  0  0  0
   -5.8762    0.2784   -0.2215 C   0  0  0  0  0  0  0  0  0  0  0  0
  1 10  1  0
  1 11  1  0
  2  6  1  0
  3  5  2  0
  3  9  1  0
  4  5  1  0
  4  7  1  0
  5  8  1  0
  6  9  1  0
  6 10  1  0
  7 12  1  0
  8 11  2  0
  8 13  1  0
 11 14  1  0
 12 16  2  0
 12 17  1  0
 13 15  2  0
 14 18  2  0
 15 18  1  0
 16 19  1  0
 17 20  2  0
 19 21  2  0
 20 21  1  0
M  END
>  <PUBCHEM_COMPOUND_CID>  (1) 
34032

>  <PUBCHEM_CONFORMER_RMSD>  (1) 
0.6

>  <PUBCHEM_CONFORMER_DIVERSEORDER>  (1) 
1
41
51
46
7
43
19
48
32
50
21
2
52
37
23
6
36
22
9
26
25
42
15
49
28
47
17
38
29
16
35
20
14
53
44
34
5
13
31
33
4
10
45
12
11
24
40
27
3
8
39
30
18

>  <PUBCHEM_MMFF94_PARTIAL_CHARGES>  (1) 
31
1 -0.36
10 0.28
11 0.08
12 -0.14
13 -0.15
14 -0.15
15 -0.15
16 -0.15
17 -0.15
18 -0.15
19 -0.15
2 -0.68
20 -0.15
21 -0.15
3 -0.7
31 0.15
32 0.15
33 0.15
34 0.15
35 0.15
36 0.15
37 0.4
38 0.15
39 0.15
4 0.06
40 0.15
5 0.3
6 0.28
7 0.14
8 0.09
9 0.25

>  <PUBCHEM_EFFECTIVE_ROTOR_COUNT>  (1) 
3.8

>  <PUBCHEM_PHARMACOPHORE_FEATURES>  (1) 
6
1 1 acceptor
1 2 acceptor
1 2 donor
1 3 acceptor
6 12 16 17 19 20 21 rings
6 8 11 13 14 15 18 rings

>  <PUBCHEM_HEAVY_ATOM_COUNT>  (1) 
21

>  <PUBCHEM_ATOM_DEF_STEREO_COUNT>  (1) 
0

>  <PUBCHEM_ATOM_UDEF_STEREO_COUNT>  (1) 
1

>  <PUBCHEM_BOND_DEF_STEREO_COUNT>  (1) 
0

>  <PUBCHEM_BOND_UDEF_STEREO_COUNT>  (1) 
0

>  <PUBCHEM_ISOTOPIC_ATOM_COUNT>  (1) 
0

>  <PUBCHEM_COMPONENT_COUNT>  (1) 
1

>  <PUBCHEM_CACTVS_TAUTO_COUNT>  (1) 
1

>  <PUBCHEM_CONFORMER_ID>  (1) 
000084F000000001

>  <PUBCHEM_MMFF94_ENERGY>  (1) 
76.8041

>  <PUBCHEM_FEATURE_SELFOVERLAP>  (1) 
30.448

>  <PUBCHEM_SHAPE_FINGERPRINT>  (1) 
10369192 42 18045783656728540740
10378564 45 18336821988488514349
10498660 4 18113612405040369645
11265709 11 18198064673351444622
11405975 8 18335419037552975739
11595378 159 14779539051044247613
12730499 353 18266751353310613963
12769317 202 18198056074294538665
13004483 165 18051961533956576598
13134695 92 18200298936560180044
13533116 47 18412544315180185371
13955234 65 18412263964614683138
14178000 15 18341894026884373504
15163728 17 17824840072461079588
15502722 9 18410572924305117690
16752209 62 15051474699100129643
17844677 252 18410860941403392753
1813 80 17844816888609083630
18186145 218 17822004281870254651
20369508 70 18412544284340233638
20388580 30 18270966734931541370
20645477 70 18130516304899405439
221357 26 18336544915821594437
22289505 5 18413670218744367557
22393880 68 18057329585481623238
23419403 2 17607767722816709872
23557571 272 17676204702073310493
23559900 14 17967814929734740895
238 59 18269853049948215776
312423 11 18202009798323151537
495365 180 18340200885924526034
5104073 3 18186237325887749913
5281201 14 18408322168648598293
543358 83 18342182133053264289
5895379 119 17273711848722838537
59755656 215 18410856581721670884
633830 44 18334283255042624175
6442390 28 18116716424590289427
7364860 26 18412541020412774802
7471813 234 18129658595703985624
7808743 9 17681275786602081428
90127 26 18113338588258872801
9841814 1 18189322503158290090

>  <PUBCHEM_SHAPE_MULTIPOLES>  (1) 
415.45
10.76
3.12
1.27
18.31
0.02
-0.05
-0.17
-2.1
-5.77
0.36
-0.49
-0.15
0.98

>  <PUBCHEM_SHAPE_SELFOVERLAP>  (1) 
892.024

>  <PUBCHEM_SHAPE_VOLUME>  (1) 
226.7

>  <PUBCHEM_COORDINATE_TYPE>  (1) 
2
5
10

$$$$
