34031
     RDKit          3D

 20 22  0  0  1  0  0  0  0  0999 V2000
    0.9749   -0.4832   -1.4335 O   0  0  0  0  0  0  0  0  0  0  0  0
    2.5257   -3.6402   -0.3925 O   0  0  0  0  0  0  0  0  0  0  0  0
    0.3714   -1.3713    1.4596 N   0  0  0  0  0  0  0  0  0  0  0  0
    1.5827   -2.5719   -0.3195 C   0  0  0  0  0  0  0  0  0  0  0  0
    0.1465   -0.1199    1.2560 C   0  0  0  0  0  0  0  0  0  0  0  0
    1.6428   -1.9879    1.0933 C   0  0  0  0  0  0  0  0  0  0  0  0
    1.0532    0.8256    0.5740 C   0  0  0  0  0  0  0  0  0  0  0  0
   -1.1668    0.4421    1.7489 C   0  0  0  0  0  0  0  0  0  0  0  0
    1.9235   -1.5517   -1.4075 C   0  0  0  0  0  0  0  0  0  0  0  0
    1.4480    0.6027   -0.7470 C   0  0  0  0  0  0  0  0  0  0  0  0
   -2.2278    0.2848    0.7066 C   0  0  0  0  0  0  0  0  0  0  0  0
    1.4904    1.9633    1.2558 C   0  0  0  0  0  0  0  0  0  0  0  0
    2.2652    1.5268   -1.3999 C   0  0  0  0  0  0  0  0  0  0  0  0
    2.3241    2.8758    0.6079 C   0  0  0  0  0  0  0  0  0  0  0  0
   -2.4299    1.2915   -0.2346 C   0  0  0  0  0  0  0  0  0  0  0  0
   -3.0097   -0.8676    0.6813 C   0  0  0  0  0  0  0  0  0  0  0  0
    2.7089    2.6591   -0.7168 C   0  0  0  0  0  0  0  0  0  0  0  0
   -3.4196    1.1448   -1.2066 C   0  0  0  0  0  0  0  0  0  0  0  0
   -3.9992   -1.0144   -0.2908 C   0  0  0  0  0  0  0  0  0  0  0  0
   -4.2042   -0.0082   -1.2348 C   0  0  0  0  0  0  0  0  0  0  0  0
  1  9  1  0
  1 10  1  0
  2  4  1  0
  3  5  2  0
  3  6  1  0
  4  6  1  0
  4  9  1  0
  5  7  1  0
  5  8  1  0
  7 10  2  0
  7 12  1  0
  8 11  1  0
 10 13  1  0
 11 15  2  0
 11 16  1  0
 12 14  2  0
 13 17  2  0
 14 17  1  0
 15 18  1  0
 16 19  2  0
 18 20  2  0
 19 20  1  0
M  END
>  <PUBCHEM_COMPOUND_CID>  (1) 
34031

>  <PUBCHEM_CONFORMER_RMSD>  (1) 
0.6

>  <PUBCHEM_CONFORMER_DIVERSEORDER>  (1) 
1
25
27
11
18
6
15
8
19
17
5
16
21
3
13
20
24
26
10
9
29
22
2
14
28
4
7
12
23

>  <PUBCHEM_MMFF94_PARTIAL_CHARGES>  (1) 
30
1 -0.36
10 0.08
11 -0.14
12 -0.15
13 -0.15
14 -0.15
15 -0.15
16 -0.15
17 -0.15
18 -0.15
19 -0.15
2 -0.68
20 -0.15
28 0.15
29 0.15
3 -0.7
30 0.15
31 0.15
32 0.15
33 0.15
34 0.4
35 0.15
36 0.15
37 0.15
4 0.28
5 0.3
6 0.25
7 0.09
8 0.2
9 0.28

>  <PUBCHEM_EFFECTIVE_ROTOR_COUNT>  (1) 
2.8

>  <PUBCHEM_PHARMACOPHORE_FEATURES>  (1) 
6
1 1 acceptor
1 2 acceptor
1 2 donor
1 3 acceptor
6 11 15 16 18 19 20 rings
6 7 10 12 13 14 17 rings

>  <PUBCHEM_HEAVY_ATOM_COUNT>  (1) 
20

>  <PUBCHEM_ATOM_DEF_STEREO_COUNT>  (1) 
0

>  <PUBCHEM_ATOM_UDEF_STEREO_COUNT>  (1) 
1

>  <PUBCHEM_BOND_DEF_STEREO_COUNT>  (1) 
0

>  <PUBCHEM_BOND_UDEF_STEREO_COUNT>  (1) 
0

>  <PUBCHEM_ISOTOPIC_ATOM_COUNT>  (1) 
0

>  <PUBCHEM_COMPONENT_COUNT>  (1) 
1

>  <PUBCHEM_CACTVS_TAUTO_COUNT>  (1) 
1

>  <PUBCHEM_CONFORMER_ID>  (1) 
000084EF00000001

>  <PUBCHEM_MMFF94_ENERGY>  (1) 
75.4156

>  <PUBCHEM_FEATURE_SELFOVERLAP>  (1) 
30.448

>  <PUBCHEM_SHAPE_FINGERPRINT>  (1) 
10764073 3 16159001684933152312
10930396 42 18341033200445206072
11640471 11 13768217163150747133
121448 382 17697584846802583220
12553582 1 17909570366542129158
12633257 1 11095600014167758501
12730499 353 18338808934917359659
12788726 201 17182219119806599506
13004483 165 17617653259220047922
13134695 92 18268702818962041956
13464514 151 18261400996538851452
13533116 47 10159695829192179613
13681431 1 18266178331764397762
14181834 199 18260825973584945954
14251764 3 18194682794116242680
15163728 17 17896335755526868604
15502722 9 18411699911028551119
15852999 172 18117288157857183248
16752209 62 14619975711834621153
16945 1 17845951734795452304
17492 54 16744534877160457943
18981168 100 16443644414793929225
20197701 30 18268978964243196912
20567600 347 18267859677995224251
20671657 53 18196931067830128803
21452121 199 17917142793385059323
21524375 3 18119247509084573032
21731516 1 16702307828084281953
22112679 90 17627257579445843720
22802520 49 17896056376820699833
23114952 82 18335699425523256053
23559900 14 18338503154588864991
238 59 18338807821824510589
26353 1 17975704883114583006
3052486 1 17548680237980324375
3060560 45 18196924694035565937
404807 78 17253398694203479487
4175511 376 18409172099526460410
5262128 65 18268150868530661383
6669772 16 17414414389498796400
7364860 26 18410848850215717425
81228 2 17400647017496092994
8509985 295 8285386957172143831

>  <PUBCHEM_SHAPE_MULTIPOLES>  (1) 
394.87
6.04
3.28
1.67
7.03
1.72
0.08
-1.22
-2.18
-4.19
-0.25
-0.12
-0.07
0.47

>  <PUBCHEM_SHAPE_SELFOVERLAP>  (1) 
854.522

>  <PUBCHEM_SHAPE_VOLUME>  (1) 
213.8

>  <PUBCHEM_COORDINATE_TYPE>  (1) 
2
5
10

$$$$
