3403
     RDKit          3D

 30 32  0  0  1  0  0  0  0  0999 V2000
    2.2830    4.7666   -0.0171 F   0  0  0  0  0  0  0  0  0  0  0  0
    1.8851   -3.7442   -1.0953 O   0  0  0  0  0  0  0  0  0  0  0  0
    4.3456    0.3999   -1.5752 O   0  0  0  0  0  0  0  0  0  0  0  0
    4.9031   -1.8502    1.9683 O   0  0  0  0  0  0  0  0  0  0  0  0
    6.1118   -0.6907    0.4345 O   0  0  0  0  0  0  0  0  0  0  0  0
   -2.3894   -1.3243    0.2179 N   0  0  0  0  0  0  0  0  0  0  0  0
   -2.5050   -2.7664    0.3298 C   0  0  0  0  0  0  0  0  0  0  0  0
   -1.2408   -0.5996    0.2228 C   0  0  0  0  0  0  0  0  0  0  0  0
   -3.4643   -0.4739    0.0882 C   0  0  0  0  0  0  0  0  0  0  0  0
   -1.5378    0.7219    0.0981 C   0  0  0  0  0  0  0  0  0  0  0  0
   -2.9545    0.8239    0.0106 C   0  0  0  0  0  0  0  0  0  0  0  0
    0.0006   -1.3021    0.3508 C   0  0  0  0  0  0  0  0  0  0  0  0
   -3.1187   -3.3904   -0.9250 C   0  0  0  0  0  0  0  0  0  0  0  0
   -3.2592   -3.1838    1.5937 C   0  0  0  0  0  0  0  0  0  0  0  0
   -0.5509    1.7666    0.0683 C   0  0  0  0  0  0  0  0  0  0  0  0
   -4.8348   -0.7514    0.0344 C   0  0  0  0  0  0  0  0  0  0  0  0
   -3.8546    1.8991   -0.1276 C   0  0  0  0  0  0  0  0  0  0  0  0
    2.0478   -2.4431   -0.5360 C   0  0  0  0  0  0  0  0  0  0  0  0
    3.1694   -1.6887   -1.2695 C   0  0  0  0  0  0  0  0  0  0  0  0
    0.7354   -1.7224   -0.6918 C   0  0  0  0  0  0  0  0  0  0  0  0
    3.3625   -0.2481   -0.7717 C   0  0  0  0  0  0  0  0  0  0  0  0
   -5.7086    0.3309   -0.1029 C   0  0  0  0  0  0  0  0  0  0  0  0
   -5.2283    1.6365   -0.1828 C   0  0  0  0  0  0  0  0  0  0  0  0
   -0.1404    2.3702    1.2561 C   0  0  0  0  0  0  0  0  0  0  0  0
   -0.0059    2.1748   -1.1482 C   0  0  0  0  0  0  0  0  0  0  0  0
    3.7657   -0.1709    0.7024 C   0  0  0  0  0  0  0  0  0  0  0  0
    0.8173    3.3840    1.2272 C   0  0  0  0  0  0  0  0  0  0  0  0
    0.9518    3.1885   -1.1771 C   0  0  0  0  0  0  0  0  0  0  0  0
    1.3634    3.7931    0.0105 C   0  0  0  0  0  0  0  0  0  0  0  0
    5.0507   -0.9058    1.0065 C   0  0  0  0  0  0  0  0  0  0  0  0
  1 29  1  0
  2 18  1  0
  3 21  1  0
  4 30  1  0
  5 30  2  0
  6  7  1  0
  6  8  1  0
  6  9  1  0
  7 13  1  0
  7 14  1  0
  8 10  2  0
  8 12  1  0
  9 11  2  0
  9 16  1  0
 10 11  1  0
 10 15  1  0
 11 17  1  0
 12 20  2  0
 15 24  2  0
 15 25  1  0
 16 22  2  0
 17 23  2  0
 18 19  1  0
 18 20  1  0
 19 21  1  0
 21 26  1  0
 22 23  1  0
 24 27  1  0
 25 28  2  0
 26 30  1  0
 27 29  2  0
 28 29  1  0
M  END
>  <PUBCHEM_COMPOUND_CID>  (1) 
3403

>  <PUBCHEM_CONFORMER_RMSD>  (1) 
1

>  <PUBCHEM_CONFORMER_DIVERSEORDER>  (1) 
1
52
28
51
2
31
22
33
35
21
58
3
24
26
46
17
20
6
49
4
10
18
39
57
50
8
40
16
36
11
55
41
34
38
37
7
30
12
43
45
56
5
13
54
23
19
47
48
42
15
25
53
29
44
27
32
9
14

>  <PUBCHEM_MMFF94_PARTIAL_CHARGES>  (1) 
39
1 -0.19
10 -0.05
12 -0.11
15 0.05
16 -0.15
17 -0.15
18 0.42
2 -0.68
20 -0.29
21 0.28
22 -0.15
23 -0.15
24 -0.15
25 -0.15
26 0.06
27 -0.15
28 -0.15
29 0.19
3 -0.68
30 0.66
32 0.15
39 0.15
4 -0.65
40 0.15
44 0.15
46 0.15
47 0.15
48 0.15
49 0.15
5 -0.57
52 0.15
53 0.15
54 0.4
55 0.4
56 0.5
6 0.05
7 0.26
8 -0.2
9 -0.15

>  <PUBCHEM_EFFECTIVE_ROTOR_COUNT>  (1) 
8

>  <PUBCHEM_PHARMACOPHORE_FEATURES>  (1) 
12
1 2 acceptor
1 2 donor
1 3 acceptor
1 3 donor
1 4 acceptor
1 5 acceptor
1 6 cation
3 4 5 30 anion
3 7 13 14 hydrophobe
5 6 8 9 10 11 rings
6 15 24 25 27 28 29 rings
6 9 11 16 17 22 23 rings

>  <PUBCHEM_HEAVY_ATOM_COUNT>  (1) 
30

>  <PUBCHEM_ATOM_DEF_STEREO_COUNT>  (1) 
0

>  <PUBCHEM_ATOM_UDEF_STEREO_COUNT>  (1) 
2

>  <PUBCHEM_BOND_DEF_STEREO_COUNT>  (1) 
0

>  <PUBCHEM_BOND_UDEF_STEREO_COUNT>  (1) 
1

>  <PUBCHEM_ISOTOPIC_ATOM_COUNT>  (1) 
0

>  <PUBCHEM_COMPONENT_COUNT>  (1) 
1

>  <PUBCHEM_CACTVS_TAUTO_COUNT>  (1) 
1

>  <PUBCHEM_CONFORMER_ID>  (1) 
00000D4B00000001

>  <PUBCHEM_MMFF94_ENERGY>  (1) 
69.9999

>  <PUBCHEM_FEATURE_SELFOVERLAP>  (1) 
61.049

>  <PUBCHEM_SHAPE_FINGERPRINT>  (1) 
10675989 125 16965474575157898581
1100329 8 18410011052752549561
11112241 14 16915354797071372792
11963148 33 17256803919994860123
12035758 1 18410582764829638779
12166972 35 17822296739020169972
12422481 6 18052232262972417568
12553582 1 18268169598751352280
12788726 201 17905054659518054199
13140716 1 18265339585055351019
13402501 40 18271237240709153098
14020679 6 18114474422119311515
140371 6 18342469101261601913
14117953 113 18340487755638688702
14790565 3 17835533622126988689
15927050 60 17837492221708006884
17492 89 18046907357849121067
20600515 1 18261681371919045212
20642791 178 18262529219927997596
20691752 17 17169254039463778065
20715895 44 17536866685450768245
23366157 5 17971474245591134148
23557571 272 18270401577565331574
23558518 356 17972319783445160571
23559900 14 18340768259921712897
283562 15 17617104607692341595
3004659 81 18187371987227091580
3178227 256 18264221240576374041
3298306 158 17983022442151343900
350125 39 18409456860971148305
3680242 22 18261679160026776770
460360 51 18192160497515112705
469060 322 18269001882162659376
5265222 85 17328592129658086476
59554788 191 18340766056487127391
59755656 215 18269839710202554254
6004065 56 18270949186132740871
6443956 14 18413393133023766772

>  <PUBCHEM_SHAPE_MULTIPOLES>  (1) 
581.65
10.7
5.23
1.29
2.46
2.41
0.16
-3.76
1.26
0.99
-0.09
1.11
-0.3
0.24

>  <PUBCHEM_SHAPE_SELFOVERLAP>  (1) 
1248.706

>  <PUBCHEM_SHAPE_VOLUME>  (1) 
324.6

>  <PUBCHEM_COORDINATE_TYPE>  (1) 
2
5
10

$$$$
