34030
     RDKit          3D

 16 17  0  0  1  0  0  0  0  0999 V2000
    0.8961   -0.5134   -1.4253 O   0  0  0  0  0  0  0  0  0  0  0  0
    1.8427   -3.5597    0.3857 O   0  0  0  0  0  0  0  0  0  0  0  0
   -0.9342   -1.2787    0.9385 N   0  0  0  0  0  0  0  0  0  0  0  0
    0.9577   -2.5224   -0.0350 C   0  0  0  0  0  0  0  0  0  0  0  0
   -1.0549   -0.0474    0.5817 C   0  0  0  0  0  0  0  0  0  0  0  0
   -2.4547    0.4922    0.4000 C   0  0  0  0  0  0  0  0  0  0  0  0
    0.3718   -1.8680    1.2176 C   0  0  0  0  0  0  0  0  0  0  0  0
    0.0529    0.8944    0.3230 C   0  0  0  0  0  0  0  0  0  0  0  0
    1.7416   -1.5457   -0.9138 C   0  0  0  0  0  0  0  0  0  0  0  0
    1.0008    0.6207   -0.6656 C   0  0  0  0  0  0  0  0  0  0  0  0
   -3.1996   -0.2663   -0.6870 C   0  0  0  0  0  0  0  0  0  0  0  0
    0.1272    2.0788    1.0594 C   0  0  0  0  0  0  0  0  0  0  0  0
    2.0158    1.5394   -0.9371 C   0  0  0  0  0  0  0  0  0  0  0  0
   -4.6136    0.2706   -0.8461 C   0  0  0  0  0  0  0  0  0  0  0  0
    1.1548    2.9867    0.8003 C   0  0  0  0  0  0  0  0  0  0  0  0
    2.0954    2.7187   -0.1964 C   0  0  0  0  0  0  0  0  0  0  0  0
  1  9  1  0
  1 10  1  0
  2  4  1  0
  3  5  2  0
  3  7  1  0
  4  7  1  0
  4  9  1  0
  5  6  1  0
  5  8  1  0
  6 11  1  0
  8 10  2  0
  8 12  1  0
 10 13  1  0
 11 14  1  0
 12 15  2  0
 13 16  2  0
 15 16  1  0
M  END
>  <PUBCHEM_COMPOUND_CID>  (1) 
34030

>  <PUBCHEM_CONFORMER_RMSD>  (1) 
0.6

>  <PUBCHEM_CONFORMER_DIVERSEORDER>  (1) 
1
14
15
12
17
13
6
7
16
10
8
3
11
2
4
5
9

>  <PUBCHEM_MMFF94_PARTIAL_CHARGES>  (1) 
19
1 -0.36
10 0.08
12 -0.15
13 -0.15
15 -0.15
16 -0.15
2 -0.68
26 0.15
27 0.15
3 -0.7
31 0.15
32 0.15
33 0.4
4 0.28
5 0.3
6 0.06
7 0.25
8 0.09
9 0.28

>  <PUBCHEM_EFFECTIVE_ROTOR_COUNT>  (1) 
2.8

>  <PUBCHEM_PHARMACOPHORE_FEATURES>  (1) 
6
1 1 acceptor
1 14 hydrophobe
1 2 acceptor
1 2 donor
1 3 acceptor
6 8 10 12 13 15 16 rings

>  <PUBCHEM_HEAVY_ATOM_COUNT>  (1) 
16

>  <PUBCHEM_ATOM_DEF_STEREO_COUNT>  (1) 
0

>  <PUBCHEM_ATOM_UDEF_STEREO_COUNT>  (1) 
1

>  <PUBCHEM_BOND_DEF_STEREO_COUNT>  (1) 
0

>  <PUBCHEM_BOND_UDEF_STEREO_COUNT>  (1) 
0

>  <PUBCHEM_ISOTOPIC_ATOM_COUNT>  (1) 
0

>  <PUBCHEM_COMPONENT_COUNT>  (1) 
1

>  <PUBCHEM_CACTVS_TAUTO_COUNT>  (1) 
1

>  <PUBCHEM_CONFORMER_ID>  (1) 
000084EE00000001

>  <PUBCHEM_MMFF94_ENERGY>  (1) 
56.5793

>  <PUBCHEM_FEATURE_SELFOVERLAP>  (1) 
30.446

>  <PUBCHEM_SHAPE_FINGERPRINT>  (1) 
1 1 18337383950113972141
11265709 11 18051131389264682991
12138202 97 17832990820481412436
12423570 1 9725649117652630406
12500047 106 17903917004570630432
12716301 132 17763455519107909152
12730499 353 18337677537700239283
13004483 165 17689978060590725427
13294875 104 18270104842211031304
13464514 151 18410579478768505365
14178000 15 18195799679165799149
14181834 199 18041271093398362651
14617773 55 17542524738016936454
14761567 1 17973481799204500462
14817 1 11124211917999483530
15852999 172 18125442170206168520
16945 1 18263660509933965034
18410436 195 18121768444407384559
19930374 2 17402622238316294330
20567600 347 18120919866507965767
20645476 183 17755861162304169156
20645477 70 18272931635794202599
21524375 3 18046332291729413537
220403 375 18050850223446301442
22112679 90 17764043362644051595
23388829 49 18122638149604626630
23402539 116 17905883673968572899
23419403 2 17535511142105422795
23557571 272 17763732205191147490
23559900 14 17838929223793608828
25 1 18269847573865380893
257057 1 18051409565590160540
2748010 2 18048340003987505554
4175511 376 18410573993952655319
6338986 31 18051693235427171175
7364860 26 18411128122227626475
7471813 234 18127112105578768917
81228 2 17473543547401061443
84936 182 18413669132333822081

>  <PUBCHEM_SHAPE_MULTIPOLES>  (1) 
312.55
4.39
3.69
1.22
6.48
2.56
-0.03
-2.82
-1.76
-3.03
0.84
-0.06
0.05
0.39

>  <PUBCHEM_SHAPE_SELFOVERLAP>  (1) 
651.604

>  <PUBCHEM_SHAPE_VOLUME>  (1) 
176.1

>  <PUBCHEM_COORDINATE_TYPE>  (1) 
2
5
10

$$$$
