34045
     RDKit          3D

 19 20  0  0  1  0  0  0  0  0999 V2000
    4.9322   -0.2530    0.1520 F   0  0  0  0  0  0  0  0  0  0  0  0
   -3.6169   -1.3678    0.2221 O   0  0  0  0  0  0  0  0  0  0  0  0
   -0.9467    2.0151    0.2860 O   0  0  0  0  0  0  0  0  0  0  0  0
   -2.8961   -1.8532   -1.8981 O   0  0  0  0  0  0  0  0  0  0  0  0
   -1.7807   -0.1241    0.9830 C   0  0  0  0  0  0  0  0  0  0  0  0
   -1.3709   -0.8627   -0.2867 C   0  0  0  0  0  0  0  0  0  0  0  0
   -3.0092   -0.8923    1.4282 C   0  0  0  0  0  0  0  0  0  0  0  0
   -0.4040   -2.0085   -0.0229 C   0  0  0  0  0  0  0  0  0  0  0  0
   -2.1265    1.3380    0.6867 C   0  0  0  0  0  0  0  0  0  0  0  0
   -2.6868   -1.4094   -0.7792 C   0  0  0  0  0  0  0  0  0  0  0  0
    1.0269   -1.5377    0.0239 C   0  0  0  0  0  0  0  0  0  0  0  0
    1.7748   -1.5131   -1.1437 C   0  0  0  0  0  0  0  0  0  0  0  0
    1.5729   -1.1363    1.2341 C   0  0  0  0  0  0  0  0  0  0  0  0
   -1.2003    3.3840   -0.0052 C   0  0  0  0  0  0  0  0  0  0  0  0
    3.0992   -1.0774   -1.1002 C   0  0  0  0  0  0  0  0  0  0  0  0
    2.8972   -0.7004    1.2777 C   0  0  0  0  0  0  0  0  0  0  0  0
    3.6604   -0.6709    0.1104 C   0  0  0  0  0  0  0  0  0  0  0  0
    0.0323    4.0575   -0.4155 C   0  0  0  0  0  0  0  0  0  0  0  0
    1.0423    4.6119   -0.7524 C   0  0  0  0  0  0  0  0  0  0  0  0
  1 17  1  0
  2  7  1  0
  2 10  1  0
  3  9  1  0
  3 14  1  0
  4 10  2  0
  5  6  1  0
  5  7  1  0
  5  9  1  0
  6  8  1  0
  6 10  1  0
  8 11  1  0
 11 12  2  0
 11 13  1  0
 12 15  1  0
 13 16  2  0
 14 18  1  0
 15 17  2  0
 16 17  1  0
 18 19  3  0
M  END
>  <PUBCHEM_COMPOUND_CID>  (1) 
34045

>  <PUBCHEM_CONFORMER_RMSD>  (1) 
0.8

>  <PUBCHEM_CONFORMER_DIVERSEORDER>  (1) 
1
27
65
68
15
91
26
51
42
81
62
52
41
21
12
77
20
63
47
17
53
18
69
76
92
24
58
83
79
5
93
78
46
82
4
29
70
87
64
55
67
23
31
2
6
39
86
72
74
32
56
13
35
90
48
40
22
60
85
8
37
16
57
89
59
11
80
88
9
75
44
84
71
3
49
38
66
25
45
61
33
34
7
36
19
28
10
54
30
43
73
14
50

>  <PUBCHEM_MMFF94_PARTIAL_CHARGES>  (1) 
23
1 -0.19
10 0.66
11 -0.14
12 -0.15
13 -0.15
14 0.48
15 -0.15
16 -0.15
17 0.19
18 -0.2
19 -0.18
2 -0.43
28 0.15
29 0.15
3 -0.56
32 0.15
33 0.15
34 0.18
4 -0.57
6 0.06
7 0.28
8 0.14
9 0.28

>  <PUBCHEM_EFFECTIVE_ROTOR_COUNT>  (1) 
5.8

>  <PUBCHEM_PHARMACOPHORE_FEATURES>  (1) 
5
1 19 hydrophobe
1 3 acceptor
1 4 acceptor
5 2 5 6 7 10 rings
6 11 12 13 15 16 17 rings

>  <PUBCHEM_HEAVY_ATOM_COUNT>  (1) 
19

>  <PUBCHEM_ATOM_DEF_STEREO_COUNT>  (1) 
0

>  <PUBCHEM_ATOM_UDEF_STEREO_COUNT>  (1) 
2

>  <PUBCHEM_BOND_DEF_STEREO_COUNT>  (1) 
0

>  <PUBCHEM_BOND_UDEF_STEREO_COUNT>  (1) 
0

>  <PUBCHEM_ISOTOPIC_ATOM_COUNT>  (1) 
0

>  <PUBCHEM_COMPONENT_COUNT>  (1) 
1

>  <PUBCHEM_CACTVS_TAUTO_COUNT>  (1) 
2

>  <PUBCHEM_CONFORMER_ID>  (1) 
000084FD00000001

>  <PUBCHEM_MMFF94_ENERGY>  (1) 
38.193

>  <PUBCHEM_FEATURE_SELFOVERLAP>  (1) 
25.371

>  <PUBCHEM_SHAPE_FINGERPRINT>  (1) 
10087517 78 18410572891048172656
10165383 225 17264441754556617728
10498660 4 18337955567248197196
10670039 82 18262816124835341964
10871710 139 18409738339351159396
10989021 7 18340769359543382995
11221954 11 17038397492597972617
11578080 2 17390486843130266159
133893 2 18048874401441363857
167882 2 17976815712213526077
17357779 13 17987212526487659845
1813 80 18343020038460716379
19591789 44 15673792082293667475
21344244 246 17619897800585924030
21524375 3 17329992396105721593
23402539 116 18342450461167269494
238 59 16898198743523479837
3524813 1 18130503016260159456
5282940 2 17834958954979979236
6287921 2 17988086715657450952
81228 2 18340486643384531521
90316 7 18337397028405426785
9925002 15 17055532732892481206

>  <PUBCHEM_SHAPE_MULTIPOLES>  (1) 
366.13
6.13
4.71
1.34
4.66
9.86
-0.1
-3.32
0.37
-1.6
-1.5
-0.21
-0.65
-0.49

>  <PUBCHEM_SHAPE_SELFOVERLAP>  (1) 
765.531

>  <PUBCHEM_SHAPE_VOLUME>  (1) 
209

>  <PUBCHEM_COORDINATE_TYPE>  (1) 
2
5
10

$$$$
