34044
     RDKit          3D

 18 19  0  0  1  0  0  0  0  0999 V2000
    1.5646    1.5076    0.6039 O   0  0  0  0  0  0  0  0  0  0  0  0
    3.5061   -0.5228    0.2595 O   0  0  0  0  0  0  0  0  0  0  0  0
    0.4108    3.0489   -0.6394 O   0  0  0  0  0  0  0  0  0  0  0  0
   -0.5585    0.8627   -0.1795 C   0  0  0  0  0  0  0  0  0  0  0  0
   -0.1501   -0.0269    0.9795 C   0  0  0  0  0  0  0  0  0  0  0  0
    1.3521    0.1556    1.0383 C   0  0  0  0  0  0  0  0  0  0  0  0
   -1.9714    1.3973   -0.0397 C   0  0  0  0  0  0  0  0  0  0  0  0
    0.4850    1.9487   -0.1145 C   0  0  0  0  0  0  0  0  0  0  0  0
    2.1210   -0.7921    0.1290 C   0  0  0  0  0  0  0  0  0  0  0  0
   -2.9989    0.2949   -0.0859 C   0  0  0  0  0  0  0  0  0  0  0  0
   -3.5364   -0.0845   -1.3068 C   0  0  0  0  0  0  0  0  0  0  0  0
   -3.3896   -0.3223    1.0930 C   0  0  0  0  0  0  0  0  0  0  0  0
   -4.4869   -1.1045   -1.3498 C   0  0  0  0  0  0  0  0  0  0  0  0
   -4.3399   -1.3425    1.0499 C   0  0  0  0  0  0  0  0  0  0  0  0
    4.2882   -1.3770   -0.5671 C   0  0  0  0  0  0  0  0  0  0  0  0
   -4.8885   -1.7335   -0.1715 C   0  0  0  0  0  0  0  0  0  0  0  0
    5.7119   -1.0770   -0.4123 C   0  0  0  0  0  0  0  0  0  0  0  0
    6.8805   -0.8325   -0.2866 C   0  0  0  0  0  0  0  0  0  0  0  0
  1  6  1  0
  1  8  1  0
  2  9  1  0
  2 15  1  0
  3  8  2  0
  4  5  1  0
  4  7  1  0
  4  8  1  0
  5  6  1  0
  6  9  1  0
  7 10  1  0
 10 11  2  0
 10 12  1  0
 11 13  1  0
 12 14  2  0
 13 16  2  0
 14 16  1  0
 15 17  1  0
 17 18  3  0
M  END
>  <PUBCHEM_COMPOUND_CID>  (1) 
34044

>  <PUBCHEM_CONFORMER_RMSD>  (1) 
0.8

>  <PUBCHEM_CONFORMER_DIVERSEORDER>  (1) 
1
50
27
67
91
45
40
44
79
28
92
52
53
49
39
21
61
56
75
58
69
41
15
43
57
88
11
55
68
87
4
42
65
29
25
84
54
22
32
94
23
93
14
47
16
17
85
72
20
9
31
34
38
35
46
30
90
73
51
86
82
74
5
33
59
24
77
83
2
70
71
80
6
19
10
3
76
81
18
48
36
7
66
63
78
95
64
13
8
37
12
26
62
60
89

>  <PUBCHEM_MMFF94_PARTIAL_CHARGES>  (1) 
23
1 -0.43
10 -0.14
11 -0.15
12 -0.15
13 -0.15
14 -0.15
15 0.48
16 -0.15
17 -0.2
18 -0.18
2 -0.56
27 0.15
28 0.15
29 0.15
3 -0.57
30 0.15
33 0.15
34 0.18
4 0.06
6 0.28
7 0.14
8 0.66
9 0.28

>  <PUBCHEM_EFFECTIVE_ROTOR_COUNT>  (1) 
5.8

>  <PUBCHEM_PHARMACOPHORE_FEATURES>  (1) 
5
1 18 hydrophobe
1 2 acceptor
1 3 acceptor
5 1 4 5 6 8 rings
6 10 11 12 13 14 16 rings

>  <PUBCHEM_HEAVY_ATOM_COUNT>  (1) 
18

>  <PUBCHEM_ATOM_DEF_STEREO_COUNT>  (1) 
0

>  <PUBCHEM_ATOM_UDEF_STEREO_COUNT>  (1) 
2

>  <PUBCHEM_BOND_DEF_STEREO_COUNT>  (1) 
0

>  <PUBCHEM_BOND_UDEF_STEREO_COUNT>  (1) 
0

>  <PUBCHEM_ISOTOPIC_ATOM_COUNT>  (1) 
0

>  <PUBCHEM_COMPONENT_COUNT>  (1) 
1

>  <PUBCHEM_CACTVS_TAUTO_COUNT>  (1) 
2

>  <PUBCHEM_CONFORMER_ID>  (1) 
000084FC00000001

>  <PUBCHEM_MMFF94_ENERGY>  (1) 
35.9785

>  <PUBCHEM_FEATURE_SELFOVERLAP>  (1) 
25.371

>  <PUBCHEM_SHAPE_FINGERPRINT>  (1) 
10042902 136 17845362400752625582
12553582 1 18260261928557256763
12596602 18 15554440821254049954
12633257 1 14907897236635038359
12670546 177 17458065966913995398
13103583 49 16272212985275269587
13288520 33 18343865506898771399
13583140 156 15267054796790464915
13740256 8 18412266150995713866
13862211 1 18410571773950649826
13914758 101 14779537960475890606
14178000 29 18412262852381722380
14251732 17 8430312442241072050
14251764 30 17417823794725886502
14350574 20 18187369856638690403
14466204 15 9799694783575675086
15209294 21 9295282833453439656
17780758 139 16917068850047752723
17870717 6 17967247603294196743
1813 80 18129958822402545860
18186145 218 17531513387379755153
18222031 100 18339912779734575066
193927 3 18272940426785382415
19427546 20 18189899721294118980
19784866 240 18131064978982967111
19784866 34 8358266951246911045
200 152 18041002804498550498
20281389 69 9511453416892647318
20645477 70 18118107290278712511
20693207 138 17677329549776410471
20871999 31 17968091989047117317
21344244 246 17970637513517193996
23379529 103 18266462203349554347
23402539 116 18187368675680672996
23559900 14 18263073461336082721
270888 7 11603081857138016695
2767999 5 11530483341806828110
2838139 119 13406795523627764630
2916195 48 10881692312175810798
314194 84 18272090508945675494
3737641 26 17488473970693568662
6669772 16 17904773520129314900
9709674 26 17970342844606405051

>  <PUBCHEM_SHAPE_MULTIPOLES>  (1) 
352.82
13.17
2.09
1.13
16.87
1.35
-0.02
-10.24
-2.51
-0.2
-0.36
-1.07
-0.17
0.34

>  <PUBCHEM_SHAPE_SELFOVERLAP>  (1) 
734.238

>  <PUBCHEM_SHAPE_VOLUME>  (1) 
200.9

>  <PUBCHEM_COORDINATE_TYPE>  (1) 
2
5
10

$$$$
