34047
     RDKit          3D

 30 31  0  0  0  0  0  0  0  0999 V2000
   -0.9329    1.6525   -0.3332 O   0  0  0  0  0  0  0  0  0  0  0  0
   -3.5073    1.2935   -0.9463 O   0  0  0  0  0  0  0  0  0  0  0  0
   -1.7640    1.1525    1.7518 O   0  0  0  0  0  0  0  0  0  0  0  0
    2.1221    3.8114   -0.1610 N   0  0  0  0  0  0  0  0  0  0  0  0
    2.9013    2.9601    0.7676 C   0  0  0  0  0  0  0  0  0  0  0  0
    0.9862    3.0113   -0.8157 C   0  0  0  0  0  0  0  0  0  0  0  0
    3.4502    1.7357    0.0448 C   0  0  0  0  0  0  0  0  0  0  0  0
    1.4973    5.0024    0.5809 C   0  0  0  0  0  0  0  0  0  0  0  0
    3.0180    4.3655   -1.2787 C   0  0  0  0  0  0  0  0  0  0  0  0
    4.2764    0.7680    0.8994 C   0  0  0  0  0  0  0  0  0  0  0  0
    0.1000    2.4243    0.2652 C   0  0  0  0  0  0  0  0  0  0  0  0
    4.7430   -0.4728    0.1356 C   0  0  0  0  0  0  0  0  0  0  0  0
    5.6376   -1.3563    1.0081 C   0  0  0  0  0  0  0  0  0  0  0  0
    6.0793   -2.6140    0.2578 C   0  0  0  0  0  0  0  0  0  0  0  0
    6.9450   -3.5126    1.1407 C   0  0  0  0  0  0  0  0  0  0  0  0
   -2.8503    0.2245   -0.2354 C   0  0  0  0  0  0  0  0  0  0  0  0
   -1.8186    1.0556    0.5316 C   0  0  0  0  0  0  0  0  0  0  0  0
   -3.8508   -0.5080    0.6620 C   0  0  0  0  0  0  0  0  0  0  0  0
   -2.2069   -0.7390   -1.2352 C   0  0  0  0  0  0  0  0  0  0  0  0
    7.4140   -4.7477    0.3883 C   0  0  0  0  0  0  0  0  0  0  0  0
   -3.4221   -1.5614    1.4697 C   0  0  0  0  0  0  0  0  0  0  0  0
   -2.7953   -0.9445   -2.4833 C   0  0  0  0  0  0  0  0  0  0  0  0
   -5.1912   -0.1219    0.6726 C   0  0  0  0  0  0  0  0  0  0  0  0
   -1.0319   -1.4114   -0.8991 C   0  0  0  0  0  0  0  0  0  0  0  0
   -4.3337   -2.2289    2.2877 C   0  0  0  0  0  0  0  0  0  0  0  0
   -2.2090   -1.8224   -3.3948 C   0  0  0  0  0  0  0  0  0  0  0  0
   -6.1028   -0.7894    1.4906 C   0  0  0  0  0  0  0  0  0  0  0  0
   -0.4455   -2.2893   -1.8109 C   0  0  0  0  0  0  0  0  0  0  0  0
   -5.6739   -1.8429    2.2982 C   0  0  0  0  0  0  0  0  0  0  0  0
   -1.0341   -2.4948   -3.0587 C   0  0  0  0  0  0  0  0  0  0  0  0
  1 11  1  0
  1 17  1  0
  2 16  1  0
  3 17  2  0
  4  5  1  0
  4  6  1  0
  4  8  1  0
  4  9  1  0
  5  7  1  0
  6 11  1  0
  7 10  1  0
 10 12  1  0
 12 13  1  0
 13 14  1  0
 14 15  1  0
 15 20  1  0
 16 17  1  0
 16 18  1  0
 16 19  1  0
 18 21  2  0
 18 23  1  0
 19 22  2  0
 19 24  1  0
 21 25  1  0
 22 26  1  0
 23 27  2  0
 24 28  2  0
 25 29  2  0
 26 30  2  0
 27 29  1  0
 28 30  1  0
M  CHG  1   4   1
M  END
>  <PUBCHEM_COMPOUND_CID>  (1) 
34047

>  <PUBCHEM_CONFORMER_RMSD>  (1) 
1.4

>  <PUBCHEM_CONFORMER_DIVERSEORDER>  (1) 
1
2
68
46
29
60
24
16
18
8
39
47
30
52
35
70
64
74
44
14
50
63
36
75
67
73
72
40
27
34
41
56
38
58
57
23
33
28
65
66
17
45
49
43
61
53
54
10
55
11
5
48
59
62
25
32
9
6
12
31
51
3
19
37
26
15
42
4
22
13
21
71
7
69
20

>  <PUBCHEM_MMFF94_PARTIAL_CHARGES>  (1) 
34
1 -0.43
11 0.28
16 0.63
17 0.66
18 -0.14
19 -0.14
2 -0.68
21 -0.15
22 -0.15
23 -0.15
24 -0.15
25 -0.15
26 -0.15
27 -0.15
28 -0.15
29 -0.15
3 -0.57
30 -0.15
4 -1.01
5 0.5
58 0.4
59 0.15
6 0.5
60 0.15
61 0.15
62 0.15
63 0.15
64 0.15
65 0.15
66 0.15
67 0.15
68 0.15
8 0.5
9 0.5

>  <PUBCHEM_EFFECTIVE_ROTOR_COUNT>  (1) 
14

>  <PUBCHEM_PHARMACOPHORE_FEATURES>  (1) 
9
1 2 acceptor
1 2 donor
1 20 hydrophobe
1 3 acceptor
1 4 cation
3 13 14 15 hydrophobe
3 7 10 12 hydrophobe
6 18 21 23 25 27 29 rings
6 19 22 24 26 28 30 rings

>  <PUBCHEM_HEAVY_ATOM_COUNT>  (1) 
30

>  <PUBCHEM_ATOM_DEF_STEREO_COUNT>  (1) 
0

>  <PUBCHEM_ATOM_UDEF_STEREO_COUNT>  (1) 
0

>  <PUBCHEM_BOND_DEF_STEREO_COUNT>  (1) 
0

>  <PUBCHEM_BOND_UDEF_STEREO_COUNT>  (1) 
0

>  <PUBCHEM_ISOTOPIC_ATOM_COUNT>  (1) 
0

>  <PUBCHEM_COMPONENT_COUNT>  (1) 
1

>  <PUBCHEM_CACTVS_TAUTO_COUNT>  (1) 
1

>  <PUBCHEM_CONFORMER_ID>  (1) 
000084FF00000001

>  <PUBCHEM_MMFF94_ENERGY>  (1) 
78.5484

>  <PUBCHEM_FEATURE_SELFOVERLAP>  (1) 
45.683

>  <PUBCHEM_SHAPE_FINGERPRINT>  (1) 
10305334 12 18047761399184363339
10369192 42 16665433742678929860
10622 236 17628040659574969774
10764073 3 18334305258159808879
11135926 11 18047182227672915860
117089 54 18263090937811679522
12422481 6 18342464776603925181
12633257 1 17131834304464347976
13782708 43 17530965825540223843
14910302 57 16227153985214697905
14955137 171 18410294705103612504
15537594 2 18270122447756861164
16728300 4 18342466980186055123
19303781 99 18189320287994830130
20580484 66 17685764733088955218
20775530 9 18411971452474218408
208703 8 18261955129694703818
21133410 221 16689071632543438614
23569914 2 13971169164144470899
3388396 114 13438874389838330502
44880168 125 17489023735630115550
56633871 153 18272644624235771686
613672 6 18117250654761969632

>  <PUBCHEM_SHAPE_MULTIPOLES>  (1) 
594.8
15.6
6.18
2.62
18.64
4.55
-1.91
-20.31
10.41
13.21
-0.11
-4.05
-2.51
-1.07

>  <PUBCHEM_SHAPE_SELFOVERLAP>  (1) 
1209.779

>  <PUBCHEM_SHAPE_VOLUME>  (1) 
346

>  <PUBCHEM_COORDINATE_TYPE>  (1) 
2
5
10

$$$$
