34049
     RDKit          3D

 21 21  0  0  0  0  0  0  0  0999 V2000
   -5.4772    1.6709    0.0666 P   0  0  0  0  0  0  0  0  0  0  0  0
    1.0880   -0.9042    0.0002 O   0  0  0  0  0  0  0  0  0  0  0  0
    0.4389   -3.1127   -0.0194 O   0  0  0  0  0  0  0  0  0  0  0  0
   -5.0804    0.1014    0.0464 O   0  0  0  0  0  0  0  0  0  0  0  0
   -7.0899    1.6335   -0.0635 O   0  0  0  0  0  0  0  0  0  0  0  0
   -5.0098    2.2150   -1.3831 O   0  0  0  0  0  0  0  0  0  0  0  0
   -4.9680    2.4455    1.2474 O   0  0  0  0  0  0  0  0  0  0  0  0
    5.6677    0.8874    0.0501 C   0  0  0  0  0  0  0  0  0  0  0  0
    4.8091   -0.3782   -0.0006 C   0  0  0  0  0  0  0  0  0  0  0  0
    7.1725    0.6033    0.0320 C   0  0  0  0  0  0  0  0  0  0  0  0
    3.3199   -0.0363   -0.0039 C   0  0  0  0  0  0  0  0  0  0  0  0
    8.0301    1.8692    0.0082 C   0  0  0  0  0  0  0  0  0  0  0  0
    2.4557   -1.2894   -0.0120 C   0  0  0  0  0  0  0  0  0  0  0  0
    9.5111    1.5336   -0.0818 C   0  0  0  0  0  0  0  0  0  0  0  0
    0.1800   -1.9193   -0.0052 C   0  0  0  0  0  0  0  0  0  0  0  0
   -1.2059   -1.3867    0.0073 C   0  0  0  0  0  0  0  0  0  0  0  0
   -2.2901   -2.2642    0.0030 C   0  0  0  0  0  0  0  0  0  0  0  0
   -1.4238   -0.0090    0.0242 C   0  0  0  0  0  0  0  0  0  0  0  0
   -3.8099   -0.3866    0.0322 C   0  0  0  0  0  0  0  0  0  0  0  0
   -3.5922   -1.7643    0.0154 C   0  0  0  0  0  0  0  0  0  0  0  0
   -2.7258    0.4910    0.0367 C   0  0  0  0  0  0  0  0  0  0  0  0
  1  4  1  0
  1  5  1  0
  1  6  1  0
  1  7  2  0
  2 13  1  0
  2 15  1  0
  3 15  2  0
  4 19  1  0
  8  9  1  0
  8 10  1  0
  9 11  1  0
 10 12  1  0
 11 13  1  0
 12 14  1  0
 15 16  1  0
 16 17  2  0
 16 18  1  0
 17 20  1  0
 18 21  2  0
 19 20  2  0
 19 21  1  0
M  END
>  <PUBCHEM_COMPOUND_CID>  (1) 
34049

>  <PUBCHEM_CONFORMER_RMSD>  (1) 
1

>  <PUBCHEM_CONFORMER_DIVERSEORDER>  (1) 
1
44
56
13
48
54
12
34
25
19
15
2
26
17
50
33
37
14
51
21
27
39
35
43
11
4
18
32
47
49
38
36
10
7
24
53
42
46
22
28
30
41
5
8
23
52
16
45
29
31
40
3
55
20
9
6

>  <PUBCHEM_MMFF94_PARTIAL_CHARGES>  (1) 
21
1 1.51
13 0.28
15 0.63
16 0.09
17 -0.15
18 -0.15
19 0.08
2 -0.43
20 -0.15
21 -0.15
3 -0.57
37 0.15
38 0.15
39 0.15
4 -0.35
40 0.15
41 0.5
42 0.5
5 -0.77
6 -0.77
7 -0.7

>  <PUBCHEM_EFFECTIVE_ROTOR_COUNT>  (1) 
10

>  <PUBCHEM_PHARMACOPHORE_FEATURES>  (1) 
8
1 14 hydrophobe
1 3 acceptor
1 5 acceptor
1 6 acceptor
1 7 acceptor
4 1 5 6 7 anion
5 8 9 10 11 12 hydrophobe
6 16 17 18 19 20 21 rings

>  <PUBCHEM_HEAVY_ATOM_COUNT>  (1) 
21

>  <PUBCHEM_ATOM_DEF_STEREO_COUNT>  (1) 
0

>  <PUBCHEM_ATOM_UDEF_STEREO_COUNT>  (1) 
0

>  <PUBCHEM_BOND_DEF_STEREO_COUNT>  (1) 
0

>  <PUBCHEM_BOND_UDEF_STEREO_COUNT>  (1) 
0

>  <PUBCHEM_ISOTOPIC_ATOM_COUNT>  (1) 
0

>  <PUBCHEM_COMPONENT_COUNT>  (1) 
1

>  <PUBCHEM_CACTVS_TAUTO_COUNT>  (1) 
1

>  <PUBCHEM_CONFORMER_ID>  (1) 
0000850100000001

>  <PUBCHEM_MMFF94_ENERGY>  (1) 
2.62

>  <PUBCHEM_FEATURE_SELFOVERLAP>  (1) 
40.633

>  <PUBCHEM_SHAPE_FINGERPRINT>  (1) 
10 15 18113901554447943737
10411042 1 17762618799840742447
10429389 143 17677040258529258965
106641 1 18041005042661717953
11315181 36 17822570637479917386
125118 31 18337673144318675160
12760667 363 9223223053588556901
14123256 34 9727629518699308548
14729087 3 18412824703414281528
15461852 350 17917989524754769334
155225 5 18270121193279043952
1577012 14 18335133207548290866
15778101 99 18410294731026591730
1768 4 18341341028676476865
17780758 139 12396289353419293583
19427546 20 18341326790860143759
20165401 70 11670688620350697388
20281389 69 18187082814993785444
20526848 3 18409451393034272576
20621476 66 18408325506107173508
21095123 293 17603873325904801764
21298829 104 18410295813638120148
21307412 95 11743541177910457277
22288116 15 17417519319787648111
23559900 14 18060133284582889184
270888 7 18410011005154442251
2838139 119 18341891956873680148
4073 2 18187088390801099498
465052 167 10737289035227016946
5104073 3 18187369779340277411
5283384 27 18041551460885421781
543368 44 18271526408378751873
59567204 34 18412545427034000312
59682541 35 18260842501394444561
59682541 52 17274833398666171310
6327066 14 18411697673166142838
636775 72 18413388752595208840
636775 8 8069758421056831528
77188 2 17329709821397058206
9980921 7 18113330917326249341

>  <PUBCHEM_SHAPE_MULTIPOLES>  (1) 
400.8
23.59
2.82
0.72
47.93
0.38
0.03
-22.89
0.29
-3.1
-0.01
-0.59
-0.31
0

>  <PUBCHEM_SHAPE_SELFOVERLAP>  (1) 
787.595

>  <PUBCHEM_SHAPE_VOLUME>  (1) 
240.2

>  <PUBCHEM_COORDINATE_TYPE>  (1) 
2
5
10

$$$$
