34048
     RDKit          3D

 14 14  0  0  0  0  0  0  0  0999 V2000
   -5.0012   -0.4047   -0.0505 O   0  0  0  0  0  0  0  0  0  0  0  0
   -3.1863   -1.1129    1.1152 O   0  0  0  0  0  0  0  0  0  0  0  0
    2.7012    0.5411    0.3722 N   0  0  0  0  0  0  0  0  0  0  0  0
    3.6501   -0.4033   -0.2158 C   0  0  0  0  0  0  0  0  0  0  0  0
    1.3524    0.5155    0.1035 C   0  0  0  0  0  0  0  0  0  0  0  0
    3.5925   -1.7388    0.5204 C   0  0  0  0  0  0  0  0  0  0  0  0
    5.0544    0.1901   -0.1654 C   0  0  0  0  0  0  0  0  0  0  0  0
   -1.4171    0.4635   -0.4487 C   0  0  0  0  0  0  0  0  0  0  0  0
    0.4700    1.4465    0.6952 C   0  0  0  0  0  0  0  0  0  0  0  0
    0.7988   -0.4425   -0.7748 C   0  0  0  0  0  0  0  0  0  0  0  0
   -0.8977    1.4206    0.4226 C   0  0  0  0  0  0  0  0  0  0  0  0
   -0.5691   -0.4681   -1.0474 C   0  0  0  0  0  0  0  0  0  0  0  0
   -2.8797    0.4353   -0.7394 C   0  0  0  0  0  0  0  0  0  0  0  0
   -3.6683   -0.4422    0.2127 C   0  0  0  0  0  0  0  0  0  0  0  0
  1 14  1  0
  2 14  2  0
  3  4  1  0
  3  5  1  0
  4  6  1  0
  4  7  1  0
  5  9  2  0
  5 10  1  0
  8 11  2  0
  8 12  1  0
  8 13  1  0
  9 11  1  0
 10 12  2  0
 13 14  1  0
M  END
>  <PUBCHEM_COMPOUND_CID>  (1) 
34048

>  <PUBCHEM_CONFORMER_RMSD>  (1) 
0.6

>  <PUBCHEM_CONFORMER_DIVERSEORDER>  (1) 
1
18
2
25
24
19
21
26
3
22
6
23
7
11
27
5
9
8
12
16
10
17
20
4
13
14
15

>  <PUBCHEM_MMFF94_PARTIAL_CHARGES>  (1) 
18
1 -0.65
10 -0.15
11 -0.15
12 -0.15
13 0.2
14 0.66
16 0.4
2 -0.57
23 0.15
24 0.15
25 0.15
26 0.15
29 0.5
3 -0.87
4 0.37
5 0.1
8 -0.14
9 -0.15

>  <PUBCHEM_EFFECTIVE_ROTOR_COUNT>  (1) 
4

>  <PUBCHEM_PHARMACOPHORE_FEATURES>  (1) 
7
1 1 acceptor
1 2 acceptor
1 3 cation
1 3 donor
3 1 2 14 anion
3 4 6 7 hydrophobe
6 5 8 9 10 11 12 rings

>  <PUBCHEM_HEAVY_ATOM_COUNT>  (1) 
14

>  <PUBCHEM_ATOM_DEF_STEREO_COUNT>  (1) 
0

>  <PUBCHEM_ATOM_UDEF_STEREO_COUNT>  (1) 
0

>  <PUBCHEM_BOND_DEF_STEREO_COUNT>  (1) 
0

>  <PUBCHEM_BOND_UDEF_STEREO_COUNT>  (1) 
0

>  <PUBCHEM_ISOTOPIC_ATOM_COUNT>  (1) 
0

>  <PUBCHEM_COMPONENT_COUNT>  (1) 
1

>  <PUBCHEM_CACTVS_TAUTO_COUNT>  (1) 
1

>  <PUBCHEM_CONFORMER_ID>  (1) 
0000850000000001

>  <PUBCHEM_MMFF94_ENERGY>  (1) 
36.3889

>  <PUBCHEM_FEATURE_SELFOVERLAP>  (1) 
35.578

>  <PUBCHEM_SHAPE_FINGERPRINT>  (1) 
10130415 120 17846212280522980576
10219947 1 17917713521603420341
11132069 177 17060049333211627084
11543360 7 17167870772257790940
11769659 78 18113614556296335994
12032990 46 18272090474379864652
12251169 10 17275103946375512181
124424 183 18411697695252778821
12616999 72 18113341895325772286
12670546 56 13614240334778422823
13675066 3 15769779052297755741
13705890 14 17822008692664361686
13760787 5 18130781291349201204
14252887 29 17846503612840019302
14350558 41 18113342994104202918
14943859 89 11815894552669166685
15209294 21 15697726925932654331
15375462 189 18272362075511695754
16945 1 17417807335741184356
17834072 33 17458633345352998548
17834074 16 18113901563127886826
17862501 102 16773791537282254063
18186145 218 13335020559780452183
187816 3 13623530155808366540
19026448 4 17895185597718116692
19422 9 18264772069535778682
200 152 18407758131588299090
20281407 28 18335421287509151179
20645477 70 18338510838190840878
21029758 27 18342460356740205924
21119208 17 16008746922722260991
21256008 23 18060422425675088088
21256008 61 15863791720193966823
21293036 1 12107786311141934349
22094290 60 17458060439444020765
22485316 2 18333730221314043019
231179 274 10303818670134599360
23402539 116 12535623861022348337
23402655 69 12252167594512842767
23557571 272 17240476992322478180
23559900 14 17968096481694003460
26918003 58 18334293167030480442
2748010 2 17272018557871431236
4047638 21 10159701308699712190
465052 167 18271811249887253239
4990 188 15213020440199309666
5104073 3 18128531575295917690

>  <PUBCHEM_SHAPE_MULTIPOLES>  (1) 
271.39
8.93
1.34
0.94
1.1
0.04
-0.02
-2.73
0.72
0.38
0.33
-0.28
-0.12
0.1

>  <PUBCHEM_SHAPE_SELFOVERLAP>  (1) 
550.108

>  <PUBCHEM_SHAPE_VOLUME>  (1) 
158.5

>  <PUBCHEM_COORDINATE_TYPE>  (1) 
2
5
10

$$$$
