34050
     RDKit          3D

 14 14  0  0  0  0  0  0  0  0999 V2000
   -3.2540    0.2556   -0.5222 S   0  0  0  0  0  0  0  0  0  0  0  0
   -0.4667   -0.8276    0.2541 O   0  0  0  0  0  0  0  0  0  0  0  0
    1.0139   -2.4729   -0.3783 O   0  0  0  0  0  0  0  0  0  0  0  0
    4.0840    0.4286   -0.2862 N   0  0  0  0  0  0  0  0  0  0  0  0
   -2.8428   -1.0929    0.6273 C   0  0  0  0  0  0  0  0  0  0  0  0
   -1.5401   -1.7749    0.2400 C   0  0  0  0  0  0  0  0  0  0  0  0
   -4.7996    0.7891    0.2465 C   0  0  0  0  0  0  0  0  0  0  0  0
    1.7762   -0.2419   -0.0228 C   0  0  0  0  0  0  0  0  0  0  0  0
   -5.4037    1.9496   -0.5212 C   0  0  0  0  0  0  0  0  0  0  0  0
    0.7772   -1.2948   -0.0752 C   0  0  0  0  0  0  0  0  0  0  0  0
    1.4306    1.0587    0.3270 C   0  0  0  0  0  0  0  0  0  0  0  0
    3.1047   -0.5029   -0.3176 C   0  0  0  0  0  0  0  0  0  0  0  0
    2.4100    2.0447    0.3707 C   0  0  0  0  0  0  0  0  0  0  0  0
    3.7102    1.6815    0.0580 C   0  0  0  0  0  0  0  0  0  0  0  0
  1  5  1  0
  1  7  1  0
  2  6  1  0
  2 10  1  0
  3 10  2  0
  4 12  2  0
  4 14  1  0
  5  6  1  0
  7  9  1  0
  8 10  1  0
  8 11  2  0
  8 12  1  0
 11 13  1  0
 13 14  2  0
M  END
>  <PUBCHEM_COMPOUND_CID>  (1) 
34050

>  <PUBCHEM_CONFORMER_RMSD>  (1) 
0.8

>  <PUBCHEM_CONFORMER_DIVERSEORDER>  (1) 
1
10
217
501
517
57
449
73
258
352
452
430
347
11
387
12
77
244
7
345
383
403
191
8
332
165
370
177
249
253
394
16
301
481
35
376
33
467
433
56
468
509
150
418
155
272
34
199
471
375
9
20
344
225
175
233
429
22
176
245
472
268
242
360
446
224
6
323
130
395
494
171
407
104
392
486
60
30
139
37
447
142
25
3
529
52
385
513
230
302
422
82
134
40
476
168
15
238
514
5
413
117
424
239
443
159
216
66
388
62
158
374
45
254
431
47
156
416

>  <PUBCHEM_MMFF94_PARTIAL_CHARGES>  (1) 
17
1 -0.46
10 0.63
11 -0.15
12 0.16
13 -0.15
14 0.16
2 -0.43
24 0.15
25 0.15
26 0.15
27 0.15
3 -0.57
4 -0.62
5 0.23
6 0.28
7 0.23
8 0.09

>  <PUBCHEM_EFFECTIVE_ROTOR_COUNT>  (1) 
6

>  <PUBCHEM_PHARMACOPHORE_FEATURES>  (1) 
4
1 3 acceptor
1 4 acceptor
1 9 hydrophobe
6 4 8 11 12 13 14 rings

>  <PUBCHEM_HEAVY_ATOM_COUNT>  (1) 
14

>  <PUBCHEM_ATOM_DEF_STEREO_COUNT>  (1) 
0

>  <PUBCHEM_ATOM_UDEF_STEREO_COUNT>  (1) 
0

>  <PUBCHEM_BOND_DEF_STEREO_COUNT>  (1) 
0

>  <PUBCHEM_BOND_UDEF_STEREO_COUNT>  (1) 
0

>  <PUBCHEM_ISOTOPIC_ATOM_COUNT>  (1) 
0

>  <PUBCHEM_COMPONENT_COUNT>  (1) 
1

>  <PUBCHEM_CACTVS_TAUTO_COUNT>  (1) 
1

>  <PUBCHEM_CONFORMER_ID>  (1) 
0000850200000001

>  <PUBCHEM_MMFF94_ENERGY>  (1) 
30.617

>  <PUBCHEM_FEATURE_SELFOVERLAP>  (1) 
20.297

>  <PUBCHEM_SHAPE_FINGERPRINT>  (1) 
10608611 8 18338799042948241835
11471102 20 18341896259818993814
122479 349 18334296495988882875
12596602 18 14490486274444401893
12730499 353 18410019806281241499
13922767 16 18342455976110375818
14123255 352 18335138704810972053
14123255 52 18410571790950703071
1420 369 9223226369403743981
14252887 29 12829200062291341984
15196674 1 18410574015485403473
17834072 32 18409450314696937333
17834072 8 18272379663434246324
18186145 218 17986970706954730842
20281475 54 9583525347246410179
20621476 13 18200588236709653577
20645477 56 18334019385031377723
20645477 70 17989215810640348807
212847 35 18261111855129549740
22182937 141 18409736196679008387
22289505 5 18269270158435596765
231179 274 18408889529206345891
23402539 116 18130502028702420036
23402655 69 18202565089827637773
23500284 214 18187085057620822275
25 1 18411134736145167319
3060560 45 18060139795426463774
4028521 119 18412545405806726377
6430166 295 18409727400127102000

>  <PUBCHEM_SHAPE_MULTIPOLES>  (1) 
275.24
9.84
2.39
0.73
9.93
0.14
0
-6.89
-0.91
0.07
-0.01
0.22
-0.02
0.8

>  <PUBCHEM_SHAPE_SELFOVERLAP>  (1) 
538.268

>  <PUBCHEM_SHAPE_VOLUME>  (1) 
167.2

>  <PUBCHEM_COORDINATE_TYPE>  (1) 
2
5
10

$$$$
