34067
     RDKit          3D

 16 17  0  0  1  0  0  0  0  0999 V2000
   -0.9037    0.9519   -1.1259 O   0  0  0  0  0  0  0  0  0  0  0  0
   -3.7334    1.0761    1.2051 O   0  0  0  0  0  0  0  0  0  0  0  0
   -1.7721   -1.7624    0.0582 N   0  0  0  0  0  0  0  0  0  0  0  0
   -2.8270    0.4520    0.2967 C   0  0  0  0  0  0  0  0  0  0  0  0
    0.4722   -0.7734   -0.1882 C   0  0  0  0  0  0  0  0  0  0  0  0
    0.2678    0.5645   -0.5328 C   0  0  0  0  0  0  0  0  0  0  0  0
   -1.8054    1.4955   -0.1596 C   0  0  0  0  0  0  0  0  0  0  0  0
   -2.1906   -0.7406    1.0129 C   0  0  0  0  0  0  0  0  0  0  0  0
    1.2867    1.5000   -0.3464 C   0  0  0  0  0  0  0  0  0  0  0  0
   -0.5809   -1.7800   -0.4306 C   0  0  0  0  0  0  0  0  0  0  0  0
    1.6893   -1.1791    0.3636 C   0  0  0  0  0  0  0  0  0  0  0  0
    2.6998   -0.2385    0.5679 C   0  0  0  0  0  0  0  0  0  0  0  0
    2.4998    1.0969    0.2121 C   0  0  0  0  0  0  0  0  0  0  0  0
    1.1153    2.9278   -0.7497 C   0  0  0  0  0  0  0  0  0  0  0  0
   -0.2187   -2.9279   -1.3445 C   0  0  0  0  0  0  0  0  0  0  0  0
    4.0009   -0.6628    1.1613 C   0  0  0  0  0  0  0  0  0  0  0  0
  1  6  1  0
  1  7  1  0
  2  4  1  0
  3  8  1  0
  3 10  2  0
  4  7  1  0
  4  8  1  0
  5  6  2  0
  5 10  1  0
  5 11  1  0
  6  9  1  0
  9 13  2  0
  9 14  1  0
 10 15  1  0
 11 12  2  0
 12 13  1  0
 12 16  1  0
M  END
>  <PUBCHEM_COMPOUND_CID>  (1) 
34067

>  <PUBCHEM_CONFORMER_RMSD>  (1) 
0.4

>  <PUBCHEM_CONFORMER_DIVERSEORDER>  (1) 
3
2
1
4

>  <PUBCHEM_MMFF94_PARTIAL_CHARGES>  (1) 
19
1 -0.36
10 0.3
11 -0.15
12 -0.14
13 -0.15
14 0.14
15 0.06
16 0.14
2 -0.68
22 0.15
23 0.15
3 -0.7
33 0.4
4 0.28
5 0.09
6 0.08
7 0.28
8 0.25
9 -0.14

>  <PUBCHEM_EFFECTIVE_ROTOR_COUNT>  (1) 
0.8

>  <PUBCHEM_PHARMACOPHORE_FEATURES>  (1) 
5
1 1 acceptor
1 2 acceptor
1 2 donor
1 3 acceptor
6 5 6 9 11 12 13 rings

>  <PUBCHEM_HEAVY_ATOM_COUNT>  (1) 
16

>  <PUBCHEM_ATOM_DEF_STEREO_COUNT>  (1) 
0

>  <PUBCHEM_ATOM_UDEF_STEREO_COUNT>  (1) 
1

>  <PUBCHEM_BOND_DEF_STEREO_COUNT>  (1) 
0

>  <PUBCHEM_BOND_UDEF_STEREO_COUNT>  (1) 
0

>  <PUBCHEM_ISOTOPIC_ATOM_COUNT>  (1) 
0

>  <PUBCHEM_COMPONENT_COUNT>  (1) 
1

>  <PUBCHEM_CACTVS_TAUTO_COUNT>  (1) 
1

>  <PUBCHEM_CONFORMER_ID>  (1) 
0000851300000003

>  <PUBCHEM_MMFF94_ENERGY>  (1) 
64.2679

>  <PUBCHEM_FEATURE_SELFOVERLAP>  (1) 
25.372

>  <PUBCHEM_SHAPE_FINGERPRINT>  (1) 
11086676 242 18114185215837366560
11132069 177 18338510842026365330
11471102 22 18335708174039387328
12011746 2 18335699377951405965
12202030 40 15430579762436784530
12251169 10 18335141981538482401
12382932 28 18410290276907973272
12507560 14 18411696578229362165
12696612 119 18334577987981912876
13140716 1 18337111262550756521
13172582 1 18409727344202875744
14617773 55 17910665789350100302
14761567 1 14804046533381885285
15279308 10 18050846916411173918
15309172 13 18341325604683739410
15375462 189 17749664108948632424
15775835 57 18338528550171492489
16945 1 18260547809700894655
20511035 2 18116168829287233069
20871998 184 18192418693832252188
21501502 16 18264489657771076084
22112679 90 17337877474714149919
22445834 79 18189896611462801112
23184049 59 18339361864026361571
2334 1 18120655996090193293
23388829 49 17689706880491685804
23419403 2 13357158895793798340
23463225 33 18261108573906410864
2748010 2 17905043651384460365
6992083 37 18339632425786643414
81228 2 18124284324686194414
84936 31 17058372470689995903

>  <PUBCHEM_SHAPE_MULTIPOLES>  (1) 
312.55
4.87
2.8
1.12
0.57
0.11
0
-0.54
-2.69
-0.08
1.18
-0.14
0.21
-0.68

>  <PUBCHEM_SHAPE_SELFOVERLAP>  (1) 
659.656

>  <PUBCHEM_SHAPE_VOLUME>  (1) 
176

>  <PUBCHEM_COORDINATE_TYPE>  (1) 
2
5
10

$$$$
