34066
     RDKit          3D

 16 17  0  0  1  0  0  0  0  0999 V2000
   -0.7662   -1.0468   -1.3242 O   0  0  0  0  0  0  0  0  0  0  0  0
   -3.8028   -0.9310    0.7303 O   0  0  0  0  0  0  0  0  0  0  0  0
   -1.0256    1.4069    0.5293 N   0  0  0  0  0  0  0  0  0  0  0  0
    0.9500    2.3861   -0.4070 C   0  0  0  0  0  0  0  0  0  0  0  0
    0.1801    1.2005    0.1270 C   0  0  0  0  0  0  0  0  0  0  0  0
   -2.6539   -0.3880    0.0814 C   0  0  0  0  0  0  0  0  0  0  0  0
    0.8865   -0.0965    0.1302 C   0  0  0  0  0  0  0  0  0  0  0  0
   -1.8207    0.3434    1.1355 C   0  0  0  0  0  0  0  0  0  0  0  0
   -1.8970   -1.5315   -0.5971 C   0  0  0  0  0  0  0  0  0  0  0  0
    0.3794   -1.1825   -0.5869 C   0  0  0  0  0  0  0  0  0  0  0  0
    0.2412    2.9553   -1.6267 C   0  0  0  0  0  0  0  0  0  0  0  0
    1.1194    3.4397    0.6783 C   0  0  0  0  0  0  0  0  0  0  0  0
    2.0853   -0.2185    0.8361 C   0  0  0  0  0  0  0  0  0  0  0  0
    1.0791   -2.3897   -0.6188 C   0  0  0  0  0  0  0  0  0  0  0  0
    2.7729   -1.4327    0.8198 C   0  0  0  0  0  0  0  0  0  0  0  0
    2.2722   -2.5147    0.0929 C   0  0  0  0  0  0  0  0  0  0  0  0
  1  9  1  0
  1 10  1  0
  2  6  1  0
  3  5  2  0
  3  8  1  0
  4  5  1  0
  4 11  1  0
  4 12  1  0
  5  7  1  0
  6  8  1  0
  6  9  1  0
  7 10  2  0
  7 13  1  0
 10 14  1  0
 13 15  2  0
 14 16  2  0
 15 16  1  0
M  END
>  <PUBCHEM_COMPOUND_CID>  (1) 
34066

>  <PUBCHEM_CONFORMER_RMSD>  (1) 
0.6

>  <PUBCHEM_CONFORMER_DIVERSEORDER>  (1) 
1
4
2
5
3

>  <PUBCHEM_MMFF94_PARTIAL_CHARGES>  (1) 
19
1 -0.36
10 0.08
13 -0.15
14 -0.15
15 -0.15
16 -0.15
2 -0.68
29 0.15
3 -0.7
30 0.15
31 0.15
32 0.15
33 0.4
4 0.06
5 0.3
6 0.28
7 0.09
8 0.25
9 0.28

>  <PUBCHEM_EFFECTIVE_ROTOR_COUNT>  (1) 
1.8

>  <PUBCHEM_PHARMACOPHORE_FEATURES>  (1) 
6
1 1 acceptor
1 2 acceptor
1 2 donor
1 3 acceptor
3 4 11 12 hydrophobe
6 7 10 13 14 15 16 rings

>  <PUBCHEM_HEAVY_ATOM_COUNT>  (1) 
16

>  <PUBCHEM_ATOM_DEF_STEREO_COUNT>  (1) 
0

>  <PUBCHEM_ATOM_UDEF_STEREO_COUNT>  (1) 
1

>  <PUBCHEM_BOND_DEF_STEREO_COUNT>  (1) 
0

>  <PUBCHEM_BOND_UDEF_STEREO_COUNT>  (1) 
0

>  <PUBCHEM_ISOTOPIC_ATOM_COUNT>  (1) 
0

>  <PUBCHEM_COMPONENT_COUNT>  (1) 
1

>  <PUBCHEM_CACTVS_TAUTO_COUNT>  (1) 
1

>  <PUBCHEM_CONFORMER_ID>  (1) 
0000851200000001

>  <PUBCHEM_MMFF94_ENERGY>  (1) 
60.0863

>  <PUBCHEM_FEATURE_SELFOVERLAP>  (1) 
30.446

>  <PUBCHEM_SHAPE_FINGERPRINT>  (1) 
1 1 18120940769681096853
12138202 97 17180810649711387846
12423570 1 16681523531808326158
12532896 13 17477216392926734561
12644460 14 18193864702083770507
12716301 132 17185595715704812402
13140716 1 18051693544480148515
14181834 199 18269263711731682309
14761567 1 16468365069359433550
14817 1 12333859890399876863
16945 1 18201993326622352595
20559304 39 18340495546682950283
20645476 183 17253162332892461965
20645477 70 18263359360561865419
21029758 27 18409172095263200062
21524375 3 17693383643180273821
22344851 341 17908993449380902320
2334 1 18340770329931886543
23388829 49 18271517688761353433
23419403 2 17897416519653597877
23493267 7 17042046763580804578
23559900 14 16542988297153068966
2748010 2 18127405640317406879
305870 269 17977941611714186589
3071541 236 17253697288322517402
430814 3 17686903134399221093
528862 383 18192148419871643729
5845 1 10153427478029640305
6786 2 16167572631369222101
7364860 26 18340492282275761745
81228 2 17831025623861581345

>  <PUBCHEM_SHAPE_MULTIPOLES>  (1) 
312.55
3.83
3.66
1.19
0.79
3.35
0.21
-3.25
0.36
-1.19
-0.88
-0.39
-0.05
0.85

>  <PUBCHEM_SHAPE_SELFOVERLAP>  (1) 
655.862

>  <PUBCHEM_SHAPE_VOLUME>  (1) 
175.4

>  <PUBCHEM_COORDINATE_TYPE>  (1) 
2
5
10

$$$$
