3406
     RDKit          3D

  6  6  0  0  0  0  0  0  0  0999 V2000
    1.3237    0.6845   -0.0002 N   0  0  0  0  0  0  0  0  0  0  0  0
    1.4406   -0.6544   -0.0001 N   0  0  0  0  0  0  0  0  0  0  0  0
   -0.7492   -0.0043    0.0001 C   0  0  0  0  0  0  0  0  0  0  0  0
    0.0327    1.1249    0.0002 C   0  0  0  0  0  0  0  0  0  0  0  0
   -2.2189   -0.0810   -0.0002 C   0  0  0  0  0  0  0  0  0  0  0  0
    0.1711   -1.0697    0.0001 C   0  0  0  0  0  0  0  0  0  0  0  0
  1  2  1  0
  1  4  1  0
  2  6  2  0
  3  4  2  0
  3  5  1  0
  3  6  1  0
M  END
>  <PUBCHEM_COMPOUND_CID>  (1) 
3406

>  <PUBCHEM_CONFORMER_RMSD>  (1) 
0.4

>  <PUBCHEM_CONFORMER_DIVERSEORDER>  (1) 
1

>  <PUBCHEM_MMFF94_PARTIAL_CHARGES>  (1) 
9
1 0.3
11 0.15
12 0.27
2 -0.71
3 -0.18
4 -0.3
5 0.18
6 0.14
7 0.15

>  <PUBCHEM_EFFECTIVE_ROTOR_COUNT>  (1) 
0

>  <PUBCHEM_PHARMACOPHORE_FEATURES>  (1) 
3
1 1 donor
1 2 acceptor
5 1 2 3 4 6 rings

>  <PUBCHEM_HEAVY_ATOM_COUNT>  (1) 
6

>  <PUBCHEM_ATOM_DEF_STEREO_COUNT>  (1) 
0

>  <PUBCHEM_ATOM_UDEF_STEREO_COUNT>  (1) 
0

>  <PUBCHEM_BOND_DEF_STEREO_COUNT>  (1) 
0

>  <PUBCHEM_BOND_UDEF_STEREO_COUNT>  (1) 
0

>  <PUBCHEM_ISOTOPIC_ATOM_COUNT>  (1) 
0

>  <PUBCHEM_COMPONENT_COUNT>  (1) 
1

>  <PUBCHEM_CACTVS_TAUTO_COUNT>  (1) 
1

>  <PUBCHEM_CONFORMER_ID>  (1) 
00000D4E00000001

>  <PUBCHEM_MMFF94_ENERGY>  (1) 
1.7585

>  <PUBCHEM_FEATURE_SELFOVERLAP>  (1) 
15.223

>  <PUBCHEM_SHAPE_FINGERPRINT>  (1) 
139733 1 9294991475619850275
20096714 4 18267868456976805993
21015797 1 9294128354697046344
21040471 1 18266458895896857281
29004967 10 18334299755636796211
5943 1 11346551332552394856

>  <PUBCHEM_SHAPE_MULTIPOLES>  (1) 
113.52
2.1
1.15
0.59
0.9
0.04
0
-0.1
0
-0.24
0
0.04
0
0

>  <PUBCHEM_SHAPE_SELFOVERLAP>  (1) 
230.069

>  <PUBCHEM_SHAPE_VOLUME>  (1) 
69.4

>  <PUBCHEM_COORDINATE_TYPE>  (1) 
2
5
10

$$$$
