34074
     RDKit          3D

 15 15  0  0  0  0  0  0  0  0999 V2000
    1.6278    1.8958    0.4055 O   0  0  0  0  0  0  0  0  0  0  0  0
   -3.6230   -0.1176    0.1865 N   0  0  0  0  0  0  0  0  0  0  0  0
   -2.5060    0.1069   -0.8224 C   0  0  0  0  0  0  0  0  0  0  0  0
   -1.1470   -0.1973   -0.1995 C   0  0  0  0  0  0  0  0  0  0  0  0
   -4.9641    0.1884   -0.4648 C   0  0  0  0  0  0  0  0  0  0  0  0
   -3.6033   -1.5668    0.6507 C   0  0  0  0  0  0  0  0  0  0  0  0
   -3.4186    0.8010    1.3826 C   0  0  0  0  0  0  0  0  0  0  0  0
    0.0641    0.0464   -1.1096 C   0  0  0  0  0  0  0  0  0  0  0  0
    1.3845   -0.3182   -0.4793 C   0  0  0  0  0  0  0  0  0  0  0  0
    2.0969    0.6268    0.2445 C   0  0  0  0  0  0  0  0  0  0  0  0
    1.8661   -1.6097   -0.6396 C   0  0  0  0  0  0  0  0  0  0  0  0
    3.3171    0.2731    0.8204 C   0  0  0  0  0  0  0  0  0  0  0  0
    3.0863   -1.9635   -0.0636 C   0  0  0  0  0  0  0  0  0  0  0  0
    3.8117   -1.0219    0.6664 C   0  0  0  0  0  0  0  0  0  0  0  0
    2.0074    2.8565   -0.5778 C   0  0  0  0  0  0  0  0  0  0  0  0
  1 10  1  0
  1 15  1  0
  2  3  1  0
  2  5  1  0
  2  6  1  0
  2  7  1  0
  3  4  1  0
  4  8  1  0
  8  9  1  0
  9 10  2  0
  9 11  1  0
 10 12  1  0
 11 13  2  0
 12 14  2  0
 13 14  1  0
M  CHG  1   2   1
M  END
>  <PUBCHEM_COMPOUND_CID>  (1) 
34074

>  <PUBCHEM_CONFORMER_RMSD>  (1) 
0.6

>  <PUBCHEM_CONFORMER_DIVERSEORDER>  (1) 
1
5
11
15
12
9
13
14
3
4
8
10
6
2
7

>  <PUBCHEM_MMFF94_PARTIAL_CHARGES>  (1) 
18
1 -0.36
10 0.08
11 -0.15
12 -0.15
13 -0.15
14 -0.15
15 0.28
2 -1.01
3 0.5
31 0.15
32 0.15
33 0.15
34 0.15
5 0.5
6 0.5
7 0.5
8 0.14
9 -0.14

>  <PUBCHEM_EFFECTIVE_ROTOR_COUNT>  (1) 
5

>  <PUBCHEM_PHARMACOPHORE_FEATURES>  (1) 
3
1 1 acceptor
1 2 cation
6 9 10 11 12 13 14 rings

>  <PUBCHEM_HEAVY_ATOM_COUNT>  (1) 
15

>  <PUBCHEM_ATOM_DEF_STEREO_COUNT>  (1) 
0

>  <PUBCHEM_ATOM_UDEF_STEREO_COUNT>  (1) 
0

>  <PUBCHEM_BOND_DEF_STEREO_COUNT>  (1) 
0

>  <PUBCHEM_BOND_UDEF_STEREO_COUNT>  (1) 
0

>  <PUBCHEM_ISOTOPIC_ATOM_COUNT>  (1) 
0

>  <PUBCHEM_COMPONENT_COUNT>  (1) 
1

>  <PUBCHEM_CACTVS_TAUTO_COUNT>  (1) 
1

>  <PUBCHEM_CONFORMER_ID>  (1) 
0000851A00000001

>  <PUBCHEM_MMFF94_ENERGY>  (1) 
57.2389

>  <PUBCHEM_FEATURE_SELFOVERLAP>  (1) 
15.223

>  <PUBCHEM_SHAPE_FINGERPRINT>  (1) 
10498660 4 13110975184523869675
10799339 124 18131350769821444491
11715629 250 10087639265239598787
12162725 195 18131637772721660881
12251169 10 18343579650855108423
12507557 5 18412259553957504921
12633257 1 18409455760767904737
12644460 14 18261677060283926728
13296908 3 17240766215794437831
13533116 47 18410577310268807507
14252887 29 18342452591871754034
14289901 80 18270403914022194571
15501101 241 18260265256961719204
16752209 62 14996547492017707391
17041 49 18340212894705943401
18186145 218 18343030964793993071
18915474 69 13262686936568008683
19050596 39 18059857298637588271
200 152 18060125549610409543
20279233 1 18187082836964773471
20339313 130 18412830161995831556
20559304 39 18201722864084402016
20645477 70 18334569170487900919
20671657 1 18341055236761657180
20871998 22 18199187278991926302
22169311 14 18261111876783688739
2255824 54 18411423933726154110
23402539 116 17703778203451424877
23559900 14 18410571790755654259
26918003 58 18410849945659439139
2748010 2 18053928577374473972
351380 180 18412257316696274989
6049 1 17967805042308679765
9971528 1 18202002075681633750

>  <PUBCHEM_SHAPE_MULTIPOLES>  (1) 
297.84
8.73
2.12
1.07
8.32
1.04
-0.09
-1.67
-1.72
-2.07
0.14
0.34
0.08
-0.01

>  <PUBCHEM_SHAPE_SELFOVERLAP>  (1) 
589.532

>  <PUBCHEM_SHAPE_VOLUME>  (1) 
180.3

>  <PUBCHEM_COORDINATE_TYPE>  (1) 
2
5
10

$$$$
