34071
     RDKit          3D

 14 14  0  0  0  0  0  0  0  0999 V2000
    5.6113    0.9068    0.0185 Cl  0  0  0  0  0  0  0  0  0  0  0  0
    0.6173   -0.2475   -0.0027 O   0  0  0  0  0  0  0  0  0  0  0  0
   -0.4086   -2.3082    0.0000 O   0  0  0  0  0  0  0  0  0  0  0  0
    2.7629    1.3631   -0.0204 O   0  0  0  0  0  0  0  0  0  0  0  0
   -1.7165   -0.3146   -0.0002 C   0  0  0  0  0  0  0  0  0  0  0  0
    1.9031   -0.8770   -0.0045 C   0  0  0  0  0  0  0  0  0  0  0  0
   -2.9414   -0.9818    0.0009 C   0  0  0  0  0  0  0  0  0  0  0  0
   -1.6818    1.0798    0.0009 C   0  0  0  0  0  0  0  0  0  0  0  0
   -0.4747   -1.0719   -0.0005 C   0  0  0  0  0  0  0  0  0  0  0  0
    3.0117    0.1586   -0.0069 C   0  0  0  0  0  0  0  0  0  0  0  0
   -4.1316   -0.2545    0.0029 C   0  0  0  0  0  0  0  0  0  0  0  0
   -2.8721    1.8070    0.0029 C   0  0  0  0  0  0  0  0  0  0  0  0
   -4.0970    1.1399    0.0039 C   0  0  0  0  0  0  0  0  0  0  0  0
    4.4174   -0.3996    0.0053 C   0  0  0  0  0  0  0  0  0  0  0  0
  1 14  1  0
  2  6  1  0
  2  9  1  0
  3  9  2  0
  4 10  2  0
  5  7  2  0
  5  8  1  0
  5  9  1  0
  6 10  1  0
  7 11  1  0
  8 12  2  0
 10 14  1  0
 11 13  2  0
 12 13  1  0
M  END
>  <PUBCHEM_COMPOUND_CID>  (1) 
34071

>  <PUBCHEM_CONFORMER_RMSD>  (1) 
0.6

>  <PUBCHEM_CONFORMER_DIVERSEORDER>  (1) 
1
135
120
181
235
185
98
155
212
7
202
243
12
221
233
160
131
150
134
231
89
132
227
165
207
237
106
133
49
91
152
183
118
53
208
4
50
162
75
188
216
184
193
161
16
107
19
140
226
151
234
56
29
102
169
172
101
121
114
100
25
115
177
93
77
239
190
144
206
103
111
14
199
74
81
129
214
148
182
76
205
33
242
180
200
209
143
35
60
179
41
170
51
217
31
45
191
244
196
34
204
17
159
157
90
117
61
2
229
192
94
210
32
232
123
52
65
189
9
215
176
211
124
82
166
113
230
194
59
78
119
96
84
110
203
128
30
37
116
175
238
105
54
71
20
58
69
47
80
146
126
62
8
225
26
164
43
66
28
167
68
236
39
186
21
201
11
197
6
125
72
147
136
104
67
145
36
139
38
174
97
63
163
220
112
218
187
70
228
57
109
83
10
158
86
108
55
173
23
3
64
79
222
85
142
178
130
87
46
138
198
73
149
223
27
137
15
88
168
153
95
42
154
224
5
122
18
40
92
195
22
48
24
213
99
141
13
127
240
156
44
219
241
171

>  <PUBCHEM_MMFF94_PARTIAL_CHARGES>  (1) 
19
1 -0.29
10 0.45
11 -0.15
12 -0.15
13 -0.15
14 0.35
17 0.15
18 0.15
19 0.15
2 -0.43
20 0.15
21 0.15
3 -0.57
4 -0.57
5 0.09
6 0.34
7 -0.15
8 -0.15
9 0.63

>  <PUBCHEM_EFFECTIVE_ROTOR_COUNT>  (1) 
5

>  <PUBCHEM_PHARMACOPHORE_FEATURES>  (1) 
3
1 3 acceptor
1 4 acceptor
6 5 7 8 11 12 13 rings

>  <PUBCHEM_HEAVY_ATOM_COUNT>  (1) 
14

>  <PUBCHEM_ATOM_DEF_STEREO_COUNT>  (1) 
0

>  <PUBCHEM_ATOM_UDEF_STEREO_COUNT>  (1) 
0

>  <PUBCHEM_BOND_DEF_STEREO_COUNT>  (1) 
0

>  <PUBCHEM_BOND_UDEF_STEREO_COUNT>  (1) 
0

>  <PUBCHEM_ISOTOPIC_ATOM_COUNT>  (1) 
0

>  <PUBCHEM_COMPONENT_COUNT>  (1) 
1

>  <PUBCHEM_CACTVS_TAUTO_COUNT>  (1) 
3

>  <PUBCHEM_CONFORMER_ID>  (1) 
0000851700000001

>  <PUBCHEM_MMFF94_ENERGY>  (1) 
30.1714

>  <PUBCHEM_FEATURE_SELFOVERLAP>  (1) 
15.223

>  <PUBCHEM_SHAPE_FINGERPRINT>  (1) 
12346645 44 18336827494288447307
12815109 37 9295289434886771308
12916748 109 18410581677733283930
13081056 2 18342176674165726608
13214271 11 18408324385094374535
13897977 58 18409168818023668757
14325111 11 18410856529775595495
15196674 1 18410855434675051012
15501527 16 18412830187396565104
15775835 57 18334296431168630656
17802600 8 18410852178926511732
18186145 218 18130518426428659078
18522853 276 18412544314605497272
200 152 17489867137450097111
20300324 65 18130784568788679077
20645477 56 18412545440044846536
20645477 70 17060071307140221670
20828058 44 8214145153211020748
21524375 3 18409449171908601967
21652331 79 18408322176758744604
23402539 116 18343012311407986102
23402655 69 18130786733220217628
23557571 272 18059581333682003495
23559900 14 18201720627092093598
2916195 48 18201992266330030728
351380 180 18412260640420752324
3545911 37 18412829079579572822
366044 4 18409729560269214283
4214541 1 18410856572973175296
5104073 3 18409166589252121674
6430166 295 18409446977617812800
7364860 26 18124314900437120383
77779 3 18410294696671900718

>  <PUBCHEM_SHAPE_MULTIPOLES>  (1) 
272.38
10.36
1.73
0.6
10.48
0.13
0
-3.7
-0.04
-0.75
0
0
-0.01
0

>  <PUBCHEM_SHAPE_SELFOVERLAP>  (1) 
550.047

>  <PUBCHEM_SHAPE_VOLUME>  (1) 
158.9

>  <PUBCHEM_COORDINATE_TYPE>  (1) 
2
5
10

$$$$
