3407
     RDKit          3D

 28 30  0  0  1  0  0  0  0  0999 V2000
   -0.7057    4.8656   -1.3888 Cl  0  0  0  0  0  0  0  0  0  0  0  0
   -5.5456   -1.6688    1.1889 O   0  0  0  0  0  0  0  0  0  0  0  0
   -0.9374   -1.7085   -0.5604 O   0  0  0  0  0  0  0  0  0  0  0  0
    3.0212    0.0206    2.0137 O   0  0  0  0  0  0  0  0  0  0  0  0
   -3.1316   -1.0773   -0.1390 N   0  0  0  0  0  0  0  0  0  0  0  0
   -0.3151    0.6098   -1.5990 N   0  0  0  0  0  0  0  0  0  0  0  0
    1.7690    0.5955    0.1092 N   0  0  0  0  0  0  0  0  0  0  0  0
   -3.6209   -2.4534   -0.0537 C   0  0  0  0  0  0  0  0  0  0  0  0
   -4.1763   -0.0572   -0.0002 C   0  0  0  0  0  0  0  0  0  0  0  0
   -1.4093    0.6130   -0.6528 C   0  0  0  0  0  0  0  0  0  0  0  0
   -4.4888   -2.6320    1.1837 C   0  0  0  0  0  0  0  0  0  0  0  0
   -5.0262   -0.3371    1.2328 C   0  0  0  0  0  0  0  0  0  0  0  0
   -1.7964   -0.8300   -0.4498 C   0  0  0  0  0  0  0  0  0  0  0  0
    0.1867    1.9701   -1.8294 C   0  0  0  0  0  0  0  0  0  0  0  0
    0.6185    2.6331   -0.5485 C   0  0  0  0  0  0  0  0  0  0  0  0
   -0.7227    0.0068   -2.8740 C   0  0  0  0  0  0  0  0  0  0  0  0
    1.3893    1.9166    0.3613 C   0  0  0  0  0  0  0  0  0  0  0  0
    0.2494    3.9475   -0.2815 C   0  0  0  0  0  0  0  0  0  0  0  0
    1.7953    2.5211    1.5511 C   0  0  0  0  0  0  0  0  0  0  0  0
    0.6555    4.5518    0.9083 C   0  0  0  0  0  0  0  0  0  0  0  0
    1.4285    3.8387    1.8246 C   0  0  0  0  0  0  0  0  0  0  0  0
    2.5363   -0.2490    0.9201 C   0  0  0  0  0  0  0  0  0  0  0  0
    2.7975   -1.6014    0.3613 C   0  0  0  0  0  0  0  0  0  0  0  0
    3.0198   -2.6486    1.2306 C   0  0  0  0  0  0  0  0  0  0  0  0
    2.8087   -1.7646   -1.0080 C   0  0  0  0  0  0  0  0  0  0  0  0
    3.2648   -3.9178    0.7064 C   0  0  0  0  0  0  0  0  0  0  0  0
    3.0536   -3.0339   -1.5321 C   0  0  0  0  0  0  0  0  0  0  0  0
    3.2816   -4.1105   -0.6749 C   0  0  0  0  0  0  0  0  0  0  0  0
  1 18  1  0
  2 11  1  0
  2 12  1  0
  3 13  2  0
  4 22  2  0
  5  8  1  0
  5  9  1  0
  5 13  1  0
  6 10  1  0
  6 14  1  0
  6 16  1  0
  7 17  1  0
  7 22  1  0
  8 11  1  0
  9 12  1  0
 10 13  1  0
 14 15  1  0
 15 17  1  0
 15 18  2  0
 17 19  2  0
 18 20  1  0
 19 21  1  0
 20 21  2  0
 22 23  1  0
 23 24  2  0
 23 25  1  0
 24 26  1  0
 25 27  2  0
 26 28  2  0
 27 28  1  0
M  END
>  <PUBCHEM_COMPOUND_CID>  (1) 
3407

>  <PUBCHEM_CONFORMER_RMSD>  (1) 
1

>  <PUBCHEM_CONFORMER_DIVERSEORDER>  (1) 
1
14
28
29
36
10
5
16
15
12
9
24
30
20
26
31
7
4
34
13
33
32
3
23
8
25
18
35
6
22
27
11
2
17
19
21

>  <PUBCHEM_MMFF94_PARTIAL_CHARGES>  (1) 
37
1 -0.18
10 0.33
11 0.28
12 0.28
13 0.57
14 0.41
15 -0.14
16 0.27
17 0.12
18 0.18
19 -0.15
2 -0.56
20 -0.15
21 -0.15
22 0.54
23 0.09
24 -0.15
25 -0.15
26 -0.15
27 -0.15
28 -0.15
3 -0.57
4 -0.57
44 0.15
45 0.37
46 0.15
47 0.15
48 0.15
49 0.15
5 -0.66
50 0.15
51 0.15
52 0.15
6 -0.81
7 -0.55
8 0.3
9 0.3

>  <PUBCHEM_EFFECTIVE_ROTOR_COUNT>  (1) 
9.2

>  <PUBCHEM_PHARMACOPHORE_FEATURES>  (1) 
8
1 2 acceptor
1 3 acceptor
1 4 acceptor
1 6 cation
1 7 donor
6 15 17 18 19 20 21 rings
6 2 5 8 9 11 12 rings
6 23 24 25 26 27 28 rings

>  <PUBCHEM_HEAVY_ATOM_COUNT>  (1) 
28

>  <PUBCHEM_ATOM_DEF_STEREO_COUNT>  (1) 
0

>  <PUBCHEM_ATOM_UDEF_STEREO_COUNT>  (1) 
0

>  <PUBCHEM_BOND_DEF_STEREO_COUNT>  (1) 
0

>  <PUBCHEM_BOND_UDEF_STEREO_COUNT>  (1) 
0

>  <PUBCHEM_ISOTOPIC_ATOM_COUNT>  (1) 
0

>  <PUBCHEM_COMPONENT_COUNT>  (1) 
1

>  <PUBCHEM_CACTVS_TAUTO_COUNT>  (1) 
2

>  <PUBCHEM_CONFORMER_ID>  (1) 
00000D4F00000001

>  <PUBCHEM_MMFF94_ENERGY>  (1) 
95.423

>  <PUBCHEM_FEATURE_SELFOVERLAP>  (1) 
40.597

>  <PUBCHEM_SHAPE_FINGERPRINT>  (1) 
10064457 181 17402886121260370200
10764073 3 16768184882383643731
107951 10 16829810219950535742
1100329 8 15527979248348980039
11421498 54 18263947534425628292
12160290 23 17617073838198350598
12788726 201 18120952606853954094
13135754 10 17413039690452026386
13533116 47 18337679741077166739
13583140 156 18197774604266234493
14363568 33 18341609360910446634
14866123 147 17331119395376973235
15420108 30 17837468006502940184
17868525 174 18412272727060376633
17974551 9 18342457041399565265
20642791 268 18201431540678798379
20739085 24 18192705867988504368
23466295 7 17834400016826926682
23559900 14 18190471639386952943
3117164 225 18339375097822868867
3380486 145 18053908893281029878
35225 105 17540833693217102392
3737641 26 18410577262686498566
445580 42 17474652967819433394
6287921 2 18122625221584845411
7097593 13 18342176717342226911
79837 15 17187562183476135976

>  <PUBCHEM_SHAPE_MULTIPOLES>  (1) 
545.55
7.85
7.03
2
3.23
6.29
0.59
-13.32
-2.69
1.58
-1.33
-0.22
0.72
2.54

>  <PUBCHEM_SHAPE_SELFOVERLAP>  (1) 
1151.43

>  <PUBCHEM_SHAPE_VOLUME>  (1) 
305.3

>  <PUBCHEM_COORDINATE_TYPE>  (1) 
2
5
10

$$$$
