34085
     RDKit          3D

 23 26  0  0  1  0  0  0  0  0999 V2000
   -2.2996    0.4784   -1.3271 O   0  0  0  0  0  0  0  0  0  0  0  0
    6.3895    0.4620    0.1021 O   0  0  0  0  0  0  0  0  0  0  0  0
   -2.0060    0.0047    1.0813 C   0  0  0  0  0  0  0  0  0  0  0  0
   -1.0917   -1.2225    0.8025 C   0  0  0  0  0  0  0  0  0  0  0  0
    0.1826   -0.9467   -0.0385 C   0  0  0  0  0  0  0  0  0  0  0  0
   -2.9627    0.0090   -0.1518 C   0  0  0  0  0  0  0  0  0  0  0  0
    0.9492    0.3035    0.4491 C   0  0  0  0  0  0  0  0  0  0  0  0
   -1.2162    1.3107    1.2994 C   0  0  0  0  0  0  0  0  0  0  0  0
   -2.0204   -2.2371    0.0950 C   0  0  0  0  0  0  0  0  0  0  0  0
    0.0126    1.5180    0.4227 C   0  0  0  0  0  0  0  0  0  0  0  0
   -3.2643   -1.4772   -0.3768 C   0  0  0  0  0  0  0  0  0  0  0  0
    2.2448    0.5588   -0.3879 C   0  0  0  0  0  0  0  0  0  0  0  0
    1.1222   -2.1693   -0.0026 C   0  0  0  0  0  0  0  0  0  0  0  0
   -2.8012   -0.2570    2.3919 C   0  0  0  0  0  0  0  0  0  0  0  0
   -4.2504    0.8204   -0.0037 C   0  0  0  0  0  0  0  0  0  0  0  0
    2.3417   -1.9544   -0.8878 C   0  0  0  0  0  0  0  0  0  0  0  0
    3.0869   -0.7016   -0.5124 C   0  0  0  0  0  0  0  0  0  0  0  0
    3.0545    1.7270    0.2154 C   0  0  0  0  0  0  0  0  0  0  0  0
   -5.1360    0.6778   -1.2358 C   0  0  0  0  0  0  0  0  0  0  0  0
    4.4635    1.8170   -0.3445 C   0  0  0  0  0  0  0  0  0  0  0  0
    4.4188   -0.7378   -0.3483 C   0  0  0  0  0  0  0  0  0  0  0  0
    5.1865    0.5114   -0.1429 C   0  0  0  0  0  0  0  0  0  0  0  0
   -6.4042    1.5051   -1.0993 C   0  0  0  0  0  0  0  0  0  0  0  0
  1  6  1  0
  2 22  2  0
  3  4  1  0
  3  6  1  0
  3  8  1  0
  3 14  1  0
  4  5  1  0
  4  9  1  0
  5  7  1  0
  5 13  1  0
  6 11  1  0
  6 15  1  0
  7 10  1  0
  7 12  1  0
  8 10  1  0
  9 11  1  0
 12 17  1  0
 12 18  1  0
 13 16  1  0
 15 19  1  0
 16 17  1  0
 17 21  2  0
 18 20  1  0
 19 23  1  0
 20 22  1  0
 21 22  1  0
M  END
>  <PUBCHEM_COMPOUND_CID>  (1) 
34085

>  <PUBCHEM_CONFORMER_RMSD>  (1) 
0.6

>  <PUBCHEM_CONFORMER_DIVERSEORDER>  (1) 
1
63
87
23
55
81
60
59
31
30
65
40
98
47
22
45
105
74
48
100
88
78
116
73
38
34
79
52
17
36
62
46
108
29
72
50
21
92
49
95
69
57
90
14
114
109
58
44
67
5
104
26
54
20
66
82
86
4
75
27
53
110
42
96
37
10
41
93
56
51
77
84
76
91
83
3
71
85
13
6
94
115
9
106
16
8
103
99
15
11
28
111
7
33
112
18
70
101
35
102
113
19
32
61
25
68
89
39
107
12
24
2
64
80
43
97

>  <PUBCHEM_MMFF94_PARTIAL_CHARGES>  (1) 
11
1 -0.68
12 0.14
16 0.14
17 -0.28
2 -0.57
20 0.06
21 -0.14
22 0.49
47 0.4
52 0.15
6 0.28

>  <PUBCHEM_EFFECTIVE_ROTOR_COUNT>  (1) 
3.8

>  <PUBCHEM_PHARMACOPHORE_FEATURES>  (1) 
8
1 1 acceptor
1 1 donor
1 2 acceptor
1 23 hydrophobe
5 3 4 6 9 11 rings
6 12 17 18 20 21 22 rings
6 3 4 5 7 8 10 rings
6 5 7 12 13 16 17 rings

>  <PUBCHEM_HEAVY_ATOM_COUNT>  (1) 
23

>  <PUBCHEM_ATOM_DEF_STEREO_COUNT>  (1) 
1

>  <PUBCHEM_ATOM_UDEF_STEREO_COUNT>  (1) 
5

>  <PUBCHEM_BOND_DEF_STEREO_COUNT>  (1) 
0

>  <PUBCHEM_BOND_UDEF_STEREO_COUNT>  (1) 
0

>  <PUBCHEM_ISOTOPIC_ATOM_COUNT>  (1) 
0

>  <PUBCHEM_COMPONENT_COUNT>  (1) 
1

>  <PUBCHEM_CACTVS_TAUTO_COUNT>  (1) 
8

>  <PUBCHEM_CONFORMER_ID>  (1) 
0000852500000001

>  <PUBCHEM_MMFF94_ENERGY>  (1) 
67.0995

>  <PUBCHEM_FEATURE_SELFOVERLAP>  (1) 
40.746

>  <PUBCHEM_SHAPE_FINGERPRINT>  (1) 
10014705 185 18335423499322414931
10366900 7 17489870436301608994
10498660 4 18341337772689981904
11315181 36 17846221098518159368
11796584 16 17095526184790621162
11961588 58 18187916292722283823
12011746 2 18413395332848213180
12236239 1 17346600742175375997
12293681 160 18201996604141199609
12403259 415 18267867357739666944
12507557 5 18410858802219431688
12596602 18 14273748364527974012
12730499 353 18261115136896195995
12788726 201 17489025942810327409
12969540 114 18114167615572908911
13140716 1 18126299755385165578
13224815 77 18201449098821693210
13402501 40 18187641388376182252
13583140 156 17603870035241700256
14790565 3 18126575509745668761
15183329 4 18059568050097496445
15196674 1 18340491170390804902
15238133 3 15864076433570744342
15295992 7 14057301808139742045
15375358 24 18407762529687596638
15510800 12 12965976075399788973
15788980 27 18041283244430224042
15840311 113 18053677876324514881
16945 1 18270415892343182658
17349148 13 18342173393179860770
17959699 21 18408884014542366277
18186145 218 18270417065322707622
18608769 82 18337391647634675179
18769570 83 17240478083318238661
19862831 5 18202845456929489851
200 152 17775847917000877393
20511986 3 18341316869237347522
20645477 56 18186518804647678805
20645477 70 18343023246479377558
20715895 44 18334292041707149909
21033648 29 18115020922047548480
21267235 1 18271258225650829402
21285901 2 18263359196719963053
212916 134 16371008481955642987
22393880 68 18271516597882144279
23227448 37 18335702784193008607
23402539 116 18342454876704204116
23402655 69 18343299249841605439
23557571 272 17240779397017453427
23559900 14 18201151165430500208
25147074 1 17774164466231042203
2838139 119 18113888352214588757
296302 2 18335424568758819566
3009799 131 17846490435495454065
335352 9 18410575064011403070
34797466 226 14979954809087288872
34934 24 18411134723265702554
350125 39 18196381531291694755
3633792 109 18129943352273126333
4072396 5 18337096892291849538
4340502 62 16805327643922447651
474 4 18412268345945424810
5104073 3 18269844267220222090
5283173 99 18409443661719054677
57724786 102 16154000152672523372
59755656 215 18411702046086350492
59755656 520 16660357087229039259
633830 44 17168424982163858616
9709674 26 18201171974678781382

>  <PUBCHEM_SHAPE_MULTIPOLES>  (1) 
461.59
11.95
2.12
1.29
1.72
0.58
-0.49
-5.35
4.02
0.29
0.16
-1.62
-0.11
0.86

>  <PUBCHEM_SHAPE_SELFOVERLAP>  (1) 
979.352

>  <PUBCHEM_SHAPE_VOLUME>  (1) 
255.5

>  <PUBCHEM_COORDINATE_TYPE>  (1) 
2
5
10

$$$$
