34083
     RDKit          3D

 13 13  0  0  0  0  0  0  0  0999 V2000
   -1.0618    0.6855    0.2051 O   0  0  0  0  0  0  0  0  0  0  0  0
    0.5293   -0.9797   -0.0150 N   0  0  0  0  0  0  0  0  0  0  0  0
    1.1593    1.3303    0.1428 N   0  0  0  0  0  0  0  0  0  0  0  0
    2.8466   -0.3607   -0.0838 N   0  0  0  0  0  0  0  0  0  0  0  0
    2.2004   -2.6099   -0.2352 N   0  0  0  0  0  0  0  0  0  0  0  0
    3.4317    1.9047    0.0726 N   0  0  0  0  0  0  0  0  0  0  0  0
   -3.4298    0.1993    0.2707 C   0  0  0  0  0  0  0  0  0  0  0  0
   -2.0125   -0.3708    0.1674 C   0  0  0  0  0  0  0  0  0  0  0  0
   -4.4557   -0.9305    0.3261 C   0  0  0  0  0  0  0  0  0  0  0  0
   -3.7381    1.1409   -0.8954 C   0  0  0  0  0  0  0  0  0  0  0  0
    0.2587    0.3321    0.1072 C   0  0  0  0  0  0  0  0  0  0  0  0
    1.8413   -1.2508   -0.1050 C   0  0  0  0  0  0  0  0  0  0  0  0
    2.4305    0.9097    0.0425 C   0  0  0  0  0  0  0  0  0  0  0  0
  1  8  1  0
  1 11  1  0
  2 11  2  0
  2 12  1  0
  3 11  1  0
  3 13  2  0
  4 12  2  0
  4 13  1  0
  5 12  1  0
  6 13  1  0
  7  8  1  0
  7  9  1  0
  7 10  1  0
M  END
>  <PUBCHEM_COMPOUND_CID>  (1) 
34083

>  <PUBCHEM_CONFORMER_RMSD>  (1) 
0.6

>  <PUBCHEM_CONFORMER_DIVERSEORDER>  (1) 
1
5
2
3
4

>  <PUBCHEM_MMFF94_PARTIAL_CHARGES>  (1) 
14
1 -0.36
11 0.7
12 0.72
13 0.72
2 -0.62
23 0.4
24 0.4
25 0.4
26 0.4
3 -0.62
4 -0.62
5 -0.9
6 -0.9
8 0.28

>  <PUBCHEM_EFFECTIVE_ROTOR_COUNT>  (1) 
3

>  <PUBCHEM_PHARMACOPHORE_FEATURES>  (1) 
6
1 5 donor
1 6 donor
3 7 9 10 hydrophobe
4 2 4 5 12 cation
4 3 4 6 13 cation
6 2 3 4 11 12 13 rings

>  <PUBCHEM_HEAVY_ATOM_COUNT>  (1) 
13

>  <PUBCHEM_ATOM_DEF_STEREO_COUNT>  (1) 
0

>  <PUBCHEM_ATOM_UDEF_STEREO_COUNT>  (1) 
0

>  <PUBCHEM_BOND_DEF_STEREO_COUNT>  (1) 
0

>  <PUBCHEM_BOND_UDEF_STEREO_COUNT>  (1) 
0

>  <PUBCHEM_ISOTOPIC_ATOM_COUNT>  (1) 
0

>  <PUBCHEM_COMPONENT_COUNT>  (1) 
1

>  <PUBCHEM_CACTVS_TAUTO_COUNT>  (1) 
5

>  <PUBCHEM_CONFORMER_ID>  (1) 
0000852300000001

>  <PUBCHEM_MMFF94_ENERGY>  (1) 
35.6502

>  <PUBCHEM_FEATURE_SELFOVERLAP>  (1) 
30.489

>  <PUBCHEM_SHAPE_FINGERPRINT>  (1) 
10608611 8 18334572430447459597
10980938 120 18412261752701062008
11471102 20 18412260640320512588
12346645 6 18411419531432089788
12932764 1 17274813667143281545
13296908 3 18336265656984581267
13380535 76 18335984284718061218
14144814 61 18343023268212475377
14251717 144 18413106156256883103
14325111 11 18409729564943671345
14415576 193 18334016120239210460
15219456 202 18334855004893353157
15442244 35 18053387595698950929
170605 34 18261109707450658144
18186145 218 17895194342666903579
20201158 50 18408888412493931883
20279233 1 18114185250339412795
20645477 56 18041277674111329589
20645477 70 18341609270621525927
20671657 53 18196943162415855974
20871998 22 17912367528919338126
21499 59 18339920549309522380
21501925 9 18339914901538285058
221490 88 18409175393545194203
22943178 12 18260546697858272383
23402539 116 17458613545195262445
23402655 69 18342172263540314397
23557571 272 17603583015620686885
2748010 2 18194979654113726286
3071541 37 18335990830780658398
3248919 1 17418096473350845127
449060 62 18343025514195638408
581208 293 18412822503684001330
7364860 26 18343303639477692190
81539 233 18335138726195839020
93112 12 18337107861421805165

>  <PUBCHEM_SHAPE_MULTIPOLES>  (1) 
236.76
7.47
1.9
0.67
6.05
0.64
-0.05
-0.58
-0.19
-1.76
-0.17
0.34
-0.06
0.64

>  <PUBCHEM_SHAPE_SELFOVERLAP>  (1) 
474.739

>  <PUBCHEM_SHAPE_VOLUME>  (1) 
136.3

>  <PUBCHEM_COORDINATE_TYPE>  (1) 
2
5
10

$$$$
