34109
     RDKit          3D

 14 15  0  0  0  0  0  0  0  0999 V2000
    0.3581   -0.3933    0.0005 C   0  0  0  0  0  0  0  0  0  0  0  0
    1.2429    0.6868   -0.0004 C   0  0  0  0  0  0  0  0  0  0  0  0
    2.6198    0.4632   -0.0003 C   0  0  0  0  0  0  0  0  0  0  0  0
   -1.0745   -0.1912    0.0006 C   0  0  0  0  0  0  0  0  0  0  0  0
    0.8557   -1.6979    0.0012 C   0  0  0  0  0  0  0  0  0  0  0  0
    3.1145   -0.8411    0.0002 C   0  0  0  0  0  0  0  0  0  0  0  0
    0.7251    2.0919   -0.0011 C   0  0  0  0  0  0  0  0  0  0  0  0
    2.2326   -1.9216    0.0010 C   0  0  0  0  0  0  0  0  0  0  0  0
    3.5872    1.6014   -0.0011 C   0  0  0  0  0  0  0  0  0  0  0  0
   -1.7654   -0.0928    1.2083 C   0  0  0  0  0  0  0  0  0  0  0  0
   -1.7651   -0.0967   -1.2078 C   0  0  0  0  0  0  0  0  0  0  0  0
   -3.1468    0.1000    1.2077 C   0  0  0  0  0  0  0  0  0  0  0  0
   -3.1466    0.0964   -1.2083 C   0  0  0  0  0  0  0  0  0  0  0  0
   -3.8375    0.1948   -0.0006 C   0  0  0  0  0  0  0  0  0  0  0  0
  1  2  2  0
  1  4  1  0
  1  5  1  0
  2  3  1  0
  2  7  1  0
  3  6  2  0
  3  9  1  0
  4 10  2  0
  4 11  1  0
  5  8  2  0
  6  8  1  0
 10 12  1  0
 11 13  2  0
 12 14  2  0
 13 14  1  0
M  END
>  <PUBCHEM_COMPOUND_CID>  (1) 
34109

>  <PUBCHEM_CONFORMER_RMSD>  (1) 
0.4

>  <PUBCHEM_CONFORMER_DIVERSEORDER>  (1) 
1

>  <PUBCHEM_MMFF94_PARTIAL_CHARGES>  (1) 
20
10 -0.15
11 -0.15
12 -0.15
13 -0.15
14 -0.15
15 0.15
16 0.15
2 -0.14
20 0.15
24 0.15
25 0.15
26 0.15
27 0.15
28 0.15
3 -0.14
5 -0.15
6 -0.15
7 0.14
8 -0.15
9 0.14

>  <PUBCHEM_EFFECTIVE_ROTOR_COUNT>  (1) 
1

>  <PUBCHEM_PHARMACOPHORE_FEATURES>  (1) 
2
6 1 2 3 5 6 8 rings
6 4 10 11 12 13 14 rings

>  <PUBCHEM_HEAVY_ATOM_COUNT>  (1) 
14

>  <PUBCHEM_ATOM_DEF_STEREO_COUNT>  (1) 
0

>  <PUBCHEM_ATOM_UDEF_STEREO_COUNT>  (1) 
0

>  <PUBCHEM_BOND_DEF_STEREO_COUNT>  (1) 
0

>  <PUBCHEM_BOND_UDEF_STEREO_COUNT>  (1) 
0

>  <PUBCHEM_ISOTOPIC_ATOM_COUNT>  (1) 
0

>  <PUBCHEM_COMPONENT_COUNT>  (1) 
1

>  <PUBCHEM_CACTVS_TAUTO_COUNT>  (1) 
1

>  <PUBCHEM_CONFORMER_ID>  (1) 
0000853D00000001

>  <PUBCHEM_MMFF94_ENERGY>  (1) 
47.9748

>  <PUBCHEM_FEATURE_SELFOVERLAP>  (1) 
10.149

>  <PUBCHEM_SHAPE_FINGERPRINT>  (1) 
10219947 1 18410294709387887104
10608611 8 18113894940388367845
10980938 120 18411981364567355060
11031198 65 18335142015813766292
11471102 20 18409445882063652772
11543360 7 15625947620232829352
12236239 1 17703790305994109315
124424 183 17531235154311958424
12654215 9 18261103050531054068
12932764 1 17561078103297783721
13296908 3 17894353258852231803
13538477 17 17418085546901374751
13581323 91 15068339016688739251
14144814 61 18202002118531053811
14251717 144 18412538808177751566
14993402 34 17989487428603408637
15219456 202 18040435490441566591
15309172 13 18409732897479609906
15653759 3 17095243622411645809
15775835 57 18131071562429301309
16945 1 18410854356711956838
17844478 74 17894917304159463709
1813 80 17771079193965644406
18175812 5 17821450166036937351
18186145 218 18341899605888563964
19049666 15 17677605354953055341
19422 9 17847062168525075119
200 152 18271519892834080239
20201158 50 18114181899906375091
20279233 1 17748826315115864499
204376 136 18265332996581033792
20645464 45 17458060486883703169
20645476 183 17846775248041257087
20645477 70 18338790126686228663
20715346 28 17822014211296611787
21499 59 18340767160499093388
21639500 275 18340195392640404620
22802520 49 17824252705243618237
23048698 100 18202284688840450051
23402655 69 18341605997761370901
23557571 272 16877947113728809167
23559900 14 16660923275630317658
23598291 2 17989203716186165775
25 1 18409448124226498276
2748010 2 18193547875168020620
350125 39 17688598581498322960
474 4 17843389928775050160
528886 8 18412542149920556410
57096353 35 17846207903961842837
581208 293 18412820292087054242
63268167 104 18342453755179805984
77492 1 17703789202166447715
81228 2 17401760827080442650
8272917 22 18199193901831412103

>  <PUBCHEM_SHAPE_MULTIPOLES>  (1) 
288.11
6.28
1.7
1.03
1.62
0.07
0
0.78
0
-1.87
0
1.02
0
0

>  <PUBCHEM_SHAPE_SELFOVERLAP>  (1) 
623.559

>  <PUBCHEM_SHAPE_VOLUME>  (1) 
149.9

>  <PUBCHEM_COORDINATE_TYPE>  (1) 
2
5
10

$$$$
