3410
     RDKit          3D

 25 26  0  0  1  0  0  0  0  0999 V2000
   -2.8151    3.3368    0.9059 O   0  0  0  0  0  0  0  0  0  0  0  0
    2.8156   -3.3889    0.5834 O   0  0  0  0  0  0  0  0  0  0  0  0
   -2.2576   -2.8257    1.6873 O   0  0  0  0  0  0  0  0  0  0  0  0
   -3.2315   -0.8373   -2.9284 O   0  0  0  0  0  0  0  0  0  0  0  0
    0.5285    2.3873   -0.3861 N   0  0  0  0  0  0  0  0  0  0  0  0
   -2.8740   -2.0869   -0.9507 N   0  0  0  0  0  0  0  0  0  0  0  0
    1.8773    2.9144   -0.1591 C   0  0  0  0  0  0  0  0  0  0  0  0
    2.9019    2.0496   -0.9159 C   0  0  0  0  0  0  0  0  0  0  0  0
   -0.4502    3.1363    0.3842 C   0  0  0  0  0  0  0  0  0  0  0  0
   -1.8637    2.5902    0.1485 C   0  0  0  0  0  0  0  0  0  0  0  0
    1.9033    4.3769   -0.6037 C   0  0  0  0  0  0  0  0  0  0  0  0
    2.8784    0.5942   -0.5143 C   0  0  0  0  0  0  0  0  0  0  0  0
   -1.9713    1.1369    0.5551 C   0  0  0  0  0  0  0  0  0  0  0  0
   -2.3713    0.2002   -0.3822 C   0  0  0  0  0  0  0  0  0  0  0  0
    2.0464   -0.2830   -1.1911 C   0  0  0  0  0  0  0  0  0  0  0  0
    3.6899    0.1629    0.5226 C   0  0  0  0  0  0  0  0  0  0  0  0
   -1.6666    0.7753    1.8560 C   0  0  0  0  0  0  0  0  0  0  0  0
   -2.4699   -1.1396   -0.0069 C   0  0  0  0  0  0  0  0  0  0  0  0
   -1.7649   -0.5646    2.2312 C   0  0  0  0  0  0  0  0  0  0  0  0
    2.0251   -1.6276   -0.8209 C   0  0  0  0  0  0  0  0  0  0  0  0
    3.6688   -1.1819    0.8927 C   0  0  0  0  0  0  0  0  0  0  0  0
   -2.1667   -1.5220    1.2998 C   0  0  0  0  0  0  0  0  0  0  0  0
    2.8363   -2.0772    0.2209 C   0  0  0  0  0  0  0  0  0  0  0  0
   -3.2104   -1.8761   -2.2834 C   0  0  0  0  0  0  0  0  0  0  0  0
    1.9417   -4.2501   -0.1448 C   0  0  0  0  0  0  0  0  0  0  0  0
  1 10  1  0
  2 23  1  0
  2 25  1  0
  3 22  1  0
  4 24  2  0
  5  7  1  0
  5  9  1  0
  6 18  1  0
  6 24  1  0
  7  8  1  0
  7 11  1  0
  8 12  1  0
  9 10  1  0
 10 13  1  0
 12 15  2  0
 12 16  1  0
 13 14  2  0
 13 17  1  0
 14 18  1  0
 15 20  1  0
 16 21  2  0
 17 19  2  0
 18 22  2  0
 19 22  1  0
 20 23  2  0
 21 23  1  0
M  END
>  <PUBCHEM_COMPOUND_CID>  (1) 
3410

>  <PUBCHEM_CONFORMER_RMSD>  (1) 
1

>  <PUBCHEM_CONFORMER_DIVERSEORDER>  (1) 
4
126
114
44
10
111
64
16
148
76
30
70
117
82
104
5
130
31
91
48
8
13
110
162
85
136
140
132
112
128
68
25
106
127
22
67
69
87
134
9
54
45
101
113
6
79
160
129
41
123
57
153
52
80
15
49
62
51
75
86
95
108
122
161
156
98
46
26
17
27
61
65
12
137
72
139
29
118
131
96
7
143
124
59
84
159
125
90
115
116
120
165
142
38
83
147
151
155
21
73
133
146
150
71
164
43
36
89
121
93
145
105
78
56
119
94
18
141
103
40
55
144
135
107
154
102
157
58
34
35
47
63
39
66
158
152
100
11
19
20
149
77
53
37
99
50
109
23
138
28
88
92
32
74
163
81
14
60
1
33
3
42
2
24
97

>  <PUBCHEM_MMFF94_PARTIAL_CHARGES>  (1) 
36
1 -0.68
10 0.42
12 -0.14
13 -0.14
14 -0.15
15 -0.15
16 -0.15
17 -0.15
18 0.12
19 -0.15
2 -0.36
20 -0.15
21 -0.15
22 0.08
23 0.08
24 0.57
25 0.28
3 -0.53
31 0.36
36 0.15
37 0.15
38 0.15
39 0.15
4 -0.57
40 0.4
41 0.15
42 0.15
43 0.15
44 0.37
45 0.45
46 0.06
5 -0.9
6 -0.55
7 0.27
8 0.14
9 0.27

>  <PUBCHEM_EFFECTIVE_ROTOR_COUNT>  (1) 
9

>  <PUBCHEM_PHARMACOPHORE_FEATURES>  (1) 
10
1 1 acceptor
1 1 donor
1 2 acceptor
1 3 donor
1 4 acceptor
1 5 cation
1 5 donor
1 6 donor
6 12 15 16 20 21 23 rings
6 13 14 17 18 19 22 rings

>  <PUBCHEM_HEAVY_ATOM_COUNT>  (1) 
25

>  <PUBCHEM_ATOM_DEF_STEREO_COUNT>  (1) 
0

>  <PUBCHEM_ATOM_UDEF_STEREO_COUNT>  (1) 
2

>  <PUBCHEM_BOND_DEF_STEREO_COUNT>  (1) 
0

>  <PUBCHEM_BOND_UDEF_STEREO_COUNT>  (1) 
0

>  <PUBCHEM_ISOTOPIC_ATOM_COUNT>  (1) 
0

>  <PUBCHEM_COMPONENT_COUNT>  (1) 
1

>  <PUBCHEM_CACTVS_TAUTO_COUNT>  (1) 
6

>  <PUBCHEM_CONFORMER_ID>  (1) 
00000D5200000004

>  <PUBCHEM_MMFF94_ENERGY>  (1) 
73.9985

>  <PUBCHEM_FEATURE_SELFOVERLAP>  (1) 
50.75

>  <PUBCHEM_SHAPE_FINGERPRINT>  (1) 
11578080 2 17202474679902379625
12156800 1 16746988574401115344
12422481 6 17982201958138716049
12539773 59 17845395326224942291
12553582 1 18336560321679413368
13122387 1 16389024765845167146
13140716 1 18268165303779386024
13911987 19 17397550186967630757
14251757 17 17751058384250621375
14251757 5 17472449572345456238
17138139 8 16548327026677188607
19026451 147 18054771030308572798
192875 21 18337938082621022898
19930381 70 18263934413200370627
21315764 21 15938364829523003618
22113638 7 18050569538680601252
238 59 18119237617727151022
35225 105 17758409469347758804
463206 1 17838609316541262255
5265222 85 16752150619002412398
5283178 26 16766794008585431742
5309563 4 17904500827943252419
6438754 60 18127387133915356031

>  <PUBCHEM_SHAPE_MULTIPOLES>  (1) 
481.05
6.58
5.5
1.9
0.89
1.28
-0.54
-2.33
-0.95
2.47
0.02
-2.32
-0.93
-1.59

>  <PUBCHEM_SHAPE_SELFOVERLAP>  (1) 
1006.397

>  <PUBCHEM_SHAPE_VOLUME>  (1) 
270.8

>  <PUBCHEM_COORDINATE_TYPE>  (1) 
2
5
10

$$$$
