34120
     RDKit          3D

 44 46  0  0  1  0  0  0  0  0999 V2000
   -7.1959   -0.8751   -0.8240 O   0  0  0  0  0  0  0  0  0  0  0  0
    6.6865   -2.0791   -0.2281 O   0  0  0  0  0  0  0  0  0  0  0  0
   -2.5935    3.9747   -0.6348 O   0  0  0  0  0  0  0  0  0  0  0  0
    3.9397    2.2931    1.9443 O   0  0  0  0  0  0  0  0  0  0  0  0
   -8.5364   -2.6861   -0.3142 O   0  0  0  0  0  0  0  0  0  0  0  0
    6.4610   -4.3371    0.2042 O   0  0  0  0  0  0  0  0  0  0  0  0
   -3.8044    1.2743   -1.0497 N   0  0  0  0  0  0  0  0  0  0  0  0
    5.7365    1.8835   -0.1432 N   0  0  0  0  0  0  0  0  0  0  0  0
   -5.3615   -3.5890   -0.0176 N   0  0  0  0  0  0  0  0  0  0  0  0
    4.3355   -2.6645    2.1193 N   0  0  0  0  0  0  0  0  0  0  0  0
   -5.2538   -0.0866    0.3675 C   0  0  0  0  0  0  0  0  0  0  0  0
    4.9388   -0.4511   -0.5573 C   0  0  0  0  0  0  0  0  0  0  0  0
   -6.3601   -1.1695    0.2996 C   0  0  0  0  0  0  0  0  0  0  0  0
    5.2631   -1.9323   -0.2377 C   0  0  0  0  0  0  0  0  0  0  0  0
   -4.3197   -0.0930   -0.8498 C   0  0  0  0  0  0  0  0  0  0  0  0
    5.4435    0.5272    0.5114 C   0  0  0  0  0  0  0  0  0  0  0  0
   -4.4390   -0.1739    1.6685 C   0  0  0  0  0  0  0  0  0  0  0  0
    3.4397   -0.2318   -0.8194 C   0  0  0  0  0  0  0  0  0  0  0  0
   -7.2364   -1.1165    1.5648 C   0  0  0  0  0  0  0  0  0  0  0  0
    4.7027   -2.8507   -1.3395 C   0  0  0  0  0  0  0  0  0  0  0  0
   -5.3389   -0.1205    2.9005 C   0  0  0  0  0  0  0  0  0  0  0  0
    2.9184   -1.1588   -1.9145 C   0  0  0  0  0  0  0  0  0  0  0  0
   -6.4260   -1.1885    2.8583 C   0  0  0  0  0  0  0  0  0  0  0  0
    3.2161   -2.6228   -1.6106 C   0  0  0  0  0  0  0  0  0  0  0  0
   -3.0231    1.7584    0.1838 C   0  0  0  0  0  0  0  0  0  0  0  0
    4.4784    2.6411   -0.3699 C   0  0  0  0  0  0  0  0  0  0  0  0
   -2.8570    1.3383   -2.2600 C   0  0  0  0  0  0  0  0  0  0  0  0
   -4.9518    2.2682   -1.2985 C   0  0  0  0  0  0  0  0  0  0  0  0
    6.6827    2.6650    0.7775 C   0  0  0  0  0  0  0  0  0  0  0  0
    6.4629    1.6273   -1.4701 C   0  0  0  0  0  0  0  0  0  0  0  0
   -5.8010   -2.5243    0.1220 C   0  0  0  0  0  0  0  0  0  0  0  0
    4.7436   -2.3423    1.0821 C   0  0  0  0  0  0  0  0  0  0  0  0
   -2.1402    2.9361   -0.1597 C   0  0  0  0  0  0  0  0  0  0  0  0
    3.4982    2.5016    0.7962 C   0  0  0  0  0  0  0  0  0  0  0  0
   -8.2501   -1.7206   -1.0092 C   0  0  0  0  0  0  0  0  0  0  0  0
    7.1451   -3.3422    0.0062 C   0  0  0  0  0  0  0  0  0  0  0  0
   -0.6738    2.8229    0.0889 C   0  0  0  0  0  0  0  0  0  0  0  0
    2.0686    2.6120    0.5541 C   0  0  0  0  0  0  0  0  0  0  0  0
   -0.2023    2.0197    1.1272 C   0  0  0  0  0  0  0  0  0  0  0  0
    1.1688    1.9142    1.3599 C   0  0  0  0  0  0  0  0  0  0  0  0
    0.2259    3.5206   -0.7169 C   0  0  0  0  0  0  0  0  0  0  0  0
    1.5972    3.4152   -0.4843 C   0  0  0  0  0  0  0  0  0  0  0  0
   -9.0319   -1.2925   -2.2139 C   0  0  0  0  0  0  0  0  0  0  0  0
    8.6436   -3.3443   -0.0132 C   0  0  0  0  0  0  0  0  0  0  0  0
  1 13  1  0
  1 35  1  0
  2 14  1  0
  2 36  1  0
  3 33  2  0
  4 34  2  0
  5 35  2  0
  6 36  2  0
  7 15  1  0
  7 25  1  0
  7 27  1  0
  7 28  1  0
  8 16  1  0
  8 26  1  0
  8 29  1  0
  8 30  1  0
  9 31  3  0
 10 32  3  0
 11 13  1  0
 11 15  1  0
 11 17  1  0
 12 14  1  0
 12 16  1  0
 12 18  1  0
 13 19  1  0
 13 31  1  0
 14 20  1  0
 14 32  1  0
 17 21  1  0
 18 22  1  0
 19 23  1  0
 20 24  1  0
 21 23  1  0
 22 24  1  0
 25 33  1  0
 26 34  1  0
 33 37  1  0
 34 38  1  0
 35 43  1  0
 36 44  1  0
 37 39  2  0
 37 41  1  0
 38 40  2  0
 38 42  1  0
 39 40  1  0
 41 42  2  0
M  CHG  2   7   1   8   1
M  END
>  <PUBCHEM_COMPOUND_CID>  (1) 
34120

>  <PUBCHEM_CONFORMER_RMSD>  (1) 
2

>  <PUBCHEM_CONFORMER_DIVERSEORDER>  (1) 
13
85
37
64
70
71
94
14
45
38
120
10
6
99
112
113
8
75
74
50
59
87
27
110
44
23
52
62
104
97
67
61
72
73
5
55
58
21
84
92
16
3
79
109
108
76
49
28
51
53
20
30
60
47
88
63
24
69
119
98
78
57
103
4
25
15
32
86
36
54
41
118
100
42
19
106
43
31
90
56
89
7
11
33
35
111
107
34
29
83
65
26
1
116
39
48
81
82
101
91
12
96
9
22
105
46
95
18
117
102
80
66
68
115
93
2
77
40
114
17

>  <PUBCHEM_MMFF94_PARTIAL_CHARGES>  (1) 
38
1 -0.43
10 -0.56
13 0.48
14 0.48
15 0.5
16 0.5
2 -0.43
25 0.56
26 0.56
27 0.5
28 0.5
29 0.5
3 -0.57
30 0.5
31 0.36
32 0.36
33 0.42
34 0.42
35 0.66
36 0.66
37 0.09
38 0.09
39 -0.15
4 -0.57
40 -0.15
41 -0.15
42 -0.15
43 0.06
44 0.06
5 -0.57
6 -0.57
7 -1.01
8 -1.01
83 0.15
84 0.15
85 0.15
86 0.15
9 -0.56

>  <PUBCHEM_EFFECTIVE_ROTOR_COUNT>  (1) 
16.4

>  <PUBCHEM_PHARMACOPHORE_FEATURES>  (1) 
11
1 10 acceptor
1 3 acceptor
1 4 acceptor
1 5 acceptor
1 6 acceptor
1 7 cation
1 8 cation
1 9 acceptor
6 11 13 17 19 21 23 rings
6 12 14 18 20 22 24 rings
6 37 38 39 40 41 42 rings

>  <PUBCHEM_HEAVY_ATOM_COUNT>  (1) 
44

>  <PUBCHEM_ATOM_DEF_STEREO_COUNT>  (1) 
0

>  <PUBCHEM_ATOM_UDEF_STEREO_COUNT>  (1) 
4

>  <PUBCHEM_BOND_DEF_STEREO_COUNT>  (1) 
0

>  <PUBCHEM_BOND_UDEF_STEREO_COUNT>  (1) 
0

>  <PUBCHEM_ISOTOPIC_ATOM_COUNT>  (1) 
0

>  <PUBCHEM_COMPONENT_COUNT>  (1) 
1

>  <PUBCHEM_CACTVS_TAUTO_COUNT>  (1) 
3

>  <PUBCHEM_CONFORMER_ID>  (1) 
000085480000000D

>  <PUBCHEM_MMFF94_ENERGY>  (1) 
178.8575

>  <PUBCHEM_FEATURE_SELFOVERLAP>  (1) 
55.825

>  <PUBCHEM_SHAPE_FINGERPRINT>  (1) 
10169797 241 18342189838926233078
11103572 155 18411991234729892313
117089 54 18410293575469262570
11963148 33 18338793537259474670
13553639 21 18339092496589962371
1361 4 18410292510565435948
13782708 43 18260835873199622347
13811026 1 18335977614865712109
15328684 2 17131565993826059875
15352257 5 18341051917010315545
15448158 91 18197784302238923212
15510800 12 18410845547401866277
16112460 7 18202285848582392583
19841028 212 18341891918345925619
20721686 56 18408604777660172835
208703 8 18339073792475996710
21792965 106 8214146227317537670
2838139 119 8718560384835775137
404807 78 18263372559001133884
439807 62 18410294687865922421
4435113 14 18337399257250879609
484989 97 18336550413674898346
50009960 94 17896866683016150834
513202 73 18410862049579256433
6636798 310 17275383197281999915
9831232 110 18262514930993751477

>  <PUBCHEM_SHAPE_MULTIPOLES>  (1) 
850.36
27.39
5.63
2.09
19.81
0.46
0.67
27.45
-1.28
-7.43
-0.34
3.13
0.4
0.95

>  <PUBCHEM_SHAPE_SELFOVERLAP>  (1) 
1769.6

>  <PUBCHEM_SHAPE_VOLUME>  (1) 
473.4

>  <PUBCHEM_COORDINATE_TYPE>  (1) 
2
5
10

$$$$
