34125
     RDKit          3D

 23 24  0  0  0  0  0  0  0  0999 V2000
   -6.4327   -1.6067   -0.6480 Cl  0  0  0  0  0  0  0  0  0  0  0  0
   -0.3567    0.1875    1.4169 O   0  0  0  0  0  0  0  0  0  0  0  0
   -2.5564    1.4248    0.6084 O   0  0  0  0  0  0  0  0  0  0  0  0
    3.7582   -0.5694   -0.5012 N   0  0  0  0  0  0  0  0  0  0  0  0
    6.2408    0.7961    0.0737 N   0  0  0  0  0  0  0  0  0  0  0  0
    0.2172   -1.5821    0.0313 N   0  0  0  0  0  0  0  0  0  0  0  0
    4.0486   -0.0480    0.8400 C   0  0  0  0  0  0  0  0  0  0  0  0
    4.4388    0.2365   -1.5223 C   0  0  0  0  0  0  0  0  0  0  0  0
    5.5593   -0.0093    1.0944 C   0  0  0  0  0  0  0  0  0  0  0  0
    5.9496    0.2765   -1.2681 C   0  0  0  0  0  0  0  0  0  0  0  0
    2.3174   -0.6052   -0.7436 C   0  0  0  0  0  0  0  0  0  0  0  0
    1.6354   -1.5250    0.2586 C   0  0  0  0  0  0  0  0  0  0  0  0
    7.6818    0.8299    0.3157 C   0  0  0  0  0  0  0  0  0  0  0  0
   -0.6761   -0.7074    0.6387 C   0  0  0  0  0  0  0  0  0  0  0  0
   -2.1124   -0.9141    0.3206 C   0  0  0  0  0  0  0  0  0  0  0  0
   -2.9778    0.1608    0.3217 C   0  0  0  0  0  0  0  0  0  0  0  0
   -2.5353   -2.1963    0.0308 C   0  0  0  0  0  0  0  0  0  0  0  0
   -4.3227   -0.0545    0.0204 C   0  0  0  0  0  0  0  0  0  0  0  0
   -3.8800   -2.4116   -0.2705 C   0  0  0  0  0  0  0  0  0  0  0  0
   -4.7738   -1.3406   -0.2758 C   0  0  0  0  0  0  0  0  0  0  0  0
   -2.7364    2.4127   -0.4040 C   0  0  0  0  0  0  0  0  0  0  0  0
   -3.6571    3.4676    0.1132 C   0  0  0  0  0  0  0  0  0  0  0  0
   -4.8296    3.7778   -0.4507 C   0  0  0  0  0  0  0  0  0  0  0  0
  1 20  1  0
  2 14  2  0
  3 16  1  0
  3 21  1  0
  4  7  1  0
  4  8  1  0
  4 11  1  0
  5  9  1  0
  5 10  1  0
  5 13  1  0
  6 12  1  0
  6 14  1  0
  7  9  1  0
  8 10  1  0
 11 12  1  0
 14 15  1  0
 15 16  2  0
 15 17  1  0
 16 18  1  0
 17 19  2  0
 18 20  2  0
 19 20  1  0
 21 22  1  0
 22 23  2  0
M  END
>  <PUBCHEM_COMPOUND_CID>  (1) 
34125

>  <PUBCHEM_CONFORMER_RMSD>  (1) 
1

>  <PUBCHEM_CONFORMER_DIVERSEORDER>  (1) 
13
33
56
29
22
37
17
51
62
30
11
61
10
40
25
9
26
48
32
4
20
2
59
43
16
47
39
41
1
24
19
58
3
52
55
34
18
6
60
54
44
35
53
28
63
50
8
12
45
42
31
14
46
15
7
49
21
38
27
57
36
23
5

>  <PUBCHEM_MMFF94_PARTIAL_CHARGES>  (1) 
30
1 -0.18
10 0.27
11 0.27
12 0.3
13 0.27
14 0.54
15 0.09
16 0.08
17 -0.15
18 -0.15
19 -0.15
2 -0.57
20 0.18
21 0.42
22 -0.29
23 -0.3
3 -0.36
39 0.37
4 -0.81
40 0.15
41 0.15
42 0.15
45 0.15
46 0.15
47 0.15
5 -0.81
6 -0.73
7 0.27
8 0.27
9 0.27

>  <PUBCHEM_EFFECTIVE_ROTOR_COUNT>  (1) 
9.2

>  <PUBCHEM_PHARMACOPHORE_FEATURES>  (1) 
8
1 2 acceptor
1 23 hydrophobe
1 3 acceptor
1 4 cation
1 5 cation
1 6 donor
6 15 16 17 18 19 20 rings
6 4 5 7 8 9 10 rings

>  <PUBCHEM_HEAVY_ATOM_COUNT>  (1) 
23

>  <PUBCHEM_ATOM_DEF_STEREO_COUNT>  (1) 
0

>  <PUBCHEM_ATOM_UDEF_STEREO_COUNT>  (1) 
0

>  <PUBCHEM_BOND_DEF_STEREO_COUNT>  (1) 
0

>  <PUBCHEM_BOND_UDEF_STEREO_COUNT>  (1) 
0

>  <PUBCHEM_ISOTOPIC_ATOM_COUNT>  (1) 
0

>  <PUBCHEM_COMPONENT_COUNT>  (1) 
1

>  <PUBCHEM_CACTVS_TAUTO_COUNT>  (1) 
2

>  <PUBCHEM_CONFORMER_ID>  (1) 
0000854D0000000D

>  <PUBCHEM_MMFF94_ENERGY>  (1) 
56.4665

>  <PUBCHEM_FEATURE_SELFOVERLAP>  (1) 
40.605

>  <PUBCHEM_SHAPE_FINGERPRINT>  (1) 
10087517 78 18334856116952578205
10411042 1 18050004695607133339
10595046 47 18335135384601071722
11089746 13 17968097573301005294
11101153 10 18263647431780382028
11315181 36 17749392615275690882
11796584 16 8718837492052038320
12107183 9 17828754050572587674
12236239 1 17967245421282174506
12390115 104 18199477571573464481
12403259 415 17988915691621809664
12596602 18 16805608126577005522
12788726 201 18335413565801966947
13073987 5 18334575720455757482
13540713 5 18117543043214000403
13914758 101 16588291774628614390
14123256 10 18343021133281867983
14251764 38 18335706095729461692
14251764 75 17979925908475999081
14790565 3 17621887487627008321
15419008 47 17988641938622036864
15537594 2 12535634851469060940
16087824 20 18411416178334158757
16126227 98 18198349464280843793
17980427 23 17822019691653841780
19427546 20 18408321078191135277
19489759 90 18409731785463057402
21033650 10 18192176852956031068
21065198 48 18187358797298441386
21315763 129 18411701023963618684
21315763 191 10447928373948701080
22950370 63 10807933761023235282
23035841 295 10015593796342428534
23522609 53 11815338303203175810
23557571 272 18272940405273466765
23559900 14 18199743811736426979
249057 25 17822014228982857676
283562 15 18410292489713163443
34797466 226 17775011232234750724
4325135 7 17703791465487807286
46194498 28 17774442801871755536
497634 4 17203338814215438139
5104073 3 17968944067577433410
5283173 99 18341895160624000752
5969126 39 18271515490571632567
6327066 14 18118679925305070749
6371009 1 18187082896978297516
7237137 82 18413105040129739145
7808743 9 18263923246206337921
9981440 41 18260275122227896035
999808 66 12247400154643364831

>  <PUBCHEM_SHAPE_MULTIPOLES>  (1) 
448.52
18.05
3.18
1.06
25.72
3.55
-0.1
3.47
-2.31
-8.1
-0.32
1.18
0.04
-0.21

>  <PUBCHEM_SHAPE_SELFOVERLAP>  (1) 
910.125

>  <PUBCHEM_SHAPE_VOLUME>  (1) 
262.2

>  <PUBCHEM_COORDINATE_TYPE>  (1) 
2
5
10

$$$$
