34128
     RDKit          3D

 32 35  0  0  0  0  0  0  0  0999 V2000
    2.4938    4.6856   -0.0012 S   0  0  0  0  0  0  0  0  0  0  0  0
    5.0566   -2.9187   -0.0033 S   0  0  0  0  0  0  0  0  0  0  0  0
    4.0049    4.0615   -0.0063 O   0  0  0  0  0  0  0  0  0  0  0  0
    5.8853   -1.5095   -0.0012 O   0  0  0  0  0  0  0  0  0  0  0  0
    2.3193    5.3859   -1.2652 O   0  0  0  0  0  0  0  0  0  0  0  0
    2.2947    5.3763    1.2633 O   0  0  0  0  0  0  0  0  0  0  0  0
    5.3430   -3.5816    1.2606 O   0  0  0  0  0  0  0  0  0  0  0  0
    5.3113   -3.5908   -1.2678 O   0  0  0  0  0  0  0  0  0  0  0  0
   -2.4678    0.2520    0.0067 N   0  0  0  0  0  0  0  0  0  0  0  0
   -1.5858   -2.3727    0.0012 N   0  0  0  0  0  0  0  0  0  0  0  0
   -2.9081   -2.1039    0.0022 N   0  0  0  0  0  0  0  0  0  0  0  0
   -5.4912   -1.6462   -0.0010 N   0  0  0  0  0  0  0  0  0  0  0  0
   -1.1617   -0.0508    0.0057 C   0  0  0  0  0  0  0  0  0  0  0  0
   -0.2774    1.0943    0.0041 C   0  0  0  0  0  0  0  0  0  0  0  0
   -0.7161   -1.3462    0.0028 C   0  0  0  0  0  0  0  0  0  0  0  0
    0.6761   -1.7251    0.0013 C   0  0  0  0  0  0  0  0  0  0  0  0
    0.1451    1.6476   -1.2046 C   0  0  0  0  0  0  0  0  0  0  0  0
    0.1523    1.6455    1.2112 C   0  0  0  0  0  0  0  0  0  0  0  0
    1.4269    3.3030    0.0008 C   0  0  0  0  0  0  0  0  0  0  0  0
    1.3537   -1.9116    1.2086 C   0  0  0  0  0  0  0  0  0  0  0  0
    1.3523   -1.9076   -1.2073 C   0  0  0  0  0  0  0  0  0  0  0  0
    3.3717   -2.4596   -0.0015 C   0  0  0  0  0  0  0  0  0  0  0  0
    0.9972    2.7519   -1.2063 C   0  0  0  0  0  0  0  0  0  0  0  0
    1.0044    2.7499    1.2096 C   0  0  0  0  0  0  0  0  0  0  0  0
    2.6995   -2.2783    1.2072 C   0  0  0  0  0  0  0  0  0  0  0  0
    2.6981   -2.2742   -1.2088 C   0  0  0  0  0  0  0  0  0  0  0  0
   -3.2864   -0.8106    0.0049 C   0  0  0  0  0  0  0  0  0  0  0  0
   -4.7002   -0.5472    0.0009 C   0  0  0  0  0  0  0  0  0  0  0  0
   -5.1890    0.7523   -0.0009 C   0  0  0  0  0  0  0  0  0  0  0  0
   -6.5676    0.9334   -0.0046 C   0  0  0  0  0  0  0  0  0  0  0  0
   -6.8259   -1.4309   -0.0047 C   0  0  0  0  0  0  0  0  0  0  0  0
   -7.4086   -0.1739   -0.0065 C   0  0  0  0  0  0  0  0  0  0  0  0
  1  3  1  0
  1  5  2  0
  1  6  2  0
  1 19  1  0
  2  4  1  0
  2  7  2  0
  2  8  2  0
  2 22  1  0
  9 13  2  0
  9 27  1  0
 10 11  1  0
 10 15  2  0
 11 27  2  0
 12 28  2  0
 12 31  1  0
 13 14  1  0
 13 15  1  0
 14 17  2  0
 14 18  1  0
 15 16  1  0
 16 20  2  0
 16 21  1  0
 17 23  1  0
 18 24  2  0
 19 23  2  0
 19 24  1  0
 20 25  1  0
 21 26  2  0
 22 25  2  0
 22 26  1  0
 27 28  1  0
 28 29  1  0
 29 30  2  0
 30 32  1  0
 31 32  2  0
M  END
>  <PUBCHEM_COMPOUND_CID>  (1) 
34128

>  <PUBCHEM_CONFORMER_RMSD>  (1) 
0.8

>  <PUBCHEM_CONFORMER_DIVERSEORDER>  (1) 
1
3
2
4

>  <PUBCHEM_MMFF94_PARTIAL_CHARGES>  (1) 
44
1 1.49
10 -0.31
11 -0.31
12 -0.62
13 0.31
15 0.31
17 -0.15
18 -0.15
19 -0.01
2 1.49
20 -0.15
21 -0.15
22 -0.01
23 -0.15
24 -0.15
25 -0.15
26 -0.15
27 0.62
28 0.31
29 -0.15
3 -0.68
30 -0.15
31 0.16
32 -0.15
33 0.15
34 0.15
35 0.15
36 0.15
37 0.15
38 0.15
39 0.15
4 -0.68
40 0.15
41 0.15
42 0.15
43 0.5
44 0.5
45 0.15
46 0.15
5 -0.65
6 -0.65
7 -0.65
8 -0.65
9 -0.62

>  <PUBCHEM_EFFECTIVE_ROTOR_COUNT>  (1) 
5

>  <PUBCHEM_PHARMACOPHORE_FEATURES>  (1) 
14
1 12 acceptor
1 3 acceptor
1 4 acceptor
1 5 acceptor
1 6 acceptor
1 7 acceptor
1 8 acceptor
3 9 11 27 cation
4 1 3 5 6 anion
4 2 4 7 8 anion
6 12 28 29 30 31 32 rings
6 14 17 18 19 23 24 rings
6 16 20 21 22 25 26 rings
6 9 10 11 13 15 27 rings

>  <PUBCHEM_HEAVY_ATOM_COUNT>  (1) 
32

>  <PUBCHEM_ATOM_DEF_STEREO_COUNT>  (1) 
0

>  <PUBCHEM_ATOM_UDEF_STEREO_COUNT>  (1) 
0

>  <PUBCHEM_BOND_DEF_STEREO_COUNT>  (1) 
0

>  <PUBCHEM_BOND_UDEF_STEREO_COUNT>  (1) 
0

>  <PUBCHEM_ISOTOPIC_ATOM_COUNT>  (1) 
0

>  <PUBCHEM_COMPONENT_COUNT>  (1) 
1

>  <PUBCHEM_CACTVS_TAUTO_COUNT>  (1) 
1

>  <PUBCHEM_CONFORMER_ID>  (1) 
0000855000000001

>  <PUBCHEM_MMFF94_ENERGY>  (1) 
83.9834

>  <PUBCHEM_FEATURE_SELFOVERLAP>  (1) 
71.164

>  <PUBCHEM_SHAPE_FINGERPRINT>  (1) 
10032420 55 17459184084804223555
10050765 1 18338516478042270763
102385 1 18121782991578563739
10411042 1 18266741290339830914
10675989 125 18197508526083596528
10721379 63 18340219577664662381
11049842 53 17608103279457837908
11331351 85 17916864599984902303
11421498 54 17533494539212585931
11763715 3 17977409156434931102
11963148 33 17763458814192876559
12058002 1 17487370108132201723
12166972 35 18343019969973264235
12236239 1 17749957643798910123
12516196 113 18339360751952228175
12549972 3 17750532813466331411
12741549 16 17488451980429274202
12788726 201 17827356583719799634
12977781 61 17679318600465354323
13540713 5 18057878233954136687
13590594 115 18264778666611359545
13617811 41 18198917924234155646
140371 6 18200888270772474859
14068700 675 18200873972714940529
14394314 77 18192994816471904907
14400156 266 17987534614491128677
14415361 192 17313928737899646844
14849402 71 18409455803828691497
14937079 2 18410576171817299537
14955137 171 18342457006860744439
15131766 46 15839259421937006330
15198563 99 18051416167182060412
15400415 2 17690279734857203624
15439362 3 18264487458790310953
15664445 248 18341905038774949334
15775530 1 17680732585335438507
15849732 13 17988637455272401895
15927050 60 18052820544141627678
15961568 22 18411983543086666486
167882 2 18338801242251072129
17980427 23 17917158178480081617
17980427 26 18054779843660462444
18681886 176 18341605998131136187
20238998 120 18340485543604196292
20554085 129 17772182274331454881
21033648 29 17129840757314555019
21049683 271 18259992564903024005
21133665 82 17907304596408326796
21304253 13 18339641131727381537
21304303 172 18056766425328050705
21781055 127 16701482104106850171
21927370 108 18195543505594016602
23559900 14 18410288125799524347
24771750 20 18265062516161244028
249999 5 18338236101853949417
283562 15 17974857163887129586
3298306 158 18053391182249974124
3411729 13 18337386170759900377
3534868 343 18118134576180493158
469060 322 18124605175674889442
5104073 3 18337400422521789571
5171179 24 18335127671114121405
5385378 56 18267027339662414457
6371380 46 18052824942700458596
6700243 42 17483702021847031366
67856867 119 18411981399623347751
7399639 24 17771900537699608870
9962374 69 18342168995682742583
9981440 41 17832144192802341635

>  <PUBCHEM_SHAPE_MULTIPOLES>  (1) 
611.1
14
6.81
1.14
21.54
10.75
0
-10.8
0.03
-13.62
0.01
-1.13
0.18
0

>  <PUBCHEM_SHAPE_SELFOVERLAP>  (1) 
1330.012

>  <PUBCHEM_SHAPE_VOLUME>  (1) 
334

>  <PUBCHEM_COORDINATE_TYPE>  (1) 
2
5
10

$$$$
