34137
     RDKit          3D

 21 22  0  0  1  0  0  0  0  0999 V2000
    0.5767   -0.2070   -0.3729 O   0  0  0  0  0  0  0  0  0  0  0  0
    1.7526    1.5270   -1.3266 O   0  0  0  0  0  0  0  0  0  0  0  0
    4.0582    1.8885    0.0645 O   0  0  0  0  0  0  0  0  0  0  0  0
   -3.0674    0.0772   -0.8089 N   0  0  0  0  0  0  0  0  0  0  0  0
   -4.2092   -0.7339   -0.3805 C   0  0  0  0  0  0  0  0  0  0  0  0
   -4.2172   -0.8744    1.1476 C   0  0  0  0  0  0  0  0  0  0  0  0
   -5.5205   -0.1071   -0.8726 C   0  0  0  0  0  0  0  0  0  0  0  0
   -4.5478    0.4363    1.8625 C   0  0  0  0  0  0  0  0  0  0  0  0
   -5.8538    1.2057   -0.1625 C   0  0  0  0  0  0  0  0  0  0  0  0
   -5.8551    1.0389    1.3547 C   0  0  0  0  0  0  0  0  0  0  0  0
   -1.8151   -0.5323   -0.3887 C   0  0  0  0  0  0  0  0  0  0  0  0
   -0.6490    0.3548   -0.8260 C   0  0  0  0  0  0  0  0  0  0  0  0
   -1.7001   -1.9445   -0.9631 C   0  0  0  0  0  0  0  0  0  0  0  0
    1.7051    0.4838   -0.6936 C   0  0  0  0  0  0  0  0  0  0  0  0
    2.9105   -0.2046   -0.1667 C   0  0  0  0  0  0  0  0  0  0  0  0
    4.0240    0.5314    0.1854 C   0  0  0  0  0  0  0  0  0  0  0  0
    2.8729   -1.5801   -0.0459 C   0  0  0  0  0  0  0  0  0  0  0  0
    5.1462   -0.1344    0.6784 C   0  0  0  0  0  0  0  0  0  0  0  0
    3.9952   -2.2459    0.4470 C   0  0  0  0  0  0  0  0  0  0  0  0
    5.1319   -1.5231    0.8090 C   0  0  0  0  0  0  0  0  0  0  0  0
    5.2620    2.5435    0.4589 C   0  0  0  0  0  0  0  0  0  0  0  0
  1 12  1  0
  1 14  1  0
  2 14  2  0
  3 16  1  0
  3 21  1  0
  4  5  1  0
  4 11  1  0
  5  6  1  0
  5  7  1  0
  6  8  1  0
  7  9  1  0
  8 10  1  0
  9 10  1  0
 11 12  1  0
 11 13  1  0
 14 15  1  0
 15 16  2  0
 15 17  1  0
 16 18  1  0
 17 19  2  0
 18 20  2  0
 19 20  1  0
M  END
>  <PUBCHEM_COMPOUND_CID>  (1) 
34137

>  <PUBCHEM_CONFORMER_RMSD>  (1) 
0.8

>  <PUBCHEM_CONFORMER_DIVERSEORDER>  (1) 
352
319
152
262
158
381
95
361
28
355
36
368
151
120
285
394
367
195
78
299
178
167
342
113
222
311
329
173
337
14
382
392
327
310
91
80
124
205
176
213
302
400
395
157
226
129
16
130
77
314
216
233
9
386
3
86
397
360
199
351
107
126
132
200
70
144
146
87
283
240
115
108
369
174
119
316
265
215
184
96
270
390
308
246
154
10
1
259
324
254
121
17
35
46
123
225
116
398
88
181
312
363
204
164
52
5
267
331
109
104
136
245
296
248
47
105
8
330
81
60
303
335
65
161
192
57
328
304
156
56
323
197
401
295
354
321
348
277
298
334
193
286
210
63
191
258
357
75
42
196
41
153
268
76
253
100
291
276
94
138
343
163
187
54
137
102
373
364
294
252
26
243
377
297
122
12
103
293
32
353
135
175
347
393
320
110
341
383
101
236
165
232
168
22
172
15
273
325
388
99
198
112
356
326
234
6
344
72
235
118
180
338
4
231
255
188
272
257
185
340
177
29
148
313
133
85
131
114
238
39
318
239
30
155
2
69
306
307
169
275
66
230
229
260
160
301
31
25
13
219
201
370
223
206
379
300
92
51
224
45
24
82
362
166
147
62
183
18
287
281
159
142
48
23
358
251
11
374
384
59
345
228
274
189
376
7
280
145
143
249
134
37
209
150
305
49
93
33
186
278
333
40
279
67
317
162
50
179
90
44
212
264
38
170
211
20
139
21
55
218
237
261
125
350
68
190
83
380
315
182
127
391
73
217
242
221
266
97
284
111
256
58
387
79
292
271
27
378
194
64
289
141
309
61
19
336
53
372
250
322
349
375
220
202
269
89
290
385
207
339
214
34
117
71
149
208
396
74
244
203
171
241
282
227
84
106
359
366
98
288
263
389
140
346
43
128
402
247
365
399
371
332

>  <PUBCHEM_MMFF94_PARTIAL_CHARGES>  (1) 
20
1 -0.43
11 0.27
12 0.28
14 0.63
15 0.09
16 0.08
17 -0.15
18 -0.15
19 -0.15
2 -0.57
20 -0.15
21 0.28
3 -0.36
33 0.36
4 -0.9
40 0.15
41 0.15
42 0.15
43 0.15
5 0.27

>  <PUBCHEM_EFFECTIVE_ROTOR_COUNT>  (1) 
8.2

>  <PUBCHEM_PHARMACOPHORE_FEATURES>  (1) 
6
1 2 acceptor
1 3 acceptor
1 4 cation
1 4 donor
6 15 16 17 18 19 20 rings
6 5 6 7 8 9 10 rings

>  <PUBCHEM_HEAVY_ATOM_COUNT>  (1) 
21

>  <PUBCHEM_ATOM_DEF_STEREO_COUNT>  (1) 
0

>  <PUBCHEM_ATOM_UDEF_STEREO_COUNT>  (1) 
1

>  <PUBCHEM_BOND_DEF_STEREO_COUNT>  (1) 
0

>  <PUBCHEM_BOND_UDEF_STEREO_COUNT>  (1) 
0

>  <PUBCHEM_ISOTOPIC_ATOM_COUNT>  (1) 
0

>  <PUBCHEM_COMPONENT_COUNT>  (1) 
1

>  <PUBCHEM_CACTVS_TAUTO_COUNT>  (1) 
1

>  <PUBCHEM_CONFORMER_ID>  (1) 
0000855900000160

>  <PUBCHEM_MMFF94_ENERGY>  (1) 
48.506

>  <PUBCHEM_FEATURE_SELFOVERLAP>  (1) 
30.452

>  <PUBCHEM_SHAPE_FINGERPRINT>  (1) 
10670039 82 15625959637482681048
10912923 1 18059852887405527559
11089746 13 17489582385555829552
11128504 68 8214135257448362035
11545043 162 16443069404872897493
12107183 9 17766563447574161611
12236239 1 18201997737590766895
12596602 18 18411421734850747915
12788726 201 17346891034714898856
13073987 5 18340206388278947723
13167372 99 18272088253787132521
13533116 47 18335983082443638450
13675066 3 17967811660752808943
13785724 45 17840593591744088798
13914758 101 18187077318627877197
14251758 9 18334580096947960031
14251764 18 18412826898226796991
14252887 29 17967248706963303972
14341114 176 18041002821383092141
14347332 77 8141823684677052962
14528608 73 11095880458436836771
146900 427 18341330089294488368
15238133 3 17346880040094252458
15348495 7 18114186362609283721
15475509 35 16444166662080622696
15475509 84 18199465476951230200
17844677 252 18334294236451262429
1813 80 16443063898091802590
19141452 34 18334571360763447127
19489759 90 16415476043771708887
20281389 69 18410292493723287421
20511986 3 18130772473844320859
21065198 48 18271523190630589311
21315763 191 12396293764519407209
22950370 63 11891336452504204495
23035841 295 12901551226408691393
23081809 10 18131345328176904413
23402539 116 17704064089048325101
23503953 91 18201429290432855258
23559900 14 16225772938622704151
239999 70 17313104151243762842
2767999 5 17275102808647061281
300161 21 18131345336571698982
312425 54 17822013112074933793
314173 85 16732980929702407405
341906 21 16630531712996291923
34797466 226 13254789174847841531
351380 3 12757154580203645891
5104073 3 18336262435247796746
542803 24 17704355489193335685
5924683 9 18261673796330737179
9841814 1 15864069914364679652
9995097 60 18187921729797401117

>  <PUBCHEM_SHAPE_MULTIPOLES>  (1) 
409.58
16.45
2.07
1.26
7.38
0.25
-0.3
3.73
-5.02
-3.07
-0.1
1.42
0.09
-1.02

>  <PUBCHEM_SHAPE_SELFOVERLAP>  (1) 
842.038

>  <PUBCHEM_SHAPE_VOLUME>  (1) 
234.2

>  <PUBCHEM_COORDINATE_TYPE>  (1) 
2
5
10

$$$$
