34139
     RDKit          3D

 22 23  0  0  1  0  0  0  0  0999 V2000
    0.0654   -0.8348   -0.0462 O   0  0  0  0  0  0  0  0  0  0  0  0
    1.0561   -2.8379    0.5065 O   0  0  0  0  0  0  0  0  0  0  0  0
    5.9695    1.0682   -0.4991 O   0  0  0  0  0  0  0  0  0  0  0  0
   -3.6127   -0.9583   -0.0019 N   0  0  0  0  0  0  0  0  0  0  0  0
   -4.6651    0.0256   -0.2480 C   0  0  0  0  0  0  0  0  0  0  0  0
   -4.4800    1.2301    0.6815 C   0  0  0  0  0  0  0  0  0  0  0  0
   -6.0401   -0.6212   -0.0475 C   0  0  0  0  0  0  0  0  0  0  0  0
   -5.6067    2.2466    0.5060 C   0  0  0  0  0  0  0  0  0  0  0  0
   -7.1652    0.3975   -0.2215 C   0  0  0  0  0  0  0  0  0  0  0  0
   -6.9784    1.6044    0.6938 C   0  0  0  0  0  0  0  0  0  0  0  0
   -2.2979   -0.3668   -0.1969 C   0  0  0  0  0  0  0  0  0  0  0  0
   -1.2249   -1.4156    0.0982 C   0  0  0  0  0  0  0  0  0  0  0  0
   -2.1765    0.1862   -1.6171 C   0  0  0  0  0  0  0  0  0  0  0  0
    1.1220   -1.6607    0.1882 C   0  0  0  0  0  0  0  0  0  0  0  0
    2.4055   -0.9369    0.0066 C   0  0  0  0  0  0  0  0  0  0  0  0
    3.5008   -1.3257    0.7503 C   0  0  0  0  0  0  0  0  0  0  0  0
    2.4641    0.1015   -0.9005 C   0  0  0  0  0  0  0  0  0  0  0  0
    4.7073   -0.6465    0.5796 C   0  0  0  0  0  0  0  0  0  0  0  0
    3.6705    0.7806   -1.0712 C   0  0  0  0  0  0  0  0  0  0  0  0
    4.7921    0.4066   -0.3311 C   0  0  0  0  0  0  0  0  0  0  0  0
    6.8394    1.1423    0.6295 C   0  0  0  0  0  0  0  0  0  0  0  0
    7.6547    2.4148    0.5408 C   0  0  0  0  0  0  0  0  0  0  0  0
  1 12  1  0
  1 14  1  0
  2 14  2  0
  3 20  1  0
  3 21  1  0
  4  5  1  0
  4 11  1  0
  5  6  1  0
  5  7  1  0
  6  8  1  0
  7  9  1  0
  8 10  1  0
  9 10  1  0
 11 12  1  0
 11 13  1  0
 14 15  1  0
 15 16  2  0
 15 17  1  0
 16 18  1  0
 17 19  2  0
 18 20  2  0
 19 20  1  0
 21 22  1  0
M  END
>  <PUBCHEM_COMPOUND_CID>  (1) 
34139

>  <PUBCHEM_CONFORMER_RMSD>  (1) 
1

>  <PUBCHEM_CONFORMER_DIVERSEORDER>  (1) 
1
19
10
6
38
54
63
11
48
21
28
9
36
67
58
33
8
46
62
25
34
56
20
50
70
43
51
44
59
23
60
65
71
30
17
18
2
5
57
31
69
14
37
47
4
55
32
15
12
24
3
27
45
53
61
68
16
40
29
72
66
49
7
26
42
22
64
35
39
41
13
52

>  <PUBCHEM_MMFF94_PARTIAL_CHARGES>  (1) 
20
1 -0.43
11 0.27
12 0.28
14 0.63
15 0.09
16 -0.15
17 -0.15
18 -0.15
19 -0.15
2 -0.57
20 0.08
21 0.28
3 -0.36
34 0.36
4 -0.9
41 0.15
42 0.15
43 0.15
44 0.15
5 0.27

>  <PUBCHEM_EFFECTIVE_ROTOR_COUNT>  (1) 
9.2

>  <PUBCHEM_PHARMACOPHORE_FEATURES>  (1) 
6
1 2 acceptor
1 3 acceptor
1 4 cation
1 4 donor
6 15 16 17 18 19 20 rings
6 5 6 7 8 9 10 rings

>  <PUBCHEM_HEAVY_ATOM_COUNT>  (1) 
22

>  <PUBCHEM_ATOM_DEF_STEREO_COUNT>  (1) 
0

>  <PUBCHEM_ATOM_UDEF_STEREO_COUNT>  (1) 
1

>  <PUBCHEM_BOND_DEF_STEREO_COUNT>  (1) 
0

>  <PUBCHEM_BOND_UDEF_STEREO_COUNT>  (1) 
0

>  <PUBCHEM_ISOTOPIC_ATOM_COUNT>  (1) 
0

>  <PUBCHEM_COMPONENT_COUNT>  (1) 
1

>  <PUBCHEM_CACTVS_TAUTO_COUNT>  (1) 
1

>  <PUBCHEM_CONFORMER_ID>  (1) 
0000855B00000001

>  <PUBCHEM_MMFF94_ENERGY>  (1) 
43.9294

>  <PUBCHEM_FEATURE_SELFOVERLAP>  (1) 
30.446

>  <PUBCHEM_SHAPE_FINGERPRINT>  (1) 
10 15 16660363705852821940
10354089 29 17748828514508398182
10595046 47 18411980227044976691
106641 1 18113905975061126051
10670039 82 16271654382086767073
10688039 33 16660362549989804789
10693767 8 11095626472164223724
11315181 36 18411698795434189645
11524674 6 14345799353412577425
11724838 91 18113617923614233463
12107183 9 17401205574251897555
12236239 1 18342174440946392983
12555020 224 11815889055549124773
12596602 18 18342459210220691275
12760667 363 10159702408306636519
12895836 83 17703787041771615527
12895837 130 18057884834733028812
13167372 99 18337110055839006425
13533116 47 16733260132372867666
13631057 29 18336826515901677827
13685833 64 8142086459603475318
13862211 1 9007057971907880178
14123256 34 9727633916513788908
14251764 18 18186801400162447709
14341114 176 17240202101673101918
14394314 77 18341337699935229033
14849402 71 18337672026456274168
15048467 5 18411419497314944451
15183329 4 11312055427158498765
15188451 53 12612755722348859997
15348495 7 15430333459322066469
15475509 35 15286187386563576266
1577012 14 18412542094212770367
1768 124 12107780813890394480
18222031 100 9943807781508003214
20281389 69 18334857194999697852
20526848 3 18412546522186967440
20554085 129 17846767530354934474
20621476 66 18411139169084030372
21033648 29 18269544096282539632
21130935 74 18187364307277824003
21150785 3 16773795909543175973
21298829 104 18410859862654951680
21304304 249 8214144062184463320
21424621 283 18341611538379744666
21585482 111 18263362503639799285
221357 26 12319738050773644042
2215653 11 12607398884661040543
22224240 67 18113615702905047331
22956985 138 11676528100012806488
23559900 14 11023239032763361727
3014063 24 8142086455256052976
33532 11 8142096355546294168
3472631 163 18201721781921221420
34797466 226 17489875946839536621
351380 3 9223227434228189465
4073 2 18333735740374120195
4340502 62 16226043397382970506
465052 167 8142078775775192250
5104073 3 16951394430303327704
5385378 56 18187642480104827866
543368 44 18341894083130437233
559249 180 8214141850987851169
5718773 13 8574713494455062952
5758199 1 18334858329103029642
5937810 71 17060069129059416785
59682541 35 17676490587564884681
636775 72 18341893030189087416
960060 61 12247669487420812795

>  <PUBCHEM_SHAPE_MULTIPOLES>  (1) 
430.16
21.97
2.19
0.98
1.38
0.16
0.22
16.36
-3.47
-1.1
-0.63
-0.18
0.12
-0.74

>  <PUBCHEM_SHAPE_SELFOVERLAP>  (1) 
877.756

>  <PUBCHEM_SHAPE_VOLUME>  (1) 
248.4

>  <PUBCHEM_COORDINATE_TYPE>  (1) 
2
5
10

$$$$
