34134
     RDKit          3D

 10  9  0  0  0  0  0  0  0  0999 V2000
   -2.4600    2.1494   -0.1625 O   0  0  0  0  0  0  0  0  0  0  0  0
    0.8685   -2.1532    0.1230 C   0  0  0  0  0  0  0  0  0  0  0  0
   -0.6132   -2.1833   -0.2679 C   0  0  0  0  0  0  0  0  0  0  0  0
    1.5765   -0.9214   -0.3682 C   0  0  0  0  0  0  0  0  0  0  0  0
    2.9168    1.1738   -0.0543 C   0  0  0  0  0  0  0  0  0  0  0  0
   -1.4102   -1.0808    0.3702 C   0  0  0  0  0  0  0  0  0  0  0  0
    2.2202   -0.0614    0.4349 C   0  0  0  0  0  0  0  0  0  0  0  0
   -2.1398   -0.1924   -0.3207 C   0  0  0  0  0  0  0  0  0  0  0  0
    1.9781    2.3702   -0.0693 C   0  0  0  0  0  0  0  0  0  0  0  0
   -2.9369    0.8991    0.3148 C   0  0  0  0  0  0  0  0  0  0  0  0
  1 10  1  0
  2  3  1  0
  2  4  1  0
  3  6  1  0
  4  7  2  0
  5  7  1  0
  5  9  1  0
  6  8  2  0
  8 10  1  0
M  END
>  <PUBCHEM_COMPOUND_CID>  (1) 
34134

>  <PUBCHEM_CONFORMER_RMSD>  (1) 
0.6

>  <PUBCHEM_CONFORMER_DIVERSEORDER>  (1) 
1
6
72
29
51
47
62
25
7
21
10
86
63
54
18
28
80
37
23
20
33
67
2
24
70
34
71
48
75
12
49
84
27
15
3
43
58
68
81
30
79
36
73
57
85
61
32
19
77
4
64
22
38
66
59
76
44
16
41
56
50
60
52
53
45
13
46
87
8
55
82
14
5
9
69
83
26
39
42
17
78
65
11
31
74
35
40

>  <PUBCHEM_MMFF94_PARTIAL_CHARGES>  (1) 
14
1 -0.68
10 0.42
15 0.15
18 0.15
19 0.15
2 0.14
20 0.15
26 0.4
3 0.14
4 -0.29
5 0.14
6 -0.29
7 -0.29
8 -0.29

>  <PUBCHEM_EFFECTIVE_ROTOR_COUNT>  (1) 
5

>  <PUBCHEM_PHARMACOPHORE_FEATURES>  (1) 
4
1 1 acceptor
1 1 donor
1 9 hydrophobe
4 2 3 4 6 hydrophobe

>  <PUBCHEM_HEAVY_ATOM_COUNT>  (1) 
10

>  <PUBCHEM_ATOM_DEF_STEREO_COUNT>  (1) 
0

>  <PUBCHEM_ATOM_UDEF_STEREO_COUNT>  (1) 
0

>  <PUBCHEM_BOND_DEF_STEREO_COUNT>  (1) 
0

>  <PUBCHEM_BOND_UDEF_STEREO_COUNT>  (1) 
2

>  <PUBCHEM_ISOTOPIC_ATOM_COUNT>  (1) 
0

>  <PUBCHEM_COMPONENT_COUNT>  (1) 
1

>  <PUBCHEM_CACTVS_TAUTO_COUNT>  (1) 
1

>  <PUBCHEM_CONFORMER_ID>  (1) 
0000855600000001

>  <PUBCHEM_MMFF94_ENERGY>  (1) 
0.0906

>  <PUBCHEM_FEATURE_SELFOVERLAP>  (1) 
20.297

>  <PUBCHEM_SHAPE_FINGERPRINT>  (1) 
10149128 76 18411699889390197338
13618510 140 18410575080384364700
15775835 57 18410299141657207424
19973954 147 18338518659083323182
20304884 271 18339926020854932961
20605781 55 18412257376161204864
20606313 2 17834390125506129181
20653085 51 18340779216303936410
20671657 1 18411139095774401598
21524375 3 18412542141088431266
59345606 82 18268428125528201760
66348 1 17691124833748112520
8050 44 18336538335673305429

>  <PUBCHEM_SHAPE_MULTIPOLES>  (1) 
199.93
4.78
2.91
0.69
0.09
0.36
-0.01
3.2
-0.14
0.09
0.14
0
-0.05
-0.06

>  <PUBCHEM_SHAPE_SELFOVERLAP>  (1) 
361.808

>  <PUBCHEM_SHAPE_VOLUME>  (1) 
128

>  <PUBCHEM_COORDINATE_TYPE>  (1) 
2
5
10

$$$$
