34146
     RDKit          3D

 11 10  0  0  0  0  0  0  0  0999 V2000
   -2.2746   -1.0268    1.1076 O   0  0  0  0  0  0  0  0  0  0  0  0
    2.4233   -0.5711    1.1931 O   0  0  0  0  0  0  0  0  0  0  0  0
   -2.5582   -0.1334   -0.9725 O   0  0  0  0  0  0  0  0  0  0  0  0
    2.5964    0.4925   -0.8181 O   0  0  0  0  0  0  0  0  0  0  0  0
   -0.3473    1.5551    0.7339 C   0  0  0  0  0  0  0  0  0  0  0  0
   -0.4783    0.1446    0.2062 C   0  0  0  0  0  0  0  0  0  0  0  0
    0.5563   -0.6272   -0.1917 C   0  0  0  0  0  0  0  0  0  0  0  0
   -0.4248    2.6069   -0.3649 C   0  0  0  0  0  0  0  0  0  0  0  0
    0.4238   -1.9462   -0.9024 C   0  0  0  0  0  0  0  0  0  0  0  0
   -1.8728   -0.3358    0.0171 C   0  0  0  0  0  0  0  0  0  0  0  0
    1.9564   -0.1585   -0.0082 C   0  0  0  0  0  0  0  0  0  0  0  0
  1 10  1  0
  2 11  1  0
  3 10  2  0
  4 11  2  0
  5  6  1  0
  5  8  1  0
  6  7  2  0
  6 10  1  0
  7  9  1  0
  7 11  1  0
M  END
>  <PUBCHEM_COMPOUND_CID>  (1) 
34146

>  <PUBCHEM_CONFORMER_RMSD>  (1) 
0.6

>  <PUBCHEM_CONFORMER_DIVERSEORDER>  (1) 
2
3
4
5
1

>  <PUBCHEM_MMFF94_PARTIAL_CHARGES>  (1) 
12
1 -0.65
10 0.71
11 0.71
2 -0.65
20 0.5
21 0.5
3 -0.57
4 -0.57
5 0.14
6 -0.12
7 -0.12
9 0.14

>  <PUBCHEM_EFFECTIVE_ROTOR_COUNT>  (1) 
3

>  <PUBCHEM_PHARMACOPHORE_FEATURES>  (1) 
8
1 1 acceptor
1 2 acceptor
1 3 acceptor
1 4 acceptor
1 8 hydrophobe
1 9 hydrophobe
3 1 3 10 anion
3 2 4 11 anion

>  <PUBCHEM_HEAVY_ATOM_COUNT>  (1) 
11

>  <PUBCHEM_ATOM_DEF_STEREO_COUNT>  (1) 
0

>  <PUBCHEM_ATOM_UDEF_STEREO_COUNT>  (1) 
0

>  <PUBCHEM_BOND_DEF_STEREO_COUNT>  (1) 
0

>  <PUBCHEM_BOND_UDEF_STEREO_COUNT>  (1) 
1

>  <PUBCHEM_ISOTOPIC_ATOM_COUNT>  (1) 
0

>  <PUBCHEM_COMPONENT_COUNT>  (1) 
1

>  <PUBCHEM_CACTVS_TAUTO_COUNT>  (1) 
1

>  <PUBCHEM_CONFORMER_ID>  (1) 
0000856200000002

>  <PUBCHEM_MMFF94_ENERGY>  (1) 
24.6016

>  <PUBCHEM_FEATURE_SELFOVERLAP>  (1) 
40.708

>  <PUBCHEM_SHAPE_FINGERPRINT>  (1) 
100427 49 18340771549629135457
10857977 72 18342458179012016819
12524768 44 18129382768656624900
12897270 3 18341336612790297436
13380536 237 17693354664925092706
14128692 85 17344051125451215575
16945 1 18131633412876454146
17775402 16 18335423525155970820
20653085 51 15647616640409881765
20711978 78 16413795869159658342
21922407 69 17604446093356291320
23552423 10 18122633755557982614
2748010 2 18197774612101768789
29004967 10 18412834594170095883
369184 2 17167865253008589459
5084963 1 17917152697896213374
528862 383 17905896125283855857

>  <PUBCHEM_SHAPE_MULTIPOLES>  (1) 
202.9
3.2
2.07
1.04
0.5
1.06
0.11
-0.62
0.12
-0.43
-0.39
0.01
-0.13
0.1

>  <PUBCHEM_SHAPE_SELFOVERLAP>  (1) 
396.15

>  <PUBCHEM_SHAPE_VOLUME>  (1) 
122.2

>  <PUBCHEM_COORDINATE_TYPE>  (1) 
2
5
10

$$$$
