34150
     RDKit          3D

 39 45  0  0  1  0  0  0  0  0999 V2000
    2.8879   -0.4811    0.4241 O   0  0  0  0  0  0  0  0  0  0  0  0
    1.2529   -2.0405    1.8512 O   0  0  0  0  0  0  0  0  0  0  0  0
   -0.4854   -0.1844    2.5404 O   0  0  0  0  0  0  0  0  0  0  0  0
    4.8467   -1.6396   -0.3024 O   0  0  0  0  0  0  0  0  0  0  0  0
   -3.0137   -1.3852    2.0690 O   0  0  0  0  0  0  0  0  0  0  0  0
    5.4683    0.8291    0.8342 O   0  0  0  0  0  0  0  0  0  0  0  0
   -1.9082   -2.7210   -1.1724 O   0  0  0  0  0  0  0  0  0  0  0  0
   -3.8342   -0.9172   -1.4950 O   0  0  0  0  0  0  0  0  0  0  0  0
    6.3333    2.8980    0.2792 O   0  0  0  0  0  0  0  0  0  0  0  0
   -3.6432    1.4830    0.1758 N   0  0  0  0  0  0  0  0  0  0  0  0
    1.6604   -0.2067   -0.3207 C   0  0  0  0  0  0  0  0  0  0  0  0
    2.1539    0.3772   -1.6651 C   0  0  0  0  0  0  0  0  0  0  0  0
    0.9208   -1.5553   -0.5079 C   0  0  0  0  0  0  0  0  0  0  0  0
    0.2471   -1.7692    0.8622 C   0  0  0  0  0  0  0  0  0  0  0  0
   -0.3501   -0.3611    1.1304 C   0  0  0  0  0  0  0  0  0  0  0  0
    3.2876   -0.6417   -1.8926 C   0  0  0  0  0  0  0  0  0  0  0  0
    0.7239    0.6263    0.5652 C   0  0  0  0  0  0  0  0  0  0  0  0
   -1.7405   -0.1351    0.4338 C   0  0  0  0  0  0  0  0  0  0  0  0
    3.9829   -0.5347   -0.5207 C   0  0  0  0  0  0  0  0  0  0  0  0
    1.8714   -2.6354   -1.0250 C   0  0  0  0  0  0  0  0  0  0  0  0
    2.7630   -2.0829   -2.1533 C   0  0  0  0  0  0  0  0  0  0  0  0
   -2.7435   -1.3054    0.6594 C   0  0  0  0  0  0  0  0  0  0  0  0
   -0.7708   -2.9073    0.9503 C   0  0  0  0  0  0  0  0  0  0  0  0
    2.7575    1.8112   -1.5458 C   0  0  0  0  0  0  0  0  0  0  0  0
   -2.0974   -2.6512    0.2346 C   0  0  0  0  0  0  0  0  0  0  0  0
    4.7619    0.7841   -0.4054 C   0  0  0  0  0  0  0  0  0  0  0  0
    1.1119    0.4376   -2.7924 C   0  0  0  0  0  0  0  0  0  0  0  0
    3.8229    1.9829   -0.4695 C   0  0  0  0  0  0  0  0  0  0  0  0
   -4.0939   -0.9771   -0.0844 C   0  0  0  0  0  0  0  0  0  0  0  0
   -2.3935    1.1896    0.8944 C   0  0  0  0  0  0  0  0  0  0  0  0
   -4.6559    0.4182    0.3747 C   0  0  0  0  0  0  0  0  0  0  0  0
   -5.1447   -2.0848    0.1399 C   0  0  0  0  0  0  0  0  0  0  0  0
   -5.9676    0.7939   -0.3616 C   0  0  0  0  0  0  0  0  0  0  0  0
   -4.1388    2.8026    0.6104 C   0  0  0  0  0  0  0  0  0  0  0  0
   -5.3993    3.2444   -0.1414 C   0  0  0  0  0  0  0  0  0  0  0  0
   -6.4822    2.1794    0.0189 C   0  0  0  0  0  0  0  0  0  0  0  0
    6.2176    1.9501    1.0441 C   0  0  0  0  0  0  0  0  0  0  0  0
   -5.1066    3.5504   -1.6133 C   0  0  0  0  0  0  0  0  0  0  0  0
    6.8975    1.8591    2.3767 C   0  0  0  0  0  0  0  0  0  0  0  0
  1 11  1  0
  1 19  1  0
  2 14  1  0
  3 15  1  0
  4 19  1  0
  5 22  1  0
  6 26  1  0
  6 37  1  0
  7 25  1  0
  8 29  1  0
  9 37  2  0
 10 30  1  0
 10 31  1  0
 10 34  1  0
 11 12  1  0
 11 13  1  0
 11 17  1  0
 12 16  1  0
 12 24  1  0
 12 27  1  0
 13 14  1  0
 13 20  1  0
 14 15  1  0
 14 23  1  0
 15 17  1  0
 15 18  1  0
 16 19  1  0
 16 21  1  0
 18 22  1  0
 18 30  1  0
 19 26  1  0
 20 21  1  0
 22 25  1  0
 22 29  1  0
 23 25  1  0
 24 28  1  0
 26 28  1  0
 29 31  1  0
 29 32  1  0
 31 33  1  0
 33 36  1  0
 34 35  1  0
 35 36  1  0
 35 38  1  0
 37 39  1  0
M  END
>  <PUBCHEM_COMPOUND_CID>  (1) 
34150

>  <PUBCHEM_CONFORMER_RMSD>  (1) 
0.8

>  <PUBCHEM_CONFORMER_DIVERSEORDER>  (1) 
1
6
2
5
7
4
3

>  <PUBCHEM_MMFF94_PARTIAL_CHARGES>  (1) 
29
1 -0.56
10 -0.81
11 0.28
14 0.28
15 0.28
19 0.56
2 -0.68
22 0.28
25 0.28
26 0.28
29 0.28
3 -0.68
30 0.27
31 0.27
34 0.27
37 0.66
39 0.06
4 -0.68
5 -0.68
6 -0.43
63 0.4
64 0.4
65 0.4
66 0.4
7 -0.68
74 0.4
75 0.4
8 -0.68
9 -0.57

>  <PUBCHEM_EFFECTIVE_ROTOR_COUNT>  (1) 
5

>  <PUBCHEM_PHARMACOPHORE_FEATURES>  (1) 
21
1 1 acceptor
1 10 cation
1 2 acceptor
1 2 donor
1 3 acceptor
1 3 donor
1 4 acceptor
1 4 donor
1 5 acceptor
1 5 donor
1 7 acceptor
1 7 donor
1 8 acceptor
1 8 donor
1 9 acceptor
5 11 13 14 15 17 rings
6 10 18 22 29 30 31 rings
6 10 31 33 34 35 36 rings
6 14 15 18 22 23 25 rings
8 1 11 12 13 16 19 20 21 rings
8 1 11 12 16 19 24 26 28 rings

>  <PUBCHEM_HEAVY_ATOM_COUNT>  (1) 
39

>  <PUBCHEM_ATOM_DEF_STEREO_COUNT>  (1) 
11

>  <PUBCHEM_ATOM_UDEF_STEREO_COUNT>  (1) 
3

>  <PUBCHEM_BOND_DEF_STEREO_COUNT>  (1) 
0

>  <PUBCHEM_BOND_UDEF_STEREO_COUNT>  (1) 
0

>  <PUBCHEM_ISOTOPIC_ATOM_COUNT>  (1) 
0

>  <PUBCHEM_COMPONENT_COUNT>  (1) 
1

>  <PUBCHEM_CACTVS_TAUTO_COUNT>  (1) 
1

>  <PUBCHEM_CONFORMER_ID>  (1) 
0000856600000001

>  <PUBCHEM_MMFF94_ENERGY>  (1) 
165.4083

>  <PUBCHEM_FEATURE_SELFOVERLAP>  (1) 
107.815

>  <PUBCHEM_SHAPE_FINGERPRINT>  (1) 
10439779 11 18262523722655117596
10622 236 11678026859179540113
10675989 125 18054232033466369257
10928967 22 10735878313994786717
11552529 35 11314607470855861681
11578080 2 18343299249641236264
11720765 8 17623574150821144790
12422481 6 17168418247328143084
12633257 1 15575006086533561659
12788726 201 17318482012654838443
131258 43 8430308083034552690
13224815 77 17560819743951422742
13811026 1 18202562874378828696
13911987 19 16415482683384901656
14068700 675 17126491545722068398
14251764 30 8718835292654424800
14251764 38 18262245541564687148
14420673 8 8213877984433217905
14739800 52 18335129861045821449
14790565 3 17766573356823998897
14950920 106 13479429249053086877
15669420 48 17845641664638440429
17349148 13 18342752814211913130
17492 54 15769772477167107720
17980427 23 18116431630089175564
1813 80 13254792400289413091
18608769 82 18411141377230256643
19053607 189 18408612452487942388
19304144 158 18201994464709389382
20511986 3 18411128117552870551
20715895 44 18410295770060225397
21033648 29 18334299781765445496
21859007 373 18115585924884470292
22149856 69 18125192483242856643
22393880 68 18338809905232127271
23559900 14 17985838033937697334
23569943 247 15721324692022748768
249057 25 17095807736575719039
2838139 119 18263081033531899405
3459 39 18263064587596390049
3493558 16 18339086015905935536
4112364 45 18189327966557124321
44880168 125 11819279970678924425
474 4 17386304120477261479
50677037 204 18270408179004887073
513202 73 16009847482670405448
513532 50 18338524011003146510
5283173 99 18412548716640806272
57724786 102 16444215108383312950
6036956 94 17758406557477054725
6371009 1 18114177592455221125
77296 10 18343587339321477622
9981440 41 18334581277795545795

>  <PUBCHEM_SHAPE_MULTIPOLES>  (1) 
744.8
14.93
3.75
2.01
1.99
0.8
-0.23
13.87
2.19
-2.39
-0.19
1.82
0
2.4

>  <PUBCHEM_SHAPE_SELFOVERLAP>  (1) 
1638.006

>  <PUBCHEM_SHAPE_VOLUME>  (1) 
395.4

>  <PUBCHEM_COORDINATE_TYPE>  (1) 
2
5
10

$$$$
