34156
     RDKit          3D

 40 42  0  0  1  0  0  0  0  0999 V2000
    6.9231    1.6206   -0.5338 O   0  0  0  0  0  0  0  0  0  0  0  0
   -5.3273    1.7698    1.4037 O   0  0  0  0  0  0  0  0  0  0  0  0
    2.6780   -0.1595    2.5209 O   0  0  0  0  0  0  0  0  0  0  0  0
   -2.3616   -3.0266   -1.9161 O   0  0  0  0  0  0  0  0  0  0  0  0
    6.4268    3.8693   -0.7188 O   0  0  0  0  0  0  0  0  0  0  0  0
   -7.1023    2.4968    2.6913 O   0  0  0  0  0  0  0  0  0  0  0  0
    5.1161   -1.3049    1.6584 N   0  0  0  0  0  0  0  0  0  0  0  0
   -4.6643   -1.8652   -0.4461 N   0  0  0  0  0  0  0  0  0  0  0  0
    5.1759   -0.0496   -0.4347 C   0  0  0  0  0  0  0  0  0  0  0  0
   -5.6761    0.4164   -0.5707 C   0  0  0  0  0  0  0  0  0  0  0  0
    5.0324    0.0528    1.0862 C   0  0  0  0  0  0  0  0  0  0  0  0
   -5.6587   -0.8996    0.2116 C   0  0  0  0  0  0  0  0  0  0  0  0
    5.6358    1.2853   -1.0458 C   0  0  0  0  0  0  0  0  0  0  0  0
   -6.2003    1.5760    0.2938 C   0  0  0  0  0  0  0  0  0  0  0  0
    3.8550   -0.5133   -1.0644 C   0  0  0  0  0  0  0  0  0  0  0  0
   -6.5127    0.2654   -1.8489 C   0  0  0  0  0  0  0  0  0  0  0  0
    5.7152    1.2076   -2.5714 C   0  0  0  0  0  0  0  0  0  0  0  0
   -6.2834    2.8788   -0.5034 C   0  0  0  0  0  0  0  0  0  0  0  0
    3.9462   -0.5850   -2.5866 C   0  0  0  0  0  0  0  0  0  0  0  0
   -6.5897    1.5720   -2.6346 C   0  0  0  0  0  0  0  0  0  0  0  0
    4.4010    0.7417   -3.1854 C   0  0  0  0  0  0  0  0  0  0  0  0
   -7.1114    2.7163   -1.7721 C   0  0  0  0  0  0  0  0  0  0  0  0
    3.7760   -2.0469    1.5215 C   0  0  0  0  0  0  0  0  0  0  0  0
   -3.4582   -1.1370   -0.9191 C   0  0  0  0  0  0  0  0  0  0  0  0
    6.1914   -2.1412    0.9446 C   0  0  0  0  0  0  0  0  0  0  0  0
    5.4751   -1.2543    3.1530 C   0  0  0  0  0  0  0  0  0  0  0  0
   -4.2828   -2.9354    0.5851 C   0  0  0  0  0  0  0  0  0  0  0  0
   -5.3736   -2.5591   -1.6161 C   0  0  0  0  0  0  0  0  0  0  0  0
    2.6108   -1.1109    1.7461 C   0  0  0  0  0  0  0  0  0  0  0  0
   -2.2615   -2.0673   -1.1246 C   0  0  0  0  0  0  0  0  0  0  0  0
    1.3436   -1.3597    0.9997 C   0  0  0  0  0  0  0  0  0  0  0  0
   -1.0260   -1.8249   -0.3970 C   0  0  0  0  0  0  0  0  0  0  0  0
    7.1858    2.9565   -0.4227 C   0  0  0  0  0  0  0  0  0  0  0  0
   -5.9157    2.2367    2.5446 C   0  0  0  0  0  0  0  0  0  0  0  0
    0.9901   -2.6601    0.6395 C   0  0  0  0  0  0  0  0  0  0  0  0
   -0.1946   -2.8927   -0.0588 C   0  0  0  0  0  0  0  0  0  0  0  0
    0.5122   -0.2919    0.6616 C   0  0  0  0  0  0  0  0  0  0  0  0
   -0.6726   -0.5245   -0.0368 C   0  0  0  0  0  0  0  0  0  0  0  0
    8.5659    3.1572    0.1260 C   0  0  0  0  0  0  0  0  0  0  0  0
   -4.8837    2.3904    3.6203 C   0  0  0  0  0  0  0  0  0  0  0  0
  1 13  1  0
  1 33  1  0
  2 14  1  0
  2 34  1  0
  3 29  2  0
  4 30  2  0
  5 33  2  0
  6 34  2  0
  7 11  1  0
  7 23  1  0
  7 25  1  0
  7 26  1  0
  8 12  1  0
  8 24  1  0
  8 27  1  0
  8 28  1  0
  9 11  1  0
  9 13  1  0
  9 15  1  0
 10 12  1  0
 10 14  1  0
 10 16  1  0
 13 17  1  0
 14 18  1  0
 15 19  1  0
 16 20  1  0
 17 21  1  0
 18 22  1  0
 19 21  1  0
 20 22  1  0
 23 29  1  0
 24 30  1  0
 29 31  1  0
 30 32  1  0
 31 35  2  0
 31 37  1  0
 32 36  2  0
 32 38  1  0
 33 39  1  0
 34 40  1  0
 35 36  1  0
 37 38  2  0
M  CHG  2   7   1   8   1
M  END
>  <PUBCHEM_COMPOUND_CID>  (1) 
34156

>  <PUBCHEM_CONFORMER_RMSD>  (1) 
1.6

>  <PUBCHEM_CONFORMER_DIVERSEORDER>  (1) 
14
11
172
260
83
47
163
55
224
102
9
194
181
192
79
97
95
183
26
246
87
173
69
6
84
71
4
238
33
208
36
135
77
169
158
18
245
10
37
130
30
139
201
8
228
43
22
253
17
202
24
86
38
41
168
206
221
251
53
66
82
65
107
210
23
156
256
89
145
46
217
142
230
133
240
119
159
187
155
80
188
223
137
144
34
247
19
259
209
91
199
74
237
239
193
103
58
182
78
113
3
167
184
215
190
120
197
232
62
40
243
7
203
131
147
164
54
90
226
178
111
28
179
21
20
200
161
56
186
122
180
127
244
171
162
32
85
39
126
219
52
207
70
154
211
185
212
63
138
13
45
25
198
129
115
216
42
261
101
15
231
108
104
152
242
165
116
121
148
255
136
128
106
132
44
93
151
220
64
166
57
99
174
141
191
109
48
189
72
88
60
170
92
175
214
100
105
150
73
49
114
67
125
117
153
157
234
248
29
16
160
94
149
222
12
59
257
140
1
31
252
68
50
254
76
235
213
5
225
35
27
195
51
96
250
249
75
118
2
81
134
112
176
143
218
233
241
124
146
177
258
236
123
61
229
204
205
196
110
98
227

>  <PUBCHEM_MMFF94_PARTIAL_CHARGES>  (1) 
34
1 -0.43
11 0.5
12 0.5
13 0.28
14 0.28
2 -0.43
23 0.56
24 0.56
25 0.5
26 0.5
27 0.5
28 0.5
29 0.42
3 -0.57
30 0.42
31 0.09
32 0.09
33 0.66
34 0.66
35 -0.15
36 -0.15
37 -0.15
38 -0.15
39 0.06
4 -0.57
40 0.06
5 -0.57
6 -0.57
7 -1.01
8 -1.01
81 0.15
82 0.15
83 0.15
84 0.15

>  <PUBCHEM_EFFECTIVE_ROTOR_COUNT>  (1) 
16.4

>  <PUBCHEM_PHARMACOPHORE_FEATURES>  (1) 
9
1 3 acceptor
1 4 acceptor
1 5 acceptor
1 6 acceptor
1 7 cation
1 8 cation
6 10 14 16 18 20 22 rings
6 31 32 35 36 37 38 rings
6 9 13 15 17 19 21 rings

>  <PUBCHEM_HEAVY_ATOM_COUNT>  (1) 
40

>  <PUBCHEM_ATOM_DEF_STEREO_COUNT>  (1) 
0

>  <PUBCHEM_ATOM_UDEF_STEREO_COUNT>  (1) 
4

>  <PUBCHEM_BOND_DEF_STEREO_COUNT>  (1) 
0

>  <PUBCHEM_BOND_UDEF_STEREO_COUNT>  (1) 
0

>  <PUBCHEM_ISOTOPIC_ATOM_COUNT>  (1) 
0

>  <PUBCHEM_COMPONENT_COUNT>  (1) 
1

>  <PUBCHEM_CACTVS_TAUTO_COUNT>  (1) 
3

>  <PUBCHEM_CONFORMER_ID>  (1) 
0000856C0000000E

>  <PUBCHEM_MMFF94_ENERGY>  (1) 
150.3435

>  <PUBCHEM_FEATURE_SELFOVERLAP>  (1) 
45.673

>  <PUBCHEM_SHAPE_FINGERPRINT>  (1) 
10554248 39 18270669870934360398
10951579 204 16916791725567043088
11007060 377 17749107807927007755
11475781 23 17060052601761101218
12975358 362 18046358435882062989
13782708 43 9583512123190045699
14294032 229 18197215850163961440
14394314 77 18114176462525804060
14904525 67 18260537935708686332
15183329 4 18342737425111703973
15513586 35 18118133687306274525
15773879 53 17561074804763635065
16728433 281 17775012262737434273
16994733 274 18260827146290592892
21223535 225 18339357599525056236
21298829 104 17968092075569079548
21599406 157 14764336116520164557
22122407 14 17676489406897115525
23522609 53 18411425020252542970
23569914 152 14976042514718927565
3711267 37 18410288112730006368
3918712 181 18412823564852913541
397830 11 15213312932067834403
4169191 19 18408036316947336045
4173938 306 14619925146821544402
4258327 124 18333449825539733959
48014 12 18411416212092211829
5937810 71 18271814552590737032
6036956 94 18194964042309467633
6328613 192 18334287661256862431
6697151 62 13542467540666140282
9980921 221 17489314091939680897

>  <PUBCHEM_SHAPE_MULTIPOLES>  (1) 
778
25.8
4.26
3.26
0.95
1.42
1.28
24.18
-0.71
0.11
0.09
-1.7
1.34
-5.27

>  <PUBCHEM_SHAPE_SELFOVERLAP>  (1) 
1596.399

>  <PUBCHEM_SHAPE_VOLUME>  (1) 
443.5

>  <PUBCHEM_COORDINATE_TYPE>  (1) 
2
5
10

$$$$
