3415
     RDKit          3D

  7  6  0  0  0  0  0  0  0  0999 V2000
   -0.7096   -0.0151   -0.0918 P   0  0  0  0  0  0  0  0  0  0  0  0
   -1.1603   -1.2916    0.7990 O   0  0  0  0  0  0  0  0  0  0  0  0
   -1.2736    1.2210    0.7918 O   0  0  0  0  0  0  0  0  0  0  0  0
   -1.2538   -0.0439   -1.4925 O   0  0  0  0  0  0  0  0  0  0  0  0
    1.7499   -1.1031    0.0053 O   0  0  0  0  0  0  0  0  0  0  0  0
    1.5859    1.1683    0.0045 O   0  0  0  0  0  0  0  0  0  0  0  0
    1.0615    0.0644   -0.0164 C   0  0  0  0  0  0  0  0  0  0  0  0
  1  2  1  0
  1  3  1  0
  1  4  2  0
  1  7  1  0
  5  7  1  0
  6  7  2  0
M  END
>  <PUBCHEM_COMPOUND_CID>  (1) 
3415

>  <PUBCHEM_CONFORMER_RMSD>  (1) 
0.4

>  <PUBCHEM_CONFORMER_DIVERSEORDER>  (1) 
1

>  <PUBCHEM_MMFF94_PARTIAL_CHARGES>  (1) 
10
1 1.35
10 0.5
2 -0.77
3 -0.77
4 -0.7
5 -0.65
6 -0.57
7 0.61
8 0.5
9 0.5

>  <PUBCHEM_EFFECTIVE_ROTOR_COUNT>  (1) 
1

>  <PUBCHEM_PHARMACOPHORE_FEATURES>  (1) 
7
1 2 acceptor
1 3 acceptor
1 4 acceptor
1 5 acceptor
1 6 acceptor
3 5 6 7 anion
4 1 2 3 4 anion

>  <PUBCHEM_HEAVY_ATOM_COUNT>  (1) 
7

>  <PUBCHEM_ATOM_DEF_STEREO_COUNT>  (1) 
0

>  <PUBCHEM_ATOM_UDEF_STEREO_COUNT>  (1) 
0

>  <PUBCHEM_BOND_DEF_STEREO_COUNT>  (1) 
0

>  <PUBCHEM_BOND_UDEF_STEREO_COUNT>  (1) 
0

>  <PUBCHEM_ISOTOPIC_ATOM_COUNT>  (1) 
0

>  <PUBCHEM_COMPONENT_COUNT>  (1) 
1

>  <PUBCHEM_CACTVS_TAUTO_COUNT>  (1) 
1

>  <PUBCHEM_CONFORMER_ID>  (1) 
00000D5700000001

>  <PUBCHEM_MMFF94_ENERGY>  (1) 
-27.7449

>  <PUBCHEM_FEATURE_SELFOVERLAP>  (1) 
35.634

>  <PUBCHEM_SHAPE_FINGERPRINT>  (1) 
137420 1 12452509410055648543
20096714 4 18271253707228877784
24536 1 18410285930474779696
29004967 10 18124034791180343003
5943 1 16124442131706252929

>  <PUBCHEM_SHAPE_MULTIPOLES>  (1) 
118.56
2.11
1.27
0.99
0.61
0.01
0.28
0.03
0
0.06
-0.32
-0.54
0.02
-0.01

>  <PUBCHEM_SHAPE_SELFOVERLAP>  (1) 
206.977

>  <PUBCHEM_SHAPE_VOLUME>  (1) 
78.2

>  <PUBCHEM_COORDINATE_TYPE>  (1) 
2
5
10

$$$$
