34162
     RDKit          3D

 35 39  0  0  1  0  0  0  0  0999 V2000
    2.5287    1.0130    2.1383 O   0  0  0  0  0  0  0  0  0  0  0  0
    5.0906   -0.1894    0.4265 N   0  0  0  0  0  0  0  0  0  0  0  0
    1.1989   -0.9661   -1.0379 N   0  0  0  0  0  0  0  0  0  0  0  0
   -3.0087   -0.0483   -1.2028 N   0  0  0  0  0  0  0  0  0  0  0  0
    3.7837   -0.7843    2.8377 N   0  0  0  0  0  0  0  0  0  0  0  0
    3.6339   -0.3128    0.4731 C   0  0  0  0  0  0  0  0  0  0  0  0
    2.9964    0.6601   -0.5269 C   0  0  0  0  0  0  0  0  0  0  0  0
    3.2226   -1.7553    0.1531 C   0  0  0  0  0  0  0  0  0  0  0  0
    1.4881    0.4271   -0.6739 C   0  0  0  0  0  0  0  0  0  0  0  0
    1.7056   -1.8960   -0.0202 C   0  0  0  0  0  0  0  0  0  0  0  0
    5.5992   -0.5989   -0.8901 C   0  0  0  0  0  0  0  0  0  0  0  0
    5.5008    1.1841    0.7507 C   0  0  0  0  0  0  0  0  0  0  0  0
   -0.2385   -1.1555   -1.2335 C   0  0  0  0  0  0  0  0  0  0  0  0
    3.2463    0.0485    1.8848 C   0  0  0  0  0  0  0  0  0  0  0  0
    7.1259   -0.5226   -0.9400 C   0  0  0  0  0  0  0  0  0  0  0  0
    7.0245    1.3186    0.7547 C   0  0  0  0  0  0  0  0  0  0  0  0
   -0.7980   -0.2365   -2.3362 C   0  0  0  0  0  0  0  0  0  0  0  0
    7.6239    0.8709   -0.5734 C   0  0  0  0  0  0  0  0  0  0  0  0
   -2.3290   -0.2999   -2.4793 C   0  0  0  0  0  0  0  0  0  0  0  0
   -3.8732    0.4341    1.5324 C   0  0  0  0  0  0  0  0  0  0  0  0
   -0.1047   -0.5414   -3.6691 C   0  0  0  0  0  0  0  0  0  0  0  0
   -3.2019    1.2914   -0.7995 C   0  0  0  0  0  0  0  0  0  0  0  0
   -3.4372   -1.1583   -0.4419 C   0  0  0  0  0  0  0  0  0  0  0  0
   -3.6009    1.5705    0.5265 C   0  0  0  0  0  0  0  0  0  0  0  0
   -3.8447   -0.9709    0.8976 C   0  0  0  0  0  0  0  0  0  0  0  0
   -5.2761    0.6604    2.1604 C   0  0  0  0  0  0  0  0  0  0  0  0
   -2.7917    0.4914    2.6357 C   0  0  0  0  0  0  0  0  0  0  0  0
   -3.0246    2.3808   -1.6813 C   0  0  0  0  0  0  0  0  0  0  0  0
   -3.4901   -2.4661   -0.9736 C   0  0  0  0  0  0  0  0  0  0  0  0
   -3.7300    2.9186    0.9340 C   0  0  0  0  0  0  0  0  0  0  0  0
   -4.2107   -2.0996    1.6670 C   0  0  0  0  0  0  0  0  0  0  0  0
   -3.1811    3.7029   -1.2639 C   0  0  0  0  0  0  0  0  0  0  0  0
   -3.8782   -3.5627   -0.2028 C   0  0  0  0  0  0  0  0  0  0  0  0
   -3.5224    3.9731    0.0496 C   0  0  0  0  0  0  0  0  0  0  0  0
   -4.2272   -3.3809    1.1239 C   0  0  0  0  0  0  0  0  0  0  0  0
  1 14  2  0
  2  6  1  0
  2 11  1  0
  2 12  1  0
  3  9  1  0
  3 10  1  0
  3 13  1  0
  4 19  1  0
  4 22  1  0
  4 23  1  0
  5 14  1  0
  6  7  1  0
  6  8  1  0
  6 14  1  0
  7  9  1  0
  8 10  1  0
 11 15  1  0
 12 16  1  0
 13 17  1  0
 15 18  1  0
 16 18  1  0
 17 19  1  0
 17 21  1  0
 20 24  1  0
 20 25  1  0
 20 26  1  0
 20 27  1  0
 22 24  2  0
 22 28  1  0
 23 25  2  0
 23 29  1  0
 24 30  1  0
 25 31  1  0
 28 32  2  0
 29 33  2  0
 30 34  2  0
 31 35  2  0
 32 34  1  0
 33 35  1  0
M  END
>  <PUBCHEM_COMPOUND_CID>  (1) 
34162

>  <PUBCHEM_CONFORMER_RMSD>  (1) 
1

>  <PUBCHEM_CONFORMER_DIVERSEORDER>  (1) 
5
55
10
56
57
38
85
60
74
89
97
80
105
86
95
70
106
83
13
59
40
76
25
27
6
36
50
49
99
108
93
46
94
88
69
87
21
84
35
43
92
52
41
98
58
102
81
51
82
22
37
24
107
3
11
42
20
104
101
17
53
7
96
77
45
18
61
91
71
110
30
26
62
72
100
33
12
73
8
1
90
48
103
63
23
64
28
19
4
29
66
68
34
79
47
14
31
78
15
39
109
44
54
75
65
67
16
2
9
32

>  <PUBCHEM_MMFF94_PARTIAL_CHARGES>  (1) 
36
1 -0.57
10 0.27
11 0.27
12 0.27
13 0.27
14 0.57
19 0.37
2 -0.81
20 0.29
22 0.1
23 0.1
24 -0.14
25 -0.14
28 -0.15
29 -0.15
3 -0.81
30 -0.15
31 -0.15
32 -0.15
33 -0.15
34 -0.15
35 -0.15
4 -0.57
5 -0.8
6 0.33
62 0.37
63 0.37
70 0.15
71 0.15
72 0.15
73 0.15
74 0.15
75 0.15
76 0.15
77 0.15
9 0.27

>  <PUBCHEM_EFFECTIVE_ROTOR_COUNT>  (1) 
8.8

>  <PUBCHEM_PHARMACOPHORE_FEATURES>  (1) 
12
1 1 acceptor
1 2 cation
1 21 hydrophobe
1 3 cation
1 4 cation
1 5 donor
3 20 26 27 hydrophobe
6 2 11 12 15 16 18 rings
6 22 24 28 30 32 34 rings
6 23 25 29 31 33 35 rings
6 3 6 7 8 9 10 rings
6 4 20 22 23 24 25 rings

>  <PUBCHEM_HEAVY_ATOM_COUNT>  (1) 
35

>  <PUBCHEM_ATOM_DEF_STEREO_COUNT>  (1) 
0

>  <PUBCHEM_ATOM_UDEF_STEREO_COUNT>  (1) 
1

>  <PUBCHEM_BOND_DEF_STEREO_COUNT>  (1) 
0

>  <PUBCHEM_BOND_UDEF_STEREO_COUNT>  (1) 
0

>  <PUBCHEM_ISOTOPIC_ATOM_COUNT>  (1) 
0

>  <PUBCHEM_COMPONENT_COUNT>  (1) 
1

>  <PUBCHEM_CACTVS_TAUTO_COUNT>  (1) 
2

>  <PUBCHEM_CONFORMER_ID>  (1) 
0000857200000005

>  <PUBCHEM_MMFF94_ENERGY>  (1) 
120.0577

>  <PUBCHEM_FEATURE_SELFOVERLAP>  (1) 
60.936

>  <PUBCHEM_SHAPE_FINGERPRINT>  (1) 
10930396 42 18408038537962406385
11135926 11 16128662942888205558
11273773 118 18202569462790017764
11552529 35 18187076274070252167
12633257 1 18411149047577480529
13583140 156 18202275896826442027
13782708 43 16298653985983396018
14068700 675 17532092876883228159
14279260 333 17846226501930551998
14347329 18 18129932374421484120
14856354 85 18338241573674310270
15183329 4 16128658561789415340
15274700 242 12902639712613001725
15484559 13 14033710424940470920
15513586 35 18057030526714228088
16114785 44 16009854036568928165
19315092 285 17678741378245676823
19377110 9 16660364771120580374
21033648 29 18123204411294877357
21315759 148 18410859876082958310
22956985 138 17256246472178777319
32027 91 14853546014794741178
3459 110 18408887364595745013
3459 83 14404637454619334076
392239 28 18187651361305593076
4169191 19 15338252689681031458
444769 64 16056610820306523862
469060 322 17845359107261503263
4938544 92 18334296444249017045
508706 21 18343010082515306921
59755656 520 14620520055488933359
6086070 43 16773215311526859398
6703917 75 18188220896531004670

>  <PUBCHEM_SHAPE_MULTIPOLES>  (1) 
694.49
16.19
3.6
2.73
31.43
1.11
-0.51
2.08
4.57
-7.53
-0.12
-1.35
-0.07
0.88

>  <PUBCHEM_SHAPE_SELFOVERLAP>  (1) 
1489.129

>  <PUBCHEM_SHAPE_VOLUME>  (1) 
381.2

>  <PUBCHEM_COORDINATE_TYPE>  (1) 
2
5
10

$$$$
