34169
     RDKit          3D

 11 11  0  0  0  0  0  0  0  0999 V2000
    0.9273    1.6825   -0.0080 S   0  0  0  0  0  0  0  0  0  0  0  0
   -1.1115    1.6007    0.0113 S   0  0  0  0  0  0  0  0  0  0  0  0
    2.4248   -0.6078   -0.0099 N   0  0  0  0  0  0  0  0  0  0  0  0
   -2.3807   -0.7235    0.0039 N   0  0  0  0  0  0  0  0  0  0  0  0
    3.6117    0.1915   -0.0141 C   0  0  0  0  0  0  0  0  0  0  0  0
    1.1715   -0.0572   -0.0061 C   0  0  0  0  0  0  0  0  0  0  0  0
    0.0630   -0.8176   -0.0023 C   0  0  0  0  0  0  0  0  0  0  0  0
   -1.2372   -0.1329    0.0030 C   0  0  0  0  0  0  0  0  0  0  0  0
    4.8591   -0.6670    0.0217 C   0  0  0  0  0  0  0  0  0  0  0  0
   -3.5274    0.1761    0.0095 C   0  0  0  0  0  0  0  0  0  0  0  0
   -4.8005   -0.6447   -0.0091 C   0  0  0  0  0  0  0  0  0  0  0  0
  1  2  1  0
  1  6  1  0
  2  8  1  0
  3  5  1  0
  3  6  1  0
  4  8  2  0
  4 10  1  0
  5  9  1  0
  6  7  2  0
  7  8  1  0
 10 11  1  0
M  END
>  <PUBCHEM_COMPOUND_CID>  (1) 
34169

>  <PUBCHEM_CONFORMER_RMSD>  (1) 
0.6

>  <PUBCHEM_CONFORMER_DIVERSEORDER>  (1) 
1
5
3
6
4
2

>  <PUBCHEM_MMFF94_PARTIAL_CHARGES>  (1) 
11
1 -0.1
10 0.25
14 0.4
15 0.15
2 -0.14
3 -0.87
4 -0.7
5 0.37
6 0.2
7 -0.14
8 0.58

>  <PUBCHEM_EFFECTIVE_ROTOR_COUNT>  (1) 
3

>  <PUBCHEM_PHARMACOPHORE_FEATURES>  (1) 
4
1 3 cation
1 3 donor
1 4 acceptor
5 1 2 6 7 8 rings

>  <PUBCHEM_HEAVY_ATOM_COUNT>  (1) 
11

>  <PUBCHEM_ATOM_DEF_STEREO_COUNT>  (1) 
0

>  <PUBCHEM_ATOM_UDEF_STEREO_COUNT>  (1) 
0

>  <PUBCHEM_BOND_DEF_STEREO_COUNT>  (1) 
0

>  <PUBCHEM_BOND_UDEF_STEREO_COUNT>  (1) 
0

>  <PUBCHEM_ISOTOPIC_ATOM_COUNT>  (1) 
0

>  <PUBCHEM_COMPONENT_COUNT>  (1) 
1

>  <PUBCHEM_CACTVS_TAUTO_COUNT>  (1) 
2

>  <PUBCHEM_CONFORMER_ID>  (1) 
0000857900000001

>  <PUBCHEM_MMFF94_ENERGY>  (1) 
16.6572

>  <PUBCHEM_FEATURE_SELFOVERLAP>  (1) 
20.297

>  <PUBCHEM_SHAPE_FINGERPRINT>  (1) 
10219947 1 18272937132503105902
11062470 55 18410293613986701251
11401426 45 18412821387171826429
12032990 46 18410577287991870752
124424 183 18187085070273686995
13690532 89 18409729564537495914
13862211 1 18410851066387732655
14115302 16 17749117724236003198
14252887 29 18131360691243643726
18522853 276 18412825785281946440
187816 3 17676207969989398459
20201158 50 18408042913927412395
20645477 56 9367336034014344690
20719005 15 18410856563966528802
20871998 22 18200604600412835343
21119208 17 15791450434981633839
23402539 116 18343294860427201071
23557571 272 18130235852510078644
42788 4 18410573989446535374
68521 5 18336266743089620108

>  <PUBCHEM_SHAPE_MULTIPOLES>  (1) 
224.11
8.54
1.41
0.62
0.74
0.73
0
-3.21
0.02
-0.04
0
0
0.04
-0.01

>  <PUBCHEM_SHAPE_SELFOVERLAP>  (1) 
414.622

>  <PUBCHEM_SHAPE_VOLUME>  (1) 
142.8

>  <PUBCHEM_COORDINATE_TYPE>  (1) 
2
5
10

$$$$
