34163
     RDKit          3D

 11 11  0  0  0  0  0  0  0  0999 V2000
    4.2723   -0.0025    0.7023 Br  0  0  0  0  0  0  0  0  0  0  0  0
   -1.9062    0.0035   -1.1886 S   0  0  0  0  0  0  0  0  0  0  0  0
   -2.1682   -0.0055    1.4435 O   0  0  0  0  0  0  0  0  0  0  0  0
   -0.2018    0.0021   -0.6677 C   0  0  0  0  0  0  0  0  0  0  0  0
    0.4652   -1.2064   -0.4672 C   0  0  0  0  0  0  0  0  0  0  0  0
    0.4651    1.2095   -0.4602 C   0  0  0  0  0  0  0  0  0  0  0  0
    1.7991   -1.2076   -0.0593 C   0  0  0  0  0  0  0  0  0  0  0  0
    1.7990    1.2083   -0.0522 C   0  0  0  0  0  0  0  0  0  0  0  0
    2.4659   -0.0002    0.1484 C   0  0  0  0  0  0  0  0  0  0  0  0
   -2.7468   -0.0008    0.3635 C   0  0  0  0  0  0  0  0  0  0  0  0
   -4.2438   -0.0004    0.2372 C   0  0  0  0  0  0  0  0  0  0  0  0
  1  9  1  0
  2  4  1  0
  2 10  1  0
  3 10  2  0
  4  5  2  0
  4  6  1  0
  5  7  1  0
  6  8  2  0
  7  9  2  0
  8  9  1  0
 10 11  1  0
M  END
>  <PUBCHEM_COMPOUND_CID>  (1) 
34163

>  <PUBCHEM_CONFORMER_RMSD>  (1) 
0.4

>  <PUBCHEM_CONFORMER_DIVERSEORDER>  (1) 
1
11
13
10
12
9
8
4
5
3
2
14
15
6
7

>  <PUBCHEM_MMFF94_PARTIAL_CHARGES>  (1) 
15
1 -0.11
10 0.65
11 0.06
12 0.15
13 0.15
14 0.15
15 0.15
2 -0.24
3 -0.57
4 0.1
5 -0.15
6 -0.15
7 -0.15
8 -0.15
9 0.11

>  <PUBCHEM_EFFECTIVE_ROTOR_COUNT>  (1) 
2

>  <PUBCHEM_PHARMACOPHORE_FEATURES>  (1) 
2
1 1 hydrophobe
6 4 5 6 7 8 9 rings

>  <PUBCHEM_HEAVY_ATOM_COUNT>  (1) 
11

>  <PUBCHEM_ATOM_DEF_STEREO_COUNT>  (1) 
0

>  <PUBCHEM_ATOM_UDEF_STEREO_COUNT>  (1) 
0

>  <PUBCHEM_BOND_DEF_STEREO_COUNT>  (1) 
0

>  <PUBCHEM_BOND_UDEF_STEREO_COUNT>  (1) 
0

>  <PUBCHEM_ISOTOPIC_ATOM_COUNT>  (1) 
0

>  <PUBCHEM_COMPONENT_COUNT>  (1) 
1

>  <PUBCHEM_CACTVS_TAUTO_COUNT>  (1) 
1

>  <PUBCHEM_CONFORMER_ID>  (1) 
0000857300000001

>  <PUBCHEM_MMFF94_ENERGY>  (1) 
21.2937

>  <PUBCHEM_FEATURE_SELFOVERLAP>  (1) 
10.148

>  <PUBCHEM_SHAPE_FINGERPRINT>  (1) 
10219947 1 18409730664286409660
10465860 250 17168415004759787596
11471102 22 18334580130933093336
11769659 78 15213285405764807592
12032990 46 18261671468273274654
12251169 10 18410292531781601679
124424 183 17676198070190001253
14252887 29 18409173173242008234
14350558 41 15792010030940098298
14943859 89 15482667992015818838
15775835 57 17275105024538884651
16945 1 18410848867828090420
17844478 74 17967809427433216084
20201158 50 17894632534937542819
20279233 1 17821729420889998231
20281407 28 17095528382943385978
20871998 22 18266462010096495158
22485316 2 16587738750449868738
23380061 451 17385436588248563402
23402539 116 16877931742484143759
2748010 2 18051398583902052044
29004967 10 18260267425751404796

>  <PUBCHEM_SHAPE_MULTIPOLES>  (1) 
230.3
6.85
1.15
1.06
0.78
0
-0.08
0
-2.28
-0.57
0.15
0.51
0
0

>  <PUBCHEM_SHAPE_SELFOVERLAP>  (1) 
443.25

>  <PUBCHEM_SHAPE_VOLUME>  (1) 
144.2

>  <PUBCHEM_COORDINATE_TYPE>  (1) 
2
5
10

$$$$
