34165
     RDKit          3D

 16 17  0  0  0  0  0  0  0  0999 V2000
    5.9394    0.6898   -0.1421 Cl  0  0  0  0  0  0  0  0  0  0  0  0
   -0.8698    0.1449    1.3229 S   0  0  0  0  0  0  0  0  0  0  0  0
   -0.3618   -1.5194   -0.6484 O   0  0  0  0  0  0  0  0  0  0  0  0
    1.5502   -0.3333    0.0412 C   0  0  0  0  0  0  0  0  0  0  0  0
   -2.4666    0.1992    0.5307 C   0  0  0  0  0  0  0  0  0  0  0  0
    2.4769   -1.3027   -0.3420 C   0  0  0  0  0  0  0  0  0  0  0  0
    1.9807    0.9529    0.3669 C   0  0  0  0  0  0  0  0  0  0  0  0
    0.1352   -0.6639    0.0996 C   0  0  0  0  0  0  0  0  0  0  0  0
    3.8342   -0.9860   -0.3993 C   0  0  0  0  0  0  0  0  0  0  0  0
    3.3380    1.2696    0.3096 C   0  0  0  0  0  0  0  0  0  0  0  0
   -2.6202    0.8721   -0.6809 C   0  0  0  0  0  0  0  0  0  0  0  0
   -3.5601   -0.4314    1.1230 C   0  0  0  0  0  0  0  0  0  0  0  0
    4.2647    0.3000   -0.0735 C   0  0  0  0  0  0  0  0  0  0  0  0
   -3.8689    0.9141   -1.3012 C   0  0  0  0  0  0  0  0  0  0  0  0
   -4.8088   -0.3893    0.5027 C   0  0  0  0  0  0  0  0  0  0  0  0
   -4.9633    0.2835   -0.7093 C   0  0  0  0  0  0  0  0  0  0  0  0
  1 13  1  0
  2  5  1  0
  2  8  1  0
  3  8  2  0
  4  6  2  0
  4  7  1  0
  4  8  1  0
  5 11  2  0
  5 12  1  0
  6  9  1  0
  7 10  2  0
  9 13  2  0
 10 13  1  0
 11 14  1  0
 12 15  2  0
 14 16  2  0
 15 16  1  0
M  END
>  <PUBCHEM_COMPOUND_CID>  (1) 
34165

>  <PUBCHEM_CONFORMER_RMSD>  (1) 
0.6

>  <PUBCHEM_CONFORMER_DIVERSEORDER>  (1) 
1
21
18
16
27
17
8
12
30
3
4
13
2
28
24
9
33
5
31
11
29
7
32
26
23
14
10
22
6
20
25
15
19

>  <PUBCHEM_MMFF94_PARTIAL_CHARGES>  (1) 
25
1 -0.18
10 -0.15
11 -0.15
12 -0.15
13 0.18
14 -0.15
15 -0.15
16 -0.15
17 0.15
18 0.15
19 0.15
2 -0.24
20 0.15
21 0.15
22 0.15
23 0.15
24 0.15
25 0.15
3 -0.57
4 0.09
5 0.1
6 -0.15
7 -0.15
8 0.62
9 -0.15

>  <PUBCHEM_EFFECTIVE_ROTOR_COUNT>  (1) 
3

>  <PUBCHEM_PHARMACOPHORE_FEATURES>  (1) 
2
6 4 6 7 9 10 13 rings
6 5 11 12 14 15 16 rings

>  <PUBCHEM_HEAVY_ATOM_COUNT>  (1) 
16

>  <PUBCHEM_ATOM_DEF_STEREO_COUNT>  (1) 
0

>  <PUBCHEM_ATOM_UDEF_STEREO_COUNT>  (1) 
0

>  <PUBCHEM_BOND_DEF_STEREO_COUNT>  (1) 
0

>  <PUBCHEM_BOND_UDEF_STEREO_COUNT>  (1) 
0

>  <PUBCHEM_ISOTOPIC_ATOM_COUNT>  (1) 
0

>  <PUBCHEM_COMPONENT_COUNT>  (1) 
1

>  <PUBCHEM_CACTVS_TAUTO_COUNT>  (1) 
1

>  <PUBCHEM_CONFORMER_ID>  (1) 
0000857500000001

>  <PUBCHEM_MMFF94_ENERGY>  (1) 
43.6111

>  <PUBCHEM_FEATURE_SELFOVERLAP>  (1) 
10.149

>  <PUBCHEM_SHAPE_FINGERPRINT>  (1) 
10 15 18188202226192039936
10646746 165 17530680987593121965
11089746 13 14851603310243781518
11128504 68 16702301282475151184
11471102 20 18342740706872743734
11615757 297 18060419110213523849
12236239 1 16988848267353365088
12251169 10 13190340166713853362
12500047 106 17603307071992303714
12507557 5 17967536787236193397
128620 24 17703790310162450105
13288520 33 13901910011682013993
13533116 47 17203331066637988710
13583140 156 18113902688340565058
13760787 5 17846501408946763899
14123238 8 18131914862199158602
14573314 32 17531248322782148418
18186145 218 18131350812575899407
19489759 90 16950280715418923601
200 152 17846780693532319337
20279233 1 18041003929215603314
20645477 56 18260546753133710523
20645477 70 18342181012425996310
21033648 29 18336533975997007657
21150785 3 14836132096201625024
22646028 1 17060618875934572755
22854114 59 18260550025951531087
23035841 295 14549024273448705940
231179 274 18333731317047512242
23402539 116 17313100886456804971
23402655 69 18202281377178175652
23557571 272 18040722450666605181
23559900 14 17458909236656342554
2916195 48 17894628192947457796
3268164 11 17312813897296032967
351380 180 17821727238698530269
3545911 37 18341897415534526490
4028521 119 17967526840429299125
4072396 5 18339631284100718650
4325135 7 18271806869579611719
5104073 3 17313665924165421945
5281201 14 18336551529585979132
542803 24 16845576413264771048
633830 44 17916319263555387239
69090 78 18343301487213923127

>  <PUBCHEM_SHAPE_MULTIPOLES>  (1) 
329.12
12.14
1.25
1.08
2.52
0.07
-0.09
-2.27
1.39
0.51
0.19
-0.89
-0.04
0.97

>  <PUBCHEM_SHAPE_SELFOVERLAP>  (1) 
682.648

>  <PUBCHEM_SHAPE_VOLUME>  (1) 
188.4

>  <PUBCHEM_COORDINATE_TYPE>  (1) 
2
5
10

$$$$
