34164
     RDKit          3D

 16 17  0  0  0  0  0  0  0  0999 V2000
    5.9529   -0.2031   -1.1037 Br  0  0  0  0  0  0  0  0  0  0  0  0
    0.0063   -0.0763    1.4206 S   0  0  0  0  0  0  0  0  0  0  0  0
   -0.4502    1.4428   -0.6765 O   0  0  0  0  0  0  0  0  0  0  0  0
   -2.3516    0.2204   -0.0219 C   0  0  0  0  0  0  0  0  0  0  0  0
    1.6475   -0.1106    0.7237 C   0  0  0  0  0  0  0  0  0  0  0  0
   -3.2930    1.1234   -0.5159 C   0  0  0  0  0  0  0  0  0  0  0  0
   -2.7479   -1.0615    0.3593 C   0  0  0  0  0  0  0  0  0  0  0  0
   -0.9562    0.6138    0.0948 C   0  0  0  0  0  0  0  0  0  0  0  0
    1.8977   -0.8481   -0.4329 C   0  0  0  0  0  0  0  0  0  0  0  0
    2.6792    0.5999    1.3359 C   0  0  0  0  0  0  0  0  0  0  0  0
   -4.6306    0.7444   -0.6290 C   0  0  0  0  0  0  0  0  0  0  0  0
   -4.0856   -1.4404    0.2463 C   0  0  0  0  0  0  0  0  0  0  0  0
    3.1814   -0.8752   -0.9779 C   0  0  0  0  0  0  0  0  0  0  0  0
    3.9629    0.5728    0.7910 C   0  0  0  0  0  0  0  0  0  0  0  0
   -5.0269   -0.5375   -0.2479 C   0  0  0  0  0  0  0  0  0  0  0  0
    4.2140   -0.1648   -0.3659 C   0  0  0  0  0  0  0  0  0  0  0  0
  1 16  1  0
  2  5  1  0
  2  8  1  0
  3  8  2  0
  4  6  2  0
  4  7  1  0
  4  8  1  0
  5  9  2  0
  5 10  1  0
  6 11  1  0
  7 12  2  0
  9 13  1  0
 10 14  2  0
 11 15  2  0
 12 15  1  0
 13 16  2  0
 14 16  1  0
M  END
>  <PUBCHEM_COMPOUND_CID>  (1) 
34164

>  <PUBCHEM_CONFORMER_RMSD>  (1) 
0.6

>  <PUBCHEM_CONFORMER_DIVERSEORDER>  (1) 
1
19
13
2
16
18
26
27
28
8
5
3
30
25
22
4
6
24
23
21
29
11
31
12
20
9
7
10
14
15
17

>  <PUBCHEM_MMFF94_PARTIAL_CHARGES>  (1) 
25
1 -0.11
10 -0.15
11 -0.15
12 -0.15
13 -0.15
14 -0.15
15 -0.15
16 0.11
17 0.15
18 0.15
19 0.15
2 -0.24
20 0.15
21 0.15
22 0.15
23 0.15
24 0.15
25 0.15
3 -0.57
4 0.09
5 0.1
6 -0.15
7 -0.15
8 0.62
9 -0.15

>  <PUBCHEM_EFFECTIVE_ROTOR_COUNT>  (1) 
3

>  <PUBCHEM_PHARMACOPHORE_FEATURES>  (1) 
3
1 1 hydrophobe
6 4 6 7 11 12 15 rings
6 5 9 10 13 14 16 rings

>  <PUBCHEM_HEAVY_ATOM_COUNT>  (1) 
16

>  <PUBCHEM_ATOM_DEF_STEREO_COUNT>  (1) 
0

>  <PUBCHEM_ATOM_UDEF_STEREO_COUNT>  (1) 
0

>  <PUBCHEM_BOND_DEF_STEREO_COUNT>  (1) 
0

>  <PUBCHEM_BOND_UDEF_STEREO_COUNT>  (1) 
0

>  <PUBCHEM_ISOTOPIC_ATOM_COUNT>  (1) 
0

>  <PUBCHEM_COMPONENT_COUNT>  (1) 
1

>  <PUBCHEM_CACTVS_TAUTO_COUNT>  (1) 
1

>  <PUBCHEM_CONFORMER_ID>  (1) 
0000857400000001

>  <PUBCHEM_MMFF94_ENERGY>  (1) 
43.8063

>  <PUBCHEM_FEATURE_SELFOVERLAP>  (1) 
15.223

>  <PUBCHEM_SHAPE_FINGERPRINT>  (1) 
11089746 13 16515408499794301812
11128504 68 17676211294684404268
11287383 113 18341611551090644520
11471102 20 17275381023780413538
11615757 297 16415477159888004643
12236239 1 16732699445745533994
12507557 5 12757156779000158775
13533116 47 16660635234043932528
13551218 46 13686030748018621268
13760787 5 16056878048148712992
1420 363 18131918160955698534
14350574 20 17703796916492005974
14386348 63 18272371979374042399
14455015 7 17489594462877343238
14528608 73 17530968020600398820
14573314 32 18130785633983039281
15048467 5 16008743590080730431
15242439 84 18272650138567188401
15375358 24 18412538821342208763
15375462 189 15482671264844351482
15880784 105 17131828824228593903
17834076 25 16298387963654911060
17844677 252 17704076204697886857
17870717 6 18411421709196942767
18186145 218 18342737407720649977
200 152 16917351411518989170
20279233 1 18342455945750394011
20645477 70 17346314869305167886
20871999 31 18260266343741386557
21267235 1 18260272988493773323
2215653 11 18130781240379091429
2297311 6 18411142441791211053
23175994 123 17703789245517197305
23402539 116 17894348878338972310
23402655 69 17240481386179250068
23557571 272 18410013199872525588
23559900 14 18341890788162566536
26918003 58 17561365084290828859
2871803 45 17989208118707004802
300161 21 16515398577538996614
3268164 11 17968364698348894727
328317 168 16515691052243463364
42 15 12103846752389652404
465052 167 15626220268919611901
474 4 14851613193337932812
4990 188 18411136922473223794
5281201 14 18202003226664641512
542803 24 16877942732809386734
7495541 125 18343020008653985944

>  <PUBCHEM_SHAPE_MULTIPOLES>  (1) 
333.19
12.42
1.23
1.19
2.85
0
-0.07
-3.62
-2.08
0.86
0.15
-0.77
0.1
1.05

>  <PUBCHEM_SHAPE_SELFOVERLAP>  (1) 
685.146

>  <PUBCHEM_SHAPE_VOLUME>  (1) 
196.5

>  <PUBCHEM_COORDINATE_TYPE>  (1) 
2
5
10

$$$$
