34176
     RDKit          3D

 19 21  0  0  1  0  0  0  0  0999 V2000
   -0.5232    0.7589    0.9313 O   0  0  0  0  0  0  0  0  0  0  0  0
   -2.9016    2.0768   -0.0287 N   0  0  0  0  0  0  0  0  0  0  0  0
   -1.7113    0.0251    0.5400 C   0  0  0  0  0  0  0  0  0  0  0  0
    0.5974   -0.1532    1.0861 C   0  0  0  0  0  0  0  0  0  0  0  0
   -1.2003   -1.2990    0.0921 C   0  0  0  0  0  0  0  0  0  0  0  0
    0.1464   -1.4081    0.4170 C   0  0  0  0  0  0  0  0  0  0  0  0
   -2.4359    0.8175   -0.5337 C   0  0  0  0  0  0  0  0  0  0  0  0
    1.7853    0.4804    0.4536 C   0  0  0  0  0  0  0  0  0  0  0  0
   -1.8749   -2.3422   -0.5206 C   0  0  0  0  0  0  0  0  0  0  0  0
    0.8573   -2.5663    0.1450 C   0  0  0  0  0  0  0  0  0  0  0  0
   -1.1672   -3.5097   -0.8127 C   0  0  0  0  0  0  0  0  0  0  0  0
    0.1911   -3.6215   -0.4810 C   0  0  0  0  0  0  0  0  0  0  0  0
    3.0667    0.2097    0.9395 C   0  0  0  0  0  0  0  0  0  0  0  0
    1.6244    1.3485   -0.6289 C   0  0  0  0  0  0  0  0  0  0  0  0
   -3.8375    1.8947    1.0934 C   0  0  0  0  0  0  0  0  0  0  0  0
   -3.5526    2.8728   -1.0826 C   0  0  0  0  0  0  0  0  0  0  0  0
    4.1807    0.8036    0.3464 C   0  0  0  0  0  0  0  0  0  0  0  0
    2.7386    1.9422   -1.2221 C   0  0  0  0  0  0  0  0  0  0  0  0
    4.0167    1.6698   -0.7343 C   0  0  0  0  0  0  0  0  0  0  0  0
  1  3  1  0
  1  4  1  0
  2  7  1  0
  2 15  1  0
  2 16  1  0
  3  5  1  0
  3  7  1  0
  4  6  1  0
  4  8  1  0
  5  6  2  0
  5  9  1  0
  6 10  1  0
  8 13  2  0
  8 14  1  0
  9 11  2  0
 10 12  2  0
 11 12  1  0
 13 17  1  0
 14 18  2  0
 17 19  2  0
 18 19  1  0
M  END
>  <PUBCHEM_COMPOUND_CID>  (1) 
34176

>  <PUBCHEM_CONFORMER_RMSD>  (1) 
0.6

>  <PUBCHEM_CONFORMER_DIVERSEORDER>  (1) 
2
8
1
6
11
10
5
3
9
7
4

>  <PUBCHEM_MMFF94_PARTIAL_CHARGES>  (1) 
28
1 -0.56
10 -0.15
11 -0.15
12 -0.15
13 -0.15
14 -0.15
15 0.27
16 0.27
17 -0.15
18 -0.15
19 -0.15
2 -0.81
24 0.15
25 0.15
26 0.15
27 0.15
28 0.15
29 0.15
3 0.42
36 0.15
37 0.15
38 0.15
4 0.57
5 -0.14
6 -0.14
7 0.27
8 -0.14
9 -0.15

>  <PUBCHEM_EFFECTIVE_ROTOR_COUNT>  (1) 
3.6

>  <PUBCHEM_PHARMACOPHORE_FEATURES>  (1) 
5
1 1 acceptor
1 2 cation
5 1 3 4 5 6 rings
6 5 6 9 10 11 12 rings
6 8 13 14 17 18 19 rings

>  <PUBCHEM_HEAVY_ATOM_COUNT>  (1) 
19

>  <PUBCHEM_ATOM_DEF_STEREO_COUNT>  (1) 
0

>  <PUBCHEM_ATOM_UDEF_STEREO_COUNT>  (1) 
2

>  <PUBCHEM_BOND_DEF_STEREO_COUNT>  (1) 
0

>  <PUBCHEM_BOND_UDEF_STEREO_COUNT>  (1) 
0

>  <PUBCHEM_ISOTOPIC_ATOM_COUNT>  (1) 
0

>  <PUBCHEM_COMPONENT_COUNT>  (1) 
1

>  <PUBCHEM_CACTVS_TAUTO_COUNT>  (1) 
1

>  <PUBCHEM_CONFORMER_ID>  (1) 
0000858000000002

>  <PUBCHEM_MMFF94_ENERGY>  (1) 
58.2748

>  <PUBCHEM_FEATURE_SELFOVERLAP>  (1) 
25.453

>  <PUBCHEM_SHAPE_FINGERPRINT>  (1) 
11833330 49 17833822051287478225
12173636 292 18339073912291781116
12500047 106 18341890827323849848
12553582 1 17690561209733031498
12788726 201 18050573133530999398
13134695 92 17396412815439860895
13140716 1 18339641127200832378
13583140 156 17488168491592513664
13681431 1 17547859555465328363
14022347 108 17688858061747441003
14508225 48 17693931199881287647
14790565 3 18268159828323558145
15502722 9 18123471579582141001
15852999 172 18060144228148749710
15906896 17 18189341336531886410
16752209 62 18268981158465297218
16945 1 18124591148422547810
17134986 127 18337393729728099044
1741750 31 18413108368133411856
18785283 64 18049739429266402355
20739085 24 16689936969457623283
21285901 2 17843419619709952783
21524375 3 18334013895503978529
2255824 54 17910108006775215631
22907989 373 18124875917438422597
23419403 2 16956457561248531350
23557571 272 17694488643723734056
23558518 356 18335697277971757538
23598291 2 18041544936819458450
238 59 17393561889041901637
266924 78 17767149530622346369
2748010 2 18340499862903894003
298252 57 18335419066990175008
3060560 45 18123466077470695670
3091708 16 9267559768682579555
312425 83 17830494826919848252
350125 39 18412271614210263491
458136 41 18198357173424412225
46194498 28 17613979813116697037
559249 180 18409164412294733946
6992083 37 18114454669306143292
7164475 11 18193831776685306286
7364860 26 17980760441779066417
7615 1 17897992767437703408
81228 2 17835236027641351835
84936 182 17842828941268112425
90525 40 18335702783839437362
9862522 239 18115009836483736852

>  <PUBCHEM_SHAPE_MULTIPOLES>  (1) 
380.16
6.38
4.21
1.13
2.73
3.16
0
-6.81
0.38
-3.27
1.52
-0.01
-0.37
-0.73

>  <PUBCHEM_SHAPE_SELFOVERLAP>  (1) 
822.289

>  <PUBCHEM_SHAPE_VOLUME>  (1) 
211.9

>  <PUBCHEM_COORDINATE_TYPE>  (1) 
2
5
10

$$$$
