34173
     RDKit          3D

 27 29  0  0  1  0  0  0  0  0999 V2000
    3.9787    2.7667    1.3716 O   0  0  0  0  0  0  0  0  0  0  0  0
   -4.1898   -1.7734   -0.2715 O   0  0  0  0  0  0  0  0  0  0  0  0
   -0.1051   -2.2062    0.5656 N   0  0  0  0  0  0  0  0  0  0  0  0
    1.9514   -1.4259   -0.2446 C   0  0  0  0  0  0  0  0  0  0  0  0
    2.2269   -2.2136    1.0596 C   0  0  0  0  0  0  0  0  0  0  0  0
    0.6354   -2.0978   -0.6925 C   0  0  0  0  0  0  0  0  0  0  0  0
    0.8568   -2.6843    1.5595 C   0  0  0  0  0  0  0  0  0  0  0  0
    3.0379   -1.6837   -1.3041 C   0  0  0  0  0  0  0  0  0  0  0  0
    1.8772    0.0865    0.0350 C   0  0  0  0  0  0  0  0  0  0  0  0
   -1.2786   -3.0584    0.4592 C   0  0  0  0  0  0  0  0  0  0  0  0
    2.7396   -0.9241   -2.5898 C   0  0  0  0  0  0  0  0  0  0  0  0
   -2.2510   -2.7650    1.6034 C   0  0  0  0  0  0  0  0  0  0  0  0
    2.9759    0.7498    0.5817 C   0  0  0  0  0  0  0  0  0  0  0  0
    0.7102    0.7928   -0.2563 C   0  0  0  0  0  0  0  0  0  0  0  0
    3.7995   -1.1985   -3.6446 C   0  0  0  0  0  0  0  0  0  0  0  0
   -2.7339   -1.3119    1.5971 C   0  0  0  0  0  0  0  0  0  0  0  0
    2.9073    2.1194    0.8373 C   0  0  0  0  0  0  0  0  0  0  0  0
    0.6416    2.1622   -0.0007 C   0  0  0  0  0  0  0  0  0  0  0  0
    1.7401    2.8256    0.5461 C   0  0  0  0  0  0  0  0  0  0  0  0
   -3.5312   -0.9455    0.3534 C   0  0  0  0  0  0  0  0  0  0  0  0
   -3.5263    0.4729   -0.1057 C   0  0  0  0  0  0  0  0  0  0  0  0
    5.1400    1.9843    1.6450 C   0  0  0  0  0  0  0  0  0  0  0  0
   -3.3819    1.5055    0.8211 C   0  0  0  0  0  0  0  0  0  0  0  0
   -3.6658    0.7677   -1.4620 C   0  0  0  0  0  0  0  0  0  0  0  0
   -3.3772    2.8326    0.3917 C   0  0  0  0  0  0  0  0  0  0  0  0
   -3.6609    2.0949   -1.8913 C   0  0  0  0  0  0  0  0  0  0  0  0
   -3.5166    3.1273   -0.9644 C   0  0  0  0  0  0  0  0  0  0  0  0
  1 17  1  0
  1 22  1  0
  2 20  2  0
  3  6  1  0
  3  7  1  0
  3 10  1  0
  4  5  1  0
  4  6  1  0
  4  8  1  0
  4  9  1  0
  5  7  1  0
  8 11  1  0
  9 13  2  0
  9 14  1  0
 10 12  1  0
 11 15  1  0
 12 16  1  0
 13 17  1  0
 14 18  2  0
 16 20  1  0
 17 19  2  0
 18 19  1  0
 20 21  1  0
 21 23  2  0
 21 24  1  0
 23 25  1  0
 24 26  2  0
 25 27  2  0
 26 27  1  0
M  END
>  <PUBCHEM_COMPOUND_CID>  (1) 
34173

>  <PUBCHEM_CONFORMER_RMSD>  (1) 
1.2

>  <PUBCHEM_CONFORMER_DIVERSEORDER>  (1) 
1
314
469
255
363
249
485
53
516
99
331
257
515
23
381
241
567
42
447
218
166
439
354
44
27
333
85
82
66
296
484
202
349
308
394
208
30
319
448
17
111
2
62
247
428
88
488
311
201
123
254
442
183
56
294
210
212
431
361
242
147
9
168
205
49
155
513
139
268
129
26
463
284
494
227
64
539
174
305
550
97
263
320
7
233
302
8
96
452
554
160
86
282
5
389
12
52
413
46
565
197
328
156
3
15
344
214
37
262
543
84
231
24
72
170
67
191
133
602
16
301
336
238
29
145
122
277
63
288
285
267
50
107
412
118
6
545
359
280
32
33
4
561
468
121
223
393
556
135
600
22
34
172
54
136
79
10
326
14
134
211
497
25
47
58
220
71
390
109
418
11
181
61
73
68
357
366
189
114
353
152
45
416
477
261
101

>  <PUBCHEM_MMFF94_PARTIAL_CHARGES>  (1) 
31
1 -0.36
10 0.27
13 -0.15
14 -0.15
16 0.06
17 0.08
18 -0.15
19 -0.15
2 -0.57
20 0.42
21 0.09
22 0.28
23 -0.15
24 -0.15
25 -0.15
26 -0.15
27 -0.15
3 -0.81
4 0.14
42 0.15
43 0.15
49 0.15
50 0.15
54 0.15
55 0.15
56 0.15
57 0.15
58 0.15
6 0.27
7 0.27
9 -0.14

>  <PUBCHEM_EFFECTIVE_ROTOR_COUNT>  (1) 
10

>  <PUBCHEM_PHARMACOPHORE_FEATURES>  (1) 
7
1 1 acceptor
1 15 hydrophobe
1 2 acceptor
1 3 cation
5 3 4 5 6 7 rings
6 21 23 24 25 26 27 rings
6 9 13 14 17 18 19 rings

>  <PUBCHEM_HEAVY_ATOM_COUNT>  (1) 
27

>  <PUBCHEM_ATOM_DEF_STEREO_COUNT>  (1) 
0

>  <PUBCHEM_ATOM_UDEF_STEREO_COUNT>  (1) 
1

>  <PUBCHEM_BOND_DEF_STEREO_COUNT>  (1) 
0

>  <PUBCHEM_BOND_UDEF_STEREO_COUNT>  (1) 
0

>  <PUBCHEM_ISOTOPIC_ATOM_COUNT>  (1) 
0

>  <PUBCHEM_COMPONENT_COUNT>  (1) 
1

>  <PUBCHEM_CACTVS_TAUTO_COUNT>  (1) 
2

>  <PUBCHEM_CONFORMER_ID>  (1) 
0000857D00000001

>  <PUBCHEM_MMFF94_ENERGY>  (1) 
81.8754

>  <PUBCHEM_FEATURE_SELFOVERLAP>  (1) 
35.522

>  <PUBCHEM_SHAPE_FINGERPRINT>  (1) 
10675989 125 17759783863452849717
10764073 3 18045475579536287906
11370993 70 18335967719298381777
12553582 1 17908989803117555601
12596599 1 17844803694664280893
13122387 1 18192425278075301713
13140716 1 18264765463644131561
13402501 40 18266453390228988009
13617811 41 17822296765175797709
14114206 34 17979927016229233261
14251757 17 18270696323816751130
20764821 26 18261667057030833193
21315764 21 16811790397140309317
21796203 349 17330018801237565432
22182313 1 18270414883384382222
22393880 68 18339080393487017133
23419403 2 17986139446368146580
23536364 44 17907612179583401102
238 59 18127384908948028061
238918 7 18200027494848735864
25019877 29 15759955199661920678
3052486 1 17968104174264890700
3117164 225 18189590831825384586
46194498 28 17918002680250601231
5081480 168 17558862566024828132
508706 21 18334582377354015391
5252454 2 18043264439782088573
550186 7 17906175401712317972
59755656 215 18269835474725905517
7226269 152 18119254965485766062
9862522 239 17912356825786359850

>  <PUBCHEM_SHAPE_MULTIPOLES>  (1) 
538.93
8.91
4.5
2.3
1.71
0.42
2.1
4.79
1.28
0.52
-1.63
-2.48
-0.57
3.63

>  <PUBCHEM_SHAPE_SELFOVERLAP>  (1) 
1132.544

>  <PUBCHEM_SHAPE_VOLUME>  (1) 
305.2

>  <PUBCHEM_COORDINATE_TYPE>  (1) 
2
5
10

$$$$
