34175
     RDKit          3D

 11 11  0  0  0  0  0  0  0  0999 V2000
    2.1589   -1.5451    0.5215 S   0  0  0  0  0  0  0  0  0  0  0  0
   -3.8292   -1.1209   -0.1031 N   0  0  0  0  0  0  0  0  0  0  0  0
   -1.2097    2.4539    0.3721 N   0  0  0  0  0  0  0  0  0  0  0  0
    0.9683   -0.4922   -0.1160 C   0  0  0  0  0  0  0  0  0  0  0  0
    1.5073    0.7041   -0.5356 C   0  0  0  0  0  0  0  0  0  0  0  0
    2.9165    0.7568   -0.3314 C   0  0  0  0  0  0  0  0  0  0  0  0
   -0.3787   -0.9122   -0.1546 C   0  0  0  0  0  0  0  0  0  0  0  0
    3.4006   -0.4009    0.2367 C   0  0  0  0  0  0  0  0  0  0  0  0
   -1.4538   -0.0938   -0.0196 C   0  0  0  0  0  0  0  0  0  0  0  0
   -2.7639   -0.6616   -0.0656 C   0  0  0  0  0  0  0  0  0  0  0  0
   -1.3164    1.3118    0.1957 C   0  0  0  0  0  0  0  0  0  0  0  0
  1  4  1  0
  1  8  1  0
  2 10  3  0
  3 11  3  0
  4  5  2  0
  4  7  1  0
  5  6  1  0
  6  8  2  0
  7  9  2  3
  9 10  1  0
  9 11  1  0
M  END
>  <PUBCHEM_COMPOUND_CID>  (1) 
34175

>  <PUBCHEM_CONFORMER_RMSD>  (1) 
0.4

>  <PUBCHEM_CONFORMER_DIVERSEORDER>  (1) 
2
6
1
5
4
3

>  <PUBCHEM_MMFF94_PARTIAL_CHARGES>  (1) 
15
1 -0.08
10 0.49
11 0.49
12 0.15
13 0.15
14 0.15
15 0.15
2 -0.56
3 -0.56
4 -0.01
5 -0.15
6 -0.15
7 -0.11
8 -0.11
9 0.13

>  <PUBCHEM_EFFECTIVE_ROTOR_COUNT>  (1) 
1

>  <PUBCHEM_PHARMACOPHORE_FEATURES>  (1) 
3
1 2 acceptor
1 3 acceptor
5 1 4 5 6 8 rings

>  <PUBCHEM_HEAVY_ATOM_COUNT>  (1) 
11

>  <PUBCHEM_ATOM_DEF_STEREO_COUNT>  (1) 
0

>  <PUBCHEM_ATOM_UDEF_STEREO_COUNT>  (1) 
0

>  <PUBCHEM_BOND_DEF_STEREO_COUNT>  (1) 
0

>  <PUBCHEM_BOND_UDEF_STEREO_COUNT>  (1) 
0

>  <PUBCHEM_ISOTOPIC_ATOM_COUNT>  (1) 
0

>  <PUBCHEM_COMPONENT_COUNT>  (1) 
1

>  <PUBCHEM_CACTVS_TAUTO_COUNT>  (1) 
1

>  <PUBCHEM_CONFORMER_ID>  (1) 
0000857F00000002

>  <PUBCHEM_MMFF94_ENERGY>  (1) 
16.4826

>  <PUBCHEM_FEATURE_SELFOVERLAP>  (1) 
15.223

>  <PUBCHEM_SHAPE_FINGERPRINT>  (1) 
11062470 55 13767921342767262950
12932764 1 17131538475733320630
14325111 11 18409166593225263238
15775835 57 18340779130446645776
16945 1 18336837462954897098
19973954 147 18339645512472723652
200 152 18336254704506974207
20201158 50 18113900493680932651
20559304 39 18410009940519433098
20653091 64 18187080603639626538
20871998 184 18131068195348826517
21501502 16 18264492788970955506
23402539 116 18272359897472757582
23552423 10 18261676952445449130
25610 137 18336269032538673619
2748010 2 18196657289392348542
5084963 1 17894630340193280822
8030462 33 18188221935126567278

>  <PUBCHEM_SHAPE_MULTIPOLES>  (1) 
220.26
5.51
1.8
0.7
1.04
0.78
-0.01
-1.45
-0.01
0.52
-0.26
-0.14
0.01
-0.51

>  <PUBCHEM_SHAPE_SELFOVERLAP>  (1) 
446.365

>  <PUBCHEM_SHAPE_VOLUME>  (1) 
127.8

>  <PUBCHEM_COORDINATE_TYPE>  (1) 
2
5
10

$$$$
