34185
     RDKit          3D

 10 11  0  0  0  0  0  0  0  0999 V2000
   -1.6643   -1.3799    0.0831 N   0  0  0  0  0  0  0  0  0  0  0  0
    3.2001   -0.6928   -0.0129 N   0  0  0  0  0  0  0  0  0  0  0  0
   -2.1929    0.9766    0.0888 C   0  0  0  0  0  0  0  0  0  0  0  0
   -0.7216    0.7315    0.0105 C   0  0  0  0  0  0  0  0  0  0  0  0
   -2.7541   -0.4412   -0.1545 C   0  0  0  0  0  0  0  0  0  0  0  0
   -0.4827   -0.6451    0.0050 C   0  0  0  0  0  0  0  0  0  0  0  0
    0.3143    1.6483   -0.0055 C   0  0  0  0  0  0  0  0  0  0  0  0
    0.8111   -1.1355    0.0171 C   0  0  0  0  0  0  0  0  0  0  0  0
    1.8685   -0.2220   -0.0086 C   0  0  0  0  0  0  0  0  0  0  0  0
    1.6216    1.1602   -0.0231 C   0  0  0  0  0  0  0  0  0  0  0  0
  1  5  1  0
  1  6  1  0
  2  9  1  0
  3  4  1  0
  3  5  1  0
  4  6  2  0
  4  7  1  0
  6  8  1  0
  7 10  2  0
  8  9  2  0
  9 10  1  0
M  END
>  <PUBCHEM_COMPOUND_CID>  (1) 
34185

>  <PUBCHEM_CONFORMER_RMSD>  (1) 
0.4

>  <PUBCHEM_CONFORMER_DIVERSEORDER>  (1) 
1

>  <PUBCHEM_MMFF94_PARTIAL_CHARGES>  (1) 
16
1 -0.87
10 -0.15
15 0.4
16 0.15
17 0.15
18 0.15
19 0.4
2 -0.9
20 0.4
3 0.14
4 -0.14
5 0.37
6 0.1
7 -0.15
8 -0.15
9 0.1

>  <PUBCHEM_EFFECTIVE_ROTOR_COUNT>  (1) 
0.6

>  <PUBCHEM_PHARMACOPHORE_FEATURES>  (1) 
6
1 1 cation
1 1 donor
1 2 cation
1 2 donor
5 1 3 4 5 6 rings
6 4 6 7 8 9 10 rings

>  <PUBCHEM_HEAVY_ATOM_COUNT>  (1) 
10

>  <PUBCHEM_ATOM_DEF_STEREO_COUNT>  (1) 
0

>  <PUBCHEM_ATOM_UDEF_STEREO_COUNT>  (1) 
0

>  <PUBCHEM_BOND_DEF_STEREO_COUNT>  (1) 
0

>  <PUBCHEM_BOND_UDEF_STEREO_COUNT>  (1) 
0

>  <PUBCHEM_ISOTOPIC_ATOM_COUNT>  (1) 
0

>  <PUBCHEM_COMPONENT_COUNT>  (1) 
1

>  <PUBCHEM_CACTVS_TAUTO_COUNT>  (1) 
1

>  <PUBCHEM_CONFORMER_ID>  (1) 
0000858900000001

>  <PUBCHEM_MMFF94_ENERGY>  (1) 
47.0269

>  <PUBCHEM_FEATURE_SELFOVERLAP>  (1) 
30.537

>  <PUBCHEM_SHAPE_FINGERPRINT>  (1) 
10857977 72 18340474625786358434
12897270 3 18409446994359884215
14128692 85 18340770428652675020
14325111 11 18410855477339926340
16945 1 18410013204188208297
18185500 45 18409729534467359195
193761 8 17762055845153237186
19973954 147 18337674234095103985
20201158 50 18411697664597397967
21040471 1 18122343750797145572
23402655 69 18123450715122076405
23552423 10 18188772871750396030
2748010 2 18338233898245465724
29004967 10 18411984671475901794
369184 2 18411979161048672217
5084963 1 18343301487297968529
528886 8 18339356366631661953

>  <PUBCHEM_SHAPE_MULTIPOLES>  (1) 
195.83
3.74
1.58
0.6
0.41
0.25
0
-0.67
-0.07
0
0.02
-0.02
0.02
-0.03

>  <PUBCHEM_SHAPE_SELFOVERLAP>  (1) 
423.401

>  <PUBCHEM_SHAPE_VOLUME>  (1) 
109.2

>  <PUBCHEM_COORDINATE_TYPE>  (1) 
2
5
10

$$$$
