34182
     RDKit          3D

 12 12  0  0  1  0  0  0  0  0999 V2000
    2.2549    0.6739    1.8385 O   0  0  0  0  0  0  0  0  0  0  0  0
   -1.6497   -2.5323    0.3261 O   0  0  0  0  0  0  0  0  0  0  0  0
   -0.4021    1.1943   -0.2849 N   0  0  0  0  0  0  0  0  0  0  0  0
    0.1112   -1.1071   -0.0942 N   0  0  0  0  0  0  0  0  0  0  0  0
    1.9247    0.4272   -0.5315 C   0  0  0  0  0  0  0  0  0  0  0  0
    0.4681    0.1306   -0.2915 C   0  0  0  0  0  0  0  0  0  0  0  0
    2.7296   -0.0124    0.6853 C   0  0  0  0  0  0  0  0  0  0  0  0
    2.3706   -0.3012   -1.7897 C   0  0  0  0  0  0  0  0  0  0  0  0
   -1.7425    0.9900   -0.0652 C   0  0  0  0  0  0  0  0  0  0  0  0
   -2.1982   -0.2550    0.1445 C   0  0  0  0  0  0  0  0  0  0  0  0
   -1.2260   -1.3953    0.1334 C   0  0  0  0  0  0  0  0  0  0  0  0
   -2.6405    2.1872   -0.0709 C   0  0  0  0  0  0  0  0  0  0  0  0
  1  7  1  0
  2 11  2  0
  3  6  1  0
  3  9  1  0
  4  6  2  0
  4 11  1  0
  5  6  1  0
  5  7  1  0
  5  8  1  0
  9 10  2  0
  9 12  1  0
 10 11  1  0
M  END
>  <PUBCHEM_COMPOUND_CID>  (1) 
34182

>  <PUBCHEM_CONFORMER_RMSD>  (1) 
0.6

>  <PUBCHEM_CONFORMER_DIVERSEORDER>  (1) 
2
9
7
1
6
4
8
3
5

>  <PUBCHEM_MMFF94_PARTIAL_CHARGES>  (1) 
14
1 -0.68
10 -0.14
11 0.77
12 0.14
19 0.4
2 -0.57
20 0.15
24 0.4
3 -0.55
4 -0.66
5 0.06
6 0.44
7 0.28
9 -0.04

>  <PUBCHEM_EFFECTIVE_ROTOR_COUNT>  (1) 
2

>  <PUBCHEM_PHARMACOPHORE_FEATURES>  (1) 
7
1 1 acceptor
1 1 donor
1 2 acceptor
1 3 donor
1 4 donor
1 8 hydrophobe
6 3 4 6 9 10 11 rings

>  <PUBCHEM_HEAVY_ATOM_COUNT>  (1) 
12

>  <PUBCHEM_ATOM_DEF_STEREO_COUNT>  (1) 
0

>  <PUBCHEM_ATOM_UDEF_STEREO_COUNT>  (1) 
1

>  <PUBCHEM_BOND_DEF_STEREO_COUNT>  (1) 
0

>  <PUBCHEM_BOND_UDEF_STEREO_COUNT>  (1) 
0

>  <PUBCHEM_ISOTOPIC_ATOM_COUNT>  (1) 
0

>  <PUBCHEM_COMPONENT_COUNT>  (1) 
1

>  <PUBCHEM_CACTVS_TAUTO_COUNT>  (1) 
6

>  <PUBCHEM_CONFORMER_ID>  (1) 
0000858600000002

>  <PUBCHEM_MMFF94_ENERGY>  (1) 
24.2453

>  <PUBCHEM_FEATURE_SELFOVERLAP>  (1) 
35.558

>  <PUBCHEM_SHAPE_FINGERPRINT>  (1) 
10857977 72 18197779014448632378
124424 183 17917140599242229498
12716758 59 18340775848885623767
12932741 1 17917718993444457580
12932764 1 17704078416642610118
13538477 17 17967817188312473503
13898156 1 17748827453324266006
16945 1 18408890663209567823
18380122 1 17844527927509280266
20645464 45 18202559566568097984
20711985 344 18263378034393697191
20871998 184 18271247247666753455
21040471 1 18336551499505162749
21930827 45 18340496594396436148
23552423 10 17608379265270625629
23559900 14 18198637540896082126
25610 171 18340482386697349313
2748010 2 18192442865966209967
3071541 236 18260819411006812251
5084963 1 18200891615918450149
7364860 26 17549815591199258271
77492 1 17458067088232560972
81228 2 18339366378543411195
88987 49 18408042918248734156

>  <PUBCHEM_SHAPE_MULTIPOLES>  (1) 
225.25
4.16
1.94
1.19
0.76
0.74
-0.07
-1.25
-0.1
-1.97
-0.14
1.35
-0.16
0.42

>  <PUBCHEM_SHAPE_SELFOVERLAP>  (1) 
456.093

>  <PUBCHEM_SHAPE_VOLUME>  (1) 
132.3

>  <PUBCHEM_COORDINATE_TYPE>  (1) 
2
5
10

$$$$
