34187
     RDKit          3D

 12 11  0  0  0  0  0  0  0  0999 V2000
    1.9499   -2.1430    0.0027 Cl  0  0  0  0  0  0  0  0  0  0  0  0
   -1.9325    2.1414    0.0062 Cl  0  0  0  0  0  0  0  0  0  0  0  0
    2.2418    1.6474   -0.2288 O   0  0  0  0  0  0  0  0  0  0  0  0
   -2.2714   -1.6449    0.2454 O   0  0  0  0  0  0  0  0  0  0  0  0
    3.5693    0.0521    0.5065 O   0  0  0  0  0  0  0  0  0  0  0  0
   -3.5315   -0.0346   -0.5715 O   0  0  0  0  0  0  0  0  0  0  0  0
    1.6941   -0.4980   -0.5905 N   0  0  0  0  0  0  0  0  0  0  0  0
   -1.6974    0.4945    0.6025 N   0  0  0  0  0  0  0  0  0  0  0  0
    2.5476    0.4613   -0.0580 N   0  0  0  0  0  0  0  0  0  0  0  0
   -2.5623   -0.4553    0.0716 N   0  0  0  0  0  0  0  0  0  0  0  0
    0.2806   -0.1505   -0.6869 C   0  0  0  0  0  0  0  0  0  0  0  0
   -0.2883    0.1297    0.7009 C   0  0  0  0  0  0  0  0  0  0  0  0
  1  7  1  0
  2  8  1  0
  3  9  1  0
  4 10  1  0
  5  9  2  0
  6 10  2  0
  7  9  1  0
  7 11  1  0
  8 10  1  0
  8 12  1  0
 11 12  1  0
M  CHG  4   3  -1   4  -1   9   1  10   1
M  END
>  <PUBCHEM_COMPOUND_CID>  (1) 
34187

>  <PUBCHEM_CONFORMER_RMSD>  (1) 
0.6

>  <PUBCHEM_CONFORMER_DIVERSEORDER>  (1) 
1
92
26
102
3
58
79
105
23
120
12
70
104
78
14
76
32
136
107
56
91
115
41
108
7
90
135
110
100
20
52
73
35
109
30
57
80
5
71
19
25
96
87
133
38
21
40
2
17
44
27
106
66
86
125
116
61
124
9
126
129
123
49
6
113
95
45
117
111
60
77
83
43
39
16
64
15
84
37
4
121
127
65
74
29
101
93
122
51
118
31
81
85
131
134
36
130
112
99
94
63
8
103
54
18
28
50
72
62
34
55
82
24
88
132
42
59
89
10
47
68
128
46
53
22
48
114
33
67
97
13
119
11
98
69
75

>  <PUBCHEM_MMFF94_PARTIAL_CHARGES>  (1) 
12
1 -0.05
10 1.03
11 0.27
12 0.27
2 -0.05
3 -0.52
4 -0.52
5 -0.52
6 -0.52
7 -0.21
8 -0.21
9 1.03

>  <PUBCHEM_EFFECTIVE_ROTOR_COUNT>  (1) 
5

>  <PUBCHEM_PHARMACOPHORE_FEATURES>  (1) 
4
1 3 acceptor
1 4 acceptor
1 5 acceptor
1 6 acceptor

>  <PUBCHEM_HEAVY_ATOM_COUNT>  (1) 
12

>  <PUBCHEM_ATOM_DEF_STEREO_COUNT>  (1) 
0

>  <PUBCHEM_ATOM_UDEF_STEREO_COUNT>  (1) 
0

>  <PUBCHEM_BOND_DEF_STEREO_COUNT>  (1) 
0

>  <PUBCHEM_BOND_UDEF_STEREO_COUNT>  (1) 
0

>  <PUBCHEM_ISOTOPIC_ATOM_COUNT>  (1) 
0

>  <PUBCHEM_COMPONENT_COUNT>  (1) 
1

>  <PUBCHEM_CACTVS_TAUTO_COUNT>  (1) 
1

>  <PUBCHEM_CONFORMER_ID>  (1) 
0000858B00000001

>  <PUBCHEM_MMFF94_ENERGY>  (1) 
25.6588

>  <PUBCHEM_FEATURE_SELFOVERLAP>  (1) 
20.458

>  <PUBCHEM_SHAPE_FINGERPRINT>  (1) 
11062470 55 17531243980364217596
12162725 195 18408323280644460956
12716758 59 18265899051484359521
12897270 3 18411705417092267557
12932764 1 18268166265624368610
14325111 11 18412827975704483936
15310529 11 18272647918237875543
16945 1 18409741667734126592
19973954 147 18339086994762346332
20201158 50 18410855468786811139
21501502 16 18267868289420398885
23402539 116 18338504297123973501
23552423 10 18337399248692632347
3248919 1 17604445023619232030
5084963 1 18130517396021506560
57812782 119 18412542124092834144
8030462 33 18263377931150776479

>  <PUBCHEM_SHAPE_MULTIPOLES>  (1) 
207.29
5.35
1.98
0.76
0.07
0
0
-0.01
-0.03
0
0.01
-0.02
0
0

>  <PUBCHEM_SHAPE_SELFOVERLAP>  (1) 
376.457

>  <PUBCHEM_SHAPE_VOLUME>  (1) 
135.8

>  <PUBCHEM_COORDINATE_TYPE>  (1) 
2
5
10

$$$$
