34199
     RDKit          3D

 34 38  0  0  0  0  0  0  0  0999 V2000
    0.5156   -4.4769   -2.0388 Cl  0  0  0  0  0  0  0  0  0  0  0  0
   -3.8894    3.0246    1.2017 O   0  0  0  0  0  0  0  0  0  0  0  0
   -4.5200    0.0970   -0.2020 N   0  0  0  0  0  0  0  0  0  0  0  0
   -0.5053    1.4274   -0.1286 N   0  0  0  0  0  0  0  0  0  0  0  0
   -4.9014    2.8002   -0.8525 N   0  0  0  0  0  0  0  0  0  0  0  0
    2.6909   -0.0154   -0.6467 N   0  0  0  0  0  0  0  0  0  0  0  0
   -3.4203    1.0540   -0.0822 C   0  0  0  0  0  0  0  0  0  0  0  0
   -2.5193    0.6671    1.0971 C   0  0  0  0  0  0  0  0  0  0  0  0
   -2.6124    1.0853   -1.3856 C   0  0  0  0  0  0  0  0  0  0  0  0
   -1.2379    1.5080    1.1418 C   0  0  0  0  0  0  0  0  0  0  0  0
   -1.3273    1.9100   -1.2461 C   0  0  0  0  0  0  0  0  0  0  0  0
   -4.0046   -1.2395   -0.5306 C   0  0  0  0  0  0  0  0  0  0  0  0
   -5.3155    0.0706    1.0335 C   0  0  0  0  0  0  0  0  0  0  0  0
   -5.1455   -2.2425   -0.7079 C   0  0  0  0  0  0  0  0  0  0  0  0
   -6.4994   -0.8895    0.9071 C   0  0  0  0  0  0  0  0  0  0  0  0
   -4.0762    2.3886    0.1672 C   0  0  0  0  0  0  0  0  0  0  0  0
   -6.0378   -2.2917    0.5272 C   0  0  0  0  0  0  0  0  0  0  0  0
    0.7434    2.1852   -0.0477 C   0  0  0  0  0  0  0  0  0  0  0  0
    1.5677    2.0699   -1.3337 C   0  0  0  0  0  0  0  0  0  0  0  0
    1.9390    0.6401   -1.7252 C   0  0  0  0  0  0  0  0  0  0  0  0
    2.2291   -1.2933   -0.2412 C   0  0  0  0  0  0  0  0  0  0  0  0
    3.9475    0.5529   -0.3173 C   0  0  0  0  0  0  0  0  0  0  0  0
    2.3421   -1.7554    1.0858 C   0  0  0  0  0  0  0  0  0  0  0  0
    4.4709    0.5315    0.9915 C   0  0  0  0  0  0  0  0  0  0  0  0
    1.6511   -2.1724   -1.1886 C   0  0  0  0  0  0  0  0  0  0  0  0
    4.7428    1.1492   -1.3256 C   0  0  0  0  0  0  0  0  0  0  0  0
    2.8216   -0.9332    2.2021 C   0  0  0  0  0  0  0  0  0  0  0  0
    3.7321    0.0448    2.1618 C   0  0  0  0  0  0  0  0  0  0  0  0
    1.8753   -3.0432    1.4237 C   0  0  0  0  0  0  0  0  0  0  0  0
    5.7342    1.1024    1.2527 C   0  0  0  0  0  0  0  0  0  0  0  0
    1.2030   -3.4484   -0.8425 C   0  0  0  0  0  0  0  0  0  0  0  0
    5.9962    1.7011   -1.0548 C   0  0  0  0  0  0  0  0  0  0  0  0
    1.3162   -3.8852    0.4669 C   0  0  0  0  0  0  0  0  0  0  0  0
    6.4936    1.6767    0.2375 C   0  0  0  0  0  0  0  0  0  0  0  0
  1 31  1  0
  2 16  2  0
  3  7  1  0
  3 12  1  0
  3 13  1  0
  4 10  1  0
  4 11  1  0
  4 18  1  0
  5 16  1  0
  6 20  1  0
  6 21  1  0
  6 22  1  0
  7  8  1  0
  7  9  1  0
  7 16  1  0
  8 10  1  0
  9 11  1  0
 12 14  1  0
 13 15  1  0
 14 17  1  0
 15 17  1  0
 18 19  1  0
 19 20  1  0
 21 23  1  0
 21 25  2  0
 22 24  2  0
 22 26  1  0
 23 27  1  0
 23 29  2  0
 24 28  1  0
 24 30  1  0
 25 31  1  0
 26 32  2  0
 27 28  2  0
 29 33  1  0
 30 34  2  0
 31 33  2  0
 32 34  1  0
M  END
>  <PUBCHEM_COMPOUND_CID>  (1) 
34199

>  <PUBCHEM_CONFORMER_RMSD>  (1) 
1

>  <PUBCHEM_CONFORMER_DIVERSEORDER>  (1) 
1
23
119
32
97
58
116
59
57
36
114
60
122
126
110
64
81
78
31
42
82
124
109
111
14
77
66
38
104
46
47
51
16
72
105
68
96
44
41
71
108
74
125
6
37
53
61
100
107
20
25
24
27
121
86
13
65
112
101
113
34
67
118
98
79
45
83
43
73
87
120
30
54
75
115
127
70
62
88
56
99
85
89
80
5
95
18
4
94
10
28
63
19
35
33
39
76
40
9
48
106
22
7
52
29
8
11
90
102
26
50
84
21
69
123
49
91
17
93
12
3
55
103
92
2
117
15

>  <PUBCHEM_MMFF94_PARTIAL_CHARGES>  (1) 
39
1 -0.18
10 0.27
11 0.27
12 0.27
13 0.27
16 0.57
18 0.27
2 -0.57
20 0.37
21 0.1
22 0.1
23 0.03
24 0.03
25 -0.15
26 -0.15
27 -0.18
28 -0.18
29 -0.15
3 -0.81
30 -0.15
31 0.18
32 -0.15
33 -0.15
34 -0.15
4 -0.81
5 -0.8
57 0.37
58 0.37
6 -0.57
61 0.15
62 0.15
63 0.15
64 0.15
65 0.15
66 0.15
67 0.15
68 0.15
69 0.15
7 0.33

>  <PUBCHEM_EFFECTIVE_ROTOR_COUNT>  (1) 
8.6

>  <PUBCHEM_PHARMACOPHORE_FEATURES>  (1) 
10
1 2 acceptor
1 3 cation
1 4 cation
1 5 donor
1 6 cation
6 21 23 25 29 31 33 rings
6 22 24 26 30 32 34 rings
6 3 12 13 14 15 17 rings
6 4 7 8 9 10 11 rings
7 6 21 22 23 24 27 28 rings

>  <PUBCHEM_HEAVY_ATOM_COUNT>  (1) 
34

>  <PUBCHEM_ATOM_DEF_STEREO_COUNT>  (1) 
0

>  <PUBCHEM_ATOM_UDEF_STEREO_COUNT>  (1) 
0

>  <PUBCHEM_BOND_DEF_STEREO_COUNT>  (1) 
0

>  <PUBCHEM_BOND_UDEF_STEREO_COUNT>  (1) 
0

>  <PUBCHEM_ISOTOPIC_ATOM_COUNT>  (1) 
0

>  <PUBCHEM_COMPONENT_COUNT>  (1) 
1

>  <PUBCHEM_CACTVS_TAUTO_COUNT>  (1) 
2

>  <PUBCHEM_CONFORMER_ID>  (1) 
0000859700000001

>  <PUBCHEM_MMFF94_ENERGY>  (1) 
115.3587

>  <PUBCHEM_FEATURE_SELFOVERLAP>  (1) 
50.763

>  <PUBCHEM_SHAPE_FINGERPRINT>  (1) 
10675989 125 15817908357692802407
11421498 54 17988653943377310888
11513181 2 18202286887922768295
12788726 201 17905046203386604350
13583140 156 17988350508412514105
13631057 29 18341612667977268269
1454969 45 18187927326166349748
14840074 17 18262233429724750615
15001296 14 18119526784874374121
15183329 4 10663828489763225760
15297060 5 17917438677962055379
15320295 40 13118550922824047091
15968369 153 17695627737691033822
16992610 120 18189631578882332636
18681886 176 18337394937273974220
19301679 30 18188218702039456747
19377110 9 18260269655108690785
20028762 73 18341055232482644414
20511986 3 18260816073522226809
20764821 26 17901395803265795115
21033648 29 15984814887981291633
21315764 371 18202568396983857688
21344244 181 17987818366517821238
22956985 138 17899128326963956418
23559900 14 17983015544470536479
32027 91 17830729855481986543
340366 18 11386381339074914328
4258327 124 17753062871733086476
437795 51 17702380844004968576
439807 62 17168990170275926531
4403749 210 18339065107904742956
4461854 278 18269851967744200827
463206 1 18122908896201892443
6081469 158 13118268267010593376
6086070 43 9367341501539322305
6442390 28 18201716271721053022
6823239 73 18198353848624418327

>  <PUBCHEM_SHAPE_MULTIPOLES>  (1) 
675.78
14.68
4.49
1.85
6.9
4.47
0.18
-4.88
2.76
1.1
-1.31
-1.34
0.49
-0.6

>  <PUBCHEM_SHAPE_SELFOVERLAP>  (1) 
1447.726

>  <PUBCHEM_SHAPE_VOLUME>  (1) 
370.6

>  <PUBCHEM_COORDINATE_TYPE>  (1) 
2
5
10

$$$$
