34197
     RDKit          3D

 16 16  0  0  0  0  0  0  0  0999 V2000
    0.5609    3.2420    0.0008 Cl  0  0  0  0  0  0  0  0  0  0  0  0
    1.7187   -2.3665   -1.0976 O   0  0  0  0  0  0  0  0  0  0  0  0
    1.7180   -2.3676    1.0976 O   0  0  0  0  0  0  0  0  0  0  0  0
    2.9265    0.8754    1.0967 O   0  0  0  0  0  0  0  0  0  0  0  0
    2.9244    0.8776   -1.0985 O   0  0  0  0  0  0  0  0  0  0  0  0
   -3.6224   -1.3982   -0.0006 O   0  0  0  0  0  0  0  0  0  0  0  0
   -4.0086    0.7628    0.0001 O   0  0  0  0  0  0  0  0  0  0  0  0
    1.3416   -1.8952    0.0001 N   0  0  0  0  0  0  0  0  0  0  0  0
    2.3336    0.7740   -0.0004 N   0  0  0  0  0  0  0  0  0  0  0  0
   -3.2170   -0.2108   -0.0004 N   0  0  0  0  0  0  0  0  0  0  0  0
    0.4532   -0.7820    0.0003 C   0  0  0  0  0  0  0  0  0  0  0  0
    0.9273    0.5299    0.0009 C   0  0  0  0  0  0  0  0  0  0  0  0
   -1.8191    0.0389   -0.0001 C   0  0  0  0  0  0  0  0  0  0  0  0
   -0.9200   -1.0274   -0.0002 C   0  0  0  0  0  0  0  0  0  0  0  0
    0.0281    1.5963    0.0009 C   0  0  0  0  0  0  0  0  0  0  0  0
   -1.3451    1.3507    0.0003 C   0  0  0  0  0  0  0  0  0  0  0  0
  1 15  1  0
  2  8  1  0
  3  8  2  0
  4  9  1  0
  5  9  2  0
  6 10  1  0
  7 10  2  0
  8 11  1  0
  9 12  1  0
 10 13  1  0
 11 12  2  0
 11 14  1  0
 12 15  1  0
 13 14  2  0
 13 16  1  0
 15 16  2  0
M  CHG  6   2  -1   4  -1   6  -1   8   1   9   1  10   1
M  END
>  <PUBCHEM_COMPOUND_CID>  (1) 
34197

>  <PUBCHEM_CONFORMER_RMSD>  (1) 
0.6

>  <PUBCHEM_CONFORMER_DIVERSEORDER>  (1) 
1

>  <PUBCHEM_MMFF94_PARTIAL_CHARGES>  (1) 
18
1 -0.18
10 0.91
11 0.13
12 0.13
13 0.13
14 -0.15
15 0.18
16 -0.15
17 0.15
18 0.15
2 -0.52
3 -0.52
4 -0.52
5 -0.52
6 -0.52
7 -0.52
8 0.91
9 0.91

>  <PUBCHEM_EFFECTIVE_ROTOR_COUNT>  (1) 
3

>  <PUBCHEM_PHARMACOPHORE_FEATURES>  (1) 
10
1 2 acceptor
1 2 anion
1 3 acceptor
1 4 acceptor
1 4 anion
1 5 acceptor
1 6 acceptor
1 6 anion
1 7 acceptor
6 11 12 13 14 15 16 rings

>  <PUBCHEM_HEAVY_ATOM_COUNT>  (1) 
16

>  <PUBCHEM_ATOM_DEF_STEREO_COUNT>  (1) 
0

>  <PUBCHEM_ATOM_UDEF_STEREO_COUNT>  (1) 
0

>  <PUBCHEM_BOND_DEF_STEREO_COUNT>  (1) 
0

>  <PUBCHEM_BOND_UDEF_STEREO_COUNT>  (1) 
0

>  <PUBCHEM_ISOTOPIC_ATOM_COUNT>  (1) 
0

>  <PUBCHEM_COMPONENT_COUNT>  (1) 
1

>  <PUBCHEM_CACTVS_TAUTO_COUNT>  (1) 
1

>  <PUBCHEM_CONFORMER_ID>  (1) 
0000859500000001

>  <PUBCHEM_MMFF94_ENERGY>  (1) 
56.0262

>  <PUBCHEM_FEATURE_SELFOVERLAP>  (1) 
50.995

>  <PUBCHEM_SHAPE_FINGERPRINT>  (1) 
10967382 1 18338799034469128865
10980938 120 18412263934850507455
13140716 1 18050286161370754953
13380535 76 18336542823745493579
13380536 305 18194126445453585420
161256 15 18269276768316119788
16945 1 18338517542460372005
193761 8 18050285864754422884
20588541 1 18335143124005077077
20645476 183 17533790565775274212
20645477 70 18339920425330600823
20711985 365 18048594820461211405
21501502 16 18195251013915090161
23184049 29 18049155566779573994
2334 1 18338517430812334313
23402539 116 18271802484412812164
23419403 2 15885655337288193608
23463225 33 18334850619605091480
23552423 10 18189341168927590311
23557571 272 17409092396775517702
23559900 14 16686254675147577022
2748010 2 18266736879276315453
53812653 166 18342733048461057401
7364860 26 18201155447438787398
81228 2 17690561888384784977

>  <PUBCHEM_SHAPE_MULTIPOLES>  (1) 
280.98
4.81
2.89
0.82
3.89
0.52
0
-0.44
0
-1.45
0
-0.58
-0.18
0

>  <PUBCHEM_SHAPE_SELFOVERLAP>  (1) 
588.462

>  <PUBCHEM_SHAPE_VOLUME>  (1) 
161.4

>  <PUBCHEM_COORDINATE_TYPE>  (1) 
2
5
10

$$$$
