34195
     RDKit          3D

 16 16  0  0  0  0  0  0  0  0999 V2000
   -1.4651    2.2771    0.0000 Cl  0  0  0  0  0  0  0  0  0  0  0  0
    1.8372    2.0397    1.0974 O   0  0  0  0  0  0  0  0  0  0  0  0
    1.8362    2.0398   -1.0979 O   0  0  0  0  0  0  0  0  0  0  0  0
    3.0756   -1.1840   -1.0982 O   0  0  0  0  0  0  0  0  0  0  0  0
    3.0768   -1.1839    1.0971 O   0  0  0  0  0  0  0  0  0  0  0  0
   -3.6979   -0.2048    1.0970 O   0  0  0  0  0  0  0  0  0  0  0  0
   -3.6967   -0.2063   -1.0982 O   0  0  0  0  0  0  0  0  0  0  0  0
    1.4600    1.5731   -0.0001 N   0  0  0  0  0  0  0  0  0  0  0  0
    2.4815   -1.0802   -0.0003 N   0  0  0  0  0  0  0  0  0  0  0  0
   -3.0972   -0.2728   -0.0003 N   0  0  0  0  0  0  0  0  0  0  0  0
    0.5634    0.4614    0.0004 C   0  0  0  0  0  0  0  0  0  0  0  0
    1.0785   -0.8349    0.0005 C   0  0  0  0  0  0  0  0  0  0  0  0
   -1.6818   -0.4310    0.0007 C   0  0  0  0  0  0  0  0  0  0  0  0
   -0.8169    0.6634    0.0006 C   0  0  0  0  0  0  0  0  0  0  0  0
    0.2134   -1.9292    0.0006 C   0  0  0  0  0  0  0  0  0  0  0  0
   -1.1668   -1.7273    0.0008 C   0  0  0  0  0  0  0  0  0  0  0  0
  1 14  1  0
  2  8  1  0
  3  8  2  0
  4  9  1  0
  5  9  2  0
  6 10  1  0
  7 10  2  0
  8 11  1  0
  9 12  1  0
 10 13  1  0
 11 12  2  0
 11 14  1  0
 12 15  1  0
 13 14  2  0
 13 16  1  0
 15 16  2  0
M  CHG  6   2  -1   4  -1   6  -1   8   1   9   1  10   1
M  END
>  <PUBCHEM_COMPOUND_CID>  (1) 
34195

>  <PUBCHEM_CONFORMER_RMSD>  (1) 
0.6

>  <PUBCHEM_CONFORMER_DIVERSEORDER>  (1) 
1
2
3

>  <PUBCHEM_MMFF94_PARTIAL_CHARGES>  (1) 
18
1 -0.18
10 0.91
11 0.13
12 0.13
13 0.13
14 0.18
15 -0.15
16 -0.15
17 0.15
18 0.15
2 -0.52
3 -0.52
4 -0.52
5 -0.52
6 -0.52
7 -0.52
8 0.91
9 0.91

>  <PUBCHEM_EFFECTIVE_ROTOR_COUNT>  (1) 
3

>  <PUBCHEM_PHARMACOPHORE_FEATURES>  (1) 
10
1 2 acceptor
1 2 anion
1 3 acceptor
1 4 acceptor
1 4 anion
1 5 acceptor
1 6 acceptor
1 6 anion
1 7 acceptor
6 11 12 13 14 15 16 rings

>  <PUBCHEM_HEAVY_ATOM_COUNT>  (1) 
16

>  <PUBCHEM_ATOM_DEF_STEREO_COUNT>  (1) 
0

>  <PUBCHEM_ATOM_UDEF_STEREO_COUNT>  (1) 
0

>  <PUBCHEM_BOND_DEF_STEREO_COUNT>  (1) 
0

>  <PUBCHEM_BOND_UDEF_STEREO_COUNT>  (1) 
0

>  <PUBCHEM_ISOTOPIC_ATOM_COUNT>  (1) 
0

>  <PUBCHEM_COMPONENT_COUNT>  (1) 
1

>  <PUBCHEM_CACTVS_TAUTO_COUNT>  (1) 
1

>  <PUBCHEM_CONFORMER_ID>  (1) 
0000859300000001

>  <PUBCHEM_MMFF94_ENERGY>  (1) 
59.0331

>  <PUBCHEM_FEATURE_SELFOVERLAP>  (1) 
50.995

>  <PUBCHEM_SHAPE_FINGERPRINT>  (1) 
10353120 184 18337680719400873039
10967382 1 18410575131944655425
11206711 2 18264770965386377021
12382932 28 18194392527267208721
12423570 1 10393430899275592090
12524768 44 18340207500274446863
13140716 1 18338516451465157539
13380535 21 18120950643853017363
13380535 220 18264777570993681340
13380535 76 18196644314369974138
14181834 199 18339626949645176174
161256 15 18410573993799693884
16945 1 18410573950929291559
18186145 218 18408322203003120319
193761 8 18050286165375818310
20511035 2 18266459991229874238
20645477 70 18412538834638743063
21029758 27 18260839146260328454
21501502 16 18267020754997553479
2334 1 18122062267389054695
23402539 116 18198615537135169430
23552423 10 18189335851905965854
23557571 272 15123792877367674899
2748010 2 18265901452250089847
5084963 1 18131068203886130275
63268167 104 18341611585592723177
7364860 26 18201440332772407968

>  <PUBCHEM_SHAPE_MULTIPOLES>  (1) 
280.98
4.97
2.37
0.94
1.89
1.02
0
-1.02
0
-0.82
0
-0.15
0.09
0

>  <PUBCHEM_SHAPE_SELFOVERLAP>  (1) 
588.146

>  <PUBCHEM_SHAPE_VOLUME>  (1) 
161.8

>  <PUBCHEM_COORDINATE_TYPE>  (1) 
2
5
10

$$$$
