34204
     RDKit          3D

  8  7  0  0  1  0  0  0  0  0999 V2000
   -2.3054   -1.2306   -0.2291 N   0  0  0  0  0  0  0  0  0  0  0  0
    0.5847   -0.4379   -0.7220 C   0  0  0  0  0  0  0  0  0  0  0  0
    2.0539   -0.2299   -0.3071 C   0  0  0  0  0  0  0  0  0  0  0  0
   -0.4107    0.3207    0.1670 C   0  0  0  0  0  0  0  0  0  0  0  0
   -1.8737    0.1661   -0.2856 C   0  0  0  0  0  0  0  0  0  0  0  0
    2.4548    1.2460   -0.3000 C   0  0  0  0  0  0  0  0  0  0  0  0
    2.2933   -0.8371    1.0774 C   0  0  0  0  0  0  0  0  0  0  0  0
   -2.7970    1.0027    0.5993 C   0  0  0  0  0  0  0  0  0  0  0  0
  1  5  1  0
  2  3  1  0
  2  4  1  0
  3  6  1  0
  3  7  1  0
  4  5  1  0
  5  8  1  0
M  END
>  <PUBCHEM_COMPOUND_CID>  (1) 
34204

>  <PUBCHEM_CONFORMER_RMSD>  (1) 
0.6

>  <PUBCHEM_CONFORMER_DIVERSEORDER>  (1) 
4
1
5
3
2
6

>  <PUBCHEM_MMFF94_PARTIAL_CHARGES>  (1) 
4
1 -0.99
24 0.36
25 0.36
5 0.27

>  <PUBCHEM_EFFECTIVE_ROTOR_COUNT>  (1) 
3

>  <PUBCHEM_PHARMACOPHORE_FEATURES>  (1) 
3
1 1 cation
1 1 donor
3 3 6 7 hydrophobe

>  <PUBCHEM_HEAVY_ATOM_COUNT>  (1) 
8

>  <PUBCHEM_ATOM_DEF_STEREO_COUNT>  (1) 
0

>  <PUBCHEM_ATOM_UDEF_STEREO_COUNT>  (1) 
1

>  <PUBCHEM_BOND_DEF_STEREO_COUNT>  (1) 
0

>  <PUBCHEM_BOND_UDEF_STEREO_COUNT>  (1) 
0

>  <PUBCHEM_ISOTOPIC_ATOM_COUNT>  (1) 
0

>  <PUBCHEM_COMPONENT_COUNT>  (1) 
1

>  <PUBCHEM_CACTVS_TAUTO_COUNT>  (1) 
1

>  <PUBCHEM_CONFORMER_ID>  (1) 
0000859C00000004

>  <PUBCHEM_MMFF94_ENERGY>  (1) 
1.2668

>  <PUBCHEM_FEATURE_SELFOVERLAP>  (1) 
15.223

>  <PUBCHEM_SHAPE_FINGERPRINT>  (1) 
10857977 72 17703220819058304515
12932741 1 15554445214693629749
12932764 1 17967816024334034556
14325111 11 18342742935438576548
14390081 3 16558745672634441297
21040471 1 17561359591196313062
23235687 12 18409446959968510356
23552423 10 18334015003410251430
23552449 11 17822280259040822306
29004967 10 16917351437072553842
3248919 1 18201996608045756719
369184 2 18113053831278255765
5084963 1 17703797989706426270

>  <PUBCHEM_SHAPE_MULTIPOLES>  (1) 
159.66
4.65
1.22
0.91
1.12
0.08
-0.12
0.54
-0.68
-0.06
-0.04
-0.25
-0.1
-0.6

>  <PUBCHEM_SHAPE_SELFOVERLAP>  (1) 
280.917

>  <PUBCHEM_SHAPE_VOLUME>  (1) 
105.2

>  <PUBCHEM_COORDINATE_TYPE>  (1) 
2
5
10

$$$$
