34203
     RDKit          3D

  8  7  0  0  1  0  0  0  0  0999 V2000
   -1.3669    1.8750    0.3729 N   0  0  0  0  0  0  0  0  0  0  0  0
   -1.4168    0.5915   -0.3343 C   0  0  0  0  0  0  0  0  0  0  0  0
   -0.0179    0.2495   -0.8827 C   0  0  0  0  0  0  0  0  0  0  0  0
    1.0785    0.1072    0.1802 C   0  0  0  0  0  0  0  0  0  0  0  0
   -2.0264   -0.4650    0.6026 C   0  0  0  0  0  0  0  0  0  0  0  0
    2.4362   -0.1786   -0.4646 C   0  0  0  0  0  0  0  0  0  0  0  0
   -2.2111   -1.8246   -0.0567 C   0  0  0  0  0  0  0  0  0  0  0  0
    3.5243   -0.3551    0.5827 C   0  0  0  0  0  0  0  0  0  0  0  0
  1  2  1  0
  2  3  1  0
  2  5  1  0
  3  4  1  0
  4  6  1  0
  5  7  1  0
  6  8  1  0
M  END
>  <PUBCHEM_COMPOUND_CID>  (1) 
34203

>  <PUBCHEM_CONFORMER_RMSD>  (1) 
0.6

>  <PUBCHEM_CONFORMER_DIVERSEORDER>  (1) 
3
44
21
40
12
15
5
42
13
27
33
10
45
47
6
16
41
37
8
22
1
24
38
2
4
48
34
31
39
18
26
43
11
19
46
14
28
35
17
25
20
30
23
32
36
9
29
7

>  <PUBCHEM_MMFF94_PARTIAL_CHARGES>  (1) 
4
1 -0.99
18 0.36
19 0.36
2 0.27

>  <PUBCHEM_EFFECTIVE_ROTOR_COUNT>  (1) 
4

>  <PUBCHEM_PHARMACOPHORE_FEATURES>  (1) 
4
1 1 cation
1 1 donor
1 7 hydrophobe
1 8 hydrophobe

>  <PUBCHEM_HEAVY_ATOM_COUNT>  (1) 
8

>  <PUBCHEM_ATOM_DEF_STEREO_COUNT>  (1) 
0

>  <PUBCHEM_ATOM_UDEF_STEREO_COUNT>  (1) 
1

>  <PUBCHEM_BOND_DEF_STEREO_COUNT>  (1) 
0

>  <PUBCHEM_BOND_UDEF_STEREO_COUNT>  (1) 
0

>  <PUBCHEM_ISOTOPIC_ATOM_COUNT>  (1) 
0

>  <PUBCHEM_COMPONENT_COUNT>  (1) 
1

>  <PUBCHEM_CACTVS_TAUTO_COUNT>  (1) 
1

>  <PUBCHEM_CONFORMER_ID>  (1) 
0000859B00000003

>  <PUBCHEM_MMFF94_ENERGY>  (1) 
-4.8666

>  <PUBCHEM_FEATURE_SELFOVERLAP>  (1) 
20.297

>  <PUBCHEM_SHAPE_FINGERPRINT>  (1) 
10857977 72 18201153347051781346
12932764 1 17458627762011648900
18342897 69 18408882949480108674
20211469 26 18334284392544332390
20871998 184 18272937141341233431
29004967 10 17775007877601580790
3248919 1 18339638950021139004

>  <PUBCHEM_SHAPE_MULTIPOLES>  (1) 
159.66
4.72
1.48
0.86
4
0.06
-0.05
-1.58
0.83
-1.4
0.12
0.08
0.02
-0.14

>  <PUBCHEM_SHAPE_SELFOVERLAP>  (1) 
277.484

>  <PUBCHEM_SHAPE_VOLUME>  (1) 
106.8

>  <PUBCHEM_COORDINATE_TYPE>  (1) 
2
5
10

$$$$
