34206
     RDKit          3D

 20 22  0  0  0  0  0  0  0  0999 V2000
    3.3032   -4.1536   -0.1498 Cl  0  0  0  0  0  0  0  0  0  0  0  0
    0.2409   -1.5450    0.0163 N   0  0  0  0  0  0  0  0  0  0  0  0
    0.7109   -0.5811    1.0285 C   0  0  0  0  0  0  0  0  0  0  0  0
   -0.6113   -0.9772   -1.0364 C   0  0  0  0  0  0  0  0  0  0  0  0
   -0.4266    2.2545    0.5657 C   0  0  0  0  0  0  0  0  0  0  0  0
   -1.3646    1.9672   -0.6114 C   0  0  0  0  0  0  0  0  0  0  0  0
    1.5452    0.5892    0.5402 C   0  0  0  0  0  0  0  0  0  0  0  0
   -1.9660   -0.5306   -0.5284 C   0  0  0  0  0  0  0  0  0  0  0  0
    1.0150    1.8754    0.3012 C   0  0  0  0  0  0  0  0  0  0  0  0
   -2.3115    0.8210   -0.3337 C   0  0  0  0  0  0  0  0  0  0  0  0
    1.3125   -2.3564   -0.5555 C   0  0  0  0  0  0  0  0  0  0  0  0
    2.9208    0.3748    0.3192 C   0  0  0  0  0  0  0  0  0  0  0  0
   -2.9104   -1.5293   -0.2164 C   0  0  0  0  0  0  0  0  0  0  0  0
    1.8648    2.8820   -0.2011 C   0  0  0  0  0  0  0  0  0  0  0  0
   -3.5883    1.1310    0.1741 C   0  0  0  0  0  0  0  0  0  0  0  0
    1.9832   -3.1763    0.5359 C   0  0  0  0  0  0  0  0  0  0  0  0
    3.7478    1.3871   -0.1654 C   0  0  0  0  0  0  0  0  0  0  0  0
   -4.1718   -1.2024    0.2775 C   0  0  0  0  0  0  0  0  0  0  0  0
    3.2171    2.6404   -0.4343 C   0  0  0  0  0  0  0  0  0  0  0  0
   -4.5108    0.1296    0.4740 C   0  0  0  0  0  0  0  0  0  0  0  0
  1 16  1  0
  2  3  1  0
  2  4  1  0
  2 11  1  0
  3  7  1  0
  4  8  1  0
  5  6  1  0
  5  9  1  0
  6 10  1  0
  7  9  2  0
  7 12  1  0
  8 10  2  0
  8 13  1  0
  9 14  1  0
 10 15  1  0
 11 16  1  0
 12 17  2  0
 13 18  2  0
 14 19  2  0
 15 20  2  0
 17 19  1  0
 18 20  1  0
M  END
>  <PUBCHEM_COMPOUND_CID>  (1) 
34206

>  <PUBCHEM_CONFORMER_RMSD>  (1) 
0.6

>  <PUBCHEM_CONFORMER_DIVERSEORDER>  (1) 
1
12
9
14
4
6
5
3
8
11
13
10
2
7
16
17
15

>  <PUBCHEM_MMFF94_PARTIAL_CHARGES>  (1) 
28
1 -0.29
10 -0.14
11 0.27
12 -0.15
13 -0.15
14 -0.15
15 -0.15
16 0.29
17 -0.15
18 -0.15
19 -0.15
2 -0.81
20 -0.15
3 0.41
31 0.15
32 0.15
33 0.15
34 0.15
37 0.15
38 0.15
39 0.15
4 0.41
40 0.15
5 0.14
6 0.14
7 -0.14
8 -0.14
9 -0.14

>  <PUBCHEM_EFFECTIVE_ROTOR_COUNT>  (1) 
3

>  <PUBCHEM_PHARMACOPHORE_FEATURES>  (1) 
3
1 2 cation
6 7 9 12 14 17 19 rings
6 8 10 13 15 18 20 rings

>  <PUBCHEM_HEAVY_ATOM_COUNT>  (1) 
20

>  <PUBCHEM_ATOM_DEF_STEREO_COUNT>  (1) 
0

>  <PUBCHEM_ATOM_UDEF_STEREO_COUNT>  (1) 
0

>  <PUBCHEM_BOND_DEF_STEREO_COUNT>  (1) 
0

>  <PUBCHEM_BOND_UDEF_STEREO_COUNT>  (1) 
0

>  <PUBCHEM_ISOTOPIC_ATOM_COUNT>  (1) 
0

>  <PUBCHEM_COMPONENT_COUNT>  (1) 
1

>  <PUBCHEM_CACTVS_TAUTO_COUNT>  (1) 
1

>  <PUBCHEM_CONFORMER_ID>  (1) 
0000859E00000001

>  <PUBCHEM_MMFF94_ENERGY>  (1) 
64.5452

>  <PUBCHEM_FEATURE_SELFOVERLAP>  (1) 
15.223

>  <PUBCHEM_SHAPE_FINGERPRINT>  (1) 
10382601 240 18198086766414977425
10411042 1 18050568447817228951
10616163 171 18338236080505499019
10967382 1 18411134766151714692
1100329 8 17763185739406474281
11578080 2 17314499340751106359
11680986 33 18124016949902019520
12011746 2 18337387270703927853
12173636 292 17979068619806650156
12422481 6 17981010095955459882
12592029 89 18339650030588395803
13009979 54 17773318933094106235
13140716 1 18197207264138974296
13221675 6 18339075016283180549
138480 1 18338517413722025526
14223421 5 18334853896797072077
14790565 3 18193847160968685685
15196674 1 18338516472892455853
15209289 33 18197217168444425825
15309172 13 18194402418824882393
16945 1 18337659858866139501
18785283 64 18334016112081811834
19591789 44 18194683897848542998
20028762 73 17551236602436302015
20101258 96 17834407726293171138
20905425 154 18342179903801733516
21029758 27 17980199686601821846
21041028 32 18126003763081396859
21339142 51 17688024211020906127
21421861 104 18335141934172425721
21524375 3 18127411369777347511
221490 88 18336271132651470786
2334 1 18050839219756173205
23366157 5 18187930547244232438
23559900 14 18265043644386479827
23566358 27 18410576184375790663
238 59 17758348102934336949
255183 451 18272090444521712487
2637199 183 18264495155593011100
2748010 2 17907840830472130668
43471831 8 18338795735971077935
4409770 3 16892012899731969766
458136 41 18337403736965092281
6138700 20 18410862036725548494
6442390 28 18050292771024872810
7364860 26 18411419483828974303
81228 2 17191789281630651410

>  <PUBCHEM_SHAPE_MULTIPOLES>  (1) 
408.48
7.1
4.33
0.86
4.51
2.66
0
1.02
0.33
-5.63
-0.23
0.01
0.06
-0.2

>  <PUBCHEM_SHAPE_SELFOVERLAP>  (1) 
858.403

>  <PUBCHEM_SHAPE_VOLUME>  (1) 
228.1

>  <PUBCHEM_COORDINATE_TYPE>  (1) 
2
5
10

$$$$
