34201
     RDKit          3D

 12 13  0  0  0  0  0  0  0  0999 V2000
   -0.2626   -1.7745    0.0020 S   0  0  0  0  0  0  0  0  0  0  0  0
   -2.5646   -0.4519    0.0078 N   0  0  0  0  0  0  0  0  0  0  0  0
   -0.5548    0.7880    0.0038 N   0  0  0  0  0  0  0  0  0  0  0  0
    1.1681   -0.8122   -0.0002 C   0  0  0  0  0  0  0  0  0  0  0  0
    0.8099    0.5393    0.0012 C   0  0  0  0  0  0  0  0  0  0  0  0
   -1.2091   -0.3499    0.0043 C   0  0  0  0  0  0  0  0  0  0  0  0
   -3.4802    0.6835    0.0115 C   0  0  0  0  0  0  0  0  0  0  0  0
    2.5106   -1.2235   -0.0030 C   0  0  0  0  0  0  0  0  0  0  0  0
    1.8337    1.5116   -0.0001 C   0  0  0  0  0  0  0  0  0  0  0  0
   -4.9273    0.2219   -0.0201 C   0  0  0  0  0  0  0  0  0  0  0  0
    3.5042   -0.2413   -0.0043 C   0  0  0  0  0  0  0  0  0  0  0  0
    3.1723    1.1091   -0.0029 C   0  0  0  0  0  0  0  0  0  0  0  0
  1  4  1  0
  1  6  1  0
  2  6  1  0
  2  7  1  0
  3  5  1  0
  3  6  2  0
  4  5  2  0
  4  8  1  0
  5  9  1  0
  7 10  1  0
  8 11  2  0
  9 12  2  0
 11 12  1  0
M  END
>  <PUBCHEM_COMPOUND_CID>  (1) 
34201

>  <PUBCHEM_CONFORMER_RMSD>  (1) 
0.6

>  <PUBCHEM_CONFORMER_DIVERSEORDER>  (1) 
1
5
3
4
2

>  <PUBCHEM_MMFF94_PARTIAL_CHARGES>  (1) 
16
1 -0.08
11 -0.15
12 -0.15
15 0.4
16 0.15
17 0.15
2 -0.85
21 0.15
22 0.15
3 -0.57
4 0.04
5 0.23
6 0.46
7 0.37
8 -0.15
9 -0.15

>  <PUBCHEM_EFFECTIVE_ROTOR_COUNT>  (1) 
2

>  <PUBCHEM_PHARMACOPHORE_FEATURES>  (1) 
4
1 2 donor
3 2 3 6 cation
5 1 3 4 5 6 rings
6 4 5 8 9 11 12 rings

>  <PUBCHEM_HEAVY_ATOM_COUNT>  (1) 
12

>  <PUBCHEM_ATOM_DEF_STEREO_COUNT>  (1) 
0

>  <PUBCHEM_ATOM_UDEF_STEREO_COUNT>  (1) 
0

>  <PUBCHEM_BOND_DEF_STEREO_COUNT>  (1) 
0

>  <PUBCHEM_BOND_UDEF_STEREO_COUNT>  (1) 
0

>  <PUBCHEM_ISOTOPIC_ATOM_COUNT>  (1) 
0

>  <PUBCHEM_COMPONENT_COUNT>  (1) 
1

>  <PUBCHEM_CACTVS_TAUTO_COUNT>  (1) 
2

>  <PUBCHEM_CONFORMER_ID>  (1) 
0000859900000001

>  <PUBCHEM_MMFF94_ENERGY>  (1) 
19.3823

>  <PUBCHEM_FEATURE_SELFOVERLAP>  (1) 
20.368

>  <PUBCHEM_SHAPE_FINGERPRINT>  (1) 
10219947 1 18335423452199081005
10608611 8 18337389451893439609
11062470 55 18131632283436912881
11471102 20 18410571777559373116
12346645 6 18343303647714173158
12932764 1 17168411731757292211
13380535 76 18411982476758585143
13922767 16 18411978052920866072
14251717 144 18412543180681273199
14325111 11 18410575119223270851
14415576 193 18409732837566417253
14897335 6 18341609364588293806
14911166 2 18411991251909248334
14993402 34 18342745108765894326
15775835 57 18411983593449659997
16945 1 18410856581647466946
18186145 218 18411135822882422863
20606313 2 18411699876489601164
20645477 70 18411981317412931495
20871998 22 18053946156713052606
21501502 16 18265610077473884806
23402539 116 18131624591029316117
23402655 69 18342451513845291613
2748010 2 18123194760349966294
4047638 21 18410576192785746850
449060 62 18411421717459699564
4990 188 17988933261926673111
528886 8 18411695513045454130
53812653 166 18340763827572862280
69090 78 18341326764736541495

>  <PUBCHEM_SHAPE_MULTIPOLES>  (1) 
240.84
7.2
1.55
0.61
7.75
0.24
0
-1.55
-0.03
-0.77
0
-0.02
0.02
0

>  <PUBCHEM_SHAPE_SELFOVERLAP>  (1) 
498.094

>  <PUBCHEM_SHAPE_VOLUME>  (1) 
139.9

>  <PUBCHEM_COORDINATE_TYPE>  (1) 
2
5
10

$$$$
