3421
     RDKit          3D

  8  8  0  0  1  0  0  0  0  0999 V2000
   -1.3008   -0.1207   -0.0695 P   0  0  0  0  0  0  0  0  0  0  0  0
    1.1392    1.1814    0.0674 O   0  0  0  0  0  0  0  0  0  0  0  0
   -1.1971   -1.5850   -0.4852 O   0  0  0  0  0  0  0  0  0  0  0  0
   -2.1132    0.2037    1.1805 O   0  0  0  0  0  0  0  0  0  0  0  0
   -1.2477    0.9327   -1.1718 O   0  0  0  0  0  0  0  0  0  0  0  0
    0.3753    0.0996    0.6157 C   0  0  0  0  0  0  0  0  0  0  0  0
    1.4976   -0.1354   -0.3289 C   0  0  0  0  0  0  0  0  0  0  0  0
    2.8468   -0.5763    0.1918 C   0  0  0  0  0  0  0  0  0  0  0  0
  1  3  1  0
  1  4  1  0
  1  5  2  0
  1  6  1  0
  2  6  1  0
  2  7  1  0
  6  7  1  0
  7  8  1  0
M  CHG  2   3  -1   4  -1
M  END
>  <PUBCHEM_COMPOUND_CID>  (1) 
3421

>  <PUBCHEM_CONFORMER_RMSD>  (1) 
0.4

>  <PUBCHEM_CONFORMER_DIVERSEORDER>  (1) 
1
3
2
4

>  <PUBCHEM_MMFF94_PARTIAL_CHARGES>  (1) 
10
1 1.21
10 0.1
2 -0.3
3 -1.03
4 -1.03
5 -1.03
6 -0.06
7 -0.05
8 0.09
9 0.1

>  <PUBCHEM_EFFECTIVE_ROTOR_COUNT>  (1) 
1.6

>  <PUBCHEM_PHARMACOPHORE_FEATURES>  (1) 
5
1 2 acceptor
1 3 acceptor
1 4 acceptor
1 5 acceptor
4 1 3 4 5 anion

>  <PUBCHEM_HEAVY_ATOM_COUNT>  (1) 
8

>  <PUBCHEM_ATOM_DEF_STEREO_COUNT>  (1) 
0

>  <PUBCHEM_ATOM_UDEF_STEREO_COUNT>  (1) 
2

>  <PUBCHEM_BOND_DEF_STEREO_COUNT>  (1) 
0

>  <PUBCHEM_BOND_UDEF_STEREO_COUNT>  (1) 
0

>  <PUBCHEM_ISOTOPIC_ATOM_COUNT>  (1) 
0

>  <PUBCHEM_COMPONENT_COUNT>  (1) 
1

>  <PUBCHEM_CACTVS_TAUTO_COUNT>  (1) 
1

>  <PUBCHEM_CONFORMER_ID>  (1) 
00000D5D00000001

>  <PUBCHEM_MMFF94_ENERGY>  (1) 
9.9215

>  <PUBCHEM_FEATURE_SELFOVERLAP>  (1) 
25.412

>  <PUBCHEM_SHAPE_FINGERPRINT>  (1) 
12932764 1 18333729113829490282
15310529 11 17603596205238340614
16714656 1 18259987045875271095
21040471 1 17559976362492193283
24536 1 17846490482539322384
29004967 10 18336268959693015362
369184 2 14692565503169118478
5084963 1 18339633537882453742

>  <PUBCHEM_SHAPE_MULTIPOLES>  (1) 
145.01
3.23
1.12
0.96
1.52
0.18
-0.03
0.43
-0.35
-0.18
0.2
-0.46
-0.11
-0.01

>  <PUBCHEM_SHAPE_SELFOVERLAP>  (1) 
265.876

>  <PUBCHEM_SHAPE_VOLUME>  (1) 
92.8

>  <PUBCHEM_COORDINATE_TYPE>  (1) 
2
5
10

$$$$
