34210
     RDKit          3D

 17 19  0  0  0  0  0  0  0  0999 V2000
    4.1272    0.5965   -0.0014 O   0  0  0  0  0  0  0  0  0  0  0  0
    1.8000    0.9753   -0.0001 N   0  0  0  0  0  0  0  0  0  0  0  0
   -0.1083   -0.5492   -0.0007 C   0  0  0  0  0  0  0  0  0  0  0  0
   -2.1177   -1.8723    0.0001 C   0  0  0  0  0  0  0  0  0  0  0  0
   -0.6033   -1.8727   -0.0002 C   0  0  0  0  0  0  0  0  0  0  0  0
   -1.2308    0.3642   -0.0007 C   0  0  0  0  0  0  0  0  0  0  0  0
   -2.4260   -0.3897   -0.0002 C   0  0  0  0  0  0  0  0  0  0  0  0
    1.2554   -0.3082   -0.0005 C   0  0  0  0  0  0  0  0  0  0  0  0
    0.2486   -2.9633    0.0004 C   0  0  0  0  0  0  0  0  0  0  0  0
   -1.2721    1.7484   -0.0005 C   0  0  0  0  0  0  0  0  0  0  0  0
   -3.6670    0.2226    0.0004 C   0  0  0  0  0  0  0  0  0  0  0  0
    2.1217   -1.4057    0.0003 C   0  0  0  0  0  0  0  0  0  0  0  0
    1.6233   -2.7199    0.0007 C   0  0  0  0  0  0  0  0  0  0  0  0
   -2.5229    2.3734    0.0000 C   0  0  0  0  0  0  0  0  0  0  0  0
   -3.7082    1.6181    0.0005 C   0  0  0  0  0  0  0  0  0  0  0  0
    3.1530    1.3421    0.0009 C   0  0  0  0  0  0  0  0  0  0  0  0
    3.3271    2.8401    0.0010 C   0  0  0  0  0  0  0  0  0  0  0  0
  1 16  2  0
  2  8  1  0
  2 16  1  0
  3  5  2  0
  3  6  1  0
  3  8  1  0
  4  5  1  0
  4  7  1  0
  5  9  1  0
  6  7  2  0
  6 10  1  0
  7 11  1  0
  8 12  2  0
  9 13  2  0
 10 14  2  0
 11 15  2  0
 12 13  1  0
 14 15  1  0
 16 17  1  0
M  END
>  <PUBCHEM_COMPOUND_CID>  (1) 
34210

>  <PUBCHEM_CONFORMER_RMSD>  (1) 
0.6

>  <PUBCHEM_CONFORMER_DIVERSEORDER>  (1) 
1
2
3

>  <PUBCHEM_MMFF94_PARTIAL_CHARGES>  (1) 
23
1 -0.57
10 -0.15
11 -0.15
12 -0.15
13 -0.15
14 -0.15
15 -0.15
16 0.57
17 0.06
2 -0.55
20 0.15
21 0.15
22 0.15
23 0.15
24 0.15
25 0.15
26 0.15
27 0.37
4 0.29
5 -0.14
7 -0.14
8 0.12
9 -0.15

>  <PUBCHEM_EFFECTIVE_ROTOR_COUNT>  (1) 
2.2

>  <PUBCHEM_PHARMACOPHORE_FEATURES>  (1) 
5
1 1 acceptor
1 2 donor
5 3 4 5 6 7 rings
6 3 5 8 9 12 13 rings
6 6 7 10 11 14 15 rings

>  <PUBCHEM_HEAVY_ATOM_COUNT>  (1) 
17

>  <PUBCHEM_ATOM_DEF_STEREO_COUNT>  (1) 
0

>  <PUBCHEM_ATOM_UDEF_STEREO_COUNT>  (1) 
0

>  <PUBCHEM_BOND_DEF_STEREO_COUNT>  (1) 
0

>  <PUBCHEM_BOND_UDEF_STEREO_COUNT>  (1) 
0

>  <PUBCHEM_ISOTOPIC_ATOM_COUNT>  (1) 
0

>  <PUBCHEM_COMPONENT_COUNT>  (1) 
1

>  <PUBCHEM_CACTVS_TAUTO_COUNT>  (1) 
2

>  <PUBCHEM_CONFORMER_ID>  (1) 
000085A200000001

>  <PUBCHEM_MMFF94_ENERGY>  (1) 
65.0137

>  <PUBCHEM_FEATURE_SELFOVERLAP>  (1) 
25.536

>  <PUBCHEM_SHAPE_FINGERPRINT>  (1) 
10411042 1 17185877186787806731
10608611 8 18264206898841841045
10967382 1 18338798905488169733
12173636 292 18267018543184257500
12390115 104 18198083544905181872
12403260 363 18339066198915509126
13140716 1 18408608037197823155
13380535 76 18409445886300747146
13583140 156 17023170635321822433
138480 1 17906452121722284450
13897977 150 18410009893074397725
14250199 8 18196365910600770453
14648413 74 18265617567691010419
14790565 3 18050017885224449801
15042514 8 17976541933597027554
15442244 35 17907578030013080146
15536298 74 18270399378109293046
16945 1 18266741268843921415
18186145 218 18200886066810180032
193761 8 18410573950955704295
19591789 44 18050852418522632531
20510252 161 18125726930917023016
20671657 1 18267307534274270326
21501502 16 18340198605539763991
21524375 3 18343300392181580190
2334 1 18410575093279413259
23366157 5 18041846099699770546
23402539 116 17983007048861655798
23557571 272 17766294437167913892
23559900 14 18268703913967946122
238 59 17540779864608578197
2748010 2 18337682987338913967
3071541 12 18267589009277536526
3091708 16 9263902758670145538
335352 9 18122343480282817110
350125 39 18410017602224137442
474 4 18410292467394178073
5104073 3 18263932034157383945
5262128 65 17486792782716739966
58051976 378 18413384328313838716
5939293 188 17834108650123282039
6138700 20 18195815068709451934
6333272 397 18410011009597115697
7097593 13 17897420858087694154
7364860 26 18268148652137775486
7832392 63 17476076826560257777
81228 2 17477189996057688146
84936 182 18200870686659335920
9709674 26 18339364063377138799
9981440 41 18336819913692133178

>  <PUBCHEM_SHAPE_MULTIPOLES>  (1) 
339
6.17
3.52
0.61
0.84
0.5
0
-4.48
0
1.43
0
-0.03
0.01
0

>  <PUBCHEM_SHAPE_SELFOVERLAP>  (1) 
752.162

>  <PUBCHEM_SHAPE_VOLUME>  (1) 
183.3

>  <PUBCHEM_COORDINATE_TYPE>  (1) 
2
5
10

$$$$
