34219
     RDKit          3D

 24 24  0  0  0  0  0  0  0  0999 V2000
    8.6016    1.0408   -0.0124 S   0  0  0  0  0  0  0  0  0  0  0  0
    8.2825    2.6440    0.0197 O   0  0  0  0  0  0  0  0  0  0  0  0
    9.2690    0.7159    1.2399 O   0  0  0  0  0  0  0  0  0  0  0  0
    9.2277    0.7307   -1.2884 O   0  0  0  0  0  0  0  0  0  0  0  0
   -4.3880   -0.7083   -0.0330 C   0  0  0  0  0  0  0  0  0  0  0  0
   -3.0313   -0.0123    0.0917 C   0  0  0  0  0  0  0  0  0  0  0  0
   -5.5761    0.2557    0.0411 C   0  0  0  0  0  0  0  0  0  0  0  0
   -1.8825   -1.0196    0.0042 C   0  0  0  0  0  0  0  0  0  0  0  0
   -6.9609   -0.3843   -0.0995 C   0  0  0  0  0  0  0  0  0  0  0  0
   -0.5232   -0.3226    0.0956 C   0  0  0  0  0  0  0  0  0  0  0  0
   -8.1498    0.5731    0.0287 C   0  0  0  0  0  0  0  0  0  0  0  0
    0.6230   -1.3286   -0.0265 C   0  0  0  0  0  0  0  0  0  0  0  0
   -9.5356   -0.0748   -0.0491 C   0  0  0  0  0  0  0  0  0  0  0  0
    2.0119   -0.6811    0.0273 C   0  0  0  0  0  0  0  0  0  0  0  0
  -10.6836    0.9330    0.0371 C   0  0  0  0  0  0  0  0  0  0  0  0
    3.1941   -1.6579   -0.0026 C   0  0  0  0  0  0  0  0  0  0  0  0
  -12.0413    0.2332   -0.0396 C   0  0  0  0  0  0  0  0  0  0  0  0
    4.5437   -0.9850   -0.0047 C   0  0  0  0  0  0  0  0  0  0  0  0
  -13.1864    1.2326    0.0071 C   0  0  0  0  0  0  0  0  0  0  0  0
    5.1544   -0.6511   -1.2135 C   0  0  0  0  0  0  0  0  0  0  0  0
    5.1808   -0.6954    1.2019 C   0  0  0  0  0  0  0  0  0  0  0  0
    6.4022   -0.0276   -1.2158 C   0  0  0  0  0  0  0  0  0  0  0  0
    6.4285   -0.0721    1.1997 C   0  0  0  0  0  0  0  0  0  0  0  0
    7.0393    0.2617   -0.0091 C   0  0  0  0  0  0  0  0  0  0  0  0
  1  2  1  0
  1  3  2  0
  1  4  2  0
  1 24  1  0
  5  6  1  0
  5  7  1  0
  6  8  1  0
  7  9  1  0
  8 10  1  0
  9 11  1  0
 10 12  1  0
 11 13  1  0
 12 14  1  0
 13 15  1  0
 14 16  1  0
 15 17  1  0
 16 18  1  0
 17 19  1  0
 18 20  2  0
 18 21  1  0
 20 22  1  0
 21 23  2  0
 22 24  2  0
 23 24  1  0
M  END
>  <PUBCHEM_COMPOUND_CID>  (1) 
34219

>  <PUBCHEM_CONFORMER_RMSD>  (1) 
1.6

>  <PUBCHEM_CONFORMER_DIVERSEORDER>  (1) 
1
15
26
35
31
32
34
4
11
16
14
25
21
27
10
7
5
20
28
8
3
6
18
13
22
30
33
2
24
9
29
17
19
12
23

>  <PUBCHEM_MMFF94_PARTIAL_CHARGES>  (1) 
16
1 1.49
16 0.14
18 -0.14
2 -0.68
20 -0.15
21 -0.15
22 -0.15
23 -0.15
24 -0.01
3 -0.65
4 -0.65
54 0.15
55 0.15
56 0.15
57 0.15
58 0.5

>  <PUBCHEM_EFFECTIVE_ROTOR_COUNT>  (1) 
14

>  <PUBCHEM_PHARMACOPHORE_FEATURES>  (1) 
6
1 19 hydrophobe
1 2 acceptor
1 3 acceptor
1 4 acceptor
4 1 2 3 4 anion
6 18 20 21 22 23 24 rings

>  <PUBCHEM_HEAVY_ATOM_COUNT>  (1) 
24

>  <PUBCHEM_ATOM_DEF_STEREO_COUNT>  (1) 
0

>  <PUBCHEM_ATOM_UDEF_STEREO_COUNT>  (1) 
0

>  <PUBCHEM_BOND_DEF_STEREO_COUNT>  (1) 
0

>  <PUBCHEM_BOND_UDEF_STEREO_COUNT>  (1) 
0

>  <PUBCHEM_ISOTOPIC_ATOM_COUNT>  (1) 
0

>  <PUBCHEM_COMPONENT_COUNT>  (1) 
1

>  <PUBCHEM_CACTVS_TAUTO_COUNT>  (1) 
1

>  <PUBCHEM_CONFORMER_ID>  (1) 
000085AB00000001

>  <PUBCHEM_MMFF94_ENERGY>  (1) 
18.2171

>  <PUBCHEM_FEATURE_SELFOVERLAP>  (1) 
30.503

>  <PUBCHEM_SHAPE_FINGERPRINT>  (1) 
11211813 74 17560514101584128472
11408170 108 7925641015965792193
11638347 137 12540693721600646344
12498461 61 13479146705732157505
12522641 33 16272210770079571527
12559415 86 14620528788206679771
12664476 115 17967811648923338357
14216079 64 8862949377340085656
14251764 46 17603867793838626307
14251920 17 18412824703409039185
14344974 52 18272088331945577335
14428016 248 18202286892812989329
15061470 23 17894909604565126805
15247644 1 9727636107222176725
155225 1 18411136943694923993
15690457 1 8718828678388574830
1754911 235 17203605995693630349
1818759 1 10807934877382409973
20812841 46 14851608804435336062
21026386 74 12247379234312835114
21095086 128 11312058746820026371
21102433 48 11530482242738669753
21150785 3 17131835378512094310
21362267 2 18338783607470023605
21362267 313 17823691968205754067
246663 6 11095885968990770822
33684 2 10665231450311682219
5381727 24 11386372544110571993
57676310 78 18271821074123234838
58716252 7 15213570163526277256
59520647 119 15554158247165853509
59521099 67 12247671691541702034
59521506 201 16914234464682713880
59584819 99 16878236371952081484
67123 10 18412825781651532831
9663363 56 10519983756284596022
9937071 3 12540696999093697441

>  <PUBCHEM_SHAPE_MULTIPOLES>  (1) 
480.15
51.2
1.4
0.96
120.87
0.44
0.01
26.68
0.4
-2.28
0
-2.37
0
-0.08

>  <PUBCHEM_SHAPE_SELFOVERLAP>  (1) 
918.33

>  <PUBCHEM_SHAPE_VOLUME>  (1) 
294

>  <PUBCHEM_COORDINATE_TYPE>  (1) 
2
5
10

$$$$
