34228
     RDKit          3D

 10 10  0  0  0  0  0  0  0  0999 V2000
   -3.5300    0.0485   -0.2489 O   0  0  0  0  0  0  0  0  0  0  0  0
   -1.9593   -0.0931    1.3843 O   0  0  0  0  0  0  0  0  0  0  0  0
    2.8336   -0.0049    0.3617 N   0  0  0  0  0  0  0  0  0  0  0  0
    0.1712    0.0154   -0.4892 C   0  0  0  0  0  0  0  0  0  0  0  0
   -1.2494    0.0264   -0.9421 C   0  0  0  0  0  0  0  0  0  0  0  0
    0.8326    1.2122   -0.2369 C   0  0  0  0  0  0  0  0  0  0  0  0
    0.8395   -1.1916   -0.3165 C   0  0  0  0  0  0  0  0  0  0  0  0
   -2.2479   -0.0136    0.1981 C   0  0  0  0  0  0  0  0  0  0  0  0
    2.1514    1.1484    0.1829 C   0  0  0  0  0  0  0  0  0  0  0  0
    2.1582   -1.1478    0.1066 C   0  0  0  0  0  0  0  0  0  0  0  0
  1  8  1  0
  2  8  2  0
  3  9  2  0
  3 10  1  0
  4  5  1  0
  4  6  2  0
  4  7  1  0
  5  8  1  0
  6  9  1  0
  7 10  2  0
M  END
>  <PUBCHEM_COMPOUND_CID>  (1) 
34228

>  <PUBCHEM_CONFORMER_RMSD>  (1) 
0.4

>  <PUBCHEM_CONFORMER_DIVERSEORDER>  (1) 
1
7
6
5
2
9
4
3
8

>  <PUBCHEM_MMFF94_PARTIAL_CHARGES>  (1) 
15
1 -0.65
10 0.16
13 0.15
14 0.15
15 0.15
16 0.15
17 0.5
2 -0.57
3 -0.62
4 -0.14
5 0.2
6 -0.15
7 -0.15
8 0.66
9 0.16

>  <PUBCHEM_EFFECTIVE_ROTOR_COUNT>  (1) 
2

>  <PUBCHEM_PHARMACOPHORE_FEATURES>  (1) 
5
1 1 acceptor
1 2 acceptor
1 3 acceptor
3 1 2 8 anion
6 3 4 6 7 9 10 rings

>  <PUBCHEM_HEAVY_ATOM_COUNT>  (1) 
10

>  <PUBCHEM_ATOM_DEF_STEREO_COUNT>  (1) 
0

>  <PUBCHEM_ATOM_UDEF_STEREO_COUNT>  (1) 
0

>  <PUBCHEM_BOND_DEF_STEREO_COUNT>  (1) 
0

>  <PUBCHEM_BOND_UDEF_STEREO_COUNT>  (1) 
0

>  <PUBCHEM_ISOTOPIC_ATOM_COUNT>  (1) 
0

>  <PUBCHEM_COMPONENT_COUNT>  (1) 
1

>  <PUBCHEM_CACTVS_TAUTO_COUNT>  (1) 
1

>  <PUBCHEM_CONFORMER_ID>  (1) 
000085B400000001

>  <PUBCHEM_MMFF94_ENERGY>  (1) 
19.1116

>  <PUBCHEM_FEATURE_SELFOVERLAP>  (1) 
25.43

>  <PUBCHEM_SHAPE_FINGERPRINT>  (1) 
10219947 1 18410855460344439724
10857977 72 17458624548774705189
14390081 3 14045744802897045859
15775835 57 17917711348228792225
16945 1 18411412917208743340
20201158 50 18040714740572626491
20871998 22 17984424027740618686
21040471 1 18196367246309258140
29004967 10 18260267430178234256
5084963 1 17989484108588374799

>  <PUBCHEM_SHAPE_MULTIPOLES>  (1) 
189.08
4.4
1.19
0.9
2.26
0.01
-0.11
0.02
-0.63
-0.85
0.04
0.39
-0.01
0.04

>  <PUBCHEM_SHAPE_SELFOVERLAP>  (1) 
390.024

>  <PUBCHEM_SHAPE_VOLUME>  (1) 
106.9

>  <PUBCHEM_COORDINATE_TYPE>  (1) 
2
5
10

$$$$
