34226
     RDKit          3D

 11 11  0  0  0  0  0  0  0  0999 V2000
    1.2880   -0.3768    0.0161 N   0  0  0  0  0  0  0  0  0  0  0  0
    4.6758   -0.6533   -0.0218 N   0  0  0  0  0  0  0  0  0  0  0  0
   -0.0716   -0.0014    0.0065 C   0  0  0  0  0  0  0  0  0  0  0  0
   -2.4102   -0.6081   -0.0020 C   0  0  0  0  0  0  0  0  0  0  0  0
   -1.0657   -0.9798    0.0058 C   0  0  0  0  0  0  0  0  0  0  0  0
   -0.4219    1.3487   -0.0002 C   0  0  0  0  0  0  0  0  0  0  0  0
   -2.7605    0.7421   -0.0090 C   0  0  0  0  0  0  0  0  0  0  0  0
   -1.7663    1.7204   -0.0080 C   0  0  0  0  0  0  0  0  0  0  0  0
   -3.4733   -1.6536   -0.0033 C   0  0  0  0  0  0  0  0  0  0  0  0
    2.3563    0.5739    0.0192 C   0  0  0  0  0  0  0  0  0  0  0  0
    3.6494   -0.1122   -0.0035 C   0  0  0  0  0  0  0  0  0  0  0  0
  1  3  1  0
  1 10  1  0
  2 11  3  0
  3  5  2  0
  3  6  1  0
  4  5  1  0
  4  7  2  0
  4  9  1  0
  6  8  2  0
  7  8  1  0
 10 11  1  0
M  END
>  <PUBCHEM_COMPOUND_CID>  (1) 
34226

>  <PUBCHEM_CONFORMER_RMSD>  (1) 
0.4

>  <PUBCHEM_CONFORMER_DIVERSEORDER>  (1) 
1
8
10
11
3
9
5
2
7
4
6

>  <PUBCHEM_MMFF94_PARTIAL_CHARGES>  (1) 
16
1 -0.87
10 0.57
11 0.36
12 0.15
13 0.15
14 0.15
15 0.4
16 0.15
2 -0.56
3 0.1
4 -0.14
5 -0.15
6 -0.15
7 -0.15
8 -0.15
9 0.14

>  <PUBCHEM_EFFECTIVE_ROTOR_COUNT>  (1) 
2

>  <PUBCHEM_PHARMACOPHORE_FEATURES>  (1) 
4
1 1 cation
1 1 donor
1 2 acceptor
6 3 4 5 6 7 8 rings

>  <PUBCHEM_HEAVY_ATOM_COUNT>  (1) 
11

>  <PUBCHEM_ATOM_DEF_STEREO_COUNT>  (1) 
0

>  <PUBCHEM_ATOM_UDEF_STEREO_COUNT>  (1) 
0

>  <PUBCHEM_BOND_DEF_STEREO_COUNT>  (1) 
0

>  <PUBCHEM_BOND_UDEF_STEREO_COUNT>  (1) 
0

>  <PUBCHEM_ISOTOPIC_ATOM_COUNT>  (1) 
0

>  <PUBCHEM_COMPONENT_COUNT>  (1) 
1

>  <PUBCHEM_CACTVS_TAUTO_COUNT>  (1) 
1

>  <PUBCHEM_CONFORMER_ID>  (1) 
000085B200000001

>  <PUBCHEM_MMFF94_ENERGY>  (1) 
31.926

>  <PUBCHEM_FEATURE_SELFOVERLAP>  (1) 
20.297

>  <PUBCHEM_SHAPE_FINGERPRINT>  (1) 
12032990 46 18337955704845477659
12932764 1 17458335321714626896
13024252 1 16805608053631262753
14325111 11 18410573972730857344
15219456 202 17917158177936899262
1986462 14 18410858733294194190
20645464 45 17917435297927437341
20871998 184 18201721764683349511
21061003 4 17203608207053291905
23402539 116 18343575249014595231
23559900 14 18342168926651191336
43471831 8 18261669281613279530
573450 72 18188478078692030666
6333449 129 18342174440772137741

>  <PUBCHEM_SHAPE_MULTIPOLES>  (1) 
216.41
6.92
1.57
0.6
7.78
0.23
0
-2.47
-0.04
-1.4
0
-0.05
0.01
0.01

>  <PUBCHEM_SHAPE_SELFOVERLAP>  (1) 
440.555

>  <PUBCHEM_SHAPE_VOLUME>  (1) 
124.2

>  <PUBCHEM_COORDINATE_TYPE>  (1) 
2
5
10

$$$$
