34229
     RDKit          3D

 10  9  0  0  1  0  0  0  0  0999 V2000
    3.8901    1.3505   -0.2699 Cl  0  0  0  0  0  0  0  0  0  0  0  0
    1.0029   -0.1261    0.5793 S   0  0  0  0  0  0  0  0  0  0  0  0
   -2.2446    1.5950    0.9660 O   0  0  0  0  0  0  0  0  0  0  0  0
   -1.9650    1.1157   -1.2336 O   0  0  0  0  0  0  0  0  0  0  0  0
   -2.7612   -1.5263   -0.2079 N   0  0  0  0  0  0  0  0  0  0  0  0
   -1.7159   -0.6786    0.3690 C   0  0  0  0  0  0  0  0  0  0  0  0
   -0.3381   -1.1643   -0.0849 C   0  0  0  0  0  0  0  0  0  0  0  0
    2.3909   -0.9485   -0.2334 C   0  0  0  0  0  0  0  0  0  0  0  0
   -1.9940    0.7486   -0.0647 C   0  0  0  0  0  0  0  0  0  0  0  0
    3.7350   -0.3660    0.1801 C   0  0  0  0  0  0  0  0  0  0  0  0
  1 10  1  0
  2  7  1  0
  2  8  1  0
  3  9  1  0
  4  9  2  0
  5  6  1  0
  6  7  1  0
  6  9  1  0
  8 10  1  0
M  END
>  <PUBCHEM_COMPOUND_CID>  (1) 
34229

>  <PUBCHEM_CONFORMER_RMSD>  (1) 
0.6

>  <PUBCHEM_CONFORMER_DIVERSEORDER>  (1) 
1
31
9
52
72
69
82
34
10
19
38
41
40
55
12
43
27
73
65
45
8
42
61
47
75
15
28
54
33
22
44
63
70
53
88
51
35
66
20
86
48
37
71
7
84
11
49
14
79
56
25
39
50
30
32
4
67
59
77
5
13
78
60
57
24
62
36
21
81
2
68
76
17
85
64
3
58
26
23
74
89
18
46
80
83
87
6
29
16

>  <PUBCHEM_MMFF94_PARTIAL_CHARGES>  (1) 
13
1 -0.29
10 0.29
16 0.36
17 0.36
2 -0.46
20 0.5
3 -0.65
4 -0.57
5 -0.99
6 0.33
7 0.23
8 0.23
9 0.66

>  <PUBCHEM_EFFECTIVE_ROTOR_COUNT>  (1) 
5

>  <PUBCHEM_PHARMACOPHORE_FEATURES>  (1) 
5
1 3 acceptor
1 4 acceptor
1 5 cation
1 5 donor
3 3 4 9 anion

>  <PUBCHEM_HEAVY_ATOM_COUNT>  (1) 
10

>  <PUBCHEM_ATOM_DEF_STEREO_COUNT>  (1) 
0

>  <PUBCHEM_ATOM_UDEF_STEREO_COUNT>  (1) 
1

>  <PUBCHEM_BOND_DEF_STEREO_COUNT>  (1) 
0

>  <PUBCHEM_BOND_UDEF_STEREO_COUNT>  (1) 
0

>  <PUBCHEM_ISOTOPIC_ATOM_COUNT>  (1) 
0

>  <PUBCHEM_COMPONENT_COUNT>  (1) 
1

>  <PUBCHEM_CACTVS_TAUTO_COUNT>  (1) 
1

>  <PUBCHEM_CONFORMER_ID>  (1) 
000085B500000001

>  <PUBCHEM_MMFF94_ENERGY>  (1) 
11.1909

>  <PUBCHEM_FEATURE_SELFOVERLAP>  (1) 
25.43

>  <PUBCHEM_SHAPE_FINGERPRINT>  (1) 
12162725 195 18335420192719784490
12932764 1 17894916170467484482
14325111 11 18410575080848328498
14390081 3 18333731312589099122
15775835 57 18114462271129134152
18186145 218 18337676321934461042
20653085 51 18339935805012122466
20711983 171 18342744005117502836
3248919 1 18201148859048489706
528716 315 18273219711555475872

>  <PUBCHEM_SHAPE_MULTIPOLES>  (1) 
194.79
6.52
1.64
0.87
5.22
0.27
-0.03
1.29
-0.37
-0.5
-0.05
-0.3
0.23
-0.21

>  <PUBCHEM_SHAPE_SELFOVERLAP>  (1) 
338.375

>  <PUBCHEM_SHAPE_VOLUME>  (1) 
130.4

>  <PUBCHEM_COORDINATE_TYPE>  (1) 
2
5
10

$$$$
