34224
     RDKit          3D

 10 10  0  0  0  0  0  0  0  0999 V2000
   -3.1889   -0.0871    0.2877 O   0  0  0  0  0  0  0  0  0  0  0  0
    0.3061   -0.7493   -0.0370 C   0  0  0  0  0  0  0  0  0  0  0  0
    1.5509   -0.1240    0.0345 C   0  0  0  0  0  0  0  0  0  0  0  0
   -0.8572    0.0178   -0.0996 C   0  0  0  0  0  0  0  0  0  0  0  0
    1.6325    1.2685    0.0435 C   0  0  0  0  0  0  0  0  0  0  0  0
    0.2223   -2.2434   -0.0460 C   0  0  0  0  0  0  0  0  0  0  0  0
   -0.7756    1.4102   -0.0909 C   0  0  0  0  0  0  0  0  0  0  0  0
    2.8119   -0.9218    0.1021 C   0  0  0  0  0  0  0  0  0  0  0  0
    0.4693    2.0357   -0.0192 C   0  0  0  0  0  0  0  0  0  0  0  0
   -2.1713   -0.6067   -0.1751 C   0  0  0  0  0  0  0  0  0  0  0  0
  1 10  2  0
  2  3  2  0
  2  4  1  0
  2  6  1  0
  3  5  1  0
  3  8  1  0
  4  7  2  0
  4 10  1  0
  5  9  2  0
  7  9  1  0
M  END
>  <PUBCHEM_COMPOUND_CID>  (1) 
34224

>  <PUBCHEM_CONFORMER_RMSD>  (1) 
0.4

>  <PUBCHEM_CONFORMER_DIVERSEORDER>  (1) 
1
2
3

>  <PUBCHEM_MMFF94_PARTIAL_CHARGES>  (1) 
14
1 -0.57
10 0.42
11 0.15
15 0.15
19 0.15
2 -0.14
20 0.06
3 -0.14
4 0.09
5 -0.15
6 0.14
7 -0.15
8 0.14
9 -0.15

>  <PUBCHEM_EFFECTIVE_ROTOR_COUNT>  (1) 
1

>  <PUBCHEM_PHARMACOPHORE_FEATURES>  (1) 
2
1 1 acceptor
6 2 3 4 5 7 9 rings

>  <PUBCHEM_HEAVY_ATOM_COUNT>  (1) 
10

>  <PUBCHEM_ATOM_DEF_STEREO_COUNT>  (1) 
0

>  <PUBCHEM_ATOM_UDEF_STEREO_COUNT>  (1) 
0

>  <PUBCHEM_BOND_DEF_STEREO_COUNT>  (1) 
0

>  <PUBCHEM_BOND_UDEF_STEREO_COUNT>  (1) 
0

>  <PUBCHEM_ISOTOPIC_ATOM_COUNT>  (1) 
0

>  <PUBCHEM_COMPONENT_COUNT>  (1) 
1

>  <PUBCHEM_CACTVS_TAUTO_COUNT>  (1) 
1

>  <PUBCHEM_CONFORMER_ID>  (1) 
000085B000000001

>  <PUBCHEM_MMFF94_ENERGY>  (1) 
29.5733

>  <PUBCHEM_FEATURE_SELFOVERLAP>  (1) 
10.148

>  <PUBCHEM_SHAPE_FINGERPRINT>  (1) 
10219947 1 18411702088592924419
12423570 1 8241575923592954368
16945 1 18411415085787523542
18185500 45 18339920411664619575
193761 8 17762055836621402838
20871998 22 18198351662459547511
21040471 1 18050567648878926213
23552423 10 17901395497948122342
241688 4 18338517409242585112
2748010 2 18337662040746488196
29004967 10 18408042913869208305
5084963 1 18202282489606249970

>  <PUBCHEM_SHAPE_MULTIPOLES>  (1) 
199.93
3.34
2.11
0.62
1.08
0.06
0.01
-0.7
-0.25
-0.49
0.04
0
0
-0.02

>  <PUBCHEM_SHAPE_SELFOVERLAP>  (1) 
415.842

>  <PUBCHEM_SHAPE_VOLUME>  (1) 
115.8

>  <PUBCHEM_COORDINATE_TYPE>  (1) 
2
5
10

$$$$
