3423
     RDKit          3D

 26 28  0  0  0  0  0  0  0  0999 V2000
   -0.4876    1.0736    2.9260 O   0  0  0  0  0  0  0  0  0  0  0  0
   -0.6166    0.6549   -2.0428 O   0  0  0  0  0  0  0  0  0  0  0  0
   -1.0354    2.8561   -1.5158 O   0  0  0  0  0  0  0  0  0  0  0  0
    2.7950    1.6860    0.3819 N   0  0  0  0  0  0  0  0  0  0  0  0
    0.7159    1.2749    0.9042 C   0  0  0  0  0  0  0  0  0  0  0  0
    1.9755    1.2808    1.4031 C   0  0  0  0  0  0  0  0  0  0  0  0
    0.7277    1.6748   -0.4294 C   0  0  0  0  0  0  0  0  0  0  0  0
    2.0455    1.9291   -0.7393 C   0  0  0  0  0  0  0  0  0  0  0  0
   -1.6285    0.2829    1.0661 C   0  0  0  0  0  0  0  0  0  0  0  0
   -1.7329   -1.1016    0.9311 C   0  0  0  0  0  0  0  0  0  0  0  0
   -0.4674    0.8925    1.7000 C   0  0  0  0  0  0  0  0  0  0  0  0
   -0.6568   -2.0094    1.4314 C   0  0  0  0  0  0  0  0  0  0  0  0
    2.5261    0.9522    2.7326 C   0  0  0  0  0  0  0  0  0  0  0  0
    0.4175   -2.3082    0.4067 C   0  0  0  0  0  0  0  0  0  0  0  0
   -2.6467    1.1087    0.5896 C   0  0  0  0  0  0  0  0  0  0  0  0
    2.6804    2.3815   -1.9927 C   0  0  0  0  0  0  0  0  0  0  0  0
   -2.8554   -1.6600    0.3195 C   0  0  0  0  0  0  0  0  0  0  0  0
   -0.3680    1.8145   -1.3468 C   0  0  0  0  0  0  0  0  0  0  0  0
   -3.7691    0.5502   -0.0220 C   0  0  0  0  0  0  0  0  0  0  0  0
   -3.8735   -0.8341   -0.1571 C   0  0  0  0  0  0  0  0  0  0  0  0
    0.0454   -2.6253   -0.8878 C   0  0  0  0  0  0  0  0  0  0  0  0
    1.7465   -2.2569    0.7879 C   0  0  0  0  0  0  0  0  0  0  0  0
    1.0348   -2.9002   -1.8318 C   0  0  0  0  0  0  0  0  0  0  0  0
    2.7358   -2.5317   -0.1563 C   0  0  0  0  0  0  0  0  0  0  0  0
    2.3799   -2.8534   -1.4661 C   0  0  0  0  0  0  0  0  0  0  0  0
   -1.6881    0.6683   -2.9922 C   0  0  0  0  0  0  0  0  0  0  0  0
  1 11  2  0
  2 18  1  0
  2 26  1  0
  3 18  2  0
  4  6  1  0
  4  8  1  0
  5  6  2  0
  5  7  1  0
  5 11  1  0
  6 13  1  0
  7  8  2  0
  7 18  1  0
  8 16  1  0
  9 10  1  0
  9 11  1  0
  9 15  2  0
 10 12  1  0
 10 17  2  0
 12 14  1  0
 14 21  2  0
 14 22  1  0
 15 19  1  0
 17 20  1  0
 19 20  2  0
 21 23  1  0
 22 24  2  0
 23 25  2  0
 24 25  1  0
M  END
>  <PUBCHEM_COMPOUND_CID>  (1) 
3423

>  <PUBCHEM_CONFORMER_RMSD>  (1) 
0.8

>  <PUBCHEM_CONFORMER_DIVERSEORDER>  (1) 
1
95
94
19
101
71
116
32
57
119
44
109
92
81
118
16
100
2
83
43
42
72
67
77
78
22
53
64
56
23
63
33
70
112
114
111
52
12
82
110
96
85
35
28
3
7
39
50
80
11
105
24
4
55
91
86
87
90
51
20
107
98
93
62
89
117
30
102
88
5
47
104
66
13
21
108
58
73
59
29
45
40
69
9
37
14
68
48
46
61
6
27
49
74
10
34
79
76
106
99
97
38
17
25
31
115
15
103
65
113
84
41
36
54
75
8
26
60
18

>  <PUBCHEM_MMFF94_PARTIAL_CHARGES>  (1) 
36
1 -0.57
10 -0.14
11 0.57
12 0.29
13 0.18
14 -0.14
15 -0.15
16 0.18
17 -0.15
18 0.81
19 -0.15
2 -0.43
20 -0.15
21 -0.15
22 -0.15
23 -0.15
24 -0.15
25 -0.15
26 0.28
27 0.27
3 -0.57
33 0.15
37 0.15
38 0.15
39 0.15
4 0.03
40 0.15
41 0.15
42 0.15
43 0.15
44 0.15
5 -0.09
6 -0.33
7 -0.09
8 -0.33
9 0.09

>  <PUBCHEM_EFFECTIVE_ROTOR_COUNT>  (1) 
6

>  <PUBCHEM_PHARMACOPHORE_FEATURES>  (1) 
7
1 1 acceptor
1 3 acceptor
1 4 cation
1 4 donor
5 4 5 6 7 8 rings
6 14 21 22 23 24 25 rings
6 9 10 15 17 19 20 rings

>  <PUBCHEM_HEAVY_ATOM_COUNT>  (1) 
26

>  <PUBCHEM_ATOM_DEF_STEREO_COUNT>  (1) 
0

>  <PUBCHEM_ATOM_UDEF_STEREO_COUNT>  (1) 
0

>  <PUBCHEM_BOND_DEF_STEREO_COUNT>  (1) 
0

>  <PUBCHEM_BOND_UDEF_STEREO_COUNT>  (1) 
0

>  <PUBCHEM_ISOTOPIC_ATOM_COUNT>  (1) 
0

>  <PUBCHEM_COMPONENT_COUNT>  (1) 
1

>  <PUBCHEM_CACTVS_TAUTO_COUNT>  (1) 
8

>  <PUBCHEM_CONFORMER_ID>  (1) 
00000D5F00000001

>  <PUBCHEM_MMFF94_ENERGY>  (1) 
74.6828

>  <PUBCHEM_FEATURE_SELFOVERLAP>  (1) 
35.522

>  <PUBCHEM_SHAPE_FINGERPRINT>  (1) 
10863032 1 18342745126161989289
11370993 70 18124325053834441868
11578080 2 18044098947195124780
11828532 37 15173267936764231614
12156800 1 15938636422022417062
12422481 6 18194936635584296338
133893 2 18119560740775059914
14181834 199 18341328916198749795
15881359 60 17900786574395498986
16945 1 18119534494493534835
17492 54 18117870779140901582
20691752 17 17675926474118359939
20905425 154 18198355124377508167
22889148 1 17547261841883180374
23419403 2 18124852600319577938
23559900 14 17556032612638710672
35225 105 17697885017977648958
484985 159 15871882923468698402
5845 1 10883617415191375555
81228 2 17476667289789873642
84936 31 17988347200738693203
90525 40 17829058945430573017

>  <PUBCHEM_SHAPE_MULTIPOLES>  (1) 
512.48
4.66
3.84
2.65
2.37
1.88
-0.2
0.05
-0.07
-2.7
-1.48
-0.61
-1.09
0.67

>  <PUBCHEM_SHAPE_SELFOVERLAP>  (1) 
1122.503

>  <PUBCHEM_SHAPE_VOLUME>  (1) 
279.4

>  <PUBCHEM_COORDINATE_TYPE>  (1) 
2
5
10

$$$$
