34232
     RDKit          3D

 21 25  0  0  0  0  0  0  0  0999 V2000
   -0.0442   -0.3762   -0.0092 C   0  0  0  0  0  0  0  0  0  0  0  0
    1.3992   -0.2190   -0.0071 C   0  0  0  0  0  0  0  0  0  0  0  0
   -0.8641    0.7852   -0.0122 C   0  0  0  0  0  0  0  0  0  0  0  0
    1.9823    1.0714    0.0200 C   0  0  0  0  0  0  0  0  0  0  0  0
   -0.5180   -1.8152   -0.0030 C   0  0  0  0  0  0  0  0  0  0  0  0
    2.3054   -1.3125   -0.0334 C   0  0  0  0  0  0  0  0  0  0  0  0
   -2.3467    0.8019   -0.0401 C   0  0  0  0  0  0  0  0  0  0  0  0
    3.3761    1.2459    0.0273 C   0  0  0  0  0  0  0  0  0  0  0  0
   -0.2194    2.0435    0.0249 C   0  0  0  0  0  0  0  0  0  0  0  0
    1.1631    2.1875    0.0415 C   0  0  0  0  0  0  0  0  0  0  0  0
   -3.2985   -0.2953    0.0671 C   0  0  0  0  0  0  0  0  0  0  0  0
    0.4779   -2.8971   -0.0628 C   0  0  0  0  0  0  0  0  0  0  0  0
    1.7942   -2.6781   -0.0764 C   0  0  0  0  0  0  0  0  0  0  0  0
    3.6973   -1.1269   -0.0278 C   0  0  0  0  0  0  0  0  0  0  0  0
   -1.7859   -2.2661    0.0659 C   0  0  0  0  0  0  0  0  0  0  0  0
    4.2305    0.1520    0.0039 C   0  0  0  0  0  0  0  0  0  0  0  0
   -3.0522   -1.6014    0.1335 C   0  0  0  0  0  0  0  0  0  0  0  0
   -3.1306    1.9028   -0.1504 C   0  0  0  0  0  0  0  0  0  0  0  0
   -4.6496    0.2371    0.0618 C   0  0  0  0  0  0  0  0  0  0  0  0
    4.0185    2.6003    0.0602 C   0  0  0  0  0  0  0  0  0  0  0  0
   -4.5352    1.5602   -0.0837 C   0  0  0  0  0  0  0  0  0  0  0  0
  1  2  2  0
  1  3  1  0
  1  5  1  0
  2  4  1  0
  2  6  1  0
  3  7  2  0
  3  9  1  0
  4  8  2  0
  4 10  1  0
  5 12  2  0
  5 15  1  0
  6 13  2  0
  6 14  1  0
  7 11  1  0
  7 18  1  0
  8 16  1  0
  8 20  1  0
  9 10  2  0
 11 17  1  0
 11 19  2  0
 12 13  1  0
 14 16  2  0
 15 17  2  0
 18 21  2  0
 19 21  1  0
M  END
>  <PUBCHEM_COMPOUND_CID>  (1) 
34232

>  <PUBCHEM_CONFORMER_RMSD>  (1) 
0.6

>  <PUBCHEM_CONFORMER_DIVERSEORDER>  (1) 
1

>  <PUBCHEM_MMFF94_PARTIAL_CHARGES>  (1) 
29
1 0.03
10 -0.15
12 -0.15
13 -0.18
14 -0.15
15 -0.15
16 -0.15
17 -0.15
18 -0.15
19 -0.15
20 0.14
21 -0.15
22 0.15
23 0.15
24 0.15
25 0.15
26 0.15
27 0.15
28 0.15
29 0.15
3 0.03
30 0.15
31 0.15
35 0.15
5 -0.03
6 0.03
7 -0.03
8 -0.14
9 -0.15

>  <PUBCHEM_EFFECTIVE_ROTOR_COUNT>  (1) 
0

>  <PUBCHEM_PHARMACOPHORE_FEATURES>  (1) 
5
5 7 11 18 19 21 rings
6 1 2 3 4 9 10 rings
6 1 2 5 6 12 13 rings
6 2 4 6 8 14 16 rings
7 1 3 5 7 11 15 17 rings

>  <PUBCHEM_HEAVY_ATOM_COUNT>  (1) 
21

>  <PUBCHEM_ATOM_DEF_STEREO_COUNT>  (1) 
0

>  <PUBCHEM_ATOM_UDEF_STEREO_COUNT>  (1) 
0

>  <PUBCHEM_BOND_DEF_STEREO_COUNT>  (1) 
0

>  <PUBCHEM_BOND_UDEF_STEREO_COUNT>  (1) 
0

>  <PUBCHEM_ISOTOPIC_ATOM_COUNT>  (1) 
0

>  <PUBCHEM_COMPONENT_COUNT>  (1) 
1

>  <PUBCHEM_CACTVS_TAUTO_COUNT>  (1) 
1

>  <PUBCHEM_CONFORMER_ID>  (1) 
000085B800000001

>  <PUBCHEM_MMFF94_ENERGY>  (1) 
102.0115

>  <PUBCHEM_FEATURE_SELFOVERLAP>  (1) 
25.481

>  <PUBCHEM_SHAPE_FINGERPRINT>  (1) 
10411042 1 17329992396185719679
10493431 412 18339359798448116632
10608611 8 18410574002341889329
10616163 171 18337956812783392759
10759866 29 18113625607795658854
10863032 1 18411138056096630954
10948715 1 18410292531728880154
10967382 1 18338798914067548326
1100329 8 18337387141560042570
11132069 177 18410006641478180192
11370993 70 18410569604321791009
12011746 2 18338801104532693574
12390115 104 18125458624658695008
12592029 89 18409169883186173107
12788726 201 17417542302316456673
12838862 33 18266438975875799504
13132413 78 18412263973236110045
13140716 1 18409442596693330850
138480 1 17978509724234388270
14178342 30 17906716352811230680
14790565 3 18192720157576910604
15196674 1 18410856589709848395
15230672 131 17478314793124580400
15536298 74 18342458118845362740
16945 1 18266744567024928642
19591789 44 18410856589915836590
20510252 161 18198910399055066601
20905425 154 18052539872265486798
21197605 99 18339370785560301811
21267235 1 18411146809240304995
21421861 104 17825948113539925530
221490 88 18409456872848364786
22182313 1 18267888209621473942
23227448 37 18412824707287483351
2334 1 18339080509619945322
23402539 116 18343012298913493686
23558518 356 18044375156478633194
23559900 14 18342738486501401662
238 59 17612830904700161005
2748010 2 18410863195702086454
335352 9 18338516331358735734
33824 294 18409448050937624266
34934 24 18410849936800440035
350125 39 18194688287774494617
3680242 22 18263643952977717802
474 4 18411136909503925841
5104073 3 18409167735554605121
6138700 20 18266463110062076302
633830 44 18272370858266265868
7364860 26 18340769221835709406
8272917 22 18269840813581283573
9709674 26 18411705352884581727

>  <PUBCHEM_SHAPE_MULTIPOLES>  (1) 
432.17
8.1
3.27
0.62
2.3
0.84
0
-3.29
0.04
-1.02
-0.02
0.01
0
0.19

>  <PUBCHEM_SHAPE_SELFOVERLAP>  (1) 
1004.053

>  <PUBCHEM_SHAPE_VOLUME>  (1) 
207.6

>  <PUBCHEM_COORDINATE_TYPE>  (1) 
2
5
10

$$$$
