34247
     RDKit          3D

 17 18  0  0  0  0  0  0  0  0999 V2000
   -1.2354    3.2410   -0.5664 S   0  0  0  0  0  0  0  0  0  0  0  0
   -1.9175   -2.4724    0.5443 O   0  0  0  0  0  0  0  0  0  0  0  0
    3.3387   -1.8746    0.6705 O   0  0  0  0  0  0  0  0  0  0  0  0
    2.4824   -0.2285   -0.7367 N   0  0  0  0  0  0  0  0  0  0  0  0
    0.6180    1.8038    0.4593 C   0  0  0  0  0  0  0  0  0  0  0  0
    1.9233    1.3970    1.0378 C   0  0  0  0  0  0  0  0  0  0  0  0
   -0.4879    0.9097    0.2649 C   0  0  0  0  0  0  0  0  0  0  0  0
    2.9432    0.9208   -0.0050 C   0  0  0  0  0  0  0  0  0  0  0  0
   -1.5826    1.5737   -0.2972 C   0  0  0  0  0  0  0  0  0  0  0  0
    0.3454    3.0883    0.0527 C   0  0  0  0  0  0  0  0  0  0  0  0
   -0.6159   -0.4718    0.5473 C   0  0  0  0  0  0  0  0  0  0  0  0
   -2.7868    0.8996   -0.5806 C   0  0  0  0  0  0  0  0  0  0  0  0
   -1.8090   -1.1434    0.2675 C   0  0  0  0  0  0  0  0  0  0  0  0
   -2.8817   -0.4627   -0.2907 C   0  0  0  0  0  0  0  0  0  0  0  0
    2.7203   -1.5356   -0.3351 C   0  0  0  0  0  0  0  0  0  0  0  0
    2.1062   -2.5451   -1.2677 C   0  0  0  0  0  0  0  0  0  0  0  0
   -3.1607   -3.0999    0.2352 C   0  0  0  0  0  0  0  0  0  0  0  0
  1  9  1  0
  1 10  1  0
  2 13  1  0
  2 17  1  0
  3 15  2  0
  4  8  1  0
  4 15  1  0
  5  6  1  0
  5  7  1  0
  5 10  2  0
  6  8  1  0
  7  9  2  0
  7 11  1  0
  9 12  1  0
 11 13  2  0
 12 14  2  0
 13 14  1  0
 15 16  1  0
M  END
>  <PUBCHEM_COMPOUND_CID>  (1) 
34247

>  <PUBCHEM_CONFORMER_RMSD>  (1) 
0.6

>  <PUBCHEM_CONFORMER_DIVERSEORDER>  (1) 
1
47
7
21
64
62
31
16
55
26
42
61
52
30
15
6
48
28
58
51
45
10
23
22
2
27
49
8
54
40
12
35
50
14
37
24
43
66
63
20
36
56
18
46
17
53
29
60
41
33
25
5
65
38
13
44
39
57
59
3
11
19
4
32
34
9

>  <PUBCHEM_MMFF94_PARTIAL_CHARGES>  (1) 
21
1 -0.08
10 -0.11
11 -0.15
12 -0.15
13 0.08
14 -0.15
15 0.57
16 0.06
17 0.28
2 -0.36
22 0.15
23 0.15
24 0.15
25 0.37
26 0.15
3 -0.57
4 -0.73
5 -0.18
6 0.18
8 0.3
9 0.04

>  <PUBCHEM_EFFECTIVE_ROTOR_COUNT>  (1) 
5

>  <PUBCHEM_PHARMACOPHORE_FEATURES>  (1) 
5
1 2 acceptor
1 3 acceptor
1 4 donor
5 1 5 7 9 10 rings
6 7 9 11 12 13 14 rings

>  <PUBCHEM_HEAVY_ATOM_COUNT>  (1) 
17

>  <PUBCHEM_ATOM_DEF_STEREO_COUNT>  (1) 
0

>  <PUBCHEM_ATOM_UDEF_STEREO_COUNT>  (1) 
0

>  <PUBCHEM_BOND_DEF_STEREO_COUNT>  (1) 
0

>  <PUBCHEM_BOND_UDEF_STEREO_COUNT>  (1) 
0

>  <PUBCHEM_ISOTOPIC_ATOM_COUNT>  (1) 
0

>  <PUBCHEM_COMPONENT_COUNT>  (1) 
1

>  <PUBCHEM_CACTVS_TAUTO_COUNT>  (1) 
2

>  <PUBCHEM_CONFORMER_ID>  (1) 
000085C700000001

>  <PUBCHEM_MMFF94_ENERGY>  (1) 
37.6388

>  <PUBCHEM_FEATURE_SELFOVERLAP>  (1) 
25.432

>  <PUBCHEM_SHAPE_FINGERPRINT>  (1) 
10616163 171 18411138069382544020
10967382 1 18410291458087230993
116883 192 18265611173059511653
12553582 1 18411144653171659374
13140716 1 18412262826501201018
14178342 30 18270118057735932129
1420 336 18121786019445175794
14251705 54 18266744760356823534
14790565 3 18050573945787090825
16945 1 18410571824978716785
17492 54 17396163673087789804
19591789 44 18050571746916276993
20645476 183 17538310344375741030
20645477 70 17470718275407626131
20905425 154 18410855486325493342
21197605 99 15813699417916982970
21665056 4 18048315544291452501
22721475 48 18342178851603336888
22802520 49 18412539903499907137
23184049 29 18409444748398118882
2334 1 18339080496455598602
23419403 2 13246551603367287693
23557571 272 18200024028815331386
23559900 14 18339069424842643704
2748010 2 18340481287117123401
3060560 45 17473269154625091596
576247 118 17536351289253318195
598444 67 18123477085535146245
7364860 26 17617098448540817417
81228 2 18197223546449599248
8272917 22 17690573304714312891
8809292 202 18268148648006150126
9709674 26 18269835311912904214

>  <PUBCHEM_SHAPE_MULTIPOLES>  (1) 
336.98
5.13
4.21
0.93
1.33
0.07
0.07
3.69
0.27
-1.2
0.33
0.31
0.14
1.13

>  <PUBCHEM_SHAPE_SELFOVERLAP>  (1) 
697.898

>  <PUBCHEM_SHAPE_VOLUME>  (1) 
194.8

>  <PUBCHEM_COORDINATE_TYPE>  (1) 
2
5
10

$$$$
