34249
     RDKit          3D

 15 16  0  0  0  0  0  0  0  0999 V2000
    1.5744    2.7531    0.1826 S   0  0  0  0  0  0  0  0  0  0  0  0
    2.3844   -3.0454   -0.0679 O   0  0  0  0  0  0  0  0  0  0  0  0
   -3.8136   -0.2672    0.0385 N   0  0  0  0  0  0  0  0  0  0  0  0
   -1.6414    0.5933   -0.7893 C   0  0  0  0  0  0  0  0  0  0  0  0
   -0.3058    1.1217   -0.4141 C   0  0  0  0  0  0  0  0  0  0  0  0
   -2.5178    0.2754    0.4325 C   0  0  0  0  0  0  0  0  0  0  0  0
    0.8492    0.2995   -0.1900 C   0  0  0  0  0  0  0  0  0  0  0  0
    1.9633    1.0736    0.1489 C   0  0  0  0  0  0  0  0  0  0  0  0
   -0.0495    2.4617   -0.2456 C   0  0  0  0  0  0  0  0  0  0  0  0
    1.0070   -1.1058   -0.2606 C   0  0  0  0  0  0  0  0  0  0  0  0
    3.2153    0.4854    0.4158 C   0  0  0  0  0  0  0  0  0  0  0  0
   -4.6108   -0.6038    1.2190 C   0  0  0  0  0  0  0  0  0  0  0  0
   -3.6410   -1.4461   -0.8114 C   0  0  0  0  0  0  0  0  0  0  0  0
    2.2476   -1.6924    0.0036 C   0  0  0  0  0  0  0  0  0  0  0  0
    3.3387   -0.9030    0.3381 C   0  0  0  0  0  0  0  0  0  0  0  0
  1  8  1  0
  1  9  1  0
  2 14  1  0
  3  6  1  0
  3 12  1  0
  3 13  1  0
  4  5  1  0
  4  6  1  0
  5  7  1  0
  5  9  2  0
  7  8  2  0
  7 10  1  0
  8 11  1  0
 10 14  2  0
 11 15  2  0
 14 15  1  0
M  END
>  <PUBCHEM_COMPOUND_CID>  (1) 
34249

>  <PUBCHEM_CONFORMER_RMSD>  (1) 
0.6

>  <PUBCHEM_CONFORMER_DIVERSEORDER>  (1) 
1
5
8
10
9
4
3
6
7
2

>  <PUBCHEM_MMFF94_PARTIAL_CHARGES>  (1) 
19
1 -0.08
10 -0.15
11 -0.15
12 0.27
13 0.27
14 0.08
15 -0.15
2 -0.53
20 0.15
21 0.15
22 0.15
29 0.15
3 -0.81
30 0.45
4 0.18
5 -0.18
6 0.27
8 0.04
9 -0.11

>  <PUBCHEM_EFFECTIVE_ROTOR_COUNT>  (1) 
3

>  <PUBCHEM_PHARMACOPHORE_FEATURES>  (1) 
4
1 2 donor
1 3 cation
5 1 5 7 8 9 rings
6 7 8 10 11 14 15 rings

>  <PUBCHEM_HEAVY_ATOM_COUNT>  (1) 
15

>  <PUBCHEM_ATOM_DEF_STEREO_COUNT>  (1) 
0

>  <PUBCHEM_ATOM_UDEF_STEREO_COUNT>  (1) 
0

>  <PUBCHEM_BOND_DEF_STEREO_COUNT>  (1) 
0

>  <PUBCHEM_BOND_UDEF_STEREO_COUNT>  (1) 
0

>  <PUBCHEM_ISOTOPIC_ATOM_COUNT>  (1) 
0

>  <PUBCHEM_COMPONENT_COUNT>  (1) 
1

>  <PUBCHEM_CACTVS_TAUTO_COUNT>  (1) 
3

>  <PUBCHEM_CONFORMER_ID>  (1) 
000085C900000001

>  <PUBCHEM_MMFF94_ENERGY>  (1) 
31.5134

>  <PUBCHEM_FEATURE_SELFOVERLAP>  (1) 
20.357

>  <PUBCHEM_SHAPE_FINGERPRINT>  (1) 
10493431 412 17981035633630839928
10967382 1 18338512044981140124
10980938 120 18339358685745456492
11471102 22 18410015450535355513
11578080 2 17271686660480280169
11796584 16 16516229761063973706
12032990 46 18338797810735720014
12251169 10 18272654554168095565
12553582 1 18411698759808913759
13140716 1 18195238056378423600
13533116 47 18270683194798209059
14251705 54 18337671910443982838
14251717 144 18338791333661345567
14252887 29 18409733949725498738
14790565 3 18049163568726568604
15375462 189 18412545418279970155
15422964 175 18337667495359852006
15442244 35 18341054000043333833
15501101 241 18335136531098746997
16945 1 18340752789702291668
20645477 70 18190164849772272887
20871998 22 18339646629053457404
221490 88 18335702685376949470
22445834 79 18343304786170585233
2255824 54 18265618873298070196
23184049 29 18048026377144352794
23598291 2 18059011812650094221
2748010 2 18053084148054597892
33824 294 18337104691287593235
458136 41 18191880138839800820
54173680 148 17690559689509183276
581208 293 18338510958027561421
7097593 13 18272095980833912705
7364860 26 18339642355482162312
83771 10 18408324367387017045
8809292 202 17761208817583615806

>  <PUBCHEM_SHAPE_MULTIPOLES>  (1) 
301.69
7.02
2.79
0.86
8.14
0.02
-0.06
-3.23
-1.68
-2.42
0.16
0.66
-0.03
0.01

>  <PUBCHEM_SHAPE_SELFOVERLAP>  (1) 
623.845

>  <PUBCHEM_SHAPE_VOLUME>  (1) 
176.2

>  <PUBCHEM_COORDINATE_TYPE>  (1) 
2
5
10

$$$$
