34242
     RDKit          3D

 11 11  0  0  0  0  0  0  0  0999 V2000
   -4.9065   -0.0575    0.0056 N   0  0  0  0  0  0  0  0  0  0  0  0
    2.7581    0.1200    0.0306 C   0  0  0  0  0  0  0  0  0  0  0  0
   -0.0025   -0.2649   -0.0872 C   0  0  0  0  0  0  0  0  0  0  0  0
    1.9030    1.2195   -0.0463 C   0  0  0  0  0  0  0  0  0  0  0  0
    2.2327   -1.1721    0.0487 C   0  0  0  0  0  0  0  0  0  0  0  0
    0.5228    1.0271   -0.1052 C   0  0  0  0  0  0  0  0  0  0  0  0
    0.8523   -1.3645   -0.0102 C   0  0  0  0  0  0  0  0  0  0  0  0
    4.2338    0.3262    0.0929 C   0  0  0  0  0  0  0  0  0  0  0  0
   -1.4418   -0.4655   -0.1495 C   0  0  0  0  0  0  0  0  0  0  0  0
   -2.3809    0.4596    0.1506 C   0  0  0  0  0  0  0  0  0  0  0  0
   -3.7710    0.1722    0.0700 C   0  0  0  0  0  0  0  0  0  0  0  0
  1 11  3  0
  2  4  2  0
  2  5  1  0
  2  8  1  0
  3  6  2  0
  3  7  1  0
  3  9  1  0
  4  6  1  0
  5  7  2  0
  9 10  2  0
 10 11  1  0
M  END
>  <PUBCHEM_COMPOUND_CID>  (1) 
34242

>  <PUBCHEM_CONFORMER_RMSD>  (1) 
0.4

>  <PUBCHEM_CONFORMER_DIVERSEORDER>  (1) 
1

>  <PUBCHEM_MMFF94_PARTIAL_CHARGES>  (1) 
17
1 -0.56
10 -0.09
11 0.49
12 0.15
13 0.15
14 0.15
15 0.15
19 0.15
2 -0.14
20 0.15
3 0.03
4 -0.15
5 -0.15
6 -0.15
7 -0.15
8 0.14
9 -0.18

>  <PUBCHEM_EFFECTIVE_ROTOR_COUNT>  (1) 
1

>  <PUBCHEM_PHARMACOPHORE_FEATURES>  (1) 
2
1 1 acceptor
6 2 3 4 5 6 7 rings

>  <PUBCHEM_HEAVY_ATOM_COUNT>  (1) 
11

>  <PUBCHEM_ATOM_DEF_STEREO_COUNT>  (1) 
0

>  <PUBCHEM_ATOM_UDEF_STEREO_COUNT>  (1) 
0

>  <PUBCHEM_BOND_DEF_STEREO_COUNT>  (1) 
0

>  <PUBCHEM_BOND_UDEF_STEREO_COUNT>  (1) 
1

>  <PUBCHEM_ISOTOPIC_ATOM_COUNT>  (1) 
0

>  <PUBCHEM_COMPONENT_COUNT>  (1) 
1

>  <PUBCHEM_CACTVS_TAUTO_COUNT>  (1) 
1

>  <PUBCHEM_CONFORMER_ID>  (1) 
000085C200000001

>  <PUBCHEM_MMFF94_ENERGY>  (1) 
24.9664

>  <PUBCHEM_FEATURE_SELFOVERLAP>  (1) 
10.148

>  <PUBCHEM_SHAPE_FINGERPRINT>  (1) 
10219947 1 18334860510756492492
11062470 55 18411699885074137569
11471102 20 18409727352671432668
12346645 6 18272089374942284918
12932764 1 14117227305246156661
13380535 76 18410576201502814635
14144814 61 18341333305913431721
14251717 144 18410855447449209175
14252887 29 18343028761132982762
14325111 11 18411138035043813613
14993402 34 18131634486617992390
20201158 50 18261115157875004515
20279233 1 17676213463695759739
20645477 70 18338511924891445735
20871998 22 18054510197350842302
23402539 116 16559027177876629693
23402655 69 18341607084551594589
366044 4 18411699911318974322
528886 8 18411695508829614594
53812653 166 18341326777642237208

>  <PUBCHEM_SHAPE_MULTIPOLES>  (1) 
221.39
7.6
1.21
0.62
6.3
0.11
0
-0.7
0.33
-0.68
-0.01
-0.03
0
-0.04

>  <PUBCHEM_SHAPE_SELFOVERLAP>  (1) 
456.28

>  <PUBCHEM_SHAPE_VOLUME>  (1) 
125.2

>  <PUBCHEM_COORDINATE_TYPE>  (1) 
2
5
10

$$$$
