34241
     RDKit          3D

 12 12  0  0  0  0  0  0  0  0999 V2000
   -2.6148    1.6009    0.0320 O   0  0  0  0  0  0  0  0  0  0  0  0
    5.0654    0.5517    0.0119 N   0  0  0  0  0  0  0  0  0  0  0  0
    0.2970   -0.6140    0.0772 C   0  0  0  0  0  0  0  0  0  0  0  0
   -1.8635    0.4659    0.0211 C   0  0  0  0  0  0  0  0  0  0  0  0
   -0.4728    0.5492    0.0888 C   0  0  0  0  0  0  0  0  0  0  0  0
   -0.3241   -1.8605   -0.0021 C   0  0  0  0  0  0  0  0  0  0  0  0
   -2.4844   -0.7806   -0.0583 C   0  0  0  0  0  0  0  0  0  0  0  0
   -1.7148   -1.9438   -0.0697 C   0  0  0  0  0  0  0  0  0  0  0  0
    1.7471   -0.5281    0.1484 C   0  0  0  0  0  0  0  0  0  0  0  0
   -4.0309    1.4428   -0.0403 C   0  0  0  0  0  0  0  0  0  0  0  0
    2.4884    0.5628   -0.1493 C   0  0  0  0  0  0  0  0  0  0  0  0
    3.9072    0.5539   -0.0598 C   0  0  0  0  0  0  0  0  0  0  0  0
  1  4  1  0
  1 10  1  0
  2 12  3  0
  3  5  2  0
  3  6  1  0
  3  9  1  0
  4  5  1  0
  4  7  2  0
  6  8  2  0
  7  8  1  0
  9 11  2  0
 11 12  1  0
M  END
>  <PUBCHEM_COMPOUND_CID>  (1) 
34241

>  <PUBCHEM_CONFORMER_RMSD>  (1) 
0.6

>  <PUBCHEM_CONFORMER_DIVERSEORDER>  (1) 
1
2

>  <PUBCHEM_MMFF94_PARTIAL_CHARGES>  (1) 
18
1 -0.36
10 0.28
11 -0.09
12 0.49
13 0.15
14 0.15
15 0.15
16 0.15
17 0.15
2 -0.56
21 0.15
3 0.03
4 0.08
5 -0.15
6 -0.15
7 -0.15
8 -0.15
9 -0.18

>  <PUBCHEM_EFFECTIVE_ROTOR_COUNT>  (1) 
2

>  <PUBCHEM_PHARMACOPHORE_FEATURES>  (1) 
3
1 1 acceptor
1 2 acceptor
6 3 4 5 6 7 8 rings

>  <PUBCHEM_HEAVY_ATOM_COUNT>  (1) 
12

>  <PUBCHEM_ATOM_DEF_STEREO_COUNT>  (1) 
0

>  <PUBCHEM_ATOM_UDEF_STEREO_COUNT>  (1) 
0

>  <PUBCHEM_BOND_DEF_STEREO_COUNT>  (1) 
0

>  <PUBCHEM_BOND_UDEF_STEREO_COUNT>  (1) 
1

>  <PUBCHEM_ISOTOPIC_ATOM_COUNT>  (1) 
0

>  <PUBCHEM_COMPONENT_COUNT>  (1) 
1

>  <PUBCHEM_CACTVS_TAUTO_COUNT>  (1) 
1

>  <PUBCHEM_CONFORMER_ID>  (1) 
000085C100000001

>  <PUBCHEM_MMFF94_ENERGY>  (1) 
36.7955

>  <PUBCHEM_FEATURE_SELFOVERLAP>  (1) 
15.223

>  <PUBCHEM_SHAPE_FINGERPRINT>  (1) 
10014705 185 18410571820883956104
10608611 8 18270960262621496320
12346645 44 18339362946706344617
12500047 106 18341608235433901098
13024252 1 11602807026095540423
13380535 76 18411981330186816591
14123255 52 18337107856758027381
14325111 11 18410575080711087434
14897335 6 18410571751805549430
15219456 202 18201730526379950406
15501527 16 18412548725573840160
15775835 57 18333732394709893680
16945 1 18267858557219925403
1741750 31 18342177743427778824
20645477 56 18411422812644847964
20645477 70 16916798331869809190
20871998 184 18200038481022002071
21499 59 18337945680692339997
21524375 3 18409728417986884755
23402539 116 18343293790626916556
23402655 69 18200301110241237717
23500284 214 18340775861950003905
23557571 272 18130234855597514102
23559900 14 18202002123701649488
2748010 2 18338812100071224143
3071541 12 17764876792674404327
366044 4 18410292493306140211
573450 72 18262785355251529842
6333449 129 18413387665577241551
6430166 295 18409164394592436744
7364860 26 18196371420944201318

>  <PUBCHEM_SHAPE_MULTIPOLES>  (1) 
236.1
7.41
1.8
0.61
7.32
0.52
0
-4.03
0.17
-1.69
0.02
-0.01
0.02
-0.06

>  <PUBCHEM_SHAPE_SELFOVERLAP>  (1) 
486.678

>  <PUBCHEM_SHAPE_VOLUME>  (1) 
133.9

>  <PUBCHEM_COORDINATE_TYPE>  (1) 
2
5
10

$$$$
