34251
     RDKit          3D

 16 17  0  0  0  0  0  0  0  0999 V2000
    1.2431    3.1087    0.1145 S   0  0  0  0  0  0  0  0  0  0  0  0
    2.5308   -2.6081    0.0611 O   0  0  0  0  0  0  0  0  0  0  0  0
   -3.8728   -0.3483    0.0553 N   0  0  0  0  0  0  0  0  0  0  0  0
   -1.7747    0.6597   -0.8059 C   0  0  0  0  0  0  0  0  0  0  0  0
   -0.4906    1.3088   -0.4400 C   0  0  0  0  0  0  0  0  0  0  0  0
   -2.6268    0.3137    0.4266 C   0  0  0  0  0  0  0  0  0  0  0  0
    0.7262    0.5927   -0.1814 C   0  0  0  0  0  0  0  0  0  0  0  0
    1.7695    1.4669    0.1388 C   0  0  0  0  0  0  0  0  0  0  0  0
   -0.3473    2.6701   -0.3143 C   0  0  0  0  0  0  0  0  0  0  0  0
    1.0000   -0.7963   -0.2044 C   0  0  0  0  0  0  0  0  0  0  0  0
    3.0633    0.9933    0.4330 C   0  0  0  0  0  0  0  0  0  0  0  0
    2.2822   -1.2693    0.0869 C   0  0  0  0  0  0  0  0  0  0  0  0
   -4.6410   -0.7060    1.2488 C   0  0  0  0  0  0  0  0  0  0  0  0
   -3.6025   -1.5395   -0.7510 C   0  0  0  0  0  0  0  0  0  0  0  0
    3.3015   -0.3820    0.4021 C   0  0  0  0  0  0  0  0  0  0  0  0
    1.4391   -3.4642   -0.2703 C   0  0  0  0  0  0  0  0  0  0  0  0
  1  8  1  0
  1  9  1  0
  2 12  1  0
  2 16  1  0
  3  6  1  0
  3 13  1  0
  3 14  1  0
  4  5  1  0
  4  6  1  0
  5  7  1  0
  5  9  2  0
  7  8  2  0
  7 10  1  0
  8 11  1  0
 10 12  2  0
 11 15  2  0
 12 15  1  0
M  END
>  <PUBCHEM_COMPOUND_CID>  (1) 
34251

>  <PUBCHEM_CONFORMER_RMSD>  (1) 
0.6

>  <PUBCHEM_CONFORMER_DIVERSEORDER>  (1) 
1
11
18
13
17
6
12
5
10
14
16
15
8
9
7
3
2
4

>  <PUBCHEM_MMFF94_PARTIAL_CHARGES>  (1) 
19
1 -0.08
10 -0.15
11 -0.15
12 0.08
13 0.27
14 0.27
15 -0.15
16 0.28
2 -0.36
21 0.15
22 0.15
23 0.15
3 -0.81
30 0.15
4 0.18
5 -0.18
6 0.27
8 0.04
9 -0.11

>  <PUBCHEM_EFFECTIVE_ROTOR_COUNT>  (1) 
4

>  <PUBCHEM_PHARMACOPHORE_FEATURES>  (1) 
4
1 2 acceptor
1 3 cation
5 1 5 7 8 9 rings
6 7 8 10 11 12 15 rings

>  <PUBCHEM_HEAVY_ATOM_COUNT>  (1) 
16

>  <PUBCHEM_ATOM_DEF_STEREO_COUNT>  (1) 
0

>  <PUBCHEM_ATOM_UDEF_STEREO_COUNT>  (1) 
0

>  <PUBCHEM_BOND_DEF_STEREO_COUNT>  (1) 
0

>  <PUBCHEM_BOND_UDEF_STEREO_COUNT>  (1) 
0

>  <PUBCHEM_ISOTOPIC_ATOM_COUNT>  (1) 
0

>  <PUBCHEM_COMPONENT_COUNT>  (1) 
1

>  <PUBCHEM_CACTVS_TAUTO_COUNT>  (1) 
1

>  <PUBCHEM_CONFORMER_ID>  (1) 
000085CB00000001

>  <PUBCHEM_MMFF94_ENERGY>  (1) 
43.8937

>  <PUBCHEM_FEATURE_SELFOVERLAP>  (1) 
20.357

>  <PUBCHEM_SHAPE_FINGERPRINT>  (1) 
10493431 412 18053376888709881672
10967382 1 18410569630371228126
114674 6 18187653504938016243
11578080 2 17271686656201124185
12251169 10 18272092716669343101
12506688 2 18338796706480725505
12553582 1 18411418371559188231
13140716 1 18122619719868447648
13533116 47 18342181124585438259
14251705 54 18337671901764468382
14251717 144 18338509871622251815
14252887 29 18335707143400028793
14790565 3 18121504815221067500
14863182 85 18335995241359020414
14916288 52 17763743187375089526
15375462 189 18412828005727018057
15422964 175 18337388227790629180
15501101 241 18262516004398147165
16945 1 18340471310409612140
19591789 44 18193558007022252052
20028762 73 17985543604986499798
20645477 70 18189884478670729055
20871998 22 18338239266996926605
21197605 99 17760097602640652435
21427221 339 17772216157580984913
21665056 4 16751278688341755908
221490 88 18193557770783499174
22445834 79 18343305885740261265
2255824 54 18192999433218837005
23184049 29 18048308947263844890
23530152 11 17905048401797891012
23559900 14 18048866408665526904
23598291 2 18131072692427518421
2748010 2 18124578804960800324
33824 294 18337386149132082859
458136 41 18119542173747847309
474229 33 18336540599558601986
54173680 148 17690279309659488300
7097593 13 18343311344743960457
7364860 26 18338799038753819505
81228 2 17762037857878259008
8809292 202 17546442280808641476
9709674 26 17907565939801454950

>  <PUBCHEM_SHAPE_MULTIPOLES>  (1) 
322.27
6.68
3.57
0.85
8.2
1.01
0.07
2.78
1.76
-2.71
-0.36
0.62
0.02
0.13

>  <PUBCHEM_SHAPE_SELFOVERLAP>  (1) 
662.818

>  <PUBCHEM_SHAPE_VOLUME>  (1) 
189.7

>  <PUBCHEM_COORDINATE_TYPE>  (1) 
2
5
10

$$$$
