34256
     RDKit          3D

 10  9  0  0  0  0  0  0  0  0999 V2000
   -0.4840   -1.5941   -0.0821 O   0  0  0  0  0  0  0  0  0  0  0  0
    1.8998    0.2160   -0.0357 N   0  0  0  0  0  0  0  0  0  0  0  0
    0.8081    0.1409    0.9649 C   0  0  0  0  0  0  0  0  0  0  0  0
    3.1686    0.8189    0.5839 C   0  0  0  0  0  0  0  0  0  0  0  0
    2.2482   -1.1808   -0.5698 C   0  0  0  0  0  0  0  0  0  0  0  0
    1.4895    1.0926   -1.2276 C   0  0  0  0  0  0  0  0  0  0  0  0
   -0.4487   -0.4508    0.3705 C   0  0  0  0  0  0  0  0  0  0  0  0
   -1.6651    0.4609    0.3720 C   0  0  0  0  0  0  0  0  0  0  0  0
   -2.9043   -0.2127   -0.2100 C   0  0  0  0  0  0  0  0  0  0  0  0
   -4.1120    0.7091   -0.1662 C   0  0  0  0  0  0  0  0  0  0  0  0
  1  7  2  0
  2  3  1  0
  2  4  1  0
  2  5  1  0
  2  6  1  0
  3  7  1  0
  7  8  1  0
  8  9  1  0
  9 10  1  0
M  CHG  1   2   1
M  END
>  <PUBCHEM_COMPOUND_CID>  (1) 
34256

>  <PUBCHEM_CONFORMER_RMSD>  (1) 
0.6

>  <PUBCHEM_CONFORMER_DIVERSEORDER>  (1) 
4
15
13
18
16
14
17
19
2
1
20
7
9
6
12
11
5
8
3
10

>  <PUBCHEM_MMFF94_PARTIAL_CHARGES>  (1) 
8
1 -0.57
2 -1.01
3 0.56
4 0.5
5 0.5
6 0.5
7 0.45
8 0.06

>  <PUBCHEM_EFFECTIVE_ROTOR_COUNT>  (1) 
4

>  <PUBCHEM_PHARMACOPHORE_FEATURES>  (1) 
3
1 1 acceptor
1 10 hydrophobe
1 2 cation

>  <PUBCHEM_HEAVY_ATOM_COUNT>  (1) 
10

>  <PUBCHEM_ATOM_DEF_STEREO_COUNT>  (1) 
0

>  <PUBCHEM_ATOM_UDEF_STEREO_COUNT>  (1) 
0

>  <PUBCHEM_BOND_DEF_STEREO_COUNT>  (1) 
0

>  <PUBCHEM_BOND_UDEF_STEREO_COUNT>  (1) 
0

>  <PUBCHEM_ISOTOPIC_ATOM_COUNT>  (1) 
0

>  <PUBCHEM_COMPONENT_COUNT>  (1) 
1

>  <PUBCHEM_CACTVS_TAUTO_COUNT>  (1) 
3

>  <PUBCHEM_CONFORMER_ID>  (1) 
000085D000000004

>  <PUBCHEM_MMFF94_ENERGY>  (1) 
23.0718

>  <PUBCHEM_FEATURE_SELFOVERLAP>  (1) 
15.223

>  <PUBCHEM_SHAPE_FINGERPRINT>  (1) 
10857977 72 11097851917350840855
11062470 55 17060618914568276969
12932764 1 16630238169372339419
14325111 11 18413670210275135051
14390081 3 18335137579476637089
15310529 11 17203608168477810965
15775835 57 18130785663884026813
177051 138 8718824297622393625
18186145 218 18060430092360614001
20201158 50 14261353565663435941
20281407 28 12535626068508703957
20645477 70 17775287110558176575
20653085 51 18113631100647360737
21028194 46 18408325479925841657
21293036 1 18059852891863875729
23235685 24 18410567405298567877
23402539 116 18201987846260037020
23402655 69 17917989447767415953
29004967 10 14117801305812885499
3248919 1 18260834821175299555
5084963 1 18337397049753616937

>  <PUBCHEM_SHAPE_MULTIPOLES>  (1) 
194.94
5.79
1.24
0.96
4.46
0.27
-0.08
-1.5
-0.28
-0.41
-0.21
-0.45
-0.17
0.13

>  <PUBCHEM_SHAPE_SELFOVERLAP>  (1) 
353.381

>  <PUBCHEM_SHAPE_VOLUME>  (1) 
127.6

>  <PUBCHEM_COORDINATE_TYPE>  (1) 
2
5
10

$$$$
