34257
     RDKit          3D

 16 15  0  0  1  0  0  0  0  0999 V2000
   -0.3885    2.3977   -1.0139 O   0  0  0  0  0  0  0  0  0  0  0  0
   -0.9736    2.1281    1.1673 O   0  0  0  0  0  0  0  0  0  0  0  0
    0.2750   -2.6119   -0.2755 C   0  0  0  0  0  0  0  0  0  0  0  0
   -1.5439   -1.0075    0.7442 C   0  0  0  0  0  0  0  0  0  0  0  0
   -0.9547   -1.7004   -0.5048 C   0  0  0  0  0  0  0  0  0  0  0  0
    1.4063   -1.8694    0.4672 C   0  0  0  0  0  0  0  0  0  0  0  0
   -2.6915   -0.0373    0.3729 C   0  0  0  0  0  0  0  0  0  0  0  0
    1.9473   -0.6546   -0.2962 C   0  0  0  0  0  0  0  0  0  0  0  0
   -2.3282    1.1069   -0.5932 C   0  0  0  0  0  0  0  0  0  0  0  0
    0.7473   -3.1521   -1.6321 C   0  0  0  0  0  0  0  0  0  0  0  0
   -2.0715   -2.0244    1.7641 C   0  0  0  0  0  0  0  0  0  0  0  0
    3.0457    0.0965    0.4642 C   0  0  0  0  0  0  0  0  0  0  0  0
   -3.5018    2.0393   -0.8782 C   0  0  0  0  0  0  0  0  0  0  0  0
    3.5693    1.3237   -0.2831 C   0  0  0  0  0  0  0  0  0  0  0  0
   -1.1834    1.9240   -0.0196 C   0  0  0  0  0  0  0  0  0  0  0  0
    4.6461    2.0415    0.5165 C   0  0  0  0  0  0  0  0  0  0  0  0
  1 15  1  0
  2 15  2  0
  3  5  1  0
  3  6  1  0
  3 10  1  0
  4  5  1  0
  4  7  1  0
  4 11  1  0
  6  8  1  0
  7  9  1  0
  8 12  1  0
  9 13  1  0
  9 15  1  0
 12 14  1  0
 14 16  1  0
M  END
>  <PUBCHEM_COMPOUND_CID>  (1) 
34257

>  <PUBCHEM_CONFORMER_RMSD>  (1) 
0.8

>  <PUBCHEM_CONFORMER_DIVERSEORDER>  (1) 
14
44
417
99
5
292
342
408
98
425
161
45
310
413
405
375
334
168
343
138
23
155
309
55
345
316
153
226
16
210
22
157
353
133
107
381
304
269
314
362
366
50
323
427
197
415
142
364
387
393
288
129
27
120
327
105
212
70
209
19
95
207
339
191
325
169
211
80
266
277
124
131
389
330
31
190
384
83
181
18
358
273
160
244
295
289
315
252
213
390
379
280
132
422
54
81
241
246
287
270
344
418
263
376
328
67
340
215
179
12
216
299
265
72
220
30
259
48
398
188
152
192
312
284
116
113
348
258
123
281
140
6
383
291
206
3
91
420
214
38
283
174
76
208
251
267
87
254
336
400
396
106
180
156
386
374
59
346
39
149
399
313
11
20
237
238
43
272
409
341
296
271
356
185
410
402
92
51
154
352
412
218
261
307
151
373
242
236
104
203
125
117
58
173
219
297
331
202
350
196
401
186
335
57
171
329
285
85
8
306
278
234
2
66
407
403
382
428
15
275
75
317
200
32
319
40
1
222
318
424
135
385
162
371
184
279
256
88
201
355
167
170
35
136
411
363
121
63
274
368
139
228
370
305
243
245
177
64
268
231
253
82
128
53
357
159
338
183
276
302
232
78
395
119
303
73
90
193
33
421
60
239
163
165
286
360
68
419
229
56
225
111
300
361
130
264
221
333
175
255
126
224
47
109
233
86
118
199
52
347
250
24
71
235
97
426
322
77
294
108
394
28
249
26
182
308
74
143
49
332
34
217
377
388
282
62
89
10
205
198
359
25
137
260
397
146
189
147
178
100
293
187
158
102
423
378
369
21
391
122
7
194
166
262
144
311
148
110
247
172
349
298
195
301
240
248
101
94
257
404
103
324
321
367
134
93
17
414
36
392
69
372
13
42
41
29
227
65
79
114
354
164
4
204
337
230
141
96
351
61
176
127
46
290
380
416
112
320
115
37
365
223
406
150
84
145
9
326

>  <PUBCHEM_MMFF94_PARTIAL_CHARGES>  (1) 
5
1 -0.65
15 0.66
2 -0.57
44 0.5
9 0.06

>  <PUBCHEM_EFFECTIVE_ROTOR_COUNT>  (1) 
9

>  <PUBCHEM_PHARMACOPHORE_FEATURES>  (1) 
7
1 1 acceptor
1 10 hydrophobe
1 11 hydrophobe
1 13 hydrophobe
1 16 hydrophobe
1 2 acceptor
3 1 2 15 anion

>  <PUBCHEM_HEAVY_ATOM_COUNT>  (1) 
16

>  <PUBCHEM_ATOM_DEF_STEREO_COUNT>  (1) 
0

>  <PUBCHEM_ATOM_UDEF_STEREO_COUNT>  (1) 
3

>  <PUBCHEM_BOND_DEF_STEREO_COUNT>  (1) 
0

>  <PUBCHEM_BOND_UDEF_STEREO_COUNT>  (1) 
0

>  <PUBCHEM_ISOTOPIC_ATOM_COUNT>  (1) 
0

>  <PUBCHEM_COMPONENT_COUNT>  (1) 
1

>  <PUBCHEM_CACTVS_TAUTO_COUNT>  (1) 
1

>  <PUBCHEM_CONFORMER_ID>  (1) 
000085D10000000E

>  <PUBCHEM_MMFF94_ENERGY>  (1) 
16.5331

>  <PUBCHEM_FEATURE_SELFOVERLAP>  (1) 
35.58

>  <PUBCHEM_SHAPE_FINGERPRINT>  (1) 
10871710 139 18048875487883486630
11221954 11 18264209118996911722
13544592 271 18408887343226156721
13897977 150 18265330608289092861
14250199 8 17910390585352539975
16945 1 17690564079098128783
17492 54 18123159507269106943
192875 21 17832683700238802418
21524375 3 18342735230499986170
21947302 44 18122621643818864059
23590187 152 18410574032554444408
2748010 2 18338532883941226174
5262128 65 17409645450627669679
526903 126 18410008797731435577
5939293 188 17400630529016383828
8050 44 18337108947542154813
81228 2 17826550753903840211
9981440 41 18338785758767578034

>  <PUBCHEM_SHAPE_MULTIPOLES>  (1) 
317.53
6.1
3.9
1.29
6.11
0.9
-0.09
-5.21
-0.65
-0.29
0.92
-0.55
0.61
1.34

>  <PUBCHEM_SHAPE_SELFOVERLAP>  (1) 
587.849

>  <PUBCHEM_SHAPE_VOLUME>  (1) 
200.7

>  <PUBCHEM_COORDINATE_TYPE>  (1) 
2
5
10

$$$$
