3426
     RDKit          3D

 12 12  0  0  1  0  0  0  0  0999 V2000
   -0.6673   -1.2844    0.4838 O   0  0  0  0  0  0  0  0  0  0  0  0
   -0.2980    2.3079   -0.2509 O   0  0  0  0  0  0  0  0  0  0  0  0
   -1.1909   -0.0503   -1.4713 O   0  0  0  0  0  0  0  0  0  0  0  0
    2.3571    1.5237    0.4052 O   0  0  0  0  0  0  0  0  0  0  0  0
    2.9010   -1.2760   -0.3149 O   0  0  0  0  0  0  0  0  0  0  0  0
   -3.3428   -0.6571    0.1689 O   0  0  0  0  0  0  0  0  0  0  0  0
    0.0104    1.0410    0.3260 C   0  0  0  0  0  0  0  0  0  0  0  0
   -1.0535   -0.0079   -0.0478 C   0  0  0  0  0  0  0  0  0  0  0  0
    1.4018    0.6197   -0.1530 C   0  0  0  0  0  0  0  0  0  0  0  0
    1.7172   -0.8001    0.3162 C   0  0  0  0  0  0  0  0  0  0  0  0
    0.5797   -1.7532   -0.0216 C   0  0  0  0  0  0  0  0  0  0  0  0
   -2.4149    0.3368    0.5594 C   0  0  0  0  0  0  0  0  0  0  0  0
  1  8  1  0
  1 11  1  0
  2  7  1  0
  3  8  1  0
  4  9  1  0
  5 10  1  0
  6 12  1  0
  7  8  1  0
  7  9  1  0
  8 12  1  0
  9 10  1  0
 10 11  1  0
M  END
>  <PUBCHEM_COMPOUND_CID>  (1) 
3426

>  <PUBCHEM_CONFORMER_RMSD>  (1) 
0.6

>  <PUBCHEM_CONFORMER_DIVERSEORDER>  (1) 
2
33
26
20
7
18
1
21
34
23
6
29
14
15
22
36
24
28
8
27
4
3
25
30
13
5
17
16
32
31
35
10
19
12
9
11
37

>  <PUBCHEM_MMFF94_PARTIAL_CHARGES>  (1) 
17
1 -0.56
10 0.28
11 0.28
12 0.28
2 -0.68
20 0.4
21 0.4
22 0.4
23 0.4
24 0.4
3 -0.68
4 -0.68
5 -0.68
6 -0.68
7 0.28
8 0.56
9 0.28

>  <PUBCHEM_EFFECTIVE_ROTOR_COUNT>  (1) 
2.2

>  <PUBCHEM_PHARMACOPHORE_FEATURES>  (1) 
12
1 1 acceptor
1 2 acceptor
1 2 donor
1 3 acceptor
1 3 donor
1 4 acceptor
1 4 donor
1 5 acceptor
1 5 donor
1 6 acceptor
1 6 donor
6 1 7 8 9 10 11 rings

>  <PUBCHEM_HEAVY_ATOM_COUNT>  (1) 
12

>  <PUBCHEM_ATOM_DEF_STEREO_COUNT>  (1) 
0

>  <PUBCHEM_ATOM_UDEF_STEREO_COUNT>  (1) 
4

>  <PUBCHEM_BOND_DEF_STEREO_COUNT>  (1) 
0

>  <PUBCHEM_BOND_UDEF_STEREO_COUNT>  (1) 
0

>  <PUBCHEM_ISOTOPIC_ATOM_COUNT>  (1) 
0

>  <PUBCHEM_COMPONENT_COUNT>  (1) 
1

>  <PUBCHEM_CACTVS_TAUTO_COUNT>  (1) 
1

>  <PUBCHEM_CONFORMER_ID>  (1) 
00000D6200000002

>  <PUBCHEM_MMFF94_ENERGY>  (1) 
31.7567

>  <PUBCHEM_FEATURE_SELFOVERLAP>  (1) 
60.966

>  <PUBCHEM_SHAPE_FINGERPRINT>  (1) 
10353120 184 18338525114434928590
11206711 2 18191872219099020076
12423570 1 10422164522359030903
12524768 44 18410851096668261922
14325111 11 18411703218343312249
161256 15 18411700959095744232
16945 1 18195242222064066843
193761 8 17472701325578252835
21040471 1 18266463298391271120
23235685 24 18266453389875598864
23552423 10 18261398797346329648
241688 4 18337675196104559576
2748010 2 18409728486479501694
29004967 10 18334295387602484033
5084963 1 18130506327532082298
528862 383 18335979869327871208
528886 8 18339920527771129112
63268167 104 18343018917263021921

>  <PUBCHEM_SHAPE_MULTIPOLES>  (1) 
211.74
3.63
1.87
0.81
0.82
0.47
0.18
-0.72
-0.26
-0.66
-0.03
0.2
0
0.14

>  <PUBCHEM_SHAPE_SELFOVERLAP>  (1) 
425.023

>  <PUBCHEM_SHAPE_VOLUME>  (1) 
123.3

>  <PUBCHEM_COORDINATE_TYPE>  (1) 
2
5
10

$$$$
