34269
     RDKit          3D

 16 15  0  0  0  0  0  0  0  0999 V2000
   -0.1252    0.3845    1.8792 O   0  0  0  0  0  0  0  0  0  0  0  0
    1.3163   -0.0131    0.1065 N   0  0  0  0  0  0  0  0  0  0  0  0
    1.6385   -0.8772   -1.0268 C   0  0  0  0  0  0  0  0  0  0  0  0
    2.4380    0.7463    0.6452 C   0  0  0  0  0  0  0  0  0  0  0  0
    2.0624   -2.2827   -0.5864 C   0  0  0  0  0  0  0  0  0  0  0  0
    2.5934    2.1143   -0.0284 C   0  0  0  0  0  0  0  0  0  0  0  0
    0.0504    0.1225    0.6864 C   0  0  0  0  0  0  0  0  0  0  0  0
   -1.1393   -0.0724   -0.2446 C   0  0  0  0  0  0  0  0  0  0  0  0
   -2.4803    0.0935    0.4724 C   0  0  0  0  0  0  0  0  0  0  0  0
   -3.6532   -0.0708   -0.4952 C   0  0  0  0  0  0  0  0  0  0  0  0
    0.9235   -2.9584    0.1781 C   0  0  0  0  0  0  0  0  0  0  0  0
    3.3233   -2.2465    0.2801 C   0  0  0  0  0  0  0  0  0  0  0  0
    1.3370    2.9559    0.1983 C   0  0  0  0  0  0  0  0  0  0  0  0
    2.8663    1.9775   -1.5280 C   0  0  0  0  0  0  0  0  0  0  0  0
   -4.9920    0.1282    0.2145 C   0  0  0  0  0  0  0  0  0  0  0  0
   -6.1590   -0.0016   -0.7512 C   0  0  0  0  0  0  0  0  0  0  0  0
  1  7  2  0
  2  3  1  0
  2  4  1  0
  2  7  1  0
  3  5  1  0
  4  6  1  0
  5 11  1  0
  5 12  1  0
  6 13  1  0
  6 14  1  0
  7  8  1  0
  8  9  1  0
  9 10  1  0
 10 15  1  0
 15 16  1  0
M  END
>  <PUBCHEM_COMPOUND_CID>  (1) 
34269

>  <PUBCHEM_CONFORMER_RMSD>  (1) 
0.8

>  <PUBCHEM_CONFORMER_DIVERSEORDER>  (1) 
1
39
37
34
38
20
44
13
40
43
45
30
3
42
33
2
46
17
19
5
35
23
11
29
4
26
15
41
16
25
31
9
27
24
14
7
36
21
32
18
12
28
6
8
10
22

>  <PUBCHEM_MMFF94_PARTIAL_CHARGES>  (1) 
6
1 -0.57
2 -0.66
3 0.3
4 0.3
7 0.57
8 0.06

>  <PUBCHEM_EFFECTIVE_ROTOR_COUNT>  (1) 
9

>  <PUBCHEM_PHARMACOPHORE_FEATURES>  (1) 
5
1 1 acceptor
1 16 hydrophobe
3 5 11 12 hydrophobe
3 6 13 14 hydrophobe
4 8 9 10 15 hydrophobe

>  <PUBCHEM_HEAVY_ATOM_COUNT>  (1) 
16

>  <PUBCHEM_ATOM_DEF_STEREO_COUNT>  (1) 
0

>  <PUBCHEM_ATOM_UDEF_STEREO_COUNT>  (1) 
0

>  <PUBCHEM_BOND_DEF_STEREO_COUNT>  (1) 
0

>  <PUBCHEM_BOND_UDEF_STEREO_COUNT>  (1) 
0

>  <PUBCHEM_ISOTOPIC_ATOM_COUNT>  (1) 
0

>  <PUBCHEM_COMPONENT_COUNT>  (1) 
1

>  <PUBCHEM_CACTVS_TAUTO_COUNT>  (1) 
1

>  <PUBCHEM_CONFORMER_ID>  (1) 
000085DD00000001

>  <PUBCHEM_MMFF94_ENERGY>  (1) 
26.6966

>  <PUBCHEM_FEATURE_SELFOVERLAP>  (1) 
25.374

>  <PUBCHEM_SHAPE_FINGERPRINT>  (1) 
12616999 72 18341050804455393945
12730499 353 18337120084951483689
13675066 3 12031786977294328033
13836976 161 18343019995067919214
13955234 65 18412261761681458707
14178000 15 18340205176681451888
14251717 144 18411982446693671167
14863182 85 16702020837911031006
15477762 27 18340769226109681614
15502722 9 18410859875555047695
17134986 127 18120662580686885140
17844677 252 18410297974507543969
20369508 70 18261669268896864179
20388580 30 18201442406840977807
20473742 2 18260829293763672158
20645477 70 18271807900298052591
20671657 1 18342739641135311517
20671657 53 18196374710530304511
20708731 107 18410858746031383404
20820808 20 18270682089989261801
21054139 6 17914036853773476047
22289505 5 18335978697240253725
2255824 54 18413111636593058863
23419403 2 17824800297137592758
23526113 38 17677907720698556634
23532345 1 18410294739890527657
23557571 272 17385715886125482117
23559900 14 18410569579042831683
23598291 2 17915199943622799289
3060560 45 18341618173846117988
3071541 37 18409735092292294316
312423 11 18201452328811127809
5281201 14 18336261254796350421
58051976 378 18342459283071624277
6025842 7 18411980282430944511
7164475 11 18130230333324525353
7364860 26 18410855455870124260
81228 2 17471870099673186074
81539 233 18335422421248700516
8272917 22 18413110558904030943

>  <PUBCHEM_SHAPE_MULTIPOLES>  (1) 
318.42
8.78
3.04
1.15
19.82
0.36
0.03
-0.3
-2.14
-4.73
-0.23
-0.32
-0.26
-0.33

>  <PUBCHEM_SHAPE_SELFOVERLAP>  (1) 
590.773

>  <PUBCHEM_SHAPE_VOLUME>  (1) 
201.4

>  <PUBCHEM_COORDINATE_TYPE>  (1) 
2
5
10

$$$$
