34271
     RDKit          3D

 19 20  0  0  0  0  0  0  0  0999 V2000
    5.2340   -1.6094    0.3832 O   0  0  0  0  0  0  0  0  0  0  0  0
   -6.0051    0.7854    0.3655 O   0  0  0  0  0  0  0  0  0  0  0  0
   -5.8475   -1.3121   -0.2628 O   0  0  0  0  0  0  0  0  0  0  0  0
    4.4887    0.5674   -0.1311 N   0  0  0  0  0  0  0  0  0  0  0  0
   -5.3200   -0.2152    0.0424 N   0  0  0  0  0  0  0  0  0  0  0  0
    0.3177    0.2344   -0.0521 C   0  0  0  0  0  0  0  0  0  0  0  0
   -1.1245    0.1191   -0.0260 C   0  0  0  0  0  0  0  0  0  0  0  0
    0.9140    1.4611   -0.3437 C   0  0  0  0  0  0  0  0  0  0  0  0
    1.1115   -0.8815    0.2131 C   0  0  0  0  0  0  0  0  0  0  0  0
    3.0982    0.4561   -0.1050 C   0  0  0  0  0  0  0  0  0  0  0  0
   -1.9054    1.2177    0.3324 C   0  0  0  0  0  0  0  0  0  0  0  0
   -1.7333   -1.0903   -0.3609 C   0  0  0  0  0  0  0  0  0  0  0  0
    2.3042    1.5720   -0.3702 C   0  0  0  0  0  0  0  0  0  0  0  0
    2.5018   -0.7707    0.1868 C   0  0  0  0  0  0  0  0  0  0  0  0
   -3.9049   -0.1025    0.0213 C   0  0  0  0  0  0  0  0  0  0  0  0
   -3.2956    1.1069    0.3562 C   0  0  0  0  0  0  0  0  0  0  0  0
   -3.1236   -1.2011   -0.3373 C   0  0  0  0  0  0  0  0  0  0  0  0
    5.4413   -0.4323    0.1066 C   0  0  0  0  0  0  0  0  0  0  0  0
    6.8486    0.0951   -0.0184 C   0  0  0  0  0  0  0  0  0  0  0  0
  1 18  2  0
  2  5  1  0
  3  5  2  0
  4 10  1  0
  4 18  1  0
  5 15  1  0
  6  7  1  0
  6  8  2  0
  6  9  1  0
  7 11  2  0
  7 12  1  0
  8 13  1  0
  9 14  2  0
 10 13  2  0
 10 14  1  0
 11 16  1  0
 12 17  2  0
 15 16  2  0
 15 17  1  0
 18 19  1  0
M  CHG  2   2  -1   5   1
M  END
>  <PUBCHEM_COMPOUND_CID>  (1) 
34271

>  <PUBCHEM_CONFORMER_RMSD>  (1) 
0.6

>  <PUBCHEM_CONFORMER_DIVERSEORDER>  (1) 
1
2

>  <PUBCHEM_MMFF94_PARTIAL_CHARGES>  (1) 
26
1 -0.57
10 0.12
11 -0.15
12 -0.15
13 -0.15
14 -0.15
15 0.13
16 -0.15
17 -0.15
18 0.57
19 0.06
2 -0.52
20 0.15
21 0.15
22 0.15
23 0.15
24 0.15
25 0.15
26 0.15
27 0.15
28 0.37
3 -0.52
4 -0.55
5 0.91
8 -0.15
9 -0.15

>  <PUBCHEM_EFFECTIVE_ROTOR_COUNT>  (1) 
4

>  <PUBCHEM_PHARMACOPHORE_FEATURES>  (1) 
7
1 1 acceptor
1 2 acceptor
1 2 anion
1 3 acceptor
1 4 donor
6 6 8 9 10 13 14 rings
6 7 11 12 15 16 17 rings

>  <PUBCHEM_HEAVY_ATOM_COUNT>  (1) 
19

>  <PUBCHEM_ATOM_DEF_STEREO_COUNT>  (1) 
0

>  <PUBCHEM_ATOM_UDEF_STEREO_COUNT>  (1) 
0

>  <PUBCHEM_BOND_DEF_STEREO_COUNT>  (1) 
0

>  <PUBCHEM_BOND_UDEF_STEREO_COUNT>  (1) 
0

>  <PUBCHEM_ISOTOPIC_ATOM_COUNT>  (1) 
0

>  <PUBCHEM_COMPONENT_COUNT>  (1) 
1

>  <PUBCHEM_CACTVS_TAUTO_COUNT>  (1) 
2

>  <PUBCHEM_CONFORMER_ID>  (1) 
000085DF00000001

>  <PUBCHEM_MMFF94_ENERGY>  (1) 
66.3079

>  <PUBCHEM_FEATURE_SELFOVERLAP>  (1) 
35.602

>  <PUBCHEM_SHAPE_FINGERPRINT>  (1) 
10968037 39 18409167718533081551
11315181 36 18131073748594055097
11524674 6 16271926025572523415
12107183 9 17619913859463401666
12166972 35 18411420630844225000
12236239 1 18411419518309843473
12516196 113 18273493481598364488
13288520 33 18413671314134523101
13533116 47 14189305811912294958
13862211 1 18333729096670915082
14251764 18 18408884049476844704
15042514 8 18269836592056271231
15196674 1 18338799030142506589
17834072 33 18411418427646626252
1813 80 17749398014402848158
18681886 176 18341888636515820280
19141452 34 18342174496422291486
19489759 90 16630529522805557515
200 152 18341893004545006801
20612939 158 17894636997735936124
21267235 1 18410300224168177643
22224240 67 17275096241979877254
2297311 6 17917438609568982872
23035841 295 18409448072971876810
23402539 116 18131909369368731349
23536379 177 18412826876108388882
23557571 272 17275112699582567952
23559900 14 18342731970318732192
26918003 58 18187086174106558547
335352 9 18410855477751208045
34797466 226 17203334446676945740
350125 39 18410575071873700717
3545911 37 18413108359458795054
4073 2 18041846241654932626
4214541 1 18411138022132830293
42788 4 18411138047501415108
4325135 7 18260270759627228228
4340502 62 15267345119821902812
4463277 17 18408885140013656332
465052 167 18410014338624323862
5104073 3 18270403913853162753
542803 24 17168145645621906124
559249 180 18337387149854110027
59755656 215 18201725024600736446
59755656 520 17385439942987865123
67856867 119 18269272524931226876
7495541 125 17274819215818911657

>  <PUBCHEM_SHAPE_MULTIPOLES>  (1) 
363.44
14.74
1.47
0.66
4.25
0.06
-0.01
-2.67
0.71
-0.11
-0.04
-0.01
0.02
-0.68

>  <PUBCHEM_SHAPE_SELFOVERLAP>  (1) 
784.333

>  <PUBCHEM_SHAPE_VOLUME>  (1) 
200.9

>  <PUBCHEM_COORDINATE_TYPE>  (1) 
2
5
10

$$$$
