3428
     RDKit          3D

 19 18  0  0  1  0  0  0  0  0999 V2000
    2.5125   -1.0262   -0.4408 N   0  0  0  0  0  0  0  0  0  0  0  0
    4.0128    2.0457    1.0808 N   0  0  0  0  0  0  0  0  0  0  0  0
   -0.6110   -2.6759   -0.2202 N   0  0  0  0  0  0  0  0  0  0  0  0
   -0.9798    1.8046   -0.5794 N   0  0  0  0  0  0  0  0  0  0  0  0
   -3.3026   -0.9894    2.7411 N   0  0  0  0  0  0  0  0  0  0  0  0
   -2.8747    3.2808   -0.5635 N   0  0  0  0  0  0  0  0  0  0  0  0
   -2.8182    1.4736   -1.9515 N   0  0  0  0  0  0  0  0  0  0  0  0
    3.3295    1.2730    0.0383 C   0  0  0  0  0  0  0  0  0  0  0  0
    1.9803    1.9270   -0.3269 C   0  0  0  0  0  0  0  0  0  0  0  0
    3.1528   -0.1676    0.5515 C   0  0  0  0  0  0  0  0  0  0  0  0
    2.3257   -2.3713    0.0825 C   0  0  0  0  0  0  0  0  0  0  0  0
    0.9965    2.0015    0.8502 C   0  0  0  0  0  0  0  0  0  0  0  0
    1.6508   -3.2932   -0.9353 C   0  0  0  0  0  0  0  0  0  0  0  0
    0.2739   -2.7916   -1.3741 C   0  0  0  0  0  0  0  0  0  0  0  0
   -0.3392    2.6225    0.4517 C   0  0  0  0  0  0  0  0  0  0  0  0
   -1.9236   -2.1890   -0.6196 C   0  0  0  0  0  0  0  0  0  0  0  0
   -2.8708   -2.0506    0.5742 C   0  0  0  0  0  0  0  0  0  0  0  0
   -2.3647   -1.0620    1.6262 C   0  0  0  0  0  0  0  0  0  0  0  0
   -2.1501    2.1881   -0.9852 C   0  0  0  0  0  0  0  0  0  0  0  0
  1 10  1  0
  1 11  1  0
  2  8  1  0
  3 14  1  0
  3 16  1  0
  4 15  1  0
  4 19  2  3
  5 18  1  0
  6 19  1  0
  7 19  1  0
  8  9  1  0
  8 10  1  0
  9 12  1  0
 11 13  1  0
 12 15  1  0
 13 14  1  0
 16 17  1  0
 17 18  1  0
M  END
>  <PUBCHEM_COMPOUND_CID>  (1) 
3428

>  <PUBCHEM_CONFORMER_RMSD>  (1) 
1.2

>  <PUBCHEM_CONFORMER_DIVERSEORDER>  (1) 
1
34
5
75
41
38
15
81
13
65
67
39
23
59
66
74
55
77
68
40
32
42
17
63
2
29
18
58
60
26
71
22
51
46
69
43
37
49
57
76
61
25
80
78
64
50
56
3
20
82
48
27
53
24
21
36
79
11
14
12
72
52
44
19
4
6
45
70
35
8
9
54
47
30
62
73
28
7
33
16
31
10

>  <PUBCHEM_MMFF94_PARTIAL_CHARGES>  (1) 
25
1 -0.9
10 0.27
11 0.27
14 0.27
15 0.25
16 0.27
18 0.27
19 0.55
2 -0.99
3 -0.9
31 0.36
34 0.36
35 0.36
38 0.36
4 -0.7
45 0.36
46 0.36
47 0.4
48 0.4
49 0.4
5 -0.99
50 0.4
6 -0.85
7 -0.85
8 0.27

>  <PUBCHEM_EFFECTIVE_ROTOR_COUNT>  (1) 
13

>  <PUBCHEM_PHARMACOPHORE_FEATURES>  (1) 
11
1 1 cation
1 1 donor
1 2 cation
1 2 donor
1 3 cation
1 3 donor
1 5 cation
1 5 donor
1 6 donor
1 7 donor
4 4 6 7 19 cation

>  <PUBCHEM_HEAVY_ATOM_COUNT>  (1) 
19

>  <PUBCHEM_ATOM_DEF_STEREO_COUNT>  (1) 
0

>  <PUBCHEM_ATOM_UDEF_STEREO_COUNT>  (1) 
1

>  <PUBCHEM_BOND_DEF_STEREO_COUNT>  (1) 
0

>  <PUBCHEM_BOND_UDEF_STEREO_COUNT>  (1) 
0

>  <PUBCHEM_ISOTOPIC_ATOM_COUNT>  (1) 
0

>  <PUBCHEM_COMPONENT_COUNT>  (1) 
1

>  <PUBCHEM_CACTVS_TAUTO_COUNT>  (1) 
2

>  <PUBCHEM_CONFORMER_ID>  (1) 
00000D6400000001

>  <PUBCHEM_MMFF94_ENERGY>  (1) 
2.86

>  <PUBCHEM_FEATURE_SELFOVERLAP>  (1) 
55.884

>  <PUBCHEM_SHAPE_FINGERPRINT>  (1) 
10382601 240 18267887114668681450
10708813 3 17476364275651808831
12539773 59 17127328660385338583
13032168 30 16687940226255809146
19026451 147 16678909950262612703
20621476 7 18338808934268720963
238 59 18126545856668510303
6992083 37 17764033862287292579

>  <PUBCHEM_SHAPE_MULTIPOLES>  (1) 
356.14
6.07
5.08
1.66
1.58
0.49
-0.64
-1.31
-1.95
-0.83
1.67
-1.88
0.12
2.07

>  <PUBCHEM_SHAPE_SELFOVERLAP>  (1) 
656.927

>  <PUBCHEM_SHAPE_VOLUME>  (1) 
218.3

>  <PUBCHEM_COORDINATE_TYPE>  (1) 
2
5
10

$$$$
