34290
     RDKit          3D

 11 12  0  0  1  0  0  0  0  0999 V2000
    0.0147    2.4979    0.3637 S   0  0  0  0  0  0  0  0  0  0  0  0
    1.1078   -0.0104   -0.4008 C   0  0  0  0  0  0  0  0  0  0  0  0
   -0.1039    0.6856    0.3088 C   0  0  0  0  0  0  0  0  0  0  0  0
    0.8830   -1.1419    0.6538 C   0  0  0  0  0  0  0  0  0  0  0  0
    0.4626    0.0208    1.6099 C   0  0  0  0  0  0  0  0  0  0  0  0
   -0.2850   -2.0770    0.2938 C   0  0  0  0  0  0  0  0  0  0  0  0
   -1.4221    0.0962   -0.1050 C   0  0  0  0  0  0  0  0  0  0  0  0
    0.9267   -0.3822   -1.8609 C   0  0  0  0  0  0  0  0  0  0  0  0
    2.4908    0.6161   -0.2585 C   0  0  0  0  0  0  0  0  0  0  0  0
   -1.4844   -1.2487   -0.1039 C   0  0  0  0  0  0  0  0  0  0  0  0
   -2.5902    0.9437   -0.5008 C   0  0  0  0  0  0  0  0  0  0  0  0
  1  3  1  0
  2  3  1  0
  2  4  1  0
  2  8  1  0
  2  9  1  0
  3  5  1  0
  3  7  1  0
  4  5  1  0
  4  6  1  0
  6 10  1  0
  7 10  2  0
  7 11  1  0
M  END
>  <PUBCHEM_COMPOUND_CID>  (1) 
34290

>  <PUBCHEM_CONFORMER_RMSD>  (1) 
0.4

>  <PUBCHEM_CONFORMER_DIVERSEORDER>  (1) 
1
2

>  <PUBCHEM_MMFF94_PARTIAL_CHARGES>  (1) 
8
1 -0.4
10 -0.29
11 0.14
23 0.15
24 0.18
3 0.33
6 0.14
7 -0.25

>  <PUBCHEM_EFFECTIVE_ROTOR_COUNT>  (1) 
0.6

>  <PUBCHEM_PHARMACOPHORE_FEATURES>  (1) 
2
3 2 8 9 hydrophobe
7 2 3 4 5 6 7 10 rings

>  <PUBCHEM_HEAVY_ATOM_COUNT>  (1) 
11

>  <PUBCHEM_ATOM_DEF_STEREO_COUNT>  (1) 
0

>  <PUBCHEM_ATOM_UDEF_STEREO_COUNT>  (1) 
2

>  <PUBCHEM_BOND_DEF_STEREO_COUNT>  (1) 
0

>  <PUBCHEM_BOND_UDEF_STEREO_COUNT>  (1) 
0

>  <PUBCHEM_ISOTOPIC_ATOM_COUNT>  (1) 
0

>  <PUBCHEM_COMPONENT_COUNT>  (1) 
1

>  <PUBCHEM_CACTVS_TAUTO_COUNT>  (1) 
1

>  <PUBCHEM_CONFORMER_ID>  (1) 
000085F200000001

>  <PUBCHEM_MMFF94_ENERGY>  (1) 
39.7242

>  <PUBCHEM_FEATURE_SELFOVERLAP>  (1) 
10.148

>  <PUBCHEM_SHAPE_FINGERPRINT>  (1) 
12423570 1 11827517348231263818
12716758 59 18409452522262388382
13024252 1 17169564114780427270
137420 1 14133501193838801898
15557651 10 17749657580118579997
16945 1 17977942711246569130
20653085 51 17605015717662465052
21040471 1 18336815442541539059
2748010 2 18411419513962245603
29004967 10 16701475561874378966
369184 2 18264779924914911888
4369600 1 18341604898028190205
5084963 1 17771058594732247379
528886 8 18411698772704098641
68250623 7 17475798027174040730

>  <PUBCHEM_SHAPE_MULTIPOLES>  (1) 
230.22
2.44
2.1
1.28
0.46
0.56
0.18
0.49
0.61
0.32
-0.33
-0.39
-0.13
0.09

>  <PUBCHEM_SHAPE_SELFOVERLAP>  (1) 
474.51

>  <PUBCHEM_SHAPE_VOLUME>  (1) 
136.1

>  <PUBCHEM_COORDINATE_TYPE>  (1) 
2
5
10

$$$$
