34308
     RDKit          3D

 14 15  0  0  1  0  0  0  0  0999 V2000
    1.9446   -0.2579   -1.9086 Cl  0  0  0  0  0  0  0  0  0  0  0  0
   -2.3944   -1.0360    1.4264 Cl  0  0  0  0  0  0  0  0  0  0  0  0
   -1.5150   -0.6963   -2.0083 Cl  0  0  0  0  0  0  0  0  0  0  0  0
   -0.0790   -2.6943   -0.5294 Cl  0  0  0  0  0  0  0  0  0  0  0  0
    1.3137    2.7056   -0.0429 Cl  0  0  0  0  0  0  0  0  0  0  0  0
   -2.5083    1.8828   -0.1387 Cl  0  0  0  0  0  0  0  0  0  0  0  0
    2.9693   -0.4116    1.2567 Cl  0  0  0  0  0  0  0  0  0  0  0  0
    0.8302   -0.0111   -0.5800 C   0  0  0  0  0  0  0  0  0  0  0  0
   -0.9531   -0.3196    0.7393 C   0  0  0  0  0  0  0  0  0  0  0  0
   -0.4371   -0.9250   -0.6004 C   0  0  0  0  0  0  0  0  0  0  0  0
    0.1865    1.4155   -0.5285 C   0  0  0  0  0  0  0  0  0  0  0  0
   -0.9790    1.2302    0.5018 C   0  0  0  0  0  0  0  0  0  0  0  0
    1.3406   -0.3471    0.8068 C   0  0  0  0  0  0  0  0  0  0  0  0
    0.2810   -0.5353    1.6057 C   0  0  0  0  0  0  0  0  0  0  0  0
  1  8  1  0
  2  9  1  0
  3 10  1  0
  4 10  1  0
  5 11  1  0
  6 12  1  0
  7 13  1  0
  8 10  1  0
  8 11  1  0
  8 13  1  0
  9 10  1  0
  9 12  1  0
  9 14  1  0
 11 12  1  0
 13 14  2  0
M  END
>  <PUBCHEM_COMPOUND_CID>  (1) 
34308

>  <PUBCHEM_CONFORMER_RMSD>  (1) 
0.4

>  <PUBCHEM_CONFORMER_DIVERSEORDER>  (1) 
1
7
5
4
8
6
2
3

>  <PUBCHEM_MMFF94_PARTIAL_CHARGES>  (1) 
14
1 -0.29
10 0.58
11 0.29
12 0.29
14 -0.29
17 0.15
2 -0.29
3 -0.29
4 -0.29
5 -0.29
6 -0.29
7 -0.14
8 0.43
9 0.43

>  <PUBCHEM_EFFECTIVE_ROTOR_COUNT>  (1) 
0.6

>  <PUBCHEM_PHARMACOPHORE_FEATURES>  (1) 
1
7 8 9 10 11 12 13 14 rings

>  <PUBCHEM_HEAVY_ATOM_COUNT>  (1) 
14

>  <PUBCHEM_ATOM_DEF_STEREO_COUNT>  (1) 
0

>  <PUBCHEM_ATOM_UDEF_STEREO_COUNT>  (1) 
4

>  <PUBCHEM_BOND_DEF_STEREO_COUNT>  (1) 
0

>  <PUBCHEM_BOND_UDEF_STEREO_COUNT>  (1) 
0

>  <PUBCHEM_ISOTOPIC_ATOM_COUNT>  (1) 
0

>  <PUBCHEM_COMPONENT_COUNT>  (1) 
1

>  <PUBCHEM_CACTVS_TAUTO_COUNT>  (1) 
1

>  <PUBCHEM_CONFORMER_ID>  (1) 
0000860400000001

>  <PUBCHEM_MMFF94_ENERGY>  (1) 
66.7127

>  <PUBCHEM_FEATURE_SELFOVERLAP>  (1) 
5.074

>  <PUBCHEM_SHAPE_FINGERPRINT>  (1) 
12138202 97 17274235284871166972
12423570 1 13785958388602230731
13024252 1 17170650221799545914
137420 1 14036368176262087535
144361 1 17701828678444771551
14817 1 12146597474054162220
15881359 60 18202568410032373911
16945 1 18194420912890807497
20511035 2 18113620100983206921
22344851 12 13951053886550106316
22344851 262 18127951054077406133
23419403 2 17460852215219895234
2748010 2 18197795322507923222
5084963 1 17629235729518240859
528886 8 17908178444960988692
54276843 12 17101474688040084951
68250623 7 17977645830290758920

>  <PUBCHEM_SHAPE_MULTIPOLES>  (1) 
301.2
3.09
2.45
1.84
0.3
0.66
-0.41
0.34
0.65
-0.28
-0.31
0.12
-0.63
-0.01

>  <PUBCHEM_SHAPE_SELFOVERLAP>  (1) 
583.033

>  <PUBCHEM_SHAPE_VOLUME>  (1) 
186.5

>  <PUBCHEM_COORDINATE_TYPE>  (1) 
2
5
10

$$$$
