34311
     RDKit          3D

 46 53  0  0  1  0  0  0  0  0999 V2000
    5.6899    1.9601    1.5044 O   0  0  0  0  0  0  0  0  0  0  0  0
    1.8453    4.3309    0.5404 O   0  0  0  0  0  0  0  0  0  0  0  0
   -2.5219    2.4902   -0.1637 O   0  0  0  0  0  0  0  0  0  0  0  0
    1.1268    2.6357   -2.9390 O   0  0  0  0  0  0  0  0  0  0  0  0
    8.6265   -3.7203    0.0991 O   0  0  0  0  0  0  0  0  0  0  0  0
   -3.3806    0.9245   -1.6807 O   0  0  0  0  0  0  0  0  0  0  0  0
    8.1678   -4.4846   -2.0226 O   0  0  0  0  0  0  0  0  0  0  0  0
   -5.6618   -0.4089    0.7862 O   0  0  0  0  0  0  0  0  0  0  0  0
   -6.2558   -1.3121   -1.2885 O   0  0  0  0  0  0  0  0  0  0  0  0
    4.9077    0.7749    1.3242 C   0  0  0  0  0  0  0  0  0  0  0  0
    3.4259    1.1669    1.0616 C   0  0  0  0  0  0  0  0  0  0  0  0
    5.5130   -0.1419    0.1920 C   0  0  0  0  0  0  0  0  0  0  0  0
    3.2373    1.8053   -0.3419 C   0  0  0  0  0  0  0  0  0  0  0  0
    1.7353    2.1723   -0.6400 C   0  0  0  0  0  0  0  0  0  0  0  0
    1.1578    3.0694    0.5044 C   0  0  0  0  0  0  0  0  0  0  0  0
    5.7466   -1.5071    0.9153 C   0  0  0  0  0  0  0  0  0  0  0  0
    4.5194   -0.3406   -0.9753 C   0  0  0  0  0  0  0  0  0  0  0  0
    3.9086    0.9706   -1.4615 C   0  0  0  0  0  0  0  0  0  0  0  0
    5.0549   -0.0321    2.6362 C   0  0  0  0  0  0  0  0  0  0  0  0
    2.8676    2.1075    2.1425 C   0  0  0  0  0  0  0  0  0  0  0  0
    1.3962    2.4337    1.8908 C   0  0  0  0  0  0  0  0  0  0  0  0
    6.1012   -1.0967    2.3408 C   0  0  0  0  0  0  0  0  0  0  0  0
    0.8459    0.9146   -0.8446 C   0  0  0  0  0  0  0  0  0  0  0  0
   -0.3423    3.3613    0.3065 C   0  0  0  0  0  0  0  0  0  0  0  0
    6.8406    0.4268   -0.3716 C   0  0  0  0  0  0  0  0  0  0  0  0
   -0.6479    1.2220   -0.9881 C   0  0  0  0  0  0  0  0  0  0  0  0
   -1.1836    2.1013    0.1350 C   0  0  0  0  0  0  0  0  0  0  0  0
    1.7406    2.9730   -1.9321 C   0  0  0  0  0  0  0  0  0  0  0  0
    6.7419   -2.4365    0.3024 C   0  0  0  0  0  0  0  0  0  0  0  0
    7.9652   -2.8475    1.0211 C   0  0  0  0  0  0  0  0  0  0  0  0
    6.6812   -2.9962   -0.9030 C   0  0  0  0  0  0  0  0  0  0  0  0
   -3.3696    1.3564   -0.3198 C   0  0  0  0  0  0  0  0  0  0  0  0
    7.8835   -3.8193   -1.0416 C   0  0  0  0  0  0  0  0  0  0  0  0
   -4.7803    1.7627    0.0975 C   0  0  0  0  0  0  0  0  0  0  0  0
   -5.7900    0.6578   -0.1579 C   0  0  0  0  0  0  0  0  0  0  0  0
   -5.6045   -0.0516   -1.4819 C   0  0  0  0  0  0  0  0  0  0  0  0
   -4.1300   -0.2808   -1.8435 C   0  0  0  0  0  0  0  0  0  0  0  0
   -6.2929   -1.5318    0.1376 C   0  0  0  0  0  0  0  0  0  0  0  0
   -3.9849   -0.7350   -3.2920 C   0  0  0  0  0  0  0  0  0  0  0  0
   -5.4972   -2.7931    0.4697 C   0  0  0  0  0  0  0  0  0  0  0  0
   -7.7324   -1.6963    0.6127 C   0  0  0  0  0  0  0  0  0  0  0  0
   -8.5168   -2.7318    0.1077 C   0  0  0  0  0  0  0  0  0  0  0  0
   -8.2601   -0.8113    1.5511 C   0  0  0  0  0  0  0  0  0  0  0  0
   -9.8336   -2.8826    0.5425 C   0  0  0  0  0  0  0  0  0  0  0  0
   -9.5769   -0.9623    1.9859 C   0  0  0  0  0  0  0  0  0  0  0  0
  -10.3636   -1.9979    1.4815 C   0  0  0  0  0  0  0  0  0  0  0  0
  1 10  1  0
  2 15  1  0
  3 27  1  0
  3 32  1  0
  4 28  2  0
  5 30  1  0
  5 33  1  0
  6 32  1  0
  6 37  1  0
  7 33  2  0
  8 35  1  0
  8 38  1  0
  9 36  1  0
  9 38  1  0
 10 11  1  0
 10 12  1  0
 10 19  1  0
 11 13  1  0
 11 20  1  0
 12 16  1  0
 12 17  1  0
 12 25  1  0
 13 14  1  0
 13 18  1  0
 14 15  1  0
 14 23  1  0
 14 28  1  0
 15 21  1  0
 15 24  1  0
 16 22  1  0
 16 29  1  0
 17 18  1  0
 19 22  1  0
 20 21  1  0
 23 26  1  0
 24 27  1  0
 26 27  1  0
 29 30  1  0
 29 31  2  0
 31 33  1  0
 32 34  1  0
 34 35  1  0
 35 36  1  0
 36 37  1  0
 37 39  1  0
 38 40  1  0
 38 41  1  0
 41 42  2  0
 41 43  1  0
 42 44  1  0
 43 45  2  0
 44 46  2  0
 45 46  1  0
M  END
>  <PUBCHEM_COMPOUND_CID>  (1) 
34311

>  <PUBCHEM_CONFORMER_RMSD>  (1) 
1.2

>  <PUBCHEM_CONFORMER_DIVERSEORDER>  (1) 
1
393
309
446
459
382
194
259
31
62
175
362
283
120
238
116
452
52
258
25
409
106
421
113
23
213
73
375
95
237
254
13
441
383
471
467
118
244
59
337
252
224
408
222
443
307
262
137
42
270
469
33
300
470
210
117
340
365
304
249
44
263
412
449
97
335
287
22
71
126
343
185
60
37
431
398
148
190
436
178
430
30
161
18
223
447
286
432
338
77
322
66
90
462
183
145
86
83
72
275
450
181
89
159
130
109
315
171
167
373
192
377
235
127
367
385
310
78
266
301
64
257
241
313
122
264
176
139
79
150
191
378
413
423
155
8
345
364
61
289
339
369
147
427
75
243
352
27
330
320
344
455
12
426
358
353
319
201
296
115
102
448
217
26
303
19
461
386
170
463
366
276
356
186
156
314
85
6
172
107
180
399
329
380
391
58
54
332
460
285
177
327
420
417
434
206
457
308
328
253
53
16
198
268
232
251
34
103
135
234
400
233
182
336
416
105
111
288
110
403
70
293
125
410
5
45
278
208
136
451
211
11
466
197
333
468
200
439
247
465
63
81
226
91
433
435
424
214
474
279
440
119
445
245
438
56
196
458
256
96
157
290
261
140
269
227
395
284
311
131
143
368
80
454
255
422
260
348
199
187
453
376
212
209
87
99
229
405
169
305
239
325
428
92
218
3
401
28
326
274
231
281
472
128
100
271
20
437
225
297
242
351
418
240
216
207
392
88
154
354
394
164
15
230
334
277
133
24
38
292
387
10
67
146
219
55
355
205
189
165
248
419
473
134
306
179
272
371
397
381
14
347
82
324
384
374
228
372
29
442
291
390
363
32
299
361
302
141
357
98
321
221
280
360
282
215
236
168
162
184
47
425
173
7
414
195
160
50
166
144
151
464
149
39
342
404
346
331
411
317
298
124
142
312
350
341
153
250
429
456
158
74
370
51
68
406
21
294
84
36
267
49
121
389
273
40
129
246
132
323
114
35
9
444
93
41
316
203
108
163
204
65
104
174
349
46
265
359
43
396
94
17
402
193
318
220
57
415
48
101
152
112
4
388
202
76
379
295
188
2
138
407
123
69

>  <PUBCHEM_MMFF94_PARTIAL_CHARGES>  (1) 
39
1 -0.68
10 0.28
14 0.06
15 0.28
16 0.14
2 -0.68
27 0.28
28 0.45
29 -0.28
3 -0.56
30 0.42
31 -0.14
32 0.56
33 0.71
35 0.28
36 0.28
37 0.28
38 0.7
4 -0.57
41 -0.14
42 -0.15
43 -0.15
44 -0.15
45 -0.15
46 -0.15
5 -0.43
6 -0.56
7 -0.57
72 0.4
73 0.06
74 0.4
77 0.15
8 -0.56
9 -0.56
90 0.15
91 0.15
92 0.15
93 0.15
94 0.15

>  <PUBCHEM_EFFECTIVE_ROTOR_COUNT>  (1) 
9

>  <PUBCHEM_PHARMACOPHORE_FEATURES>  (1) 
18
1 1 acceptor
1 1 donor
1 2 acceptor
1 2 donor
1 3 acceptor
1 4 acceptor
1 6 acceptor
1 7 acceptor
1 8 acceptor
1 9 acceptor
5 10 12 16 19 22 rings
5 5 29 30 31 33 rings
5 8 9 35 36 38 rings
6 10 11 12 13 17 18 rings
6 11 13 14 15 20 21 rings
6 14 15 23 24 26 27 rings
6 41 42 43 44 45 46 rings
6 6 32 34 35 36 37 rings

>  <PUBCHEM_HEAVY_ATOM_COUNT>  (1) 
46

>  <PUBCHEM_ATOM_DEF_STEREO_COUNT>  (1) 
8

>  <PUBCHEM_ATOM_UDEF_STEREO_COUNT>  (1) 
5

>  <PUBCHEM_BOND_DEF_STEREO_COUNT>  (1) 
0

>  <PUBCHEM_BOND_UDEF_STEREO_COUNT>  (1) 
0

>  <PUBCHEM_ISOTOPIC_ATOM_COUNT>  (1) 
0

>  <PUBCHEM_COMPONENT_COUNT>  (1) 
1

>  <PUBCHEM_CACTVS_TAUTO_COUNT>  (1) 
1

>  <PUBCHEM_CONFORMER_ID>  (1) 
0000860700000001

>  <PUBCHEM_MMFF94_ENERGY>  (1) 
163.1133

>  <PUBCHEM_FEATURE_SELFOVERLAP>  (1) 
91.806

>  <PUBCHEM_SHAPE_FINGERPRINT>  (1) 
10533779 1 8718535091858245742
10930396 42 15554731063086771579
11456790 92 17561366171381512713
11497681 19 18336265644743647900
11607047 74 18116158955722877580
117089 54 18270681961783918310
11828042 75 17698173851200398054
12013929 27 18113902603100699734
13627175 4 18114184112088923995
13782708 43 18340193095571541948
13947947 140 18335134281031593479
14040221 304 15936700354619997198
14040222 275 15068624890408449917
14359421 15 17676483908922889130
15082195 135 11530748311081892741
15347591 1 18409731750766754701
15455200 26 11892775773762104758
15510800 12 18410852132114427306
15684393 108 18114749338221940677
16067689 68 18202008690564363955
16993089 31 18186797003018348047
16994733 274 10231745700150727276
19246450 95 16916500329268553861
19301679 30 18271250434458692373
19303781 99 18338222804650967350
19841028 212 18334859424129831978
2026 5 18114178601567223203
208703 8 18408598145597574014
20982279 24 17749967643579457115
21033648 29 13254790261659586428
21362857 166 15285899365244271320
21792938 703 17967822669128645752
21792965 106 10663833965757565275
21895431 317 18269554018164479935
24983565 74 18194111048724583243
25269216 80 15357696380344762223
255183 451 17894350007763034077
3862424 121 18260834774242227278
3918712 181 8430312437577223118
397638 5 16988851584371183273
3991529 202 18343308068000172025
406291 66 18334858303206950275
4403749 210 10879983684603637685
44880168 125 18261947570536347239
504579 68 13118270504535560185
5372103 7 8070021173427138154
57527293 21 17346306159027732172
6201320 77 18270957943212244918
9555976 147 15625076802306268669

>  <PUBCHEM_SHAPE_MULTIPOLES>  (1) 
893.83
32.37
5
2.38
42.73
1.58
-0.55
45.86
9.76
-7.78
-0.67
-0.5
-0.17
3.38

>  <PUBCHEM_SHAPE_SELFOVERLAP>  (1) 
1960.845

>  <PUBCHEM_SHAPE_VOLUME>  (1) 
477.1

>  <PUBCHEM_COORDINATE_TYPE>  (1) 
2
5
10

$$$$
