34315
     RDKit          3D

 20 22  0  0  0  0  0  0  0  0999 V2000
    3.6509   -2.4009   -0.0007 O   0  0  0  0  0  0  0  0  0  0  0  0
    1.4590   -2.5219    0.0001 O   0  0  0  0  0  0  0  0  0  0  0  0
   -2.5496   -1.8005    0.0002 N   0  0  0  0  0  0  0  0  0  0  0  0
    0.0205    2.3354    0.0000 N   0  0  0  0  0  0  0  0  0  0  0  0
    2.5218   -1.8602   -0.0005 N   0  0  0  0  0  0  0  0  0  0  0  0
   -1.2145    0.2706    0.0002 C   0  0  0  0  0  0  0  0  0  0  0  0
   -2.4565   -0.3882    0.0004 C   0  0  0  0  0  0  0  0  0  0  0  0
    1.2145    0.2467   -0.0002 C   0  0  0  0  0  0  0  0  0  0  0  0
   -1.1532    1.6743    0.0002 C   0  0  0  0  0  0  0  0  0  0  0  0
   -0.0068   -0.4346    0.0000 C   0  0  0  0  0  0  0  0  0  0  0  0
    1.1809    1.6514   -0.0001 C   0  0  0  0  0  0  0  0  0  0  0  0
   -3.6408    0.3426    0.0006 C   0  0  0  0  0  0  0  0  0  0  0  0
    2.4433   -0.4365   -0.0004 C   0  0  0  0  0  0  0  0  0  0  0  0
   -2.3523    2.3820    0.0004 C   0  0  0  0  0  0  0  0  0  0  0  0
   -3.5882    1.7306    0.0006 C   0  0  0  0  0  0  0  0  0  0  0  0
    2.3937    2.3353   -0.0004 C   0  0  0  0  0  0  0  0  0  0  0  0
    3.6418    0.2709   -0.0005 C   0  0  0  0  0  0  0  0  0  0  0  0
   -2.5977   -2.5277   -1.2496 C   0  0  0  0  0  0  0  0  0  0  0  0
   -2.5834   -2.5290    1.2500 C   0  0  0  0  0  0  0  0  0  0  0  0
    3.6166    1.6597   -0.0005 C   0  0  0  0  0  0  0  0  0  0  0  0
  1  5  1  0
  2  5  2  0
  3  7  1  0
  3 18  1  0
  3 19  1  0
  4  9  2  0
  4 11  1  0
  5 13  1  0
  6  7  1  0
  6  9  1  0
  6 10  2  0
  7 12  2  0
  8 10  1  0
  8 11  2  0
  8 13  1  0
  9 14  1  0
 11 16  1  0
 12 15  1  0
 13 17  2  0
 14 15  2  0
 16 20  2  0
 17 20  1  0
M  CHG  2   1  -1   5   1
M  END
>  <PUBCHEM_COMPOUND_CID>  (1) 
34315

>  <PUBCHEM_CONFORMER_RMSD>  (1) 
0.6

>  <PUBCHEM_CONFORMER_DIVERSEORDER>  (1) 
1

>  <PUBCHEM_MMFF94_PARTIAL_CHARGES>  (1) 
25
1 -0.52
10 -0.15
11 0.31
12 -0.15
13 0.13
14 -0.15
15 -0.15
16 -0.15
17 -0.15
18 0.37
19 0.37
2 -0.52
20 -0.15
21 0.15
22 0.15
23 0.15
24 0.15
25 0.15
26 0.15
3 -0.84
33 0.15
4 -0.62
5 0.91
7 0.1
9 0.31

>  <PUBCHEM_EFFECTIVE_ROTOR_COUNT>  (1) 
2

>  <PUBCHEM_PHARMACOPHORE_FEATURES>  (1) 
8
1 1 acceptor
1 1 anion
1 2 acceptor
1 3 cation
1 4 acceptor
6 4 6 8 9 10 11 rings
6 6 7 9 12 14 15 rings
6 8 11 13 16 17 20 rings

>  <PUBCHEM_HEAVY_ATOM_COUNT>  (1) 
20

>  <PUBCHEM_ATOM_DEF_STEREO_COUNT>  (1) 
0

>  <PUBCHEM_ATOM_UDEF_STEREO_COUNT>  (1) 
0

>  <PUBCHEM_BOND_DEF_STEREO_COUNT>  (1) 
0

>  <PUBCHEM_BOND_UDEF_STEREO_COUNT>  (1) 
0

>  <PUBCHEM_ISOTOPIC_ATOM_COUNT>  (1) 
0

>  <PUBCHEM_COMPONENT_COUNT>  (1) 
1

>  <PUBCHEM_CACTVS_TAUTO_COUNT>  (1) 
1

>  <PUBCHEM_CONFORMER_ID>  (1) 
0000860B00000001

>  <PUBCHEM_MMFF94_ENERGY>  (1) 
105.1427

>  <PUBCHEM_FEATURE_SELFOVERLAP>  (1) 
40.738

>  <PUBCHEM_SHAPE_FINGERPRINT>  (1) 
10062212 137 18336537309038737808
10411042 1 15888840391394738157
10608611 8 18410009931402464976
10616163 171 18411421751597943934
10967382 1 18410575054635516932
1100329 8 18192711142023298875
11578080 2 17273679044141894369
11680986 33 18410296895352336456
12553582 1 18048871901676069114
12839892 36 18267000908612581520
13140716 1 18410291385130796586
14081887 123 18201141235170433480
14178342 30 18338784693737176576
14223421 5 18411139172930650176
14790565 3 17255141445834248197
15196674 1 18338517443802861153
15442244 35 18267584615589270280
15536298 74 18342174419508434216
16945 1 18410856529622984965
17492 89 18410291432154702474
19591789 44 17976823082208607281
20442098 301 18341891917596436546
20510252 161 18055076720363658728
20739085 24 17833019073130337329
21267235 1 18339370651518827983
21501502 16 18410853269700148092
221490 88 18409457998599112810
2334 1 18338517567939876048
23366157 5 18113338600943463748
23463225 33 18339080389213414916
23558518 356 18042126607944316929
23559900 14 18340200804926925592
2748010 2 18339078318886158468
2871803 45 18196084662872412583
3312278 4 18412267276082155049
335352 9 18122624955148796956
34934 24 18410849962644103317
4409770 3 12867168887822527503
46194498 28 16960662523769293135
5104073 3 18410857620676398521
69090 78 18410570648558240437
7364860 26 18340767053293917328
74978 22 18339080389044408397
7832392 63 18411136913741130588
8809292 202 18335425612393746082
9709674 26 18410858754415862455

>  <PUBCHEM_SHAPE_MULTIPOLES>  (1) 
384.91
6.78
3.46
0.76
1.46
1.06
0
0.63
0.01
-0.49
0
-0.47
0.38
0

>  <PUBCHEM_SHAPE_SELFOVERLAP>  (1) 
858.357

>  <PUBCHEM_SHAPE_VOLUME>  (1) 
205.6

>  <PUBCHEM_COORDINATE_TYPE>  (1) 
2
5
10

$$$$
