34317
     RDKit          3D

 28 31  0  0  0  0  0  0  0  0999 V2000
    2.1410   -4.9617    0.9290 Cl  0  0  0  0  0  0  0  0  0  0  0  0
    4.5636    0.2488   -1.5942 S   0  0  0  0  0  0  0  0  0  0  0  0
   -8.5166   -1.1834   -1.5910 O   0  0  0  0  0  0  0  0  0  0  0  0
    0.8706    0.0731    2.4127 O   0  0  0  0  0  0  0  0  0  0  0  0
   -2.7285    0.8131    0.4290 N   0  0  0  0  0  0  0  0  0  0  0  0
   -5.5285    0.1861    0.0746 N   0  0  0  0  0  0  0  0  0  0  0  0
    2.0527    0.1813    0.3955 N   0  0  0  0  0  0  0  0  0  0  0  0
   -3.7732    1.5597    1.1406 C   0  0  0  0  0  0  0  0  0  0  0  0
   -3.1738   -0.5590    0.1568 C   0  0  0  0  0  0  0  0  0  0  0  0
   -5.0828    1.5585    0.3447 C   0  0  0  0  0  0  0  0  0  0  0  0
   -4.4842   -0.5603   -0.6379 C   0  0  0  0  0  0  0  0  0  0  0  0
   -1.4809    0.8126    1.1905 C   0  0  0  0  0  0  0  0  0  0  0  0
   -6.7769    0.1856   -0.6853 C   0  0  0  0  0  0  0  0  0  0  0  0
   -0.3961    0.1276    0.3848 C   0  0  0  0  0  0  0  0  0  0  0  0
   -7.2961   -1.2321   -0.8638 C   0  0  0  0  0  0  0  0  0  0  0  0
    0.8900    0.1473    1.1837 C   0  0  0  0  0  0  0  0  0  0  0  0
    2.7182   -1.0574    0.0658 C   0  0  0  0  0  0  0  0  0  0  0  0
    2.6118    1.4572    0.0114 C   0  0  0  0  0  0  0  0  0  0  0  0
    3.8464   -1.1358   -0.7632 C   0  0  0  0  0  0  0  0  0  0  0  0
    3.7052    1.6009   -0.8525 C   0  0  0  0  0  0  0  0  0  0  0  0
    2.2034   -2.2798    0.5589 C   0  0  0  0  0  0  0  0  0  0  0  0
    2.0676    2.6439    0.5578 C   0  0  0  0  0  0  0  0  0  0  0  0
    4.4513   -2.3811   -1.0329 C   0  0  0  0  0  0  0  0  0  0  0  0
    4.1918    2.8832   -1.1808 C   0  0  0  0  0  0  0  0  0  0  0  0
    2.8072   -3.5105    0.2860 C   0  0  0  0  0  0  0  0  0  0  0  0
    2.5571    3.9111    0.2314 C   0  0  0  0  0  0  0  0  0  0  0  0
    3.9405   -3.5609   -0.5053 C   0  0  0  0  0  0  0  0  0  0  0  0
    3.6192    4.0318   -0.6465 C   0  0  0  0  0  0  0  0  0  0  0  0
  1 25  1  0
  2 19  1  0
  2 20  1  0
  3 15  1  0
  4 16  2  0
  5  8  1  0
  5  9  1  0
  5 12  1  0
  6 10  1  0
  6 11  1  0
  6 13  1  0
  7 16  1  0
  7 17  1  0
  7 18  1  0
  8 10  1  0
  9 11  1  0
 12 14  1  0
 13 15  1  0
 14 16  1  0
 17 19  2  0
 17 21  1  0
 18 20  2  0
 18 22  1  0
 19 23  1  0
 20 24  1  0
 21 25  2  0
 22 26  2  0
 23 27  2  0
 24 28  2  0
 25 27  1  0
 26 28  1  0
M  END
>  <PUBCHEM_COMPOUND_CID>  (1) 
34317

>  <PUBCHEM_CONFORMER_RMSD>  (1) 
1

>  <PUBCHEM_CONFORMER_DIVERSEORDER>  (1) 
1
93
39
24
65
128
100
45
33
30
95
115
31
119
34
7
12
126
132
46
127
106
14
87
69
131
5
107
108
122
23
79
19
52
68
91
134
125
73
55
57
56
42
67
117
121
50
101
76
99
118
11
10
71
8
58
83
61
37
97
32
3
15
81
44
47
60
114
28
75
26
20
120
123
4
59
64
92
53
36
133
35
6
48
9
43
13
112
25
40
21
86
70
113
29
130
109
77
49
94
85
111
41
104
17
98
22
72
82
2
16
88
74
51
102
78
18
110
105
103
89
96
38
27
116
62
63
90
129
66
54
84
80
124

>  <PUBCHEM_MMFF94_PARTIAL_CHARGES>  (1) 
36
1 -0.18
10 0.27
11 0.27
12 0.27
13 0.27
14 0.06
15 0.28
16 0.57
17 0.12
18 0.12
19 0.1
2 -0.2
20 0.1
21 -0.15
22 -0.15
23 -0.15
24 -0.15
25 0.18
26 -0.15
27 -0.15
28 -0.15
3 -0.68
4 -0.57
45 0.4
46 0.15
47 0.15
48 0.15
49 0.15
5 -0.81
50 0.15
51 0.15
52 0.15
6 -0.81
7 -0.29
8 0.27
9 0.27

>  <PUBCHEM_EFFECTIVE_ROTOR_COUNT>  (1) 
7.6

>  <PUBCHEM_PHARMACOPHORE_FEATURES>  (1) 
9
1 3 acceptor
1 3 donor
1 4 acceptor
1 5 cation
1 6 cation
6 17 19 21 23 25 27 rings
6 18 20 22 24 26 28 rings
6 2 7 17 18 19 20 rings
6 5 6 8 9 10 11 rings

>  <PUBCHEM_HEAVY_ATOM_COUNT>  (1) 
28

>  <PUBCHEM_ATOM_DEF_STEREO_COUNT>  (1) 
0

>  <PUBCHEM_ATOM_UDEF_STEREO_COUNT>  (1) 
0

>  <PUBCHEM_BOND_DEF_STEREO_COUNT>  (1) 
0

>  <PUBCHEM_BOND_UDEF_STEREO_COUNT>  (1) 
0

>  <PUBCHEM_ISOTOPIC_ATOM_COUNT>  (1) 
0

>  <PUBCHEM_COMPONENT_COUNT>  (1) 
1

>  <PUBCHEM_CACTVS_TAUTO_COUNT>  (1) 
1

>  <PUBCHEM_CONFORMER_ID>  (1) 
0000860D00000001

>  <PUBCHEM_MMFF94_ENERGY>  (1) 
97.3555

>  <PUBCHEM_FEATURE_SELFOVERLAP>  (1) 
45.704

>  <PUBCHEM_SHAPE_FINGERPRINT>  (1) 
10554248 39 11891319981700263907
10595046 47 18342460348614417017
10622 236 18127968616541791667
10693767 8 18129115429035029966
11135609 149 18119790436074416854
11408170 132 18336535042399098405
12107183 9 17910123412923647049
12661589 4 16916775362332287399
12730499 353 18262531401713127872
13009979 54 17773044050923869552
13533116 47 18413107273517845525
1361 2 18336266863670321453
13692114 37 18123741209017970218
14347332 77 18272367526168235145
15250474 111 18272084981570854367
15484559 13 18339931514919887014
15950262 2 14926800083848088302
16993427 108 17389362841815513042
17134984 74 18410855473161497295
18681886 176 18271242721177756010
20721686 124 18187921820461641370
20775438 99 18337102470890475291
21133410 171 17029068226710456266
21599406 157 18191281936855222103
22033318 11 17479774553053427505
23522609 53 17845118271550710561
23559900 14 18342449306057878969
24771293 8 18270685256440202514
255183 451 18199755747719918974
3004659 81 18201438034796158051
34797466 226 18113612413935810861
4015057 19 18262531290307664187
44280117 145 17112413317864205066
44317340 157 18408325471895595869
46194498 28 18261106361702906709
463206 1 18191320286006498322
5470011 282 18335691794331930799
59682541 52 18408881828815274597
6004065 56 18410013217949018106
6025842 7 18410011069731848150
6327066 14 17901108843537038284
70251023 43 18335700477711317449
7471813 234 18120949308888217686
9831232 110 18338224965679425999

>  <PUBCHEM_SHAPE_MULTIPOLES>  (1) 
555.26
16.11
5.28
1.4
44.2
2.11
0.15
2.96
-9.1
-10.49
0.35
0.12
0.06
-1.91

>  <PUBCHEM_SHAPE_SELFOVERLAP>  (1) 
1162.975

>  <PUBCHEM_SHAPE_VOLUME>  (1) 
314.9

>  <PUBCHEM_COORDINATE_TYPE>  (1) 
2
5
10

$$$$
