34318
     RDKit          3D

 16 17  0  0  0  0  0  0  0  0999 V2000
    1.8778    0.2270    0.0178 O   0  0  0  0  0  0  0  0  0  0  0  0
   -4.5200   -0.7023    0.0288 O   0  0  0  0  0  0  0  0  0  0  0  0
    5.3157    0.8536   -0.0140 O   0  0  0  0  0  0  0  0  0  0  0  0
    3.5815    2.2056    0.0378 O   0  0  0  0  0  0  0  0  0  0  0  0
    4.0632    1.0353    0.0067 N   0  0  0  0  0  0  0  0  0  0  0  0
   -3.2023    1.1079   -0.0304 N   0  0  0  0  0  0  0  0  0  0  0  0
   -3.2029   -1.1784    0.0497 N   0  0  0  0  0  0  0  0  0  0  0  0
   -5.6003    1.3271   -0.0460 N   0  0  0  0  0  0  0  0  0  0  0  0
    1.2177   -0.9609    0.0005 C   0  0  0  0  0  0  0  0  0  0  0  0
    2.1085   -2.0082   -0.0337 C   0  0  0  0  0  0  0  0  0  0  0  0
   -0.1942   -1.0365    0.0176 C   0  0  0  0  0  0  0  0  0  0  0  0
    3.2046   -0.0654   -0.0058 C   0  0  0  0  0  0  0  0  0  0  0  0
    3.3987   -1.4267   -0.0379 C   0  0  0  0  0  0  0  0  0  0  0  0
   -1.0735    0.0244    0.0147 C   0  0  0  0  0  0  0  0  0  0  0  0
   -2.5449   -0.0552    0.0130 C   0  0  0  0  0  0  0  0  0  0  0  0
   -4.4296    0.6527   -0.0187 C   0  0  0  0  0  0  0  0  0  0  0  0
  1  9  1  0
  1 12  1  0
  2  7  1  0
  2 16  1  0
  3  5  1  0
  4  5  2  0
  5 12  1  0
  6 15  1  0
  6 16  2  0
  7 15  2  0
  8 16  1  0
  9 10  2  0
  9 11  1  0
 10 13  1  0
 11 14  2  0
 12 13  2  0
 14 15  1  0
M  CHG  2   3  -1   5   1
M  END
>  <PUBCHEM_COMPOUND_CID>  (1) 
34318

>  <PUBCHEM_CONFORMER_RMSD>  (1) 
0.6

>  <PUBCHEM_CONFORMER_DIVERSEORDER>  (1) 
1
4
5
2
3

>  <PUBCHEM_MMFF94_PARTIAL_CHARGES>  (1) 
22
1 -0.28
10 -0.15
11 -0.11
12 0.22
13 -0.15
14 -0.1
15 0.47
16 0.56
17 0.15
18 0.15
19 0.15
2 -0.02
20 0.15
21 0.4
22 0.4
3 -0.52
4 -0.52
5 0.96
6 -0.57
7 -0.41
8 -0.88
9 0.09

>  <PUBCHEM_EFFECTIVE_ROTOR_COUNT>  (1) 
3

>  <PUBCHEM_PHARMACOPHORE_FEATURES>  (1) 
9
1 1 acceptor
1 3 acceptor
1 3 anion
1 4 acceptor
1 8 donor
3 6 7 15 cation
3 6 8 16 cation
5 1 9 10 12 13 rings
5 2 6 7 15 16 rings

>  <PUBCHEM_HEAVY_ATOM_COUNT>  (1) 
16

>  <PUBCHEM_ATOM_DEF_STEREO_COUNT>  (1) 
0

>  <PUBCHEM_ATOM_UDEF_STEREO_COUNT>  (1) 
0

>  <PUBCHEM_BOND_DEF_STEREO_COUNT>  (1) 
0

>  <PUBCHEM_BOND_UDEF_STEREO_COUNT>  (1) 
1

>  <PUBCHEM_ISOTOPIC_ATOM_COUNT>  (1) 
0

>  <PUBCHEM_COMPONENT_COUNT>  (1) 
1

>  <PUBCHEM_CACTVS_TAUTO_COUNT>  (1) 
3

>  <PUBCHEM_CONFORMER_ID>  (1) 
0000860E00000001

>  <PUBCHEM_MMFF94_ENERGY>  (1) 
24.8809

>  <PUBCHEM_FEATURE_SELFOVERLAP>  (1) 
46.179

>  <PUBCHEM_SHAPE_FINGERPRINT>  (1) 
10014705 185 18334290947286677997
10608611 8 18335981982478141519
11471102 20 18412262814053979710
13081056 2 18335702698156362949
13675066 3 17822300050461118687
14251732 16 18409733989371981147
14415576 193 18341334413883294206
14528608 73 18342174492158667325
15196674 1 18410575080716537571
15342168 16 18188494691298704948
17834072 33 18272083916323571351
18186145 218 17894629219133392143
20645477 56 18187365411584655877
20645477 70 18271527485629897718
212847 35 18272929393114366122
21652331 79 18409166584772810037
22854114 59 18333450941054934726
23402539 116 18412819205191446094
23402655 69 18272650138498753118
23532345 1 18409170999925110090
23559900 14 18340765936312679410
245318 6 17027141143735859436
300161 21 18408598146056535967
3060560 45 16128654159136843404
3545911 37 18409169909029615061
4047638 21 18335140878032710370
4214541 1 18410575067910659523
449060 50 18408887326157148407
449060 62 18413671301122968650
474 4 18113622325923816444
4990 188 17917722309570699494
5104073 3 18334297543987336179
542803 24 17561084679230200467
633830 44 18411133606669339879
77779 3 18411702063018455299
8272917 22 18271529680410816542

>  <PUBCHEM_SHAPE_MULTIPOLES>  (1) 
285.87
11.62
1.78
0.57
6.09
0.18
0
4.84
0.09
-1.49
0
-0.01
-0.03
0.08

>  <PUBCHEM_SHAPE_SELFOVERLAP>  (1) 
616.72

>  <PUBCHEM_SHAPE_VOLUME>  (1) 
157.3

>  <PUBCHEM_COORDINATE_TYPE>  (1) 
2
5
10

$$$$
