34319
     RDKit          3D

 14 15  0  0  1  0  0  0  0  0999 V2000
   -2.2606   -1.3589    1.2852 O   0  0  0  0  0  0  0  0  0  0  0  0
    1.3974   -1.9027   -0.6152 N   0  0  0  0  0  0  0  0  0  0  0  0
   -3.7820    0.7434    0.0364 N   0  0  0  0  0  0  0  0  0  0  0  0
   -0.2495   -0.6650    0.2111 C   0  0  0  0  0  0  0  0  0  0  0  0
   -1.5828   -0.2410    0.6846 C   0  0  0  0  0  0  0  0  0  0  0  0
    0.9329    0.1264    0.1873 C   0  0  0  0  0  0  0  0  0  0  0  0
    1.9512   -0.6737   -0.3354 C   0  0  0  0  0  0  0  0  0  0  0  0
   -2.4698    0.3238   -0.4502 C   0  0  0  0  0  0  0  0  0  0  0  0
    0.0680   -1.9071   -0.2884 C   0  0  0  0  0  0  0  0  0  0  0  0
    1.2355    1.4508    0.5615 C   0  0  0  0  0  0  0  0  0  0  0  0
    3.2622   -0.2138   -0.5033 C   0  0  0  0  0  0  0  0  0  0  0  0
    2.5425    1.9244    0.3991 C   0  0  0  0  0  0  0  0  0  0  0  0
    3.5387    1.1032   -0.1252 C   0  0  0  0  0  0  0  0  0  0  0  0
   -4.5839    1.2902   -1.0477 C   0  0  0  0  0  0  0  0  0  0  0  0
  1  5  1  0
  2  7  1  0
  2  9  1  0
  3  8  1  0
  3 14  1  0
  4  5  1  0
  4  6  1  0
  4  9  2  0
  5  8  1  0
  6  7  2  0
  6 10  1  0
  7 11  1  0
 10 12  2  0
 11 13  2  0
 12 13  1  0
M  END
>  <PUBCHEM_COMPOUND_CID>  (1) 
34319

>  <PUBCHEM_CONFORMER_RMSD>  (1) 
0.6

>  <PUBCHEM_CONFORMER_DIVERSEORDER>  (1) 
1
17
11
7
10
6
2
13
12
3
4
5
8
9
16
15
14

>  <PUBCHEM_MMFF94_PARTIAL_CHARGES>  (1) 
21
1 -0.68
10 -0.15
11 -0.15
12 -0.15
13 -0.15
14 0.27
18 0.15
19 0.27
2 0.03
20 0.15
21 0.15
22 0.36
23 0.15
24 0.15
25 0.4
3 -0.9
4 -0.18
5 0.46
7 -0.15
8 0.27
9 -0.3

>  <PUBCHEM_EFFECTIVE_ROTOR_COUNT>  (1) 
3

>  <PUBCHEM_PHARMACOPHORE_FEATURES>  (1) 
8
1 1 acceptor
1 1 donor
1 2 cation
1 2 donor
1 3 cation
1 3 donor
5 2 4 6 7 9 rings
6 6 7 10 11 12 13 rings

>  <PUBCHEM_HEAVY_ATOM_COUNT>  (1) 
14

>  <PUBCHEM_ATOM_DEF_STEREO_COUNT>  (1) 
0

>  <PUBCHEM_ATOM_UDEF_STEREO_COUNT>  (1) 
1

>  <PUBCHEM_BOND_DEF_STEREO_COUNT>  (1) 
0

>  <PUBCHEM_BOND_UDEF_STEREO_COUNT>  (1) 
0

>  <PUBCHEM_ISOTOPIC_ATOM_COUNT>  (1) 
0

>  <PUBCHEM_COMPONENT_COUNT>  (1) 
1

>  <PUBCHEM_CACTVS_TAUTO_COUNT>  (1) 
1

>  <PUBCHEM_CONFORMER_ID>  (1) 
0000860F00000001

>  <PUBCHEM_MMFF94_ENERGY>  (1) 
20.2883

>  <PUBCHEM_FEATURE_SELFOVERLAP>  (1) 
40.69

>  <PUBCHEM_SHAPE_FINGERPRINT>  (1) 
10608611 8 18408324418984724849
11031198 65 18412829070820839911
11471102 20 18342174436419174236
11543360 7 14261356894310582496
124424 183 18333732399247538674
12654215 9 18411983550937966724
12730499 353 18336550430817980683
13380535 76 18410291406489640227
13464514 151 18265618671571516785
13922767 16 18413103957523544168
14251717 144 18272647909452801221
14911166 2 18272098184262782156
15219456 202 18408611374334372123
15279308 100 18339928237511861812
15775835 57 18273213122912146341
16945 1 18059307521264480786
18186145 218 17988095490111885288
20606313 2 18341610386901371084
20645477 70 18130512946045316471
21639500 275 18272927224161331441
21947302 44 18337386041852677099
22096605 113 18343015597348078509
22289505 5 18195516005298299909
22892500 29 18413101749641588716
22959321 8 18272086127899458321
231179 274 18113893840765996021
23402539 116 18113607980859486189
23402655 69 18272928285345515821
23493267 7 17968099767407048544
23557571 272 17968672591748706755
23559900 14 17700716197150755788
25 1 18411982438172068029
2748010 2 18056209204882035946
276578 36 16588021269167059489
3060560 45 18201997694619897966
4047638 21 18261111846465807561
4072396 5 18339345376353748626
63268167 104 18130796680475154154
77492 1 16773806861361673147
81228 2 17119443040326830626

>  <PUBCHEM_SHAPE_MULTIPOLES>  (1) 
272.28
6.75
1.95
0.92
5.92
0.21
0.06
-3.71
-1.66
-0.55
-0.03
0.48
0.05
1.01

>  <PUBCHEM_SHAPE_SELFOVERLAP>  (1) 
578.937

>  <PUBCHEM_SHAPE_VOLUME>  (1) 
152.7

>  <PUBCHEM_COORDINATE_TYPE>  (1) 
2
5
10

$$$$
