34321
     RDKit          3D

 28 31  0  0  0  0  0  0  0  0999 V2000
    4.8385   -2.3191    0.0002 O   0  0  0  0  0  0  0  0  0  0  0  0
   -4.8387   -2.3190    0.0005 O   0  0  0  0  0  0  0  0  0  0  0  0
    4.8387    2.3189   -0.0005 O   0  0  0  0  0  0  0  0  0  0  0  0
   -4.8385    2.3192    0.0003 O   0  0  0  0  0  0  0  0  0  0  0  0
    2.9930   -3.5078    0.0006 O   0  0  0  0  0  0  0  0  0  0  0  0
   -2.9932   -3.5077   -0.0009 O   0  0  0  0  0  0  0  0  0  0  0  0
    2.9931    3.5076   -0.0005 O   0  0  0  0  0  0  0  0  0  0  0  0
   -2.9929    3.5078    0.0005 O   0  0  0  0  0  0  0  0  0  0  0  0
    3.5900   -2.4076    0.0002 N   0  0  0  0  0  0  0  0  0  0  0  0
   -3.5903   -2.4075   -0.0001 N   0  0  0  0  0  0  0  0  0  0  0  0
    3.5901    2.4074   -0.0002 N   0  0  0  0  0  0  0  0  0  0  0  0
   -3.5899    2.4077    0.0001 N   0  0  0  0  0  0  0  0  0  0  0  0
    0.7086    0.0000    0.0002 C   0  0  0  0  0  0  0  0  0  0  0  0
   -0.7085    0.0000   -0.0001 C   0  0  0  0  0  0  0  0  0  0  0  0
    1.4154    1.2250    0.0001 C   0  0  0  0  0  0  0  0  0  0  0  0
   -1.4152    1.2251    0.0000 C   0  0  0  0  0  0  0  0  0  0  0  0
    1.4153   -1.2251    0.0000 C   0  0  0  0  0  0  0  0  0  0  0  0
   -1.4155   -1.2250   -0.0002 C   0  0  0  0  0  0  0  0  0  0  0  0
    2.8177   -1.2084    0.0002 C   0  0  0  0  0  0  0  0  0  0  0  0
   -2.8178   -1.2083   -0.0004 C   0  0  0  0  0  0  0  0  0  0  0  0
    2.8178    1.2083    0.0001 C   0  0  0  0  0  0  0  0  0  0  0  0
   -2.8177    1.2084    0.0000 C   0  0  0  0  0  0  0  0  0  0  0  0
    0.6983    2.4289    0.0000 C   0  0  0  0  0  0  0  0  0  0  0  0
   -0.6980    2.4290    0.0001 C   0  0  0  0  0  0  0  0  0  0  0  0
    0.6980   -2.4289    0.0000 C   0  0  0  0  0  0  0  0  0  0  0  0
   -0.6983   -2.4289   -0.0003 C   0  0  0  0  0  0  0  0  0  0  0  0
    3.5126   -0.0001    0.0001 C   0  0  0  0  0  0  0  0  0  0  0  0
   -3.5126    0.0001    0.0001 C   0  0  0  0  0  0  0  0  0  0  0  0
  1  9  1  0
  2 10  1  0
  3 11  1  0
  4 12  1  0
  5  9  2  0
  6 10  2  0
  7 11  2  0
  8 12  2  0
  9 19  1  0
 10 20  1  0
 11 21  1  0
 12 22  1  0
 13 14  2  0
 13 15  1  0
 13 17  1  0
 14 16  1  0
 14 18  1  0
 15 21  1  0
 15 23  2  0
 16 22  1  0
 16 24  2  0
 17 19  2  0
 17 25  1  0
 18 20  2  0
 18 26  1  0
 19 27  1  0
 20 28  1  0
 21 27  2  0
 22 28  2  0
 23 24  1  0
 25 26  2  0
M  CHG  8   1  -1   2  -1   3  -1   4  -1   9   1  10   1  11   1  12   1
M  END
>  <PUBCHEM_COMPOUND_CID>  (1) 
34321

>  <PUBCHEM_CONFORMER_RMSD>  (1) 
0.8

>  <PUBCHEM_CONFORMER_DIVERSEORDER>  (1) 
1

>  <PUBCHEM_MMFF94_PARTIAL_CHARGES>  (1) 
28
1 -0.52
10 0.91
11 0.91
12 0.91
19 0.13
2 -0.52
20 0.13
21 0.13
22 0.13
23 -0.15
24 -0.15
25 -0.15
26 -0.15
27 -0.15
28 -0.15
29 0.15
3 -0.52
30 0.15
31 0.15
32 0.15
33 0.15
34 0.15
4 -0.52
5 -0.52
6 -0.52
7 -0.52
8 -0.52
9 0.91

>  <PUBCHEM_EFFECTIVE_ROTOR_COUNT>  (1) 
4

>  <PUBCHEM_PHARMACOPHORE_FEATURES>  (1) 
16
1 1 acceptor
1 1 anion
1 2 acceptor
1 2 anion
1 3 acceptor
1 3 anion
1 4 acceptor
1 4 anion
1 5 acceptor
1 6 acceptor
1 7 acceptor
1 8 acceptor
6 13 14 15 16 23 24 rings
6 13 14 17 18 25 26 rings
6 13 15 17 19 21 27 rings
6 14 16 18 20 22 28 rings

>  <PUBCHEM_HEAVY_ATOM_COUNT>  (1) 
28

>  <PUBCHEM_ATOM_DEF_STEREO_COUNT>  (1) 
0

>  <PUBCHEM_ATOM_UDEF_STEREO_COUNT>  (1) 
0

>  <PUBCHEM_BOND_DEF_STEREO_COUNT>  (1) 
0

>  <PUBCHEM_BOND_UDEF_STEREO_COUNT>  (1) 
0

>  <PUBCHEM_ISOTOPIC_ATOM_COUNT>  (1) 
0

>  <PUBCHEM_COMPONENT_COUNT>  (1) 
1

>  <PUBCHEM_CACTVS_TAUTO_COUNT>  (1) 
1

>  <PUBCHEM_CONFORMER_ID>  (1) 
0000861100000001

>  <PUBCHEM_MMFF94_ENERGY>  (1) 
168.0458

>  <PUBCHEM_FEATURE_SELFOVERLAP>  (1) 
81.662

>  <PUBCHEM_SHAPE_FINGERPRINT>  (1) 
10050765 1 18410575088963320960
10411042 1 18410575084669250114
10616163 171 18339363075233590588
10863032 1 18411138038916898309
10967382 1 18122625225821153604
1100329 8 18266458702586314969
11513181 2 18202565094286389710
12553582 1 17979906434908954151
12788726 201 18190734430923065073
13140716 1 18410856516690116808
138480 1 17762336907644204419
13911987 19 17614278192298226725
14178342 30 18338502140860818120
14223421 5 18410856593999534447
14790565 3 17761219112394098517
15196674 1 18410573989446418436
15442244 35 18410855421484018642
17492 89 18410292531660880107
19591789 44 18411139134128309891
19930381 70 18121778588988379387
20028762 73 18056749933007114175
20510252 161 18270403931001785673
20691752 17 17313101943118778712
20905425 154 18341900743812356366
21065198 57 18410573942201778218
21267235 1 18410864260522010694
21421861 104 18334009535975211810
21859007 373 17463108181316362996
221490 88 18409453587377620970
22393880 68 18340780290441003540
23227448 37 18339922598082600327
2334 1 18411136969464610823
23366157 5 18186521008108274254
23558518 356 18260834829649384499
23559900 14 18341888538116557754
238 59 17322349785355182821
266924 87 18338226189179992327
2748010 2 18410855464423129199
3178227 256 18049455738429939393
335352 9 18194401087073550781
350125 39 18410578387498210811
469060 322 18122076557072147617
484989 97 18408318862230545287
5104073 3 18410856555344823192
5309563 4 17761216909482083715
59755656 215 18265894842463830431
9709674 26 18410856563940051142
9981440 41 18193271017402596392

>  <PUBCHEM_SHAPE_MULTIPOLES>  (1) 
509.35
8.62
4.76
0.58
0
0
0
0
0
0
0
0
0
0

>  <PUBCHEM_SHAPE_SELFOVERLAP>  (1) 
1179.586

>  <PUBCHEM_SHAPE_VOLUME>  (1) 
261.6

>  <PUBCHEM_COORDINATE_TYPE>  (1) 
2
5
10

$$$$
