34332
     RDKit          3D

 21 21  0  0  0  0  0  0  0  0999 V2000
   -2.1415    1.4777   -1.9077 S   0  0  0  0  0  0  0  0  0  0  0  0
   -2.7432    0.2750   -0.4898 P   0  0  0  0  0  0  0  0  0  0  0  0
    2.0430    1.1712   -0.7544 O   0  0  0  0  0  0  0  0  0  0  0  0
   -0.0440   -0.5773   -0.1927 O   0  0  0  0  0  0  0  0  0  0  0  0
   -4.2825    0.5216   -0.0085 O   0  0  0  0  0  0  0  0  0  0  0  0
   -2.7774   -1.2959   -0.9241 O   0  0  0  0  0  0  0  0  0  0  0  0
    0.2202   -0.1041    2.0590 O   0  0  0  0  0  0  0  0  0  0  0  0
   -1.8141    0.3242    1.0003 N   0  0  0  0  0  0  0  0  0  0  0  0
    2.6343    2.1370    0.1127 C   0  0  0  0  0  0  0  0  0  0  0  0
    2.2922   -0.1401   -0.4824 C   0  0  0  0  0  0  0  0  0  0  0  0
    1.2788   -1.0290   -0.2011 C   0  0  0  0  0  0  0  0  0  0  0  0
    1.5354    2.9427    0.7887 C   0  0  0  0  0  0  0  0  0  0  0  0
    3.5738    3.0229   -0.6912 C   0  0  0  0  0  0  0  0  0  0  0  0
   -0.4828   -0.1157    1.0500 C   0  0  0  0  0  0  0  0  0  0  0  0
    3.6080   -0.6031   -0.4866 C   0  0  0  0  0  0  0  0  0  0  0  0
   -2.4378    0.8375    2.2149 C   0  0  0  0  0  0  0  0  0  0  0  0
    1.5138   -2.3579    0.0764 C   0  0  0  0  0  0  0  0  0  0  0  0
    3.8768   -1.9435   -0.2095 C   0  0  0  0  0  0  0  0  0  0  0  0
    2.8296   -2.8209    0.0720 C   0  0  0  0  0  0  0  0  0  0  0  0
   -5.3339    0.5477   -0.9598 C   0  0  0  0  0  0  0  0  0  0  0  0
   -3.3489   -2.2698   -0.0663 C   0  0  0  0  0  0  0  0  0  0  0  0
  1  2  2  0
  2  5  1  0
  2  6  1  0
  2  8  1  0
  3  9  1  0
  3 10  1  0
  4 11  1  0
  4 14  1  0
  5 20  1  0
  6 21  1  0
  7 14  2  0
  8 14  1  0
  8 16  1  0
  9 12  1  0
  9 13  1  0
 10 11  2  0
 10 15  1  0
 11 17  1  0
 15 18  2  0
 17 19  2  0
 18 19  1  0
M  END
>  <PUBCHEM_COMPOUND_CID>  (1) 
34332

>  <PUBCHEM_CONFORMER_RMSD>  (1) 
0.8

>  <PUBCHEM_CONFORMER_DIVERSEORDER>  (1) 
1
253
294
290
268
15
115
142
236
50
269
283
72
168
113
149
223
259
247
25
228
280
245
211
266
275
83
107
165
119
172
189
175
37
183
197
238
138
181
162
96
284
124
118
229
213
274
260
186
152
160
110
180
179
94
182
265
216
104
252
47
288
196
287
45
248
97
125
103
164
100
204
258
291
158
192
282
24
98
148
154
221
89
121
95
264
77
39
114
106
85
173
71
147
177
256
289
92
278
193
153
178
242
81
210
279
217
202
76
69
41
109
276
166
208
241
144
116
93
87
60
206
212
243
240
56
105
128
262
43
198
203
74
255
80
214
233
21
101
123
99
108
102
155
226
120
112
32
272
201
143
145
48
133
30
23
254
131
273
135
246
267
141
199
28
261
42
36
207
44
176
232
146
40
127
66
250
157
195
86
4
117
53
188
249
231
63
122
126
13
75
90
136
16
244
51
132
286
185
6
209
64
14
277
227
296
46
38
285
59
163
57
218
88
31
230
219
34
222
12
159
161
54
70
139
191
174
271
150
62
194
9
5
167
292
270
234
55
26
170
19
61
29
84
33
78
8
82
49
52
190
68
169
257
200
58
22
11
171
151
205
281
237
3
73
239
67
235
129
79
225
224
293
10
65
2
251
187
184
17
137
27
111
7
220
140
134
295
35
215
20
18
91
130
156
263

>  <PUBCHEM_MMFF94_PARTIAL_CHARGES>  (1) 
23
1 -0.68
10 0.08
11 0.08
14 0.78
15 -0.15
16 0.3
17 -0.15
18 -0.15
19 -0.15
2 1.48
20 0.28
21 0.28
29 0.15
3 -0.36
33 0.15
34 0.15
35 0.15
4 -0.23
5 -0.55
6 -0.55
7 -0.57
8 -0.62
9 0.28

>  <PUBCHEM_EFFECTIVE_ROTOR_COUNT>  (1) 
8

>  <PUBCHEM_PHARMACOPHORE_FEATURES>  (1) 
4
1 3 acceptor
1 7 acceptor
3 9 12 13 hydrophobe
6 10 11 15 17 18 19 rings

>  <PUBCHEM_HEAVY_ATOM_COUNT>  (1) 
21

>  <PUBCHEM_ATOM_DEF_STEREO_COUNT>  (1) 
0

>  <PUBCHEM_ATOM_UDEF_STEREO_COUNT>  (1) 
0

>  <PUBCHEM_BOND_DEF_STEREO_COUNT>  (1) 
0

>  <PUBCHEM_BOND_UDEF_STEREO_COUNT>  (1) 
0

>  <PUBCHEM_ISOTOPIC_ATOM_COUNT>  (1) 
0

>  <PUBCHEM_COMPONENT_COUNT>  (1) 
1

>  <PUBCHEM_CACTVS_TAUTO_COUNT>  (1) 
1

>  <PUBCHEM_CONFORMER_ID>  (1) 
0000861C00000001

>  <PUBCHEM_MMFF94_ENERGY>  (1) 
53.1033

>  <PUBCHEM_FEATURE_SELFOVERLAP>  (1) 
20.297

>  <PUBCHEM_SHAPE_FINGERPRINT>  (1) 
10366900 7 17677058932028598783
11578080 2 17486466240865107256
12236239 1 17774439369908029838
12553582 1 18124048844656590490
12596599 1 18058748951702857238
12730499 353 18336554927079163857
13134695 92 18262239894262415294
14115302 16 17917422108325698319
14251745 187 17531248305712971516
16945 1 18337402543396720138
17980427 23 17632291212613537298
1813 80 17843131307561732782
192875 21 18060135405853517313
19930381 70 18194399115942790981
200 152 18271523087836184599
21524375 3 18125166193494140828
21618674 54 18338513161736272031
21639500 275 18410859875723865664
221357 26 18189329061789563733
221490 88 18337397127079476090
22393880 68 18269845361893498300
2255824 54 18412832382573246190
232386 152 16630233728043917403
23402539 116 17983013354269141994
23526113 38 17823984437681576850
23559900 14 18343011190400799459
23598288 3 17489320680635426785
23598291 2 17845391984550604976
3286 77 18335420119214970901
474 4 18410857706781355048
58051976 100 18410293601455669383
7364860 26 18411695491670785926
7471813 234 18201151040797079960
7615 1 17988652856365320073
81228 2 17324650981824686410
84936 182 18199750404859782056
9981440 41 17978503466857026152

>  <PUBCHEM_SHAPE_MULTIPOLES>  (1) 
405.54
8.29
3.27
1.51
6.01
0.66
-0.57
-0.17
2.35
-3.81
0.21
1.25
0.64
0.08

>  <PUBCHEM_SHAPE_SELFOVERLAP>  (1) 
788.118

>  <PUBCHEM_SHAPE_VOLUME>  (1) 
249

>  <PUBCHEM_COORDINATE_TYPE>  (1) 
2
5
10

$$$$
