34347
     RDKit          3D

 10 10  0  0  0  0  0  0  0  0999 V2000
    2.7408    1.7309    0.0023 Br  0  0  0  0  0  0  0  0  0  0  0  0
    2.7403   -1.7313   -0.0001 Br  0  0  0  0  0  0  0  0  0  0  0  0
   -1.2708    0.6977   -0.0009 C   0  0  0  0  0  0  0  0  0  0  0  0
   -1.2709   -0.6972   -0.0002 C   0  0  0  0  0  0  0  0  0  0  0  0
   -0.0628    1.3951   -0.0014 C   0  0  0  0  0  0  0  0  0  0  0  0
   -0.0630   -1.3948   -0.0001 C   0  0  0  0  0  0  0  0  0  0  0  0
   -2.5521    1.4650    0.0006 C   0  0  0  0  0  0  0  0  0  0  0  0
   -2.5517   -1.4654    0.0015 C   0  0  0  0  0  0  0  0  0  0  0  0
    1.1451    0.6975   -0.0013 C   0  0  0  0  0  0  0  0  0  0  0  0
    1.1451   -0.6974   -0.0006 C   0  0  0  0  0  0  0  0  0  0  0  0
  1  9  1  0
  2 10  1  0
  3  4  2  0
  3  5  1  0
  3  7  1  0
  4  6  1  0
  4  8  1  0
  5  9  2  0
  6 10  2  0
  9 10  1  0
M  END
>  <PUBCHEM_COMPOUND_CID>  (1) 
34347

>  <PUBCHEM_CONFORMER_RMSD>  (1) 
0.4

>  <PUBCHEM_CONFORMER_DIVERSEORDER>  (1) 
1

>  <PUBCHEM_MMFF94_PARTIAL_CHARGES>  (1) 
12
1 -0.11
10 0.11
11 0.15
12 0.15
2 -0.11
3 -0.14
4 -0.14
5 -0.15
6 -0.15
7 0.14
8 0.14
9 0.11

>  <PUBCHEM_EFFECTIVE_ROTOR_COUNT>  (1) 
0

>  <PUBCHEM_PHARMACOPHORE_FEATURES>  (1) 
3
1 1 hydrophobe
1 2 hydrophobe
6 3 4 5 6 9 10 rings

>  <PUBCHEM_HEAVY_ATOM_COUNT>  (1) 
10

>  <PUBCHEM_ATOM_DEF_STEREO_COUNT>  (1) 
0

>  <PUBCHEM_ATOM_UDEF_STEREO_COUNT>  (1) 
0

>  <PUBCHEM_BOND_DEF_STEREO_COUNT>  (1) 
0

>  <PUBCHEM_BOND_UDEF_STEREO_COUNT>  (1) 
0

>  <PUBCHEM_ISOTOPIC_ATOM_COUNT>  (1) 
0

>  <PUBCHEM_COMPONENT_COUNT>  (1) 
1

>  <PUBCHEM_CACTVS_TAUTO_COUNT>  (1) 
1

>  <PUBCHEM_CONFORMER_ID>  (1) 
0000862B00000001

>  <PUBCHEM_MMFF94_ENERGY>  (1) 
24.0565

>  <PUBCHEM_FEATURE_SELFOVERLAP>  (1) 
15.223

>  <PUBCHEM_SHAPE_FINGERPRINT>  (1) 
12423570 1 17486196821602463821
13380535 21 18410586088401219136
14128692 85 18410862018933801414
14325111 11 18410855485998536640
14648413 74 18410576145783745290
14911166 2 18122060905678213239
161256 15 18339933713363042630
16945 1 18410855455912315780
193761 8 18410573985156725894
19973954 147 18411136930836291920
21040471 1 18410575088979431045
21501502 16 18411700988875438340
2334 1 18410856594020626950
23402655 69 18341033208670682679
23526114 1 18411139138808171852
23552423 10 18334296470039724478
241688 4 18335701602697063968
2748010 2 18410011035203304742
5084963 1 18272650138467228131
57177213 63 18189905390613486964
68250623 7 18410859862506764854
7364860 26 18342738516376054282

>  <PUBCHEM_SHAPE_MULTIPOLES>  (1) 
217.68
4.24
2.33
0.64
0.37
0
0
0
0
0.75
0
0.07
0
0

>  <PUBCHEM_SHAPE_SELFOVERLAP>  (1) 
420.601

>  <PUBCHEM_SHAPE_VOLUME>  (1) 
134.7

>  <PUBCHEM_COORDINATE_TYPE>  (1) 
2
5
10

$$$$
