34346
     RDKit          3D

 10 10  0  0  0  0  0  0  0  0999 V2000
   -1.6191    2.6930    0.0001 Br  0  0  0  0  0  0  0  0  0  0  0  0
    3.5324    0.3279   -0.0012 Br  0  0  0  0  0  0  0  0  0  0  0  0
   -1.1231   -0.1491    0.0005 C   0  0  0  0  0  0  0  0  0  0  0  0
   -0.3061   -1.2797    0.0010 C   0  0  0  0  0  0  0  0  0  0  0  0
   -0.5525    1.1239    0.0001 C   0  0  0  0  0  0  0  0  0  0  0  0
    1.0814   -1.1374    0.0009 C   0  0  0  0  0  0  0  0  0  0  0  0
   -2.6100   -0.3254   -0.0011 C   0  0  0  0  0  0  0  0  0  0  0  0
   -0.8901   -2.6549   -0.0008 C   0  0  0  0  0  0  0  0  0  0  0  0
    0.8351    1.2662    0.0001 C   0  0  0  0  0  0  0  0  0  0  0  0
    1.6521    0.1355    0.0005 C   0  0  0  0  0  0  0  0  0  0  0  0
  1  5  1  0
  2 10  1  0
  3  4  2  0
  3  5  1  0
  3  7  1  0
  4  6  1  0
  4  8  1  0
  5  9  2  0
  6 10  2  0
  9 10  1  0
M  END
>  <PUBCHEM_COMPOUND_CID>  (1) 
34346

>  <PUBCHEM_CONFORMER_RMSD>  (1) 
0.4

>  <PUBCHEM_CONFORMER_DIVERSEORDER>  (1) 
1

>  <PUBCHEM_MMFF94_PARTIAL_CHARGES>  (1) 
12
1 -0.11
10 0.11
11 0.15
18 0.15
2 -0.11
3 -0.14
4 -0.14
5 0.11
6 -0.15
7 0.14
8 0.14
9 -0.15

>  <PUBCHEM_EFFECTIVE_ROTOR_COUNT>  (1) 
0

>  <PUBCHEM_PHARMACOPHORE_FEATURES>  (1) 
3
1 1 hydrophobe
1 2 hydrophobe
6 3 4 5 6 9 10 rings

>  <PUBCHEM_HEAVY_ATOM_COUNT>  (1) 
10

>  <PUBCHEM_ATOM_DEF_STEREO_COUNT>  (1) 
0

>  <PUBCHEM_ATOM_UDEF_STEREO_COUNT>  (1) 
0

>  <PUBCHEM_BOND_DEF_STEREO_COUNT>  (1) 
0

>  <PUBCHEM_BOND_UDEF_STEREO_COUNT>  (1) 
0

>  <PUBCHEM_ISOTOPIC_ATOM_COUNT>  (1) 
0

>  <PUBCHEM_COMPONENT_COUNT>  (1) 
1

>  <PUBCHEM_CACTVS_TAUTO_COUNT>  (1) 
1

>  <PUBCHEM_CONFORMER_ID>  (1) 
0000862A00000001

>  <PUBCHEM_MMFF94_ENERGY>  (1) 
25.5905

>  <PUBCHEM_FEATURE_SELFOVERLAP>  (1) 
15.223

>  <PUBCHEM_SHAPE_FINGERPRINT>  (1) 
11206711 2 18411135814134635669
12716758 59 18341338799361226086
13380535 76 18120649128580028561
16945 1 18410574015421937536
193761 8 17978510828119636899
20510252 161 18343864398850301320
20588541 1 18342463676638766158
20871998 184 18200880706960273654
21040471 1 18338797797629330400
2334 1 17762337315840222816
23402539 116 18342727550807700271
23402655 69 18196072380110315989
23552423 10 17905327329848205183
23559900 14 18200313209680678662
2748010 2 18194407688559610244
5084963 1 18131070411351529912
53812653 8 18408326570694696840

>  <PUBCHEM_SHAPE_MULTIPOLES>  (1) 
217.68
3.8
2.75
0.64
2.86
0.29
0
-1.33
0
-1.74
0
0.02
-0.04
0

>  <PUBCHEM_SHAPE_SELFOVERLAP>  (1) 
421.092

>  <PUBCHEM_SHAPE_VOLUME>  (1) 
134.7

>  <PUBCHEM_COORDINATE_TYPE>  (1) 
2
5
10

$$$$
