34358
     RDKit          3D

 16 17  0  0  0  0  0  0  0  0999 V2000
    0.5019   -0.2542   -0.5250 N   0  0  0  0  0  0  0  0  0  0  0  0
   -0.1244   -0.3420    0.5572 N   0  0  0  0  0  0  0  0  0  0  0  0
    2.5190    1.0297   -0.0904 C   0  0  0  0  0  0  0  0  0  0  0  0
    1.8840   -0.1952   -0.2765 C   0  0  0  0  0  0  0  0  0  0  0  0
   -3.6196    0.7164   -0.0002 C   0  0  0  0  0  0  0  0  0  0  0  0
   -1.4999   -0.4004    0.3103 C   0  0  0  0  0  0  0  0  0  0  0  0
   -2.2481    0.7751    0.2474 C   0  0  0  0  0  0  0  0  0  0  0  0
    3.8916    1.0692    0.1547 C   0  0  0  0  0  0  0  0  0  0  0  0
    2.6114   -1.3811   -0.2190 C   0  0  0  0  0  0  0  0  0  0  0  0
   -4.2428   -0.5177   -0.1848 C   0  0  0  0  0  0  0  0  0  0  0  0
    1.7558    2.3125   -0.1482 C   0  0  0  0  0  0  0  0  0  0  0  0
   -2.1231   -1.6346    0.1255 C   0  0  0  0  0  0  0  0  0  0  0  0
   -3.4945   -1.6932   -0.1220 C   0  0  0  0  0  0  0  0  0  0  0  0
    4.6242   -0.1164    0.2129 C   0  0  0  0  0  0  0  0  0  0  0  0
    3.9841   -1.3415    0.0260 C   0  0  0  0  0  0  0  0  0  0  0  0
   -4.4197    1.9733   -0.0679 C   0  0  0  0  0  0  0  0  0  0  0  0
  1  2  2  0
  1  4  1  0
  2  6  1  0
  3  4  2  0
  3  8  1  0
  3 11  1  0
  4  9  1  0
  5  7  2  0
  5 10  1  0
  5 16  1  0
  6  7  1  0
  6 12  2  0
  8 14  2  0
  9 15  2  0
 10 13  2  0
 12 13  1  0
 14 15  1  0
M  END
>  <PUBCHEM_COMPOUND_CID>  (1) 
34358

>  <PUBCHEM_CONFORMER_RMSD>  (1) 
0.6

>  <PUBCHEM_CONFORMER_DIVERSEORDER>  (1) 
1
8
6
3
2
7
4
5

>  <PUBCHEM_MMFF94_PARTIAL_CHARGES>  (1) 
24
1 -0.18
10 -0.15
11 0.14
12 -0.15
13 -0.15
14 -0.15
15 -0.15
16 0.14
17 0.15
18 0.15
19 0.15
2 -0.18
20 0.15
24 0.15
25 0.15
26 0.15
27 0.15
3 -0.14
4 0.18
5 -0.14
6 0.18
7 -0.15
8 -0.15
9 -0.15

>  <PUBCHEM_EFFECTIVE_ROTOR_COUNT>  (1) 
2

>  <PUBCHEM_PHARMACOPHORE_FEATURES>  (1) 
2
6 3 4 8 9 14 15 rings
6 5 6 7 10 12 13 rings

>  <PUBCHEM_HEAVY_ATOM_COUNT>  (1) 
16

>  <PUBCHEM_ATOM_DEF_STEREO_COUNT>  (1) 
0

>  <PUBCHEM_ATOM_UDEF_STEREO_COUNT>  (1) 
0

>  <PUBCHEM_BOND_DEF_STEREO_COUNT>  (1) 
0

>  <PUBCHEM_BOND_UDEF_STEREO_COUNT>  (1) 
0

>  <PUBCHEM_ISOTOPIC_ATOM_COUNT>  (1) 
0

>  <PUBCHEM_COMPONENT_COUNT>  (1) 
1

>  <PUBCHEM_CACTVS_TAUTO_COUNT>  (1) 
1

>  <PUBCHEM_CONFORMER_ID>  (1) 
0000863600000001

>  <PUBCHEM_MMFF94_ENERGY>  (1) 
43.6451

>  <PUBCHEM_FEATURE_SELFOVERLAP>  (1) 
10.149

>  <PUBCHEM_SHAPE_FINGERPRINT>  (1) 
10014705 185 18335700525193165341
10608611 8 18411136969681148505
11405975 8 18409730646964193971
116883 192 18197505017548138860
12107183 9 17905042551909860114
12500047 106 18412821399919844579
12507557 5 18342175578717139712
128620 24 14261633936596044337
13167823 11 18410290328347691578
13675066 3 17967822625957244233
14004511 7 18333452032235155699
15196674 1 18410856568367140552
15442244 35 18410576141436186272
15536298 74 18412545431249229088
17492 89 18411702127032196783
17802600 8 18408881862689936877
18186145 218 17894343389112298531
200 152 18060416932565001279
20645477 56 18408889503969415413
20645477 70 18201722812629398798
21065198 57 18410573998041640778
21065199 12 18410294752174159906
21267235 1 18410865377271328563
21421861 104 17606109590304201842
221490 88 18264777734244539106
23402539 116 18343294838989417677
23402655 69 18411420605115943532
23557571 272 18201445795828305781
23559900 14 18200593592897341786
351380 180 18411415120511232853
3545911 37 18413673508456590457
42 15 18334295361911775334
4214541 1 18410855456133874849
474 4 17604995990798851860
5104073 3 18410575088973877912
573450 72 18335128787304237523
58051976 100 18410576210224520847
633830 44 17458067070688714306
69090 78 18411134740656509895
77779 3 18410576201386380294
93112 12 18410576201491868863
9709674 26 18411707616026618943
9971528 1 18334293163363299668
9981440 41 17396986133181162448

>  <PUBCHEM_SHAPE_MULTIPOLES>  (1) 
319.31
10.08
2.05
0.66
0.49
0.53
0
0.53
-0.01
0.55
0.08
-0.01
-0.01
0.01

>  <PUBCHEM_SHAPE_SELFOVERLAP>  (1) 
683.106

>  <PUBCHEM_SHAPE_VOLUME>  (1) 
178.7

>  <PUBCHEM_COORDINATE_TYPE>  (1) 
2
5
10

$$$$
