34350
     RDKit          3D

 12 13  0  0  0  0  0  0  0  0999 V2000
    3.1764   -1.0237   -0.8190 S   0  0  0  0  0  0  0  0  0  0  0  0
    3.2783    1.0070   -0.5496 S   0  0  0  0  0  0  0  0  0  0  0  0
   -0.2415   -0.0629    1.0388 N   0  0  0  0  0  0  0  0  0  0  0  0
    0.8749    0.0044    0.1086 C   0  0  0  0  0  0  0  0  0  0  0  0
   -1.0741    1.1348    1.0751 C   0  0  0  0  0  0  0  0  0  0  0  0
   -1.0043   -1.3059    0.9652 C   0  0  0  0  0  0  0  0  0  0  0  0
   -1.5750    1.7096   -0.2516 C   0  0  0  0  0  0  0  0  0  0  0  0
   -1.8032   -1.5730   -0.3108 C   0  0  0  0  0  0  0  0  0  0  0  0
   -2.2440    0.7536   -1.2383 C   0  0  0  0  0  0  0  0  0  0  0  0
   -2.8512   -0.5123   -0.6457 C   0  0  0  0  0  0  0  0  0  0  0  0
    1.6699   -1.3010    0.1496 C   0  0  0  0  0  0  0  0  0  0  0  0
    1.7939    1.1694    0.4776 C   0  0  0  0  0  0  0  0  0  0  0  0
  1  2  1  0
  1 11  1  0
  2 12  1  0
  3  4  1  0
  3  5  1  0
  3  6  1  0
  4 11  1  0
  4 12  1  0
  5  7  1  0
  6  8  1  0
  7  9  1  0
  8 10  1  0
  9 10  1  0
M  END
>  <PUBCHEM_COMPOUND_CID>  (1) 
34350

>  <PUBCHEM_CONFORMER_RMSD>  (1) 
0.6

>  <PUBCHEM_CONFORMER_DIVERSEORDER>  (1) 
1
12
9
2
11
10
4
6
5
7
8
3

>  <PUBCHEM_MMFF94_PARTIAL_CHARGES>  (1) 
8
1 -0.23
11 0.23
12 0.23
2 -0.23
3 -0.81
4 0.27
5 0.27
6 0.27

>  <PUBCHEM_EFFECTIVE_ROTOR_COUNT>  (1) 
3.4

>  <PUBCHEM_PHARMACOPHORE_FEATURES>  (1) 
3
1 3 cation
5 1 2 4 11 12 rings
7 3 5 6 7 8 9 10 rings

>  <PUBCHEM_HEAVY_ATOM_COUNT>  (1) 
12

>  <PUBCHEM_ATOM_DEF_STEREO_COUNT>  (1) 
0

>  <PUBCHEM_ATOM_UDEF_STEREO_COUNT>  (1) 
0

>  <PUBCHEM_BOND_DEF_STEREO_COUNT>  (1) 
0

>  <PUBCHEM_BOND_UDEF_STEREO_COUNT>  (1) 
0

>  <PUBCHEM_ISOTOPIC_ATOM_COUNT>  (1) 
0

>  <PUBCHEM_COMPONENT_COUNT>  (1) 
1

>  <PUBCHEM_CACTVS_TAUTO_COUNT>  (1) 
1

>  <PUBCHEM_CONFORMER_ID>  (1) 
0000862E00000001

>  <PUBCHEM_MMFF94_ENERGY>  (1) 
19.9217

>  <PUBCHEM_FEATURE_SELFOVERLAP>  (1) 
15.223

>  <PUBCHEM_SHAPE_FINGERPRINT>  (1) 
11206711 2 18411145744341331046
12138202 97 18114454660415476118
12696612 119 9583509924155837946
12716758 59 18409721855187185811
12897270 3 18340200898846324932
12932764 1 18114193999219443138
13024252 1 16226055517437632033
13299463 15 18340768233977166676
13764800 53 15864365618156435309
15775835 57 17896882058276104013
15906896 17 16915684487572273241
16945 1 18411127056833079081
17834072 14 18200015262897908426
17844478 74 18114755922644110339
18186145 218 18335694988621663821
18534176 82 17823418377760506402
20201158 50 18341325694914930502
20361792 2 15841546388087731088
20645464 45 7853586702944813352
20653085 51 17968377849153840661
20828058 34 18040994063696693420
21501502 16 18411985736933791656
22802520 49 18410856581125188559
23402539 116 17969767756342143166
23419403 2 14276579757730883705
23552423 10 18336823104610370266
23557571 272 17751652175915977482
23559900 14 18127682744004055210
2748010 2 17332250200320493072
353137 74 18335132098808139121
5084963 1 18260827059942613741
8030462 33 18202290203710417800

>  <PUBCHEM_SHAPE_MULTIPOLES>  (1) 
249.67
4.95
1.84
1.15
2.54
0
-0.01
0.07
1.89
-0.16
-0.02
-0.33
-0.07
0.21

>  <PUBCHEM_SHAPE_SELFOVERLAP>  (1) 
470.719

>  <PUBCHEM_SHAPE_VOLUME>  (1) 
156.2

>  <PUBCHEM_COORDINATE_TYPE>  (1) 
2
5
10

$$$$
