3435
     RDKit          3D

 16 17  0  0  0  0  0  0  0  0999 V2000
   -4.7706   -0.3904    0.2910 O   0  0  0  0  0  0  0  0  0  0  0  0
    1.9333   -0.5355    0.0900 O   0  0  0  0  0  0  0  0  0  0  0  0
   -3.9319    1.7184    0.5958 O   0  0  0  0  0  0  0  0  0  0  0  0
    5.3794    0.0455    0.0866 O   0  0  0  0  0  0  0  0  0  0  0  0
    4.2033   -1.7834    0.4178 O   0  0  0  0  0  0  0  0  0  0  0  0
   -2.6168   -0.0556   -0.1588 N   0  0  0  0  0  0  0  0  0  0  0  0
   -1.4478    0.5914   -0.2504 N   0  0  0  0  0  0  0  0  0  0  0  0
    4.2621   -0.5436    0.1689 N   0  0  0  0  0  0  0  0  0  0  0  0
   -2.7733   -1.4552   -0.3477 C   0  0  0  0  0  0  0  0  0  0  0  0
   -4.2767   -1.6021   -0.3128 C   0  0  0  0  0  0  0  0  0  0  0  0
   -3.7700    0.5513    0.2684 C   0  0  0  0  0  0  0  0  0  0  0  0
    0.9402    0.3466   -0.1210 C   0  0  0  0  0  0  0  0  0  0  0  0
   -0.4176   -0.1688   -0.0625 C   0  0  0  0  0  0  0  0  0  0  0  0
    1.3966    1.6005   -0.3586 C   0  0  0  0  0  0  0  0  0  0  0  0
    3.0831    0.1809   -0.0158 C   0  0  0  0  0  0  0  0  0  0  0  0
    2.8067    1.5000   -0.2910 C   0  0  0  0  0  0  0  0  0  0  0  0
  1 10  1  0
  1 11  1  0
  2 12  1  0
  2 15  1  0
  3 11  2  0
  4  8  1  0
  5  8  2  0
  6  7  1  0
  6  9  1  0
  6 11  1  0
  7 13  2  0
  8 15  1  0
  9 10  1  0
 12 13  1  0
 12 14  2  0
 14 16  1  0
 15 16  2  0
M  CHG  2   4  -1   8   1
M  END
>  <PUBCHEM_COMPOUND_CID>  (1) 
3435

>  <PUBCHEM_CONFORMER_RMSD>  (1) 
0.6

>  <PUBCHEM_CONFORMER_DIVERSEORDER>  (1) 
1
4
6
3
2
5

>  <PUBCHEM_MMFF94_PARTIAL_CHARGES>  (1) 
19
1 -0.43
10 0.28
11 0.78
12 0.05
13 0.47
14 -0.15
15 0.22
16 -0.15
2 -0.28
21 0.06
22 0.15
23 0.15
3 -0.57
4 -0.52
5 -0.52
6 -0.3
7 -0.51
8 0.96
9 0.3

>  <PUBCHEM_EFFECTIVE_ROTOR_COUNT>  (1) 
3.8

>  <PUBCHEM_PHARMACOPHORE_FEATURES>  (1) 
8
1 2 acceptor
1 3 acceptor
1 4 acceptor
1 4 anion
1 5 acceptor
1 7 acceptor
5 1 6 9 10 11 rings
5 2 12 14 15 16 rings

>  <PUBCHEM_HEAVY_ATOM_COUNT>  (1) 
16

>  <PUBCHEM_ATOM_DEF_STEREO_COUNT>  (1) 
0

>  <PUBCHEM_ATOM_UDEF_STEREO_COUNT>  (1) 
0

>  <PUBCHEM_BOND_DEF_STEREO_COUNT>  (1) 
0

>  <PUBCHEM_BOND_UDEF_STEREO_COUNT>  (1) 
1

>  <PUBCHEM_ISOTOPIC_ATOM_COUNT>  (1) 
0

>  <PUBCHEM_COMPONENT_COUNT>  (1) 
1

>  <PUBCHEM_CACTVS_TAUTO_COUNT>  (1) 
1

>  <PUBCHEM_CONFORMER_ID>  (1) 
00000D6B00000001

>  <PUBCHEM_MMFF94_ENERGY>  (1) 
34.661

>  <PUBCHEM_FEATURE_SELFOVERLAP>  (1) 
40.692

>  <PUBCHEM_SHAPE_FINGERPRINT>  (1) 
10465860 250 17632857525246854561
10616163 171 18341333400303284591
10680689 15 16732980934044860085
11543360 7 7997967976971361293
12107183 9 17907298749738245553
12916754 54 18260547883322071789
13167823 11 18411135857084249726
13675066 3 17703788115518486550
14252887 29 18202289083019502214
15442244 35 18410294709219465357
17834072 33 18409451427246370036
1813 80 17458634371660388910
18186145 218 17240758523249658177
19050596 39 18342462573180142305
19422 9 18409451422708569213
200 152 18341891917928830427
20279233 1 15769780169200333973
20281475 54 18335137596424319876
20645477 56 8358271341162631271
20645477 70 18334294284101999854
21267235 1 18410301332159171631
221490 88 18116720813988791730
22485316 2 18410008827896082534
22646028 1 18410291436538515583
2306618 200 17988933258412577177
23402539 116 18341608209353023549
23532345 12 18342740723425131793
23559900 14 18340761654119197329
42 15 18412263943113296996
4214541 1 18411700980670801013
4463277 17 18411420610049357196
449060 50 10591767601395463963
5104073 3 18412546539250714961
559249 180 18337948996307092779
573450 72 18342735213340611971
633830 44 16877943849606690685
77779 3 18410013260170586677
9709674 26 18340777017307269111
9981440 41 17327177053291172656

>  <PUBCHEM_SHAPE_MULTIPOLES>  (1) 
284.98
11.01
1.65
0.64
1.08
0.01
0.02
2.6
-1.07
-0.24
-0.02
-0.11
-0.03
-0.83

>  <PUBCHEM_SHAPE_SELFOVERLAP>  (1) 
609.954

>  <PUBCHEM_SHAPE_VOLUME>  (1) 
159.3

>  <PUBCHEM_COORDINATE_TYPE>  (1) 
2
5
10

$$$$
