3436
     RDKit          3D

 19 21  0  0  0  0  0  0  0  0999 V2000
   -2.9452   -0.9095    0.6038 O   0  0  0  0  0  0  0  0  0  0  0  0
   -5.6108    0.0050    1.0680 O   0  0  0  0  0  0  0  0  0  0  0  0
   -5.1853    1.8532   -0.1571 O   0  0  0  0  0  0  0  0  0  0  0  0
    4.8226   -0.2163    1.2839 N   0  0  0  0  0  0  0  0  0  0  0  0
    0.8769   -0.8249   -0.8675 C   0  0  0  0  0  0  0  0  0  0  0  0
    2.2588   -0.7437   -1.4272 C   0  0  0  0  0  0  0  0  0  0  0  0
   -1.3281    0.1203   -0.5912 C   0  0  0  0  0  0  0  0  0  0  0  0
   -0.0312    0.2108   -1.1264 C   0  0  0  0  0  0  0  0  0  0  0  0
   -1.6553   -0.9953    0.1727 C   0  0  0  0  0  0  0  0  0  0  0  0
    0.5093   -1.9292   -0.0944 C   0  0  0  0  0  0  0  0  0  0  0  0
    3.2347   -0.0475   -0.4973 C   0  0  0  0  0  0  0  0  0  0  0  0
   -0.7748   -2.0403    0.4470 C   0  0  0  0  0  0  0  0  0  0  0  0
   -2.4974    0.9252   -0.6194 C   0  0  0  0  0  0  0  0  0  0  0  0
   -3.4463    0.2567    0.1191 C   0  0  0  0  0  0  0  0  0  0  0  0
    3.4106    1.3141   -0.5810 C   0  0  0  0  0  0  0  0  0  0  0  0
    3.9394   -0.7747    0.4260 C   0  0  0  0  0  0  0  0  0  0  0  0
    4.3109    1.9249    0.2849 C   0  0  0  0  0  0  0  0  0  0  0  0
   -4.8743    0.7487    0.3653 C   0  0  0  0  0  0  0  0  0  0  0  0
    4.9857    1.1225    1.1907 C   0  0  0  0  0  0  0  0  0  0  0  0
  1  9  1  0
  1 14  1  0
  2 18  1  0
  3 18  2  0
  4 16  2  0
  4 19  1  0
  5  6  1  0
  5  8  2  0
  5 10  1  0
  6 11  1  0
  7  8  1  0
  7  9  2  0
  7 13  1  0
  9 12  1  0
 10 12  2  0
 11 15  2  0
 11 16  1  0
 13 14  2  0
 14 18  1  0
 15 17  1  0
 17 19  2  0
M  CHG  1   2  -1
M  END
>  <PUBCHEM_COMPOUND_CID>  (1) 
3436

>  <PUBCHEM_CONFORMER_RMSD>  (1) 
0.6

>  <PUBCHEM_CONFORMER_DIVERSEORDER>  (1) 
1
14
5
9
8
4
13
6
3
7
11
2
10
12

>  <PUBCHEM_MMFF94_PARTIAL_CHARGES>  (1) 
26
1 -0.28
10 -0.15
11 -0.14
12 -0.15
13 -0.15
14 -0.09
15 -0.15
16 0.16
17 -0.15
18 1.03
19 0.16
2 -0.9
22 0.15
23 0.15
24 0.15
25 0.15
26 0.15
27 0.15
28 0.15
29 0.15
3 -0.9
4 -0.62
5 -0.14
6 0.29
8 -0.15
9 0.14

>  <PUBCHEM_EFFECTIVE_ROTOR_COUNT>  (1) 
3

>  <PUBCHEM_PHARMACOPHORE_FEATURES>  (1) 
8
1 1 acceptor
1 2 acceptor
1 3 acceptor
1 4 acceptor
3 2 3 18 anion
5 1 7 9 13 14 rings
6 4 11 15 16 17 19 rings
6 5 7 8 9 10 12 rings

>  <PUBCHEM_HEAVY_ATOM_COUNT>  (1) 
19

>  <PUBCHEM_ATOM_DEF_STEREO_COUNT>  (1) 
0

>  <PUBCHEM_ATOM_UDEF_STEREO_COUNT>  (1) 
0

>  <PUBCHEM_BOND_DEF_STEREO_COUNT>  (1) 
0

>  <PUBCHEM_BOND_UDEF_STEREO_COUNT>  (1) 
0

>  <PUBCHEM_ISOTOPIC_ATOM_COUNT>  (1) 
0

>  <PUBCHEM_COMPONENT_COUNT>  (1) 
1

>  <PUBCHEM_CACTVS_TAUTO_COUNT>  (1) 
1

>  <PUBCHEM_CONFORMER_ID>  (1) 
00000D6C00000001

>  <PUBCHEM_MMFF94_ENERGY>  (1) 
37.1384

>  <PUBCHEM_FEATURE_SELFOVERLAP>  (1) 
40.764

>  <PUBCHEM_SHAPE_FINGERPRINT>  (1) 
10498660 4 16199869583139302080
10554248 39 14977999693299663065
10692045 39 18270110211474461874
11128504 68 13398631658069809840
11796584 16 13190347863664753641
122479 349 18341894142811703622
12251169 10 18114176471647792894
12403259 415 18260829250465729508
12596602 18 16950565505762850952
12633257 1 18261386797725020100
12670543 26 10519714354238992787
12670546 177 12679459789723082312
12788726 201 17246698235493079994
12839892 36 17603872217196473683
13583140 156 16371549471266493933
13675066 3 17095519591192842838
13914758 101 14779537990635815327
13955234 65 17986402096087435183
14178000 29 8718536212411465603
14341114 176 18259702290287520128
14366163 111 14908181936588765498
14528608 73 15052012359880124969
15209294 21 18408604755816077663
15238133 3 18410011083413835112
17349148 13 15213027033348564491
1813 80 14490471954975925206
18222031 100 11025802028384015147
193927 3 12613031660970528640
19784866 240 12179840572258788844
20281475 54 8213876885237653134
20374829 77 9583524195889012028
20388580 30 9367339353850335722
20715895 44 18338795602970302545
20871999 31 11312064256962529679
21150785 3 17632565034665850133
212916 134 18408037424716602171
21452121 103 18337952272966193503
21618674 25 18272934916321333630
21637258 2 13551185615010764936
22079108 93 18341897411360885079
22182313 1 17387405736486558631
22950370 63 8862945000140728639
23016692 55 8070029994894020131
23402539 116 18410567397077866375
23503953 91 18260543467990131264
23559900 14 18337690645497673094
270888 7 17702938283842415976
2838139 119 17418368078144946648
2916195 48 18343018887456746137
34797466 226 16343989143323449997
351380 180 18341890783941458668
351380 3 13551188883760491304
3680242 22 18336550412794444001
4072396 5 17530685386051115855
42 15 17022904540480411366
4259306 186 8430321220647901016
4340502 62 18336271171859960371
4463277 69 11530482229008916984
465052 167 12540702504666582616
474 4 18131072640655892720
495365 180 17917996053580280398
5104073 3 18261114101117838915
5374978 207 18259988171394254876
56616090 284 10807940374824471948
58807428 26 17967248693662249258
5924683 9 18262516034710967939
633830 44 18343581845820773910
7097593 13 17968645125691402674
7970288 3 13623796208159385448
90316 7 17240196638358495252
960060 61 9799689307502350600

>  <PUBCHEM_SHAPE_MULTIPOLES>  (1) 
368.42
11.73
1.83
1.14
4.02
0.09
-0.05
-6.45
4.5
-0.28
0.12
-0.67
0.03
0.53

>  <PUBCHEM_SHAPE_SELFOVERLAP>  (1) 
817.353

>  <PUBCHEM_SHAPE_VOLUME>  (1) 
197.3

>  <PUBCHEM_COORDINATE_TYPE>  (1) 
2
5
10

$$$$
