34361
     RDKit          3D

 19 20  0  0  1  0  0  0  0  0999 V2000
    1.7566   -1.1209    0.5640 O   0  0  0  0  0  0  0  0  0  0  0  0
    2.6381    2.0645   -1.0469 O   0  0  0  0  0  0  0  0  0  0  0  0
    5.2165    0.8715   -0.5247 O   0  0  0  0  0  0  0  0  0  0  0  0
    4.4829   -0.9601    1.4054 O   0  0  0  0  0  0  0  0  0  0  0  0
   -5.3764   -1.3122   -0.9348 O   0  0  0  0  0  0  0  0  0  0  0  0
    0.4791    0.8406    0.4674 N   0  0  0  0  0  0  0  0  0  0  0  0
    2.8190    0.9497   -0.1745 C   0  0  0  0  0  0  0  0  0  0  0  0
    4.0074    0.1350   -0.6894 C   0  0  0  0  0  0  0  0  0  0  0  0
    1.5474    0.0924   -0.1594 C   0  0  0  0  0  0  0  0  0  0  0  0
    4.1259   -1.1989    0.0427 C   0  0  0  0  0  0  0  0  0  0  0  0
    2.7920   -1.9352    0.0084 C   0  0  0  0  0  0  0  0  0  0  0  0
   -0.8624    0.5456    0.3003 C   0  0  0  0  0  0  0  0  0  0  0  0
   -1.8571    1.3110    0.9393 C   0  0  0  0  0  0  0  0  0  0  0  0
   -1.2718   -0.5283   -0.5138 C   0  0  0  0  0  0  0  0  0  0  0  0
   -3.2095    1.0138    0.7710 C   0  0  0  0  0  0  0  0  0  0  0  0
   -2.6243   -0.8255   -0.6821 C   0  0  0  0  0  0  0  0  0  0  0  0
   -3.5931   -0.0544   -0.0397 C   0  0  0  0  0  0  0  0  0  0  0  0
   -5.0031   -0.3639   -0.2159 C   0  0  0  0  0  0  0  0  0  0  0  0
   -6.0674    0.4754    0.4828 C   0  0  0  0  0  0  0  0  0  0  0  0
  1  9  1  0
  1 11  1  0
  2  7  1  0
  3  8  1  0
  4 10  1  0
  5 18  2  0
  6  9  1  0
  6 12  1  0
  7  8  1  0
  7  9  1  0
  8 10  1  0
 10 11  1  0
 12 13  2  0
 12 14  1  0
 13 15  1  0
 14 16  2  0
 15 17  2  0
 16 17  1  0
 17 18  1  0
 18 19  1  0
M  END
>  <PUBCHEM_COMPOUND_CID>  (1) 
34361

>  <PUBCHEM_CONFORMER_RMSD>  (1) 
0.6

>  <PUBCHEM_CONFORMER_DIVERSEORDER>  (1) 
2
87
175
148
174
93
110
53
161
43
80
191
146
103
111
50
32
163
198
58
170
25
82
1
172
160
134
179
109
89
184
166
76
147
199
177
33
28
165
164
65
144
46
126
168
102
149
41
72
200
178
34
59
176
105
171
10
31
142
195
52
78
182
127
88
167
156
173
66
122
42
169
74
22
140
55
187
194
123
157
30
83
189
77
153
11
99
145
151
135
114
101
90
141
20
108
54
150
81
152
132
120
183
115
27
40
128
197
106
139
23
35
112
100
95
138
185
64
84
47
4
5
119
67
116
131
85
56
143
125
186
181
3
86
190
6
129
16
96
162
118
193
121
62
63
98
159
29
133
17
158
97
192
155
91
117
79
45
180
94
7
18
39
136
137
44
61
36
69
9
8
13
24
188
154
19
26
68
21
107
57
104
75
71
124
14
70
60
49
38
12
37
113
51
48
196
130
15
73
92

>  <PUBCHEM_MMFF94_PARTIAL_CHARGES>  (1) 
27
1 -0.56
10 0.28
11 0.28
12 0.1
13 -0.15
14 -0.15
15 -0.15
16 -0.15
17 0.09
18 0.42
19 0.06
2 -0.68
26 0.4
27 0.4
28 0.4
29 0.4
3 -0.68
30 0.15
31 0.15
32 0.15
33 0.15
4 -0.68
5 -0.57
6 -0.87
7 0.28
8 0.28
9 0.65

>  <PUBCHEM_EFFECTIVE_ROTOR_COUNT>  (1) 
4.2

>  <PUBCHEM_PHARMACOPHORE_FEATURES>  (1) 
12
1 1 acceptor
1 2 acceptor
1 2 donor
1 3 acceptor
1 3 donor
1 4 acceptor
1 4 donor
1 5 acceptor
1 6 cation
1 6 donor
6 1 7 8 9 10 11 rings
6 12 13 14 15 16 17 rings

>  <PUBCHEM_HEAVY_ATOM_COUNT>  (1) 
19

>  <PUBCHEM_ATOM_DEF_STEREO_COUNT>  (1) 
2

>  <PUBCHEM_ATOM_UDEF_STEREO_COUNT>  (1) 
2

>  <PUBCHEM_BOND_DEF_STEREO_COUNT>  (1) 
0

>  <PUBCHEM_BOND_UDEF_STEREO_COUNT>  (1) 
0

>  <PUBCHEM_ISOTOPIC_ATOM_COUNT>  (1) 
0

>  <PUBCHEM_COMPONENT_COUNT>  (1) 
1

>  <PUBCHEM_CACTVS_TAUTO_COUNT>  (1) 
7

>  <PUBCHEM_CONFORMER_ID>  (1) 
0000863900000002

>  <PUBCHEM_MMFF94_ENERGY>  (1) 
61.7705

>  <PUBCHEM_FEATURE_SELFOVERLAP>  (1) 
60.916

>  <PUBCHEM_SHAPE_FINGERPRINT>  (1) 
10912923 1 18413394219655254497
10968037 39 18272090521682514141
11045515 52 18259983773807316597
11287383 113 17313109678502604411
11471102 20 18186804677723563436
12107183 9 17620480108136199131
12236239 1 18342459244105786324
13167823 11 18413108355633430183
13533116 47 18412543180528513426
13760787 5 18411136948817982013
13836976 161 18334582373491662710
13862211 1 17917987304984891583
14251764 18 18131072628688687491
14386348 63 16225769618307022212
14576447 43 18413388752351693070
15242433 33 18413109467787399279
17804303 29 17561360704067479393
17834072 33 18411699893948928255
18681886 176 18130788988679363188
200 152 18409729560664547825
20279233 1 16298392352715894384
20645477 70 18040713628561387546
21065198 48 18342742862482148368
21267235 1 18341902852947480910
2255824 54 18334300894320243660
22646028 1 18342457027907903736
22646028 28 18341894073891708203
2297311 6 16988573397936356241
23402539 116 17775562036168540533
23536379 177 18040715845049114873
23557571 272 16988294091971072560
23559900 14 18130219466735240209
29717793 49 18201722816739197596
300161 21 18411978065869103809
3004659 81 18413110558476802029
34797466 226 16845297185210564544
3545911 37 18408608079920278716
4214541 1 18340487773035023361
465052 167 17988646345801697175
474 4 18115876368085327468
4921388 177 16878233068894863259
5104073 3 18059293266431537035
5281201 14 17603864485701004700
5374978 207 17988639700964829872
542803 24 18334576837030787373
573450 72 18201720613653187121
602551 16 16271915056167844903
67856867 119 18340200911911114128
7164475 11 18267587914245752220
9709674 26 18340496577264617863
9981440 41 17474103684441788504

>  <PUBCHEM_SHAPE_MULTIPOLES>  (1) 
356.68
12.73
1.59
0.96
6.18
0.04
0.07
1.59
-0.39
-0.81
-0.09
-0.32
-0.05
-1.52

>  <PUBCHEM_SHAPE_SELFOVERLAP>  (1) 
747.03

>  <PUBCHEM_SHAPE_VOLUME>  (1) 
200.3

>  <PUBCHEM_COORDINATE_TYPE>  (1) 
2
5
10

$$$$
