34364
     RDKit          3D

 22 24  0  0  0  0  0  0  0  0999 V2000
   -5.0971    2.7917    0.1511 Cl  0  0  0  0  0  0  0  0  0  0  0  0
   -3.1169   -2.1225    0.3466 O   0  0  0  0  0  0  0  0  0  0  0  0
    0.2044    0.0998   -0.3164 N   0  0  0  0  0  0  0  0  0  0  0  0
    4.3330    1.4538   -0.1514 N   0  0  0  0  0  0  0  0  0  0  0  0
    1.5675   -1.9031   -0.3241 N   0  0  0  0  0  0  0  0  0  0  0  0
    1.4127    0.8921   -0.5549 C   0  0  0  0  0  0  0  0  0  0  0  0
    2.0402    1.3114    0.7757 C   0  0  0  0  0  0  0  0  0  0  0  0
   -1.0338    0.7677   -0.2117 C   0  0  0  0  0  0  0  0  0  0  0  0
    3.3020    2.1591    0.6000 C   0  0  0  0  0  0  0  0  0  0  0  0
    0.3509   -1.3057   -0.2097 C   0  0  0  0  0  0  0  0  0  0  0  0
   -2.2068    0.0245    0.0185 C   0  0  0  0  0  0  0  0  0  0  0  0
   -0.7891   -2.0868    0.0192 C   0  0  0  0  0  0  0  0  0  0  0  0
   -2.1158   -1.4472    0.1446 C   0  0  0  0  0  0  0  0  0  0  0  0
   -1.1733    2.1629   -0.3256 C   0  0  0  0  0  0  0  0  0  0  0  0
   -3.4601    0.6423    0.1313 C   0  0  0  0  0  0  0  0  0  0  0  0
   -0.6780   -3.4761    0.1305 C   0  0  0  0  0  0  0  0  0  0  0  0
   -2.4218    2.7837   -0.2139 C   0  0  0  0  0  0  0  0  0  0  0  0
   -3.5635    2.0244    0.0144 C   0  0  0  0  0  0  0  0  0  0  0  0
    4.7355    0.2319    0.5475 C   0  0  0  0  0  0  0  0  0  0  0  0
    5.4939    2.3184   -0.3710 C   0  0  0  0  0  0  0  0  0  0  0  0
    0.5665   -4.0731    0.0123 C   0  0  0  0  0  0  0  0  0  0  0  0
    1.6495   -3.2491   -0.2130 C   0  0  0  0  0  0  0  0  0  0  0  0
  1 18  1  0
  2 13  2  0
  3  6  1  0
  3  8  1  0
  3 10  1  0
  4  9  1  0
  4 19  1  0
  4 20  1  0
  5 10  2  0
  5 22  1  0
  6  7  1  0
  7  9  1  0
  8 11  2  0
  8 14  1  0
 10 12  1  0
 11 13  1  0
 11 15  1  0
 12 13  1  0
 12 16  2  0
 14 17  2  0
 15 18  2  0
 16 21  1  0
 17 18  1  0
 21 22  2  0
M  END
>  <PUBCHEM_COMPOUND_CID>  (1) 
34364

>  <PUBCHEM_CONFORMER_RMSD>  (1) 
0.6

>  <PUBCHEM_CONFORMER_DIVERSEORDER>  (1) 
4
12
17
1
15
14
10
6
13
16
9
11
2
3
5
8
7

>  <PUBCHEM_MMFF94_PARTIAL_CHARGES>  (1) 
27
1 -0.18
10 0.41
11 0.09
12 0.09
13 0.4
14 -0.15
15 -0.15
16 -0.15
17 -0.15
18 0.18
19 0.27
2 -0.57
20 0.27
21 -0.15
22 0.16
29 0.15
3 -0.57
30 0.15
31 0.15
32 0.15
39 0.15
4 -0.81
40 0.15
5 -0.62
6 0.37
8 0.1
9 0.27

>  <PUBCHEM_EFFECTIVE_ROTOR_COUNT>  (1) 
4

>  <PUBCHEM_PHARMACOPHORE_FEATURES>  (1) 
7
1 2 acceptor
1 3 cation
1 4 cation
1 5 acceptor
6 3 8 10 11 12 13 rings
6 5 10 12 16 21 22 rings
6 8 11 14 15 17 18 rings

>  <PUBCHEM_HEAVY_ATOM_COUNT>  (1) 
22

>  <PUBCHEM_ATOM_DEF_STEREO_COUNT>  (1) 
0

>  <PUBCHEM_ATOM_UDEF_STEREO_COUNT>  (1) 
0

>  <PUBCHEM_BOND_DEF_STEREO_COUNT>  (1) 
0

>  <PUBCHEM_BOND_UDEF_STEREO_COUNT>  (1) 
0

>  <PUBCHEM_ISOTOPIC_ATOM_COUNT>  (1) 
0

>  <PUBCHEM_COMPONENT_COUNT>  (1) 
1

>  <PUBCHEM_CACTVS_TAUTO_COUNT>  (1) 
1

>  <PUBCHEM_CONFORMER_ID>  (1) 
0000863C00000004

>  <PUBCHEM_MMFF94_ENERGY>  (1) 
67.8792

>  <PUBCHEM_FEATURE_SELFOVERLAP>  (1) 
35.567

>  <PUBCHEM_SHAPE_FINGERPRINT>  (1) 
10319926 262 18054768836772560960
10411042 1 17401770121453825462
10967382 1 18049725109777079839
1100329 8 18195245512210027874
11680986 33 18264216807473642371
12107183 9 18263071146823412384
12173636 292 18339352080486805468
12390115 104 18270417069164436064
12553582 1 17112697545248878478
12788726 201 17901377119972947890
12930653 34 18410016546131804455
13140716 1 18335986355203631691
138480 1 17618503181813430442
14251757 5 18195538206210988848
14790565 3 18410298020882324380
15042514 8 17904486555535344954
15230672 131 18408609150664906622
15927050 60 18341332210929211247
16110190 28 18118938375489330162
16945 1 18121779435529667727
18785283 64 18120374259178506448
19591789 44 18411136939864206330
20510252 161 18270684306197674313
20554085 129 18058141999878586744
21279426 13 18271257040956702870
22182313 1 18338253616936447199
2334 1 18337960081707471527
23366157 5 18043813087104270714
23402539 116 18055067924528904463
23558518 356 18260271862722179659
23559900 14 18124309406973196346
266924 87 18339068363748026703
2748010 2 18336841844027592263
283562 15 18268143339664228403
3091708 16 9336804799038863970
3298306 158 18343586218392743750
335352 9 18339360739420208878
350125 39 18411141376153921131
474 4 18268706117470785441
5104073 3 18119823413424627449
5265222 85 18195261133955259916
532947 4 18196935474735574110
5939293 188 17546160801463415719
59755656 215 18338519612513478140
7364860 26 18123749751391222061
81228 2 17549800623011411002
84936 182 18199746934130594073
9981440 41 18409163320539253635

>  <PUBCHEM_SHAPE_MULTIPOLES>  (1) 
433.81
8.56
5.03
0.71
4.14
4.27
-0.03
-10.43
-0.55
0.5
0.02
0.19
-0.12
0.23

>  <PUBCHEM_SHAPE_SELFOVERLAP>  (1) 
924.883

>  <PUBCHEM_SHAPE_VOLUME>  (1) 
243.3

>  <PUBCHEM_COORDINATE_TYPE>  (1) 
2
5
10

$$$$
