34371
     RDKit          3D

 20 22  0  0  1  0  0  0  0  0999 V2000
    4.5235    2.8399   -0.3225 Cl  0  0  0  0  0  0  0  0  0  0  0  0
    1.5522   -2.9053    1.0066 O   0  0  0  0  0  0  0  0  0  0  0  0
   -0.1742   -1.9889   -0.2997 N   0  0  0  0  0  0  0  0  0  0  0  0
   -1.8242    0.1407    0.9635 C   0  0  0  0  0  0  0  0  0  0  0  0
   -2.7790    1.8586   -0.0880 C   0  0  0  0  0  0  0  0  0  0  0  0
   -2.0208   -0.4078   -0.4727 C   0  0  0  0  0  0  0  0  0  0  0  0
   -2.5870    0.8252   -1.2248 C   0  0  0  0  0  0  0  0  0  0  0  0
   -1.5069    1.6198    0.7300 C   0  0  0  0  0  0  0  0  0  0  0  0
   -3.2075    0.2342    1.6350 C   0  0  0  0  0  0  0  0  0  0  0  0
   -3.8615    1.4213    0.9136 C   0  0  0  0  0  0  0  0  0  0  0  0
   -0.7168   -0.9058   -1.0891 C   0  0  0  0  0  0  0  0  0  0  0  0
   -3.8337    0.5139   -2.0394 C   0  0  0  0  0  0  0  0  0  0  0  0
   -1.0216   -3.1729   -0.1587 C   0  0  0  0  0  0  0  0  0  0  0  0
    1.0834   -1.9890    0.3323 C   0  0  0  0  0  0  0  0  0  0  0  0
    1.9333   -0.7986    0.1709 C   0  0  0  0  0  0  0  0  0  0  0  0
    1.8296    0.2395    1.0840 C   0  0  0  0  0  0  0  0  0  0  0  0
    2.8212   -0.7349   -0.8918 C   0  0  0  0  0  0  0  0  0  0  0  0
    2.6335    1.3690    0.9304 C   0  0  0  0  0  0  0  0  0  0  0  0
    3.6251    0.3946   -1.0454 C   0  0  0  0  0  0  0  0  0  0  0  0
    3.5312    1.4465   -0.1343 C   0  0  0  0  0  0  0  0  0  0  0  0
  1 20  1  0
  2 14  2  0
  3 11  1  0
  3 13  1  0
  3 14  1  0
  4  6  1  0
  4  8  1  0
  4  9  1  0
  5  7  1  0
  5  8  1  0
  5 10  1  0
  6  7  1  0
  6 11  1  0
  7 12  1  0
  9 10  1  0
 14 15  1  0
 15 16  2  0
 15 17  1  0
 16 18  1  0
 17 19  2  0
 18 20  2  0
 19 20  1  0
M  END
>  <PUBCHEM_COMPOUND_CID>  (1) 
34371

>  <PUBCHEM_CONFORMER_RMSD>  (1) 
0.8

>  <PUBCHEM_CONFORMER_DIVERSEORDER>  (1) 
1
19
37
46
22
47
35
12
36
10
28
38
34
15
18
32
14
41
48
29
6
20
45
24
9
5
43
13
49
17
21
31
2
16
44
8
3
4
23
33
42
27
25
7
11
30
39
26
40

>  <PUBCHEM_MMFF94_PARTIAL_CHARGES>  (1) 
16
1 -0.18
11 0.3
13 0.3
14 0.54
15 0.09
16 -0.15
17 -0.15
18 -0.15
19 -0.15
2 -0.57
20 0.18
3 -0.66
39 0.15
40 0.15
41 0.15
42 0.15

>  <PUBCHEM_EFFECTIVE_ROTOR_COUNT>  (1) 
5

>  <PUBCHEM_PHARMACOPHORE_FEATURES>  (1) 
3
1 2 acceptor
6 15 16 17 18 19 20 rings
7 4 5 6 7 8 9 10 rings

>  <PUBCHEM_HEAVY_ATOM_COUNT>  (1) 
20

>  <PUBCHEM_ATOM_DEF_STEREO_COUNT>  (1) 
0

>  <PUBCHEM_ATOM_UDEF_STEREO_COUNT>  (1) 
4

>  <PUBCHEM_BOND_DEF_STEREO_COUNT>  (1) 
0

>  <PUBCHEM_BOND_UDEF_STEREO_COUNT>  (1) 
0

>  <PUBCHEM_ISOTOPIC_ATOM_COUNT>  (1) 
0

>  <PUBCHEM_COMPONENT_COUNT>  (1) 
1

>  <PUBCHEM_CACTVS_TAUTO_COUNT>  (1) 
1

>  <PUBCHEM_CONFORMER_ID>  (1) 
0000864300000001

>  <PUBCHEM_MMFF94_ENERGY>  (1) 
68.7524

>  <PUBCHEM_FEATURE_SELFOVERLAP>  (1) 
15.223

>  <PUBCHEM_SHAPE_FINGERPRINT>  (1) 
10165383 225 18189642495549040054
10498660 4 18337103557348019356
11137873 295 10447923954168877413
11582403 64 15940858633758862703
11640471 11 18338499902892433566
11725454 13 16735199696948999631
12173636 292 18341341036807357933
12403259 327 15140950734390725677
12788726 201 17904750425604743554
128993 33 18342181033388779008
13134695 92 17683792225363146610
13224815 77 18335138678687603953
13544653 18 9079116640030471550
13583140 156 17385712617275593944
13764800 53 18336270149024773778
14123250 116 18131356353073408857
14123255 52 18410298016608027400
14289901 80 16081378444233391464
14386348 128 18342181063479833024
14468879 13 17749657516100525597
14713325 29 17905622343221124874
14787075 74 18124021588894370255
15309172 13 18335423452167478085
15342168 16 18411990143686710641
15775835 57 18201162065724784801
16945 1 17983852290204656883
17357779 13 17768236174401976863
17834072 14 8718548238208994762
1813 80 17408529437863039526
18186145 218 18341621408214564740
18219364 16 18334012812966608356
18981168 100 18335417976147660982
192875 21 17978770342986663603
19862831 5 17775281625568388905
20510252 161 18048595121051003738
20671657 1 18336541617139284086
21524375 3 18342168964662773502
21639500 275 18193264209520638103
21864079 5 18270966730383489993
22182937 141 18197789988327470128
2255824 54 18268144249780739078
22854114 111 18338238154642374218
23227448 37 18196381531091364460
23419403 2 13061247502934998062
23557571 272 15481514587212525519
23559900 14 16516813537535592447
238 59 18265040345682460367
25 1 18342468027888919478
2637199 183 18129116553577417182
2748010 2 17264664293997029817
283562 15 17976254961099218106
312423 11 18059003995809829607
350125 39 18408608067178561738
3797600 57 16372730398563520700
4028521 119 18341607182998271284
469060 322 17752488921634618395
474 4 18411980234838235261
5262128 65 15841542007184250833
526903 126 18198895005923990896
633830 44 18272099253082190061
6442390 28 18263946473273501850
7808743 9 18265621064280192528
81228 2 17976824516501090882
9981440 41 18123458643499342282

>  <PUBCHEM_SHAPE_MULTIPOLES>  (1) 
402.61
7.69
3.02
1.48
2.83
1.62
0.23
-6.12
1.22
1.3
-0.31
-1.16
-0.18
-0.4

>  <PUBCHEM_SHAPE_SELFOVERLAP>  (1) 
851.525

>  <PUBCHEM_SHAPE_VOLUME>  (1) 
230.7

>  <PUBCHEM_COORDINATE_TYPE>  (1) 
2
5
10

$$$$
