34370
     RDKit          3D

 11 11  0  0  0  0  0  0  0  0999 V2000
    2.6064    1.0835   -0.2601 N   0  0  0  0  0  0  0  0  0  0  0  0
    2.5221   -1.1453    0.1923 N   0  0  0  0  0  0  0  0  0  0  0  0
   -0.5169   -0.0086   -0.0071 C   0  0  0  0  0  0  0  0  0  0  0  0
   -1.9028   -0.1560   -0.6427 C   0  0  0  0  0  0  0  0  0  0  0  0
    0.6119   -0.1960   -1.0156 C   0  0  0  0  0  0  0  0  0  0  0  0
   -3.0120    0.0668    0.3875 C   0  0  0  0  0  0  0  0  0  0  0  0
    1.9449   -0.1035   -0.3505 C   0  0  0  0  0  0  0  0  0  0  0  0
   -4.3958   -0.0499   -0.2512 C   0  0  0  0  0  0  0  0  0  0  0  0
    3.8345    0.9082    0.4548 C   0  0  0  0  0  0  0  0  0  0  0  0
    3.8079   -0.6028    0.7304 C   0  0  0  0  0  0  0  0  0  0  0  0
   -5.5003    0.2038    0.7622 C   0  0  0  0  0  0  0  0  0  0  0  0
  1  7  1  0
  1  9  1  0
  2  7  2  0
  2 10  1  0
  3  4  1  0
  3  5  1  0
  4  6  1  0
  5  7  1  0
  6  8  1  0
  8 11  1  0
  9 10  1  0
M  END
>  <PUBCHEM_COMPOUND_CID>  (1) 
34370

>  <PUBCHEM_CONFORMER_RMSD>  (1) 
0.6

>  <PUBCHEM_CONFORMER_DIVERSEORDER>  (1) 
1
53
51
26
3
16
11
52
5
40
32
48
6
27
23
8
49
13
45
35
15
24
12
4
30
33
21
36
29
2
47
20
41
10
7
43
42
17
14
37
28
39
22
34
9
18
25
46
31
38
50
19
44

>  <PUBCHEM_MMFF94_PARTIAL_CHARGES>  (1) 
7
1 -0.82
10 0.25
2 -0.7
24 0.4
5 0.06
7 0.44
9 0.37

>  <PUBCHEM_EFFECTIVE_ROTOR_COUNT>  (1) 
5.6

>  <PUBCHEM_PHARMACOPHORE_FEATURES>  (1) 
5
1 1 donor
1 11 hydrophobe
3 1 2 7 cation
5 1 2 7 9 10 rings
5 3 4 5 6 8 hydrophobe

>  <PUBCHEM_HEAVY_ATOM_COUNT>  (1) 
11

>  <PUBCHEM_ATOM_DEF_STEREO_COUNT>  (1) 
0

>  <PUBCHEM_ATOM_UDEF_STEREO_COUNT>  (1) 
0

>  <PUBCHEM_BOND_DEF_STEREO_COUNT>  (1) 
0

>  <PUBCHEM_BOND_UDEF_STEREO_COUNT>  (1) 
0

>  <PUBCHEM_ISOTOPIC_ATOM_COUNT>  (1) 
0

>  <PUBCHEM_COMPONENT_COUNT>  (1) 
1

>  <PUBCHEM_CACTVS_TAUTO_COUNT>  (1) 
1

>  <PUBCHEM_CONFORMER_ID>  (1) 
0000864200000001

>  <PUBCHEM_MMFF94_ENERGY>  (1) 
12.7564

>  <PUBCHEM_FEATURE_SELFOVERLAP>  (1) 
25.371

>  <PUBCHEM_SHAPE_FINGERPRINT>  (1) 
11062470 55 17846499240273018583
114248 4 11312053257872784639
13675066 3 17676205771456662255
13690532 89 13767924624470189761
14123238 8 17894914044447935063
14252887 29 17530684281864680226
15242439 84 12823297905385251877
15477762 27 8358268055296190056
177051 138 15863788391668139197
17834076 25 18411703196493929268
1986462 14 13912317980730436359
20279233 1 17240486905233428547
20645477 70 18187642466470930322
20724930 37 18272369758717532470
20767249 442 16056878035237300758
21119208 17 9583518724253482177
212847 35 16415480437053643986
22485316 2 18113897174098305187
23048698 100 18343023285012510458
23402539 116 18187357736778791567
23402655 69 10807934872844648011
23590187 302 9583519810817105966
3060560 45 11240000062040065192
42 15 17894349964897022307
42788 4 17275105029203090841
449060 50 18114180877925672388
4990 188 11815901162618813757
522135 26 9223234043924460100
5374978 207 18411418401713448209

>  <PUBCHEM_SHAPE_MULTIPOLES>  (1) 
216.41
10.65
0.92
0.89
9.96
0.03
-0.06
2.9
-1.77
-0.22
0.05
-0.56
-0.02
-0.48

>  <PUBCHEM_SHAPE_SELFOVERLAP>  (1) 
409.949

>  <PUBCHEM_SHAPE_VOLUME>  (1) 
131.3

>  <PUBCHEM_COORDINATE_TYPE>  (1) 
2
5
10

$$$$
