34389
     RDKit          3D

 26 28  0  0  0  0  0  0  0  0999 V2000
    0.9438    0.4841   -0.7521 O   0  0  0  0  0  0  0  0  0  0  0  0
   -4.4855   -1.4645    1.5975 O   0  0  0  0  0  0  0  0  0  0  0  0
    2.7761    3.8287    0.6144 O   0  0  0  0  0  0  0  0  0  0  0  0
    0.9848    2.8539   -0.1981 O   0  0  0  0  0  0  0  0  0  0  0  0
    0.2704   -0.0136    1.4323 O   0  0  0  0  0  0  0  0  0  0  0  0
    2.2803   -1.8958   -0.8559 N   0  0  0  0  0  0  0  0  0  0  0  0
    2.1775    2.8140    0.1858 N   0  0  0  0  0  0  0  0  0  0  0  0
    4.2574   -0.8445    0.0348 C   0  0  0  0  0  0  0  0  0  0  0  0
    2.9152   -0.8007   -0.3969 C   0  0  0  0  0  0  0  0  0  0  0  0
    2.2478    0.4196   -0.3378 C   0  0  0  0  0  0  0  0  0  0  0  0
    2.8754    1.5757    0.1328 C   0  0  0  0  0  0  0  0  0  0  0  0
    4.8889    0.3181    0.5081 C   0  0  0  0  0  0  0  0  0  0  0  0
    4.1976    1.5253    0.5564 C   0  0  0  0  0  0  0  0  0  0  0  0
    4.9297   -2.0727   -0.0245 C   0  0  0  0  0  0  0  0  0  0  0  0
    4.2782   -3.2028   -0.4969 C   0  0  0  0  0  0  0  0  0  0  0  0
   -3.8081    0.1937   -0.0043 C   0  0  0  0  0  0  0  0  0  0  0  0
    2.9649   -3.0618   -0.8969 C   0  0  0  0  0  0  0  0  0  0  0  0
   -4.7794   -0.6033    0.5818 C   0  0  0  0  0  0  0  0  0  0  0  0
   -2.4111    0.1322    0.4603 C   0  0  0  0  0  0  0  0  0  0  0  0
   -4.1209    1.0652   -1.0368 C   0  0  0  0  0  0  0  0  0  0  0  0
    0.0178    0.2396    0.2646 C   0  0  0  0  0  0  0  0  0  0  0  0
   -1.3404    0.3404   -0.3192 C   0  0  0  0  0  0  0  0  0  0  0  0
   -6.0951   -0.5272    0.1248 C   0  0  0  0  0  0  0  0  0  0  0  0
   -5.4367    1.1410   -1.4938 C   0  0  0  0  0  0  0  0  0  0  0  0
   -6.4237    0.3448   -0.9131 C   0  0  0  0  0  0  0  0  0  0  0  0
   -4.1051   -2.7891    1.2327 C   0  0  0  0  0  0  0  0  0  0  0  0
  1 10  1  0
  1 21  1  0
  2 18  1  0
  2 26  1  0
  3  7  1  0
  4  7  2  0
  5 21  2  0
  6  9  2  0
  6 17  1  0
  7 11  1  0
  8  9  1  0
  8 12  1  0
  8 14  2  0
  9 10  1  0
 10 11  2  0
 11 13  1  0
 12 13  2  0
 14 15  1  0
 15 17  2  0
 16 18  2  0
 16 19  1  0
 16 20  1  0
 18 23  1  0
 19 22  2  0
 20 24  2  0
 21 22  1  0
 23 25  2  0
 24 25  1  0
M  CHG  2   3  -1   7   1
M  END
>  <PUBCHEM_COMPOUND_CID>  (1) 
34389

>  <PUBCHEM_CONFORMER_RMSD>  (1) 
0.8

>  <PUBCHEM_CONFORMER_DIVERSEORDER>  (1) 
2
65
57
70
54
76
25
74
27
44
19
34
8
55
73
52
1
53
62
64
6
50
29
71
35
63
39
11
68
58
4
45
22
40
16
66
3
37
49
30
59
32
42
77
48
10
43
61
7
60
56
51
72
69
5
33
15
31
13
38
47
9
46
20
36
67
24
75
26
41
17
21
12
28
23
14
18

>  <PUBCHEM_MMFF94_PARTIAL_CHARGES>  (1) 
36
1 -0.23
10 0.08
11 0.13
12 -0.15
13 -0.15
14 -0.15
15 -0.15
16 0.03
17 0.16
18 0.08
19 -0.18
2 -0.36
20 -0.15
21 0.71
22 -0.14
23 -0.15
24 -0.15
25 -0.15
26 0.28
27 0.15
28 0.15
29 0.15
3 -0.52
30 0.15
31 0.15
32 0.15
33 0.15
34 0.15
35 0.15
36 0.15
37 0.15
4 -0.52
5 -0.57
6 -0.62
7 0.91
9 0.31

>  <PUBCHEM_EFFECTIVE_ROTOR_COUNT>  (1) 
6

>  <PUBCHEM_PHARMACOPHORE_FEATURES>  (1) 
9
1 2 acceptor
1 3 acceptor
1 3 anion
1 4 acceptor
1 5 acceptor
1 6 acceptor
6 16 18 20 23 24 25 rings
6 6 8 9 14 15 17 rings
6 8 9 10 11 12 13 rings

>  <PUBCHEM_HEAVY_ATOM_COUNT>  (1) 
26

>  <PUBCHEM_ATOM_DEF_STEREO_COUNT>  (1) 
0

>  <PUBCHEM_ATOM_UDEF_STEREO_COUNT>  (1) 
0

>  <PUBCHEM_BOND_DEF_STEREO_COUNT>  (1) 
0

>  <PUBCHEM_BOND_UDEF_STEREO_COUNT>  (1) 
1

>  <PUBCHEM_ISOTOPIC_ATOM_COUNT>  (1) 
0

>  <PUBCHEM_COMPONENT_COUNT>  (1) 
1

>  <PUBCHEM_CACTVS_TAUTO_COUNT>  (1) 
1

>  <PUBCHEM_CONFORMER_ID>  (1) 
0000865500000002

>  <PUBCHEM_MMFF94_ENERGY>  (1) 
103.631

>  <PUBCHEM_FEATURE_SELFOVERLAP>  (1) 
45.787

>  <PUBCHEM_SHAPE_FINGERPRINT>  (1) 
10411042 1 18125439710192247334
10673678 19 17969518180942628644
10835480 77 18410005546710373741
11045977 3 18333733511517779495
11370993 144 18410302406681600705
11405975 8 18409454700106304305
11545043 162 17894635863858963673
11796584 16 17967248684924283834
12107183 9 17841163151604043433
12236239 1 17275101721904271285
12596602 18 15123497091418086847
13533116 47 18130785646403522818
13583140 156 18411701027994419999
13911852 28 18125439713912416134
13955234 65 18271803570701876120
14910302 57 17894909603657882575
15183329 4 17896035460583214859
17349148 13 17418099797339008175
17844677 252 18342742888637385653
20645477 70 18411417285006113854
21033650 10 16734116613070386364
21065198 57 18409169939400458141
21065201 7 17530963609785030289
21197605 99 18050575332692262658
21279426 13 18190453870949033189
21285901 2 18113897113921440348
21859007 373 17750777897185292309
22061861 79 18410571756606990703
22224240 67 18059562634259339288
22393880 68 17967809453709629875
23559900 14 18408881850068629873
23572383 38 18335420192445686099
239999 70 18259703402451863346
3004659 81 17968662618835074278
314194 84 18202278100149718951
3421961 26 18341331111359184138
3882209 13 16964610379955882291
4015057 19 18341885321407806921
4073 2 18187367666089363963
439807 62 17916571160073831495
46194498 28 18040715866207811444
508706 21 17603873333956607267
5104073 3 18272092638885159449
59755656 215 17895188862288971715
6695519 79 17694802004394953480
9709674 26 18335144228049367435
9995097 60 18409447028988595881

>  <PUBCHEM_SHAPE_MULTIPOLES>  (1) 
495.76
15.06
3.41
1.13
16.34
0.19
-0.06
-4.21
1.13
-4.64
-0.19
1.15
-0.27
2.84

>  <PUBCHEM_SHAPE_SELFOVERLAP>  (1) 
1090.713

>  <PUBCHEM_SHAPE_VOLUME>  (1) 
264.1

>  <PUBCHEM_COORDINATE_TYPE>  (1) 
2
5
10

$$$$
