34386
     RDKit          3D

 28 31  0  0  0  0  0  0  0  0999 V2000
    1.3199   -0.2126    0.4332 O   0  0  0  0  0  0  0  0  0  0  0  0
    1.1467   -0.1877   -1.8910 O   0  0  0  0  0  0  0  0  0  0  0  0
    3.0856   -3.8517    0.2130 O   0  0  0  0  0  0  0  0  0  0  0  0
    1.2591   -2.6408    0.4027 O   0  0  0  0  0  0  0  0  0  0  0  0
    2.8169    2.0693    0.3274 N   0  0  0  0  0  0  0  0  0  0  0  0
    2.5023   -2.7451    0.2841 N   0  0  0  0  0  0  0  0  0  0  0  0
    3.4297    0.8728    0.2520 C   0  0  0  0  0  0  0  0  0  0  0  0
    4.8297    0.7605    0.1195 C   0  0  0  0  0  0  0  0  0  0  0  0
    2.6808   -0.2997    0.3042 C   0  0  0  0  0  0  0  0  0  0  0  0
   -3.5510    0.1058   -0.1500 C   0  0  0  0  0  0  0  0  0  0  0  0
    3.2835   -1.5577    0.2290 C   0  0  0  0  0  0  0  0  0  0  0  0
   -0.8283   -0.0641   -0.5606 C   0  0  0  0  0  0  0  0  0  0  0  0
    5.4361   -0.5048    0.0437 C   0  0  0  0  0  0  0  0  0  0  0  0
   -4.9790    0.1964    0.0648 C   0  0  0  0  0  0  0  0  0  0  0  0
    4.6628   -1.6608    0.0984 C   0  0  0  0  0  0  0  0  0  0  0  0
   -3.0557   -0.5277   -1.2897 C   0  0  0  0  0  0  0  0  0  0  0  0
   -2.6695    0.6533    0.7821 C   0  0  0  0  0  0  0  0  0  0  0  0
    5.5841    1.9404    0.0670 C   0  0  0  0  0  0  0  0  0  0  0  0
   -1.6790   -0.6135   -1.4974 C   0  0  0  0  0  0  0  0  0  0  0  0
   -1.2928    0.5674    0.5746 C   0  0  0  0  0  0  0  0  0  0  0  0
    0.6377   -0.1571   -0.7806 C   0  0  0  0  0  0  0  0  0  0  0  0
   -5.6904    1.2905   -0.4275 C   0  0  0  0  0  0  0  0  0  0  0  0
   -5.6442   -0.8115    0.7625 C   0  0  0  0  0  0  0  0  0  0  0  0
    4.9553    3.1747    0.1444 C   0  0  0  0  0  0  0  0  0  0  0  0
    3.5812    3.1840    0.2729 C   0  0  0  0  0  0  0  0  0  0  0  0
   -7.0674    1.3765   -0.2221 C   0  0  0  0  0  0  0  0  0  0  0  0
   -7.0213   -0.7254    0.9678 C   0  0  0  0  0  0  0  0  0  0  0  0
   -7.7329    0.3686    0.4755 C   0  0  0  0  0  0  0  0  0  0  0  0
  1  9  1  0
  1 21  1  0
  2 21  2  0
  3  6  1  0
  4  6  2  0
  5  7  2  0
  5 25  1  0
  6 11  1  0
  7  8  1  0
  7  9  1  0
  8 13  1  0
  8 18  2  0
  9 11  2  0
 10 14  1  0
 10 16  2  0
 10 17  1  0
 11 15  1  0
 12 19  2  0
 12 20  1  0
 12 21  1  0
 13 15  2  0
 14 22  2  0
 14 23  1  0
 16 19  1  0
 17 20  2  0
 18 24  1  0
 22 26  1  0
 23 27  2  0
 24 25  2  0
 26 28  2  0
 27 28  1  0
M  CHG  2   3  -1   6   1
M  END
>  <PUBCHEM_COMPOUND_CID>  (1) 
34386

>  <PUBCHEM_CONFORMER_RMSD>  (1) 
0.8

>  <PUBCHEM_CONFORMER_DIVERSEORDER>  (1) 
1
17
15
13
16
8
19
14
2
10
3
11
18
6
7
12
4
5
9

>  <PUBCHEM_MMFF94_PARTIAL_CHARGES>  (1) 
39
1 -0.23
11 0.13
12 0.09
13 -0.15
15 -0.15
16 -0.15
17 -0.15
18 -0.15
19 -0.15
2 -0.57
20 -0.15
21 0.63
22 -0.15
23 -0.15
24 -0.15
25 0.16
26 -0.15
27 -0.15
28 -0.15
29 0.15
3 -0.52
30 0.15
31 0.15
32 0.15
33 0.15
34 0.15
35 0.15
36 0.15
37 0.15
38 0.15
39 0.15
4 -0.52
40 0.15
41 0.15
42 0.15
5 -0.62
6 0.91
7 0.31
9 0.08

>  <PUBCHEM_EFFECTIVE_ROTOR_COUNT>  (1) 
5

>  <PUBCHEM_PHARMACOPHORE_FEATURES>  (1) 
9
1 2 acceptor
1 3 acceptor
1 3 anion
1 4 acceptor
1 5 acceptor
6 10 12 16 17 19 20 rings
6 14 22 23 26 27 28 rings
6 5 7 8 18 24 25 rings
6 7 8 9 11 13 15 rings

>  <PUBCHEM_HEAVY_ATOM_COUNT>  (1) 
28

>  <PUBCHEM_ATOM_DEF_STEREO_COUNT>  (1) 
0

>  <PUBCHEM_ATOM_UDEF_STEREO_COUNT>  (1) 
0

>  <PUBCHEM_BOND_DEF_STEREO_COUNT>  (1) 
0

>  <PUBCHEM_BOND_UDEF_STEREO_COUNT>  (1) 
0

>  <PUBCHEM_ISOTOPIC_ATOM_COUNT>  (1) 
0

>  <PUBCHEM_COMPONENT_COUNT>  (1) 
1

>  <PUBCHEM_CACTVS_TAUTO_COUNT>  (1) 
1

>  <PUBCHEM_CONFORMER_ID>  (1) 
0000865200000001

>  <PUBCHEM_MMFF94_ENERGY>  (1) 
107.6326

>  <PUBCHEM_FEATURE_SELFOVERLAP>  (1) 
45.785

>  <PUBCHEM_SHAPE_FINGERPRINT>  (1) 
10162869 55 18270384075589093743
10165383 225 18187370969805425188
10411042 1 17978509733742539082
10554248 39 17773870910018100645
10595046 47 18342174471380240841
10670039 82 16056616334543566921
10835480 77 18335415743466481965
10906281 52 17418107520370564965
12107183 9 17621604912747299033
12236239 1 18131348630943535821
12516196 113 17458065963141261021
12596602 18 18411703192969193123
12616971 3 18201428190456569084
12730499 353 18334577953791025274
12788726 201 17346606248845813161
13533116 47 18336267847201897363
13782708 43 17531522066665122778
13785724 45 17768255604723468702
13955234 65 18336539439701719714
14341114 176 18411420613458049197
14461889 52 18188211017404188547
14933364 13 18408324389294669049
15183329 4 15482677892152994913
15348495 7 18334579079304344627
15419008 91 17603854625506204189
15475509 35 16516228653864238410
1577012 14 17988357173700260092
16120349 18 18411132538002964373
16990366 60 18046346323584015690
17844677 252 18410860919643895081
19319366 153 18272927237257502882
19427546 62 18335985380335498818
1979834 28 18113619010383293636
20157964 124 18411419509630348697
20505436 4 18059291071508154310
20511986 3 17845639447813212893
21033648 29 17676471857059675764
21049683 271 18187933808037176566
21130935 74 18335427834063229755
21267235 1 18342461388122797934
21344244 78 18128520584348006762
21781055 127 16271663195149187306
21814621 53 17968665904912148849
21859007 373 17459456768320639829
22122407 14 18272662242244575865
22956985 138 14203331134554307256
23081809 10 17704065193118709629
23522609 53 17702964612028863985
23559900 14 18334012804935719753
23569943 247 16735223795979155003
23845131 108 18263081166592210930
239999 70 18271813389087038766
249057 3 18060702784619958198
25147074 1 17917700340776083463
255183 451 17842566150048330190
3178227 256 18334287657516069138
335352 9 18411142451145867964
397830 11 18114752650274617889
4073 2 18114467850708682443
4144715 1 18261120647566246073
4340502 62 18334296478387234867
474 4 18412260675297383968
57527293 21 16806159012405226248
6697151 62 17758084052777537303
8272917 22 18412824686081308278

>  <PUBCHEM_SHAPE_MULTIPOLES>  (1) 
542.79
18.65
2.93
1.02
26.77
0.51
-0.33
-6.06
3.35
-6.26
0.44
0.71
0.13
0.26

>  <PUBCHEM_SHAPE_SELFOVERLAP>  (1) 
1221.969

>  <PUBCHEM_SHAPE_VOLUME>  (1) 
282.1

>  <PUBCHEM_COORDINATE_TYPE>  (1) 
2
5
10

$$$$
