34383
     RDKit          3D

 14 13  0  0  1  0  0  0  0  0999 V2000
   -1.6023    2.1309   -0.0046 Cl  0  0  0  0  0  0  0  0  0  0  0  0
   -1.8730   -0.7593    1.7800 Cl  0  0  0  0  0  0  0  0  0  0  0  0
    1.9539   -0.7612   -1.7072 Cl  0  0  0  0  0  0  0  0  0  0  0  0
   -0.5696    0.5464   -1.7130 F   0  0  0  0  0  0  0  0  0  0  0  0
    1.2881    1.8389   -0.1347 F   0  0  0  0  0  0  0  0  0  0  0  0
    0.5407    0.8048    1.6232 F   0  0  0  0  0  0  0  0  0  0  0  0
   -2.7856   -0.5144   -0.6008 F   0  0  0  0  0  0  0  0  0  0  0  0
   -1.0085   -1.7382   -0.4213 F   0  0  0  0  0  0  0  0  0  0  0  0
    2.8438   -0.2066    0.6361 F   0  0  0  0  0  0  0  0  0  0  0  0
    1.1675   -1.5818    0.5790 F   0  0  0  0  0  0  0  0  0  0  0  0
   -0.7167    0.5997   -0.3545 C   0  0  0  0  0  0  0  0  0  0  0  0
    0.6848    0.6845    0.2699 C   0  0  0  0  0  0  0  0  0  0  0  0
   -1.5885   -0.5947    0.0368 C   0  0  0  0  0  0  0  0  0  0  0  0
    1.6654   -0.4493    0.0111 C   0  0  0  0  0  0  0  0  0  0  0  0
  1 11  1  0
  2 13  1  0
  3 14  1  0
  4 11  1  0
  5 12  1  0
  6 12  1  0
  7 13  1  0
  8 13  1  0
  9 14  1  0
 10 14  1  0
 11 12  1  0
 11 13  1  0
 12 14  1  0
M  END
>  <PUBCHEM_COMPOUND_CID>  (1) 
34383

>  <PUBCHEM_CONFORMER_RMSD>  (1) 
0.6

>  <PUBCHEM_CONFORMER_DIVERSEORDER>  (1) 
1
21
46
22
41
2
33
23
29
39
28
25
31
44
14
24
26
50
8
35
19
7
20
13
42
47
32
3
36
49
11
30
12
18
10
45
6
27
5
34
48
4
40
9
37
16
43
38
15
17

>  <PUBCHEM_MMFF94_PARTIAL_CHARGES>  (1) 
14
1 -0.29
10 -0.34
11 0.63
12 0.68
13 0.97
14 0.97
2 -0.29
3 -0.29
4 -0.34
5 -0.34
6 -0.34
7 -0.34
8 -0.34
9 -0.34

>  <PUBCHEM_EFFECTIVE_ROTOR_COUNT>  (1) 
3

>  <PUBCHEM_PHARMACOPHORE_FEATURES>  (1) 
0

>  <PUBCHEM_HEAVY_ATOM_COUNT>  (1) 
14

>  <PUBCHEM_ATOM_DEF_STEREO_COUNT>  (1) 
0

>  <PUBCHEM_ATOM_UDEF_STEREO_COUNT>  (1) 
1

>  <PUBCHEM_BOND_DEF_STEREO_COUNT>  (1) 
0

>  <PUBCHEM_BOND_UDEF_STEREO_COUNT>  (1) 
0

>  <PUBCHEM_ISOTOPIC_ATOM_COUNT>  (1) 
0

>  <PUBCHEM_COMPONENT_COUNT>  (1) 
1

>  <PUBCHEM_CACTVS_TAUTO_COUNT>  (1) 
1

>  <PUBCHEM_CONFORMER_ID>  (1) 
0000864F00000001

>  <PUBCHEM_MMFF94_ENERGY>  (1) 
11.2335

>  <PUBCHEM_FEATURE_SELFOVERLAP>  (1) 
0

>  <PUBCHEM_SHAPE_FINGERPRINT>  (1) 
12423570 1 9180106185719541821
13024252 1 12468650390901201545
16945 1 18337402594435284603
21040471 1 17977666402994443148
21922407 69 15983961808459403303
2748010 2 18197498415755974542
29004967 10 18335706048193865706
369184 2 18059282167629349426
5084963 1 17560806506793255023
54276843 12 17608692523079192495

>  <PUBCHEM_SHAPE_MULTIPOLES>  (1) 
242.81
3.18
1.76
1.49
0.51
0.49
-0.01
-0.58
-0.08
-0.62
0.07
0.08
-0.18
0.28

>  <PUBCHEM_SHAPE_SELFOVERLAP>  (1) 
470.543

>  <PUBCHEM_SHAPE_VOLUME>  (1) 
150.7

>  <PUBCHEM_COORDINATE_TYPE>  (1) 
2
5
10

$$$$
