34396
     RDKit          3D

 25 27  0  0  0  0  0  0  0  0999 V2000
   -8.1432    0.4144    0.7222 Cl  0  0  0  0  0  0  0  0  0  0  0  0
    0.8663   -0.2680    0.6826 O   0  0  0  0  0  0  0  0  0  0  0  0
    2.5684   -3.8611   -0.0885 O   0  0  0  0  0  0  0  0  0  0  0  0
    0.7930   -2.6848    0.4610 O   0  0  0  0  0  0  0  0  0  0  0  0
    0.3564   -0.0448   -1.5896 O   0  0  0  0  0  0  0  0  0  0  0  0
    2.3409    2.0280    0.5518 N   0  0  0  0  0  0  0  0  0  0  0  0
    2.0056   -2.7690    0.1566 N   0  0  0  0  0  0  0  0  0  0  0  0
    4.2977    0.7577   -0.0518 C   0  0  0  0  0  0  0  0  0  0  0  0
    2.9319    0.8469    0.2900 C   0  0  0  0  0  0  0  0  0  0  0  0
    2.1942   -0.3321    0.3524 C   0  0  0  0  0  0  0  0  0  0  0  0
    2.7752   -1.5747    0.0871 C   0  0  0  0  0  0  0  0  0  0  0  0
    4.8823   -0.4920   -0.3186 C   0  0  0  0  0  0  0  0  0  0  0  0
    4.1210   -1.6551   -0.2487 C   0  0  0  0  0  0  0  0  0  0  0  0
    5.0411    1.9441   -0.1143 C   0  0  0  0  0  0  0  0  0  0  0  0
    4.4347    3.1624    0.1552 C   0  0  0  0  0  0  0  0  0  0  0  0
    3.0936    3.1497    0.4805 C   0  0  0  0  0  0  0  0  0  0  0  0
   -3.8052    0.1695   -0.4169 C   0  0  0  0  0  0  0  0  0  0  0  0
    0.0195   -0.1185   -0.4180 C   0  0  0  0  0  0  0  0  0  0  0  0
   -2.3820    0.0906   -0.7899 C   0  0  0  0  0  0  0  0  0  0  0  0
   -1.3747   -0.0638    0.0810 C   0  0  0  0  0  0  0  0  0  0  0  0
   -4.2123   -0.3214    0.8131 C   0  0  0  0  0  0  0  0  0  0  0  0
   -4.7085    0.7349   -1.3022 C   0  0  0  0  0  0  0  0  0  0  0  0
   -5.5594   -0.2451    1.1671 C   0  0  0  0  0  0  0  0  0  0  0  0
   -6.0555    0.8111   -0.9482 C   0  0  0  0  0  0  0  0  0  0  0  0
   -6.4810    0.3211    0.2864 C   0  0  0  0  0  0  0  0  0  0  0  0
  1 25  1  0
  2 10  1  0
  2 18  1  0
  3  7  1  0
  4  7  2  0
  5 18  2  0
  6  9  2  0
  6 16  1  0
  7 11  1  0
  8  9  1  0
  8 12  1  0
  8 14  2  0
  9 10  1  0
 10 11  2  0
 11 13  1  0
 12 13  2  0
 14 15  1  0
 15 16  2  0
 17 19  1  0
 17 21  2  0
 17 22  1  0
 18 20  1  0
 19 20  2  0
 21 23  1  0
 22 24  2  0
 23 25  2  0
 24 25  1  0
M  CHG  2   3  -1   7   1
M  END
>  <PUBCHEM_COMPOUND_CID>  (1) 
34396

>  <PUBCHEM_CONFORMER_RMSD>  (1) 
0.8

>  <PUBCHEM_CONFORMER_DIVERSEORDER>  (1) 
1
20
11
15
9
18
4
10
6
14
13
2
17
7
12
5
19
16
3
8

>  <PUBCHEM_MMFF94_PARTIAL_CHARGES>  (1) 
35
1 -0.18
10 0.08
11 0.13
12 -0.15
13 -0.15
14 -0.15
15 -0.15
16 0.16
17 0.03
18 0.71
19 -0.18
2 -0.23
20 -0.14
21 -0.15
22 -0.15
23 -0.15
24 -0.15
25 0.18
26 0.15
27 0.15
28 0.15
29 0.15
3 -0.52
30 0.15
31 0.15
32 0.15
33 0.15
34 0.15
35 0.15
36 0.15
4 -0.52
5 -0.57
6 -0.62
7 0.91
9 0.31

>  <PUBCHEM_EFFECTIVE_ROTOR_COUNT>  (1) 
5

>  <PUBCHEM_PHARMACOPHORE_FEATURES>  (1) 
8
1 3 acceptor
1 3 anion
1 4 acceptor
1 5 acceptor
1 6 acceptor
6 17 21 22 23 24 25 rings
6 6 8 9 14 15 16 rings
6 8 9 10 11 12 13 rings

>  <PUBCHEM_HEAVY_ATOM_COUNT>  (1) 
25

>  <PUBCHEM_ATOM_DEF_STEREO_COUNT>  (1) 
0

>  <PUBCHEM_ATOM_UDEF_STEREO_COUNT>  (1) 
0

>  <PUBCHEM_BOND_DEF_STEREO_COUNT>  (1) 
0

>  <PUBCHEM_BOND_UDEF_STEREO_COUNT>  (1) 
1

>  <PUBCHEM_ISOTOPIC_ATOM_COUNT>  (1) 
0

>  <PUBCHEM_COMPONENT_COUNT>  (1) 
1

>  <PUBCHEM_CACTVS_TAUTO_COUNT>  (1) 
1

>  <PUBCHEM_CONFORMER_ID>  (1) 
0000865C00000001

>  <PUBCHEM_MMFF94_ENERGY>  (1) 
87.3504

>  <PUBCHEM_FEATURE_SELFOVERLAP>  (1) 
40.709

>  <PUBCHEM_SHAPE_FINGERPRINT>  (1) 
10 15 17749388217018443121
10165383 225 18187933915321454460
10411042 1 17979074886855960050
10554248 39 17560233593281098829
10595046 47 18343299276181056213
10638233 991 18131914875585785873
10670039 82 15554183505731740697
10693767 8 17987803999968488126
10835480 77 18334287640273123733
11181472 205 17986961735723195497
12107183 9 17622733012041283625
12236239 1 17704070698981939813
12403259 415 18113331999415206373
12596602 18 18272655671287088027
12616971 3 17988635298955686933
12730499 353 18334579044443654050
13009979 54 17415281624852459682
13167372 99 18130793322112032825
13533116 47 18411420571109717547
13631057 29 17984411117411954927
13785724 45 17625269614962731807
13955234 65 18336822009583854474
14341114 176 18408888434317057821
146900 427 18412263947661511025
14933364 13 18409168801556163885
15183329 4 13038919823894990741
15326921 28 15685864634516378608
15475509 35 16515948282615066528
16079462 125 17677038089127396205
16120349 18 18411979162072396301
16991971 28 18122063105610077050
17349148 13 12468631699372516325
17844677 252 18339927017941830669
19319366 153 18272925042423648006
19427546 62 18336829805001977554
1979834 28 18186803603481099764
20157964 124 18411982464258434945
21033648 29 18187922949452575345
21033650 10 14763529121707849363
21049683 271 18188780431816406358
21130935 74 18335146359176157435
21344244 78 18057589993781007842
22122407 14 18130519565497437281
22956985 138 14420070164797641120
23081809 10 17632570549150273573
23522609 53 17703244983288643689
23557571 272 17095803218327847551
23559900 14 18407758144510189289
23845131 108 18263360446634982850
239999 70 18342741784604151958
255183 451 17843130195012677238
3178227 256 18335699430256170970
335352 9 18411702111027759564
397830 11 18042697268218694025
4073 2 18261117417587315995
4340502 62 18335138704399560854
44555599 121 18129668487768711905
474 4 18341047510210287712
495365 180 18340477959050238864
5104073 3 18263074564741784267
621550 34 18114174220462450767
8272917 22 18341895190741389398
9777508 108 18120372326728573226
9995097 60 18261114088797295819
9999458 23 18410855469303795742

>  <PUBCHEM_SHAPE_MULTIPOLES>  (1) 
482.92
17.28
3.02
1
32.08
0.85
-0.16
-6.23
1.6
-6.89
0.37
1.15
-0.1
0.76

>  <PUBCHEM_SHAPE_SELFOVERLAP>  (1) 
1057.368

>  <PUBCHEM_SHAPE_VOLUME>  (1) 
260.7

>  <PUBCHEM_COORDINATE_TYPE>  (1) 
2
5
10

$$$$
