344
     RDKit          3D

 11 11  0  0  1  0  0  0  0  0999 V2000
    1.5998   -0.5303   -1.4769 O   0  0  0  0  0  0  0  0  0  0  0  0
    1.1563    1.8234    1.2725 O   0  0  0  0  0  0  0  0  0  0  0  0
    0.8581   -2.3435    0.5131 O   0  0  0  0  0  0  0  0  0  0  0  0
   -1.7306   -1.6522   -0.0484 O   0  0  0  0  0  0  0  0  0  0  0  0
   -2.5038    0.9384   -0.0154 O   0  0  0  0  0  0  0  0  0  0  0  0
    1.5069   -0.1135   -0.1155 C   0  0  0  0  0  0  0  0  0  0  0  0
    1.1127    1.3616   -0.0751 C   0  0  0  0  0  0  0  0  0  0  0  0
    0.4994   -0.9794    0.6367 C   0  0  0  0  0  0  0  0  0  0  0  0
   -0.2751    1.6096   -0.6633 C   0  0  0  0  0  0  0  0  0  0  0  0
   -0.9024   -0.7690    0.1181 C   0  0  0  0  0  0  0  0  0  0  0  0
   -1.3213    0.6549   -0.1456 C   0  0  0  0  0  0  0  0  0  0  0  0
  1  6  1  0
  2  7  1  0
  3  8  1  0
  4 10  2  0
  5 11  2  0
  6  7  1  0
  6  8  1  0
  7  9  1  0
  8 10  1  0
  9 11  1  0
 10 11  1  0
M  END
>  <PUBCHEM_COMPOUND_CID>  (1) 
344

>  <PUBCHEM_CONFORMER_RMSD>  (1) 
0.4

>  <PUBCHEM_CONFORMER_DIVERSEORDER>  (1) 
2
3
13
18
17
12
5
15
19
11
1
4
14
8
7
9
6
16
10

>  <PUBCHEM_MMFF94_PARTIAL_CHARGES>  (1) 
14
1 -0.68
10 0.51
11 0.51
17 0.4
18 0.4
19 0.4
2 -0.68
3 -0.68
4 -0.57
5 -0.57
6 0.28
7 0.28
8 0.34
9 0.06

>  <PUBCHEM_EFFECTIVE_ROTOR_COUNT>  (1) 
0.8

>  <PUBCHEM_PHARMACOPHORE_FEATURES>  (1) 
9
1 1 acceptor
1 1 donor
1 2 acceptor
1 2 donor
1 3 acceptor
1 3 donor
1 4 acceptor
1 5 acceptor
6 6 7 8 9 10 11 rings

>  <PUBCHEM_HEAVY_ATOM_COUNT>  (1) 
11

>  <PUBCHEM_ATOM_DEF_STEREO_COUNT>  (1) 
0

>  <PUBCHEM_ATOM_UDEF_STEREO_COUNT>  (1) 
3

>  <PUBCHEM_BOND_DEF_STEREO_COUNT>  (1) 
0

>  <PUBCHEM_BOND_UDEF_STEREO_COUNT>  (1) 
0

>  <PUBCHEM_ISOTOPIC_ATOM_COUNT>  (1) 
0

>  <PUBCHEM_COMPONENT_COUNT>  (1) 
1

>  <PUBCHEM_CACTVS_TAUTO_COUNT>  (1) 
21

>  <PUBCHEM_CONFORMER_ID>  (1) 
0000015800000002

>  <PUBCHEM_MMFF94_ENERGY>  (1) 
13.5127

>  <PUBCHEM_FEATURE_SELFOVERLAP>  (1) 
45.693

>  <PUBCHEM_SHAPE_FINGERPRINT>  (1) 
12423570 1 14956343166068605788
137420 1 11513649075312896242
14128692 85 17612316246984604950
16945 1 18189906317941255540
18185500 45 18190741938188508495
21040471 1 18334293141397917581
21922407 69 14274576391124938505
241688 4 18335708290035081177
2748010 2 18263644133329199549
29004967 10 17489317364630445884
5084963 1 18053670457849689384

>  <PUBCHEM_SHAPE_MULTIPOLES>  (1) 
197.03
2.28
2.19
0.96
0.94
0.49
-0.07
-0.24
-0.13
-0.13
0.3
-0.45
-0.12
0.24

>  <PUBCHEM_SHAPE_SELFOVERLAP>  (1) 
404.137

>  <PUBCHEM_SHAPE_VOLUME>  (1) 
112

>  <PUBCHEM_COORDINATE_TYPE>  (1) 
2
5
10

$$$$
