34404
     RDKit          3D

 28 30  0  0  0  0  0  0  0  0999 V2000
    1.1097    0.0557    0.7783 O   0  0  0  0  0  0  0  0  0  0  0  0
    0.4714   -0.1049   -1.4591 O   0  0  0  0  0  0  0  0  0  0  0  0
    2.3292    3.8626    0.1223 O   0  0  0  0  0  0  0  0  0  0  0  0
    0.7457    2.4615    0.7126 O   0  0  0  0  0  0  0  0  0  0  0  0
   -4.9772    2.4197   -0.2122 O   0  0  0  0  0  0  0  0  0  0  0  0
   -2.9040    1.8116   -0.6013 O   0  0  0  0  0  0  0  0  0  0  0  0
    2.8200   -2.0411    0.4060 N   0  0  0  0  0  0  0  0  0  0  0  0
    1.9174    2.6978    0.3349 N   0  0  0  0  0  0  0  0  0  0  0  0
   -4.0985    1.5361   -0.3419 N   0  0  0  0  0  0  0  0  0  0  0  0
    3.2535   -0.7865    0.1802 C   0  0  0  0  0  0  0  0  0  0  0  0
    4.5718   -0.5196   -0.2453 C   0  0  0  0  0  0  0  0  0  0  0  0
    2.3940    0.2929    0.3654 C   0  0  0  0  0  0  0  0  0  0  0  0
    2.8100    1.6074    0.1405 C   0  0  0  0  0  0  0  0  0  0  0  0
    4.9905    0.8025   -0.4715 C   0  0  0  0  0  0  0  0  0  0  0  0
    4.1097    1.8630   -0.2783 C   0  0  0  0  0  0  0  0  0  0  0  0
   -3.5456   -0.8590   -0.3195 C   0  0  0  0  0  0  0  0  0  0  0  0
    5.4374   -1.6058   -0.4318 C   0  0  0  0  0  0  0  0  0  0  0  0
   -1.1653   -0.3831    0.2889 C   0  0  0  0  0  0  0  0  0  0  0  0
   -2.1346   -0.5872   -0.6225 C   0  0  0  0  0  0  0  0  0  0  0  0
   -4.4703    0.1702   -0.1889 C   0  0  0  0  0  0  0  0  0  0  0  0
    0.2001   -0.1327   -0.2666 C   0  0  0  0  0  0  0  0  0  0  0  0
    4.9937   -2.8997   -0.2000 C   0  0  0  0  0  0  0  0  0  0  0  0
   -3.9332   -2.1852   -0.1647 C   0  0  0  0  0  0  0  0  0  0  0  0
    3.6872   -3.0616    0.2142 C   0  0  0  0  0  0  0  0  0  0  0  0
   -1.3484   -0.3397    1.7785 C   0  0  0  0  0  0  0  0  0  0  0  0
   -5.8015   -0.1305    0.1002 C   0  0  0  0  0  0  0  0  0  0  0  0
   -5.2644   -2.4857    0.1245 C   0  0  0  0  0  0  0  0  0  0  0  0
   -6.1984   -1.4585    0.2570 C   0  0  0  0  0  0  0  0  0  0  0  0
  1 12  1  0
  1 21  1  0
  2 21  2  0
  3  8  1  0
  4  8  2  0
  5  9  1  0
  6  9  2  0
  7 10  2  0
  7 24  1  0
  8 13  1  0
  9 20  1  0
 10 11  1  0
 10 12  1  0
 11 14  1  0
 11 17  2  0
 12 13  2  0
 13 15  1  0
 14 15  2  0
 16 19  1  0
 16 20  2  0
 16 23  1  0
 17 22  1  0
 18 19  2  0
 18 21  1  0
 18 25  1  0
 20 26  1  0
 22 24  2  0
 23 27  2  0
 26 28  2  0
 27 28  1  0
M  CHG  4   3  -1   5  -1   8   1   9   1
M  END
>  <PUBCHEM_COMPOUND_CID>  (1) 
34404

>  <PUBCHEM_CONFORMER_RMSD>  (1) 
0.8

>  <PUBCHEM_CONFORMER_DIVERSEORDER>  (1) 
3
35
53
41
45
33
22
34
55
30
49
50
13
16
38
39
32
24
5
42
36
23
31
46
52
28
2
37
19
40
25
15
17
27
26
54
20
10
18
51
43
1
29
4
21
6
14
11
12
48
44
47
9
8
7

>  <PUBCHEM_MMFF94_PARTIAL_CHARGES>  (1) 
37
1 -0.23
10 0.31
12 0.08
13 0.13
14 -0.15
15 -0.15
16 0.03
17 -0.15
18 -0.12
19 -0.18
2 -0.57
20 0.13
21 0.71
22 -0.15
23 -0.15
24 0.16
25 0.14
26 -0.15
27 -0.15
28 -0.15
29 0.15
3 -0.52
30 0.15
31 0.15
32 0.15
33 0.15
34 0.15
35 0.15
39 0.15
4 -0.52
40 0.15
41 0.15
5 -0.52
6 -0.52
7 -0.62
8 0.91
9 0.91

>  <PUBCHEM_EFFECTIVE_ROTOR_COUNT>  (1) 
6

>  <PUBCHEM_PHARMACOPHORE_FEATURES>  (1) 
12
1 2 acceptor
1 25 hydrophobe
1 3 acceptor
1 3 anion
1 4 acceptor
1 5 acceptor
1 5 anion
1 6 acceptor
1 7 acceptor
6 10 11 12 13 14 15 rings
6 16 20 23 26 27 28 rings
6 7 10 11 17 22 24 rings

>  <PUBCHEM_HEAVY_ATOM_COUNT>  (1) 
28

>  <PUBCHEM_ATOM_DEF_STEREO_COUNT>  (1) 
0

>  <PUBCHEM_ATOM_UDEF_STEREO_COUNT>  (1) 
0

>  <PUBCHEM_BOND_DEF_STEREO_COUNT>  (1) 
0

>  <PUBCHEM_BOND_UDEF_STEREO_COUNT>  (1) 
1

>  <PUBCHEM_ISOTOPIC_ATOM_COUNT>  (1) 
0

>  <PUBCHEM_COMPONENT_COUNT>  (1) 
1

>  <PUBCHEM_CACTVS_TAUTO_COUNT>  (1) 
1

>  <PUBCHEM_CONFORMER_ID>  (1) 
0000866400000003

>  <PUBCHEM_MMFF94_ENERGY>  (1) 
109.1162

>  <PUBCHEM_FEATURE_SELFOVERLAP>  (1) 
61.094

>  <PUBCHEM_SHAPE_FINGERPRINT>  (1) 
10411042 1 18267305336211591158
10595046 47 18410012182302574559
10673678 19 17825404126722282140
11405975 8 18413107247573955547
12107183 9 17979074886322314227
12236239 1 17917998286393353987
12516196 113 18412262809796169658
12730499 353 18263932214234721402
12788726 201 17417826040492687483
13009979 54 17774452585664467760
13073987 5 18413671309507279033
13167823 11 18410853269964444423
13533116 47 18410294756717332663
13583140 156 18266750249499075371
13782708 43 17676485021414103746
13785724 45 17984715419691574342
14341114 176 18410577305667625157
14347332 77 18413102879750639799
15183329 4 18409730634184975195
15250474 111 18129085900407382655
15788980 27 17632573859963514207
16992752 21 18122348974707427830
17349148 13 16917068858479113231
17492 89 18410853304503511307
17844677 252 18411425016131654995
17909252 39 18343021094980330888
20645477 70 18408603660937404026
20832881 197 18116712920071224898
21065198 57 18411134766584341911
21279426 13 18336543798544697524
221357 26 18408038507269776645
23522609 53 17914362253766163073
23559900 14 18411129251851595755
23569914 152 17688834611943456239
23569943 247 17315064468211619555
3004659 81 18261394408639359058
3421961 26 18413103966313951842
350125 39 18411139156199018021
4073 2 18114186388073710483
4144715 1 18410020914134663115
4214541 1 18410291385420888143
46194498 28 17822292426751848188
465052 167 18202005417351339350
5104073 3 18343016670773398659
5281201 14 18408885156792540501
57527295 17 17968099660186061594
8272917 22 18411984702005019966
9709674 26 18334859467116824323

>  <PUBCHEM_SHAPE_MULTIPOLES>  (1) 
526.07
14.72
3.48
0.89
9.97
1
-0.13
-5.92
1.32
-2.59
-0.12
0.09
-0.02
0.38

>  <PUBCHEM_SHAPE_SELFOVERLAP>  (1) 
1163.662

>  <PUBCHEM_SHAPE_VOLUME>  (1) 
277.9

>  <PUBCHEM_COORDINATE_TYPE>  (1) 
2
5
10

$$$$
