34409
     RDKit          3D

 26 28  0  0  0  0  0  0  0  0999 V2000
   -5.4447    0.6522   -0.3303 O   0  0  0  0  0  0  0  0  0  0  0  0
    0.7048   -0.1347    0.3732 O   0  0  0  0  0  0  0  0  0  0  0  0
    0.6375   -0.2296   -1.9547 O   0  0  0  0  0  0  0  0  0  0  0  0
    2.2253   -3.8897    0.4329 O   0  0  0  0  0  0  0  0  0  0  0  0
    0.4809   -2.5574    0.4691 O   0  0  0  0  0  0  0  0  0  0  0  0
    2.3550    2.0360    0.2182 N   0  0  0  0  0  0  0  0  0  0  0  0
    1.7197   -2.7426    0.4164 N   0  0  0  0  0  0  0  0  0  0  0  0
    2.8888    0.8001    0.2363 C   0  0  0  0  0  0  0  0  0  0  0  0
   -6.0556    0.1495    0.8571 C   0  0  0  0  0  0  0  0  0  0  0  0
    4.2825    0.5903    0.1777 C   0  0  0  0  0  0  0  0  0  0  0  0
    2.0611   -0.3166    0.3148 C   0  0  0  0  0  0  0  0  0  0  0  0
    2.5807   -1.6134    0.3358 C   0  0  0  0  0  0  0  0  0  0  0  0
   -4.1026    0.4685   -0.4620 C   0  0  0  0  0  0  0  0  0  0  0  0
    4.8053   -0.7139    0.1987 C   0  0  0  0  0  0  0  0  0  0  0  0
   -1.3821    0.0961   -0.7295 C   0  0  0  0  0  0  0  0  0  0  0  0
    3.9545   -1.8126    0.2776 C   0  0  0  0  0  0  0  0  0  0  0  0
    5.1161    1.7140    0.0988 C   0  0  0  0  0  0  0  0  0  0  0  0
   -6.6750    1.3047    1.6289 C   0  0  0  0  0  0  0  0  0  0  0  0
   -7.0898   -0.9009    0.4821 C   0  0  0  0  0  0  0  0  0  0  0  0
   -3.6012   -0.2606   -1.5403 C   0  0  0  0  0  0  0  0  0  0  0  0
   -3.2284    1.0091    0.4811 C   0  0  0  0  0  0  0  0  0  0  0  0
   -2.2256   -0.4489   -1.6754 C   0  0  0  0  0  0  0  0  0  0  0  0
   -1.8530    0.8209    0.3458 C   0  0  0  0  0  0  0  0  0  0  0  0
    0.0826   -0.1037   -0.8734 C   0  0  0  0  0  0  0  0  0  0  0  0
    4.5689    2.9889    0.0799 C   0  0  0  0  0  0  0  0  0  0  0  0
    3.1942    3.0942    0.1413 C   0  0  0  0  0  0  0  0  0  0  0  0
  1  9  1  0
  1 13  1  0
  2 11  1  0
  2 24  1  0
  3 24  2  0
  4  7  1  0
  5  7  2  0
  6  8  2  0
  6 26  1  0
  7 12  1  0
  8 10  1  0
  8 11  1  0
  9 18  1  0
  9 19  1  0
 10 14  1  0
 10 17  2  0
 11 12  2  0
 12 16  1  0
 13 20  2  0
 13 21  1  0
 14 16  2  0
 15 22  2  0
 15 23  1  0
 15 24  1  0
 17 25  1  0
 20 22  1  0
 21 23  2  0
 25 26  2  0
M  CHG  2   4  -1   7   1
M  END
>  <PUBCHEM_COMPOUND_CID>  (1) 
34409

>  <PUBCHEM_CONFORMER_RMSD>  (1) 
0.8

>  <PUBCHEM_CONFORMER_DIVERSEORDER>  (1) 
1
46
33
23
41
40
9
34
43
12
10
31
28
15
5
26
38
30
42
2
36
22
37
3
27
24
21
4
8
32
16
29
20
44
13
7
35
6
14
39
45
25
17
19
11
18

>  <PUBCHEM_MMFF94_PARTIAL_CHARGES>  (1) 
32
1 -0.36
11 0.08
12 0.13
13 0.08
14 -0.15
15 0.09
16 -0.15
17 -0.15
2 -0.23
20 -0.15
21 -0.15
22 -0.15
23 -0.15
24 0.63
25 -0.15
26 0.16
28 0.15
29 0.15
3 -0.57
36 0.15
37 0.15
38 0.15
39 0.15
4 -0.52
40 0.15
41 0.15
42 0.15
5 -0.52
6 -0.62
7 0.91
8 0.31
9 0.28

>  <PUBCHEM_EFFECTIVE_ROTOR_COUNT>  (1) 
6

>  <PUBCHEM_PHARMACOPHORE_FEATURES>  (1) 
10
1 1 acceptor
1 3 acceptor
1 4 acceptor
1 4 anion
1 5 acceptor
1 6 acceptor
3 9 18 19 hydrophobe
6 13 15 20 21 22 23 rings
6 6 8 10 17 25 26 rings
6 8 10 11 12 14 16 rings

>  <PUBCHEM_HEAVY_ATOM_COUNT>  (1) 
26

>  <PUBCHEM_ATOM_DEF_STEREO_COUNT>  (1) 
0

>  <PUBCHEM_ATOM_UDEF_STEREO_COUNT>  (1) 
0

>  <PUBCHEM_BOND_DEF_STEREO_COUNT>  (1) 
0

>  <PUBCHEM_BOND_UDEF_STEREO_COUNT>  (1) 
0

>  <PUBCHEM_ISOTOPIC_ATOM_COUNT>  (1) 
0

>  <PUBCHEM_COMPONENT_COUNT>  (1) 
1

>  <PUBCHEM_CACTVS_TAUTO_COUNT>  (1) 
1

>  <PUBCHEM_CONFORMER_ID>  (1) 
0000866900000001

>  <PUBCHEM_MMFF94_ENERGY>  (1) 
99.1095

>  <PUBCHEM_FEATURE_SELFOVERLAP>  (1) 
50.861

>  <PUBCHEM_SHAPE_FINGERPRINT>  (1) 
10165383 225 18187089498954993668
10411042 1 17977945679829535498
10554248 39 17631445667024573829
10670039 82 15697736830438729201
10835480 77 18261947471804879629
11796584 16 15051732014986177260
12035758 1 18188750818143059280
12107183 9 17621602709692963145
12236239 1 17988923375160071945
12403259 415 17967526861698446469
12596602 18 18343308059399824027
12616971 3 18202274801788974117
12730499 353 18333733524449829466
12788726 201 17274832320297161641
13009979 54 17558266519275249370
13140716 1 18261664974377824778
13533116 47 18335425625711177675
13583140 156 18263353695367795773
13782708 43 17313943004879061107
13785724 45 17696201300514360431
13955234 65 18335697200778014234
14251764 75 18047193239716128028
14341114 176 18410576175806617085
14341114 328 18273212010911164303
146900 427 18411982477000886241
14849402 71 18410292545342282656
15238133 3 17132112420781739081
15475509 35 16443610304532748584
17349148 13 12829485926830201857
17844677 252 18337675218144028045
19319366 153 18271799142421775530
21033648 29 17604132779682020877
21049683 271 18115314363504610070
21197605 99 18263369247292186147
21267235 1 18341615863575458678
21623969 137 18260551134411809435
22079108 93 18334293214385851409
22122407 14 18201452367529696457
22956985 138 14203054057260234296
23522609 53 17845671338499572873
23557571 272 16877943794040849213
23845131 108 18261670492883597970
239999 70 18271530810145483974
25147074 1 17917137382364433919
312425 54 18040444270230569585
3178227 256 18334293137715036322
335352 9 18410012161729785740
3663271 9 18341620309204051883
38570 142 18270416000102746988
397830 11 18041570238799015785
4073 2 18260555550091974627
4340502 62 18335421287393288442
474 4 18410847794060093756
5104073 3 18263913496746237762
57527573 199 17414690341279732584
621550 34 18041273296726856015
633830 44 18271238417524885300
8272917 22 18412825772512816350
9981440 41 16692416879464165072
9999458 23 18409448081535282046

>  <PUBCHEM_SHAPE_MULTIPOLES>  (1) 
495.76
15.02
3.01
1.19
22.69
1.02
-0.4
-5.06
4.57
-5.27
0.77
1.49
0.05
-0.97

>  <PUBCHEM_SHAPE_SELFOVERLAP>  (1) 
1087.692

>  <PUBCHEM_SHAPE_VOLUME>  (1) 
265.4

>  <PUBCHEM_COORDINATE_TYPE>  (1) 
2
5
10

$$$$
