34418
     RDKit          3D

 23 25  0  0  0  0  0  0  0  0999 V2000
   -4.6699    1.9166    2.0778 Cl  0  0  0  0  0  0  0  0  0  0  0  0
   -0.1981   -0.1518    0.4293 O   0  0  0  0  0  0  0  0  0  0  0  0
   -0.4139   -0.3330   -1.8844 O   0  0  0  0  0  0  0  0  0  0  0  0
    1.3569   -3.8919    0.5272 O   0  0  0  0  0  0  0  0  0  0  0  0
   -0.3934   -2.5708    0.6274 O   0  0  0  0  0  0  0  0  0  0  0  0
    1.4191    2.0226    0.0894 N   0  0  0  0  0  0  0  0  0  0  0  0
    0.8410   -2.7496    0.5017 N   0  0  0  0  0  0  0  0  0  0  0  0
    1.9642    0.7918    0.1178 C   0  0  0  0  0  0  0  0  0  0  0  0
    3.3530    0.5891   -0.0229 C   0  0  0  0  0  0  0  0  0  0  0  0
    1.1533   -0.3268    0.2901 C   0  0  0  0  0  0  0  0  0  0  0  0
    1.6849   -1.6183    0.3247 C   0  0  0  0  0  0  0  0  0  0  0  0
    3.8878   -0.7099    0.0117 C   0  0  0  0  0  0  0  0  0  0  0  0
    3.0537   -1.8105    0.1852 C   0  0  0  0  0  0  0  0  0  0  0  0
    4.1697    1.7147   -0.1963 C   0  0  0  0  0  0  0  0  0  0  0  0
   -2.3534    0.0242   -0.5441 C   0  0  0  0  0  0  0  0  0  0  0  0
    3.6110    2.9844   -0.2261 C   0  0  0  0  0  0  0  0  0  0  0  0
   -0.8992   -0.1710   -0.7748 C   0  0  0  0  0  0  0  0  0  0  0  0
    2.2422    3.0827   -0.0799 C   0  0  0  0  0  0  0  0  0  0  0  0
   -2.7615    0.7862    0.5312 C   0  0  0  0  0  0  0  0  0  0  0  0
   -3.2499   -0.5613   -1.4138 C   0  0  0  0  0  0  0  0  0  0  0  0
   -4.1274    0.9706    0.7464 C   0  0  0  0  0  0  0  0  0  0  0  0
   -4.6156   -0.3769   -1.1988 C   0  0  0  0  0  0  0  0  0  0  0  0
   -5.0544    0.3890   -0.1188 C   0  0  0  0  0  0  0  0  0  0  0  0
  1 21  1  0
  2 10  1  0
  2 17  1  0
  3 17  2  0
  4  7  1  0
  5  7  2  0
  6  8  2  0
  6 18  1  0
  7 11  1  0
  8  9  1  0
  8 10  1  0
  9 12  1  0
  9 14  2  0
 10 11  2  0
 11 13  1  0
 12 13  2  0
 14 16  1  0
 15 17  1  0
 15 19  2  0
 15 20  1  0
 16 18  2  0
 19 21  1  0
 20 22  2  0
 21 23  2  0
 22 23  1  0
M  CHG  2   4  -1   7   1
M  END
>  <PUBCHEM_COMPOUND_CID>  (1) 
34418

>  <PUBCHEM_CONFORMER_RMSD>  (1) 
0.6

>  <PUBCHEM_CONFORMER_DIVERSEORDER>  (1) 
1
60
45
32
38
29
51
11
48
61
39
43
49
6
54
12
36
57
40
4
53
62
33
44
47
7
46
37
63
35
25
8
59
10
58
34
26
23
5
42
56
55
18
22
50
16
52
24
27
41
2
21
30
9
28
31
15
14
3
17
13
19
20

>  <PUBCHEM_MMFF94_PARTIAL_CHARGES>  (1) 
31
1 -0.18
10 0.08
11 0.13
12 -0.15
13 -0.15
14 -0.15
15 0.09
16 -0.15
17 0.63
18 0.16
19 -0.15
2 -0.23
20 -0.15
21 0.18
22 -0.15
23 -0.15
24 0.15
25 0.15
26 0.15
27 0.15
28 0.15
29 0.15
3 -0.57
30 0.15
31 0.15
32 0.15
4 -0.52
5 -0.52
6 -0.62
7 0.91
8 0.31

>  <PUBCHEM_EFFECTIVE_ROTOR_COUNT>  (1) 
4

>  <PUBCHEM_PHARMACOPHORE_FEATURES>  (1) 
8
1 3 acceptor
1 4 acceptor
1 4 anion
1 5 acceptor
1 6 acceptor
6 15 19 20 21 22 23 rings
6 6 8 9 14 16 18 rings
6 8 9 10 11 12 13 rings

>  <PUBCHEM_HEAVY_ATOM_COUNT>  (1) 
23

>  <PUBCHEM_ATOM_DEF_STEREO_COUNT>  (1) 
0

>  <PUBCHEM_ATOM_UDEF_STEREO_COUNT>  (1) 
0

>  <PUBCHEM_BOND_DEF_STEREO_COUNT>  (1) 
0

>  <PUBCHEM_BOND_UDEF_STEREO_COUNT>  (1) 
0

>  <PUBCHEM_ISOTOPIC_ATOM_COUNT>  (1) 
0

>  <PUBCHEM_COMPONENT_COUNT>  (1) 
1

>  <PUBCHEM_CACTVS_TAUTO_COUNT>  (1) 
1

>  <PUBCHEM_CONFORMER_ID>  (1) 
0000867200000001

>  <PUBCHEM_MMFF94_ENERGY>  (1) 
83.3425

>  <PUBCHEM_FEATURE_SELFOVERLAP>  (1) 
40.711

>  <PUBCHEM_SHAPE_FINGERPRINT>  (1) 
10165383 225 18114750429571115996
10366900 7 18040440949524373867
10411042 1 17832701275536063466
10906281 52 18340779217205633156
1100329 8 18335976532935374130
12107183 9 17766283068410138905
12236239 1 17989204828593160064
12390115 104 17974019637048820012
12553582 1 18121775028571656994
12633257 1 18260540108914411978
12644460 14 18260543411970862568
12730499 353 18261113001943944043
12788726 201 17773866666701357319
13009979 54 17701822081269815306
13140716 1 18261388992300340882
13583140 156 18117853101356288833
14739800 52 17488443334691697240
14787075 74 18052531368726385687
14790565 3 18336275638362983772
15342168 16 18115306824882308076
15475509 8 17985849055287281654
15842332 3 18130493155479451583
16752209 62 16988266626298312367
17818456 19 17272015259558061649
1813 80 17912367520213521638
18186145 218 18410289220525243108
204376 136 18261109737573418911
20612939 158 18409727370036243124
20739085 24 18260275122555001468
21033648 29 17385997369671300917
21041028 32 17759519972050487370
21503847 285 18271534099852639828
2255824 54 18411132520058145566
23558518 356 17682112528325876426
23598291 2 18201995508687285277
25 1 18337388348556258548
25147074 1 18060414682709117357
3060560 45 18336256899493692934
335352 9 18336545010817277180
350125 39 18046634670259219402
38570 142 18197808624148921676
458136 41 18261398831885753910
474 4 18410290337069157241
5104073 3 18334573585434668019
6034566 193 17608103283436410868
633830 44 18343028791223900621
7097593 13 18054787287281617947
8272917 22 18411419479750044559
84936 182 18129938022039864472
9981440 41 16836256085420351944
9999458 23 18408041801462337310

>  <PUBCHEM_SHAPE_MULTIPOLES>  (1) 
441.76
9.68
3.36
1.22
8.18
0.91
-0.02
-4.8
0.52
-3.68
0.92
1.7
-0.13
-1.89

>  <PUBCHEM_SHAPE_SELFOVERLAP>  (1) 
976.235

>  <PUBCHEM_SHAPE_VOLUME>  (1) 
236.8

>  <PUBCHEM_COORDINATE_TYPE>  (1) 
2
5
10

$$$$
