34416
     RDKit          3D

 12 11  0  0  0  0  0  0  0  0999 V2000
    1.5100    0.1602   -0.0089 O   0  0  0  0  0  0  0  0  0  0  0  0
   -4.4965   -0.6270   -0.0031 O   0  0  0  0  0  0  0  0  0  0  0  0
   -3.4202    1.4135    0.0185 O   0  0  0  0  0  0  0  0  0  0  0  0
    3.8956    0.3688    0.0118 C   0  0  0  0  0  0  0  0  0  0  0  0
    2.7154   -0.5924    0.0201 C   0  0  0  0  0  0  0  0  0  0  0  0
   -0.8841    0.1813   -0.0346 C   0  0  0  0  0  0  0  0  0  0  0  0
    0.3672   -0.6840   -0.0027 C   0  0  0  0  0  0  0  0  0  0  0  0
    5.2281   -0.3748    0.0259 C   0  0  0  0  0  0  0  0  0  0  0  0
   -2.1542   -0.6630   -0.0139 C   0  0  0  0  0  0  0  0  0  0  0  0
    6.4037    0.5876   -0.0259 C   0  0  0  0  0  0  0  0  0  0  0  0
   -3.4018    0.1905    0.0031 C   0  0  0  0  0  0  0  0  0  0  0  0
   -5.7632    0.0393    0.0097 C   0  0  0  0  0  0  0  0  0  0  0  0
  1  5  1  0
  1  7  1  0
  2 11  1  0
  2 12  1  0
  3 11  2  0
  4  5  1  0
  4  8  1  0
  6  7  1  0
  6  9  1  0
  8 10  1  0
  9 11  1  0
M  END
>  <PUBCHEM_COMPOUND_CID>  (1) 
34416

>  <PUBCHEM_CONFORMER_RMSD>  (1) 
0.8

>  <PUBCHEM_CONFORMER_DIVERSEORDER>  (1) 
1
77
152
44
135
5
157
17
113
69
31
43
151
171
27
154
121
22
37
35
106
60
145
63
104
114
116
10
111
109
65
15
81
21
128
94
45
30
54
55
163
14
170
34
147
130
84
52
98
13
115
129
67
132
62
100
105
58
85
97
86
166
50
66
160
136
16
118
76
120
4
131
64
159
18
108
133
137
33
49
167
36
122
141
72
161
51
103
57
24
71
46
140
25
78
123
155
26
38
99
117
142
89
158
92
126
39
42
70
134
112
138
164
107
165
83
11
169
110
12
19
96
53
150
162
153
82
102
75
172
68
95
2
125
61
91
8
41
119
127
6
9
124
146
48
40
101
74
93
149
7
143
90
139
56
47
28
59
148
168
3
156
29
144
23
32
79
73
88
80
20
87

>  <PUBCHEM_MMFF94_PARTIAL_CHARGES>  (1) 
8
1 -0.56
11 0.66
12 0.28
2 -0.43
3 -0.57
5 0.28
7 0.28
9 0.06

>  <PUBCHEM_EFFECTIVE_ROTOR_COUNT>  (1) 
8

>  <PUBCHEM_PHARMACOPHORE_FEATURES>  (1) 
3
1 1 acceptor
1 10 hydrophobe
1 3 acceptor

>  <PUBCHEM_HEAVY_ATOM_COUNT>  (1) 
12

>  <PUBCHEM_ATOM_DEF_STEREO_COUNT>  (1) 
0

>  <PUBCHEM_ATOM_UDEF_STEREO_COUNT>  (1) 
0

>  <PUBCHEM_BOND_DEF_STEREO_COUNT>  (1) 
0

>  <PUBCHEM_BOND_UDEF_STEREO_COUNT>  (1) 
0

>  <PUBCHEM_ISOTOPIC_ATOM_COUNT>  (1) 
0

>  <PUBCHEM_COMPONENT_COUNT>  (1) 
1

>  <PUBCHEM_CACTVS_TAUTO_COUNT>  (1) 
1

>  <PUBCHEM_CONFORMER_ID>  (1) 
0000867000000001

>  <PUBCHEM_MMFF94_ENERGY>  (1) 
8.607

>  <PUBCHEM_FEATURE_SELFOVERLAP>  (1) 
15.223

>  <PUBCHEM_SHAPE_FINGERPRINT>  (1) 
114248 4 17917993875677978234
13533116 47 16950552252416286032
14123238 8 18333731316773244638
1420 363 18260835898964385403
14251718 22 18343020003736747302
14251764 46 16343704331177911430
15501527 16 18341615876239028961
17834072 33 18343018921716043270
17834076 25 18407759240233232306
187816 3 15410897366191659190
20281389 69 18259981574831104668
20605781 2 18343020004269386826
20645477 70 17702953526559926310
20719005 15 18410573985378317442
20767249 13 12324241667617456050
20767249 213 18410575097553262060
23035841 295 10303816479717200228
23402539 116 18409443709269241071
23521765 1 18341895198962065158
26918003 58 12179847199314270404
366044 4 18335138700363270954
42788 4 18410855460138717798
8209 1 18410855468723377654

>  <PUBCHEM_SHAPE_MULTIPOLES>  (1) 
229.35
15.43
0.92
0.59
6.53
0.11
0
1.98
0.04
-0.25
0
0.06
-0.01
-0.02

>  <PUBCHEM_SHAPE_SELFOVERLAP>  (1) 
416.714

>  <PUBCHEM_SHAPE_VOLUME>  (1) 
147.4

>  <PUBCHEM_COORDINATE_TYPE>  (1) 
2
5
10

$$$$
