3441
     RDKit          3D

 26 27  0  0  1  0  0  0  0  0999 V2000
    1.4134    2.5051   -1.4821 S   0  0  0  0  0  0  0  0  0  0  0  0
   -0.2266    3.4072   -0.6460 S   0  0  0  0  0  0  0  0  0  0  0  0
    3.0159    0.0874   -0.4675 O   0  0  0  0  0  0  0  0  0  0  0  0
   -2.3903    3.0137    2.3635 O   0  0  0  0  0  0  0  0  0  0  0  0
   -4.2485   -0.5567    1.0532 O   0  0  0  0  0  0  0  0  0  0  0  0
   -2.6923    0.2546   -0.5023 N   0  0  0  0  0  0  0  0  0  0  0  0
    0.8257   -2.5860   -0.4774 N   0  0  0  0  0  0  0  0  0  0  0  0
   -0.8575   -3.5941    0.9218 N   0  0  0  0  0  0  0  0  0  0  0  0
    0.2362   -0.8796   -2.0152 N   0  0  0  0  0  0  0  0  0  0  0  0
    3.6228    1.3819   -0.3170 C   0  0  0  0  0  0  0  0  0  0  0  0
    4.6124    1.2546    0.8281 C   0  0  0  0  0  0  0  0  0  0  0  0
    5.0861   -0.1670    0.6593 C   0  0  0  0  0  0  0  0  0  0  0  0
    3.8141   -0.8730    0.2404 C   0  0  0  0  0  0  0  0  0  0  0  0
    2.5514    2.4279   -0.0776 C   0  0  0  0  0  0  0  0  0  0  0  0
   -1.0808    1.9653   -0.1045 C   0  0  0  0  0  0  0  0  0  0  0  0
   -1.9685    1.3455   -0.9186 C   0  0  0  0  0  0  0  0  0  0  0  0
   -0.7878    1.5142    1.3173 C   0  0  0  0  0  0  0  0  0  0  0  0
   -2.5337   -0.9940   -1.2336 C   0  0  0  0  0  0  0  0  0  0  0  0
   -1.4647   -1.8629   -0.6366 C   0  0  0  0  0  0  0  0  0  0  0  0
   -2.2831    1.7641   -2.3294 C   0  0  0  0  0  0  0  0  0  0  0  0
   -1.0269    2.6126    2.3520 C   0  0  0  0  0  0  0  0  0  0  0  0
   -0.1379   -1.8071   -1.0117 C   0  0  0  0  0  0  0  0  0  0  0  0
   -3.5514    0.3371    0.5848 C   0  0  0  0  0  0  0  0  0  0  0  0
   -1.7694   -2.7843    0.3445 C   0  0  0  0  0  0  0  0  0  0  0  0
    0.4023   -3.4442    0.4701 C   0  0  0  0  0  0  0  0  0  0  0  0
    1.4390   -4.3222    1.0846 C   0  0  0  0  0  0  0  0  0  0  0  0
  1  2  1  0
  1 14  1  0
  2 15  1  0
  3 10  1  0
  3 13  1  0
  4 21  1  0
  5 23  2  0
  6 16  1  0
  6 18  1  0
  6 23  1  0
  7 22  2  0
  7 25  1  0
  8 24  1  0
  8 25  2  0
  9 22  1  0
 10 11  1  0
 10 14  1  0
 11 12  1  0
 12 13  1  0
 15 16  2  0
 15 17  1  0
 16 20  1  0
 17 21  1  0
 18 19  1  0
 19 22  1  0
 19 24  2  0
 25 26  1  0
M  END
>  <PUBCHEM_COMPOUND_CID>  (1) 
3441

>  <PUBCHEM_CONFORMER_RMSD>  (1) 
1.4

>  <PUBCHEM_CONFORMER_DIVERSEORDER>  (1) 
1
92
57
14
4
24
72
27
119
61
85
93
87
59
46
51
32
45
100
101
77
103
39
35
8
65
94
91
62
41
75
5
23
47
40
84
95
110
70
52
53
30
44
25
102
20
54
26
18
120
63
107
83
80
37
28
97
96
86
98
42
105
55
111
58
109
89
81
2
114
17
33
31
50
117
73
12
21
79
88
11
29
99
43
106
7
16
49
3
78
113
22
38
118
48
67
36
115
90
116
76
34
60
15
71
6
64
68
9
69
112
82
19
13
108
10
74
56
66
104

>  <PUBCHEM_MMFF94_PARTIAL_CHARGES>  (1) 
29
1 -0.23
10 0.28
13 0.28
14 0.23
15 -0.04
16 -0.03
17 0.14
18 0.44
19 -0.14
2 -0.1
20 0.14
21 0.28
22 0.41
23 0.57
24 0.16
25 0.48
26 0.14
3 -0.56
4 -0.68
45 0.06
46 0.15
47 0.4
48 0.4
49 0.4
5 -0.57
6 -0.47
7 -0.62
8 -0.62
9 -0.9

>  <PUBCHEM_EFFECTIVE_ROTOR_COUNT>  (1) 
11

>  <PUBCHEM_PHARMACOPHORE_FEATURES>  (1) 
10
1 3 acceptor
1 4 acceptor
1 4 donor
1 5 acceptor
1 9 donor
3 7 8 25 cation
3 7 9 22 cation
5 1 2 14 15 17 hydrophobe
5 3 10 11 12 13 rings
6 7 8 19 22 24 25 rings

>  <PUBCHEM_HEAVY_ATOM_COUNT>  (1) 
26

>  <PUBCHEM_ATOM_DEF_STEREO_COUNT>  (1) 
0

>  <PUBCHEM_ATOM_UDEF_STEREO_COUNT>  (1) 
1

>  <PUBCHEM_BOND_DEF_STEREO_COUNT>  (1) 
0

>  <PUBCHEM_BOND_UDEF_STEREO_COUNT>  (1) 
1

>  <PUBCHEM_ISOTOPIC_ATOM_COUNT>  (1) 
0

>  <PUBCHEM_COMPONENT_COUNT>  (1) 
1

>  <PUBCHEM_CACTVS_TAUTO_COUNT>  (1) 
3

>  <PUBCHEM_CONFORMER_ID>  (1) 
00000D7100000001

>  <PUBCHEM_MMFF94_ENERGY>  (1) 
74.2579

>  <PUBCHEM_FEATURE_SELFOVERLAP>  (1) 
50.881

>  <PUBCHEM_SHAPE_FINGERPRINT>  (1) 
10708813 3 18267583507809279434
12156800 1 16325493184168857628
12539773 59 18059842970041139886
12633257 1 18336265764147695996
12788726 201 17773058516252968105
13122387 1 18192986029031704662
13140716 1 18339363096671321862
13965767 371 15106613725084484755
14251757 5 18262812881928921742
14787075 74 18342455976226719231
16120349 306 18266443335858092120
19930381 70 18117831105910549543
20600515 1 18267593596175800660
20775438 99 16399107901695324222
23559900 14 16317236126596150966
3027735 51 18193822761153755045
35225 105 17533526597001203954
392239 28 18340504321596990419
469060 322 18188507782258880321
539174 4 17766851532753772160

>  <PUBCHEM_SHAPE_MULTIPOLES>  (1) 
505.23
6.81
5.39
1.89
7.27
3.84
-0.37
-1.1
-1.38
-0.35
-1.35
-1.28
-1.44
-0.73

>  <PUBCHEM_SHAPE_SELFOVERLAP>  (1) 
1007.866

>  <PUBCHEM_SHAPE_VOLUME>  (1) 
302.1

>  <PUBCHEM_COORDINATE_TYPE>  (1) 
2
5
10

$$$$
