34415
     RDKit          3D

  9  8  0  0  0  0  0  0  0  0999 V2000
   -3.4390    0.4518    0.0003 O   0  0  0  0  0  0  0  0  0  0  0  0
    2.8306   -1.3357   -0.0028 O   0  0  0  0  0  0  0  0  0  0  0  0
    0.2515   -0.2521    0.0008 C   0  0  0  0  0  0  0  0  0  0  0  0
   -1.0464    0.5514   -0.0174 C   0  0  0  0  0  0  0  0  0  0  0  0
    1.4726    0.6647    0.0228 C   0  0  0  0  0  0  0  0  0  0  0  0
   -2.2691   -0.3550    0.0035 C   0  0  0  0  0  0  0  0  0  0  0  0
    2.7803   -0.1067    0.0032 C   0  0  0  0  0  0  0  0  0  0  0  0
    4.0387    0.7219   -0.0106 C   0  0  0  0  0  0  0  0  0  0  0  0
   -4.6191   -0.3403    0.0002 C   0  0  0  0  0  0  0  0  0  0  0  0
  1  6  1  0
  1  9  1  0
  2  7  2  0
  3  4  1  0
  3  5  1  0
  4  6  1  0
  5  7  1  0
  7  8  1  0
M  END
>  <PUBCHEM_COMPOUND_CID>  (1) 
34415

>  <PUBCHEM_CONFORMER_RMSD>  (1) 
0.6

>  <PUBCHEM_CONFORMER_DIVERSEORDER>  (1) 
1
100
35
85
11
91
54
67
101
8
59
90
9
28
74
64
44
4
99
47
102
53
20
77
34
89
62
88
38
26
5
24
78
81
73
75
2
22
55
63
49
23
61
32
43
79
56
33
82
95
76
17
86
3
29
65
93
66
31
36
70
16
71
80
39
25
51
97
57
94
69
21
13
68
50
42
83
14
48
98
52
92
30
19
41
15
18
40
7
6
96
87
12
27
45
58
37
10
72
46
84
60

>  <PUBCHEM_MMFF94_PARTIAL_CHARGES>  (1) 
7
1 -0.56
2 -0.57
5 0.06
6 0.28
7 0.45
8 0.06
9 0.28

>  <PUBCHEM_EFFECTIVE_ROTOR_COUNT>  (1) 
5

>  <PUBCHEM_PHARMACOPHORE_FEATURES>  (1) 
2
1 1 acceptor
1 2 acceptor

>  <PUBCHEM_HEAVY_ATOM_COUNT>  (1) 
9

>  <PUBCHEM_ATOM_DEF_STEREO_COUNT>  (1) 
0

>  <PUBCHEM_ATOM_UDEF_STEREO_COUNT>  (1) 
0

>  <PUBCHEM_BOND_DEF_STEREO_COUNT>  (1) 
0

>  <PUBCHEM_BOND_UDEF_STEREO_COUNT>  (1) 
0

>  <PUBCHEM_ISOTOPIC_ATOM_COUNT>  (1) 
0

>  <PUBCHEM_COMPONENT_COUNT>  (1) 
1

>  <PUBCHEM_CACTVS_TAUTO_COUNT>  (1) 
3

>  <PUBCHEM_CONFORMER_ID>  (1) 
0000866F00000001

>  <PUBCHEM_MMFF94_ENERGY>  (1) 
8.46

>  <PUBCHEM_FEATURE_SELFOVERLAP>  (1) 
10.149

>  <PUBCHEM_SHAPE_FINGERPRINT>  (1) 
11062470 55 18413671318023301929
12932764 1 17203313499387940748
14123238 8 18259984898607926813
14325111 11 18410575071783458273
17834076 25 18334577962423105732
18342897 14 17775570836129288185
190213 19 17603307050817783197
20279233 1 17821453464708854002
20645477 70 18338515240268633502
20719005 15 18410575097553255554
21293036 1 17675925404080477325
22485316 2 18410289220615017583
23402539 116 12179838437945048515

>  <PUBCHEM_SHAPE_MULTIPOLES>  (1) 
173.48
8.67
0.95
0.6
4.48
0.15
0
0.1
-0.01
-0.56
0
-0.01
-0.01
0

>  <PUBCHEM_SHAPE_SELFOVERLAP>  (1) 
310.229

>  <PUBCHEM_SHAPE_VOLUME>  (1) 
113.1

>  <PUBCHEM_COORDINATE_TYPE>  (1) 
2
5
10

$$$$
