34414
     RDKit          3D

 26 28  0  0  0  0  0  0  0  0999 V2000
    0.3678    0.0560   -0.6171 O   0  0  0  0  0  0  0  0  0  0  0  0
   -2.4604   -1.3105    2.0480 O   0  0  0  0  0  0  0  0  0  0  0  0
   -5.7965    0.9532   -0.4914 O   0  0  0  0  0  0  0  0  0  0  0  0
    0.0518   -0.3638    1.6538 O   0  0  0  0  0  0  0  0  0  0  0  0
    1.8333   -3.6931   -1.0774 O   0  0  0  0  0  0  0  0  0  0  0  0
    0.1217   -2.3186   -1.0960 O   0  0  0  0  0  0  0  0  0  0  0  0
    2.0218    2.1304    0.0312 N   0  0  0  0  0  0  0  0  0  0  0  0
    1.3450   -2.5463   -0.9431 N   0  0  0  0  0  0  0  0  0  0  0  0
    2.5372    0.8951   -0.1152 C   0  0  0  0  0  0  0  0  0  0  0  0
    1.7074   -0.1728   -0.4457 C   0  0  0  0  0  0  0  0  0  0  0  0
    3.9134    0.6374    0.0571 C   0  0  0  0  0  0  0  0  0  0  0  0
    2.2079   -1.4673   -0.6054 C   0  0  0  0  0  0  0  0  0  0  0  0
    4.4172   -0.6646   -0.1036 C   0  0  0  0  0  0  0  0  0  0  0  0
   -1.8220    0.1837    0.2845 C   0  0  0  0  0  0  0  0  0  0  0  0
    3.5645   -1.7138   -0.4343 C   0  0  0  0  0  0  0  0  0  0  0  0
    4.7492    1.7120    0.3898 C   0  0  0  0  0  0  0  0  0  0  0  0
   -2.7857   -0.4446    1.0471 C   0  0  0  0  0  0  0  0  0  0  0  0
   -0.3841   -0.0786    0.5484 C   0  0  0  0  0  0  0  0  0  0  0  0
   -2.1475    1.0622   -0.7302 C   0  0  0  0  0  0  0  0  0  0  0  0
   -4.1309   -0.1839    0.7848 C   0  0  0  0  0  0  0  0  0  0  0  0
   -4.4841    0.6995   -0.2351 C   0  0  0  0  0  0  0  0  0  0  0  0
    4.2211    2.9859    0.5414 C   0  0  0  0  0  0  0  0  0  0  0  0
   -3.4924    1.3226   -0.9928 C   0  0  0  0  0  0  0  0  0  0  0  0
    2.8626    3.1402    0.3527 C   0  0  0  0  0  0  0  0  0  0  0  0
   -2.3311   -2.6866    1.6970 C   0  0  0  0  0  0  0  0  0  0  0  0
   -6.0871    1.8662   -1.5486 C   0  0  0  0  0  0  0  0  0  0  0  0
  1 10  1  0
  1 18  1  0
  2 17  1  0
  2 25  1  0
  3 21  1  0
  3 26  1  0
  4 18  2  0
  5  8  1  0
  6  8  2  0
  7  9  2  0
  7 24  1  0
  8 12  1  0
  9 10  1  0
  9 11  1  0
 10 12  2  0
 11 13  1  0
 11 16  2  0
 12 15  1  0
 13 15  2  0
 14 17  2  0
 14 18  1  0
 14 19  1  0
 16 22  1  0
 17 20  1  0
 19 23  2  0
 20 21  2  0
 21 23  1  0
 22 24  2  0
M  CHG  2   5  -1   8   1
M  END
>  <PUBCHEM_COMPOUND_CID>  (1) 
34414

>  <PUBCHEM_CONFORMER_RMSD>  (1) 
0.8

>  <PUBCHEM_CONFORMER_DIVERSEORDER>  (1) 
2
49
56
26
19
53
42
15
39
54
48
45
36
28
29
5
31
41
35
43
20
25
21
47
52
27
40
24
1
55
34
11
44
23
3
14
46
51
22
32
33
4
17
50
6
37
18
16
7
30
9
10
38
8
12
13

>  <PUBCHEM_MMFF94_PARTIAL_CHARGES>  (1) 
33
1 -0.23
10 0.08
12 0.13
13 -0.15
14 0.09
15 -0.15
16 -0.15
17 0.08
18 0.63
19 -0.15
2 -0.36
20 -0.15
21 0.08
22 -0.15
23 -0.15
24 0.16
25 0.28
26 0.28
27 0.15
28 0.15
29 0.15
3 -0.36
30 0.15
31 0.15
32 0.15
33 0.15
34 0.15
4 -0.57
5 -0.52
6 -0.52
7 -0.62
8 0.91
9 0.31

>  <PUBCHEM_EFFECTIVE_ROTOR_COUNT>  (1) 
6

>  <PUBCHEM_PHARMACOPHORE_FEATURES>  (1) 
10
1 2 acceptor
1 3 acceptor
1 4 acceptor
1 5 acceptor
1 5 anion
1 6 acceptor
1 7 acceptor
6 14 17 19 20 21 23 rings
6 7 9 11 16 22 24 rings
6 9 10 11 12 13 15 rings

>  <PUBCHEM_HEAVY_ATOM_COUNT>  (1) 
26

>  <PUBCHEM_ATOM_DEF_STEREO_COUNT>  (1) 
0

>  <PUBCHEM_ATOM_UDEF_STEREO_COUNT>  (1) 
0

>  <PUBCHEM_BOND_DEF_STEREO_COUNT>  (1) 
0

>  <PUBCHEM_BOND_UDEF_STEREO_COUNT>  (1) 
0

>  <PUBCHEM_ISOTOPIC_ATOM_COUNT>  (1) 
0

>  <PUBCHEM_COMPONENT_COUNT>  (1) 
1

>  <PUBCHEM_CACTVS_TAUTO_COUNT>  (1) 
1

>  <PUBCHEM_CONFORMER_ID>  (1) 
0000866E00000002

>  <PUBCHEM_MMFF94_ENERGY>  (1) 
114.3182

>  <PUBCHEM_FEATURE_SELFOVERLAP>  (1) 
50.869

>  <PUBCHEM_SHAPE_FINGERPRINT>  (1) 
10366900 7 18337403633885793020
10411042 1 17765998299167930942
10693767 8 17702950206645165614
10871710 139 16462783970102238660
11045977 3 18333454239911642842
11069576 57 17273690958249642567
11370993 70 18411702118520714402
12236239 1 16845290505855554093
12403259 118 17971186178288237696
12403259 327 17313095393636959944
12403259 415 18334586770921092393
12730499 353 18411704287742767509
12788726 201 16752988433397879870
13402501 40 18261390022823596469
13583140 156 18334298686380343866
13911987 19 18129389357026349848
140371 6 18261683622704513045
15375358 24 18335706026835255427
17138139 8 16914785237558941559
17980427 23 17459752720777517356
1813 80 17200250135908690478
20157964 124 18342171151138594549
204376 136 18200599214893071974
20600515 1 17023184976260192421
20645477 56 18114184138117105705
20645477 70 18343022164210766454
20681677 76 18337396036204736194
21033648 144 18408885165604423909
21033648 29 17821728313052660933
21033650 10 13973149590881368906
23557571 272 17895491305316958283
23559900 14 18410576158552687186
335352 9 18343018905269644364
3380486 145 18121237612804887955
4015057 19 18343017796508685937
474 4 18272932734715057544
495365 180 18343291587572717024
5104073 3 18334019393325777689
8272917 22 18273217460834370588
9709674 26 18409457964028631123

>  <PUBCHEM_SHAPE_MULTIPOLES>  (1) 
489.89
11.23
3.38
1.34
8.75
0.92
0.31
-7.2
-1.53
-2.73
-0.33
1.23
0.61
3.01

>  <PUBCHEM_SHAPE_SELFOVERLAP>  (1) 
1083.133

>  <PUBCHEM_SHAPE_VOLUME>  (1) 
260

>  <PUBCHEM_COORDINATE_TYPE>  (1) 
2
5
10

$$$$
