34419
     RDKit          3D

 23 25  0  0  0  0  0  0  0  0999 V2000
   -3.2731   -1.7460    1.3838 Cl  0  0  0  0  0  0  0  0  0  0  0  0
   -0.2283    0.0340   -0.6111 O   0  0  0  0  0  0  0  0  0  0  0  0
   -0.6426    0.0067    1.6824 O   0  0  0  0  0  0  0  0  0  0  0  0
    0.8032   -3.8805   -0.4427 O   0  0  0  0  0  0  0  0  0  0  0  0
   -0.7367   -2.3439   -0.7369 O   0  0  0  0  0  0  0  0  0  0  0  0
    1.6397    1.9869   -0.2161 N   0  0  0  0  0  0  0  0  0  0  0  0
    0.4481   -2.6796   -0.5023 N   0  0  0  0  0  0  0  0  0  0  0  0
    2.0118    0.6943   -0.1542 C   0  0  0  0  0  0  0  0  0  0  0  0
    3.3445    0.3151    0.1103 C   0  0  0  0  0  0  0  0  0  0  0  0
    1.0715   -0.3129   -0.3534 C   0  0  0  0  0  0  0  0  0  0  0  0
    1.4224   -1.6640   -0.2963 C   0  0  0  0  0  0  0  0  0  0  0  0
    3.6975   -1.0438    0.1677 C   0  0  0  0  0  0  0  0  0  0  0  0
    2.7369   -2.0303   -0.0354 C   0  0  0  0  0  0  0  0  0  0  0  0
    4.2913    1.3286    0.3110 C   0  0  0  0  0  0  0  0  0  0  0  0
   -2.4085    0.5413    0.1720 C   0  0  0  0  0  0  0  0  0  0  0  0
    3.9110    2.6614    0.2479 C   0  0  0  0  0  0  0  0  0  0  0  0
   -1.0171    0.1648    0.5302 C   0  0  0  0  0  0  0  0  0  0  0  0
    2.5842    2.9345   -0.0164 C   0  0  0  0  0  0  0  0  0  0  0  0
   -3.4748   -0.2635    0.5207 C   0  0  0  0  0  0  0  0  0  0  0  0
   -2.5813    1.7258   -0.5192 C   0  0  0  0  0  0  0  0  0  0  0  0
   -4.7649    0.1302    0.1652 C   0  0  0  0  0  0  0  0  0  0  0  0
   -3.8715    2.1194   -0.8748 C   0  0  0  0  0  0  0  0  0  0  0  0
   -4.9632    1.3216   -0.5326 C   0  0  0  0  0  0  0  0  0  0  0  0
  1 19  1  0
  2 10  1  0
  2 17  1  0
  3 17  2  0
  4  7  1  0
  5  7  2  0
  6  8  2  0
  6 18  1  0
  7 11  1  0
  8  9  1  0
  8 10  1  0
  9 12  1  0
  9 14  2  0
 10 11  2  0
 11 13  1  0
 12 13  2  0
 14 16  1  0
 15 17  1  0
 15 19  2  0
 15 20  1  0
 16 18  2  0
 19 21  1  0
 20 22  2  0
 21 23  2  0
 22 23  1  0
M  CHG  2   4  -1   7   1
M  END
>  <PUBCHEM_COMPOUND_CID>  (1) 
34419

>  <PUBCHEM_CONFORMER_RMSD>  (1) 
0.6

>  <PUBCHEM_CONFORMER_DIVERSEORDER>  (1) 
1
16
19
29
23
30
22
7
18
11
13
8
15
21
24
14
12
2
6
10
5
9
27
17
28
20
4
3
25
26

>  <PUBCHEM_MMFF94_PARTIAL_CHARGES>  (1) 
31
1 -0.18
10 0.08
11 0.13
12 -0.15
13 -0.15
14 -0.15
15 0.09
16 -0.15
17 0.63
18 0.16
19 0.18
2 -0.23
20 -0.15
21 -0.15
22 -0.15
23 -0.15
24 0.15
25 0.15
26 0.15
27 0.15
28 0.15
29 0.15
3 -0.57
30 0.15
31 0.15
32 0.15
4 -0.52
5 -0.52
6 -0.62
7 0.91
8 0.31

>  <PUBCHEM_EFFECTIVE_ROTOR_COUNT>  (1) 
4

>  <PUBCHEM_PHARMACOPHORE_FEATURES>  (1) 
8
1 3 acceptor
1 4 acceptor
1 4 anion
1 5 acceptor
1 6 acceptor
6 15 19 20 21 22 23 rings
6 6 8 9 14 16 18 rings
6 8 9 10 11 12 13 rings

>  <PUBCHEM_HEAVY_ATOM_COUNT>  (1) 
23

>  <PUBCHEM_ATOM_DEF_STEREO_COUNT>  (1) 
0

>  <PUBCHEM_ATOM_UDEF_STEREO_COUNT>  (1) 
0

>  <PUBCHEM_BOND_DEF_STEREO_COUNT>  (1) 
0

>  <PUBCHEM_BOND_UDEF_STEREO_COUNT>  (1) 
0

>  <PUBCHEM_ISOTOPIC_ATOM_COUNT>  (1) 
0

>  <PUBCHEM_COMPONENT_COUNT>  (1) 
1

>  <PUBCHEM_CACTVS_TAUTO_COUNT>  (1) 
1

>  <PUBCHEM_CONFORMER_ID>  (1) 
0000867300000001

>  <PUBCHEM_MMFF94_ENERGY>  (1) 
86.08

>  <PUBCHEM_FEATURE_SELFOVERLAP>  (1) 
40.711

>  <PUBCHEM_SHAPE_FINGERPRINT>  (1) 
10411042 1 17547572582741432439
10608611 8 18335139769741328333
10646746 165 18040154002590802393
10871710 139 16821946010077639124
1100329 8 18412539916975886490
11370993 70 18410008849328798995
12011746 2 18338242574828366638
12236239 1 17418088784942751396
12403259 327 16877937269928030640
12403259 415 18409459101851871848
12553582 1 17548435712380407450
12592029 89 18411982433877334771
12633257 1 18044372729927482841
12730499 353 18410299090687312153
13140716 1 18409732850224342362
13583140 156 18260271832361925291
138480 1 17979636736674819822
14026960 21 18336552723518165905
14790565 3 17901956558527838636
18186145 218 18200888317399455880
18681886 176 18270953566772899690
200 152 18059570248777503161
20157964 124 18339354176842250797
204376 136 18342178907332293255
20645477 56 18114185190595278085
20645477 70 18339922619393886839
20681677 76 18335423473694984153
20715895 44 18267016168394637025
21033648 144 18260257547575076965
21033648 29 18270672190390948840
21065198 57 18334295344758312473
21709351 56 18341041922231008719
22393880 68 18412270518755908343
23227448 37 18341329010650782319
23557571 272 17749968746800092755
23558518 356 17830729121500962704
23559900 14 18338513015374957683
3060560 45 18342739568558919038
335352 9 18412261745124036156
350125 39 18338804523600837550
474 4 18341891874636233601
495365 180 18341880879525575136
5104073 3 18334298639320125617
6443956 14 18122066394984144454
7364860 26 18339080380459605692
7808743 9 17977665643466389224
8272917 22 18270965635319440189
9709674 26 18337114454313181599
9925002 15 17328595423654058607

>  <PUBCHEM_SHAPE_MULTIPOLES>  (1) 
441.76
9.11
3.49
0.94
4.92
1.34
0.22
-4.82
0.41
-2.08
-0.6
0.57
0.17
1.29

>  <PUBCHEM_SHAPE_SELFOVERLAP>  (1) 
976.935

>  <PUBCHEM_SHAPE_VOLUME>  (1) 
236

>  <PUBCHEM_COORDINATE_TYPE>  (1) 
2
5
10

$$$$
