34413
     RDKit          3D

 30 33  0  0  0  0  0  0  0  0999 V2000
    2.1264    0.0012   -0.7859 O   0  0  0  0  0  0  0  0  0  0  0  0
   -3.7423   -0.2706   -0.0088 O   0  0  0  0  0  0  0  0  0  0  0  0
    1.2126   -0.0052    1.3587 O   0  0  0  0  0  0  0  0  0  0  0  0
    2.9715    3.9429   -0.3948 O   0  0  0  0  0  0  0  0  0  0  0  0
    1.5841    2.3563   -1.0239 O   0  0  0  0  0  0  0  0  0  0  0  0
    3.9227   -1.8941    0.0159 N   0  0  0  0  0  0  0  0  0  0  0  0
    2.6729    2.7338   -0.5320 N   0  0  0  0  0  0  0  0  0  0  0  0
    4.2292   -0.5907    0.1582 C   0  0  0  0  0  0  0  0  0  0  0  0
    5.4569   -0.1709    0.7118 C   0  0  0  0  0  0  0  0  0  0  0  0
    3.3244    0.3872   -0.2456 C   0  0  0  0  0  0  0  0  0  0  0  0
    3.6094    1.7485   -0.1129 C   0  0  0  0  0  0  0  0  0  0  0  0
    5.7439    1.1983    0.8454 C   0  0  0  0  0  0  0  0  0  0  0  0
    4.8206    2.1549    0.4332 C   0  0  0  0  0  0  0  0  0  0  0  0
   -0.1544   -0.5799   -0.5080 C   0  0  0  0  0  0  0  0  0  0  0  0
    6.3682   -1.1549    1.1184 C   0  0  0  0  0  0  0  0  0  0  0  0
   -2.5434   -0.6131   -0.5546 C   0  0  0  0  0  0  0  0  0  0  0  0
   -4.9157   -0.7048   -0.6947 C   0  0  0  0  0  0  0  0  0  0  0  0
   -1.3571   -0.2205    0.0651 C   0  0  0  0  0  0  0  0  0  0  0  0
   -6.1252   -0.2056    0.0397 C   0  0  0  0  0  0  0  0  0  0  0  0
    1.1086   -0.1623    0.1515 C   0  0  0  0  0  0  0  0  0  0  0  0
   -0.0864   -1.3151   -1.6739 C   0  0  0  0  0  0  0  0  0  0  0  0
    6.0552   -2.4987    0.9731 C   0  0  0  0  0  0  0  0  0  0  0  0
   -2.5012   -1.3568   -1.7339 C   0  0  0  0  0  0  0  0  0  0  0  0
    4.8299   -2.8123    0.4208 C   0  0  0  0  0  0  0  0  0  0  0  0
   -1.2726   -1.7078   -2.2936 C   0  0  0  0  0  0  0  0  0  0  0  0
   -6.6946   -0.9863    1.0395 C   0  0  0  0  0  0  0  0  0  0  0  0
   -6.6661    1.0330   -0.2865 C   0  0  0  0  0  0  0  0  0  0  0  0
   -7.8192   -0.5225    1.7219 C   0  0  0  0  0  0  0  0  0  0  0  0
   -7.7908    1.4969    0.3960 C   0  0  0  0  0  0  0  0  0  0  0  0
   -8.3673    0.7192    1.4002 C   0  0  0  0  0  0  0  0  0  0  0  0
  1 10  1  0
  1 20  1  0
  2 16  1  0
  2 17  1  0
  3 20  2  0
  4  7  1  0
  5  7  2  0
  6  8  2  0
  6 24  1  0
  7 11  1  0
  8  9  1  0
  8 10  1  0
  9 12  1  0
  9 15  2  0
 10 11  2  0
 11 13  1  0
 12 13  2  0
 14 18  2  0
 14 20  1  0
 14 21  1  0
 15 22  1  0
 16 18  1  0
 16 23  2  0
 17 19  1  0
 19 26  2  0
 19 27  1  0
 21 25  2  0
 22 24  2  0
 23 25  1  0
 26 28  1  0
 27 29  2  0
 28 30  2  0
 29 30  1  0
M  CHG  2   4  -1   7   1
M  END
>  <PUBCHEM_COMPOUND_CID>  (1) 
34413

>  <PUBCHEM_CONFORMER_RMSD>  (1) 
0.8

>  <PUBCHEM_CONFORMER_DIVERSEORDER>  (1) 
3
366
87
381
340
410
121
399
224
391
385
288
358
351
337
416
345
233
421
403
392
136
293
388
173
338
390
360
138
281
205
246
103
142
23
25
318
125
405
412
326
297
334
34
373
272
374
150
201
409
372
383
423
95
398
336
371
367
266
22
394
165
348
432
347
116
181
262
365
386
346
352
415
407
38
375
69
249
354
239
363
315
431
329
36
417
253
29
134
353
393
396
180
411
400
86
309
15
328
8
356
414
425
139
364
397
424
311
109
313
218
133
369
65
305
317
258
287
342
5
277
426
298
102
359
254
413
419
28
41
355
291
335
267
89
303
64
137
323
429
350
322
148
422
190
379
312
299
330
226
384
130
6
235
327
292
283
314
310
126
377
430
349
382
428
1
361
194
221
26
198
115
408
427
250
50
294
296
2
247
182
389
159
368
286
179
274
70
261
252
40
21
124
402
273
265
33
275
68
143
96
387
66
99
120
67
49
55
406
82
279
333
331
174
77
418
104
145
128
135
264
132
61
278
234
119
222
170
4
154
101
117
152
270
17
242
7
188
376
108
257
58
243
71
11
289
106
184
98
81
19
24
114
27
105
332
88
94
122
12
343
308
208
178
92
256
301
163
75
195
76
300
177
141
16
236
216
39
59
263
13
48
62
203
341
192
320
370
72
63
146
271
31
54
321
9
43
147
183
46
211
83
51
185
113
240
127
90
57
255
47
164
14
35
118
80
285
420
237
37
225
220
52
100
259
187
307
193
123
339
248
319
213
78
161
166
111
209
304
112
56
344
241
380
295
84
378
162
316
306
97
160
284
20
155
231
186
206
238
157
176
229
169
401
280
276
251
357
74
171
91
60
223
110
44
395
268
230
153
73
302
210
42
158
149
212
107
10
269
144
53
260
282
156
217
244
290
79
325
362
85
196
175
189
30
168
199
93
18
404
131
202
219
215
167
245
204
151
324
140
191
214
197
232
45
172
207
200
228
32
227
129

>  <PUBCHEM_MMFF94_PARTIAL_CHARGES>  (1) 
43
1 -0.23
10 0.08
11 0.13
12 -0.15
13 -0.15
14 0.09
15 -0.15
16 0.08
17 0.42
18 -0.15
19 -0.14
2 -0.36
20 0.63
21 -0.15
22 -0.15
23 -0.15
24 0.16
25 -0.15
26 -0.15
27 -0.15
28 -0.15
29 -0.15
3 -0.57
30 -0.15
31 0.15
32 0.15
33 0.15
36 0.15
37 0.15
38 0.15
39 0.15
4 -0.52
40 0.15
41 0.15
42 0.15
43 0.15
44 0.15
45 0.15
46 0.15
5 -0.52
6 -0.62
7 0.91
8 0.31

>  <PUBCHEM_EFFECTIVE_ROTOR_COUNT>  (1) 
7

>  <PUBCHEM_PHARMACOPHORE_FEATURES>  (1) 
10
1 2 acceptor
1 3 acceptor
1 4 acceptor
1 4 anion
1 5 acceptor
1 6 acceptor
6 14 16 18 21 23 25 rings
6 19 26 27 28 29 30 rings
6 6 8 9 15 22 24 rings
6 8 9 10 11 12 13 rings

>  <PUBCHEM_HEAVY_ATOM_COUNT>  (1) 
30

>  <PUBCHEM_ATOM_DEF_STEREO_COUNT>  (1) 
0

>  <PUBCHEM_ATOM_UDEF_STEREO_COUNT>  (1) 
0

>  <PUBCHEM_BOND_DEF_STEREO_COUNT>  (1) 
0

>  <PUBCHEM_BOND_UDEF_STEREO_COUNT>  (1) 
0

>  <PUBCHEM_ISOTOPIC_ATOM_COUNT>  (1) 
0

>  <PUBCHEM_COMPONENT_COUNT>  (1) 
1

>  <PUBCHEM_CACTVS_TAUTO_COUNT>  (1) 
1

>  <PUBCHEM_CONFORMER_ID>  (1) 
0000866D00000003

>  <PUBCHEM_MMFF94_ENERGY>  (1) 
113.4973

>  <PUBCHEM_FEATURE_SELFOVERLAP>  (1) 
50.861

>  <PUBCHEM_SHAPE_FINGERPRINT>  (1) 
10 15 18343026601708581043
10554248 39 17774997969043542621
10692045 39 18260551121711685919
10939801 23 18201157749589289760
11408170 132 8574441885762614195
11456790 92 18260822670813248064
11475781 23 15195569009234464733
12107183 9 18341608196436720063
12236239 1 18201431510519386902
12373685 5 12966837997192715092
12422481 6 18409164416326126581
12778500 126 18343581837272868066
13167372 99 18342459236022578665
13673619 4 16950563259478721871
13782708 43 16805312293335109891
13785724 45 18127135169538110558
14294032 229 16988559147930837375
14347424 109 18411696582629363576
15082195 135 13110690496599904818
15142383 8 18343297050628439250
15183329 4 16272211890712243435
15301273 46 16732697238860454687
15348495 7 18187369882724927443
15352257 5 16515404045518149115
15419008 145 18336823074815144545
15475509 35 17023170592841785002
1577012 14 18130785698285930983
19301679 30 18121214278327508098
19302320 297 18341623611934571793
20511986 3 17702367615563224628
21130935 74 18409447020510269435
21150785 3 9295283941966725131
21591340 7 18060131038916146007
21774942 28 15051461462037596459
21781055 127 16845031038718717850
22149856 69 14924217167282449533
2303208 19 17095234818082363919
23081809 10 18060411452540296303
2838139 119 17917704704758397461
312425 54 17894914057618167779
3178227 256 18187081737326753282
34797466 226 15791737403991955190
397830 11 17968100888836559283
4073 2 18041563666549714562
4093350 32 18413105052825166362
4144715 1 18260839193921446915
4340502 62 18259987071883133875
5385378 56 17346041069630856879
6058803 2 17912628400821619718
6371009 1 17704356554931203849
68570916 9 18339081618217698263
70251023 43 18191302677331408522
86090 222 17095529443948794594

>  <PUBCHEM_SHAPE_MULTIPOLES>  (1) 
578.08
22.95
2.78
1.49
37.84
1.68
0.28
1.11
-12.89
-5.14
0.47
1.25
-0.61
-1.61

>  <PUBCHEM_SHAPE_SELFOVERLAP>  (1) 
1287.81

>  <PUBCHEM_SHAPE_VOLUME>  (1) 
303.9

>  <PUBCHEM_COORDINATE_TYPE>  (1) 
2
5
10

$$$$
