34417
     RDKit          3D

 23 25  0  0  0  0  0  0  0  0999 V2000
   -6.6115    0.8261    0.5658 Cl  0  0  0  0  0  0  0  0  0  0  0  0
   -0.0903   -0.1303    0.5078 O   0  0  0  0  0  0  0  0  0  0  0  0
   -0.4037   -0.1278   -1.8018 O   0  0  0  0  0  0  0  0  0  0  0  0
    1.3538   -3.9076    0.2580 O   0  0  0  0  0  0  0  0  0  0  0  0
   -0.3505   -2.5512    0.5311 O   0  0  0  0  0  0  0  0  0  0  0  0
    1.5769    2.0192    0.2651 N   0  0  0  0  0  0  0  0  0  0  0  0
    0.8720   -2.7532    0.3404 N   0  0  0  0  0  0  0  0  0  0  0  0
    2.0852    0.7755    0.1778 C   0  0  0  0  0  0  0  0  0  0  0  0
    3.4607    0.5468   -0.0362 C   0  0  0  0  0  0  0  0  0  0  0  0
    1.2486   -0.3306    0.2992 C   0  0  0  0  0  0  0  0  0  0  0  0
    1.7418   -1.6349    0.2138 C   0  0  0  0  0  0  0  0  0  0  0  0
    3.9570   -0.7651   -0.1222 C   0  0  0  0  0  0  0  0  0  0  0  0
    3.0976   -1.8528    0.0028 C   0  0  0  0  0  0  0  0  0  0  0  0
    4.3033    1.6598   -0.1584 C   0  0  0  0  0  0  0  0  0  0  0  0
   -2.2765    0.1780   -0.3580 C   0  0  0  0  0  0  0  0  0  0  0  0
    3.7824    2.9427   -0.0688 C   0  0  0  0  0  0  0  0  0  0  0  0
   -0.8392   -0.0382   -0.6637 C   0  0  0  0  0  0  0  0  0  0  0  0
    2.4241    3.0665    0.1417 C   0  0  0  0  0  0  0  0  0  0  0  0
   -3.2246   -0.3145   -1.2306 C   0  0  0  0  0  0  0  0  0  0  0  0
   -2.6182    0.8632    0.7899 C   0  0  0  0  0  0  0  0  0  0  0  0
   -4.5745   -0.1130   -0.9428 C   0  0  0  0  0  0  0  0  0  0  0  0
   -3.9681    1.0647    1.0777 C   0  0  0  0  0  0  0  0  0  0  0  0
   -4.9464    0.5765    0.2113 C   0  0  0  0  0  0  0  0  0  0  0  0
  1 23  1  0
  2 10  1  0
  2 17  1  0
  3 17  2  0
  4  7  1  0
  5  7  2  0
  6  8  2  0
  6 18  1  0
  7 11  1  0
  8  9  1  0
  8 10  1  0
  9 12  1  0
  9 14  2  0
 10 11  2  0
 11 13  1  0
 12 13  2  0
 14 16  1  0
 15 17  1  0
 15 19  2  0
 15 20  1  0
 16 18  2  0
 19 21  1  0
 20 22  2  0
 21 23  2  0
 22 23  1  0
M  CHG  2   4  -1   7   1
M  END
>  <PUBCHEM_COMPOUND_CID>  (1) 
34417

>  <PUBCHEM_CONFORMER_RMSD>  (1) 
0.6

>  <PUBCHEM_CONFORMER_DIVERSEORDER>  (1) 
1
21
24
8
5
28
14
19
11
22
4
9
13
20
12
2
18
27
16
25
17
15
23
10
26
7
6
3

>  <PUBCHEM_MMFF94_PARTIAL_CHARGES>  (1) 
31
1 -0.18
10 0.08
11 0.13
12 -0.15
13 -0.15
14 -0.15
15 0.09
16 -0.15
17 0.63
18 0.16
19 -0.15
2 -0.23
20 -0.15
21 -0.15
22 -0.15
23 0.18
24 0.15
25 0.15
26 0.15
27 0.15
28 0.15
29 0.15
3 -0.57
30 0.15
31 0.15
32 0.15
4 -0.52
5 -0.52
6 -0.62
7 0.91
8 0.31

>  <PUBCHEM_EFFECTIVE_ROTOR_COUNT>  (1) 
4

>  <PUBCHEM_PHARMACOPHORE_FEATURES>  (1) 
8
1 3 acceptor
1 4 acceptor
1 4 anion
1 5 acceptor
1 6 acceptor
6 15 19 20 21 22 23 rings
6 6 8 9 14 16 18 rings
6 8 9 10 11 12 13 rings

>  <PUBCHEM_HEAVY_ATOM_COUNT>  (1) 
23

>  <PUBCHEM_ATOM_DEF_STEREO_COUNT>  (1) 
0

>  <PUBCHEM_ATOM_UDEF_STEREO_COUNT>  (1) 
0

>  <PUBCHEM_BOND_DEF_STEREO_COUNT>  (1) 
0

>  <PUBCHEM_BOND_UDEF_STEREO_COUNT>  (1) 
0

>  <PUBCHEM_ISOTOPIC_ATOM_COUNT>  (1) 
0

>  <PUBCHEM_COMPONENT_COUNT>  (1) 
1

>  <PUBCHEM_CACTVS_TAUTO_COUNT>  (1) 
1

>  <PUBCHEM_CONFORMER_ID>  (1) 
0000867100000001

>  <PUBCHEM_MMFF94_ENERGY>  (1) 
83.3621

>  <PUBCHEM_FEATURE_SELFOVERLAP>  (1) 
40.711

>  <PUBCHEM_SHAPE_FINGERPRINT>  (1) 
10165383 225 18187655734231348820
10366900 7 18041854912856084897
10411042 1 17833832668758825178
10693767 8 18058454210242823254
10906281 52 18342187691622017124
1100329 8 18409443696585169538
12035758 1 18261937601911400800
12107183 9 17549549509675604441
12236239 1 17917990576953294781
12390115 104 17975991065713527564
12403259 415 17967527957163033317
12633257 1 18333722511958529898
12730499 353 18334301971966638547
12788726 201 17274551936484815225
13009979 54 17486494793564675266
13140716 1 18334572486197651642
13533116 47 18336832983884269267
13583140 156 18263930947736521865
13631057 29 18126275588095457383
13785724 45 17551805715983829807
13955234 65 18335419019724754019
14341114 176 18411427198228515417
14341114 328 18201722851679138929
14787075 74 18053657264248570727
15342168 16 18189338033601997349
15475509 35 16370993063139193368
17844677 252 18339085878809431593
1813 80 17769945575733610334
18186145 218 18411415120474335676
20157964 124 18410291385806250357
204376 136 18334575797379676445
20739085 24 18260552208075103244
21033648 29 17603575327640107773
21033650 10 14835584495553380555
21344244 78 18127676141868688537
21503847 285 18343306937606380716
2255824 54 18412260610429944650
23558518 356 17837763796209808116
23559900 14 18411134719028660411
23845131 108 18261672679058907387
25 1 18410854412741885948
3060560 45 18410007732874789534
3178227 256 18333734585491563074
335352 9 18410295835539860980
350125 39 18120100730134061842
4340502 62 18408326609618428003
474 4 18411417336450730393
5104073 3 18262512705746817067
6034566 193 17681566053355729013
621550 34 18041275491866620397
633830 44 18343584066086594861
8272917 22 18412829057925394895
9981440 41 16765886228909416400
9999458 23 18409451371037164582

>  <PUBCHEM_SHAPE_MULTIPOLES>  (1) 
441.76
10.88
3.2
0.98
14.66
1.33
-0.24
-5.35
0.63
-4.58
0.55
0.84
0.01
-0.7

>  <PUBCHEM_SHAPE_SELFOVERLAP>  (1) 
976.17

>  <PUBCHEM_SHAPE_VOLUME>  (1) 
237

>  <PUBCHEM_COORDINATE_TYPE>  (1) 
2
5
10

$$$$
