34412
     RDKit          3D

 30 33  0  0  0  0  0  0  0  0999 V2000
   -1.2086    0.9431    0.7473 O   0  0  0  0  0  0  0  0  0  0  0  0
    2.5903    1.1386   -0.8148 O   0  0  0  0  0  0  0  0  0  0  0  0
    0.0388    0.2511   -1.0964 O   0  0  0  0  0  0  0  0  0  0  0  0
   -0.2959   -2.5422    2.5976 O   0  0  0  0  0  0  0  0  0  0  0  0
    0.1815   -0.4353    2.1843 O   0  0  0  0  0  0  0  0  0  0  0  0
   -3.4227    1.1382   -0.8406 N   0  0  0  0  0  0  0  0  0  0  0  0
   -0.5446   -1.4467    2.0427 N   0  0  0  0  0  0  0  0  0  0  0  0
   -3.1433   -0.0325   -0.2369 C   0  0  0  0  0  0  0  0  0  0  0  0
   -3.9636   -1.1686   -0.4001 C   0  0  0  0  0  0  0  0  0  0  0  0
   -2.0187   -0.1479    0.5755 C   0  0  0  0  0  0  0  0  0  0  0  0
   -1.6985   -1.3470    1.2170 C   0  0  0  0  0  0  0  0  0  0  0  0
    0.6503    2.2433    0.0615 C   0  0  0  0  0  0  0  0  0  0  0  0
   -3.6417   -2.3747    0.2452 C   0  0  0  0  0  0  0  0  0  0  0  0
    1.9918    2.2320   -0.2635 C   0  0  0  0  0  0  0  0  0  0  0  0
   -2.5108   -2.4619    1.0519 C   0  0  0  0  0  0  0  0  0  0  0  0
    3.6681    0.5544   -0.0867 C   0  0  0  0  0  0  0  0  0  0  0  0
   -5.0958   -1.0529   -1.2178 C   0  0  0  0  0  0  0  0  0  0  0  0
    3.7322   -0.9119   -0.3989 C   0  0  0  0  0  0  0  0  0  0  0  0
   -0.1819    1.0396   -0.1896 C   0  0  0  0  0  0  0  0  0  0  0  0
    0.0411    3.3496    0.6208 C   0  0  0  0  0  0  0  0  0  0  0  0
    2.7562    3.3730   -0.0196 C   0  0  0  0  0  0  0  0  0  0  0  0
   -5.3862    0.1521   -1.8412 C   0  0  0  0  0  0  0  0  0  0  0  0
   -4.5250    1.2079   -1.6217 C   0  0  0  0  0  0  0  0  0  0  0  0
    0.8055    4.4907    0.8648 C   0  0  0  0  0  0  0  0  0  0  0  0
    2.1630    4.5024    0.5446 C   0  0  0  0  0  0  0  0  0  0  0  0
    3.0154   -1.8137    0.3797 C   0  0  0  0  0  0  0  0  0  0  0  0
    4.5082   -1.3558   -1.4638 C   0  0  0  0  0  0  0  0  0  0  0  0
    3.0753   -3.1768    0.0898 C   0  0  0  0  0  0  0  0  0  0  0  0
    4.5681   -2.7189   -1.7539 C   0  0  0  0  0  0  0  0  0  0  0  0
    3.8517   -3.6294   -0.9770 C   0  0  0  0  0  0  0  0  0  0  0  0
  1 10  1  0
  1 19  1  0
  2 14  1  0
  2 16  1  0
  3 19  2  0
  4  7  1  0
  5  7  2  0
  6  8  2  0
  6 23  1  0
  7 11  1  0
  8  9  1  0
  8 10  1  0
  9 13  1  0
  9 17  2  0
 10 11  2  0
 11 15  1  0
 12 14  1  0
 12 19  1  0
 12 20  2  0
 13 15  2  0
 14 21  2  0
 16 18  1  0
 17 22  1  0
 18 26  2  0
 18 27  1  0
 20 24  1  0
 21 25  1  0
 22 23  2  0
 24 25  2  0
 26 28  1  0
 27 29  2  0
 28 30  2  0
 29 30  1  0
M  CHG  2   4  -1   7   1
M  END
>  <PUBCHEM_COMPOUND_CID>  (1) 
34412

>  <PUBCHEM_CONFORMER_RMSD>  (1) 
0.8

>  <PUBCHEM_CONFORMER_DIVERSEORDER>  (1) 
1
223
253
133
422
211
192
395
124
309
218
285
312
221
369
416
92
29
366
11
393
260
368
202
377
167
354
388
126
340
379
128
169
308
213
346
324
332
8
401
299
25
423
413
137
115
235
249
6
184
289
268
19
389
409
272
47
200
250
320
34
262
248
198
234
410
275
287
343
104
316
42
387
89
357
49
84
244
220
76
407
364
252
2
337
201
358
257
61
129
300
273
13
196
173
254
414
138
106
179
121
125
380
59
418
420
315
197
405
40
237
333
311
329
365
310
85
266
351
239
306
10
319
402
233
352
66
330
313
177
148
344
113
276
206
187
282
336
16
82
51
264
396
140
335
383
78
139
378
203
35
297
141
277
345
373
166
293
168
278
117
23
283
267
258
265
69
263
255
112
24
392
376
17
163
280
37
219
290
216
101
87
226
75
52
348
183
9
362
231
317
328
20
301
68
36
150
22
245
341
170
238
326
325
339
261
57
353
45
403
382
327
400
116
232
28
302
44
271
205
338
415
91
88
296
399
55
359
174
188
384
360
46
307
3
119
123
180
30
83
304
191
284
171
286
98
363
178
334
71
7
303
39
251
195
305
331
374
375
207
96
15
355
79
246
194
74
243
349
99
26
208
146
118
105
176
80
386
97
21
298
227
152
110
73
142
149
274
347
408
4
321
291
361
33
132
406
70
154
417
111
412
151
172
367
81
385
212
240
281
102
421
56
162
153
31
108
103
217
157
279
314
269
77
294
228
155
404
292
53
64
93
32
130
322
229
65
18
222
5
107
204
127
60
144
63
147
259
370
225
241
236
230
131
190
109
90
193
381
390
41
48
12
210
94
135
14
394
100
185
391
145
209
158
356
295
122
189
224
38
161
62
288
72
164
397
160
215
214
182
242
199
114
136
67
165
54
350
247
181
175
186
159
156
95
371
323
256
372
419
318
58
411
270
86
27
120
143
398
134
43
342
50

>  <PUBCHEM_MMFF94_PARTIAL_CHARGES>  (1) 
43
1 -0.23
10 0.08
11 0.13
12 0.09
13 -0.15
14 0.08
15 -0.15
16 0.42
17 -0.15
18 -0.14
19 0.63
2 -0.36
20 -0.15
21 -0.15
22 -0.15
23 0.16
24 -0.15
25 -0.15
26 -0.15
27 -0.15
28 -0.15
29 -0.15
3 -0.57
30 -0.15
31 0.15
32 0.15
35 0.15
36 0.15
37 0.15
38 0.15
39 0.15
4 -0.52
40 0.15
41 0.15
42 0.15
43 0.15
44 0.15
45 0.15
46 0.15
5 -0.52
6 -0.62
7 0.91
8 0.31

>  <PUBCHEM_EFFECTIVE_ROTOR_COUNT>  (1) 
7

>  <PUBCHEM_PHARMACOPHORE_FEATURES>  (1) 
10
1 2 acceptor
1 3 acceptor
1 4 acceptor
1 4 anion
1 5 acceptor
1 6 acceptor
6 12 14 20 21 24 25 rings
6 18 26 27 28 29 30 rings
6 6 8 9 17 22 23 rings
6 8 9 10 11 13 15 rings

>  <PUBCHEM_HEAVY_ATOM_COUNT>  (1) 
30

>  <PUBCHEM_ATOM_DEF_STEREO_COUNT>  (1) 
0

>  <PUBCHEM_ATOM_UDEF_STEREO_COUNT>  (1) 
0

>  <PUBCHEM_BOND_DEF_STEREO_COUNT>  (1) 
0

>  <PUBCHEM_BOND_UDEF_STEREO_COUNT>  (1) 
0

>  <PUBCHEM_ISOTOPIC_ATOM_COUNT>  (1) 
0

>  <PUBCHEM_COMPONENT_COUNT>  (1) 
1

>  <PUBCHEM_CACTVS_TAUTO_COUNT>  (1) 
1

>  <PUBCHEM_CONFORMER_ID>  (1) 
0000866C00000001

>  <PUBCHEM_MMFF94_ENERGY>  (1) 
114.0026

>  <PUBCHEM_FEATURE_SELFOVERLAP>  (1) 
50.867

>  <PUBCHEM_SHAPE_FINGERPRINT>  (1) 
10556698 54 17465615115583640229
1100329 8 18123191195274604721
11135926 11 18266757937955168148
11720765 8 18272356564779186705
12553582 1 18265630796649120658
12788726 201 17976542706680123562
13583140 156 18268431415720544741
1361 2 18342733018317490014
13911987 19 18049185516489291844
14251757 17 18334288769158003543
14659021 117 17977386037011143810
14725015 67 17608658541546737842
14866123 147 17620479004123927120
14931854 50 18115309943192166838
14955137 171 18193572073240379691
15475509 8 18127969699137177437
15775530 1 17827092988586070450
17349148 13 17060624408079427455
19311894 1 18054504708625478037
19315092 285 17132103629121210698
19930381 70 18267871764143984522
20775438 99 18124286536689616319
20832881 197 18262798463011649393
21133410 171 17685174362893092842
21133410 32 16374994306544771242
22182313 1 17750517467548240891
22393880 68 18114444735447552031
23536364 44 17975964380812692765
23559900 14 18337666533145155664
23569914 152 17908951381237016735
3298306 158 18121499321857090940
3459 83 18200877267139654297
4015057 19 18412539929628192831
4280585 95 18337944581202265818
4403749 210 17403723945158571416
463206 1 18410300198362093910
495365 180 18053373585494850848
5309563 4 18343308028913319718
57527295 17 18341337772700986533
6004065 56 18340757239298914190
613672 6 18412260597872376238
7399639 24 17544199736686493539
9709674 26 18190462851319103043
9777508 108 16542704163337627704

>  <PUBCHEM_SHAPE_MULTIPOLES>  (1) 
578.08
9.92
5.49
1.74
5.23
4.57
-0.48
-6.78
6.56
-6.54
-0.96
0.78
-1.08
2.14

>  <PUBCHEM_SHAPE_SELFOVERLAP>  (1) 
1288.862

>  <PUBCHEM_SHAPE_VOLUME>  (1) 
303.3

>  <PUBCHEM_COORDINATE_TYPE>  (1) 
2
5
10

$$$$
