34422
     RDKit          3D

 23 25  0  0  0  0  0  0  0  0999 V2000
   -3.2816   -1.8810    1.4515 Br  0  0  0  0  0  0  0  0  0  0  0  0
   -0.2282    0.0439   -0.6136 O   0  0  0  0  0  0  0  0  0  0  0  0
   -0.6449    0.0036    1.6793 O   0  0  0  0  0  0  0  0  0  0  0  0
    0.7891   -3.8752   -0.4688 O   0  0  0  0  0  0  0  0  0  0  0  0
   -0.7450   -2.3313   -0.7549 O   0  0  0  0  0  0  0  0  0  0  0  0
    1.6464    1.9875   -0.2044 N   0  0  0  0  0  0  0  0  0  0  0  0
    0.4384   -2.6728   -0.5212 N   0  0  0  0  0  0  0  0  0  0  0  0
    2.0137    0.6933   -0.1503 C   0  0  0  0  0  0  0  0  0  0  0  0
    3.3448    0.3076    0.1131 C   0  0  0  0  0  0  0  0  0  0  0  0
    1.0701   -0.3093   -0.3568 C   0  0  0  0  0  0  0  0  0  0  0  0
    1.4160   -1.6620   -0.3078 C   0  0  0  0  0  0  0  0  0  0  0  0
    3.6930   -1.0529    0.1623 C   0  0  0  0  0  0  0  0  0  0  0  0
    2.7290   -2.0346   -0.0480 C   0  0  0  0  0  0  0  0  0  0  0  0
    4.2951    1.3164    0.3211 C   0  0  0  0  0  0  0  0  0  0  0  0
   -2.4074    0.5540    0.1705 C   0  0  0  0  0  0  0  0  0  0  0  0
    3.9196    2.6509    0.2660 C   0  0  0  0  0  0  0  0  0  0  0  0
   -1.0177    0.1703    0.5277 C   0  0  0  0  0  0  0  0  0  0  0  0
    2.5941    2.9305    0.0021 C   0  0  0  0  0  0  0  0  0  0  0  0
   -3.4805   -0.2451    0.5106 C   0  0  0  0  0  0  0  0  0  0  0  0
   -2.5690    1.7433   -0.5153 C   0  0  0  0  0  0  0  0  0  0  0  0
   -4.7664    0.1594    0.1517 C   0  0  0  0  0  0  0  0  0  0  0  0
   -3.8549    2.1476   -0.8742 C   0  0  0  0  0  0  0  0  0  0  0  0
   -4.9535    1.3557   -0.5408 C   0  0  0  0  0  0  0  0  0  0  0  0
  1 19  1  0
  2 10  1  0
  2 17  1  0
  3 17  2  0
  4  7  1  0
  5  7  2  0
  6  8  2  0
  6 18  1  0
  7 11  1  0
  8  9  1  0
  8 10  1  0
  9 12  1  0
  9 14  2  0
 10 11  2  0
 11 13  1  0
 12 13  2  0
 14 16  1  0
 15 17  1  0
 15 19  2  0
 15 20  1  0
 16 18  2  0
 19 21  1  0
 20 22  2  0
 21 23  2  0
 22 23  1  0
M  CHG  2   4  -1   7   1
M  END
>  <PUBCHEM_COMPOUND_CID>  (1) 
34422

>  <PUBCHEM_CONFORMER_RMSD>  (1) 
0.6

>  <PUBCHEM_CONFORMER_DIVERSEORDER>  (1) 
1
18
23
13
21
25
6
26
20
27
12
15
24
16
17
4
28
5
2
14
11
9
19
22
30
29
3
10
8
7

>  <PUBCHEM_MMFF94_PARTIAL_CHARGES>  (1) 
31
1 -0.11
10 0.08
11 0.13
12 -0.15
13 -0.15
14 -0.15
15 0.09
16 -0.15
17 0.63
18 0.16
19 0.11
2 -0.23
20 -0.15
21 -0.15
22 -0.15
23 -0.15
24 0.15
25 0.15
26 0.15
27 0.15
28 0.15
29 0.15
3 -0.57
30 0.15
31 0.15
32 0.15
4 -0.52
5 -0.52
6 -0.62
7 0.91
8 0.31

>  <PUBCHEM_EFFECTIVE_ROTOR_COUNT>  (1) 
4

>  <PUBCHEM_PHARMACOPHORE_FEATURES>  (1) 
9
1 1 hydrophobe
1 3 acceptor
1 4 acceptor
1 4 anion
1 5 acceptor
1 6 acceptor
6 15 19 20 21 22 23 rings
6 6 8 9 14 16 18 rings
6 8 9 10 11 12 13 rings

>  <PUBCHEM_HEAVY_ATOM_COUNT>  (1) 
23

>  <PUBCHEM_ATOM_DEF_STEREO_COUNT>  (1) 
0

>  <PUBCHEM_ATOM_UDEF_STEREO_COUNT>  (1) 
0

>  <PUBCHEM_BOND_DEF_STEREO_COUNT>  (1) 
0

>  <PUBCHEM_BOND_UDEF_STEREO_COUNT>  (1) 
0

>  <PUBCHEM_ISOTOPIC_ATOM_COUNT>  (1) 
0

>  <PUBCHEM_COMPONENT_COUNT>  (1) 
1

>  <PUBCHEM_CACTVS_TAUTO_COUNT>  (1) 
1

>  <PUBCHEM_CONFORMER_ID>  (1) 
0000867600000001

>  <PUBCHEM_MMFF94_ENERGY>  (1) 
86.8209

>  <PUBCHEM_FEATURE_SELFOVERLAP>  (1) 
45.785

>  <PUBCHEM_SHAPE_FINGERPRINT>  (1) 
10411042 1 17547572582757263191
10608611 8 18335139769736047077
10646746 165 18040154006864657721
10871710 139 16822226385532178996
1100329 8 18412538813158741930
11370993 70 18410008845049668939
12011746 2 18338524045504828750
12236239 1 17418370259914187292
12403259 327 16950276338947930992
12403259 415 18409740576844406768
12553582 1 17620211835747135050
12592029 89 18412263908864601403
12633257 1 18116711807542586057
12730499 353 18410299086392344857
13140716 1 18409733949730701898
13583140 156 18261116261576461963
138480 1 17979636736669551574
14026960 21 18336834198484281609
14223421 5 18335709355376816163
14790565 3 17901676183036369044
15375358 24 18335139748508981067
18186145 218 18201168692864545248
18681886 176 18270953562472657634
20157964 124 18339635651808424949
204376 136 18342460382314272175
20645477 56 18114466665571982229
20645477 70 18340486668858935943
20681677 76 18335423473679140433
20715895 44 18267016168389355777
21033648 144 18260539022557062357
21033648 29 18270953665372914768
21065198 57 18334295349032180777
21709351 56 18341041922241545231
22393880 68 18412270518745371823
23227448 37 18341329006366364543
23557571 272 17822588191274480995
23558518 356 17830728017689066888
23559900 14 18338513015359172411
3060560 45 18342739564263951750
335352 9 18412261745124036156
350125 39 18338805623128283078
474 4 18341891870341266297
495365 180 18341880879541412376
5104073 3 18334580118565410329
6443956 14 18122066394978863214
7364860 26 18339361851141349052
7808743 9 17977665639176690180
8272917 22 18270965631024485885
9709674 26 18337114458602874143
9925002 15 17328876898636050503

>  <PUBCHEM_SHAPE_MULTIPOLES>  (1) 
445.83
9.13
3.53
0.97
4.27
1.35
0.25
-4.8
0.54
-1.72
-0.58
0.62
0.24
1.48

>  <PUBCHEM_SHAPE_SELFOVERLAP>  (1) 
979.725

>  <PUBCHEM_SHAPE_VOLUME>  (1) 
246.1

>  <PUBCHEM_COORDINATE_TYPE>  (1) 
2
5
10

$$$$
