34429
     RDKit          3D

 25 27  0  0  0  0  0  0  0  0999 V2000
    0.6454    0.2462    0.7318 O   0  0  0  0  0  0  0  0  0  0  0  0
    0.0258    0.0480   -1.5079 O   0  0  0  0  0  0  0  0  0  0  0  0
    2.2442    3.8800   -0.0691 O   0  0  0  0  0  0  0  0  0  0  0  0
    0.5205    2.6646    0.5545 O   0  0  0  0  0  0  0  0  0  0  0  0
    2.1476   -2.0217    0.4821 N   0  0  0  0  0  0  0  0  0  0  0  0
    1.7136    2.7745    0.1882 N   0  0  0  0  0  0  0  0  0  0  0  0
    2.7048   -0.8265    0.2100 C   0  0  0  0  0  0  0  0  0  0  0  0
    4.0486   -0.7083   -0.2027 C   0  0  0  0  0  0  0  0  0  0  0  0
    1.9524    0.3385    0.3326 C   0  0  0  0  0  0  0  0  0  0  0  0
    2.4980    1.5950    0.0581 C   0  0  0  0  0  0  0  0  0  0  0  0
    4.5975    0.5555   -0.4789 C   0  0  0  0  0  0  0  0  0  0  0  0
    3.8223    1.7039   -0.3482 C   0  0  0  0  0  0  0  0  0  0  0  0
    4.8063   -1.8806   -0.3268 C   0  0  0  0  0  0  0  0  0  0  0  0
   -1.6545    0.0093    0.2204 C   0  0  0  0  0  0  0  0  0  0  0  0
    4.2348   -3.1137   -0.0474 C   0  0  0  0  0  0  0  0  0  0  0  0
   -0.2636    0.1003   -0.3204 C   0  0  0  0  0  0  0  0  0  0  0  0
   -4.0612   -0.2597   -0.4102 C   0  0  0  0  0  0  0  0  0  0  0  0
   -2.6264   -0.1404   -0.6990 C   0  0  0  0  0  0  0  0  0  0  0  0
    2.9133   -3.1292    0.3502 C   0  0  0  0  0  0  0  0  0  0  0  0
   -1.8534    0.1371    1.7031 C   0  0  0  0  0  0  0  0  0  0  0  0
   -4.6141   -1.5154   -0.1999 C   0  0  0  0  0  0  0  0  0  0  0  0
   -4.8441    0.8848   -0.3520 C   0  0  0  0  0  0  0  0  0  0  0  0
   -5.9771   -1.6286    0.0741 C   0  0  0  0  0  0  0  0  0  0  0  0
   -6.2071    0.7715   -0.0779 C   0  0  0  0  0  0  0  0  0  0  0  0
   -6.7736   -0.4851    0.1353 C   0  0  0  0  0  0  0  0  0  0  0  0
  1  9  1  0
  1 16  1  0
  2 16  2  0
  3  6  1  0
  4  6  2  0
  5  7  2  0
  5 19  1  0
  6 10  1  0
  7  8  1  0
  7  9  1  0
  8 11  1  0
  8 13  2  0
  9 10  2  0
 10 12  1  0
 11 12  2  0
 13 15  1  0
 14 16  1  0
 14 18  2  0
 14 20  1  0
 15 19  2  0
 17 18  1  0
 17 21  2  0
 17 22  1  0
 21 23  1  0
 22 24  2  0
 23 25  2  0
 24 25  1  0
M  CHG  2   3  -1   6   1
M  END
>  <PUBCHEM_COMPOUND_CID>  (1) 
34429

>  <PUBCHEM_CONFORMER_RMSD>  (1) 
0.8

>  <PUBCHEM_CONFORMER_DIVERSEORDER>  (1) 
2
16
13
25
24
14
15
1
10
11
12
8
19
22
7
17
18
9
6
21
20
3
4
23
5

>  <PUBCHEM_MMFF94_PARTIAL_CHARGES>  (1) 
35
1 -0.23
10 0.13
11 -0.15
12 -0.15
13 -0.15
14 -0.12
15 -0.15
16 0.71
17 0.03
18 -0.18
19 0.16
2 -0.57
20 0.14
21 -0.15
22 -0.15
23 -0.15
24 -0.15
25 -0.15
26 0.15
27 0.15
28 0.15
29 0.15
3 -0.52
30 0.15
31 0.15
35 0.15
36 0.15
37 0.15
38 0.15
39 0.15
4 -0.52
5 -0.62
6 0.91
7 0.31
9 0.08

>  <PUBCHEM_EFFECTIVE_ROTOR_COUNT>  (1) 
5

>  <PUBCHEM_PHARMACOPHORE_FEATURES>  (1) 
9
1 2 acceptor
1 20 hydrophobe
1 3 acceptor
1 3 anion
1 4 acceptor
1 5 acceptor
6 17 21 22 23 24 25 rings
6 5 7 8 13 15 19 rings
6 7 8 9 10 11 12 rings

>  <PUBCHEM_HEAVY_ATOM_COUNT>  (1) 
25

>  <PUBCHEM_ATOM_DEF_STEREO_COUNT>  (1) 
0

>  <PUBCHEM_ATOM_UDEF_STEREO_COUNT>  (1) 
0

>  <PUBCHEM_BOND_DEF_STEREO_COUNT>  (1) 
0

>  <PUBCHEM_BOND_UDEF_STEREO_COUNT>  (1) 
1

>  <PUBCHEM_ISOTOPIC_ATOM_COUNT>  (1) 
0

>  <PUBCHEM_COMPONENT_COUNT>  (1) 
1

>  <PUBCHEM_CACTVS_TAUTO_COUNT>  (1) 
1

>  <PUBCHEM_CONFORMER_ID>  (1) 
0000867D00000002

>  <PUBCHEM_MMFF94_ENERGY>  (1) 
90.1163

>  <PUBCHEM_FEATURE_SELFOVERLAP>  (1) 
45.783

>  <PUBCHEM_SHAPE_FINGERPRINT>  (1) 
10411042 1 18194682571558600070
10595046 47 18341049722540405749
10673678 19 17824560779670692452
10693767 8 18201167572801689734
11135609 187 18266181815326448400
11405975 8 18413108377466794019
11796584 16 17917996092103039279
12107183 9 18053388695774925577
12236239 1 17989489615121557307
12516196 113 18411698751340207354
12730499 353 18262806292525897200
12788726 201 17489316265340462219
13009979 54 17845943909517805912
13167823 11 18412823608055423703
13533116 47 18412265042931061819
13583140 156 18266186200434790475
13782708 43 17603581889864865387
13785724 45 17984431728121309879
13955234 65 18341046431920315240
14341114 176 18411140238641754277
15183329 4 18410292476469103961
15250474 111 18129084788379968751
15439362 3 17979919642578046020
15788980 27 17704068504390697871
15927050 60 18053662766149026366
16992752 21 18050291359036407870
17349148 13 17203609285633317311
17844677 252 18411423908410121601
1813 80 18129391410273379598
19427546 62 18119811563171662716
20645477 70 18334574629359912834
20832881 197 18261672554520251251
21065198 57 18410291450030072391
21267235 1 18341898442311577606
21285901 2 17676203546368301814
21344244 78 18200860812566134200
21478907 32 18194682566704353280
22033318 11 17913520985694906345
221357 26 18334290933932485557
23522609 53 17772495588828970129
23536379 177 18410575072479777611
23559900 14 18410849980235234611
23569943 247 17387686103588762195
239999 70 18342461443593688022
3004659 81 18260830358826156898
3421961 26 18412258424407382322
4073 2 18114749347149718875
4144715 1 18334583443255075689
4340502 62 18340480158147613554
46194498 28 17749110010590700404
465052 167 18272934894883628550
5104073 3 18201434727465437145
59682541 52 18335692837359993863
6443956 14 18408605838269077726
6695519 79 17622465142946279187
70251023 43 18194124019451288562
7970288 3 18050847719898242614
8272917 22 18411420635048748444

>  <PUBCHEM_SHAPE_MULTIPOLES>  (1) 
481.05
14.42
3.22
0.9
21.2
0.78
-0.1
-5.54
1.32
-5.04
-0.23
0.21
0.02
-0.12

>  <PUBCHEM_SHAPE_SELFOVERLAP>  (1) 
1060.828

>  <PUBCHEM_SHAPE_VOLUME>  (1) 
255.3

>  <PUBCHEM_COORDINATE_TYPE>  (1) 
2
5
10

$$$$
