34421
     RDKit          3D

 23 25  0  0  0  0  0  0  0  0999 V2000
   -4.7386    2.0003    2.1692 Br  0  0  0  0  0  0  0  0  0  0  0  0
   -0.1969   -0.1523    0.4236 O   0  0  0  0  0  0  0  0  0  0  0  0
   -0.4022   -0.3536   -1.8893 O   0  0  0  0  0  0  0  0  0  0  0  0
    1.3715   -3.8856    0.5595 O   0  0  0  0  0  0  0  0  0  0  0  0
   -0.3841   -2.5702    0.6413 O   0  0  0  0  0  0  0  0  0  0  0  0
    1.4136    2.0252    0.0724 N   0  0  0  0  0  0  0  0  0  0  0  0
    0.8515   -2.7455    0.5223 N   0  0  0  0  0  0  0  0  0  0  0  0
    1.9631    0.7967    0.1135 C   0  0  0  0  0  0  0  0  0  0  0  0
    3.3533    0.5982   -0.0196 C   0  0  0  0  0  0  0  0  0  0  0  0
    1.1557   -0.3233    0.2917 C   0  0  0  0  0  0  0  0  0  0  0  0
    1.6919   -1.6126    0.3394 C   0  0  0  0  0  0  0  0  0  0  0  0
    3.8928   -0.6985    0.0282 C   0  0  0  0  0  0  0  0  0  0  0  0
    3.0621   -1.8007    0.2074 C   0  0  0  0  0  0  0  0  0  0  0  0
    4.1665    1.7253   -0.1990 C   0  0  0  0  0  0  0  0  0  0  0  0
   -2.3487    0.0075   -0.5603 C   0  0  0  0  0  0  0  0  0  0  0  0
    3.6032    2.9925   -0.2417 C   0  0  0  0  0  0  0  0  0  0  0  0
   -0.8928   -0.1842   -0.7832 C   0  0  0  0  0  0  0  0  0  0  0  0
    2.2335    3.0870   -0.1023 C   0  0  0  0  0  0  0  0  0  0  0  0
   -2.7647    0.7752    0.5078 C   0  0  0  0  0  0  0  0  0  0  0  0
   -3.2391   -0.5888   -1.4291 C   0  0  0  0  0  0  0  0  0  0  0  0
   -4.1322    0.9546    0.7165 C   0  0  0  0  0  0  0  0  0  0  0  0
   -4.6065   -0.4095   -1.2206 C   0  0  0  0  0  0  0  0  0  0  0  0
   -5.0531    0.3622   -0.1479 C   0  0  0  0  0  0  0  0  0  0  0  0
  1 21  1  0
  2 10  1  0
  2 17  1  0
  3 17  2  0
  4  7  1  0
  5  7  2  0
  6  8  2  0
  6 18  1  0
  7 11  1  0
  8  9  1  0
  8 10  1  0
  9 12  1  0
  9 14  2  0
 10 11  2  0
 11 13  1  0
 12 13  2  0
 14 16  1  0
 15 17  1  0
 15 19  2  0
 15 20  1  0
 16 18  2  0
 19 21  1  0
 20 22  2  0
 21 23  2  0
 22 23  1  0
M  CHG  2   4  -1   7   1
M  END
>  <PUBCHEM_COMPOUND_CID>  (1) 
34421

>  <PUBCHEM_CONFORMER_RMSD>  (1) 
0.6

>  <PUBCHEM_CONFORMER_DIVERSEORDER>  (1) 
1
64
48
34
45
41
61
11
58
28
42
57
10
67
6
51
60
38
39
8
59
68
7
47
46
54
40
9
52
27
37
14
49
5
66
35
65
15
69
36
18
50
55
63
4
53
56
2
62
25
31
44
29
43
16
26
17
23
32
24
30
12
3
33
13
19
20
21
22

>  <PUBCHEM_MMFF94_PARTIAL_CHARGES>  (1) 
31
1 -0.11
10 0.08
11 0.13
12 -0.15
13 -0.15
14 -0.15
15 0.09
16 -0.15
17 0.63
18 0.16
19 -0.15
2 -0.23
20 -0.15
21 0.11
22 -0.15
23 -0.15
24 0.15
25 0.15
26 0.15
27 0.15
28 0.15
29 0.15
3 -0.57
30 0.15
31 0.15
32 0.15
4 -0.52
5 -0.52
6 -0.62
7 0.91
8 0.31

>  <PUBCHEM_EFFECTIVE_ROTOR_COUNT>  (1) 
4

>  <PUBCHEM_PHARMACOPHORE_FEATURES>  (1) 
9
1 1 hydrophobe
1 3 acceptor
1 4 acceptor
1 4 anion
1 5 acceptor
1 6 acceptor
6 15 19 20 21 22 23 rings
6 6 8 9 14 16 18 rings
6 8 9 10 11 12 13 rings

>  <PUBCHEM_HEAVY_ATOM_COUNT>  (1) 
23

>  <PUBCHEM_ATOM_DEF_STEREO_COUNT>  (1) 
0

>  <PUBCHEM_ATOM_UDEF_STEREO_COUNT>  (1) 
0

>  <PUBCHEM_BOND_DEF_STEREO_COUNT>  (1) 
0

>  <PUBCHEM_BOND_UDEF_STEREO_COUNT>  (1) 
0

>  <PUBCHEM_ISOTOPIC_ATOM_COUNT>  (1) 
0

>  <PUBCHEM_COMPONENT_COUNT>  (1) 
1

>  <PUBCHEM_CACTVS_TAUTO_COUNT>  (1) 
1

>  <PUBCHEM_CONFORMER_ID>  (1) 
0000867500000001

>  <PUBCHEM_MMFF94_ENERGY>  (1) 
83.5142

>  <PUBCHEM_FEATURE_SELFOVERLAP>  (1) 
45.785

>  <PUBCHEM_SHAPE_FINGERPRINT>  (1) 
10165383 225 18114468958894640900
10366900 7 17968382255958987387
10411042 1 17832418701031900818
10615611 76 18059031513876545345
10906281 52 18340497742218379516
1100329 8 18335976532903764578
12107183 9 17766564547676542105
12236239 1 17989204828587872336
12390115 104 17974019632743270724
12553582 1 18121493553594946346
12633257 1 18260540104587796186
12644460 14 18260543407660071016
12730499 353 18260830431755847651
12788726 201 17775279509172976615
13009979 54 17701820981763481770
13140716 1 18261106422122781010
13583140 156 18117572721596264697
14739800 52 17488443334675879480
14787075 74 18052249898034105823
14790565 3 18336558212846040940
15342168 16 18115306824892844604
15475509 8 17985567580278928982
15842332 3 18130494255001615839
16752209 62 16988267725815208383
17818456 19 17344072857896225113
1813 80 17912366420691350838
18186145 218 18410007749843493260
204376 136 18260827163085086983
20612939 158 18409727370052034916
20739085 24 18187937153030891676
21033648 29 17385716994222042277
21041028 32 17759519972045206138
21503847 285 18271535195037651780
2255824 54 18410849945575088390
23558518 356 17393598508328354440
23598291 2 18201995508703103029
25 1 18337388348566801572
25147074 1 18060134307238759709
335352 9 18336545010817277180
350125 39 18046353195271978730
38570 142 18197808624133097412
458136 41 18261398831880479150
474 4 18410290337084968489
5104073 3 18334856155622757923
5895379 119 17059509438643287672
6034566 193 17536045689435393212
633830 44 18343028791229168869
7097593 13 18054787291581860003
8272917 22 18411138004768065655
84936 182 18129938022034596216
9981440 41 16835974614733333824

>  <PUBCHEM_SHAPE_MULTIPOLES>  (1) 
445.83
9.83
3.39
1.29
8.33
0.67
0.03
-4.91
0.77
-3.55
0.99
1.85
-0.12
-2.24

>  <PUBCHEM_SHAPE_SELFOVERLAP>  (1) 
978.728

>  <PUBCHEM_SHAPE_VOLUME>  (1) 
246.7

>  <PUBCHEM_COORDINATE_TYPE>  (1) 
2
5
10

$$$$
