34434
     RDKit          3D

 26 28  0  0  0  0  0  0  0  0999 V2000
    0.2410    0.0537   -0.5398 O   0  0  0  0  0  0  0  0  0  0  0  0
   -2.4554   -1.6793    2.0496 O   0  0  0  0  0  0  0  0  0  0  0  0
   -4.0659    2.1804   -1.5436 O   0  0  0  0  0  0  0  0  0  0  0  0
    0.0158   -0.6162    1.6814 O   0  0  0  0  0  0  0  0  0  0  0  0
    1.7945   -3.5765   -1.4475 O   0  0  0  0  0  0  0  0  0  0  0  0
    0.0454   -2.2628   -1.2640 O   0  0  0  0  0  0  0  0  0  0  0  0
    1.8575    2.0983    0.2761 N   0  0  0  0  0  0  0  0  0  0  0  0
    1.2791   -2.4666   -1.1750 N   0  0  0  0  0  0  0  0  0  0  0  0
    2.4021    0.9026   -0.0189 C   0  0  0  0  0  0  0  0  0  0  0  0
    1.5916   -0.1496   -0.4363 C   0  0  0  0  0  0  0  0  0  0  0  0
    3.7900    0.6717    0.0813 C   0  0  0  0  0  0  0  0  0  0  0  0
    2.1225   -1.4031   -0.7503 C   0  0  0  0  0  0  0  0  0  0  0  0
    4.3244   -0.5890   -0.2346 C   0  0  0  0  0  0  0  0  0  0  0  0
   -1.9189    0.0149    0.4387 C   0  0  0  0  0  0  0  0  0  0  0  0
    3.4906   -1.6234   -0.6495 C   0  0  0  0  0  0  0  0  0  0  0  0
    4.6064    1.7306    0.5015 C   0  0  0  0  0  0  0  0  0  0  0  0
   -2.8380   -0.7219    1.1582 C   0  0  0  0  0  0  0  0  0  0  0  0
   -0.4660   -0.2284    0.6275 C   0  0  0  0  0  0  0  0  0  0  0  0
   -2.3031    0.9861   -0.4648 C   0  0  0  0  0  0  0  0  0  0  0  0
   -3.6631    1.2300   -0.6563 C   0  0  0  0  0  0  0  0  0  0  0  0
   -4.1980   -0.4779    0.9667 C   0  0  0  0  0  0  0  0  0  0  0  0
    4.0482    2.9637    0.8061 C   0  0  0  0  0  0  0  0  0  0  0  0
   -4.6104    0.4979    0.0593 C   0  0  0  0  0  0  0  0  0  0  0  0
    2.6802    3.0941    0.6779 C   0  0  0  0  0  0  0  0  0  0  0  0
   -2.2993   -3.0051    1.5484 C   0  0  0  0  0  0  0  0  0  0  0  0
   -5.4713    2.3758   -1.6923 C   0  0  0  0  0  0  0  0  0  0  0  0
  1 10  1  0
  1 18  1  0
  2 17  1  0
  2 25  1  0
  3 20  1  0
  3 26  1  0
  4 18  2  0
  5  8  1  0
  6  8  2  0
  7  9  2  0
  7 24  1  0
  8 12  1  0
  9 10  1  0
  9 11  1  0
 10 12  2  0
 11 13  1  0
 11 16  2  0
 12 15  1  0
 13 15  2  0
 14 17  2  0
 14 18  1  0
 14 19  1  0
 16 22  1  0
 17 21  1  0
 19 20  2  0
 20 23  1  0
 21 23  2  0
 22 24  2  0
M  CHG  2   5  -1   8   1
M  END
>  <PUBCHEM_COMPOUND_CID>  (1) 
34434

>  <PUBCHEM_CONFORMER_RMSD>  (1) 
0.8

>  <PUBCHEM_CONFORMER_DIVERSEORDER>  (1) 
2
50
46
17
27
31
47
30
55
3
45
18
34
28
49
37
48
25
8
42
53
44
43
33
20
32
4
15
40
24
36
51
38
29
52
41
21
7
16
54
26
22
1
35
9
23
39
11
6
19
5
12
10
14
13

>  <PUBCHEM_MMFF94_PARTIAL_CHARGES>  (1) 
33
1 -0.23
10 0.08
12 0.13
13 -0.15
14 0.09
15 -0.15
16 -0.15
17 0.08
18 0.63
19 -0.15
2 -0.36
20 0.08
21 -0.15
22 -0.15
23 -0.15
24 0.16
25 0.28
26 0.28
27 0.15
28 0.15
29 0.15
3 -0.36
30 0.15
31 0.15
32 0.15
33 0.15
34 0.15
4 -0.57
5 -0.52
6 -0.52
7 -0.62
8 0.91
9 0.31

>  <PUBCHEM_EFFECTIVE_ROTOR_COUNT>  (1) 
6

>  <PUBCHEM_PHARMACOPHORE_FEATURES>  (1) 
10
1 2 acceptor
1 3 acceptor
1 4 acceptor
1 5 acceptor
1 5 anion
1 6 acceptor
1 7 acceptor
6 14 17 19 20 21 23 rings
6 7 9 11 16 22 24 rings
6 9 10 11 12 13 15 rings

>  <PUBCHEM_HEAVY_ATOM_COUNT>  (1) 
26

>  <PUBCHEM_ATOM_DEF_STEREO_COUNT>  (1) 
0

>  <PUBCHEM_ATOM_UDEF_STEREO_COUNT>  (1) 
0

>  <PUBCHEM_BOND_DEF_STEREO_COUNT>  (1) 
0

>  <PUBCHEM_BOND_UDEF_STEREO_COUNT>  (1) 
0

>  <PUBCHEM_ISOTOPIC_ATOM_COUNT>  (1) 
0

>  <PUBCHEM_COMPONENT_COUNT>  (1) 
1

>  <PUBCHEM_CACTVS_TAUTO_COUNT>  (1) 
1

>  <PUBCHEM_CONFORMER_ID>  (1) 
0000868200000002

>  <PUBCHEM_MMFF94_ENERGY>  (1) 
114.3234

>  <PUBCHEM_FEATURE_SELFOVERLAP>  (1) 
50.869

>  <PUBCHEM_SHAPE_FINGERPRINT>  (1) 
10319926 262 18040704901330267560
10411042 1 17695354677009469974
10646746 165 17967534570885102633
10871710 139 16535963065905591476
11370993 70 18341614862231069226
11725454 13 18260815008290735461
12236239 1 16630813192215215528
12403259 118 18043240456722267328
12403259 415 18334299760048210581
12788726 201 16754399115385152134
13402501 40 18334572408682739381
13583140 156 18336270119260858522
13911987 19 17986400090237266696
14178342 30 17385723646693503539
14251757 17 18335139769578038889
14747281 78 18126025779485430389
17980427 23 17606121929159843109
1813 80 13262664908118474112
204376 136 18058456559230522546
20645477 56 18261402152348836377
20645477 70 18130512963451765902
20681677 76 18410859896987692754
21033648 144 18410857702243976417
21033648 29 18040715844843925749
21065201 7 17603872203804584649
23557571 272 18040729051793929965
23559900 14 18340487759949642146
3380486 145 18122643896761603227
3459 39 16733813178543239037
469060 322 17620470646318574847
474 4 18131355228102875714
495365 180 18272638057019708088
7399639 24 18122354741834688883
9709674 26 18410584972010681851

>  <PUBCHEM_SHAPE_MULTIPOLES>  (1) 
489.89
10.25
3.62
1.51
4.38
0.58
0.09
-6.67
-0.97
-1.22
-0.5
1.27
0.56
3.95

>  <PUBCHEM_SHAPE_SELFOVERLAP>  (1) 
1083.162

>  <PUBCHEM_SHAPE_VOLUME>  (1) 
260

>  <PUBCHEM_COORDINATE_TYPE>  (1) 
2
5
10

$$$$
