34432
     RDKit          3D

 27 30  0  0  0  0  0  0  0  0999 V2000
   -0.7137   -0.1078   -0.5522 O   0  0  0  0  0  0  0  0  0  0  0  0
    3.1303    1.1759   -1.2859 O   0  0  0  0  0  0  0  0  0  0  0  0
   -0.2785   -0.2654    1.7462 O   0  0  0  0  0  0  0  0  0  0  0  0
    0.9072    1.4788   -1.7182 O   0  0  0  0  0  0  0  0  0  0  0  0
   -2.0699   -3.9254   -0.5005 O   0  0  0  0  0  0  0  0  0  0  0  0
   -0.4108   -2.5138   -0.7724 O   0  0  0  0  0  0  0  0  0  0  0  0
   -2.4022    1.9792   -0.0501 N   0  0  0  0  0  0  0  0  0  0  0  0
   -1.6154   -2.7572   -0.5247 N   0  0  0  0  0  0  0  0  0  0  0  0
   -2.8813    0.7211   -0.0261 C   0  0  0  0  0  0  0  0  0  0  0  0
   -2.0598   -0.3585   -0.2742 C   0  0  0  0  0  0  0  0  0  0  0  0
   -4.2366    0.4457    0.2519 C   0  0  0  0  0  0  0  0  0  0  0  0
    3.8097   -0.1411    0.6413 C   0  0  0  0  0  0  0  0  0  0  0  0
   -2.4962   -1.6716   -0.2631 C   0  0  0  0  0  0  0  0  0  0  0  0
    1.4517    0.1771    0.1854 C   0  0  0  0  0  0  0  0  0  0  0  0
    4.1393    0.6202   -0.4755 C   0  0  0  0  0  0  0  0  0  0  0  0
   -4.7025   -0.8799    0.2687 C   0  0  0  0  0  0  0  0  0  0  0  0
    2.4062   -0.3535    0.9589 C   0  0  0  0  0  0  0  0  0  0  0  0
   -3.8324   -1.9354    0.0115 C   0  0  0  0  0  0  0  0  0  0  0  0
   -5.0906    1.5272    0.5072 C   0  0  0  0  0  0  0  0  0  0  0  0
    0.0661   -0.0925    0.5879 C   0  0  0  0  0  0  0  0  0  0  0  0
    4.8389   -0.6760    1.4202 C   0  0  0  0  0  0  0  0  0  0  0  0
    1.7790    0.9900   -1.0075 C   0  0  0  0  0  0  0  0  0  0  0  0
    5.4640    0.8614   -0.8343 C   0  0  0  0  0  0  0  0  0  0  0  0
   -4.5999    2.8247    0.4832 C   0  0  0  0  0  0  0  0  0  0  0  0
    6.1727   -0.4426    1.0727 C   0  0  0  0  0  0  0  0  0  0  0  0
    6.4841    0.3246   -0.0520 C   0  0  0  0  0  0  0  0  0  0  0  0
   -3.2595    2.9949    0.2018 C   0  0  0  0  0  0  0  0  0  0  0  0
  1 10  1  0
  1 20  1  0
  2 15  1  0
  2 22  1  0
  3 20  2  0
  4 22  2  0
  5  8  1  0
  6  8  2  0
  7  9  2  0
  7 27  1  0
  8 13  1  0
  9 10  1  0
  9 11  1  0
 10 13  2  0
 11 16  1  0
 11 19  2  0
 12 15  2  0
 12 17  1  0
 12 21  1  0
 13 18  1  0
 14 17  2  0
 14 20  1  0
 14 22  1  0
 15 23  1  0
 16 18  2  0
 19 24  1  0
 21 25  2  0
 23 26  2  0
 24 27  2  0
 25 26  1  0
M  CHG  2   5  -1   8   1
M  END
>  <PUBCHEM_COMPOUND_CID>  (1) 
34432

>  <PUBCHEM_CONFORMER_RMSD>  (1) 
0.8

>  <PUBCHEM_CONFORMER_DIVERSEORDER>  (1) 
1
18
24
23
28
2
15
19
11
16
20
12
21
7
17
4
27
6
22
8
9
13
5
14
3
10
25
26

>  <PUBCHEM_MMFF94_PARTIAL_CHARGES>  (1) 
36
1 -0.23
10 0.08
12 0.03
13 0.13
14 0.03
15 0.08
16 -0.15
17 -0.18
18 -0.15
19 -0.15
2 -0.23
20 0.71
21 -0.15
22 0.71
23 -0.15
24 -0.15
25 -0.15
26 -0.15
27 0.16
28 0.15
29 0.15
3 -0.57
30 0.15
31 0.15
32 0.15
33 0.15
34 0.15
35 0.15
36 0.15
37 0.15
4 -0.57
5 -0.52
6 -0.52
7 -0.62
8 0.91
9 0.31

>  <PUBCHEM_EFFECTIVE_ROTOR_COUNT>  (1) 
4

>  <PUBCHEM_PHARMACOPHORE_FEATURES>  (1) 
11
1 14 anion
1 3 acceptor
1 4 acceptor
1 5 acceptor
1 5 anion
1 6 acceptor
1 7 acceptor
6 12 15 21 23 25 26 rings
6 2 12 14 15 17 22 rings
6 7 9 11 19 24 27 rings
6 9 10 11 13 16 18 rings

>  <PUBCHEM_HEAVY_ATOM_COUNT>  (1) 
27

>  <PUBCHEM_ATOM_DEF_STEREO_COUNT>  (1) 
0

>  <PUBCHEM_ATOM_UDEF_STEREO_COUNT>  (1) 
0

>  <PUBCHEM_BOND_DEF_STEREO_COUNT>  (1) 
0

>  <PUBCHEM_BOND_UDEF_STEREO_COUNT>  (1) 
0

>  <PUBCHEM_ISOTOPIC_ATOM_COUNT>  (1) 
0

>  <PUBCHEM_COMPONENT_COUNT>  (1) 
1

>  <PUBCHEM_CACTVS_TAUTO_COUNT>  (1) 
1

>  <PUBCHEM_CONFORMER_ID>  (1) 
0000868000000001

>  <PUBCHEM_MMFF94_ENERGY>  (1) 
102.8852

>  <PUBCHEM_FEATURE_SELFOVERLAP>  (1) 
55.964

>  <PUBCHEM_SHAPE_FINGERPRINT>  (1) 
10165383 225 18130514037942852001
10411042 1 17908420600362288031
10595046 47 18262519303375596216
10906281 52 17676785214506571290
11049842 53 18122656909831982990
11273773 42 17750815409719890572
11315181 36 18260265278252120780
11796584 16 18201722843401031854
12107183 9 17830164710905253000
12236239 1 18186521007818370840
12390115 104 18130234757261743769
12422481 6 18044086865757939346
12788726 201 18119826947401814119
13167823 11 18333730251959088858
13583140 156 17704063002258010144
13782708 43 17345752031000356015
14294032 229 18272368634633839849
14739800 52 18124595534006858076
15021287 119 17676206858104818516
15042514 8 18267025149429832603
15183329 4 18186800279777467654
15230672 131 18268150864853834238
15250474 111 18335408106714241794
15484559 13 15224222020430231622
16120349 21 18191860120936276770
17818456 19 18409172108148277644
17844677 252 18341895242455401832
1813 80 16950570926570280398
19489759 90 18060699493894066257
20511986 3 18113606894396784096
20554085 129 17915162547717216665
21033648 144 17096368509212492326
21033648 29 17489573568141017120
21033650 10 18193584219334506812
21133410 90 18262783152129454597
23402539 116 18342453746737805053
23522609 53 17823159868850173540
23557571 272 18131641092336072996
23559900 14 17917444094611206262
23569943 247 17024573513912928602
25147074 1 18040724709677212476
3298306 158 17917430895649730574
34797466 226 17845663659192706820
350125 39 18411136940054143009
4015057 19 15625646314922498538
469060 322 18200616738824273649
5104073 3 18187080685291764272
513202 73 16661477382134877884
5265222 85 18128823126424322214
5364581 5 17913470609839030736
5385378 56 18127984005488682931
559249 180 18408882915210164554
57527295 17 16414631545863841801
6327066 14 18190736424247754941
7226269 152 17846781792991310424
9849439 229 17552930529243380921
9981440 41 18338241462527055643

>  <PUBCHEM_SHAPE_MULTIPOLES>  (1) 
510.47
13.69
2.9
1.16
14.2
1.32
-0.04
-3.77
-2.37
-5.15
0.54
1.08
-0.09
-1.54

>  <PUBCHEM_SHAPE_SELFOVERLAP>  (1) 
1155.974

>  <PUBCHEM_SHAPE_VOLUME>  (1) 
262.1

>  <PUBCHEM_COORDINATE_TYPE>  (1) 
2
5
10

$$$$
