34430
     RDKit          3D

 21 23  0  0  0  0  0  0  0  0999 V2000
   -0.6073   -0.0497   -0.6068 O   0  0  0  0  0  0  0  0  0  0  0  0
   -3.6332    0.7873    1.1075 O   0  0  0  0  0  0  0  0  0  0  0  0
   -1.0314    0.1703    1.6745 O   0  0  0  0  0  0  0  0  0  0  0  0
    0.4511   -3.9145   -0.0084 O   0  0  0  0  0  0  0  0  0  0  0  0
   -1.0984   -2.4309   -0.4741 O   0  0  0  0  0  0  0  0  0  0  0  0
    1.2450    1.9486   -0.4207 N   0  0  0  0  0  0  0  0  0  0  0  0
    0.0877   -2.7301   -0.2000 N   0  0  0  0  0  0  0  0  0  0  0  0
    1.6259    0.6734   -0.2167 C   0  0  0  0  0  0  0  0  0  0  0  0
    2.9601    0.3353    0.0923 C   0  0  0  0  0  0  0  0  0  0  0  0
    0.6938   -0.3566   -0.3082 C   0  0  0  0  0  0  0  0  0  0  0  0
    1.0539   -1.6907   -0.1026 C   0  0  0  0  0  0  0  0  0  0  0  0
    3.3226   -1.0065    0.2990 C   0  0  0  0  0  0  0  0  0  0  0  0
    2.3698   -2.0164    0.2013 C   0  0  0  0  0  0  0  0  0  0  0  0
    3.8989    1.3717    0.1845 C   0  0  0  0  0  0  0  0  0  0  0  0
    3.5094    2.6868   -0.0251 C   0  0  0  0  0  0  0  0  0  0  0  0
    2.1819    2.9194   -0.3224 C   0  0  0  0  0  0  0  0  0  0  0  0
   -1.4021    0.1989    0.5105 C   0  0  0  0  0  0  0  0  0  0  0  0
   -2.7945    0.5236    0.1085 C   0  0  0  0  0  0  0  0  0  0  0  0
   -3.3333    0.5911   -1.1112 C   0  0  0  0  0  0  0  0  0  0  0  0
   -4.6840    0.9406   -0.8734 C   0  0  0  0  0  0  0  0  0  0  0  0
   -4.8160    1.0484    0.4914 C   0  0  0  0  0  0  0  0  0  0  0  0
  1 10  1  0
  1 17  1  0
  2 18  1  0
  2 21  1  0
  3 17  2  0
  4  7  1  0
  5  7  2  0
  6  8  2  0
  6 16  1  0
  7 11  1  0
  8  9  1  0
  8 10  1  0
  9 12  1  0
  9 14  2  0
 10 11  2  0
 11 13  1  0
 12 13  2  0
 14 15  1  0
 15 16  2  0
 17 18  1  0
 18 19  2  0
 19 20  1  0
 20 21  2  0
M  CHG  2   4  -1   7   1
M  END
>  <PUBCHEM_COMPOUND_CID>  (1) 
34430

>  <PUBCHEM_CONFORMER_RMSD>  (1) 
0.6

>  <PUBCHEM_CONFORMER_DIVERSEORDER>  (1) 
2
20
22
29
30
36
33
24
8
17
28
7
25
26
31
34
10
21
16
6
15
19
1
35
32
14
27
5
18
23
9
38
37
13
3
4
11
12

>  <PUBCHEM_MMFF94_PARTIAL_CHARGES>  (1) 
28
1 -0.23
10 0.08
11 0.13
12 -0.15
13 -0.15
14 -0.15
15 -0.15
16 0.16
17 0.81
18 0.05
19 -0.15
2 -0.28
20 -0.15
21 -0.01
22 0.15
23 0.15
24 0.15
25 0.15
26 0.15
27 0.15
28 0.15
29 0.15
3 -0.57
4 -0.52
5 -0.52
6 -0.62
7 0.91
8 0.31

>  <PUBCHEM_EFFECTIVE_ROTOR_COUNT>  (1) 
4

>  <PUBCHEM_PHARMACOPHORE_FEATURES>  (1) 
9
1 2 acceptor
1 3 acceptor
1 4 acceptor
1 4 anion
1 5 acceptor
1 6 acceptor
5 2 18 19 20 21 rings
6 6 8 9 14 15 16 rings
6 8 9 10 11 12 13 rings

>  <PUBCHEM_HEAVY_ATOM_COUNT>  (1) 
21

>  <PUBCHEM_ATOM_DEF_STEREO_COUNT>  (1) 
0

>  <PUBCHEM_ATOM_UDEF_STEREO_COUNT>  (1) 
0

>  <PUBCHEM_BOND_DEF_STEREO_COUNT>  (1) 
0

>  <PUBCHEM_BOND_UDEF_STEREO_COUNT>  (1) 
0

>  <PUBCHEM_ISOTOPIC_ATOM_COUNT>  (1) 
0

>  <PUBCHEM_COMPONENT_COUNT>  (1) 
1

>  <PUBCHEM_CACTVS_TAUTO_COUNT>  (1) 
1

>  <PUBCHEM_CONFORMER_ID>  (1) 
0000867E00000002

>  <PUBCHEM_MMFF94_ENERGY>  (1) 
65.8251

>  <PUBCHEM_FEATURE_SELFOVERLAP>  (1) 
45.792

>  <PUBCHEM_SHAPE_FINGERPRINT>  (1) 
10411042 1 17618220607320505935
10871710 139 16818572682523036013
10967382 1 18410291385357571668
1100329 8 18410569583422396354
11370993 70 18338512040522713921
11582403 64 16953897005025987047
11640471 11 17774735151473531889
11725454 13 17170081868861571693
12011746 2 18336271146079275908
12236239 1 17775279430945465901
12390115 104 18050299364364518836
12403259 327 16660640786698629112
12507560 14 18338507526818138530
12730499 353 18335709330097596841
12788726 201 17543621389323022754
13134695 92 18116146662866111886
13140716 1 18408884053144441434
13583140 156 17385991893265660449
14178342 30 17977368758151710976
14251717 144 18339638945330578111
14790565 3 18337965489451423772
16945 1 18338802195528278398
17138139 8 17628039568906386607
1813 80 17626676998625974510
18186145 218 18342461430402493053
20157964 124 18337948996834756717
204376 136 18410857689479984541
20510252 161 17404585966600499368
20645477 70 18334852767225778981
20739085 24 18262810549197768220
21524375 3 18201437012340669213
21639500 275 18410004416880410149
2255824 54 18341334383649776519
23184049 59 18408039589627954516
23558518 356 17829327231195785266
23559900 14 18338232657163707547
2748010 2 18264507207102607486
3060560 45 18340487768555394622
335352 9 18410572895174055980
350125 39 18121786289817014970
474 4 18412544293125178209
495365 180 18410282614676066473
5048184 11 18266179615796563308
6333272 397 18411983567822339443
633830 44 18131082506253969589
6443956 14 18049163259039601558
7164475 11 17981321510721766486
7364860 26 18338237055035813716
77492 1 17775279426813983461
7832392 63 18338796848847830924
8272917 22 18341335474898380925
84936 182 18202280303431525640

>  <PUBCHEM_SHAPE_MULTIPOLES>  (1) 
392.86
7.95
3.36
0.92
7.6
2.07
0.15
-5.17
0.13
-2.97
-0.35
0.72
-0.14
-0.23

>  <PUBCHEM_SHAPE_SELFOVERLAP>  (1) 
882.979

>  <PUBCHEM_SHAPE_VOLUME>  (1) 
205.1

>  <PUBCHEM_COORDINATE_TYPE>  (1) 
2
5
10

$$$$
