34448
     RDKit          3D

 26 27  0  0  1  0  0  0  0  0999 V2000
    2.0002   -2.5590    0.9310 S   0  0  0  0  0  0  0  0  0  0  0  0
    0.6004   -1.1734    1.5377 S   0  0  0  0  0  0  0  0  0  0  0  0
    1.3343   -2.6721   -2.0115 S   0  0  0  0  0  0  0  0  0  0  0  0
   -1.3589   -3.4496    1.8467 S   0  0  0  0  0  0  0  0  0  0  0  0
    2.6825    1.5147    0.0116 N   0  0  0  0  0  0  0  0  0  0  0  0
   -4.0199    0.6067    0.1008 N   0  0  0  0  0  0  0  0  0  0  0  0
    3.2366   -1.1824   -0.9012 N   0  0  0  0  0  0  0  0  0  0  0  0
   -1.6728   -1.3273    0.2694 N   0  0  0  0  0  0  0  0  0  0  0  0
    4.0730    1.3670    0.4527 C   0  0  0  0  0  0  0  0  0  0  0  0
   -4.6772   -0.5728   -0.4893 C   0  0  0  0  0  0  0  0  0  0  0  0
    2.4349    1.1297   -1.3853 C   0  0  0  0  0  0  0  0  0  0  0  0
   -2.7079    0.8640   -0.5151 C   0  0  0  0  0  0  0  0  0  0  0  0
    4.3219   -0.0383    1.0191 C   0  0  0  0  0  0  0  0  0  0  0  0
   -4.0259   -1.9156   -0.1461 C   0  0  0  0  0  0  0  0  0  0  0  0
    2.1917    2.8741    0.2456 C   0  0  0  0  0  0  0  0  0  0  0  0
   -4.8883    1.7765   -0.0808 C   0  0  0  0  0  0  0  0  0  0  0  0
    3.1364   -0.1309   -1.9004 C   0  0  0  0  0  0  0  0  0  0  0  0
   -1.5715    0.1231    0.1904 C   0  0  0  0  0  0  0  0  0  0  0  0
    4.3951   -1.1522   -0.0209 C   0  0  0  0  0  0  0  0  0  0  0  0
   -2.5809   -2.0502   -0.6110 C   0  0  0  0  0  0  0  0  0  0  0  0
    1.7570    3.0134    1.7011 C   0  0  0  0  0  0  0  0  0  0  0  0
    3.2717    3.8940   -0.1040 C   0  0  0  0  0  0  0  0  0  0  0  0
   -4.7620    2.3134   -1.5037 C   0  0  0  0  0  0  0  0  0  0  0  0
   -4.5206    2.8458    0.9430 C   0  0  0  0  0  0  0  0  0  0  0  0
    2.2459   -2.0960   -0.7403 C   0  0  0  0  0  0  0  0  0  0  0  0
   -0.8957   -2.0026    1.1603 C   0  0  0  0  0  0  0  0  0  0  0  0
  1  2  1  0
  1 25  1  0
  2 26  1  0
  3 25  2  0
  4 26  2  0
  5  9  1  0
  5 11  1  0
  5 15  1  0
  6 10  1  0
  6 12  1  0
  6 16  1  0
  7 17  1  0
  7 19  1  0
  7 25  1  0
  8 18  1  0
  8 20  1  0
  8 26  1  0
  9 13  1  0
 10 14  1  0
 11 17  1  0
 12 18  1  0
 13 19  1  0
 14 20  1  0
 15 21  1  0
 15 22  1  0
 16 23  1  0
 16 24  1  0
M  END
>  <PUBCHEM_COMPOUND_CID>  (1) 
34448

>  <PUBCHEM_CONFORMER_RMSD>  (1) 
1.4

>  <PUBCHEM_CONFORMER_DIVERSEORDER>  (1) 
7
10
31
35
17
19
93
72
46
23
49
5
3
73
53
85
84
92
87
76
13
77
95
39
64
34
71
91
90
26
63
22
32
59
15
33
8
28
86
45
97
42
12
55
79
1
36
81
89
58
38
88
29
44
70
50
69
41
78
57
68
14
82
83
18
21
60
16
47
48
98
27
30
65
40
56
67
62
61
99
20
43
94
51
52
2
96
80
74
24
4
9
66
6
11
37
25
75
54

>  <PUBCHEM_MMFF94_PARTIAL_CHARGES>  (1) 
20
1 -0.14
10 0.27
11 0.27
12 0.27
15 0.27
16 0.27
17 0.3
18 0.3
19 0.3
2 -0.14
20 0.3
25 0.58
26 0.58
3 -0.38
4 -0.38
5 -0.81
6 -0.81
7 -0.66
8 -0.66
9 0.27

>  <PUBCHEM_EFFECTIVE_ROTOR_COUNT>  (1) 
9.8

>  <PUBCHEM_PHARMACOPHORE_FEATURES>  (1) 
8
1 3 acceptor
1 4 acceptor
1 5 cation
1 6 cation
3 15 21 22 hydrophobe
3 16 23 24 hydrophobe
7 5 7 9 11 13 17 19 rings
7 6 8 10 12 14 18 20 rings

>  <PUBCHEM_HEAVY_ATOM_COUNT>  (1) 
26

>  <PUBCHEM_ATOM_DEF_STEREO_COUNT>  (1) 
0

>  <PUBCHEM_ATOM_UDEF_STEREO_COUNT>  (1) 
0

>  <PUBCHEM_BOND_DEF_STEREO_COUNT>  (1) 
0

>  <PUBCHEM_BOND_UDEF_STEREO_COUNT>  (1) 
0

>  <PUBCHEM_ISOTOPIC_ATOM_COUNT>  (1) 
0

>  <PUBCHEM_COMPONENT_COUNT>  (1) 
1

>  <PUBCHEM_CACTVS_TAUTO_COUNT>  (1) 
1

>  <PUBCHEM_CONFORMER_ID>  (1) 
0000869000000007

>  <PUBCHEM_MMFF94_ENERGY>  (1) 
75.1069

>  <PUBCHEM_FEATURE_SELFOVERLAP>  (1) 
40.596

>  <PUBCHEM_SHAPE_FINGERPRINT>  (1) 
11273773 38 17836367043461795297
12633257 1 18187914059075487392
12769317 202 18116707409654330215
12788726 201 17687759237974035606
1361 2 16831486464297881375
13617811 41 17968092097365493869
14251757 17 18272932721967488049
14251764 38 18265894833705285312
14289585 56 16900779336000101137
14468879 13 18122628515724255371
15238133 3 18261395525372683990
17980427 23 18195496295524540954
20567600 299 18201997750623550344
20715895 44 18200592467488880965
21315763 129 18412258467088400091
21315763 76 18266448824673613837
21860390 5 18270678667163869838
22393880 68 18199760283263080972
23227448 37 18411976966763827191
23558518 356 18262804106856996413
23559900 14 18272933786897597292
238 59 18057617662070863784
3680242 22 18189330169838157826
460360 51 18334023778302763939
46194498 28 18272657882678612191
5081480 168 17342411534143744623
508706 21 18260832634878891691
5309563 4 17039799932732849595
5895379 119 18200311000796143722
6443956 14 18339927013646545076
7399639 24 17477482474582284520
9709674 26 18338239395882940146

>  <PUBCHEM_SHAPE_MULTIPOLES>  (1) 
530.54
10.45
4.78
1.75
7.89
1.79
0.19
5.96
1.5
-0.48
-1.15
-0.63
-0.67
1.12

>  <PUBCHEM_SHAPE_SELFOVERLAP>  (1) 
1007.987

>  <PUBCHEM_SHAPE_VOLUME>  (1) 
328.6

>  <PUBCHEM_COORDINATE_TYPE>  (1) 
2
5
10

$$$$
