34443
     RDKit          3D

 15 17  0  0  1  0  0  0  0  0999 V2000
    4.6122    0.8552    0.1470 Cl  0  0  0  0  0  0  0  0  0  0  0  0
   -0.7202   -1.6225   -0.1886 O   0  0  0  0  0  0  0  0  0  0  0  0
   -2.9708    1.0976   -0.0754 O   0  0  0  0  0  0  0  0  0  0  0  0
   -0.4946    2.4734   -0.2000 O   0  0  0  0  0  0  0  0  0  0  0  0
   -1.6957    0.5225    0.0292 N   0  0  0  0  0  0  0  0  0  0  0  0
   -1.7651   -0.8629    0.4118 C   0  0  0  0  0  0  0  0  0  0  0  0
   -3.1294   -1.2604   -0.0834 C   0  0  0  0  0  0  0  0  0  0  0  0
   -3.9035    0.0234    0.1477 C   0  0  0  0  0  0  0  0  0  0  0  0
   -0.5661    1.2613   -0.0545 C   0  0  0  0  0  0  0  0  0  0  0  0
    0.6428    0.4037   -0.0022 C   0  0  0  0  0  0  0  0  0  0  0  0
    0.5009   -0.9927   -0.0886 C   0  0  0  0  0  0  0  0  0  0  0  0
    1.9129    0.9786    0.0711 C   0  0  0  0  0  0  0  0  0  0  0  0
    1.6337   -1.8052   -0.1245 C   0  0  0  0  0  0  0  0  0  0  0  0
    3.0409    0.1569    0.0555 C   0  0  0  0  0  0  0  0  0  0  0  0
    2.9021   -1.2291   -0.0453 C   0  0  0  0  0  0  0  0  0  0  0  0
  1 14  1  0
  2  6  1  0
  2 11  1  0
  3  5  1  0
  3  8  1  0
  4  9  2  0
  5  6  1  0
  5  9  1  0
  6  7  1  0
  7  8  1  0
  9 10  1  0
 10 11  2  0
 10 12  1  0
 11 13  1  0
 12 14  2  0
 13 15  2  0
 14 15  1  0
M  END
>  <PUBCHEM_COMPOUND_CID>  (1) 
34443

>  <PUBCHEM_CONFORMER_RMSD>  (1) 
0.4

>  <PUBCHEM_CONFORMER_DIVERSEORDER>  (1) 
1

>  <PUBCHEM_MMFF94_PARTIAL_CHARGES>  (1) 
17
1 -0.18
10 0.09
11 0.08
12 -0.15
13 -0.15
14 0.18
15 -0.15
2 -0.36
21 0.15
22 0.15
23 0.15
3 -0.32
4 -0.57
5 -0.32
6 0.58
8 0.28
9 0.54

>  <PUBCHEM_EFFECTIVE_ROTOR_COUNT>  (1) 
0.8

>  <PUBCHEM_PHARMACOPHORE_FEATURES>  (1) 
5
1 2 acceptor
1 4 acceptor
5 3 5 6 7 8 rings
6 10 11 12 13 14 15 rings
6 2 5 6 9 10 11 rings

>  <PUBCHEM_HEAVY_ATOM_COUNT>  (1) 
15

>  <PUBCHEM_ATOM_DEF_STEREO_COUNT>  (1) 
0

>  <PUBCHEM_ATOM_UDEF_STEREO_COUNT>  (1) 
1

>  <PUBCHEM_BOND_DEF_STEREO_COUNT>  (1) 
0

>  <PUBCHEM_BOND_UDEF_STEREO_COUNT>  (1) 
0

>  <PUBCHEM_ISOTOPIC_ATOM_COUNT>  (1) 
0

>  <PUBCHEM_COMPONENT_COUNT>  (1) 
1

>  <PUBCHEM_CACTVS_TAUTO_COUNT>  (1) 
1

>  <PUBCHEM_CONFORMER_ID>  (1) 
0000868B00000001

>  <PUBCHEM_MMFF94_ENERGY>  (1) 
45.1443

>  <PUBCHEM_FEATURE_SELFOVERLAP>  (1) 
25.531

>  <PUBCHEM_SHAPE_FINGERPRINT>  (1) 
10608611 8 18338514144993619292
10967382 1 18410575093374501710
11132069 177 18412541028891900552
11471102 20 18411415098672451487
11806522 49 18339357595256364511
12032990 46 18409737265609218379
12382932 28 18411702084092144531
13140716 1 18122630727563477408
13214271 11 18411697724700494943
13221675 6 18411419522768373582
13380535 76 18410012156575267538
14144814 61 18411139116958957907
14325111 11 18411419492418616456
14576447 43 18129083697336637847
15196674 1 18410855434358390506
15219456 202 18410855425784306230
15442244 35 18122343471893485242
15536298 74 18343303639430232470
15775835 57 18272090508766022106
16945 1 18122344583978596487
193761 8 17833832664262540171
19591789 44 15956695290464687811
200 152 18059848498318151319
20201158 50 18409167709864142619
20510252 161 18271244923999827656
20588541 1 18412266150916443186
20645477 70 18342173311132844967
21267235 1 18410302431554897742
21501502 16 18267586801727474632
2334 1 18410576205876623847
23402539 116 18341040899954971414
23402655 69 18342730785435084269
23463225 33 18408604759852497622
23559900 14 18268142055611568114
2748010 2 18410858746005178607
3312278 4 18410577296618709307
335352 9 18050568439136870455
34934 24 18410004438371155119
449060 62 18342460330901375690
4990 188 17917441917031067116
5104073 3 18410293571089796298
528886 8 18411695508565935490
537710 114 18409455811906916741
53812653 166 18343299297080983984
7364860 26 18124315162324539425
8809292 202 18261118447646276251
9709674 26 18410579478636746974

>  <PUBCHEM_SHAPE_MULTIPOLES>  (1) 
287.97
6.68
1.94
0.62
1.32
0.21
0.01
0.42
0.35
0.01
-0.13
0.03
-0.02
0.12

>  <PUBCHEM_SHAPE_SELFOVERLAP>  (1) 
626.417

>  <PUBCHEM_SHAPE_VOLUME>  (1) 
158.3

>  <PUBCHEM_COORDINATE_TYPE>  (1) 
2
5
10

$$$$
