34440
     RDKit          3D

 12 13  0  0  1  0  0  0  0  0999 V2000
   -4.0938    1.1151    0.0664 Cl  0  0  0  0  0  0  0  0  0  0  0  0
    1.2151   -1.3192   -0.0484 O   0  0  0  0  0  0  0  0  0  0  0  0
    4.1606    0.9429    0.0476 N   0  0  0  0  0  0  0  0  0  0  0  0
    2.0043   -0.1491   -0.3899 C   0  0  0  0  0  0  0  0  0  0  0  0
    1.1971    1.1113   -0.0418 C   0  0  0  0  0  0  0  0  0  0  0  0
   -0.1633    0.5292   -0.0507 C   0  0  0  0  0  0  0  0  0  0  0  0
   -0.0748   -0.8541   -0.0284 C   0  0  0  0  0  0  0  0  0  0  0  0
    3.3299   -0.2155    0.3508 C   0  0  0  0  0  0  0  0  0  0  0  0
   -1.3925    1.1620   -0.0180 C   0  0  0  0  0  0  0  0  0  0  0  0
   -1.1964   -1.6584    0.0303 C   0  0  0  0  0  0  0  0  0  0  0  0
   -2.5419    0.3686    0.0282 C   0  0  0  0  0  0  0  0  0  0  0  0
   -2.4443   -1.0327    0.0537 C   0  0  0  0  0  0  0  0  0  0  0  0
  1 11  1  0
  2  4  1  0
  2  7  1  0
  3  8  1  0
  4  5  1  0
  4  8  1  0
  5  6  1  0
  6  7  2  0
  6  9  1  0
  7 10  1  0
  9 11  2  0
 10 12  2  0
 11 12  1  0
M  END
>  <PUBCHEM_COMPOUND_CID>  (1) 
34440

>  <PUBCHEM_CONFORMER_RMSD>  (1) 
0.4

>  <PUBCHEM_CONFORMER_DIVERSEORDER>  (1) 
1
4
3
2
5

>  <PUBCHEM_MMFF94_PARTIAL_CHARGES>  (1) 
17
1 -0.18
10 -0.15
11 0.18
12 -0.15
18 0.15
19 0.15
2 -0.36
20 0.15
21 0.36
22 0.36
3 -0.99
4 0.28
5 0.14
6 -0.14
7 0.08
8 0.27
9 -0.15

>  <PUBCHEM_EFFECTIVE_ROTOR_COUNT>  (1) 
1.6

>  <PUBCHEM_PHARMACOPHORE_FEATURES>  (1) 
5
1 2 acceptor
1 3 cation
1 3 donor
5 2 4 5 6 7 rings
6 6 7 9 10 11 12 rings

>  <PUBCHEM_HEAVY_ATOM_COUNT>  (1) 
12

>  <PUBCHEM_ATOM_DEF_STEREO_COUNT>  (1) 
0

>  <PUBCHEM_ATOM_UDEF_STEREO_COUNT>  (1) 
1

>  <PUBCHEM_BOND_DEF_STEREO_COUNT>  (1) 
0

>  <PUBCHEM_BOND_UDEF_STEREO_COUNT>  (1) 
0

>  <PUBCHEM_ISOTOPIC_ATOM_COUNT>  (1) 
0

>  <PUBCHEM_COMPONENT_COUNT>  (1) 
1

>  <PUBCHEM_CACTVS_TAUTO_COUNT>  (1) 
1

>  <PUBCHEM_CONFORMER_ID>  (1) 
0000868800000001

>  <PUBCHEM_MMFF94_ENERGY>  (1) 
27.064

>  <PUBCHEM_FEATURE_SELFOVERLAP>  (1) 
25.474

>  <PUBCHEM_SHAPE_FINGERPRINT>  (1) 
10608611 8 18341609360436102224
11062470 55 18060418001821966865
11132069 177 18411415120453288472
11543360 7 15769480006689289685
12932764 1 17167852076222946668
13024252 1 14273449288880447631
13380535 76 18411699863873919511
14325111 11 18411136939642575796
14897335 6 18411697660518546039
15219456 202 18201446856616857678
15775835 57 18335422352555597497
16945 1 18410301293541142431
17846911 113 18341607092571784377
193761 8 17906454681659748069
20201158 50 18343865506608647135
20528008 55 18342733018243155912
20871998 184 18129104583493540207
21501502 16 18265335199271470301
23235685 24 18411975836955111533
23402539 116 18343291566335134013
23402655 69 18270668759344633685
23463225 33 18334009476277906362
23552423 10 18115870887131577015
23559900 14 18343867710876241004
2748010 2 18195528318636636581
366044 4 18410854343922091491
369184 2 18334573546806367762
528886 8 18411413999419221595
53812653 166 18341890783714664081
6333449 129 18341891917828610135
69090 78 18343014480683065943
7364860 26 18197215845800525726

>  <PUBCHEM_SHAPE_MULTIPOLES>  (1) 
237.97
6.19
1.55
0.63
1.57
0.29
0
-2.16
-0.4
-0.51
-0.01
0.01
0
0

>  <PUBCHEM_SHAPE_SELFOVERLAP>  (1) 
500.39

>  <PUBCHEM_SHAPE_VOLUME>  (1) 
136.7

>  <PUBCHEM_COORDINATE_TYPE>  (1) 
2
5
10

$$$$
