34458
     RDKit          3D

 25 29  0  0  1  0  0  0  0  0999 V2000
   -5.0412    2.0815    0.3799 O   0  0  0  0  0  0  0  0  0  0  0  0
   -6.1818    0.0665   -0.2848 O   0  0  0  0  0  0  0  0  0  0  0  0
    4.3279   -1.4171    0.4069 O   0  0  0  0  0  0  0  0  0  0  0  0
    5.7895    0.8335   -0.2146 O   0  0  0  0  0  0  0  0  0  0  0  0
    0.0853   -1.3731   -0.0626 N   0  0  0  0  0  0  0  0  0  0  0  0
   -0.5699   -0.1325    0.4192 C   0  0  0  0  0  0  0  0  0  0  0  0
    0.1230    1.0587   -0.2881 C   0  0  0  0  0  0  0  0  0  0  0  0
   -2.0831   -0.1142    0.2018 C   0  0  0  0  0  0  0  0  0  0  0  0
   -0.6547   -2.5677    0.3519 C   0  0  0  0  0  0  0  0  0  0  0  0
    1.4762   -1.4400    0.4173 C   0  0  0  0  0  0  0  0  0  0  0  0
   -2.0088   -2.5888   -0.3516 C   0  0  0  0  0  0  0  0  0  0  0  0
   -2.7708   -1.3063   -0.1480 C   0  0  0  0  0  0  0  0  0  0  0  0
    1.6302    0.9914   -0.2494 C   0  0  0  0  0  0  0  0  0  0  0  0
    2.2791   -0.2151    0.0563 C   0  0  0  0  0  0  0  0  0  0  0  0
   -2.8225    1.0638    0.4161 C   0  0  0  0  0  0  0  0  0  0  0  0
   -4.1619   -1.3005   -0.3448 C   0  0  0  0  0  0  0  0  0  0  0  0
    3.6795   -0.2616    0.0784 C   0  0  0  0  0  0  0  0  0  0  0  0
    2.3904    2.1248   -0.5673 C   0  0  0  0  0  0  0  0  0  0  0  0
   -4.1896    1.0307    0.2259 C   0  0  0  0  0  0  0  0  0  0  0  0
   -4.8405   -0.1176   -0.1497 C   0  0  0  0  0  0  0  0  0  0  0  0
    4.4277    0.8743   -0.2293 C   0  0  0  0  0  0  0  0  0  0  0  0
    3.7837    2.0657   -0.5548 C   0  0  0  0  0  0  0  0  0  0  0  0
   -6.3019    1.4645    0.0482 C   0  0  0  0  0  0  0  0  0  0  0  0
    5.2001   -1.9694   -0.5753 C   0  0  0  0  0  0  0  0  0  0  0  0
    6.4338    1.1483    1.0182 C   0  0  0  0  0  0  0  0  0  0  0  0
  1 19  1  0
  1 23  1  0
  2 20  1  0
  2 23  1  0
  3 17  1  0
  3 24  1  0
  4 21  1  0
  4 25  1  0
  5  6  1  0
  5  9  1  0
  5 10  1  0
  6  7  1  0
  6  8  1  0
  7 13  1  0
  8 12  2  0
  8 15  1  0
  9 11  1  0
 10 14  1  0
 11 12  1  0
 12 16  1  0
 13 14  2  0
 13 18  1  0
 14 17  1  0
 15 19  2  0
 16 20  2  0
 17 21  2  0
 18 22  2  0
 19 20  1  0
 21 22  1  0
M  END
>  <PUBCHEM_COMPOUND_CID>  (1) 
34458

>  <PUBCHEM_CONFORMER_RMSD>  (1) 
0.6

>  <PUBCHEM_CONFORMER_DIVERSEORDER>  (1) 
1
6
5
4
7
8
3
2

>  <PUBCHEM_MMFF94_PARTIAL_CHARGES>  (1) 
29
1 -0.36
10 0.41
11 0.14
12 -0.14
13 -0.14
14 -0.14
15 -0.15
16 -0.15
17 0.08
18 -0.15
19 0.08
2 -0.36
20 0.08
21 0.08
22 -0.15
23 0.56
24 0.28
25 0.28
3 -0.36
35 0.15
36 0.15
37 0.15
38 0.15
4 -0.36
5 -0.81
6 0.41
7 0.14
8 -0.14
9 0.27

>  <PUBCHEM_EFFECTIVE_ROTOR_COUNT>  (1) 
3.4

>  <PUBCHEM_PHARMACOPHORE_FEATURES>  (1) 
10
1 1 acceptor
1 2 acceptor
1 3 acceptor
1 4 acceptor
1 5 cation
5 1 2 19 20 23 rings
6 13 14 17 18 21 22 rings
6 5 6 7 10 13 14 rings
6 5 6 8 9 11 12 rings
6 8 12 15 16 19 20 rings

>  <PUBCHEM_HEAVY_ATOM_COUNT>  (1) 
25

>  <PUBCHEM_ATOM_DEF_STEREO_COUNT>  (1) 
0

>  <PUBCHEM_ATOM_UDEF_STEREO_COUNT>  (1) 
1

>  <PUBCHEM_BOND_DEF_STEREO_COUNT>  (1) 
0

>  <PUBCHEM_BOND_UDEF_STEREO_COUNT>  (1) 
0

>  <PUBCHEM_ISOTOPIC_ATOM_COUNT>  (1) 
0

>  <PUBCHEM_COMPONENT_COUNT>  (1) 
1

>  <PUBCHEM_CACTVS_TAUTO_COUNT>  (1) 
1

>  <PUBCHEM_CONFORMER_ID>  (1) 
0000869A00000001

>  <PUBCHEM_MMFF94_ENERGY>  (1) 
90.7708

>  <PUBCHEM_FEATURE_SELFOVERLAP>  (1) 
50.973

>  <PUBCHEM_SHAPE_FINGERPRINT>  (1) 
10411042 1 17687744944122609626
10595046 47 18339922748190060879
10763959 59 17603582998214250549
10906281 52 17896045507033985556
11578080 2 17344612963050169154
12107183 9 17906454329171873480
12236239 1 18272931605317922325
12788726 201 17846506889304253625
12838862 33 18337934745811618821
13177829 73 18410573998047149433
13533116 47 17989205902709764298
13583140 156 17489021694897793018
13785724 45 17832702370847780210
14341114 176 18410297994848003472
14790565 3 18410015407928762105
15183329 4 18410578374692482380
15196674 1 18410013251580736503
17492 89 18265900335717446038
1813 80 16950282910268609780
18335252 114 18337945698104688221
18608769 82 18339927147112765595
18681886 176 18343013393713461899
19141452 34 18408321111970585950
20511986 3 18342442760379961426
21033648 29 17702649095066804048
21033650 10 16843917220122583584
21236236 1 18339924913555665495
21267235 1 18410019823418802091
21279426 13 18339927013018810902
21298829 104 18411420605058460440
21421861 104 17822275861580017178
21859007 373 17896020066824886420
23402539 116 18343299301297018405
23558518 356 17536036906606437394
23559900 14 18201714106682996168
25147074 1 18336809962242962339
300161 21 18343579659777118370
3004659 81 18410014304438567726
335352 9 18409451354258397446
34797466 226 17132120181729971084
34934 24 18409727396264846226
350125 39 18408885113975100045
3545911 37 18411983580580777112
3680242 22 18187358797303592922
38695281 34 18343584019074797167
4017518 198 17632301147417304294
404807 14 16764252994417696566
4073 2 18114467863651580514
4214541 1 18410293652889385301
474 4 17968099758864592725
5104073 3 18334575762930359075
543358 83 18335139804422709658
57724786 102 17240775037293819884
59755656 215 18341338820957336748
59755656 520 16950560017136953859
6138700 20 18265618680362379198
6328613 192 18261401113041201540
633830 44 17822008756672360762
653340 110 18266454296304375440
67856867 119 18267582584138798224
7226269 152 18131354119843538977
9709674 26 18337679740544267094
9981440 41 18408888472887731803
9996256 80 18411985801844065539

>  <PUBCHEM_SHAPE_MULTIPOLES>  (1) 
486.03
14.88
2.57
0.75
0.48
0.76
0.03
-5.41
0.47
-0.13
-0.16
-0.38
-0.05
-0.33

>  <PUBCHEM_SHAPE_SELFOVERLAP>  (1) 
1083.182

>  <PUBCHEM_SHAPE_VOLUME>  (1) 
258.6

>  <PUBCHEM_COORDINATE_TYPE>  (1) 
2
5
10

$$$$
