34462
     RDKit          3D

 21 21  0  0  0  0  0  0  0  0999 V2000
   -2.2684    1.8347    0.3850 O   0  0  0  0  0  0  0  0  0  0  0  0
    3.3432   -1.2451   -0.7979 O   0  0  0  0  0  0  0  0  0  0  0  0
   -1.5386   -2.1590    0.0564 N   0  0  0  0  0  0  0  0  0  0  0  0
    4.8739    0.4144   -0.2487 N   0  0  0  0  0  0  0  0  0  0  0  0
    5.6429    0.1954   -1.3731 N   0  0  0  0  0  0  0  0  0  0  0  0
   -1.8642   -0.9581    0.8248 C   0  0  0  0  0  0  0  0  0  0  0  0
   -0.7375    0.0404    0.8094 C   0  0  0  0  0  0  0  0  0  0  0  0
   -2.6282   -3.1309    0.1408 C   0  0  0  0  0  0  0  0  0  0  0  0
   -1.2674   -1.8150   -1.3390 C   0  0  0  0  0  0  0  0  0  0  0  0
   -0.9985    1.3864    0.5908 C   0  0  0  0  0  0  0  0  0  0  0  0
    0.5595   -0.4099    1.0184 C   0  0  0  0  0  0  0  0  0  0  0  0
    1.6144    0.5026    1.0084 C   0  0  0  0  0  0  0  0  0  0  0  0
    0.0566    2.2989    0.5808 C   0  0  0  0  0  0  0  0  0  0  0  0
    1.3630    1.8570    0.7897 C   0  0  0  0  0  0  0  0  0  0  0  0
   -2.5318    2.4889   -0.8546 C   0  0  0  0  0  0  0  0  0  0  0  0
   -2.8830   -3.5462    1.5799 C   0  0  0  0  0  0  0  0  0  0  0  0
   -0.9269   -3.0517   -2.1530 C   0  0  0  0  0  0  0  0  0  0  0  0
    3.0113    0.0305    1.2316 C   0  0  0  0  0  0  0  0  0  0  0  0
   -2.9741    3.9186   -0.5824 C   0  0  0  0  0  0  0  0  0  0  0  0
   -3.5871    1.7052   -1.6199 C   0  0  0  0  0  0  0  0  0  0  0  0
    3.7410   -0.3570   -0.0475 C   0  0  0  0  0  0  0  0  0  0  0  0
  1 10  1  0
  1 15  1  0
  2 21  2  0
  3  6  1  0
  3  8  1  0
  3  9  1  0
  4  5  1  0
  4 21  1  0
  6  7  1  0
  7 10  2  0
  7 11  1  0
  8 16  1  0
  9 17  1  0
 10 13  1  0
 11 12  2  0
 12 14  1  0
 12 18  1  0
 13 14  2  0
 15 19  1  0
 15 20  1  0
 18 21  1  0
M  END
>  <PUBCHEM_COMPOUND_CID>  (1) 
34462

>  <PUBCHEM_CONFORMER_RMSD>  (1) 
0.8

>  <PUBCHEM_CONFORMER_DIVERSEORDER>  (1) 
3
223
114
190
222
109
238
251
76
243
174
205
188
193
81
116
242
253
51
82
126
220
74
56
103
228
230
78
255
123
88
201
29
225
179
136
241
171
227
13
209
52
198
75
84
200
233
192
157
110
154
107
139
246
167
124
187
141
20
98
86
102
97
137
19
7
210
180
196
106
142
26
226
69
129
239
250
203
132
170
224
148
229
80
57
218
204
199
131
14
219
127
175
213
30
150
244
195
9
214
38
83
211
202
65
166
23
163
90
237
254
111
165
115
173
16
44
25
216
153
130
10
140
185
40
96
152
144
58
231
47
160
8
32
176
67
247
91
194
33
54
125
245
217
183
34
36
128
236
100
5
94
28
87
215
172
240
41
119
72
79
60
17
99
133
147
221
48
104
234
169
2
43
45
77
161
1
68
208
206
207
186
232
168
101
138
18
181
164
53
151
158
15
24
62
39
21
35
235
113
117
155
108
93
212
184
112
197
249
27
73
22
50
248
31
37
46
63
149
159
11
66
156
6
118
134
135
145
71
64
189
143
121
191
89
182
122
4
95
70
178
49
252
12
85
92
42
105
61
162
59
55
146
177
120

>  <PUBCHEM_MMFF94_PARTIAL_CHARGES>  (1) 
23
1 -0.36
10 0.08
11 -0.15
12 -0.14
13 -0.15
14 -0.15
15 0.28
18 0.2
2 -0.57
21 0.57
28 0.15
29 0.15
3 -0.81
30 0.15
4 -0.42
46 0.37
47 0.36
48 0.36
5 -0.73
6 0.41
7 -0.14
8 0.27
9 0.27

>  <PUBCHEM_EFFECTIVE_ROTOR_COUNT>  (1) 
9

>  <PUBCHEM_PHARMACOPHORE_FEATURES>  (1) 
7
1 1 acceptor
1 2 acceptor
1 3 cation
1 4 donor
1 5 donor
3 15 19 20 hydrophobe
6 7 10 11 12 13 14 rings

>  <PUBCHEM_HEAVY_ATOM_COUNT>  (1) 
21

>  <PUBCHEM_ATOM_DEF_STEREO_COUNT>  (1) 
0

>  <PUBCHEM_ATOM_UDEF_STEREO_COUNT>  (1) 
0

>  <PUBCHEM_BOND_DEF_STEREO_COUNT>  (1) 
0

>  <PUBCHEM_BOND_UDEF_STEREO_COUNT>  (1) 
0

>  <PUBCHEM_ISOTOPIC_ATOM_COUNT>  (1) 
0

>  <PUBCHEM_COMPONENT_COUNT>  (1) 
1

>  <PUBCHEM_CACTVS_TAUTO_COUNT>  (1) 
2

>  <PUBCHEM_CONFORMER_ID>  (1) 
0000869E00000003

>  <PUBCHEM_MMFF94_ENERGY>  (1) 
52.9263

>  <PUBCHEM_FEATURE_SELFOVERLAP>  (1) 
37.032

>  <PUBCHEM_SHAPE_FINGERPRINT>  (1) 
107951 10 18263087617232039031
11488393 25 17840307723310843215
11578080 2 17056092371858536913
116883 192 18126542734422334757
12553582 1 18198620132829492146
12714826 92 18272093841745105098
12788726 201 18260537957426200475
13149001 5 18269814519512526713
13257819 37 18336828585384051917
13383661 66 15768919320447073862
14251757 5 18335701671643445831
15163728 17 17464825571181269109
1813 80 18051696843147218674
20602899 9 17774712074471552531
20645476 183 18041561317212704648
20739085 24 17833856115032234667
20871999 31 18411134727697631564
22182313 1 18129932511913022912
22907989 373 18412550924285963533
23419403 2 14830838934548299521
23557571 272 18192693760428003360
23559900 14 18270962342023652976
23598288 3 18408880720455788346
266924 78 16537344052800046719
2748010 2 18198608011961927512
298252 57 18191854635550688649
3060560 45 17977919342472579605
3759504 43 18262234404903911625
394222 165 17390223728658659280
458136 41 17832704570012966745
81228 2 18122600985558790761

>  <PUBCHEM_SHAPE_MULTIPOLES>  (1) 
405.49
7.4
4.59
1.65
11.62
0.45
0.54
-0.63
2.71
-7.26
0.63
-0.33
0.96
1.63

>  <PUBCHEM_SHAPE_SELFOVERLAP>  (1) 
813.038

>  <PUBCHEM_SHAPE_VOLUME>  (1) 
241

>  <PUBCHEM_COORDINATE_TYPE>  (1) 
2
5
10

$$$$
