34469
     RDKit          3D

 24 24  0  0  0  0  0  0  0  0999 V2000
    4.2831    1.4690   -0.2987 F   0  0  0  0  0  0  0  0  0  0  0  0
    4.3765   -0.3267    0.9139 F   0  0  0  0  0  0  0  0  0  0  0  0
    4.3137   -0.4841   -1.2540 F   0  0  0  0  0  0  0  0  0  0  0  0
    0.2024   -3.3939    0.1240 O   0  0  0  0  0  0  0  0  0  0  0  0
   -1.7179   -2.3307    0.0830 O   0  0  0  0  0  0  0  0  0  0  0  0
    0.1303    3.6153   -0.3756 O   0  0  0  0  0  0  0  0  0  0  0  0
   -1.7760    2.5322   -0.2638 O   0  0  0  0  0  0  0  0  0  0  0  0
   -1.9103    0.0800   -0.0851 N   0  0  0  0  0  0  0  0  0  0  0  0
   -0.4668   -2.3384    0.0605 N   0  0  0  0  0  0  0  0  0  0  0  0
   -0.5232    2.5498   -0.2872 N   0  0  0  0  0  0  0  0  0  0  0  0
    2.3571   -2.2771    0.0060 N   0  0  0  0  0  0  0  0  0  0  0  0
   -0.5086    0.0995   -0.1124 C   0  0  0  0  0  0  0  0  0  0  0  0
   -2.6405    0.1564    1.1573 C   0  0  0  0  0  0  0  0  0  0  0  0
   -2.6648   -0.0058   -1.3371 C   0  0  0  0  0  0  0  0  0  0  0  0
   -1.6857    0.3166    2.3357 C   0  0  0  0  0  0  0  0  0  0  0  0
   -4.1023   -0.4413   -1.0725 C   0  0  0  0  0  0  0  0  0  0  0  0
    0.2244   -1.0939   -0.0409 C   0  0  0  0  0  0  0  0  0  0  0  0
    0.1824    1.3157   -0.2112 C   0  0  0  0  0  0  0  0  0  0  0  0
    1.6188   -1.0714   -0.0677 C   0  0  0  0  0  0  0  0  0  0  0  0
    2.2952    0.1447   -0.1662 C   0  0  0  0  0  0  0  0  0  0  0  0
    1.5769    1.3381   -0.2379 C   0  0  0  0  0  0  0  0  0  0  0  0
   -2.4097    0.4474    3.6686 C   0  0  0  0  0  0  0  0  0  0  0  0
   -4.9434   -0.5025   -2.3400 C   0  0  0  0  0  0  0  0  0  0  0  0
    3.7883    0.2011   -0.1985 C   0  0  0  0  0  0  0  0  0  0  0  0
  1 24  1  0
  2 24  1  0
  3 24  1  0
  4  9  1  0
  5  9  2  0
  6 10  1  0
  7 10  2  0
  8 12  1  0
  8 13  1  0
  8 14  1  0
  9 17  1  0
 10 18  1  0
 11 19  1  0
 12 17  2  0
 12 18  1  0
 13 15  1  0
 14 16  1  0
 15 22  1  0
 16 23  1  0
 17 19  1  0
 18 21  2  0
 19 20  2  0
 20 21  1  0
 20 24  1  0
M  CHG  4   4  -1   6  -1   9   1  10   1
M  END
>  <PUBCHEM_COMPOUND_CID>  (1) 
34469

>  <PUBCHEM_CONFORMER_RMSD>  (1) 
0.8

>  <PUBCHEM_CONFORMER_DIVERSEORDER>  (1) 
1
2

>  <PUBCHEM_MMFF94_PARTIAL_CHARGES>  (1) 
23
1 -0.34
10 0.91
11 -0.9
12 0.1
13 0.37
14 0.37
17 0.13
18 0.13
19 0.1
2 -0.34
20 -0.14
21 -0.15
24 1.16
3 -0.34
33 0.15
4 -0.52
40 0.4
41 0.4
5 -0.52
6 -0.52
7 -0.52
8 -0.84
9 0.91

>  <PUBCHEM_EFFECTIVE_ROTOR_COUNT>  (1) 
8

>  <PUBCHEM_PHARMACOPHORE_FEATURES>  (1) 
12
1 11 cation
1 11 donor
1 22 hydrophobe
1 23 hydrophobe
1 4 acceptor
1 4 anion
1 5 acceptor
1 6 acceptor
1 6 anion
1 7 acceptor
1 8 cation
6 12 17 18 19 20 21 rings

>  <PUBCHEM_HEAVY_ATOM_COUNT>  (1) 
24

>  <PUBCHEM_ATOM_DEF_STEREO_COUNT>  (1) 
0

>  <PUBCHEM_ATOM_UDEF_STEREO_COUNT>  (1) 
0

>  <PUBCHEM_BOND_DEF_STEREO_COUNT>  (1) 
0

>  <PUBCHEM_BOND_UDEF_STEREO_COUNT>  (1) 
0

>  <PUBCHEM_ISOTOPIC_ATOM_COUNT>  (1) 
0

>  <PUBCHEM_COMPONENT_COUNT>  (1) 
1

>  <PUBCHEM_CACTVS_TAUTO_COUNT>  (1) 
1

>  <PUBCHEM_CONFORMER_ID>  (1) 
000086A500000001

>  <PUBCHEM_MMFF94_ENERGY>  (1) 
115.1072

>  <PUBCHEM_FEATURE_SELFOVERLAP>  (1) 
61.058

>  <PUBCHEM_SHAPE_FINGERPRINT>  (1) 
10498660 4 18335706108787664100
10693767 8 18129641063732653447
10967382 1 18409445903738845454
11680986 33 17981035633034227445
12236239 1 17846502539219313095
12553582 1 18337403702974651468
12592029 89 18259977167646195451
12596599 1 17559402352887442583
13140716 1 18265057019061969160
13583140 156 16950566622970844600
13911987 19 18261116308847054182
13965767 371 16765404269233378233
14787075 74 17273115011450681609
14790565 3 18337691761868052644
15309172 13 18338251391879455570
16752209 62 18335415721542934348
16945 1 18409174303034340532
17492 54 18335972147303857399
18219364 16 18261683665611110755
19010151 120 18271802436624807325
200 152 17846212302208865855
20510252 161 18342457002713541832
229495 10 17910689665505724889
2334 1 17905049501620449756
23352939 185 18201148923678928909
23402539 116 18342164566436498901
23419403 2 17532955989311179625
23493267 7 17022621957428778408
23557571 272 14907911470283089281
23558518 356 17682115474304286656
23559900 14 18340488984811867612
2748010 2 18047764697814048500
3286 77 16988838385039772776
70251023 43 18048874096404506691
81228 2 18197504132721858186

>  <PUBCHEM_SHAPE_MULTIPOLES>  (1) 
428.69
7.12
2.85
2.04
2.25
0.21
2.18
-0.81
-3.09
0.37
-0.29
-3.23
0.43
-0.82

>  <PUBCHEM_SHAPE_SELFOVERLAP>  (1) 
897.564

>  <PUBCHEM_SHAPE_VOLUME>  (1) 
243.6

>  <PUBCHEM_COORDINATE_TYPE>  (1) 
2
5
10

$$$$
