34466
     RDKit          3D

 16 16  0  0  0  0  0  0  0  0999 V2000
   -0.6018    2.7119   -0.2824 Cl  0  0  0  0  0  0  0  0  0  0  0  0
   -0.6038   -2.7113   -0.2825 Cl  0  0  0  0  0  0  0  0  0  0  0  0
    2.5194   -2.7197    0.1054 Cl  0  0  0  0  0  0  0  0  0  0  0  0
    2.5216    2.7185    0.1027 Cl  0  0  0  0  0  0  0  0  0  0  0  0
    4.0806   -0.0007    0.2977 Cl  0  0  0  0  0  0  0  0  0  0  0  0
   -2.3736   -0.0012   -2.1084 Cl  0  0  0  0  0  0  0  0  0  0  0  0
   -4.4719    0.0001    0.3338 Cl  0  0  0  0  0  0  0  0  0  0  0  0
   -2.2430    0.0022    2.2389 Cl  0  0  0  0  0  0  0  0  0  0  0  0
   -0.4181    0.0004   -0.2618 C   0  0  0  0  0  0  0  0  0  0  0  0
    0.2748    1.2081   -0.1757 C   0  0  0  0  0  0  0  0  0  0  0  0
    0.2736   -1.2079   -0.1759 C   0  0  0  0  0  0  0  0  0  0  0  0
    1.6578   -1.2084   -0.0041 C   0  0  0  0  0  0  0  0  0  0  0  0
    1.6590    1.2075   -0.0041 C   0  0  0  0  0  0  0  0  0  0  0  0
    2.3506   -0.0008    0.0817 C   0  0  0  0  0  0  0  0  0  0  0  0
   -1.8720    0.0005   -0.4428 C   0  0  0  0  0  0  0  0  0  0  0  0
   -2.7532    0.0006    0.5775 C   0  0  0  0  0  0  0  0  0  0  0  0
  1 10  1  0
  2 11  1  0
  3 12  1  0
  4 13  1  0
  5 14  1  0
  6 15  1  0
  7 16  1  0
  8 16  1  0
  9 10  2  0
  9 11  1  0
  9 15  1  0
 10 13  1  0
 11 12  2  0
 12 14  1  0
 13 14  2  0
 15 16  2  3
M  END
>  <PUBCHEM_COMPOUND_CID>  (1) 
34466

>  <PUBCHEM_CONFORMER_RMSD>  (1) 
0.6

>  <PUBCHEM_CONFORMER_DIVERSEORDER>  (1) 
1

>  <PUBCHEM_MMFF94_PARTIAL_CHARGES>  (1) 
16
1 -0.18
10 0.18
11 0.18
12 0.18
13 0.18
14 0.18
15 0.11
16 0.28
2 -0.18
3 -0.18
4 -0.18
5 -0.18
6 -0.14
7 -0.14
8 -0.14
9 0.03

>  <PUBCHEM_EFFECTIVE_ROTOR_COUNT>  (1) 
1

>  <PUBCHEM_PHARMACOPHORE_FEATURES>  (1) 
1
6 9 10 11 12 13 14 rings

>  <PUBCHEM_HEAVY_ATOM_COUNT>  (1) 
16

>  <PUBCHEM_ATOM_DEF_STEREO_COUNT>  (1) 
0

>  <PUBCHEM_ATOM_UDEF_STEREO_COUNT>  (1) 
0

>  <PUBCHEM_BOND_DEF_STEREO_COUNT>  (1) 
0

>  <PUBCHEM_BOND_UDEF_STEREO_COUNT>  (1) 
0

>  <PUBCHEM_ISOTOPIC_ATOM_COUNT>  (1) 
0

>  <PUBCHEM_COMPONENT_COUNT>  (1) 
1

>  <PUBCHEM_CACTVS_TAUTO_COUNT>  (1) 
1

>  <PUBCHEM_CONFORMER_ID>  (1) 
000086A200000001

>  <PUBCHEM_MMFF94_ENERGY>  (1) 
43.9086

>  <PUBCHEM_FEATURE_SELFOVERLAP>  (1) 
5.074

>  <PUBCHEM_SHAPE_FINGERPRINT>  (1) 
10967382 1 18410853270079904318
11471102 20 18410008831895670380
11471102 22 18335434451589181921
12236239 1 17703788124562069327
12423570 1 10725085477912305685
12491281 212 16772974608226465761
12553582 1 18411973638258988190
13140716 1 18266170824388314082
13172582 1 18411418448910401104
13380535 21 18120941865266912092
13538477 17 17060329717620169735
13583140 156 16734641239415850712
14178342 30 17981313800975667888
14790565 3 18338531806290212748
14817 1 8877798646343982275
15209294 21 17703788081454219264
15219456 202 18114739326837646543
15309172 13 18410864273543705523
15775835 57 17917992767534172577
16945 1 18410567388551137542
18219364 16 18263073478130778028
19049666 15 17750225911829300001
193761 8 17834673790858138548
20645477 70 18334853922556345727
21041028 32 18125161532937672856
21061003 4 18191320281505276299
21501502 16 18122621927544882662
22112679 90 17346308345455761781
23184049 59 18410858775953781617
2334 1 17977659046258511222
23402539 116 18201428199094021726
23493267 7 17168131313442977596
23526113 38 17825362138456668983
23557571 272 16877943806477410388
23558518 356 17899421882881589637
23559900 14 16732700528235691114
2748010 2 18050841131454015292
31174 14 18335144171966619315
568465 68 17968960667610091051
58807428 26 18194662973485204912
63268167 104 18343014476097935123
77492 1 17703787029255725111
81228 2 17184177354526601914
8272917 22 18270412594377699555

>  <PUBCHEM_SHAPE_MULTIPOLES>  (1) 
344.23
5.94
2.91
1.32
1.17
0
0.13
0
0.97
-2.2
-0.21
1.51
0
0

>  <PUBCHEM_SHAPE_SELFOVERLAP>  (1) 
652.093

>  <PUBCHEM_SHAPE_VOLUME>  (1) 
207.3

>  <PUBCHEM_COORDINATE_TYPE>  (1) 
2
5
10

$$$$
