34467
     RDKit          3D

 15 15  0  0  0  0  0  0  0  0999 V2000
   -0.7556    2.7121    0.0865 Cl  0  0  0  0  0  0  0  0  0  0  0  0
   -0.7579   -2.7110    0.0856 Cl  0  0  0  0  0  0  0  0  0  0  0  0
    2.3854   -2.7198   -0.0807 Cl  0  0  0  0  0  0  0  0  0  0  0  0
    2.3874    2.7190   -0.0803 Cl  0  0  0  0  0  0  0  0  0  0  0  0
    3.9564   -0.0014   -0.1597 Cl  0  0  0  0  0  0  0  0  0  0  0  0
   -2.7020   -0.0015    1.7473 Cl  0  0  0  0  0  0  0  0  0  0  0  0
   -4.5631    0.0008   -0.8476 Cl  0  0  0  0  0  0  0  0  0  0  0  0
   -0.5709    0.0006    0.0747 C   0  0  0  0  0  0  0  0  0  0  0  0
    0.1259    1.2083    0.0382 C   0  0  0  0  0  0  0  0  0  0  0  0
    0.1251   -1.2077    0.0385 C   0  0  0  0  0  0  0  0  0  0  0  0
    1.5182   -1.2083   -0.0343 C   0  0  0  0  0  0  0  0  0  0  0  0
    1.5189    1.2078   -0.0347 C   0  0  0  0  0  0  0  0  0  0  0  0
    2.2152   -0.0005   -0.0708 C   0  0  0  0  0  0  0  0  0  0  0  0
   -2.0344    0.0010    0.1495 C   0  0  0  0  0  0  0  0  0  0  0  0
   -2.8487    0.0004   -0.9122 C   0  0  0  0  0  0  0  0  0  0  0  0
  1  9  1  0
  2 10  1  0
  3 11  1  0
  4 12  1  0
  5 13  1  0
  6 14  1  0
  7 15  1  0
  8  9  2  0
  8 10  1  0
  8 14  1  0
  9 12  1  0
 10 11  2  0
 11 13  1  0
 12 13  2  0
 14 15  2  0
M  END
>  <PUBCHEM_COMPOUND_CID>  (1) 
34467

>  <PUBCHEM_CONFORMER_RMSD>  (1) 
0.4

>  <PUBCHEM_CONFORMER_DIVERSEORDER>  (1) 
1

>  <PUBCHEM_MMFF94_PARTIAL_CHARGES>  (1) 
16
1 -0.18
10 0.18
11 0.18
12 0.18
13 0.18
14 0.11
15 -0.01
16 0.15
2 -0.18
3 -0.18
4 -0.18
5 -0.18
6 -0.14
7 -0.14
8 0.03
9 0.18

>  <PUBCHEM_EFFECTIVE_ROTOR_COUNT>  (1) 
1

>  <PUBCHEM_PHARMACOPHORE_FEATURES>  (1) 
1
6 8 9 10 11 12 13 rings

>  <PUBCHEM_HEAVY_ATOM_COUNT>  (1) 
15

>  <PUBCHEM_ATOM_DEF_STEREO_COUNT>  (1) 
0

>  <PUBCHEM_ATOM_UDEF_STEREO_COUNT>  (1) 
0

>  <PUBCHEM_BOND_DEF_STEREO_COUNT>  (1) 
0

>  <PUBCHEM_BOND_UDEF_STEREO_COUNT>  (1) 
1

>  <PUBCHEM_ISOTOPIC_ATOM_COUNT>  (1) 
0

>  <PUBCHEM_COMPONENT_COUNT>  (1) 
1

>  <PUBCHEM_CACTVS_TAUTO_COUNT>  (1) 
1

>  <PUBCHEM_CONFORMER_ID>  (1) 
000086A300000001

>  <PUBCHEM_MMFF94_ENERGY>  (1) 
42.9285

>  <PUBCHEM_FEATURE_SELFOVERLAP>  (1) 
5.074

>  <PUBCHEM_SHAPE_FINGERPRINT>  (1) 
10967382 1 18410573994052596142
11132069 177 18339074990855852568
11206711 2 18337116648651002228
11471102 20 18409727369920010124
11471102 22 18191332466253363259
12236239 1 17703793613619924827
13140716 1 18266745868916893506
13380535 21 18049457121002907820
13380535 76 18410852192011945166
14251717 144 18411693279768026743
14576447 43 18200858678321017095
14790565 3 18194711274403526792
14817 1 16170812496803705816
14911166 2 18410576197492171110
14993402 34 18413669114678802951
15219456 202 18114464577864188785
16945 1 18410581682112627754
18186145 218 18270130126556993133
18219364 16 18192439773310305545
193761 8 17762056545343617780
200 152 18202559588422664613
20201158 50 18334293158371889483
20588541 1 18409731772477805198
20645477 70 18408598180273953599
21501502 16 18122627150124881196
22112679 90 17346326994367284993
221490 88 18336827619148830791
2334 1 17978795941197235466
23402539 116 18343291570192127998
23402655 69 18338785729277767821
23419403 2 16669589574476778122
23493267 7 17313103055299446465
23526113 38 18113893806622353859
23526114 1 18122063371353502692
23559900 14 18270696380574687516
23598291 2 17844255020960923567
25 1 18335974354890556613
2748010 2 18122632922740119212
528886 8 18411694409001508171
63268167 104 18413668011172797155
7364860 26 18413103966203064940
77492 1 17703795812532410667
81228 2 17327742795251929978
84936 182 18130781317488595081

>  <PUBCHEM_SHAPE_MULTIPOLES>  (1) 
321.78
5.98
3.07
0.96
2.72
0
-0.28
0
1.06
-1.99
0
0.96
0
0

>  <PUBCHEM_SHAPE_SELFOVERLAP>  (1) 
613.567

>  <PUBCHEM_SHAPE_VOLUME>  (1) 
193.2

>  <PUBCHEM_COORDINATE_TYPE>  (1) 
2
5
10

$$$$
