34461
     RDKit          3D

 21 21  0  0  0  0  0  0  0  0999 V2000
   -1.8917    1.1612   -0.7328 O   0  0  0  0  0  0  0  0  0  0  0  0
    3.8836   -1.2389    1.0749 O   0  0  0  0  0  0  0  0  0  0  0  0
   -2.2293   -1.4035    0.1332 N   0  0  0  0  0  0  0  0  0  0  0  0
    5.3033    0.4971    0.4672 N   0  0  0  0  0  0  0  0  0  0  0  0
    6.0237    0.4324    1.6422 N   0  0  0  0  0  0  0  0  0  0  0  0
   -1.2070   -1.6143   -0.8910 C   0  0  0  0  0  0  0  0  0  0  0  0
   -0.1824   -0.5112   -0.8962 C   0  0  0  0  0  0  0  0  0  0  0  0
   -3.4499   -2.1347   -0.2049 C   0  0  0  0  0  0  0  0  0  0  0  0
   -1.7320   -1.8177    1.4446 C   0  0  0  0  0  0  0  0  0  0  0  0
   -0.5740    0.8252   -0.8169 C   0  0  0  0  0  0  0  0  0  0  0  0
    1.1711   -0.8373   -0.9810 C   0  0  0  0  0  0  0  0  0  0  0  0
    2.1331    0.1728   -0.9862 C   0  0  0  0  0  0  0  0  0  0  0  0
    0.3878    1.8355   -0.8221 C   0  0  0  0  0  0  0  0  0  0  0  0
    1.7414    1.5093   -0.9068 C   0  0  0  0  0  0  0  0  0  0  0  0
   -4.0150   -1.6731   -1.5375 C   0  0  0  0  0  0  0  0  0  0  0  0
   -2.7820   -1.6055    2.5220 C   0  0  0  0  0  0  0  0  0  0  0  0
    3.5802   -0.1754   -1.0775 C   0  0  0  0  0  0  0  0  0  0  0  0
   -2.3028    1.8870    0.4240 C   0  0  0  0  0  0  0  0  0  0  0  0
   -3.7994    2.1437    0.3372 C   0  0  0  0  0  0  0  0  0  0  0  0
    4.2496   -0.3811    0.2747 C   0  0  0  0  0  0  0  0  0  0  0  0
   -4.3081    2.9286    1.5330 C   0  0  0  0  0  0  0  0  0  0  0  0
  1 10  1  0
  1 18  1  0
  2 20  2  0
  3  6  1  0
  3  8  1  0
  3  9  1  0
  4  5  1  0
  4 20  1  0
  6  7  1  0
  7 10  2  0
  7 11  1  0
  8 15  1  0
  9 16  1  0
 10 13  1  0
 11 12  2  0
 12 14  1  0
 12 17  1  0
 13 14  2  0
 17 20  1  0
 18 19  1  0
 19 21  1  0
M  END
>  <PUBCHEM_COMPOUND_CID>  (1) 
34461

>  <PUBCHEM_CONFORMER_RMSD>  (1) 
1

>  <PUBCHEM_CONFORMER_DIVERSEORDER>  (1) 
5
111
125
96
68
89
39
11
36
14
49
7
37
109
113
48
87
32
21
24
83
117
41
53
84
100
40
105
22
23
58
42
104
107
90
56
103
124
57
17
2
6
44
61
52
79
43
60
67
20
66
54
94
51
85
50
70
62
91
119
18
101
69
4
86
88
38
108
99
77
81
9
112
74
8
55
115
45
31
30
82
72
73
71
65
116
1
97
120
106
28
25
59
102
15
93
76
27
35
63
110
19
123
95
47
46
114
92
33
10
98
121
75
64
3
118
34
12
16
78
29
13
26
122
80

>  <PUBCHEM_MMFF94_PARTIAL_CHARGES>  (1) 
23
1 -0.36
10 0.08
11 -0.15
12 -0.14
13 -0.15
14 -0.15
17 0.2
18 0.28
2 -0.57
20 0.57
28 0.15
29 0.15
3 -0.81
30 0.15
4 -0.42
46 0.37
47 0.36
48 0.36
5 -0.73
6 0.41
7 -0.14
8 0.27
9 0.27

>  <PUBCHEM_EFFECTIVE_ROTOR_COUNT>  (1) 
10

>  <PUBCHEM_PHARMACOPHORE_FEATURES>  (1) 
7
1 1 acceptor
1 2 acceptor
1 21 hydrophobe
1 3 cation
1 4 donor
1 5 donor
6 7 10 11 12 13 14 rings

>  <PUBCHEM_HEAVY_ATOM_COUNT>  (1) 
21

>  <PUBCHEM_ATOM_DEF_STEREO_COUNT>  (1) 
0

>  <PUBCHEM_ATOM_UDEF_STEREO_COUNT>  (1) 
0

>  <PUBCHEM_BOND_DEF_STEREO_COUNT>  (1) 
0

>  <PUBCHEM_BOND_UDEF_STEREO_COUNT>  (1) 
0

>  <PUBCHEM_ISOTOPIC_ATOM_COUNT>  (1) 
0

>  <PUBCHEM_COMPONENT_COUNT>  (1) 
1

>  <PUBCHEM_CACTVS_TAUTO_COUNT>  (1) 
2

>  <PUBCHEM_CONFORMER_ID>  (1) 
0000869D00000005

>  <PUBCHEM_MMFF94_ENERGY>  (1) 
48.5485

>  <PUBCHEM_FEATURE_SELFOVERLAP>  (1) 
37.032

>  <PUBCHEM_SHAPE_FINGERPRINT>  (1) 
11315181 36 18334849554922616068
11578080 2 17561089064123018395
12553582 1 18191886693313381118
12633257 1 17968106299857295364
12788726 201 18269286827166443975
13140716 1 18335430079392232396
13994607 96 15123514722147378979
14022347 108 17974879201590626924
14178342 30 18411422782574679094
16945 1 18124617510905138503
17980427 23 18410857685027314676
21033648 29 17346303900406982866
21501502 16 18335714882820703301
23419403 2 16199853073417041291
23526113 38 17609487586446187079
23558518 356 18263373649564650669
23559900 14 17241882284663682052
25147074 1 18261685868919167988
26918003 58 17458895046432582070
2748010 2 18126027999555858407
484985 159 17240485835960925235
4921388 177 11314305057428169787
5104073 3 18339626886006533728
53917941 68 18268136579575830029
58807428 26 18262805034100713187
5924683 9 18412257350391375111
9862522 239 18117560630962684949

>  <PUBCHEM_SHAPE_MULTIPOLES>  (1) 
405.49
9.96
2.83
1.8
11.81
1.02
0.91
1.38
4.56
-4.78
0.62
-0.56
-0.57
-0.95

>  <PUBCHEM_SHAPE_SELFOVERLAP>  (1) 
809.793

>  <PUBCHEM_SHAPE_VOLUME>  (1) 
241.3

>  <PUBCHEM_COORDINATE_TYPE>  (1) 
2
5
10

$$$$
