34471
     RDKit          3D

 16 17  0  0  0  0  0  0  0  0999 V2000
   -1.0503   -1.9456   -0.3762 O   0  0  0  0  0  0  0  0  0  0  0  0
   -2.8460    0.0131   -1.7289 O   0  0  0  0  0  0  0  0  0  0  0  0
    1.2438    2.0222   -0.1309 N   0  0  0  0  0  0  0  0  0  0  0  0
   -3.2459    0.0483    0.5866 N   0  0  0  0  0  0  0  0  0  0  0  0
    1.4028   -0.2022   -0.0677 C   0  0  0  0  0  0  0  0  0  0  0  0
    0.0392    0.1615   -0.2494 C   0  0  0  0  0  0  0  0  0  0  0  0
    2.1372    0.9835    0.0034 C   0  0  0  0  0  0  0  0  0  0  0  0
   -0.0267    1.5354   -0.2838 C   0  0  0  0  0  0  0  0  0  0  0  0
    2.0849   -1.4301    0.0434 C   0  0  0  0  0  0  0  0  0  0  0  0
   -1.0989   -0.7036   -0.3785 C   0  0  0  0  0  0  0  0  0  0  0  0
    3.5253    1.0026    0.1807 C   0  0  0  0  0  0  0  0  0  0  0  0
   -2.5026   -0.1758   -0.5678 C   0  0  0  0  0  0  0  0  0  0  0  0
    3.4732   -1.4264    0.2209 C   0  0  0  0  0  0  0  0  0  0  0  0
    4.1803   -0.2276    0.2883 C   0  0  0  0  0  0  0  0  0  0  0  0
   -4.6049    0.5668    0.5422 C   0  0  0  0  0  0  0  0  0  0  0  0
   -2.7111   -0.2221    1.9177 C   0  0  0  0  0  0  0  0  0  0  0  0
  1 10  2  0
  2 12  2  0
  3  7  1  0
  3  8  1  0
  4 12  1  0
  4 15  1  0
  4 16  1  0
  5  6  1  0
  5  7  2  0
  5  9  1  0
  6  8  2  0
  6 10  1  0
  7 11  1  0
  9 13  2  0
 10 12  1  0
 11 14  2  0
 13 14  1  0
M  END
>  <PUBCHEM_COMPOUND_CID>  (1) 
34471

>  <PUBCHEM_CONFORMER_RMSD>  (1) 
0.6

>  <PUBCHEM_CONFORMER_DIVERSEORDER>  (1) 
2
4
17
18
3
1
16
9
19
6
8
7
12
14
13
5
10
11
15

>  <PUBCHEM_MMFF94_PARTIAL_CHARGES>  (1) 
21
1 -0.57
10 0.66
11 -0.15
12 0.63
13 -0.15
14 -0.15
15 0.3
16 0.3
17 0.15
18 0.27
19 0.15
2 -0.57
20 0.15
21 0.15
22 0.15
3 0.03
4 -0.66
6 -0.09
7 -0.15
8 -0.3
9 -0.15

>  <PUBCHEM_EFFECTIVE_ROTOR_COUNT>  (1) 
3

>  <PUBCHEM_PHARMACOPHORE_FEATURES>  (1) 
6
1 1 acceptor
1 2 acceptor
1 3 cation
1 3 donor
5 3 5 6 7 8 rings
6 5 7 9 11 13 14 rings

>  <PUBCHEM_HEAVY_ATOM_COUNT>  (1) 
16

>  <PUBCHEM_ATOM_DEF_STEREO_COUNT>  (1) 
0

>  <PUBCHEM_ATOM_UDEF_STEREO_COUNT>  (1) 
0

>  <PUBCHEM_BOND_DEF_STEREO_COUNT>  (1) 
0

>  <PUBCHEM_BOND_UDEF_STEREO_COUNT>  (1) 
0

>  <PUBCHEM_ISOTOPIC_ATOM_COUNT>  (1) 
0

>  <PUBCHEM_COMPONENT_COUNT>  (1) 
1

>  <PUBCHEM_CACTVS_TAUTO_COUNT>  (1) 
3

>  <PUBCHEM_CONFORMER_ID>  (1) 
000086A700000002

>  <PUBCHEM_MMFF94_ENERGY>  (1) 
27.8868

>  <PUBCHEM_FEATURE_SELFOVERLAP>  (1) 
30.539

>  <PUBCHEM_SHAPE_FINGERPRINT>  (1) 
10130415 120 18411695491633836632
10646746 165 15051738564357609370
11132069 177 18338784711291130608
11471102 20 18408880741755979868
12236239 1 17847058874859821071
12251169 10 18343022198533425496
12382932 28 18341895229285448634
124424 183 18040424486619290295
13140716 1 18266173014758351002
13296908 3 18040150716998570394
13675066 3 18343867705911458169
13760787 5 18408881841494454660
14144814 61 18343017809024179338
14178342 30 18124861606987330082
14252887 29 18340774754180874138
15309172 13 18412265025672188223
15375462 189 18187639189764032330
15653759 3 17385724699018343813
15775835 57 17846784005300309609
16945 1 18410570717087735300
17844478 74 17748826310694264381
18186145 218 18410290315752615446
19049666 15 17677322793354958515
200 152 18129934706731007855
20279233 1 17676483951771652059
20645477 70 18336816503372412478
20871998 22 18197502831399229182
21267235 1 18410581647900894254
21501502 16 18119811558396582718
22094290 60 15574712482590254317
23184049 59 18412547591396317335
23402539 116 15267054818866941153
23493267 7 17096073693497972405
23557571 272 16153425043487273556
23559900 14 17168417165645237498
2748010 2 18122335784054701100
5104073 3 18339918315995061946
602551 16 16009039426721353369
6992083 37 18343022220018824581
74978 22 18270961374521861439
77492 1 17847059999466084278

>  <PUBCHEM_SHAPE_MULTIPOLES>  (1) 
307.57
7.58
1.61
1.08
1.91
0.07
-0.17
-0.16
-1.53
-1
0.1
1.23
-0.08
-0.09

>  <PUBCHEM_SHAPE_SELFOVERLAP>  (1) 
664.196

>  <PUBCHEM_SHAPE_VOLUME>  (1) 
170.9

>  <PUBCHEM_COORDINATE_TYPE>  (1) 
2
5
10

$$$$
