34476
     RDKit          3D

 13 12  0  0  0  0  0  0  0  0999 V2000
   -1.8982   -1.1278   -0.3484 S   0  0  0  0  0  0  0  0  0  0  0  0
    1.9556   -0.6650    0.0609 O   0  0  0  0  0  0  0  0  0  0  0  0
    2.3306    1.6010   -0.1093 O   0  0  0  0  0  0  0  0  0  0  0  0
    0.6213   -0.2848   -0.1320 N   0  0  0  0  0  0  0  0  0  0  0  0
    4.0591    0.0945    0.2359 N   0  0  0  0  0  0  0  0  0  0  0  0
   -5.1420    0.4590    1.1252 N   0  0  0  0  0  0  0  0  0  0  0  0
   -2.0539    0.6613   -0.5358 C   0  0  0  0  0  0  0  0  0  0  0  0
   -3.4902    1.0899   -0.8227 C   0  0  0  0  0  0  0  0  0  0  0  0
   -0.1612   -1.3174   -0.1258 C   0  0  0  0  0  0  0  0  0  0  0  0
    0.2986   -2.7410    0.0630 C   0  0  0  0  0  0  0  0  0  0  0  0
   -4.4125    0.7364    0.2665 C   0  0  0  0  0  0  0  0  0  0  0  0
    2.7409    0.4549    0.0467 C   0  0  0  0  0  0  0  0  0  0  0  0
    5.1518    1.0390    0.2759 C   0  0  0  0  0  0  0  0  0  0  0  0
  1  7  1  0
  1  9  1  0
  2  4  1  0
  2 12  1  0
  3 12  2  0
  4  9  2  0
  5 12  1  0
  5 13  1  0
  6 11  3  0
  7  8  1  0
  8 11  1  0
  9 10  1  0
M  END
>  <PUBCHEM_COMPOUND_CID>  (1) 
34476

>  <PUBCHEM_CONFORMER_RMSD>  (1) 
0.6

>  <PUBCHEM_CONFORMER_DIVERSEORDER>  (1) 
1
24
136
171
266
262
247
291
239
298
190
188
254
186
297
323
253
12
197
82
155
325
10
288
124
337
232
55
192
339
160
260
36
267
154
98
336
344
284
331
204
187
126
47
120
147
299
4
227
93
173
275
200
277
210
149
108
321
238
332
30
246
118
89
313
21
259
6
228
180
146
300
77
301
178
281
216
73
66
117
25
206
85
94
130
59
236
221
226
70
314
265
133
214
45
40
104
272
56
176
27
312
270
295
184
231
201
237
310
342
319
170
153
235
241
15
341
163
317
329
243
50
125
148
213
193
224
151
256
13
175
199
159
96
53
183
123
195
338
242
86
211
166
278
128
318
103
330
162
80
139
324
215
258
84
304
167
268
269
144
218
107
129
340
179
244
35
61
71
207
161
145
131
261
309
177
182
234
287
74
271
208
279
83
181
60
202
51
233
303
264
245
248
185
327
212
316
127
152
282
334
2
220
343
140
252
23
292
31
39
240
229
33
203
250
302
95
111
307
11
249
294
189
8
320
16
174
315
158
196
122
38
78
285
225
48
63
222
44
113
14
97
257
322
169
132
219
333
72
9
49
43
168
283
26
52
20
328
165
289
217
209
19
116
62
274
191
42
280
75
110
17
293
46
105
230
22
101
255
290
99
115
156
106
32
28
121
81
223
251
311
91
150
157
5
308
114
172
34
286
29
119
273
68
64
41
164
7
205
76
65
90
79
142
58
306
135
87
102
3
88
37
67
335
263
276
137
326
305
69
92
134
296
198
57
143
194
138
112
18
109
54
100
141

>  <PUBCHEM_MMFF94_PARTIAL_CHARGES>  (1) 
14
1 -0.37
10 0.06
11 0.36
12 0.78
13 0.3
2 -0.09
21 0.37
3 -0.57
4 -0.51
5 -0.73
6 -0.56
7 0.23
8 0.2
9 0.53

>  <PUBCHEM_EFFECTIVE_ROTOR_COUNT>  (1) 
6

>  <PUBCHEM_PHARMACOPHORE_FEATURES>  (1) 
4
1 3 acceptor
1 4 acceptor
1 5 donor
1 6 acceptor

>  <PUBCHEM_HEAVY_ATOM_COUNT>  (1) 
13

>  <PUBCHEM_ATOM_DEF_STEREO_COUNT>  (1) 
0

>  <PUBCHEM_ATOM_UDEF_STEREO_COUNT>  (1) 
0

>  <PUBCHEM_BOND_DEF_STEREO_COUNT>  (1) 
0

>  <PUBCHEM_BOND_UDEF_STEREO_COUNT>  (1) 
1

>  <PUBCHEM_ISOTOPIC_ATOM_COUNT>  (1) 
0

>  <PUBCHEM_COMPONENT_COUNT>  (1) 
1

>  <PUBCHEM_CACTVS_TAUTO_COUNT>  (1) 
2

>  <PUBCHEM_CONFORMER_ID>  (1) 
000086AC00000001

>  <PUBCHEM_MMFF94_ENERGY>  (1) 
14.5104

>  <PUBCHEM_FEATURE_SELFOVERLAP>  (1) 
20.313

>  <PUBCHEM_SHAPE_FINGERPRINT>  (1) 
100836 57 18411985775572861500
10681291 71 18410298016481134654
10922049 32 18334577927583598771
12346645 44 18342738477600185271
12815109 37 9079115553240377641
14123255 52 18410568462087330685
15501527 16 18410572924785399304
15775835 57 18410570686632411687
17834072 32 18339644567833548460
17834072 8 18272941501334100854
18186145 218 18343017778864417526
200 152 10881400941620576885
20374829 77 9943807772596126669
204376 136 18409730664291840303
20621476 66 18341899606052730752
20645477 56 18409445920971546580
20724930 69 18343300379365172078
21119208 17 14836403635794951025
21524375 3 18410851088031218503
23402539 116 18060131072447761140
23402655 69 17918272073784487876
23500284 214 18412263947661569395
23532345 42 17240774947499958527
23557571 272 17632017579777890143
366044 4 18410289224630520434
449060 50 18408887313224728359
6430166 295 18408316705397391652

>  <PUBCHEM_SHAPE_MULTIPOLES>  (1) 
244.7
10.14
1.98
0.78
1.35
1.43
-0.04
-6.39
-2.32
0.26
0.06
-0.73
-0.1
0.04

>  <PUBCHEM_SHAPE_SELFOVERLAP>  (1) 
448.72

>  <PUBCHEM_SHAPE_VOLUME>  (1) 
155

>  <PUBCHEM_COORDINATE_TYPE>  (1) 
2
5
10

$$$$
