3447
     RDKit          3D

 23 23  0  0  0  0  0  0  0  0999 V2000
   -0.4358    0.4070    1.0811 O   0  0  0  0  0  0  0  0  0  0  0  0
    0.0104   -0.5959   -0.9837 O   0  0  0  0  0  0  0  0  0  0  0  0
   -6.5458   -0.5217   -0.0021 O   0  0  0  0  0  0  0  0  0  0  0  0
   -6.4014    1.5429   -1.0098 O   0  0  0  0  0  0  0  0  0  0  0  0
    7.0560    0.2621   -0.2751 N   0  0  0  0  0  0  0  0  0  0  0  0
    9.2826   -0.4430    0.2865 N   0  0  0  0  0  0  0  0  0  0  0  0
    8.7251    1.7671    0.2916 N   0  0  0  0  0  0  0  0  0  0  0  0
    4.2454   -0.6323    0.0901 C   0  0  0  0  0  0  0  0  0  0  0  0
    2.7989   -0.7083   -0.4103 C   0  0  0  0  0  0  0  0  0  0  0  0
    5.2190   -1.2081   -0.9431 C   0  0  0  0  0  0  0  0  0  0  0  0
    1.7988   -0.1730    0.6141 C   0  0  0  0  0  0  0  0  0  0  0  0
    6.6700   -1.1347   -0.4812 C   0  0  0  0  0  0  0  0  0  0  0  0
    0.3722   -0.1765    0.1076 C   0  0  0  0  0  0  0  0  0  0  0  0
   -1.7823    0.4546    0.7128 C   0  0  0  0  0  0  0  0  0  0  0  0
   -2.2786    1.5622    0.0253 C   0  0  0  0  0  0  0  0  0  0  0  0
   -2.6311   -0.6046    1.0343 C   0  0  0  0  0  0  0  0  0  0  0  0
   -4.4725    0.5514   -0.0191 C   0  0  0  0  0  0  0  0  0  0  0  0
    8.2840    0.4823    0.0783 C   0  0  0  0  0  0  0  0  0  0  0  0
   -3.6237    1.6106   -0.3406 C   0  0  0  0  0  0  0  0  0  0  0  0
   -3.9761   -0.5561    0.6685 C   0  0  0  0  0  0  0  0  0  0  0  0
   -5.8751    0.6025   -0.4002 C   0  0  0  0  0  0  0  0  0  0  0  0
   -7.9397   -0.5908   -0.3217 C   0  0  0  0  0  0  0  0  0  0  0  0
   -8.5003   -1.8978    0.1968 C   0  0  0  0  0  0  0  0  0  0  0  0
  1 13  1  0
  1 14  1  0
  2 13  2  0
  3 21  1  0
  3 22  1  0
  4 21  2  0
  5 12  1  0
  5 18  2  3
  6 18  1  0
  7 18  1  0
  8  9  1  0
  8 10  1  0
  9 11  1  0
 10 12  1  0
 11 13  1  0
 14 15  2  0
 14 16  1  0
 15 19  1  0
 16 20  2  0
 17 19  2  0
 17 20  1  0
 17 21  1  0
 22 23  1  0
M  END
>  <PUBCHEM_COMPOUND_CID>  (1) 
3447

>  <PUBCHEM_CONFORMER_RMSD>  (1) 
1

>  <PUBCHEM_CONFORMER_DIVERSEORDER>  (1) 
1
9
55
78
58
36
84
48
14
80
75
8
46
71
54
42
16
29
50
83
74
27
22
17
49
67
10
53
19
66
38
20
25
31
73
5
41
30
63
65
11
77
35
51
12
64
61
23
60
76
15
43
79
62
70
47
13
37
44
57
24
40
59
68
32
69
26
45
28
39
4
7
21
81
33
56
3
18
6
34
2
72
52
82

>  <PUBCHEM_MMFF94_PARTIAL_CHARGES>  (1) 
27
1 -0.23
11 0.06
12 0.25
13 0.66
14 0.08
15 -0.15
16 -0.15
17 0.09
18 0.55
19 -0.15
2 -0.57
20 -0.15
21 0.63
22 0.28
3 -0.43
34 0.15
35 0.15
36 0.15
37 0.15
38 0.4
39 0.4
4 -0.57
40 0.4
41 0.4
5 -0.7
6 -0.85
7 -0.85

>  <PUBCHEM_EFFECTIVE_ROTOR_COUNT>  (1) 
11

>  <PUBCHEM_PHARMACOPHORE_FEATURES>  (1) 
7
1 2 acceptor
1 4 acceptor
1 6 donor
1 7 donor
4 5 6 7 18 cation
4 8 9 10 11 hydrophobe
6 14 15 16 17 19 20 rings

>  <PUBCHEM_HEAVY_ATOM_COUNT>  (1) 
23

>  <PUBCHEM_ATOM_DEF_STEREO_COUNT>  (1) 
0

>  <PUBCHEM_ATOM_UDEF_STEREO_COUNT>  (1) 
0

>  <PUBCHEM_BOND_DEF_STEREO_COUNT>  (1) 
0

>  <PUBCHEM_BOND_UDEF_STEREO_COUNT>  (1) 
0

>  <PUBCHEM_ISOTOPIC_ATOM_COUNT>  (1) 
0

>  <PUBCHEM_COMPONENT_COUNT>  (1) 
1

>  <PUBCHEM_CACTVS_TAUTO_COUNT>  (1) 
2

>  <PUBCHEM_CONFORMER_ID>  (1) 
00000D7700000001

>  <PUBCHEM_MMFF94_ENERGY>  (1) 
53.7822

>  <PUBCHEM_FEATURE_SELFOVERLAP>  (1) 
35.576

>  <PUBCHEM_SHAPE_FINGERPRINT>  (1) 
10 15 18408323298884230498
10076449 9 18202004348162451587
10299344 5 13542463159809306908
10666366 153 12252175235412754258
10674148 151 18408327675730251403
10883706 142 11818995172209051877
10968037 39 18409167693248463945
11315181 36 18201440260127287825
12082328 90 18130507431576216573
14123256 10 17346599668939876158
14142895 15 18342457097418879404
14251764 18 16732701636347536656
14251764 46 17312822675987496763
14918687 75 17060050511040690119
15461852 350 18333735723183038694
15510794 2 18410297995724320422
15849732 13 18413671305760840924
18335252 98 18202567271998266822
20554085 129 17676199183335787040
20621476 8 9007060157967261947
21049683 271 17989204863111836856
21150785 3 17917710197762748956
21267235 1 13182732654372421891
21403212 168 13406791130039406904
22224240 67 17894630353611354994
23081809 10 16414922933868015618
232437 2 18409730656145257706
23559900 14 18334857242260266713
246663 6 16702584930362350591
28498 318 11314024674085074658
300161 21 17603588500278112434
34797466 226 15985106315362291800
4325135 7 17989205949896207036
59682541 35 17989205966638544530
67123 10 18411418418930110502
9995097 26 18341332266848188379

>  <PUBCHEM_SHAPE_MULTIPOLES>  (1) 
434.91
30.13
1.5
0.9
35.24
0.22
0.02
-2.9
-2.51
-1.03
-0.14
-0.23
-0.03
1.26

>  <PUBCHEM_SHAPE_SELFOVERLAP>  (1) 
875.816

>  <PUBCHEM_SHAPE_VOLUME>  (1) 
252.6

>  <PUBCHEM_COORDINATE_TYPE>  (1) 
2
5
10

$$$$
