34483
     RDKit          3D

 25 27  0  0  1  0  0  0  0  0999 V2000
    1.6996    0.5101    1.5080 S   0  0  0  0  0  0  0  0  0  0  0  0
    2.3500    1.7650    1.1755 O   0  0  0  0  0  0  0  0  0  0  0  0
    1.2996    0.2554    2.8791 O   0  0  0  0  0  0  0  0  0  0  0  0
   -4.3221   -1.7143    0.1039 N   0  0  0  0  0  0  0  0  0  0  0  0
    0.2588    0.2550    0.4075 C   0  0  0  0  0  0  0  0  0  0  0  0
    2.7696   -0.8473    0.9407 C   0  0  0  0  0  0  0  0  0  0  0  0
    0.8445   -0.6851   -0.6305 C   0  0  0  0  0  0  0  0  0  0  0  0
    2.1109   -1.2314   -0.3636 C   0  0  0  0  0  0  0  0  0  0  0  0
   -0.8553   -0.5100    1.1512 C   0  0  0  0  0  0  0  0  0  0  0  0
   -0.1514    1.6402   -0.0975 C   0  0  0  0  0  0  0  0  0  0  0  0
    2.7353   -2.0191    1.9295 C   0  0  0  0  0  0  0  0  0  0  0  0
    4.2095   -0.3532    0.7591 C   0  0  0  0  0  0  0  0  0  0  0  0
   -2.0822   -0.7043    0.2607 C   0  0  0  0  0  0  0  0  0  0  0  0
    0.1579   -1.0525   -1.7962 C   0  0  0  0  0  0  0  0  0  0  0  0
    2.6842   -2.1240   -1.2773 C   0  0  0  0  0  0  0  0  0  0  0  0
    0.5273    2.2199   -1.1683 C   0  0  0  0  0  0  0  0  0  0  0  0
   -1.2034    2.3205    0.5142 C   0  0  0  0  0  0  0  0  0  0  0  0
   -3.1791   -1.5093    0.9497 C   0  0  0  0  0  0  0  0  0  0  0  0
    0.7411   -1.9362   -2.7026 C   0  0  0  0  0  0  0  0  0  0  0  0
    2.0028   -2.4689   -2.4448 C   0  0  0  0  0  0  0  0  0  0  0  0
    0.1534    3.4825   -1.6285 C   0  0  0  0  0  0  0  0  0  0  0  0
   -1.5774    3.5831    0.0540 C   0  0  0  0  0  0  0  0  0  0  0  0
   -0.8990    4.1641   -1.0174 C   0  0  0  0  0  0  0  0  0  0  0  0
   -4.9662   -0.4383   -0.2465 C   0  0  0  0  0  0  0  0  0  0  0  0
   -5.3085   -2.6021    0.7400 C   0  0  0  0  0  0  0  0  0  0  0  0
  1  2  2  0
  1  3  2  0
  1  5  1  0
  1  6  1  0
  4 18  1  0
  4 24  1  0
  4 25  1  0
  5  7  1  0
  5  9  1  0
  5 10  1  0
  6  8  1  0
  6 11  1  0
  6 12  1  0
  7  8  2  0
  7 14  1  0
  8 15  1  0
  9 13  1  0
 10 16  2  0
 10 17  1  0
 13 18  1  0
 14 19  2  0
 15 20  2  0
 16 21  1  0
 17 22  2  0
 19 20  1  0
 21 23  2  0
 22 23  1  0
M  END
>  <PUBCHEM_COMPOUND_CID>  (1) 
34483

>  <PUBCHEM_CONFORMER_RMSD>  (1) 
0.8

>  <PUBCHEM_CONFORMER_DIVERSEORDER>  (1) 
10
12
21
16
6
14
7
3
20
9
1
19
11
8
17
13
2
15
5
18
4

>  <PUBCHEM_MMFF94_PARTIAL_CHARGES>  (1) 
30
1 1.09
10 -0.14
14 -0.15
15 -0.15
16 -0.15
17 -0.15
18 0.27
19 -0.15
2 -0.65
20 -0.15
21 -0.15
22 -0.15
23 -0.15
24 0.27
25 0.27
3 -0.65
36 0.15
37 0.15
38 0.15
39 0.15
4 -0.81
42 0.15
43 0.15
44 0.15
45 0.15
46 0.15
5 0.39
6 0.25
7 -0.14
8 -0.14

>  <PUBCHEM_EFFECTIVE_ROTOR_COUNT>  (1) 
5.4

>  <PUBCHEM_PHARMACOPHORE_FEATURES>  (1) 
7
1 2 acceptor
1 3 acceptor
1 4 cation
3 6 11 12 hydrophobe
5 1 5 6 7 8 rings
6 10 16 17 21 22 23 rings
6 7 8 14 15 19 20 rings

>  <PUBCHEM_HEAVY_ATOM_COUNT>  (1) 
25

>  <PUBCHEM_ATOM_DEF_STEREO_COUNT>  (1) 
0

>  <PUBCHEM_ATOM_UDEF_STEREO_COUNT>  (1) 
1

>  <PUBCHEM_BOND_DEF_STEREO_COUNT>  (1) 
0

>  <PUBCHEM_BOND_UDEF_STEREO_COUNT>  (1) 
0

>  <PUBCHEM_ISOTOPIC_ATOM_COUNT>  (1) 
0

>  <PUBCHEM_COMPONENT_COUNT>  (1) 
1

>  <PUBCHEM_CACTVS_TAUTO_COUNT>  (1) 
1

>  <PUBCHEM_CONFORMER_ID>  (1) 
000086B30000000A

>  <PUBCHEM_MMFF94_ENERGY>  (1) 
77.963

>  <PUBCHEM_FEATURE_SELFOVERLAP>  (1) 
35.604

>  <PUBCHEM_SHAPE_FINGERPRINT>  (1) 
10165383 225 17489023877104981826
108634 29 18265597798647702237
11244481 83 17824535499271018007
11578080 2 17700719279908158264
11582403 64 16468610853442738184
116883 192 18340215085624619541
12293681 25 17912638012879442975
12553582 1 18189358813175813435
13004483 165 18188754081448227395
13134695 92 18194103321866459645
13149001 5 17265535747093181974
13681431 1 18264789811824340177
13965767 371 17773290513237499234
14004458 79 18116440241060643189
14863182 85 17273997880802339855
14955137 171 17905042904276928920
15163728 17 15867756701232454885
15219462 58 17032971635101646904
15420108 30 17770489052125586345
16945 1 18060134353934741262
17357779 13 18271519789448806405
17492 54 17905926847432857836
1813 80 18338535087665579051
20600515 1 18335139804211538089
20602899 9 16683191443544961886
20691752 17 18267329580273459235
20739085 24 18127962220813339879
21285901 2 18199746956174701143
21452121 99 17905039253337870958
21860390 5 18045493364536580453
22182313 1 17630879401213773254
23419403 2 17415278330164059454
23557571 272 18338234851791515485
238 59 16840748329243569628
2748010 2 17558256636592352726
298252 57 17332550353741176517
3052486 1 18044383716833724717
3060560 45 17765732590883697373
484985 159 16162654189208233330
57527306 92 17898004883567319708
57527585 103 16190055019790124038
81228 2 18193857954595189593
9841814 1 18189063147727344627

>  <PUBCHEM_SHAPE_MULTIPOLES>  (1) 
501.62
6.6
4.4
2.33
7.83
4.77
0.46
-6.88
-2.01
2.82
1.87
-1.98
-0.99
1.42

>  <PUBCHEM_SHAPE_SELFOVERLAP>  (1) 
1058.917

>  <PUBCHEM_SHAPE_VOLUME>  (1) 
285.2

>  <PUBCHEM_COORDINATE_TYPE>  (1) 
2
5
10

$$$$
