34498
     RDKit          3D

 19 19  0  0  0  0  0  0  0  0999 V2000
   -0.2714   -2.3868   -1.2472 I   0  0  0  0  0  0  0  0  0  0  0  0
    2.5918    2.5933    0.8731 I   0  0  0  0  0  0  0  0  0  0  0  0
   -3.3076    2.7517    0.0706 I   0  0  0  0  0  0  0  0  0  0  0  0
    3.6461   -1.8859    0.8060 O   0  0  0  0  0  0  0  0  0  0  0  0
   -4.6620   -1.6116   -0.1777 O   0  0  0  0  0  0  0  0  0  0  0  0
   -3.0710   -1.1377    1.3709 O   0  0  0  0  0  0  0  0  0  0  0  0
    2.1013   -0.4388   -0.2357 N   0  0  0  0  0  0  0  0  0  0  0  0
    0.8823    0.2512   -0.1767 C   0  0  0  0  0  0  0  0  0  0  0  0
    2.8463   -0.4452   -1.5291 C   0  0  0  0  0  0  0  0  0  0  0  0
   -1.5107    0.3179   -0.5018 C   0  0  0  0  0  0  0  0  0  0  0  0
   -0.3021   -0.3758   -0.5633 C   0  0  0  0  0  0  0  0  0  0  0  0
    0.8582    1.5718    0.2718 C   0  0  0  0  0  0  0  0  0  0  0  0
   -2.7902   -0.3465   -0.9152 C   0  0  0  0  0  0  0  0  0  0  0  0
   -1.5348    1.6385   -0.0532 C   0  0  0  0  0  0  0  0  0  0  0  0
   -0.3504    2.2655    0.3336 C   0  0  0  0  0  0  0  0  0  0  0  0
    2.6162   -1.2090    0.8591 C   0  0  0  0  0  0  0  0  0  0  0  0
    3.8761    0.6644   -1.5817 C   0  0  0  0  0  0  0  0  0  0  0  0
    1.8698   -1.1604    2.1726 C   0  0  0  0  0  0  0  0  0  0  0  0
   -3.4880   -1.0565    0.2237 C   0  0  0  0  0  0  0  0  0  0  0  0
  1 11  1  0
  2 12  1  0
  3 14  1  0
  4 16  2  0
  5 19  1  0
  6 19  2  0
  7  8  1  0
  7  9  1  0
  7 16  1  0
  8 11  2  0
  8 12  1  0
  9 17  1  0
 10 11  1  0
 10 13  1  0
 10 14  2  0
 12 15  2  0
 13 19  1  0
 14 15  1  0
 16 18  1  0
M  END
>  <PUBCHEM_COMPOUND_CID>  (1) 
34498

>  <PUBCHEM_CONFORMER_RMSD>  (1) 
0.6

>  <PUBCHEM_CONFORMER_DIVERSEORDER>  (1) 
1
29
26
11
19
17
15
12
10
27
6
16
7
31
24
14
21
2
4
25
9
18
28
13
32
23
30
22
20
3
8
5

>  <PUBCHEM_MMFF94_PARTIAL_CHARGES>  (1) 
20
1 -0.08
10 -0.14
11 0.08
12 0.08
13 0.2
14 0.08
15 -0.15
16 0.57
18 0.06
19 0.66
2 -0.08
24 0.15
3 -0.08
31 0.5
4 -0.57
5 -0.65
6 -0.57
7 -0.48
8 0.12
9 0.3

>  <PUBCHEM_EFFECTIVE_ROTOR_COUNT>  (1) 
5

>  <PUBCHEM_PHARMACOPHORE_FEATURES>  (1) 
8
1 1 hydrophobe
1 2 hydrophobe
1 3 hydrophobe
1 4 acceptor
1 5 acceptor
1 6 acceptor
3 5 6 19 anion
6 8 10 11 12 14 15 rings

>  <PUBCHEM_HEAVY_ATOM_COUNT>  (1) 
19

>  <PUBCHEM_ATOM_DEF_STEREO_COUNT>  (1) 
0

>  <PUBCHEM_ATOM_UDEF_STEREO_COUNT>  (1) 
0

>  <PUBCHEM_BOND_DEF_STEREO_COUNT>  (1) 
0

>  <PUBCHEM_BOND_UDEF_STEREO_COUNT>  (1) 
0

>  <PUBCHEM_ISOTOPIC_ATOM_COUNT>  (1) 
0

>  <PUBCHEM_COMPONENT_COUNT>  (1) 
1

>  <PUBCHEM_CACTVS_TAUTO_COUNT>  (1) 
1

>  <PUBCHEM_CONFORMER_ID>  (1) 
000086C200000001

>  <PUBCHEM_MMFF94_ENERGY>  (1) 
79.9949

>  <PUBCHEM_FEATURE_SELFOVERLAP>  (1) 
40.655

>  <PUBCHEM_SHAPE_FINGERPRINT>  (1) 
11578080 2 17678990795766338972
12553582 1 18343016735493722719
12633257 1 18269846332983654457
12788726 201 18337400353216827865
13140716 1 18271238331431003369
13538477 17 18190746327861473372
13760787 19 18042134175645264629
14115302 16 18045219340953971524
14178342 30 17986670364017669673
14223421 5 18337096943077388273
14787075 74 17682415980191181478
15375462 175 18201726119680058246
16752209 62 18341604885253986967
16945 1 18125712637192385453
18222031 100 18060135492349202959
19422 9 18187367584384660846
19591789 44 18271816747339604844
20600515 1 17913760627447702736
20645477 70 18271236240023984373
21501502 16 18261676982599891013
22182313 1 18343013423868533725
2334 1 18343013423931733093
23493267 7 18263939743006403599
23526113 38 17559124159487474260
23557571 272 17699562538357926272
23558518 356 18335139791591036025
23559900 14 17985271777170051790
23598291 2 17895480202594279244
23598294 1 18340489975862421453
2748010 2 18343011199154517685
34934 24 18125151895036296445
4340502 62 17240767349207153938
465052 167 18338524148516277415
59554788 170 18199759205057887093
7097593 13 17755290184872060859
7364860 26 17845094150344222012
81228 2 17555173549811018512

>  <PUBCHEM_SHAPE_MULTIPOLES>  (1) 
404.23
6.91
3.31
1.52
2.37
1.28
-0.34
-0.57
-0.12
0.88
-0.1
-1.26
-0.61
0.04

>  <PUBCHEM_SHAPE_SELFOVERLAP>  (1) 
769.398

>  <PUBCHEM_SHAPE_VOLUME>  (1) 
258.1

>  <PUBCHEM_COORDINATE_TYPE>  (1) 
2
5
10

$$$$
