34492
     RDKit          3D

 16 16  0  0  0  0  0  0  0  0999 V2000
   -0.0358    2.5967    0.2552 O   0  0  0  0  0  0  0  0  0  0  0  0
   -1.0547   -2.0732    0.6454 O   0  0  0  0  0  0  0  0  0  0  0  0
    1.8025   -0.2983   -0.1065 N   0  0  0  0  0  0  0  0  0  0  0  0
    0.8651   -0.0020    0.9762 C   0  0  0  0  0  0  0  0  0  0  0  0
   -0.5248    0.2582    0.4593 C   0  0  0  0  0  0  0  0  0  0  0  0
    1.3723   -1.4851   -0.8446 C   0  0  0  0  0  0  0  0  0  0  0  0
    3.1524   -0.4872    0.4236 C   0  0  0  0  0  0  0  0  0  0  0  0
   -0.9020    1.5531    0.1242 C   0  0  0  0  0  0  0  0  0  0  0  0
   -1.4153   -0.7997    0.3206 C   0  0  0  0  0  0  0  0  0  0  0  0
    2.3355   -1.8081   -1.9744 C   0  0  0  0  0  0  0  0  0  0  0  0
    3.6397    0.7598    1.1417 C   0  0  0  0  0  0  0  0  0  0  0  0
   -2.1889    1.7937   -0.3572 C   0  0  0  0  0  0  0  0  0  0  0  0
   -2.7021   -0.5592   -0.1609 C   0  0  0  0  0  0  0  0  0  0  0  0
   -3.0889    0.7375   -0.4997 C   0  0  0  0  0  0  0  0  0  0  0  0
    0.7835    2.9039   -0.8710 C   0  0  0  0  0  0  0  0  0  0  0  0
   -2.0387   -3.0900    0.4681 C   0  0  0  0  0  0  0  0  0  0  0  0
  1  8  1  0
  1 15  1  0
  2  9  1  0
  2 16  1  0
  3  4  1  0
  3  6  1  0
  3  7  1  0
  4  5  1  0
  5  8  2  0
  5  9  1  0
  6 10  1  0
  7 11  1  0
  8 12  1  0
  9 13  2  0
 12 14  2  0
 13 14  1  0
M  END
>  <PUBCHEM_COMPOUND_CID>  (1) 
34492

>  <PUBCHEM_CONFORMER_RMSD>  (1) 
0.8

>  <PUBCHEM_CONFORMER_DIVERSEORDER>  (1) 
3
1
4
6
2
5
7

>  <PUBCHEM_MMFF94_PARTIAL_CHARGES>  (1) 
17
1 -0.36
12 -0.15
13 -0.15
14 -0.15
15 0.28
16 0.28
2 -0.36
29 0.15
3 -0.81
30 0.15
31 0.15
4 0.41
5 -0.14
6 0.27
7 0.27
8 0.08
9 0.08

>  <PUBCHEM_EFFECTIVE_ROTOR_COUNT>  (1) 
6

>  <PUBCHEM_PHARMACOPHORE_FEATURES>  (1) 
4
1 1 acceptor
1 2 acceptor
1 3 cation
6 5 8 9 12 13 14 rings

>  <PUBCHEM_HEAVY_ATOM_COUNT>  (1) 
16

>  <PUBCHEM_ATOM_DEF_STEREO_COUNT>  (1) 
0

>  <PUBCHEM_ATOM_UDEF_STEREO_COUNT>  (1) 
0

>  <PUBCHEM_BOND_DEF_STEREO_COUNT>  (1) 
0

>  <PUBCHEM_BOND_UDEF_STEREO_COUNT>  (1) 
0

>  <PUBCHEM_ISOTOPIC_ATOM_COUNT>  (1) 
0

>  <PUBCHEM_COMPONENT_COUNT>  (1) 
1

>  <PUBCHEM_CACTVS_TAUTO_COUNT>  (1) 
1

>  <PUBCHEM_CONFORMER_ID>  (1) 
000086BC00000003

>  <PUBCHEM_MMFF94_ENERGY>  (1) 
60.896

>  <PUBCHEM_FEATURE_SELFOVERLAP>  (1) 
20.297

>  <PUBCHEM_SHAPE_FINGERPRINT>  (1) 
116883 192 18268710696428441711
12423570 1 15950494448574027306
12524768 44 18343302530869500323
13140716 1 18193556907357494401
13544592 271 18342165708908387754
14614273 12 17682388157593809893
15207287 21 18057580132309423890
15219456 202 18130784499879369658
15490181 7 17547010728109562377
16945 1 18335989735094596785
18186145 218 18124316008480147277
193761 8 18047187733377247385
20201158 50 18059287665314179722
20511035 2 18052521455287582752
20588541 1 18343014476124335128
20645476 183 17459770145602475503
20871998 184 18200025290918674059
20905425 154 17830741215427449708
21501502 16 18047474714496529393
22802520 49 18055925298452844910
2334 1 17760649565633946683
23402539 116 18266719338460898094
23419403 2 17539656485599306310
23557571 272 18412550920291377338
23559900 14 18339918217801689674
2748010 2 18266181638825860243
5255222 1 17257658815637586305
81228 2 18339092488025199913
9709674 26 18271804588588259758

>  <PUBCHEM_SHAPE_MULTIPOLES>  (1) 
312.55
4.82
3.19
1.2
1.96
0.07
-0.4
-0.53
0.19
-1
-0.46
0.96
-0.37
1.14

>  <PUBCHEM_SHAPE_SELFOVERLAP>  (1) 
629.594

>  <PUBCHEM_SHAPE_VOLUME>  (1) 
185.6

>  <PUBCHEM_COORDINATE_TYPE>  (1) 
2
5
10

$$$$
