34502
     RDKit          3D

 20 20  0  0  0  0  0  0  0  0999 V2000
    0.2218   -2.0350   -1.6136 I   0  0  0  0  0  0  0  0  0  0  0  0
   -1.4625    3.4249    0.5866 I   0  0  0  0  0  0  0  0  0  0  0  0
    4.3037    1.9341    0.6078 I   0  0  0  0  0  0  0  0  0  0  0  0
   -2.0346   -0.5184    1.3632 O   0  0  0  0  0  0  0  0  0  0  0  0
    4.3764   -2.6639    0.0804 O   0  0  0  0  0  0  0  0  0  0  0  0
    2.8534   -1.7488    1.4937 O   0  0  0  0  0  0  0  0  0  0  0  0
   -1.6542    0.4486   -0.7420 N   0  0  0  0  0  0  0  0  0  0  0  0
   -0.2727    0.7669   -0.4412 C   0  0  0  0  0  0  0  0  0  0  0  0
   -3.8689   -0.5363   -0.1631 C   0  0  0  0  0  0  0  0  0  0  0  0
   -2.4366   -0.1958    0.2424 C   0  0  0  0  0  0  0  0  0  0  0  0
    2.0217    0.1542   -0.4421 C   0  0  0  0  0  0  0  0  0  0  0  0
   -4.6495   -1.2305    0.9541 C   0  0  0  0  0  0  0  0  0  0  0  0
    0.6946   -0.1599   -0.7350 C   0  0  0  0  0  0  0  0  0  0  0  0
   -0.0033    1.9869    0.1258 C   0  0  0  0  0  0  0  0  0  0  0  0
    3.1185   -0.8233   -0.7433 C   0  0  0  0  0  0  0  0  0  0  0  0
   -2.1955    0.8072   -2.0623 C   0  0  0  0  0  0  0  0  0  0  0  0
    2.3363    1.3846    0.1346 C   0  0  0  0  0  0  0  0  0  0  0  0
    1.3238    2.3010    0.4185 C   0  0  0  0  0  0  0  0  0  0  0  0
   -6.0793   -1.5289    0.5326 C   0  0  0  0  0  0  0  0  0  0  0  0
    3.4069   -1.7675    0.4028 C   0  0  0  0  0  0  0  0  0  0  0  0
  1 13  1  0
  2 14  1  0
  3 17  1  0
  4 10  2  0
  5 20  1  0
  6 20  2  0
  7  8  1  0
  7 10  1  0
  7 16  1  0
  8 13  2  0
  8 14  1  0
  9 10  1  0
  9 12  1  0
 11 13  1  0
 11 15  1  0
 11 17  2  0
 12 19  1  0
 14 18  2  0
 15 20  1  0
 17 18  1  0
M  END
>  <PUBCHEM_COMPOUND_CID>  (1) 
34502

>  <PUBCHEM_CONFORMER_RMSD>  (1) 
0.8

>  <PUBCHEM_CONFORMER_DIVERSEORDER>  (1) 
2
21
12
13
24
11
22
15
9
7
6
14
19
17
20
5
25
10
3
23
16
8
18
4
1

>  <PUBCHEM_MMFF94_PARTIAL_CHARGES>  (1) 
20
1 -0.08
10 0.57
11 -0.14
13 0.08
14 0.08
15 0.2
16 0.3
17 0.08
18 -0.15
2 -0.08
20 0.66
3 -0.08
30 0.15
34 0.5
4 -0.57
5 -0.65
6 -0.57
7 -0.48
8 0.12
9 0.06

>  <PUBCHEM_EFFECTIVE_ROTOR_COUNT>  (1) 
6

>  <PUBCHEM_PHARMACOPHORE_FEATURES>  (1) 
9
1 1 hydrophobe
1 19 hydrophobe
1 2 hydrophobe
1 3 hydrophobe
1 4 acceptor
1 5 acceptor
1 6 acceptor
3 5 6 20 anion
6 8 11 13 14 17 18 rings

>  <PUBCHEM_HEAVY_ATOM_COUNT>  (1) 
20

>  <PUBCHEM_ATOM_DEF_STEREO_COUNT>  (1) 
0

>  <PUBCHEM_ATOM_UDEF_STEREO_COUNT>  (1) 
0

>  <PUBCHEM_BOND_DEF_STEREO_COUNT>  (1) 
0

>  <PUBCHEM_BOND_UDEF_STEREO_COUNT>  (1) 
0

>  <PUBCHEM_ISOTOPIC_ATOM_COUNT>  (1) 
0

>  <PUBCHEM_COMPONENT_COUNT>  (1) 
1

>  <PUBCHEM_CACTVS_TAUTO_COUNT>  (1) 
1

>  <PUBCHEM_CONFORMER_ID>  (1) 
000086C600000002

>  <PUBCHEM_MMFF94_ENERGY>  (1) 
77.2453

>  <PUBCHEM_FEATURE_SELFOVERLAP>  (1) 
45.731

>  <PUBCHEM_SHAPE_FINGERPRINT>  (1) 
1100329 8 17910956073537194192
11578080 2 17823123541800434772
11796584 16 17313098709472888955
12236239 1 16916513669874571773
12507560 14 18343305894346013671
12553582 1 18273210902461475342
12633257 1 18197795305723901193
12644460 14 18271526489508026040
12824470 246 17968940781858678249
13134695 92 18339081605206092029
13140716 1 18127691531022034584
13533116 47 18411985801653908523
14178342 30 17700425684216908938
14252887 29 18335703887698994664
14787075 74 18188769599433676968
14790565 3 18053955218641074712
14866123 147 17976824181967837091
15375462 189 18341045315339503220
15422964 175 18335982059766941040
16945 1 18130499739442504228
20600515 1 17023465377816689381
20645477 70 18410576205750016983
20739085 24 18271541843689561813
20832881 197 18334581231199115067
21041028 32 18343582906482711445
21279426 13 18260538988803575885
21421861 104 18268449974385026281
22224240 67 18124871511387928896
23419403 2 18261374642439928925
23526113 38 18191276395756624189
23557571 272 17313092081721471493
23558518 356 18263937556874091273
23559900 14 17822286864473664022
2748010 2 18200024041653273732
31174 14 18338796818213425661
312423 11 18339651044622956460
3286 77 18409453591867552783
33824 294 18338237184174950600
34934 24 18198623426831290716
352729 6 17914332368809022316
4340502 62 18041839635710232042
465052 167 18411709798175830567
5104073 3 18343587309098445273
58807428 26 17912061048912062432
59554788 248 17632009741636674580
81228 2 17551511038245814052
9999458 23 18193561301178233500

>  <PUBCHEM_SHAPE_MULTIPOLES>  (1) 
424.81
9.13
3.5
1.39
7.67
1.51
0.31
-4.39
-3.78
-1.92
-0.3
0.54
-0.5
0.33

>  <PUBCHEM_SHAPE_SELFOVERLAP>  (1) 
808.359

>  <PUBCHEM_SHAPE_VOLUME>  (1) 
271.1

>  <PUBCHEM_COORDINATE_TYPE>  (1) 
2
5
10

$$$$
