34506
     RDKit          3D

 26 27  0  0  0  0  0  0  0  0999 V2000
    0.2285    0.2086    2.1345 I   0  0  0  0  0  0  0  0  0  0  0  0
   -0.2083   -0.6782   -3.9089 I   0  0  0  0  0  0  0  0  0  0  0  0
    4.7720   -2.3159   -1.0833 I   0  0  0  0  0  0  0  0  0  0  0  0
   -2.1578    1.9637    0.1496 O   0  0  0  0  0  0  0  0  0  0  0  0
    4.6728   -0.0635    2.9634 O   0  0  0  0  0  0  0  0  0  0  0  0
    4.0768    1.0521    1.0782 O   0  0  0  0  0  0  0  0  0  0  0  0
   -0.9870    0.1974   -0.8605 N   0  0  0  0  0  0  0  0  0  0  0  0
   -2.1239   -0.6237   -1.3054 C   0  0  0  0  0  0  0  0  0  0  0  0
    0.3435   -0.3765   -0.8846 C   0  0  0  0  0  0  0  0  0  0  0  0
   -1.1493    1.5268   -0.4105 C   0  0  0  0  0  0  0  0  0  0  0  0
    0.0164    2.4722   -0.6919 C   0  0  0  0  0  0  0  0  0  0  0  0
   -3.1447   -0.8069   -0.2140 C   0  0  0  0  0  0  0  0  0  0  0  0
    1.0418   -0.4690    0.2924 C   0  0  0  0  0  0  0  0  0  0  0  0
   -0.2349    3.8896   -0.1755 C   0  0  0  0  0  0  0  0  0  0  0  0
    2.3211   -1.0237    0.2605 C   0  0  0  0  0  0  0  0  0  0  0  0
    0.8381   -0.8016   -2.0919 C   0  0  0  0  0  0  0  0  0  0  0  0
    2.8591   -1.4673   -0.9477 C   0  0  0  0  0  0  0  0  0  0  0  0
    3.1276   -1.1468    1.5192 C   0  0  0  0  0  0  0  0  0  0  0  0
    2.1175   -1.3563   -2.1238 C   0  0  0  0  0  0  0  0  0  0  0  0
   -3.0338   -1.8864    0.6514 C   0  0  0  0  0  0  0  0  0  0  0  0
   -4.1825    0.1060   -0.0886 C   0  0  0  0  0  0  0  0  0  0  0  0
    0.9538    4.7990   -0.4420 C   0  0  0  0  0  0  0  0  0  0  0  0
   -3.9796   -2.0564    1.6624 C   0  0  0  0  0  0  0  0  0  0  0  0
   -5.1284   -0.0640    0.9224 C   0  0  0  0  0  0  0  0  0  0  0  0
   -5.0270   -1.1452    1.7979 C   0  0  0  0  0  0  0  0  0  0  0  0
    3.9881    0.0658    1.7965 C   0  0  0  0  0  0  0  0  0  0  0  0
  1 13  1  0
  2 16  1  0
  3 17  1  0
  4 10  2  0
  5 26  1  0
  6 26  2  0
  7  8  1  0
  7  9  1  0
  7 10  1  0
  8 12  1  0
  9 13  2  0
  9 16  1  0
 10 11  1  0
 11 14  1  0
 12 20  2  0
 12 21  1  0
 13 15  1  0
 14 22  1  0
 15 17  2  0
 15 18  1  0
 16 19  2  0
 17 19  1  0
 18 26  1  0
 20 23  1  0
 21 24  2  0
 23 25  2  0
 24 25  1  0
M  END
>  <PUBCHEM_COMPOUND_CID>  (1) 
34506

>  <PUBCHEM_CONFORMER_RMSD>  (1) 
0.8

>  <PUBCHEM_CONFORMER_DIVERSEORDER>  (1) 
1
54
43
73
92
63
86
89
8
131
39
108
79
77
21
28
116
65
17
67
49
129
125
71
123
119
85
111
88
120
127
50
107
93
126
35
117
68
90
101
46
114
22
44
30
9
121
103
62
38
91
98
2
41
15
100
122
57
45
23
69
11
29
19
128
94
112
66
61
26
12
130
105
3
104
16
60
6
36
42
115
84
7
40
118
102
25
13
87
124
47
72
80
99
53
97
59
95
78
109
4
37
76
5
51
56
83
113
33
18
10
27
96
14
74
52
20
70
58
34
81
24
55
32
75
48
64
106
31
110
82

>  <PUBCHEM_MMFF94_PARTIAL_CHARGES>  (1) 
31
1 -0.08
10 0.57
11 0.06
12 -0.14
13 0.08
15 -0.14
16 0.08
17 0.08
18 0.2
19 -0.15
2 -0.08
20 -0.15
21 -0.15
23 -0.15
24 -0.15
25 -0.15
26 0.66
3 -0.08
35 0.15
36 0.15
37 0.15
4 -0.57
41 0.15
42 0.15
43 0.15
44 0.5
5 -0.65
6 -0.57
7 -0.48
8 0.44
9 0.12

>  <PUBCHEM_EFFECTIVE_ROTOR_COUNT>  (1) 
8

>  <PUBCHEM_PHARMACOPHORE_FEATURES>  (1) 
10
1 1 hydrophobe
1 2 hydrophobe
1 22 hydrophobe
1 3 hydrophobe
1 4 acceptor
1 5 acceptor
1 6 acceptor
3 5 6 26 anion
6 12 20 21 23 24 25 rings
6 9 13 15 16 17 19 rings

>  <PUBCHEM_HEAVY_ATOM_COUNT>  (1) 
26

>  <PUBCHEM_ATOM_DEF_STEREO_COUNT>  (1) 
0

>  <PUBCHEM_ATOM_UDEF_STEREO_COUNT>  (1) 
0

>  <PUBCHEM_BOND_DEF_STEREO_COUNT>  (1) 
0

>  <PUBCHEM_BOND_UDEF_STEREO_COUNT>  (1) 
0

>  <PUBCHEM_ISOTOPIC_ATOM_COUNT>  (1) 
0

>  <PUBCHEM_COMPONENT_COUNT>  (1) 
1

>  <PUBCHEM_CACTVS_TAUTO_COUNT>  (1) 
1

>  <PUBCHEM_CONFORMER_ID>  (1) 
000086CA00000001

>  <PUBCHEM_MMFF94_ENERGY>  (1) 
108.5641

>  <PUBCHEM_FEATURE_SELFOVERLAP>  (1) 
50.805

>  <PUBCHEM_SHAPE_FINGERPRINT>  (1) 
10165383 225 17275097375666432120
12156800 1 13896906057234519880
12236239 1 17313402088234423111
12403814 3 18057575781618056420
12422481 6 18131630071486863064
12553582 1 18334018285245709679
12788726 201 17970078759240073971
133893 2 17905303458625813301
13583140 156 17912346655473257574
14787075 74 17604427530518259056
15163728 17 11743575313809035107
15219462 58 17975956693042778486
15475509 35 17314243331215917835
17349148 13 16370724803518505938
17974551 9 17186392930475798610
17980427 23 17916575574840794333
17980427 26 13643119072148972884
1813 80 18411702092988092545
19315092 285 16226864719758416376
20600515 1 18410011010014256433
20739085 24 16988852665626879234
21033648 29 17774723061456936067
21756936 100 14620212209634538250
22182313 1 17773015477154911800
23419403 2 17631462150380600293
23557571 272 18338519608244722092
23559900 14 18334585598706400238
238 59 14491059166782811727
3004659 81 17386019372725525863
3187 122 18338786823925176788
3380486 145 17988059145983056485
3411729 13 18048611592456481117
350125 39 16773802450952688210
392239 28 18114450241073464520
394222 165 17767707292160613905
469060 322 17840266151899827166
474 4 15626227875344103663
5252454 2 17059472150443416706
57527293 21 18201711860225351722
633830 44 14979960263299927364
81228 2 18053963757341163133
9841814 1 18189914152383674537

>  <PUBCHEM_SHAPE_MULTIPOLES>  (1) 
548.29
9.08
3.53
3.12
2.53
5.45
0.9
-5.07
-6.83
-1.26
2.17
-1.08
-0.77
2.04

>  <PUBCHEM_SHAPE_SELFOVERLAP>  (1) 
1092.317

>  <PUBCHEM_SHAPE_VOLUME>  (1) 
331.9

>  <PUBCHEM_COORDINATE_TYPE>  (1) 
2
5
10

$$$$
