34501
     RDKit          3D

 21 21  0  0  0  0  0  0  0  0999 V2000
    0.6960   -2.3636    1.1933 I   0  0  0  0  0  0  0  0  0  0  0  0
   -1.9078    2.4985   -1.4676 I   0  0  0  0  0  0  0  0  0  0  0  0
    3.7879    2.8236    0.2422 I   0  0  0  0  0  0  0  0  0  0  0  0
   -2.7676   -2.0070   -1.5581 O   0  0  0  0  0  0  0  0  0  0  0  0
    5.1831   -1.4977    0.8025 O   0  0  0  0  0  0  0  0  0  0  0  0
    3.8449   -1.0936   -0.9865 O   0  0  0  0  0  0  0  0  0  0  0  0
   -1.5306   -0.4975   -0.2236 N   0  0  0  0  0  0  0  0  0  0  0  0
   -2.4292   -0.4801    0.9245 C   0  0  0  0  0  0  0  0  0  0  0  0
   -3.8125    0.0169    0.5081 C   0  0  0  0  0  0  0  0  0  0  0  0
   -0.2879    0.2496   -0.1021 C   0  0  0  0  0  0  0  0  0  0  0  0
   -4.7777    0.0227    1.6942 C   0  0  0  0  0  0  0  0  0  0  0  0
    0.7900   -0.3667    0.4740 C   0  0  0  0  0  0  0  0  0  0  0  0
    1.9777    0.3563    0.5855 C   0  0  0  0  0  0  0  0  0  0  0  0
   -1.7911   -1.2749   -1.3779 C   0  0  0  0  0  0  0  0  0  0  0  0
   -0.2687    1.5344   -0.5756 C   0  0  0  0  0  0  0  0  0  0  0  0
   -6.1471    0.5496    1.2958 C   0  0  0  0  0  0  0  0  0  0  0  0
    2.0422    1.6684    0.1164 C   0  0  0  0  0  0  0  0  0  0  0  0
    3.1911   -0.2672    1.2091 C   0  0  0  0  0  0  0  0  0  0  0  0
    0.9190    2.2574   -0.4642 C   0  0  0  0  0  0  0  0  0  0  0  0
   -0.7862   -1.1489   -2.4999 C   0  0  0  0  0  0  0  0  0  0  0  0
    4.0747   -0.9803    0.2097 C   0  0  0  0  0  0  0  0  0  0  0  0
  1 12  1  0
  2 15  1  0
  3 17  1  0
  4 14  2  0
  5 21  1  0
  6 21  2  0
  7  8  1  0
  7 10  1  0
  7 14  1  0
  8  9  1  0
  9 11  1  0
 10 12  2  0
 10 15  1  0
 11 16  1  0
 12 13  1  0
 13 17  2  0
 13 18  1  0
 14 20  1  0
 15 19  2  0
 17 19  1  0
 18 21  1  0
M  END
>  <PUBCHEM_COMPOUND_CID>  (1) 
34501

>  <PUBCHEM_CONFORMER_RMSD>  (1) 
0.8

>  <PUBCHEM_CONFORMER_DIVERSEORDER>  (1) 
1
2
17
24
21
12
10
22
13
19
18
20
11
6
23
7
25
8
4
16
15
3
9
14
5
26

>  <PUBCHEM_MMFF94_PARTIAL_CHARGES>  (1) 
20
1 -0.08
10 0.12
12 0.08
13 -0.14
14 0.57
15 0.08
17 0.08
18 0.2
19 -0.15
2 -0.08
20 0.06
21 0.66
3 -0.08
33 0.15
37 0.5
4 -0.57
5 -0.65
6 -0.57
7 -0.48
8 0.3

>  <PUBCHEM_EFFECTIVE_ROTOR_COUNT>  (1) 
7

>  <PUBCHEM_PHARMACOPHORE_FEATURES>  (1) 
9
1 1 hydrophobe
1 16 hydrophobe
1 2 hydrophobe
1 3 hydrophobe
1 4 acceptor
1 5 acceptor
1 6 acceptor
3 5 6 21 anion
6 10 12 13 15 17 19 rings

>  <PUBCHEM_HEAVY_ATOM_COUNT>  (1) 
21

>  <PUBCHEM_ATOM_DEF_STEREO_COUNT>  (1) 
0

>  <PUBCHEM_ATOM_UDEF_STEREO_COUNT>  (1) 
0

>  <PUBCHEM_BOND_DEF_STEREO_COUNT>  (1) 
0

>  <PUBCHEM_BOND_UDEF_STEREO_COUNT>  (1) 
0

>  <PUBCHEM_ISOTOPIC_ATOM_COUNT>  (1) 
0

>  <PUBCHEM_COMPONENT_COUNT>  (1) 
1

>  <PUBCHEM_CACTVS_TAUTO_COUNT>  (1) 
1

>  <PUBCHEM_CONFORMER_ID>  (1) 
000086C500000001

>  <PUBCHEM_MMFF94_ENERGY>  (1) 
80.929

>  <PUBCHEM_FEATURE_SELFOVERLAP>  (1) 
45.731

>  <PUBCHEM_SHAPE_FINGERPRINT>  (1) 
10906281 52 18191025819122767864
11578080 2 17555975334427148745
12236239 1 18272368715752688123
12553582 1 18261097553025916330
12596599 1 18269825553288674614
12633257 1 18059857267981986653
13140716 1 18188772876325328570
13583140 156 18115579340947200109
14739800 52 17202476874388016616
15527383 91 18408890637360785936
16945 1 18115007680578602018
1813 80 18336272266854763180
18222031 100 15285924740544148931
19141452 34 17988639683853896102
19422 9 18129373959446897678
19591789 44 18260829263419196216
20261772 1 18412262835455060689
20602899 9 17129265759381256477
20691752 17 18187918543005585182
20739085 24 18187093866008487153
21041028 32 18410012104935706216
22182313 1 18054230929759845245
23184049 59 18341337747031103921
23402539 116 18264188242226723770
23419403 2 17412200758784819805
23503953 91 17989483039400000802
23598291 2 18271800284898725183
23622692 88 17989209226397052009
25147074 1 18129936909373679012
2748010 2 18115567323634467948
34934 24 18199474435662054952
350125 39 18261396624478616888
465052 167 18187661205776850315
5104073 3 18270678787201655195
59554788 170 18259707813214782996
633830 44 18410855507425971970
9999458 23 18261684722035993379

>  <PUBCHEM_SHAPE_MULTIPOLES>  (1) 
445.39
9.32
3.05
1.78
4.62
1.26
0.92
-0.34
-4.73
-2.16
0.23
1.69
-0.5
0.13

>  <PUBCHEM_SHAPE_SELFOVERLAP>  (1) 
848.15

>  <PUBCHEM_SHAPE_VOLUME>  (1) 
282.3

>  <PUBCHEM_COORDINATE_TYPE>  (1) 
2
5
10

$$$$
