34505
     RDKit          3D

 23 23  0  0  0  0  0  0  0  0999 V2000
    0.8000   -0.2565   -2.6862 I   0  0  0  0  0  0  0  0  0  0  0  0
   -1.9081    0.9528    2.6703 I   0  0  0  0  0  0  0  0  0  0  0  0
    3.8396    2.3325    1.9407 I   0  0  0  0  0  0  0  0  0  0  0  0
   -2.7557   -2.0222   -0.6238 O   0  0  0  0  0  0  0  0  0  0  0  0
    5.2265   -0.1222   -1.7302 O   0  0  0  0  0  0  0  0  0  0  0  0
    3.9036   -1.1239   -0.1807 O   0  0  0  0  0  0  0  0  0  0  0  0
   -1.4791   -0.0645   -0.4024 N   0  0  0  0  0  0  0  0  0  0  0  0
   -2.4223    0.8323   -1.0885 C   0  0  0  0  0  0  0  0  0  0  0  0
   -3.7825    0.8827   -0.4005 C   0  0  0  0  0  0  0  0  0  0  0  0
   -0.2407    0.4834    0.1137 C   0  0  0  0  0  0  0  0  0  0  0  0
   -4.7753    1.7933   -1.1265 C   0  0  0  0  0  0  0  0  0  0  0  0
   -1.7407   -1.4423   -0.2300 C   0  0  0  0  0  0  0  0  0  0  0  0
   -0.6828   -2.2298    0.5399 C   0  0  0  0  0  0  0  0  0  0  0  0
    0.8622    0.4979   -0.7016 C   0  0  0  0  0  0  0  0  0  0  0  0
   -1.0376   -3.7104    0.6841 C   0  0  0  0  0  0  0  0  0  0  0  0
    2.0502    1.0267   -0.1973 C   0  0  0  0  0  0  0  0  0  0  0  0
   -0.2363    0.9620    1.3996 C   0  0  0  0  0  0  0  0  0  0  0  0
   -6.1388    1.7767   -0.4530 C   0  0  0  0  0  0  0  0  0  0  0  0
    2.0950    1.5232    1.1055 C   0  0  0  0  0  0  0  0  0  0  0  0
    0.9517    1.4910    1.9039 C   0  0  0  0  0  0  0  0  0  0  0  0
    3.2854    1.0668   -1.0467 C   0  0  0  0  0  0  0  0  0  0  0  0
    0.0471   -4.4738    1.4268 C   0  0  0  0  0  0  0  0  0  0  0  0
    4.1386   -0.1757   -0.9172 C   0  0  0  0  0  0  0  0  0  0  0  0
  1 14  1  0
  2 17  1  0
  3 19  1  0
  4 12  2  0
  5 23  1  0
  6 23  2  0
  7  8  1  0
  7 10  1  0
  7 12  1  0
  8  9  1  0
  9 11  1  0
 10 14  2  0
 10 17  1  0
 11 18  1  0
 12 13  1  0
 13 15  1  0
 14 16  1  0
 15 22  1  0
 16 19  2  0
 16 21  1  0
 17 20  2  0
 19 20  1  0
 21 23  1  0
M  END
>  <PUBCHEM_COMPOUND_CID>  (1) 
34505

>  <PUBCHEM_CONFORMER_RMSD>  (1) 
1

>  <PUBCHEM_CONFORMER_DIVERSEORDER>  (1) 
1
9
36
14
3
25
31
17
21
24
26
28
32
13
33
16
15
35
30
12
19
11
18
34
10
20
27
5
29
7
8
22
23
2
4
6

>  <PUBCHEM_MMFF94_PARTIAL_CHARGES>  (1) 
20
1 -0.08
10 0.12
12 0.57
13 0.06
14 0.08
16 -0.14
17 0.08
19 0.08
2 -0.08
20 -0.15
21 0.2
23 0.66
3 -0.08
37 0.15
4 -0.57
43 0.5
5 -0.65
6 -0.57
7 -0.48
8 0.3

>  <PUBCHEM_EFFECTIVE_ROTOR_COUNT>  (1) 
9

>  <PUBCHEM_PHARMACOPHORE_FEATURES>  (1) 
10
1 1 hydrophobe
1 18 hydrophobe
1 2 hydrophobe
1 22 hydrophobe
1 3 hydrophobe
1 4 acceptor
1 5 acceptor
1 6 acceptor
3 5 6 23 anion
6 10 14 16 17 19 20 rings

>  <PUBCHEM_HEAVY_ATOM_COUNT>  (1) 
23

>  <PUBCHEM_ATOM_DEF_STEREO_COUNT>  (1) 
0

>  <PUBCHEM_ATOM_UDEF_STEREO_COUNT>  (1) 
0

>  <PUBCHEM_BOND_DEF_STEREO_COUNT>  (1) 
0

>  <PUBCHEM_BOND_UDEF_STEREO_COUNT>  (1) 
0

>  <PUBCHEM_ISOTOPIC_ATOM_COUNT>  (1) 
0

>  <PUBCHEM_COMPONENT_COUNT>  (1) 
1

>  <PUBCHEM_CACTVS_TAUTO_COUNT>  (1) 
1

>  <PUBCHEM_CONFORMER_ID>  (1) 
000086C900000001

>  <PUBCHEM_MMFF94_ENERGY>  (1) 
80.3728

>  <PUBCHEM_FEATURE_SELFOVERLAP>  (1) 
50.807

>  <PUBCHEM_SHAPE_FINGERPRINT>  (1) 
10165383 225 18335705988571161213
107951 10 18410852191906320559
10906281 52 17560260062426013160
11315181 36 18059868264158502908
11578080 2 18265901435286894924
11582403 64 16622301954562389769
12592029 89 18116151065318483619
12895836 83 18041005067614344484
16945 1 17560816397950203656
17349148 13 17346323648055069568
17980427 26 18053348124822737972
18915476 22 17971488312257589555
192875 21 16343983606762504084
20600515 1 17251430564014690311
20645477 70 17203610432126328772
20832881 197 18129941170039265184
21033648 29 18408040732089814009
21756936 100 16443348706058456756
23559900 14 18201716284621902416
23598288 3 16952561188466029259
3729539 64 18194408783803255398
57527295 17 17845639464903002207
633830 44 18200573866149533413
81228 2 17904467851479901727
9709674 26 18125997415378423426
9981440 41 16553082302751158761

>  <PUBCHEM_SHAPE_MULTIPOLES>  (1) 
486.55
8.73
3.65
2.57
3.11
4.55
0.11
-5.96
-3.81
0.89
3.01
-0.48
0.04
2.13

>  <PUBCHEM_SHAPE_SELFOVERLAP>  (1) 
924.305

>  <PUBCHEM_SHAPE_VOLUME>  (1) 
308.1

>  <PUBCHEM_COORDINATE_TYPE>  (1) 
2
5
10

$$$$
