34504
     RDKit          3D

 22 22  0  0  0  0  0  0  0  0999 V2000
    0.5496    0.4337   -2.6654 I   0  0  0  0  0  0  0  0  0  0  0  0
   -2.1052   -1.4965    2.5044 I   0  0  0  0  0  0  0  0  0  0  0  0
    3.7840   -2.1051    1.8582 I   0  0  0  0  0  0  0  0  0  0  0  0
   -3.2419    1.5924   -0.5913 O   0  0  0  0  0  0  0  0  0  0  0  0
    4.9804    0.7380   -1.5210 O   0  0  0  0  0  0  0  0  0  0  0  0
    3.4302    1.5111   -0.0536 O   0  0  0  0  0  0  0  0  0  0  0  0
   -1.7379   -0.2062   -0.4732 N   0  0  0  0  0  0  0  0  0  0  0  0
   -2.5473   -1.1565   -1.2520 C   0  0  0  0  0  0  0  0  0  0  0  0
   -0.4528   -0.6367    0.0401 C   0  0  0  0  0  0  0  0  0  0  0  0
   -3.8948   -1.3962   -0.5791 C   0  0  0  0  0  0  0  0  0  0  0  0
   -2.1718    1.1123   -0.2091 C   0  0  0  0  0  0  0  0  0  0  0  0
   -1.1992    1.9888    0.5767 C   0  0  0  0  0  0  0  0  0  0  0  0
    0.6616   -0.4536   -0.7383 C   0  0  0  0  0  0  0  0  0  0  0  0
   -1.7402    3.3982    0.8216 C   0  0  0  0  0  0  0  0  0  0  0  0
    1.8946   -0.8699   -0.2360 C   0  0  0  0  0  0  0  0  0  0  0  0
   -0.4178   -1.2078    1.2873 C   0  0  0  0  0  0  0  0  0  0  0  0
   -4.7902   -2.3397   -1.3703 C   0  0  0  0  0  0  0  0  0  0  0  0
    1.9714   -1.4550    1.0278 C   0  0  0  0  0  0  0  0  0  0  0  0
    0.8152   -1.6239    1.7895 C   0  0  0  0  0  0  0  0  0  0  0  0
    3.1440   -0.6939   -1.0474 C   0  0  0  0  0  0  0  0  0  0  0  0
   -0.7647    4.2367    1.6318 C   0  0  0  0  0  0  0  0  0  0  0  0
    3.8329    0.6300   -0.8007 C   0  0  0  0  0  0  0  0  0  0  0  0
  1 13  1  0
  2 16  1  0
  3 18  1  0
  4 11  2  0
  5 22  1  0
  6 22  2  0
  7  8  1  0
  7  9  1  0
  7 11  1  0
  8 10  1  0
  9 13  2  0
  9 16  1  0
 10 17  1  0
 11 12  1  0
 12 14  1  0
 13 15  1  0
 14 21  1  0
 15 18  2  0
 15 20  1  0
 16 19  2  0
 18 19  1  0
 20 22  1  0
M  END
>  <PUBCHEM_COMPOUND_CID>  (1) 
34504

>  <PUBCHEM_CONFORMER_RMSD>  (1) 
0.8

>  <PUBCHEM_CONFORMER_DIVERSEORDER>  (1) 
1
42
32
39
12
35
15
2
23
6
3
24
14
41
37
26
30
20
8
29
11
34
27
10
22
7
31
38
25
9
28
33
21
36
16
40
18
44
4
17
13
5
43
19
45

>  <PUBCHEM_MMFF94_PARTIAL_CHARGES>  (1) 
20
1 -0.08
11 0.57
12 0.06
13 0.08
15 -0.14
16 0.08
18 0.08
19 -0.15
2 -0.08
20 0.2
22 0.66
3 -0.08
34 0.15
4 -0.57
40 0.5
5 -0.65
6 -0.57
7 -0.48
8 0.3
9 0.12

>  <PUBCHEM_EFFECTIVE_ROTOR_COUNT>  (1) 
8

>  <PUBCHEM_PHARMACOPHORE_FEATURES>  (1) 
10
1 1 hydrophobe
1 17 hydrophobe
1 2 hydrophobe
1 21 hydrophobe
1 3 hydrophobe
1 4 acceptor
1 5 acceptor
1 6 acceptor
3 5 6 22 anion
6 9 13 15 16 18 19 rings

>  <PUBCHEM_HEAVY_ATOM_COUNT>  (1) 
22

>  <PUBCHEM_ATOM_DEF_STEREO_COUNT>  (1) 
0

>  <PUBCHEM_ATOM_UDEF_STEREO_COUNT>  (1) 
0

>  <PUBCHEM_BOND_DEF_STEREO_COUNT>  (1) 
0

>  <PUBCHEM_BOND_UDEF_STEREO_COUNT>  (1) 
0

>  <PUBCHEM_ISOTOPIC_ATOM_COUNT>  (1) 
0

>  <PUBCHEM_COMPONENT_COUNT>  (1) 
1

>  <PUBCHEM_CACTVS_TAUTO_COUNT>  (1) 
1

>  <PUBCHEM_CONFORMER_ID>  (1) 
000086C800000001

>  <PUBCHEM_MMFF94_ENERGY>  (1) 
81.546

>  <PUBCHEM_FEATURE_SELFOVERLAP>  (1) 
50.807

>  <PUBCHEM_SHAPE_FINGERPRINT>  (1) 
11640471 11 18046072553281786888
12553582 1 18129366259077321943
12596599 1 18118397354641863430
12788726 201 18411138022196120915
13009979 54 18264193721708363794
13965767 371 16538481385556514136
14178342 30 18052521184916074930
14787075 74 18264210394723797581
15420108 30 16823032838703412977
16945 1 18127402350635929241
1813 80 17773581892783353423
18222031 100 17702368732460807887
20510252 161 17680733680620027178
21524375 3 17760097211323107841
2334 1 17095535014842980898
23352939 185 17774164651035948337
23419403 2 17685508936913162571
23557571 272 17846502525595971943
23558518 356 18049439241128369203
23559900 14 17914895340337234654
23598288 3 18410288078486390191
2748010 2 13576866195537571890
312423 11 18334857178020548706
3286 77 18264467577650344498
539174 4 17897171225834998196
5895379 119 17984420725126688552
7615 1 18189609454386906010

>  <PUBCHEM_SHAPE_MULTIPOLES>  (1) 
465.97
7.45
3.6
2.57
2.76
2.87
-0.05
-2.51
-2.48
-1.62
2.88
-0.63
0.31
-2.74

>  <PUBCHEM_SHAPE_SELFOVERLAP>  (1) 
886.61

>  <PUBCHEM_SHAPE_VOLUME>  (1) 
295.2

>  <PUBCHEM_COORDINATE_TYPE>  (1) 
2
5
10

$$$$
