34518
     RDKit          3D

 27 31  0  0  1  0  0  0  0  0999 V2000
    5.4263    0.3333   -1.4606 O   0  0  0  0  0  0  0  0  0  0  0  0
   -4.7923   -0.2142   -0.2872 O   0  0  0  0  0  0  0  0  0  0  0  0
    1.5940   -0.9291   -0.0541 N   0  0  0  0  0  0  0  0  0  0  0  0
    3.6474    0.4485    0.2410 C   0  0  0  0  0  0  0  0  0  0  0  0
    3.0338   -0.8580   -0.3243 C   0  0  0  0  0  0  0  0  0  0  0  0
    5.1537    0.2015   -0.0626 C   0  0  0  0  0  0  0  0  0  0  0  0
    2.9850    1.6212   -0.4986 C   0  0  0  0  0  0  0  0  0  0  0  0
    3.9531   -1.9374    0.2590 C   0  0  0  0  0  0  0  0  0  0  0  0
    0.8835    0.1578   -0.7958 C   0  0  0  0  0  0  0  0  0  0  0  0
    5.3528   -1.2909    0.2930 C   0  0  0  0  0  0  0  0  0  0  0  0
    1.4538    1.5461   -0.3927 C   0  0  0  0  0  0  0  0  0  0  0  0
    3.4050    0.6041    1.7723 C   0  0  0  0  0  0  0  0  0  0  0  0
    1.0214   -2.2338   -0.3954 C   0  0  0  0  0  0  0  0  0  0  0  0
   -0.6362    0.0778   -0.6349 C   0  0  0  0  0  0  0  0  0  0  0  0
   -0.3987   -2.3159    0.1610 C   0  0  0  0  0  0  0  0  0  0  0  0
   -1.2382   -1.1223   -0.2074 C   0  0  0  0  0  0  0  0  0  0  0  0
    6.0763    1.0684    0.6822 C   0  0  0  0  0  0  0  0  0  0  0  0
   -1.4717    1.1505   -0.9897 C   0  0  0  0  0  0  0  0  0  0  0  0
   -2.6334   -1.2066   -0.0790 C   0  0  0  0  0  0  0  0  0  0  0  0
   -2.8600    1.0541   -0.8698 C   0  0  0  0  0  0  0  0  0  0  0  0
   -3.4405   -0.1213   -0.4080 C   0  0  0  0  0  0  0  0  0  0  0  0
    6.8306    1.7767    1.2907 C   0  0  0  0  0  0  0  0  0  0  0  0
   -5.4292    0.7072    0.5891 C   0  0  0  0  0  0  0  0  0  0  0  0
   -6.2211   -0.0576    1.6385 C   0  0  0  0  0  0  0  0  0  0  0  0
   -6.5052    1.4862   -0.1520 C   0  0  0  0  0  0  0  0  0  0  0  0
   -7.5121   -0.4595    0.9267 C   0  0  0  0  0  0  0  0  0  0  0  0
   -7.6780    0.5130   -0.2413 C   0  0  0  0  0  0  0  0  0  0  0  0
  1  6  1  0
  2 21  1  0
  2 23  1  0
  3  5  1  0
  3  9  1  0
  3 13  1  0
  4  5  1  0
  4  6  1  0
  4  7  1  0
  4 12  1  0
  5  8  1  0
  6 10  1  0
  6 17  1  0
  7 11  1  0
  8 10  1  0
  9 11  1  0
  9 14  1  0
 13 15  1  0
 14 16  2  0
 14 18  1  0
 15 16  1  0
 16 19  1  0
 17 22  3  0
 18 20  2  0
 19 21  2  0
 20 21  1  0
 23 24  1  0
 23 25  1  0
 24 26  1  0
 25 27  1  0
 26 27  1  0
M  END
>  <PUBCHEM_COMPOUND_CID>  (1) 
34518

>  <PUBCHEM_CONFORMER_RMSD>  (1) 
0.8

>  <PUBCHEM_CONFORMER_DIVERSEORDER>  (1) 
1
4
6
5
3
2

>  <PUBCHEM_MMFF94_PARTIAL_CHARGES>  (1) 
22
1 -0.68
13 0.27
14 -0.14
15 0.14
16 -0.14
17 -0.2
18 -0.15
19 -0.15
2 -0.36
20 -0.15
21 0.08
22 -0.18
23 0.28
3 -0.81
45 0.4
46 0.15
47 0.15
48 0.15
49 0.18
5 0.27
6 0.48
9 0.41

>  <PUBCHEM_EFFECTIVE_ROTOR_COUNT>  (1) 
4.4

>  <PUBCHEM_PHARMACOPHORE_FEATURES>  (1) 
10
1 1 acceptor
1 1 donor
1 2 acceptor
1 22 hydrophobe
1 3 cation
5 23 24 25 26 27 rings
5 4 5 6 8 10 rings
6 14 16 18 19 20 21 rings
6 3 4 5 7 9 11 rings
6 3 9 13 14 15 16 rings

>  <PUBCHEM_HEAVY_ATOM_COUNT>  (1) 
27

>  <PUBCHEM_ATOM_DEF_STEREO_COUNT>  (1) 
4

>  <PUBCHEM_ATOM_UDEF_STEREO_COUNT>  (1) 
0

>  <PUBCHEM_BOND_DEF_STEREO_COUNT>  (1) 
0

>  <PUBCHEM_BOND_UDEF_STEREO_COUNT>  (1) 
0

>  <PUBCHEM_ISOTOPIC_ATOM_COUNT>  (1) 
0

>  <PUBCHEM_COMPONENT_COUNT>  (1) 
1

>  <PUBCHEM_CACTVS_TAUTO_COUNT>  (1) 
1

>  <PUBCHEM_CONFORMER_ID>  (1) 
000086D600000001

>  <PUBCHEM_MMFF94_ENERGY>  (1) 
86.1775

>  <PUBCHEM_FEATURE_SELFOVERLAP>  (1) 
50.854

>  <PUBCHEM_SHAPE_FINGERPRINT>  (1) 
10 15 18114178661791294680
10162869 55 18338227267860407567
10299344 5 12829490338130977417
10411042 1 17836367047952123094
106641 1 18040718103558425553
10693767 8 7997974548356266096
11089746 13 17203324512058588737
11456790 92 18342450410070073010
11578080 2 17701243962008544650
11646440 116 18273501173747901689
11719270 70 18333732390905926491
11724838 91 18410854399804236695
12035758 1 18187364354432032792
12107698 1 16443346477102383837
12236239 1 17632293479886862071
12403259 415 18335975372803171620
12730499 353 18342461409049385126
12838862 33 18337934762395317677
13073987 5 18262232218792139600
13533116 47 17917431973607367654
13540713 4 17971745575960301383
13540713 5 17681277977214211726
13668630 136 10665229254871517145
14170010 4 18408324384598567404
14251752 14 12535350065320276467
14251764 18 18408603690811796959
14341114 176 18409168788011495830
14464042 87 17775010055018385105
14849402 71 18130506443802875945
14856354 85 15338830994227074253
15082195 135 11239703232851242794
15142383 8 17022896831277944021
15183329 4 14979960272317104089
15475509 35 16733813187396710090
18608769 82 18411135874606802571
2026 5 11820088060782143544
20281389 69 18412544297504658449
21130935 74 18335704889070407771
21267235 1 18262802861649257622
21521721 280 18343584044564395859
21623969 137 18334581222435171671
21637258 2 14201112427225726657
21792934 111 18261663775496327992
22122407 14 17203052996567791001
22224240 67 18409445903855123723
23559900 14 18270954760652417024
23576562 1 13182153250858447009
23845131 108 17253143130463687445
24771293 8 18269264828777172060
2838139 119 16630526224629708513
29717793 49 11241970369222066194
3009799 131 10303810973616664327
3178227 256 18334022700587810033
335352 9 18409450284626911590
3383291 50 17023480745805742027
34797466 226 17274826848324131612
350125 39 18335140877790299477
4073 2 18187088394278304739
4093350 32 17346601872484926772
4340502 62 18410013229968802134
465052 167 17603869996170314578
5104073 3 18335135431513104243
5283156 175 12612748008666938509
5385378 56 18411981330403425834
5758199 1 18343304769122591467
58260988 393 16298657309887026396
59682541 35 18114181977242238465
59755656 215 18339647750166684903
6081469 158 12751247999687145168

>  <PUBCHEM_SHAPE_MULTIPOLES>  (1) 
538.93
19.62
1.97
1.17
20.09
0.63
0.3
-6.29
6.26
-1.61
0.01
-0.16
-0.28
0.89

>  <PUBCHEM_SHAPE_SELFOVERLAP>  (1) 
1168.368

>  <PUBCHEM_SHAPE_VOLUME>  (1) 
296.1

>  <PUBCHEM_COORDINATE_TYPE>  (1) 
2
5
10

$$$$
