34513
     RDKit          3D

 24 26  0  0  1  0  0  0  0  0999 V2000
    2.5905   -3.0470   -0.4936 Cl  0  0  0  0  0  0  0  0  0  0  0  0
   -0.4643    0.1339    0.0842 O   0  0  0  0  0  0  0  0  0  0  0  0
   -5.2910   -2.2865    0.0183 O   0  0  0  0  0  0  0  0  0  0  0  0
    0.9902   -0.1906    1.8190 O   0  0  0  0  0  0  0  0  0  0  0  0
   -3.2810   -0.2800   -0.1713 N   0  0  0  0  0  0  0  0  0  0  0  0
    1.7017   -0.1557   -0.4110 N   0  0  0  0  0  0  0  0  0  0  0  0
   -2.7201    1.0277    0.1619 C   0  0  0  0  0  0  0  0  0  0  0  0
   -1.3805    0.8662    0.8988 C   0  0  0  0  0  0  0  0  0  0  0  0
   -2.5667    1.8828   -1.1039 C   0  0  0  0  0  0  0  0  0  0  0  0
   -0.7734    2.2349    1.2225 C   0  0  0  0  0  0  0  0  0  0  0  0
   -1.9522    3.2435   -0.7773 C   0  0  0  0  0  0  0  0  0  0  0  0
   -0.6305    3.1074   -0.0261 C   0  0  0  0  0  0  0  0  0  0  0  0
   -3.4314   -1.1059    1.0349 C   0  0  0  0  0  0  0  0  0  0  0  0
   -4.5779   -0.1346   -0.8469 C   0  0  0  0  0  0  0  0  0  0  0  0
   -4.0290   -2.4600    0.6636 C   0  0  0  0  0  0  0  0  0  0  0  0
   -5.1494   -1.5116   -1.1730 C   0  0  0  0  0  0  0  0  0  0  0  0
    0.7815   -0.0837    0.6167 C   0  0  0  0  0  0  0  0  0  0  0  0
    3.0961   -0.3678   -0.3175 C   0  0  0  0  0  0  0  0  0  0  0  0
    3.9362    0.7311   -0.1980 C   0  0  0  0  0  0  0  0  0  0  0  0
    3.6075   -1.6579   -0.3459 C   0  0  0  0  0  0  0  0  0  0  0  0
    5.3142    0.5357   -0.1049 C   0  0  0  0  0  0  0  0  0  0  0  0
    3.4053    2.1278   -0.1653 C   0  0  0  0  0  0  0  0  0  0  0  0
    4.9854   -1.8532   -0.2530 C   0  0  0  0  0  0  0  0  0  0  0  0
    5.8389   -0.7564   -0.1323 C   0  0  0  0  0  0  0  0  0  0  0  0
  1 20  1  0
  2  8  1  0
  2 17  1  0
  3 15  1  0
  3 16  1  0
  4 17  2  0
  5  7  1  0
  5 13  1  0
  5 14  1  0
  6 17  1  0
  6 18  1  0
  7  8  1  0
  7  9  1  0
  8 10  1  0
  9 11  1  0
 10 12  1  0
 11 12  1  0
 13 15  1  0
 14 16  1  0
 18 19  2  0
 18 20  1  0
 19 21  1  0
 19 22  1  0
 20 23  2  0
 21 24  2  0
 23 24  1  0
M  END
>  <PUBCHEM_COMPOUND_CID>  (1) 
34513

>  <PUBCHEM_CONFORMER_RMSD>  (1) 
0.8

>  <PUBCHEM_CONFORMER_DIVERSEORDER>  (1) 
2
114
147
103
120
127
9
48
65
38
67
46
110
86
117
52
107
113
91
140
115
143
13
108
119
51
146
10
5
93
106
136
105
49
43
39
145
63
135
137
28
99
141
97
78
70
130
30
90
6
68
50
95
100
77
73
129
139
121
56
18
124
60
16
62
37
96
22
101
116
134
55
47
54
19
36
133
102
44
59
15
89
58
14
98
23
71
142
126
53
123
76
20
80
57
148
128
12
26
33
104
45
131
138
88
81
42
66
31
79
92
112
41
17
69
11
144
85
132
111
87
83
75
82
122
21
118
34
84
109
94
74
40
72
24
29
7
125
1
61
8
32
25
4
35
64
27
3

>  <PUBCHEM_MMFF94_PARTIAL_CHARGES>  (1) 
24
1 -0.18
13 0.27
14 0.27
15 0.28
16 0.28
17 0.78
18 0.12
19 -0.14
2 -0.43
20 0.18
21 -0.15
22 0.14
23 -0.15
24 -0.15
3 -0.56
4 -0.57
43 0.37
44 0.15
48 0.15
49 0.15
5 -0.81
6 -0.55
7 0.27
8 0.28

>  <PUBCHEM_EFFECTIVE_ROTOR_COUNT>  (1) 
7.4

>  <PUBCHEM_PHARMACOPHORE_FEATURES>  (1) 
7
1 3 acceptor
1 4 acceptor
1 5 cation
1 6 donor
6 18 19 20 21 23 24 rings
6 3 5 13 14 15 16 rings
6 7 8 9 10 11 12 rings

>  <PUBCHEM_HEAVY_ATOM_COUNT>  (1) 
24

>  <PUBCHEM_ATOM_DEF_STEREO_COUNT>  (1) 
0

>  <PUBCHEM_ATOM_UDEF_STEREO_COUNT>  (1) 
2

>  <PUBCHEM_BOND_DEF_STEREO_COUNT>  (1) 
0

>  <PUBCHEM_BOND_UDEF_STEREO_COUNT>  (1) 
0

>  <PUBCHEM_ISOTOPIC_ATOM_COUNT>  (1) 
0

>  <PUBCHEM_COMPONENT_COUNT>  (1) 
1

>  <PUBCHEM_CACTVS_TAUTO_COUNT>  (1) 
2

>  <PUBCHEM_CONFORMER_ID>  (1) 
000086D100000002

>  <PUBCHEM_MMFF94_ENERGY>  (1) 
75.8061

>  <PUBCHEM_FEATURE_SELFOVERLAP>  (1) 
35.522

>  <PUBCHEM_SHAPE_FINGERPRINT>  (1) 
11045515 52 18187085048609661341
11089746 13 13840268130508013206
12403259 226 18410292493591574464
12403260 363 18333450920318842840
12553582 1 18261383460862193395
12596602 18 15769773610722560555
12788726 201 18261385620656016283
12916754 54 18412831265665523376
13103583 49 16558479685779662171
13544653 18 18342181098129643625
13631057 29 18413107243073513082
14251764 30 18339639066075452943
14347332 77 18335978662600602442
15238133 3 9079115588032886410
15352361 1 18410576210192475903
15849732 13 18262248725285394881
17349148 13 17749399156684735112
17492 89 18340488846735006814
200 152 18342457032350622560
20871999 31 18335412453283857557
21033650 10 17022894619544165085
22393880 68 17968647250919538045
23402539 116 18409168800711787849
23557571 272 18341896242655371268
23559900 14 18409721855103134040
2838139 119 13912593979212550687
3004659 81 18260263057648631163
314194 84 18200313363476906327
329604 57 18411420630780245734
4214541 1 18337675196378774924
4280585 95 18261663874343743049
46194498 28 17533772965215514949
463206 1 18268151031534249039
5104073 3 18272369720679908600
5283173 99 18186793661053698565
6669772 16 17767680929736260192
6913067 236 18341038709843274040
7495541 125 17846212285055227552
9709674 26 18267310833025892678

>  <PUBCHEM_SHAPE_MULTIPOLES>  (1) 
468.21
12.56
3.51
1.1
4.3
0.75
0.19
-7.82
-2.5
-1.78
-0.39
-0.8
0.09
0.59

>  <PUBCHEM_SHAPE_SELFOVERLAP>  (1) 
971.206

>  <PUBCHEM_SHAPE_VOLUME>  (1) 
267.2

>  <PUBCHEM_COORDINATE_TYPE>  (1) 
2
5
10

$$$$
