34515
     RDKit          3D

 24 26  0  0  1  0  0  0  0  0999 V2000
   -0.4690    0.1288    0.0839 O   0  0  0  0  0  0  0  0  0  0  0  0
   -5.2945   -2.2937    0.0120 O   0  0  0  0  0  0  0  0  0  0  0  0
    0.9855   -0.1989    1.8182 O   0  0  0  0  0  0  0  0  0  0  0  0
   -3.2855   -0.2858   -0.1728 N   0  0  0  0  0  0  0  0  0  0  0  0
    1.6973   -0.1586   -0.4116 N   0  0  0  0  0  0  0  0  0  0  0  0
   -2.7252    1.0214    0.1633 C   0  0  0  0  0  0  0  0  0  0  0  0
   -1.3856    0.8589    0.9001 C   0  0  0  0  0  0  0  0  0  0  0  0
   -2.5721    1.8794   -1.1005 C   0  0  0  0  0  0  0  0  0  0  0  0
   -0.7792    2.2272    1.2269 C   0  0  0  0  0  0  0  0  0  0  0  0
   -1.9583    3.2397   -0.7708 C   0  0  0  0  0  0  0  0  0  0  0  0
   -0.6366    3.1025   -0.0197 C   0  0  0  0  0  0  0  0  0  0  0  0
   -3.4356   -1.1145    1.0314 C   0  0  0  0  0  0  0  0  0  0  0  0
   -4.5824   -0.1396   -0.8482 C   0  0  0  0  0  0  0  0  0  0  0  0
   -4.0325   -2.4680    0.6571 C   0  0  0  0  0  0  0  0  0  0  0  0
   -5.1531   -1.5160   -1.1775 C   0  0  0  0  0  0  0  0  0  0  0  0
    0.7768   -0.0894    0.6161 C   0  0  0  0  0  0  0  0  0  0  0  0
    3.0917   -0.3702   -0.3184 C   0  0  0  0  0  0  0  0  0  0  0  0
    3.9415    0.7200   -0.1960 C   0  0  0  0  0  0  0  0  0  0  0  0
    3.5899   -1.6650   -0.3513 C   0  0  0  0  0  0  0  0  0  0  0  0
    5.3177    0.5113   -0.1046 C   0  0  0  0  0  0  0  0  0  0  0  0
    4.9659   -1.8739   -0.2598 C   0  0  0  0  0  0  0  0  0  0  0  0
    3.4233    2.1214   -0.1588 C   0  0  0  0  0  0  0  0  0  0  0  0
    2.6900   -2.8511   -0.4823 C   0  0  0  0  0  0  0  0  0  0  0  0
    5.8299   -0.7857   -0.1366 C   0  0  0  0  0  0  0  0  0  0  0  0
  1  7  1  0
  1 16  1  0
  2 14  1  0
  2 15  1  0
  3 16  2  0
  4  6  1  0
  4 12  1  0
  4 13  1  0
  5 16  1  0
  5 17  1  0
  6  7  1  0
  6  8  1  0
  7  9  1  0
  8 10  1  0
  9 11  1  0
 10 11  1  0
 12 14  1  0
 13 15  1  0
 17 18  2  0
 17 19  1  0
 18 20  1  0
 18 22  1  0
 19 21  2  0
 19 23  1  0
 20 24  2  0
 21 24  1  0
M  END
>  <PUBCHEM_COMPOUND_CID>  (1) 
34515

>  <PUBCHEM_CONFORMER_RMSD>  (1) 
0.8

>  <PUBCHEM_CONFORMER_DIVERSEORDER>  (1) 
1
50
74
97
70
54
108
98
39
55
32
112
41
106
96
75
62
107
40
65
81
79
45
53
35
24
58
120
9
110
83
16
100
6
11
80
61
91
44
92
17
36
118
105
72
119
64
101
48
77
14
38
57
19
49
10
5
76
66
82
15
84
18
51
52
69
90
20
28
63
47
12
103
13
73
109
117
95
104
113
68
67
59
102
114
34
111
2
60
86
33
42
7
115
89
87
31
71
37
88
78
85
93
30
8
99
94
43
21
116
27
25
56
46
23
4
29
22
26
3

>  <PUBCHEM_MMFF94_PARTIAL_CHARGES>  (1) 
24
1 -0.43
12 0.27
13 0.27
14 0.28
15 0.28
16 0.78
17 0.12
18 -0.14
19 -0.14
2 -0.56
20 -0.15
21 -0.15
22 0.14
23 0.14
24 -0.15
3 -0.57
4 -0.81
43 0.37
44 0.15
45 0.15
5 -0.55
52 0.15
6 0.27
7 0.28

>  <PUBCHEM_EFFECTIVE_ROTOR_COUNT>  (1) 
7.4

>  <PUBCHEM_PHARMACOPHORE_FEATURES>  (1) 
7
1 2 acceptor
1 3 acceptor
1 4 cation
1 5 donor
6 17 18 19 20 21 24 rings
6 2 4 12 13 14 15 rings
6 6 7 8 9 10 11 rings

>  <PUBCHEM_HEAVY_ATOM_COUNT>  (1) 
24

>  <PUBCHEM_ATOM_DEF_STEREO_COUNT>  (1) 
0

>  <PUBCHEM_ATOM_UDEF_STEREO_COUNT>  (1) 
2

>  <PUBCHEM_BOND_DEF_STEREO_COUNT>  (1) 
0

>  <PUBCHEM_BOND_UDEF_STEREO_COUNT>  (1) 
0

>  <PUBCHEM_ISOTOPIC_ATOM_COUNT>  (1) 
0

>  <PUBCHEM_COMPONENT_COUNT>  (1) 
1

>  <PUBCHEM_CACTVS_TAUTO_COUNT>  (1) 
2

>  <PUBCHEM_CONFORMER_ID>  (1) 
000086D300000001

>  <PUBCHEM_MMFF94_ENERGY>  (1) 
77.4774

>  <PUBCHEM_FEATURE_SELFOVERLAP>  (1) 
35.522

>  <PUBCHEM_SHAPE_FINGERPRINT>  (1) 
11045515 52 18187366519291404701
11089746 13 13695871467444916654
12403259 226 18410292493591567968
12403260 363 18333450920318836344
12553582 1 18261384560347525435
12596602 18 15697996392160264979
12788726 201 18261385624929884579
12916754 54 18413112736347247248
13103583 49 16558479685784936939
13544653 18 18342462568806131705
13631057 29 18413107243068244834
14251764 30 18339920541057444847
14347332 77 18335978662595334186
14790565 3 17762619495836116209
15352361 1 18410856585641741023
15849732 13 18262248725285388393
17349148 13 17749399156690029376
17492 89 18340770321690644478
200 152 18342457032366433832
20871999 31 18335693923960345669
21033650 10 17022894615243910045
221490 88 18411984637670226600
22393880 68 17968647246629826021
23402539 116 18409168800711781345
23557571 272 18341897342177522580
23559900 14 18409721855097859288
2838139 119 13840254910224272847
3004659 81 18260544532630616563
314194 84 18200313363476912823
329604 57 18411419531284461678
4214541 1 18337956671344910084
4280585 95 18261663870048762761
46194498 28 17533772965210240197
463206 1 18268151035818634351
5104073 3 18272369720685170362
5283173 99 18186793661048417309
6669772 16 17767400558523965992
6913067 236 18341038709838025288
7495541 125 17846493755731676672
9709674 26 18267592308013146358

>  <PUBCHEM_SHAPE_MULTIPOLES>  (1) 
466.34
12.6
3.43
1.09
4.45
0.96
0.19
-8.04
-2.57
-1.9
-0.35
-0.8
0.09
0.58

>  <PUBCHEM_SHAPE_SELFOVERLAP>  (1) 
974.589

>  <PUBCHEM_SHAPE_VOLUME>  (1) 
262.1

>  <PUBCHEM_COORDINATE_TYPE>  (1) 
2
5
10

$$$$
