34519
     RDKit          3D

 15 15  0  0  0  0  0  0  0  0999 V2000
    0.5895   -0.4210    0.6143 N   0  0  0  0  0  0  0  0  0  0  0  0
    2.7344   -0.6708   -0.0512 N   0  0  0  0  0  0  0  0  0  0  0  0
    1.0855   -0.4378   -1.7368 N   0  0  0  0  0  0  0  0  0  0  0  0
    4.7871    0.3032    0.4762 N   0  0  0  0  0  0  0  0  0  0  0  0
    3.0471    1.7123    0.0256 N   0  0  0  0  0  0  0  0  0  0  0  0
   -1.6218   -1.3416    0.2049 C   0  0  0  0  0  0  0  0  0  0  0  0
   -0.7813   -0.2428    0.3644 C   0  0  0  0  0  0  0  0  0  0  0  0
   -2.6496    1.2459    0.0304 C   0  0  0  0  0  0  0  0  0  0  0  0
   -1.2908    1.0504    0.2779 C   0  0  0  0  0  0  0  0  0  0  0  0
   -2.9806   -1.1459   -0.0426 C   0  0  0  0  0  0  0  0  0  0  0  0
   -3.4945    0.1478   -0.1299 C   0  0  0  0  0  0  0  0  0  0  0  0
   -1.0952   -2.7365    0.2940 C   0  0  0  0  0  0  0  0  0  0  0  0
   -3.1992    2.6292   -0.0632 C   0  0  0  0  0  0  0  0  0  0  0  0
    1.4094   -0.4951   -0.3974 C   0  0  0  0  0  0  0  0  0  0  0  0
    3.4599    0.4026    0.1332 C   0  0  0  0  0  0  0  0  0  0  0  0
  1  7  1  0
  1 14  2  0
  2 14  1  0
  2 15  2  0
  3 14  1  0
  4 15  1  0
  5 15  1  0
  6  7  2  0
  6 10  1  0
  6 12  1  0
  7  9  1  0
  8  9  2  0
  8 11  1  0
  8 13  1  0
 10 11  2  0
M  END
>  <PUBCHEM_COMPOUND_CID>  (1) 
34519

>  <PUBCHEM_CONFORMER_RMSD>  (1) 
0.6

>  <PUBCHEM_CONFORMER_DIVERSEORDER>  (1) 
1
3
6
4
2
5

>  <PUBCHEM_MMFF94_PARTIAL_CHARGES>  (1) 
24
1 -0.63
10 -0.15
11 -0.15
12 0.14
13 0.14
14 0.71
15 0.55
16 0.15
17 0.15
18 0.15
2 -0.66
25 0.4
26 0.4
27 0.4
28 0.4
29 0.4
3 -0.85
30 0.4
4 -0.85
5 -0.85
6 -0.14
7 0.18
8 -0.14
9 -0.15

>  <PUBCHEM_EFFECTIVE_ROTOR_COUNT>  (1) 
2

>  <PUBCHEM_PHARMACOPHORE_FEATURES>  (1) 
6
1 3 donor
1 4 donor
1 5 donor
4 1 2 3 14 cation
4 2 4 5 15 cation
6 6 7 8 9 10 11 rings

>  <PUBCHEM_HEAVY_ATOM_COUNT>  (1) 
15

>  <PUBCHEM_ATOM_DEF_STEREO_COUNT>  (1) 
0

>  <PUBCHEM_ATOM_UDEF_STEREO_COUNT>  (1) 
0

>  <PUBCHEM_BOND_DEF_STEREO_COUNT>  (1) 
0

>  <PUBCHEM_BOND_UDEF_STEREO_COUNT>  (1) 
0

>  <PUBCHEM_ISOTOPIC_ATOM_COUNT>  (1) 
0

>  <PUBCHEM_COMPONENT_COUNT>  (1) 
1

>  <PUBCHEM_CACTVS_TAUTO_COUNT>  (1) 
5

>  <PUBCHEM_CONFORMER_ID>  (1) 
000086D700000001

>  <PUBCHEM_MMFF94_ENERGY>  (1) 
50.3237

>  <PUBCHEM_FEATURE_SELFOVERLAP>  (1) 
30.547

>  <PUBCHEM_SHAPE_FINGERPRINT>  (1) 
10608611 8 18341611533736922848
12138202 97 18060132116135448151
12162725 195 18335984254822017020
12173636 292 18410290290056586853
12251169 10 18334292089431370004
12500047 106 18410289203435154906
13296909 8 18261107504142991348
13380535 76 18413388730755842550
14123255 52 18120936110143013357
14614273 12 18187923916305058765
15042514 8 18263932210104005547
15219456 202 18131358470618782398
15775835 57 18187649037870723761
16945 1 18263380199336782631
1741750 31 18339081480261526945
18186145 218 18129111021496009553
20510252 161 18342181055280126385
20645477 56 18411142419867988241
20645477 70 16916798340486305822
21524375 3 18187647930032723603
23402539 116 18340196484047401287
23557571 272 18272663358445013557
23559900 14 18200593575975954982
2748010 2 18193575388660122287
305870 269 18116714019482521627
3071541 12 17691125938061077371
4175511 318 17917710240090079406
573450 72 18261660520227551386
6333449 129 18411136948258806233
69090 78 18411134744914443455
7364860 26 17978510828151655739
9709674 26 18341619226102887094

>  <PUBCHEM_SHAPE_MULTIPOLES>  (1) 
283.79
7.04
2.3
0.83
6.47
0.05
0.26
-3.01
-0.44
-2.06
-0.15
0.22
0.09
0.21

>  <PUBCHEM_SHAPE_SELFOVERLAP>  (1) 
587.985

>  <PUBCHEM_SHAPE_VOLUME>  (1) 
159.6

>  <PUBCHEM_COORDINATE_TYPE>  (1) 
2
5
10

$$$$
