34530
     RDKit          3D

 18 18  0  0  0  0  0  0  0  0999 V2000
   -2.9222    1.1355    0.0027 O   0  0  0  0  0  0  0  0  0  0  0  0
    0.2648   -2.2180    0.0064 O   0  0  0  0  0  0  0  0  0  0  0  0
    1.5755    2.2188   -0.0057 O   0  0  0  0  0  0  0  0  0  0  0  0
   -1.3648   -0.5756    0.0043 N   0  0  0  0  0  0  0  0  0  0  0  0
   -0.6850    1.7256   -0.0019 N   0  0  0  0  0  0  0  0  0  0  0  0
    0.9680   -0.0136   -0.0002 N   0  0  0  0  0  0  0  0  0  0  0  0
   -5.2812    0.7298   -0.0143 C   0  0  0  0  0  0  0  0  0  0  0  0
    1.8036   -4.0509   -0.0122 C   0  0  0  0  0  0  0  0  0  0  0  0
    3.8633    2.9213    0.0114 C   0  0  0  0  0  0  0  0  0  0  0  0
   -3.8963    0.1012    0.0064 C   0  0  0  0  0  0  0  0  0  0  0  0
    1.6488   -2.5379    0.0055 C   0  0  0  0  0  0  0  0  0  0  0  0
    2.9111    1.7354   -0.0063 C   0  0  0  0  0  0  0  0  0  0  0  0
   -6.3782   -0.3195    0.0036 C   0  0  0  0  0  0  0  0  0  0  0  0
    3.2629   -4.4694    0.0009 C   0  0  0  0  0  0  0  0  0  0  0  0
    5.3157    2.4798   -0.0035 C   0  0  0  0  0  0  0  0  0  0  0  0
   -1.6076    0.7471    0.0017 C   0  0  0  0  0  0  0  0  0  0  0  0
   -0.0572   -0.8809    0.0035 C   0  0  0  0  0  0  0  0  0  0  0  0
    0.5787    1.2713   -0.0024 C   0  0  0  0  0  0  0  0  0  0  0  0
  1 10  1  0
  1 16  1  0
  2 11  1  0
  2 17  1  0
  3 12  1  0
  3 18  1  0
  4 16  2  0
  4 17  1  0
  5 16  1  0
  5 18  2  0
  6 17  2  0
  6 18  1  0
  7 10  1  0
  7 13  1  0
  8 11  1  0
  8 14  1  0
  9 12  1  0
  9 15  1  0
M  END
>  <PUBCHEM_COMPOUND_CID>  (1) 
34530

>  <PUBCHEM_CONFORMER_RMSD>  (1) 
0.8

>  <PUBCHEM_CONFORMER_DIVERSEORDER>  (1) 
1
31
26
33
37
22
30
17
24
11
39
4
36
10
42
45
16
48
44
34
25
5
19
18
27
41
47
9
29
40
14
38
6
32
20
8
28
15
35
13
21
46
43
7
3
23
12
2

>  <PUBCHEM_MMFF94_PARTIAL_CHARGES>  (1) 
12
1 -0.36
10 0.28
11 0.28
12 0.28
16 0.7
17 0.7
18 0.7
2 -0.36
3 -0.36
4 -0.62
5 -0.62
6 -0.62

>  <PUBCHEM_EFFECTIVE_ROTOR_COUNT>  (1) 
9

>  <PUBCHEM_PHARMACOPHORE_FEATURES>  (1) 
7
1 13 hydrophobe
1 14 hydrophobe
1 15 hydrophobe
3 4 5 16 cation
3 4 6 17 cation
3 5 6 18 cation
6 4 5 6 16 17 18 rings

>  <PUBCHEM_HEAVY_ATOM_COUNT>  (1) 
18

>  <PUBCHEM_ATOM_DEF_STEREO_COUNT>  (1) 
0

>  <PUBCHEM_ATOM_UDEF_STEREO_COUNT>  (1) 
0

>  <PUBCHEM_BOND_DEF_STEREO_COUNT>  (1) 
0

>  <PUBCHEM_BOND_UDEF_STEREO_COUNT>  (1) 
0

>  <PUBCHEM_ISOTOPIC_ATOM_COUNT>  (1) 
0

>  <PUBCHEM_COMPONENT_COUNT>  (1) 
1

>  <PUBCHEM_CACTVS_TAUTO_COUNT>  (1) 
1

>  <PUBCHEM_CONFORMER_ID>  (1) 
000086E200000001

>  <PUBCHEM_MMFF94_ENERGY>  (1) 
32.593

>  <PUBCHEM_FEATURE_SELFOVERLAP>  (1) 
38.286

>  <PUBCHEM_SHAPE_FINGERPRINT>  (1) 
10411042 1 17978510828057021958
12107183 9 17838345078091548945
12592029 89 18411138039090997888
138480 1 18194683653663187042
13955234 65 18411421691700530307
13968360 50 18336819887811487519
14508225 48 17618488896799397926
14790565 3 18194122056065541685
15927050 60 18341332313871750638
167882 2 18409730634042387894
17539 30 17406269310196684454
18785283 64 18334292050687078010
18915476 22 18263063479800308981
20645477 70 18334851689648033995
21054139 6 18126839628785397039
212916 134 18127676322490027344
221490 88 18335990766440986659
23366157 5 18188216381565080816
23402539 116 18128252483515028445
23559900 14 18192986016194282179
23566358 27 18340761572731337055
249999 5 18411416198326653642
3071541 37 18408609162384068613
3091708 16 9259118805131422498
3421961 26 18339079272864731419
366044 4 18337953518617745553
42630746 31 18413671318033923021
474229 33 18264489662477656009
5104073 3 18334865970625595953
532947 4 18412551994465848166
5385378 56 18411706482381593241
59755656 215 18409452491918335157
7364860 26 18411418367168950355
77188 2 17978509733135312478
81539 233 18334292093478644957

>  <PUBCHEM_SHAPE_MULTIPOLES>  (1) 
337.88
10.66
5.13
0.59
13.69
6.92
0
-5.47
-0.01
-10.66
-0.01
-0.01
0.01
0.01

>  <PUBCHEM_SHAPE_SELFOVERLAP>  (1) 
660.87

>  <PUBCHEM_SHAPE_VOLUME>  (1) 
199.8

>  <PUBCHEM_COORDINATE_TYPE>  (1) 
2
5
10

$$$$
