34549
     RDKit          3D

 18 19  0  0  0  0  0  0  0  0999 V2000
   -0.3022    0.0279    0.5478 N   0  0  0  0  0  0  0  0  0  0  0  0
    0.3017   -0.0285   -0.5484 N   0  0  0  0  0  0  0  0  0  0  0  0
   -2.4375    1.1139    0.1386 C   0  0  0  0  0  0  0  0  0  0  0  0
    2.4371   -1.1140   -0.1389 C   0  0  0  0  0  0  0  0  0  0  0  0
   -1.6845   -0.0436    0.3353 C   0  0  0  0  0  0  0  0  0  0  0  0
    1.6889    0.0436   -0.3347 C   0  0  0  0  0  0  0  0  0  0  0  0
   -4.4365   -0.2243   -0.0854 C   0  0  0  0  0  0  0  0  0  0  0  0
    4.4358    0.2246    0.0857 C   0  0  0  0  0  0  0  0  0  0  0  0
   -3.8134    1.0236   -0.0717 C   0  0  0  0  0  0  0  0  0  0  0  0
    3.8130   -1.0234    0.0717 C   0  0  0  0  0  0  0  0  0  0  0  0
   -2.3076   -1.2915    0.3216 C   0  0  0  0  0  0  0  0  0  0  0  0
    2.3067    1.2914   -0.3214 C   0  0  0  0  0  0  0  0  0  0  0  0
   -3.6835   -1.3819    0.1113 C   0  0  0  0  0  0  0  0  0  0  0  0
    3.6826    1.3820   -0.1109 C   0  0  0  0  0  0  0  0  0  0  0  0
   -1.7925    2.4613    0.1489 C   0  0  0  0  0  0  0  0  0  0  0  0
    1.7924   -2.4616   -0.1498 C   0  0  0  0  0  0  0  0  0  0  0  0
   -5.9076   -0.3214   -0.3106 C   0  0  0  0  0  0  0  0  0  0  0  0
    5.9070    0.3219    0.3106 C   0  0  0  0  0  0  0  0  0  0  0  0
  1  2  2  0
  1  5  1  0
  2  6  1  0
  3  5  2  0
  3  9  1  0
  3 15  1  0
  4  6  2  0
  4 10  1  0
  4 16  1  0
  5 11  1  0
  6 12  1  0
  7  9  2  0
  7 13  1  0
  7 17  1  0
  8 10  2  0
  8 14  1  0
  8 18  1  0
 11 13  2  0
 12 14  2  0
M  END
>  <PUBCHEM_COMPOUND_CID>  (1) 
34549

>  <PUBCHEM_CONFORMER_RMSD>  (1) 
0.6

>  <PUBCHEM_CONFORMER_DIVERSEORDER>  (1) 
1
6
5
4
3
2

>  <PUBCHEM_MMFF94_PARTIAL_CHARGES>  (1) 
24
1 -0.18
10 -0.15
11 -0.15
12 -0.15
13 -0.15
14 -0.15
15 0.14
16 0.14
17 0.14
18 0.14
19 0.15
2 -0.18
20 0.15
21 0.15
22 0.15
23 0.15
24 0.15
3 -0.14
4 -0.14
5 0.18
6 0.18
7 -0.14
8 -0.14
9 -0.15

>  <PUBCHEM_EFFECTIVE_ROTOR_COUNT>  (1) 
2

>  <PUBCHEM_PHARMACOPHORE_FEATURES>  (1) 
2
6 3 5 7 9 11 13 rings
6 4 6 8 10 12 14 rings

>  <PUBCHEM_HEAVY_ATOM_COUNT>  (1) 
18

>  <PUBCHEM_ATOM_DEF_STEREO_COUNT>  (1) 
0

>  <PUBCHEM_ATOM_UDEF_STEREO_COUNT>  (1) 
0

>  <PUBCHEM_BOND_DEF_STEREO_COUNT>  (1) 
0

>  <PUBCHEM_BOND_UDEF_STEREO_COUNT>  (1) 
0

>  <PUBCHEM_ISOTOPIC_ATOM_COUNT>  (1) 
0

>  <PUBCHEM_COMPONENT_COUNT>  (1) 
1

>  <PUBCHEM_CACTVS_TAUTO_COUNT>  (1) 
1

>  <PUBCHEM_CONFORMER_ID>  (1) 
000086F500000001

>  <PUBCHEM_MMFF94_ENERGY>  (1) 
49.4981

>  <PUBCHEM_FEATURE_SELFOVERLAP>  (1) 
10.149

>  <PUBCHEM_SHAPE_FINGERPRINT>  (1) 
10 15 18269824454858157136
10366900 7 18342739632566489264
10616163 171 18411984693151847903
10968037 39 18411418432142001679
11315181 36 18041001764921474488
11370993 70 18408884040122545258
12107183 9 17689152310098567856
128620 24 17346882247238067180
13167823 11 18410854356327172791
13533116 47 17676476216562049930
14341114 176 18409453570334713346
15196674 1 18338798914062254085
15375358 24 18333454248243478547
15442244 35 18050006597543603970
17492 89 18268148656649624727
17802600 8 18411980269293107608
18522853 276 18411419509698985288
18681886 176 18340484564968539216
19050596 39 18410296916816577897
200 152 18273211997841581069
20279233 1 18260838097971836163
20645477 56 18260548879796974725
20645477 70 18342177717732399814
21267235 1 18410302410100893951
21709351 56 18335415790183205820
23402539 116 18409724093165892479
23557571 272 18202289073733482081
23559900 14 18410006680180676953
26918003 58 18186521033498387019
2871803 45 18409449171966481358
33824 294 18408603639367706490
351380 180 18409728473832074144
3545911 37 18409731763539548541
4214541 1 18409730625452628685
474 4 17749678483998703212
474229 33 18412826914984978246
5104073 3 18338519629539990315
5283173 99 18115577159310094749
5374978 207 18410853269763549321
542803 24 17385446526660513356
58051976 378 18413673504204048734
59755656 215 18411705366054145118
67856867 119 18189898784811750796
69090 78 18409448085587766235
77779 3 18410858750073110533
9709674 26 18338806628014045431

>  <PUBCHEM_SHAPE_MULTIPOLES>  (1) 
360.47
12.03
1.99
0.68
0.01
0
0
0
0
0
0
0
0
0

>  <PUBCHEM_SHAPE_SELFOVERLAP>  (1) 
768.267

>  <PUBCHEM_SHAPE_VOLUME>  (1) 
203.5

>  <PUBCHEM_COORDINATE_TYPE>  (1) 
2
5
10

$$$$
