34556
     RDKit          3D

 18 19  0  0  0  0  0  0  0  0999 V2000
   -0.2986    0.2757    0.5507 N   0  0  0  0  0  0  0  0  0  0  0  0
    0.2979    0.2757   -0.5518 N   0  0  0  0  0  0  0  0  0  0  0  0
   -3.7524   -0.9312    0.0411 C   0  0  0  0  0  0  0  0  0  0  0  0
    3.7516   -0.9313   -0.0412 C   0  0  0  0  0  0  0  0  0  0  0  0
   -4.4419    0.2770   -0.0608 C   0  0  0  0  0  0  0  0  0  0  0  0
    4.4411    0.2769    0.0611 C   0  0  0  0  0  0  0  0  0  0  0  0
   -2.3724   -0.9319    0.2447 C   0  0  0  0  0  0  0  0  0  0  0  0
    2.3717   -0.9318   -0.2452 C   0  0  0  0  0  0  0  0  0  0  0  0
   -1.6819    0.2758    0.3463 C   0  0  0  0  0  0  0  0  0  0  0  0
    1.6881    0.2758   -0.3459 C   0  0  0  0  0  0  0  0  0  0  0  0
   -3.7513    1.4846    0.0409 C   0  0  0  0  0  0  0  0  0  0  0  0
    3.7505    1.4846   -0.0408 C   0  0  0  0  0  0  0  0  0  0  0  0
   -2.3714    1.4841    0.2446 C   0  0  0  0  0  0  0  0  0  0  0  0
    2.3707    1.4841   -0.2448 C   0  0  0  0  0  0  0  0  0  0  0  0
   -4.4703   -2.2366   -0.0650 C   0  0  0  0  0  0  0  0  0  0  0  0
    4.4695   -2.2366    0.0652 C   0  0  0  0  0  0  0  0  0  0  0  0
   -5.9190    0.3026   -0.2791 C   0  0  0  0  0  0  0  0  0  0  0  0
    5.9182    0.3025    0.2800 C   0  0  0  0  0  0  0  0  0  0  0  0
  1  2  2  0
  1  9  1  0
  2 10  1  0
  3  5  2  0
  3  7  1  0
  3 15  1  0
  4  6  2  0
  4  8  1  0
  4 16  1  0
  5 11  1  0
  5 17  1  0
  6 12  1  0
  6 18  1  0
  7  9  2  0
  8 10  2  0
  9 13  1  0
 10 14  1  0
 11 13  2  0
 12 14  2  0
M  END
>  <PUBCHEM_COMPOUND_CID>  (1) 
34556

>  <PUBCHEM_CONFORMER_RMSD>  (1) 
0.6

>  <PUBCHEM_CONFORMER_DIVERSEORDER>  (1) 
1
5
3
4
2

>  <PUBCHEM_MMFF94_PARTIAL_CHARGES>  (1) 
24
1 -0.18
10 0.18
11 -0.15
12 -0.15
13 -0.15
14 -0.15
15 0.14
16 0.14
17 0.14
18 0.14
19 0.15
2 -0.18
20 0.15
21 0.15
22 0.15
23 0.15
24 0.15
3 -0.14
4 -0.14
5 -0.14
6 -0.14
7 -0.15
8 -0.15
9 0.18

>  <PUBCHEM_EFFECTIVE_ROTOR_COUNT>  (1) 
2

>  <PUBCHEM_PHARMACOPHORE_FEATURES>  (1) 
2
6 3 5 7 9 11 13 rings
6 4 6 8 10 12 14 rings

>  <PUBCHEM_HEAVY_ATOM_COUNT>  (1) 
18

>  <PUBCHEM_ATOM_DEF_STEREO_COUNT>  (1) 
0

>  <PUBCHEM_ATOM_UDEF_STEREO_COUNT>  (1) 
0

>  <PUBCHEM_BOND_DEF_STEREO_COUNT>  (1) 
0

>  <PUBCHEM_BOND_UDEF_STEREO_COUNT>  (1) 
0

>  <PUBCHEM_ISOTOPIC_ATOM_COUNT>  (1) 
0

>  <PUBCHEM_COMPONENT_COUNT>  (1) 
1

>  <PUBCHEM_CACTVS_TAUTO_COUNT>  (1) 
1

>  <PUBCHEM_CONFORMER_ID>  (1) 
000086FC00000001

>  <PUBCHEM_MMFF94_ENERGY>  (1) 
50.9649

>  <PUBCHEM_FEATURE_SELFOVERLAP>  (1) 
10.149

>  <PUBCHEM_SHAPE_FINGERPRINT>  (1) 
10 15 18201144556166551552
10595046 47 18410857697822200669
11315181 36 18412830204539615032
11405975 8 18412267211836786081
12107183 9 17762620590445225936
12236239 1 18411136930809911667
13167823 11 18410854364911826119
13533116 47 18343017748968808714
14341114 176 18412269410764920310
15196674 1 18410856563935172615
15788980 27 18260269659071043217
17492 89 18411984654291680222
17834072 33 18408605885508612060
17844677 252 18411990151886333104
17857418 61 18410289211677027322
1813 80 17022627446660506660
18186145 218 15864071022281332845
18681886 176 18343018939360259624
19489759 90 18408601470176769209
200 152 18202562873903964353
20645477 70 18339925909740074062
21065198 48 18271811177136280456
21065198 57 18411138017447466397
21267235 1 18410583885051113891
21709351 56 18334853943962643468
220451 1 18411146835009829442
22485316 2 18410575084663117891
22646028 1 18410856559639796071
23402539 116 18336260223755961061
23557571 272 18060143098230134929
23559900 14 18411414042253155449
239999 70 18273221889700163302
26918003 58 18413107272884836273
300161 21 18408598167051330968
3004659 81 18334859373133789818
3421961 26 18268427928856595738
34797466 226 17846506958408845228
351380 180 18410292514474989033
3545911 37 18410857659167514452
4073 2 18113906000066324834
4214541 1 18410575067757769669
4921388 177 16805893999758762475
5104073 3 18341897376484104883
5283173 99 18263074440641828629
542803 24 17458067070615030292
559249 180 18264203604602054963
573450 72 18409162186673148913
59755656 520 16515682260862225099
633830 44 16877667867824475773
67856867 119 18264208174331531788
7495541 125 17775281715799456968
77779 3 18410576188469816897
9709674 26 18335991946792270971
9971528 1 17894633647587403772

>  <PUBCHEM_SHAPE_MULTIPOLES>  (1) 
360.47
13.97
1.91
0.67
0.01
0.68
0
1.84
0
0
0
0
-0.01
-0.08

>  <PUBCHEM_SHAPE_SELFOVERLAP>  (1) 
768.419

>  <PUBCHEM_SHAPE_VOLUME>  (1) 
203.6

>  <PUBCHEM_COORDINATE_TYPE>  (1) 
2
5
10

$$$$
