34550
     RDKit          3D

 17 18  0  0  0  0  0  0  0  0999 V2000
    0.2375   -0.0003    0.5331 N   0  0  0  0  0  0  0  0  0  0  0  0
    0.8512   -0.0010   -0.5583 N   0  0  0  0  0  0  0  0  0  0  0  0
   -1.8326    1.2077    0.1848 C   0  0  0  0  0  0  0  0  0  0  0  0
   -1.8338   -1.2082    0.1842 C   0  0  0  0  0  0  0  0  0  0  0  0
   -1.1456   -0.0006    0.3008 C   0  0  0  0  0  0  0  0  0  0  0  0
   -3.8962    0.0008   -0.1650 C   0  0  0  0  0  0  0  0  0  0  0  0
   -3.2079    1.2084   -0.0482 C   0  0  0  0  0  0  0  0  0  0  0  0
   -3.2091   -1.2075   -0.0488 C   0  0  0  0  0  0  0  0  0  0  0  0
   -1.1186    2.5146    0.3043 C   0  0  0  0  0  0  0  0  0  0  0  0
   -1.1211   -2.5159    0.3032 C   0  0  0  0  0  0  0  0  0  0  0  0
   -5.3666    0.0015   -0.4143 C   0  0  0  0  0  0  0  0  0  0  0  0
    2.2373   -0.0005   -0.3260 C   0  0  0  0  0  0  0  0  0  0  0  0
    2.9186   -1.2081   -0.2109 C   0  0  0  0  0  0  0  0  0  0  0  0
    2.9178    1.2078   -0.2123 C   0  0  0  0  0  0  0  0  0  0  0  0
    4.2941   -1.2076    0.0199 C   0  0  0  0  0  0  0  0  0  0  0  0
    4.2934    1.2083    0.0187 C   0  0  0  0  0  0  0  0  0  0  0  0
    4.9816    0.0006    0.1347 C   0  0  0  0  0  0  0  0  0  0  0  0
  1  2  2  0
  1  5  1  0
  2 12  1  0
  3  5  2  0
  3  7  1  0
  3  9  1  0
  4  5  1  0
  4  8  2  0
  4 10  1  0
  6  7  2  0
  6  8  1  0
  6 11  1  0
 12 13  2  0
 12 14  1  0
 13 15  1  0
 14 16  2  0
 15 17  2  0
 16 17  1  0
M  END
>  <PUBCHEM_COMPOUND_CID>  (1) 
34550

>  <PUBCHEM_CONFORMER_RMSD>  (1) 
0.6

>  <PUBCHEM_CONFORMER_DIVERSEORDER>  (1) 
1
2

>  <PUBCHEM_MMFF94_PARTIAL_CHARGES>  (1) 
24
1 -0.18
10 0.14
11 0.14
12 0.18
13 -0.15
14 -0.15
15 -0.15
16 -0.15
17 -0.15
18 0.15
19 0.15
2 -0.18
29 0.15
3 -0.14
30 0.15
31 0.15
32 0.15
33 0.15
4 -0.14
5 0.18
6 -0.14
7 -0.15
8 -0.15
9 0.14

>  <PUBCHEM_EFFECTIVE_ROTOR_COUNT>  (1) 
2

>  <PUBCHEM_PHARMACOPHORE_FEATURES>  (1) 
2
6 12 13 14 15 16 17 rings
6 3 4 5 6 7 8 rings

>  <PUBCHEM_HEAVY_ATOM_COUNT>  (1) 
17

>  <PUBCHEM_ATOM_DEF_STEREO_COUNT>  (1) 
0

>  <PUBCHEM_ATOM_UDEF_STEREO_COUNT>  (1) 
0

>  <PUBCHEM_BOND_DEF_STEREO_COUNT>  (1) 
0

>  <PUBCHEM_BOND_UDEF_STEREO_COUNT>  (1) 
0

>  <PUBCHEM_ISOTOPIC_ATOM_COUNT>  (1) 
0

>  <PUBCHEM_COMPONENT_COUNT>  (1) 
1

>  <PUBCHEM_CACTVS_TAUTO_COUNT>  (1) 
1

>  <PUBCHEM_CONFORMER_ID>  (1) 
000086F600000001

>  <PUBCHEM_MMFF94_ENERGY>  (1) 
47.0684

>  <PUBCHEM_FEATURE_SELFOVERLAP>  (1) 
10.149

>  <PUBCHEM_SHAPE_FINGERPRINT>  (1) 
10366900 7 17989209265510641856
10616163 171 18340209690956233446
11370993 70 18410572881693535414
12107183 9 17688869735974232760
12236239 1 17748824116008070011
13167823 11 18409728448194346978
13533116 47 18411415069030128266
13862211 1 18411416228998228783
14115302 16 18187372068177394380
14790565 3 18340212882496840113
15042514 8 18263650722421604531
15196674 1 18410575089016068527
15375358 24 18342460352460855118
15442244 35 18193558870437220546
17492 89 18411420566398785194
17802600 8 18412823577737392992
187816 3 18411135836162917907
200 152 17846777403608410861
20279233 1 18272097101625341078
20300324 65 18202561778866586953
20510252 161 18270965643846318265
20528008 55 18412544327300170238
20645477 56 18334294300896604205
20645477 70 18343022147368903806
21029758 11 18343580763679146289
21267235 1 18410020926565975138
23402539 116 18342168969173564109
23557571 272 18130796628835806924
23559900 14 18412542145900058048
26918003 58 18260265269788637506
2838139 119 16009566020557381775
34934 24 18339637957646368450
351380 180 18413668002424522614
3545911 37 18410013247660185716
4028521 119 18333445422212006477
4214541 1 18410575050609490540
474 4 17459196334146176908
5104073 3 18410857655151856616
5283173 99 18263071142128050989
5374978 207 18412259545457241216
58051976 378 18342176635437246110
67856867 119 18190459544796081164
69090 78 18410009931391688111
77779 3 18410857659541755508
9709674 26 18341621399408988982

>  <PUBCHEM_SHAPE_MULTIPOLES>  (1) 
339.89
10.26
2.08
0.68
3.29
0
0
0
0.88
-0.46
-0.22
-0.04
0
0

>  <PUBCHEM_SHAPE_SELFOVERLAP>  (1) 
726.355

>  <PUBCHEM_SHAPE_VOLUME>  (1) 
191.5

>  <PUBCHEM_COORDINATE_TYPE>  (1) 
2
5
10

$$$$
