34552
     RDKit          3D

 18 19  0  0  0  0  0  0  0  0999 V2000
    0.1164   -0.0004    0.5113 N   0  0  0  0  0  0  0  0  0  0  0  0
   -0.4892    0.0001   -0.5861 N   0  0  0  0  0  0  0  0  0  0  0  0
    2.1903    1.2076    0.1867 C   0  0  0  0  0  0  0  0  0  0  0  0
    2.1916   -1.2083    0.1870 C   0  0  0  0  0  0  0  0  0  0  0  0
    1.5048   -0.0008    0.2936 C   0  0  0  0  0  0  0  0  0  0  0  0
    4.2585    0.0008   -0.1344 C   0  0  0  0  0  0  0  0  0  0  0  0
    3.5686    1.2084   -0.0275 C   0  0  0  0  0  0  0  0  0  0  0  0
    3.5699   -1.2075   -0.0272 C   0  0  0  0  0  0  0  0  0  0  0  0
    1.4749    2.5144    0.2991 C   0  0  0  0  0  0  0  0  0  0  0  0
    1.4780   -2.5160    0.2997 C   0  0  0  0  0  0  0  0  0  0  0  0
    5.7323    0.0016   -0.3633 C   0  0  0  0  0  0  0  0  0  0  0  0
   -1.8710    0.0001   -0.3700 C   0  0  0  0  0  0  0  0  0  0  0  0
   -4.6274   -0.0001    0.0602 C   0  0  0  0  0  0  0  0  0  0  0  0
   -2.5601    1.2081   -0.2614 C   0  0  0  0  0  0  0  0  0  0  0  0
   -2.5601   -1.2079   -0.2632 C   0  0  0  0  0  0  0  0  0  0  0  0
   -3.9382    1.2079   -0.0464 C   0  0  0  0  0  0  0  0  0  0  0  0
   -3.9383   -1.2079   -0.0481 C   0  0  0  0  0  0  0  0  0  0  0  0
   -6.1010   -0.0002    0.2900 C   0  0  0  0  0  0  0  0  0  0  0  0
  1  2  2  0
  1  5  1  0
  2 12  1  0
  3  5  2  0
  3  7  1  0
  3  9  1  0
  4  5  1  0
  4  8  2  0
  4 10  1  0
  6  7  2  0
  6  8  1  0
  6 11  1  0
 12 14  2  0
 12 15  1  0
 13 16  2  0
 13 17  1  0
 13 18  1  0
 14 16  1  0
 15 17  2  0
M  END
>  <PUBCHEM_COMPOUND_CID>  (1) 
34552

>  <PUBCHEM_CONFORMER_RMSD>  (1) 
0.6

>  <PUBCHEM_CONFORMER_DIVERSEORDER>  (1) 
1
2

>  <PUBCHEM_MMFF94_PARTIAL_CHARGES>  (1) 
24
1 -0.18
10 0.14
11 0.14
12 0.18
13 -0.14
14 -0.15
15 -0.15
16 -0.15
17 -0.15
18 0.14
19 0.15
2 -0.18
20 0.15
3 -0.14
30 0.15
31 0.15
32 0.15
33 0.15
4 -0.14
5 0.18
6 -0.14
7 -0.15
8 -0.15
9 0.14

>  <PUBCHEM_EFFECTIVE_ROTOR_COUNT>  (1) 
2

>  <PUBCHEM_PHARMACOPHORE_FEATURES>  (1) 
2
6 12 13 14 15 16 17 rings
6 3 4 5 6 7 8 rings

>  <PUBCHEM_HEAVY_ATOM_COUNT>  (1) 
18

>  <PUBCHEM_ATOM_DEF_STEREO_COUNT>  (1) 
0

>  <PUBCHEM_ATOM_UDEF_STEREO_COUNT>  (1) 
0

>  <PUBCHEM_BOND_DEF_STEREO_COUNT>  (1) 
0

>  <PUBCHEM_BOND_UDEF_STEREO_COUNT>  (1) 
0

>  <PUBCHEM_ISOTOPIC_ATOM_COUNT>  (1) 
0

>  <PUBCHEM_COMPONENT_COUNT>  (1) 
1

>  <PUBCHEM_CACTVS_TAUTO_COUNT>  (1) 
1

>  <PUBCHEM_CONFORMER_ID>  (1) 
000086F800000001

>  <PUBCHEM_MMFF94_ENERGY>  (1) 
49.6112

>  <PUBCHEM_FEATURE_SELFOVERLAP>  (1) 
10.149

>  <PUBCHEM_SHAPE_FINGERPRINT>  (1) 
10354089 29 18413673508572674081
10366900 7 18040998453501540153
10616163 171 18340485672690955991
11471102 20 18410853261342309064
11615757 297 18202286917896867377
11796584 16 15052017866444852756
12107183 9 17691971458249828115
12236239 1 17775568636847374688
12251169 10 18413106165226301189
13836976 161 18335144206674537142
14341114 176 18411425024716496801
14617045 38 18408611353012691643
15196674 1 18410572885666197150
1601671 61 18341331119907018220
17834072 33 18413386553550107055
1813 80 17022907826272928725
18186145 218 18334846247085732420
200 152 18201999932524523643
20645477 70 18341613659651022822
21267235 1 18412552002295971406
21421861 104 17753044991118698450
21709351 56 18410004468230042589
221357 26 18411980247797055237
221490 88 18265338485127128186
23402539 116 18343295977503793814
23402655 69 18410853235430145556
23558518 356 17685768425984082658
23559900 14 18410005576843450345
3004659 81 18261115115690664166
3545911 37 18410293610071516125
4214541 1 18411418397729684533
4340502 62 16443059518000464592
474 4 17894916281778029148
4990 188 18202008724565353750
5104073 3 18410853274058387355
542803 24 13767923512031390791
58051976 100 18341890835713324583
59755656 215 18408887308602953887
7495541 125 16950573219919298464
77779 3 18410573989715437317
8272917 22 18343024354602220711
9709674 26 18410296921523625439
9999458 23 18334012835037219268

>  <PUBCHEM_SHAPE_MULTIPOLES>  (1) 
360.47
11.98
2
0.68
5.94
0
0
0
-0.33
-0.94
0.19
-0.01
0
0

>  <PUBCHEM_SHAPE_SELFOVERLAP>  (1) 
768.298

>  <PUBCHEM_SHAPE_VOLUME>  (1) 
203.9

>  <PUBCHEM_COORDINATE_TYPE>  (1) 
2
5
10

$$$$
