34560
     RDKit          3D

 17 18  0  0  0  0  0  0  0  0999 V2000
    4.9705   -0.0328    0.2722 O   0  0  0  0  0  0  0  0  0  0  0  0
   -0.5151    0.0333   -0.5748 N   0  0  0  0  0  0  0  0  0  0  0  0
   -1.1139    0.1369    0.5209 N   0  0  0  0  0  0  0  0  0  0  0  0
    1.5326   -1.2076   -0.1607 C   0  0  0  0  0  0  0  0  0  0  0  0
    0.8683    0.0024   -0.3610 C   0  0  0  0  0  0  0  0  0  0  0  0
    2.9113   -1.2196    0.0515 C   0  0  0  0  0  0  0  0  0  0  0  0
    3.6256   -0.0217    0.0632 C   0  0  0  0  0  0  0  0  0  0  0  0
    1.5826    1.2004   -0.3490 C   0  0  0  0  0  0  0  0  0  0  0  0
    2.9612    1.1884   -0.1369 C   0  0  0  0  0  0  0  0  0  0  0  0
    0.7889   -2.5029   -0.1679 C   0  0  0  0  0  0  0  0  0  0  0  0
   -2.5026    0.1682    0.3068 C   0  0  0  0  0  0  0  0  0  0  0  0
   -3.2260   -1.0201    0.2929 C   0  0  0  0  0  0  0  0  0  0  0  0
   -3.1434    1.3873    0.1098 C   0  0  0  0  0  0  0  0  0  0  0  0
   -4.6042   -0.9891    0.0800 C   0  0  0  0  0  0  0  0  0  0  0  0
   -4.5216    1.4184   -0.1030 C   0  0  0  0  0  0  0  0  0  0  0  0
   -5.2520    0.2302   -0.1179 C   0  0  0  0  0  0  0  0  0  0  0  0
    5.6378    1.2284    0.2738 C   0  0  0  0  0  0  0  0  0  0  0  0
  1  7  1  0
  1 17  1  0
  2  3  2  0
  2  5  1  0
  3 11  1  0
  4  5  2  0
  4  6  1  0
  4 10  1  0
  5  8  1  0
  6  7  2  0
  7  9  1  0
  8  9  2  0
 11 12  2  0
 11 13  1  0
 12 14  1  0
 13 15  2  0
 14 16  2  0
 15 16  1  0
M  END
>  <PUBCHEM_COMPOUND_CID>  (1) 
34560

>  <PUBCHEM_CONFORMER_RMSD>  (1) 
0.6

>  <PUBCHEM_CONFORMER_DIVERSEORDER>  (1) 
1
6
4
2
5
3

>  <PUBCHEM_MMFF94_PARTIAL_CHARGES>  (1) 
25
1 -0.36
10 0.14
11 0.18
12 -0.15
13 -0.15
14 -0.15
15 -0.15
16 -0.15
17 0.28
18 0.15
19 0.15
2 -0.18
20 0.15
24 0.15
25 0.15
26 0.15
27 0.15
28 0.15
3 -0.18
4 -0.14
5 0.18
6 -0.15
7 0.08
8 -0.15
9 -0.15

>  <PUBCHEM_EFFECTIVE_ROTOR_COUNT>  (1) 
3

>  <PUBCHEM_PHARMACOPHORE_FEATURES>  (1) 
3
1 1 acceptor
6 11 12 13 14 15 16 rings
6 4 5 6 7 8 9 rings

>  <PUBCHEM_HEAVY_ATOM_COUNT>  (1) 
17

>  <PUBCHEM_ATOM_DEF_STEREO_COUNT>  (1) 
0

>  <PUBCHEM_ATOM_UDEF_STEREO_COUNT>  (1) 
0

>  <PUBCHEM_BOND_DEF_STEREO_COUNT>  (1) 
0

>  <PUBCHEM_BOND_UDEF_STEREO_COUNT>  (1) 
0

>  <PUBCHEM_ISOTOPIC_ATOM_COUNT>  (1) 
0

>  <PUBCHEM_COMPONENT_COUNT>  (1) 
1

>  <PUBCHEM_CACTVS_TAUTO_COUNT>  (1) 
1

>  <PUBCHEM_CONFORMER_ID>  (1) 
0000870000000001

>  <PUBCHEM_MMFF94_ENERGY>  (1) 
55.519

>  <PUBCHEM_FEATURE_SELFOVERLAP>  (1) 
15.223

>  <PUBCHEM_SHAPE_FINGERPRINT>  (1) 
10616163 171 18411984697879429359
11370993 70 18409166606427072539
11401426 45 18334575750171991889
12107183 9 17688869735499661025
12236239 1 17917991672122313732
12507557 5 18410856581415813265
13167823 11 18410009931797921971
14341114 176 18410018714673466683
15196674 1 18410575058909385234
15375358 24 18261396628741565507
17834072 33 18411981385894609036
200 152 18273493473076754573
20279233 1 18114472192793744875
20645477 56 18188209802482597365
20645477 70 18200595778650697495
21054139 6 18271514407776248055
21267235 1 18410303514224039095
21709351 56 18335978739909910253
22854114 59 18410294704903041729
23402539 116 17967809461977512029
23402655 69 18343582923646321287
23559900 14 18126000468889492635
26918003 58 18259985994051369331
2916195 48 17988352776197074520
300161 21 18336260163784765205
33824 294 18335984181807865378
34934 24 18410851023954472247
351380 180 18334294279390106337
3545911 37 18410294696846038989
4214541 1 18408886213913748829
474229 33 18412545444044739542
5104073 3 18336270033424381507
542803 24 16988565693086611769
58051976 378 18342177756660983287
59755656 215 18341337704223986110
67856867 119 18189336934290894493
77779 3 18410295791988684053
9709674 26 18409738339778706511
9971528 1 17967818210910212318

>  <PUBCHEM_SHAPE_MULTIPOLES>  (1) 
334.02
11.87
1.81
0.67
0.54
0.64
-0.01
-3.44
0.95
-0.24
-0.06
0.01
-0.01
0.17

>  <PUBCHEM_SHAPE_SELFOVERLAP>  (1) 
713.596

>  <PUBCHEM_SHAPE_VOLUME>  (1) 
186.6

>  <PUBCHEM_COORDINATE_TYPE>  (1) 
2
5
10

$$$$
