34568
     RDKit          3D

 19 20  0  0  0  0  0  0  0  0999 V2000
    1.2103    2.2000    0.2677 O   0  0  0  0  0  0  0  0  0  0  0  0
    5.2815   -0.2773    0.3103 O   0  0  0  0  0  0  0  0  0  0  0  0
   -0.2063   -0.0949   -0.5023 N   0  0  0  0  0  0  0  0  0  0  0  0
   -0.8066   -0.3541    0.5670 N   0  0  0  0  0  0  0  0  0  0  0  0
    1.1830   -0.1304   -0.2939 C   0  0  0  0  0  0  0  0  0  0  0  0
    1.8678    1.0202    0.0875 C   0  0  0  0  0  0  0  0  0  0  0  0
   -4.9478   -0.2485   -0.0501 C   0  0  0  0  0  0  0  0  0  0  0  0
    3.9358   -0.2291    0.1126 C   0  0  0  0  0  0  0  0  0  0  0  0
    3.2470    0.9707    0.2912 C   0  0  0  0  0  0  0  0  0  0  0  0
    1.8665   -1.3299   -0.4732 C   0  0  0  0  0  0  0  0  0  0  0  0
   -2.1893   -0.3187    0.3602 C   0  0  0  0  0  0  0  0  0  0  0  0
    3.2454   -1.3794   -0.2696 C   0  0  0  0  0  0  0  0  0  0  0  0
   -4.2468   -1.4412   -0.2268 C   0  0  0  0  0  0  0  0  0  0  0  0
   -4.2698    0.9092    0.3316 C   0  0  0  0  0  0  0  0  0  0  0  0
   -2.8676   -1.4764   -0.0214 C   0  0  0  0  0  0  0  0  0  0  0  0
   -2.8906    0.8742    0.5368 C   0  0  0  0  0  0  0  0  0  0  0  0
   -6.4227   -0.2114   -0.2686 C   0  0  0  0  0  0  0  0  0  0  0  0
    1.0875    3.0531   -0.8684 C   0  0  0  0  0  0  0  0  0  0  0  0
    5.9227   -1.5359    0.1094 C   0  0  0  0  0  0  0  0  0  0  0  0
  1  6  1  0
  1 18  1  0
  2  8  1  0
  2 19  1  0
  3  4  2  0
  3  5  1  0
  4 11  1  0
  5  6  2  0
  5 10  1  0
  6  9  1  0
  7 13  2  0
  7 14  1  0
  7 17  1  0
  8  9  2  0
  8 12  1  0
 10 12  2  0
 11 15  2  0
 11 16  1  0
 13 15  1  0
 14 16  2  0
M  END
>  <PUBCHEM_COMPOUND_CID>  (1) 
34568

>  <PUBCHEM_CONFORMER_RMSD>  (1) 
0.6

>  <PUBCHEM_CONFORMER_DIVERSEORDER>  (1) 
2
7
10
9
4
3
11
6
8
5
1

>  <PUBCHEM_MMFF94_PARTIAL_CHARGES>  (1) 
26
1 -0.36
10 -0.15
11 0.18
12 -0.15
13 -0.15
14 -0.15
15 -0.15
16 -0.15
17 0.14
18 0.28
19 0.28
2 -0.36
20 0.15
21 0.15
22 0.15
23 0.15
24 0.15
25 0.15
26 0.15
3 -0.18
4 -0.18
5 0.18
6 0.08
7 -0.14
8 0.08
9 -0.15

>  <PUBCHEM_EFFECTIVE_ROTOR_COUNT>  (1) 
4

>  <PUBCHEM_PHARMACOPHORE_FEATURES>  (1) 
4
1 1 acceptor
1 2 acceptor
6 5 6 8 9 10 12 rings
6 7 11 13 14 15 16 rings

>  <PUBCHEM_HEAVY_ATOM_COUNT>  (1) 
19

>  <PUBCHEM_ATOM_DEF_STEREO_COUNT>  (1) 
0

>  <PUBCHEM_ATOM_UDEF_STEREO_COUNT>  (1) 
0

>  <PUBCHEM_BOND_DEF_STEREO_COUNT>  (1) 
0

>  <PUBCHEM_BOND_UDEF_STEREO_COUNT>  (1) 
0

>  <PUBCHEM_ISOTOPIC_ATOM_COUNT>  (1) 
0

>  <PUBCHEM_COMPONENT_COUNT>  (1) 
1

>  <PUBCHEM_CACTVS_TAUTO_COUNT>  (1) 
1

>  <PUBCHEM_CONFORMER_ID>  (1) 
0000870800000002

>  <PUBCHEM_MMFF94_ENERGY>  (1) 
71.0724

>  <PUBCHEM_FEATURE_SELFOVERLAP>  (1) 
20.297

>  <PUBCHEM_SHAPE_FINGERPRINT>  (1) 
10366900 7 16950279611776092961
11405975 8 18337114570313903931
12107183 9 17622170061645159947
12166972 35 18272370892789833345
12236239 1 17775283867514865758
12507557 5 18411982477185534865
13167823 11 18341893017403918199
13862211 1 18410010997187318226
14341114 176 18411141376406998785
15196674 1 18412545448181256456
15788980 27 17846778528995506399
15885798 251 18334856083130643432
17492 89 18120375616705274091
17802600 8 18409728469832746261
1813 80 17822015276944250556
18186145 218 17749379425784422795
18222031 100 18341620304582029942
200 152 17989486329619333779
20612939 158 18260272983365609732
20645477 70 18272654506491504135
21033648 29 17059760131530846114
21267235 1 18413116047445201035
21421861 104 17753611239733863514
21641784 216 17750533805651542140
21709351 56 18410284839874996255
221490 88 18191876827541166107
22224240 67 17417800752368995054
23402539 116 18411978035772541407
23558518 356 17757546730951876402
23559900 14 18339636849771536305
26918003 58 18343301478950997323
3004659 81 18113621162657754498
335352 9 18410293610298265895
34797466 226 16486979531178118752
351380 180 18411980282578481331
3545911 37 18342739615740164435
4214541 1 18413389822130813633
4340502 62 14549016564198616518
465052 167 18412829071385809886
5104073 3 18271529805138623715
542803 24 14056716842495002415
59755656 215 18261954050776996039
59755656 520 17313382340687115219
67856867 119 18270396234436189217
9709674 26 18264212594042685995
9971528 1 18408600396487958952
9981440 41 17400639818857365009

>  <PUBCHEM_SHAPE_MULTIPOLES>  (1) 
369.31
13.19
2.11
0.73
4.45
1.47
0.03
-4.92
-0.39
-1.29
0.41
0.02
0.11
-0.25

>  <PUBCHEM_SHAPE_SELFOVERLAP>  (1) 
784.939

>  <PUBCHEM_SHAPE_VOLUME>  (1) 
207.5

>  <PUBCHEM_COORDINATE_TYPE>  (1) 
2
5
10

$$$$
