34561
     RDKit          3D

 17 18  0  0  0  0  0  0  0  0999 V2000
    5.1633   -0.2589   -0.2547 O   0  0  0  0  0  0  0  0  0  0  0  0
   -0.9216   -0.1738   -0.5013 N   0  0  0  0  0  0  0  0  0  0  0  0
   -0.3204   -0.2501    0.5951 N   0  0  0  0  0  0  0  0  0  0  0  0
   -2.9975    1.0247   -0.1017 C   0  0  0  0  0  0  0  0  0  0  0  0
   -2.3055   -0.1720   -0.2872 C   0  0  0  0  0  0  0  0  0  0  0  0
   -4.3760    1.0074    0.1110 C   0  0  0  0  0  0  0  0  0  0  0  0
   -2.9920   -1.3859   -0.2601 C   0  0  0  0  0  0  0  0  0  0  0  0
    1.0685   -0.2523    0.3807 C   0  0  0  0  0  0  0  0  0  0  0  0
   -2.2843    2.3371   -0.1265 C   0  0  0  0  0  0  0  0  0  0  0  0
   -5.0625   -0.2064    0.1383 C   0  0  0  0  0  0  0  0  0  0  0  0
   -4.3703   -1.4031   -0.0473 C   0  0  0  0  0  0  0  0  0  0  0  0
    3.8186   -0.2567   -0.0448 C   0  0  0  0  0  0  0  0  0  0  0  0
    1.7647    0.9520    0.3517 C   0  0  0  0  0  0  0  0  0  0  0  0
    1.7371   -1.4588    0.1986 C   0  0  0  0  0  0  0  0  0  0  0  0
    3.1431    0.9499    0.1384 C   0  0  0  0  0  0  0  0  0  0  0  0
    3.1156   -1.4610   -0.0147 C   0  0  0  0  0  0  0  0  0  0  0  0
    5.8194    1.0079   -0.2753 C   0  0  0  0  0  0  0  0  0  0  0  0
  1 12  1  0
  1 17  1  0
  2  3  2  0
  2  5  1  0
  3  8  1  0
  4  5  2  0
  4  6  1  0
  4  9  1  0
  5  7  1  0
  6 10  2  0
  7 11  2  0
  8 13  2  0
  8 14  1  0
 10 11  1  0
 12 15  2  0
 12 16  1  0
 13 15  1  0
 14 16  2  0
M  END
>  <PUBCHEM_COMPOUND_CID>  (1) 
34561

>  <PUBCHEM_CONFORMER_RMSD>  (1) 
0.6

>  <PUBCHEM_CONFORMER_DIVERSEORDER>  (1) 
2
6
5
1
4
3

>  <PUBCHEM_MMFF94_PARTIAL_CHARGES>  (1) 
25
1 -0.36
10 -0.15
11 -0.15
12 0.08
13 -0.15
14 -0.15
15 -0.15
16 -0.15
17 0.28
18 0.15
19 0.15
2 -0.18
23 0.15
24 0.15
25 0.15
26 0.15
27 0.15
28 0.15
3 -0.18
4 -0.14
5 0.18
6 -0.15
7 -0.15
8 0.18
9 0.14

>  <PUBCHEM_EFFECTIVE_ROTOR_COUNT>  (1) 
3

>  <PUBCHEM_PHARMACOPHORE_FEATURES>  (1) 
3
1 1 acceptor
6 4 5 6 7 10 11 rings
6 8 12 13 14 15 16 rings

>  <PUBCHEM_HEAVY_ATOM_COUNT>  (1) 
17

>  <PUBCHEM_ATOM_DEF_STEREO_COUNT>  (1) 
0

>  <PUBCHEM_ATOM_UDEF_STEREO_COUNT>  (1) 
0

>  <PUBCHEM_BOND_DEF_STEREO_COUNT>  (1) 
0

>  <PUBCHEM_BOND_UDEF_STEREO_COUNT>  (1) 
0

>  <PUBCHEM_ISOTOPIC_ATOM_COUNT>  (1) 
0

>  <PUBCHEM_COMPONENT_COUNT>  (1) 
1

>  <PUBCHEM_CACTVS_TAUTO_COUNT>  (1) 
1

>  <PUBCHEM_CONFORMER_ID>  (1) 
0000870100000002

>  <PUBCHEM_MMFF94_ENERGY>  (1) 
55.4979

>  <PUBCHEM_FEATURE_SELFOVERLAP>  (1) 
15.223

>  <PUBCHEM_SHAPE_FINGERPRINT>  (1) 
10366900 7 18408599292665195771
10616163 171 18341049700665363831
10968037 39 18408322207588185959
12107183 9 17688588256175034122
12236239 1 18410012126140828522
12916748 109 18335425659981089216
13167823 11 18335416825096692186
13897977 58 18411139126039535253
14123238 8 18412825789344551702
14251718 22 18408605881018335886
14341114 176 18409736135874336663
15196674 1 18410292467436129068
15788980 27 14836405830660278960
17834072 33 18410293631488317452
200 152 18131351920814670555
20279233 1 10809343304374675665
20645477 70 18129948871470073894
21267235 1 18410580621556606843
21652331 79 18409446973075231045
2297311 6 18271534147376829069
23402539 116 18260261962436979238
23402655 69 18411980234869675884
23557571 272 18272094876589734125
23559900 14 18340197587695922553
2916195 48 18270673281755259752
300161 21 18261385637740718463
3004659 81 18338239267946804358
3545911 37 18410855456102310797
4214541 1 18411981325928636065
42788 4 18410575093648684886
474 4 17603873350882924276
4990 188 18202007620758778078
5104073 3 18338514144877335330
542803 24 17676489449308516540
58051976 100 17988637536364720191
77779 3 18411418393107565683
9709674 26 18411423895072084815

>  <PUBCHEM_SHAPE_MULTIPOLES>  (1) 
334.02
12.14
1.76
0.67
5.44
0.34
0.01
0.73
-0.81
-0.77
-0.04
0
0
-0.11

>  <PUBCHEM_SHAPE_SELFOVERLAP>  (1) 
713.659

>  <PUBCHEM_SHAPE_VOLUME>  (1) 
186.2

>  <PUBCHEM_COORDINATE_TYPE>  (1) 
2
5
10

$$$$
