34569
     RDKit          3D

 19 20  0  0  0  0  0  0  0  0999 V2000
    1.4578    2.2407   -0.1851 O   0  0  0  0  0  0  0  0  0  0  0  0
    1.4215   -2.5486   -0.4371 O   0  0  0  0  0  0  0  0  0  0  0  0
    0.0294   -0.1294   -0.5747 N   0  0  0  0  0  0  0  0  0  0  0  0
   -0.6065   -0.1812    0.5036 N   0  0  0  0  0  0  0  0  0  0  0  0
    1.4107   -0.1534   -0.3170 C   0  0  0  0  0  0  0  0  0  0  0  0
   -2.6754    1.0521    0.1790 C   0  0  0  0  0  0  0  0  0  0  0  0
   -1.9830   -0.1570    0.2474 C   0  0  0  0  0  0  0  0  0  0  0  0
    2.1019    1.0410   -0.1265 C   0  0  0  0  0  0  0  0  0  0  0  0
    2.0834   -1.3716   -0.2529 C   0  0  0  0  0  0  0  0  0  0  0  0
    3.4728    1.0171    0.1293 C   0  0  0  0  0  0  0  0  0  0  0  0
    3.4545   -1.3953    0.0028 C   0  0  0  0  0  0  0  0  0  0  0  0
   -4.0463    1.0572   -0.0780 C   0  0  0  0  0  0  0  0  0  0  0  0
   -2.6620   -1.3609    0.0589 C   0  0  0  0  0  0  0  0  0  0  0  0
    4.1492   -0.2010    0.1941 C   0  0  0  0  0  0  0  0  0  0  0  0
   -1.9699    2.3541    0.3762 C   0  0  0  0  0  0  0  0  0  0  0  0
   -4.7251   -0.1467   -0.2667 C   0  0  0  0  0  0  0  0  0  0  0  0
   -4.0330   -1.3557   -0.1982 C   0  0  0  0  0  0  0  0  0  0  0  0
    2.2470    3.4101    0.0224 C   0  0  0  0  0  0  0  0  0  0  0  0
    0.8731   -3.1714    0.7225 C   0  0  0  0  0  0  0  0  0  0  0  0
  1  8  1  0
  1 18  1  0
  2  9  1  0
  2 19  1  0
  3  4  2  0
  3  5  1  0
  4  7  1  0
  5  8  2  0
  5  9  1  0
  6  7  2  0
  6 12  1  0
  6 15  1  0
  7 13  1  0
  8 10  1  0
  9 11  2  0
 10 14  2  0
 11 14  1  0
 12 16  2  0
 13 17  2  0
 16 17  1  0
M  END
>  <PUBCHEM_COMPOUND_CID>  (1) 
34569

>  <PUBCHEM_CONFORMER_RMSD>  (1) 
0.6

>  <PUBCHEM_CONFORMER_DIVERSEORDER>  (1) 
11
12
13
8
3
7
9
6
10
5
14
2
4
1

>  <PUBCHEM_MMFF94_PARTIAL_CHARGES>  (1) 
26
1 -0.36
10 -0.15
11 -0.15
12 -0.15
13 -0.15
14 -0.15
15 0.14
16 -0.15
17 -0.15
18 0.28
19 0.28
2 -0.36
20 0.15
21 0.15
22 0.15
23 0.15
24 0.15
28 0.15
29 0.15
3 -0.18
4 -0.18
5 0.18
6 -0.14
7 0.18
8 0.08
9 0.08

>  <PUBCHEM_EFFECTIVE_ROTOR_COUNT>  (1) 
4

>  <PUBCHEM_PHARMACOPHORE_FEATURES>  (1) 
4
1 1 acceptor
1 2 acceptor
6 5 8 9 10 11 14 rings
6 6 7 12 13 16 17 rings

>  <PUBCHEM_HEAVY_ATOM_COUNT>  (1) 
19

>  <PUBCHEM_ATOM_DEF_STEREO_COUNT>  (1) 
0

>  <PUBCHEM_ATOM_UDEF_STEREO_COUNT>  (1) 
0

>  <PUBCHEM_BOND_DEF_STEREO_COUNT>  (1) 
0

>  <PUBCHEM_BOND_UDEF_STEREO_COUNT>  (1) 
0

>  <PUBCHEM_ISOTOPIC_ATOM_COUNT>  (1) 
0

>  <PUBCHEM_COMPONENT_COUNT>  (1) 
1

>  <PUBCHEM_CACTVS_TAUTO_COUNT>  (1) 
1

>  <PUBCHEM_CONFORMER_ID>  (1) 
000087090000000B

>  <PUBCHEM_MMFF94_ENERGY>  (1) 
72.9626

>  <PUBCHEM_FEATURE_SELFOVERLAP>  (1) 
20.297

>  <PUBCHEM_SHAPE_FINGERPRINT>  (1) 
10366900 7 18187092749316464083
10608611 8 18409165511088884869
10616163 171 18341614854031745671
10967382 1 18338518534449955426
11370993 70 18337104674129082947
11471102 20 18410290307020074084
12403260 363 18338509837025078114
13140716 1 18337681926576508929
138480 1 18411419552554446753
14178342 30 18268421348380753048
14251717 144 18409729560422071646
14790565 3 18337117856217774932
14844126 61 16242363108634511874
15196674 1 18411138026026604636
15375462 6 18411700993502832141
15442244 35 18051413967926474611
15536298 74 18342176652437494135
17492 89 18412265042936973207
17802600 8 18409163307638916653
19050596 39 18412829088216967195
200 152 18201433684263039791
20645477 70 18342455907343881271
21267235 1 18340496590128121927
21421861 104 17537440622214908130
21709351 56 18411692205735935879
221490 88 18337399343139851347
2255824 54 18409452500718941246
23402539 116 18342449327701513805
23559900 14 18412257329021988257
2871803 45 18410853244131051367
3060560 45 18413671314208597342
3286 77 18334010614206752814
3545911 37 18411420588036249093
4214541 1 18411419479987518669
474 4 18408885173967082977
5104073 3 18411983546263036323
58051976 378 18342174479442804255
6333272 397 18338516451443726922
6443956 14 18337112246441041646
7364860 26 18411982446677567590
7832392 63 18123473782541680857
9709674 26 18411425003273802543
9981440 41 17688866858114737496

>  <PUBCHEM_SHAPE_MULTIPOLES>  (1) 
369.31
8.29
3.24
0.69
4.68
0.55
-0.02
0.13
0.28
-1.9
-0.33
0
-0.09
-0.17

>  <PUBCHEM_SHAPE_SELFOVERLAP>  (1) 
787.136

>  <PUBCHEM_SHAPE_VOLUME>  (1) 
207.1

>  <PUBCHEM_COORDINATE_TYPE>  (1) 
2
5
10

$$$$
