34563
     RDKit          3D

 18 19  0  0  0  0  0  0  0  0999 V2000
    5.1076    0.0010   -0.2735 O   0  0  0  0  0  0  0  0  0  0  0  0
   -0.3757    0.1281    0.5813 N   0  0  0  0  0  0  0  0  0  0  0  0
   -0.9794    0.0324   -0.5123 N   0  0  0  0  0  0  0  0  0  0  0  0
    1.7117    1.2951    0.1506 C   0  0  0  0  0  0  0  0  0  0  0  0
    1.0127    0.1102    0.3646 C   0  0  0  0  0  0  0  0  0  0  0  0
    3.0896    1.2586   -0.0634 C   0  0  0  0  0  0  0  0  0  0  0  0
   -3.0673   -1.1350   -0.0835 C   0  0  0  0  0  0  0  0  0  0  0  0
    3.7634    0.0373   -0.0627 C   0  0  0  0  0  0  0  0  0  0  0  0
   -2.3630    0.0499   -0.2968 C   0  0  0  0  0  0  0  0  0  0  0  0
    1.6814   -1.1110    0.3659 C   0  0  0  0  0  0  0  0  0  0  0  0
    3.0592   -1.1475    0.1518 C   0  0  0  0  0  0  0  0  0  0  0  0
    1.0117    2.6145    0.1445 C   0  0  0  0  0  0  0  0  0  0  0  0
   -4.4454   -1.0986    0.1288 C   0  0  0  0  0  0  0  0  0  0  0  0
   -3.0368    1.2712   -0.2976 C   0  0  0  0  0  0  0  0  0  0  0  0
   -2.3677   -2.4548   -0.0783 C   0  0  0  0  0  0  0  0  0  0  0  0
   -5.1192    0.1227    0.1280 C   0  0  0  0  0  0  0  0  0  0  0  0
   -4.4150    1.3076   -0.0852 C   0  0  0  0  0  0  0  0  0  0  0  0
    5.7322   -1.2816   -0.2620 C   0  0  0  0  0  0  0  0  0  0  0  0
  1  8  1  0
  1 18  1  0
  2  3  2  0
  2  5  1  0
  3  9  1  0
  4  5  2  0
  4  6  1  0
  4 12  1  0
  5 10  1  0
  6  8  2  0
  7  9  2  0
  7 13  1  0
  7 15  1  0
  8 11  1  0
  9 14  1  0
 10 11  2  0
 13 16  2  0
 14 17  2  0
 16 17  1  0
M  END
>  <PUBCHEM_COMPOUND_CID>  (1) 
34563

>  <PUBCHEM_CONFORMER_RMSD>  (1) 
0.6

>  <PUBCHEM_CONFORMER_DIVERSEORDER>  (1) 
1
17
12
9
13
2
14
6
8
16
3
5
10
15
11
4
7

>  <PUBCHEM_MMFF94_PARTIAL_CHARGES>  (1) 
25
1 -0.36
10 -0.15
11 -0.15
12 0.14
13 -0.15
14 -0.15
15 0.14
16 -0.15
17 -0.15
18 0.28
19 0.15
2 -0.18
20 0.15
21 0.15
25 0.15
26 0.15
3 -0.18
30 0.15
31 0.15
4 -0.14
5 0.18
6 -0.15
7 -0.14
8 0.08
9 0.18

>  <PUBCHEM_EFFECTIVE_ROTOR_COUNT>  (1) 
3

>  <PUBCHEM_PHARMACOPHORE_FEATURES>  (1) 
3
1 1 acceptor
6 4 5 6 8 10 11 rings
6 7 9 13 14 16 17 rings

>  <PUBCHEM_HEAVY_ATOM_COUNT>  (1) 
18

>  <PUBCHEM_ATOM_DEF_STEREO_COUNT>  (1) 
0

>  <PUBCHEM_ATOM_UDEF_STEREO_COUNT>  (1) 
0

>  <PUBCHEM_BOND_DEF_STEREO_COUNT>  (1) 
0

>  <PUBCHEM_BOND_UDEF_STEREO_COUNT>  (1) 
0

>  <PUBCHEM_ISOTOPIC_ATOM_COUNT>  (1) 
0

>  <PUBCHEM_COMPONENT_COUNT>  (1) 
1

>  <PUBCHEM_CACTVS_TAUTO_COUNT>  (1) 
1

>  <PUBCHEM_CONFORMER_ID>  (1) 
0000870300000001

>  <PUBCHEM_MMFF94_ENERGY>  (1) 
58.7288

>  <PUBCHEM_FEATURE_SELFOVERLAP>  (1) 
15.223

>  <PUBCHEM_SHAPE_FINGERPRINT>  (1) 
10366900 7 17458059383114116145
10616163 171 18339923822212213143
12107183 9 17688588260670519953
12236239 1 17989489614794561680
12553582 1 18336813230464505018
12596602 18 13326561944003737142
128620 24 12685090380289745267
13167823 11 18408602586583474915
13288520 33 18411702075576082343
13675066 3 17988637532143391224
14251731 8 18410855438758872511
14341114 176 18410298046741259849
15042514 8 18265055920099649435
15196674 1 18410574023943443284
15242433 33 18408885113964368582
15788980 27 18407762538515005530
17492 89 18121780792433592483
17804303 29 18410576206076960653
18186145 218 18040705995961104905
200 152 18202283610508246803
20612939 158 18187652435438054332
20645477 70 18343303656599571854
21065198 57 18340204201786964841
21267235 1 18410300211167335195
221357 26 18409443687625644813
221490 88 18192436483439170770
23175994 123 17418377999730137121
23402539 116 18343578525494360708
23402655 69 18407759235547985364
23557571 272 18129948862790266892
23559900 14 18340759455433493393
23622692 118 17914883460510402447
3004659 81 18260552187248879206
335352 9 18411418393218413853
3545911 37 18410011022756330537
4214541 1 18410573985589346501
4463277 17 18411982460316992868
474 4 17241612908014134940
4921388 177 16660654002444595051
4990 188 18413395323873260606
5104073 3 18411417357851571769
542803 24 16950003625350595094
559249 180 18338513045339657666
58051976 100 18409727400269799695
59755656 215 18340210670599154390
633830 44 17531244019293275272
77779 3 18409730685803483041
9709674 26 18192995035335791211
9981440 41 17329142984545376168

>  <PUBCHEM_SHAPE_MULTIPOLES>  (1) 
354.6
11.54
2.12
0.67
2.94
0.23
0.01
-2.43
-0.82
-0.26
0.02
0
0
0.16

>  <PUBCHEM_SHAPE_SELFOVERLAP>  (1) 
756.713

>  <PUBCHEM_SHAPE_VOLUME>  (1) 
199

>  <PUBCHEM_COORDINATE_TYPE>  (1) 
2
5
10

$$$$
