34577
     RDKit          3D

 20 21  0  0  0  0  0  0  0  0999 V2000
    6.0355    0.0217    0.1943 O   0  0  0  0  0  0  0  0  0  0  0  0
   -6.2251   -0.9579   -0.1599 O   0  0  0  0  0  0  0  0  0  0  0  0
   -6.1897    1.2332   -0.2902 O   0  0  0  0  0  0  0  0  0  0  0  0
    0.5316    0.0102   -0.5268 N   0  0  0  0  0  0  0  0  0  0  0  0
   -0.0441    0.0856    0.5834 N   0  0  0  0  0  0  0  0  0  0  0  0
   -5.6044    0.1326   -0.1462 N   0  0  0  0  0  0  0  0  0  0  0  0
    2.6082   -1.2033   -0.1796 C   0  0  0  0  0  0  0  0  0  0  0  0
    1.9198   -0.0013   -0.3443 C   0  0  0  0  0  0  0  0  0  0  0  0
    3.9913   -1.1958    0.0015 C   0  0  0  0  0  0  0  0  0  0  0  0
    4.6859    0.0138    0.0178 C   0  0  0  0  0  0  0  0  0  0  0  0
    2.6143    1.2082   -0.3280 C   0  0  0  0  0  0  0  0  0  0  0  0
    3.9973    1.2157   -0.1470 C   0  0  0  0  0  0  0  0  0  0  0  0
    1.8859   -2.5106   -0.1933 C   0  0  0  0  0  0  0  0  0  0  0  0
   -1.4376    0.0974    0.4006 C   0  0  0  0  0  0  0  0  0  0  0  0
   -4.1966    0.1208    0.0383 C   0  0  0  0  0  0  0  0  0  0  0  0
   -2.1417   -1.1025    0.3826 C   0  0  0  0  0  0  0  0  0  0  0  0
   -2.1025    1.3089    0.2389 C   0  0  0  0  0  0  0  0  0  0  0  0
   -3.5246   -1.0908    0.2008 C   0  0  0  0  0  0  0  0  0  0  0  0
   -3.4855    1.3207    0.0572 C   0  0  0  0  0  0  0  0  0  0  0  0
    6.6823    1.2934    0.2001 C   0  0  0  0  0  0  0  0  0  0  0  0
  1 10  1  0
  1 20  1  0
  2  6  1  0
  3  6  2  0
  4  5  2  0
  4  8  1  0
  5 14  1  0
  6 15  1  0
  7  8  2  0
  7  9  1  0
  7 13  1  0
  8 11  1  0
  9 10  2  0
 10 12  1  0
 11 12  2  0
 14 16  2  0
 14 17  1  0
 15 18  2  0
 15 19  1  0
 16 18  1  0
 17 19  2  0
M  CHG  2   2  -1   6   1
M  END
>  <PUBCHEM_COMPOUND_CID>  (1) 
34577

>  <PUBCHEM_CONFORMER_RMSD>  (1) 
0.6

>  <PUBCHEM_CONFORMER_DIVERSEORDER>  (1) 
1
3
4
6
2
5

>  <PUBCHEM_MMFF94_PARTIAL_CHARGES>  (1) 
27
1 -0.36
10 0.08
11 -0.15
12 -0.15
13 0.14
14 0.18
15 0.13
16 -0.15
17 -0.15
18 -0.15
19 -0.15
2 -0.52
20 0.28
21 0.15
22 0.15
23 0.15
27 0.15
28 0.15
29 0.15
3 -0.52
30 0.15
4 -0.18
5 -0.18
6 0.91
7 -0.14
8 0.18
9 -0.15

>  <PUBCHEM_EFFECTIVE_ROTOR_COUNT>  (1) 
4

>  <PUBCHEM_PHARMACOPHORE_FEATURES>  (1) 
6
1 1 acceptor
1 2 acceptor
1 2 anion
1 3 acceptor
6 14 15 16 17 18 19 rings
6 7 8 9 10 11 12 rings

>  <PUBCHEM_HEAVY_ATOM_COUNT>  (1) 
20

>  <PUBCHEM_ATOM_DEF_STEREO_COUNT>  (1) 
0

>  <PUBCHEM_ATOM_UDEF_STEREO_COUNT>  (1) 
0

>  <PUBCHEM_BOND_DEF_STEREO_COUNT>  (1) 
0

>  <PUBCHEM_BOND_UDEF_STEREO_COUNT>  (1) 
0

>  <PUBCHEM_ISOTOPIC_ATOM_COUNT>  (1) 
0

>  <PUBCHEM_COMPONENT_COUNT>  (1) 
1

>  <PUBCHEM_CACTVS_TAUTO_COUNT>  (1) 
1

>  <PUBCHEM_CONFORMER_ID>  (1) 
0000871100000001

>  <PUBCHEM_MMFF94_ENERGY>  (1) 
67.7016

>  <PUBCHEM_FEATURE_SELFOVERLAP>  (1) 
30.528

>  <PUBCHEM_SHAPE_FINGERPRINT>  (1) 
10 15 18337945801500375536
10366900 7 13902190378536427415
10595046 47 18342175540547470625
10835480 77 18337384955527183925
10968037 39 18342176678776977669
11315181 36 18273219719881848649
11719270 70 18341326722140673082
12107183 9 17619633475461008251
12236239 1 17988925556908324478
12516196 113 18130787866917705481
13073987 5 18337676313228332833
13533116 47 18130223757682005154
14251718 22 18413388735208714603
14251732 16 18411418440262424827
14251764 18 18113052753652992656
15196674 1 18339362959253636275
17834072 33 18341893000244842791
18681886 176 18341610460511816832
19489759 90 16298384656852093469
200 152 18202845444102493369
20645477 56 18187364324926469805
20645477 70 18342460283636052414
21054139 6 18271799176602543014
21065198 48 18200316511423813688
21267235 1 18411709772083740590
22224240 67 18409724093608906626
23035841 295 12823296797151983228
23402539 116 18410007745875560637
23536379 177 18408322172901244097
23559900 14 18411977000865174161
26918003 58 18259988196937114491
29717793 49 17846223219994457956
300161 21 18408882932015246835
3004659 81 18335139760971883322
335352 9 18411423917585359278
33824 294 18336548231541978730
34797466 226 17560808753446565092
34934 24 18411416211085156071
351380 180 18408604764147562321
3545911 37 18410013234226573124
4072396 5 18334005082916785474
4073 2 17967820487285519162
4214541 1 18409731729507143589
42630746 31 18342177748509021950
4325135 7 18342173384568710471
5104073 3 18263650580048744347
5283173 99 18189046513293003621
542803 24 17167585994176948917
5486654 2 18343305898835964886
59755656 215 18410860941145066598
59755656 520 16732980951167142827
67856867 119 18262521527705023340
7495541 125 17846493768442531273
9709674 26 18338245881394742635

>  <PUBCHEM_SHAPE_MULTIPOLES>  (1) 
379.04
15.64
1.75
0.66
3.07
0.58
0.01
-3.7
-0.18
-0.65
-0.06
-0.04
0
0.18

>  <PUBCHEM_SHAPE_SELFOVERLAP>  (1) 
812.877

>  <PUBCHEM_SHAPE_VOLUME>  (1) 
210.7

>  <PUBCHEM_COORDINATE_TYPE>  (1) 
2
5
10

$$$$
