34578
     RDKit          3D

 20 21  0  0  0  0  0  0  0  0999 V2000
   -6.1987    0.1799   -0.1497 O   0  0  0  0  0  0  0  0  0  0  0  0
    5.9799   -1.4326    0.2020 O   0  0  0  0  0  0  0  0  0  0  0  0
    6.0892    0.7586    0.2757 O   0  0  0  0  0  0  0  0  0  0  0  0
   -0.1251   -0.0250   -0.5504 N   0  0  0  0  0  0  0  0  0  0  0  0
   -0.6998   -0.0407    0.5628 N   0  0  0  0  0  0  0  0  0  0  0  0
    5.4323   -0.3044    0.1620 N   0  0  0  0  0  0  0  0  0  0  0  0
    2.0129    1.0889   -0.2422 C   0  0  0  0  0  0  0  0  0  0  0  0
    1.2625   -0.0800   -0.3715 C   0  0  0  0  0  0  0  0  0  0  0  0
    3.3946    1.0147   -0.0655 C   0  0  0  0  0  0  0  0  0  0  0  0
    4.0258   -0.2283   -0.0180 C   0  0  0  0  0  0  0  0  0  0  0  0
    1.8936   -1.3227   -0.3239 C   0  0  0  0  0  0  0  0  0  0  0  0
    3.2753   -1.3970   -0.1471 C   0  0  0  0  0  0  0  0  0  0  0  0
    1.3593    2.4312   -0.2896 C   0  0  0  0  0  0  0  0  0  0  0  0
   -2.0927    0.0147    0.3837 C   0  0  0  0  0  0  0  0  0  0  0  0
   -4.8501    0.1256    0.0254 C   0  0  0  0  0  0  0  0  0  0  0  0
   -2.8202   -1.1643    0.2565 C   0  0  0  0  0  0  0  0  0  0  0  0
   -2.7333    1.2489    0.3331 C   0  0  0  0  0  0  0  0  0  0  0  0
   -4.2023   -1.1087    0.0767 C   0  0  0  0  0  0  0  0  0  0  0  0
   -4.1154    1.3045    0.1535 C   0  0  0  0  0  0  0  0  0  0  0  0
   -6.8880   -1.0633   -0.2736 C   0  0  0  0  0  0  0  0  0  0  0  0
  1 15  1  0
  1 20  1  0
  2  6  1  0
  3  6  2  0
  4  5  2  0
  4  8  1  0
  5 14  1  0
  6 10  1  0
  7  8  2  0
  7  9  1  0
  7 13  1  0
  8 11  1  0
  9 10  2  0
 10 12  1  0
 11 12  2  0
 14 16  2  0
 14 17  1  0
 15 18  2  0
 15 19  1  0
 16 18  1  0
 17 19  2  0
M  CHG  2   2  -1   6   1
M  END
>  <PUBCHEM_COMPOUND_CID>  (1) 
34578

>  <PUBCHEM_CONFORMER_RMSD>  (1) 
0.6

>  <PUBCHEM_CONFORMER_DIVERSEORDER>  (1) 
2
4
6
1
3
5

>  <PUBCHEM_MMFF94_PARTIAL_CHARGES>  (1) 
27
1 -0.36
10 0.13
11 -0.15
12 -0.15
13 0.14
14 0.18
15 0.08
16 -0.15
17 -0.15
18 -0.15
19 -0.15
2 -0.52
20 0.28
21 0.15
22 0.15
23 0.15
27 0.15
28 0.15
29 0.15
3 -0.52
30 0.15
4 -0.18
5 -0.18
6 0.91
7 -0.14
8 0.18
9 -0.15

>  <PUBCHEM_EFFECTIVE_ROTOR_COUNT>  (1) 
4

>  <PUBCHEM_PHARMACOPHORE_FEATURES>  (1) 
6
1 1 acceptor
1 2 acceptor
1 2 anion
1 3 acceptor
6 14 15 16 17 18 19 rings
6 7 8 9 10 11 12 rings

>  <PUBCHEM_HEAVY_ATOM_COUNT>  (1) 
20

>  <PUBCHEM_ATOM_DEF_STEREO_COUNT>  (1) 
0

>  <PUBCHEM_ATOM_UDEF_STEREO_COUNT>  (1) 
0

>  <PUBCHEM_BOND_DEF_STEREO_COUNT>  (1) 
0

>  <PUBCHEM_BOND_UDEF_STEREO_COUNT>  (1) 
0

>  <PUBCHEM_ISOTOPIC_ATOM_COUNT>  (1) 
0

>  <PUBCHEM_COMPONENT_COUNT>  (1) 
1

>  <PUBCHEM_CACTVS_TAUTO_COUNT>  (1) 
1

>  <PUBCHEM_CONFORMER_ID>  (1) 
0000871200000002

>  <PUBCHEM_MMFF94_ENERGY>  (1) 
67.7423

>  <PUBCHEM_FEATURE_SELFOVERLAP>  (1) 
30.528

>  <PUBCHEM_SHAPE_FINGERPRINT>  (1) 
10 15 18342728664053588712
106641 1 18343292692138707802
10968037 39 18413107273586488711
11315181 36 18413393142140715537
11796584 16 16443350883959920954
12107183 9 17619069434469901219
12166972 35 18272370892621171209
12236239 1 18060420200787102706
12507557 5 18412266146653416825
12516196 113 18272087197399192440
13533116 47 17313373492236424955
13862211 1 18410293596812022374
14170010 4 18411135870248824016
14251764 18 18408606971755536172
14341114 176 18410580599406387816
15196674 1 18410577296787884464
17492 89 18046069521356752939
17834072 33 18411982476995624292
18681886 176 18343296006914502226
19489759 90 18409729547895593145
200 152 18130787858823331033
20645477 70 18341054025417589815
21033648 29 17202749419747325640
21267235 1 18411990151843706327
22224240 67 18273207621771358842
23035841 295 12175622871377068789
23402539 116 18413103953539930261
23559900 14 18337667633046952929
26918003 58 18409169930625939867
3004659 81 18259702306755362768
34797466 226 16773802528235803256
351380 180 18410012148095745405
3545911 37 18412263943424494323
4073 2 17968382359191502218
4214541 1 18410294692588059913
4325135 7 18201718466686425919
4340502 62 14908179734014192364
5104073 3 18411706525120036249
59755656 215 18260830371294333831
59755656 520 17023180557319178091
67856867 119 18339923843518023629
7495541 125 17703788180380813643
9709674 26 18411992364227221639
9971528 1 18040154045762190756

>  <PUBCHEM_SHAPE_MULTIPOLES>  (1) 
379.04
15.62
1.72
0.67
4.95
0.49
0.01
-3.7
-0.3
-0.57
0.08
0.06
0.01
-0.2

>  <PUBCHEM_SHAPE_SELFOVERLAP>  (1) 
812.945

>  <PUBCHEM_SHAPE_VOLUME>  (1) 
210.6

>  <PUBCHEM_COORDINATE_TYPE>  (1) 
2
5
10

$$$$
