3457
     RDKit          3D

 24 25  0  0  0  0  0  0  0  0999 V2000
    1.6092    2.9131   -0.3663 O   0  0  0  0  0  0  0  0  0  0  0  0
    2.8937   -3.0368    0.1014 O   0  0  0  0  0  0  0  0  0  0  0  0
    3.1824    1.1017    2.0155 O   0  0  0  0  0  0  0  0  0  0  0  0
    1.4690    0.7292    0.4699 N   0  0  0  0  0  0  0  0  0  0  0  0
    3.0052   -0.9581    1.0584 N   0  0  0  0  0  0  0  0  0  0  0  0
    0.8301   -0.1609   -0.4070 C   0  0  0  0  0  0  0  0  0  0  0  0
    1.2495   -1.4385   -0.5452 C   0  0  0  0  0  0  0  0  0  0  0  0
    0.6044   -2.4931   -1.4031 C   0  0  0  0  0  0  0  0  0  0  0  0
   -0.3397    0.3807   -1.2005 C   0  0  0  0  0  0  0  0  0  0  0  0
   -1.6398    0.1865   -0.4830 C   0  0  0  0  0  0  0  0  0  0  0  0
    2.4450   -1.8990    0.2208 C   0  0  0  0  0  0  0  0  0  0  0  0
    1.5809   -2.9666   -2.4723 C   0  0  0  0  0  0  0  0  0  0  0  0
    0.1197   -3.6574   -0.5471 C   0  0  0  0  0  0  0  0  0  0  0  0
    2.5857    0.3549    1.2356 C   0  0  0  0  0  0  0  0  0  0  0  0
    0.9543    2.0944    0.5909 C   0  0  0  0  0  0  0  0  0  0  0  0
   -1.6562   -0.4319    0.7639 C   0  0  0  0  0  0  0  0  0  0  0  0
   -2.8242    0.6269   -1.0669 C   0  0  0  0  0  0  0  0  0  0  0  0
   -2.8671   -0.6118    1.4324 C   0  0  0  0  0  0  0  0  0  0  0  0
   -4.0351    0.4471   -0.3982 C   0  0  0  0  0  0  0  0  0  0  0  0
   -4.0564   -0.1722    0.8514 C   0  0  0  0  0  0  0  0  0  0  0  0
   -2.8900   -1.2739    2.7688 C   0  0  0  0  0  0  0  0  0  0  0  0
   -5.3068    0.9176   -1.0195 C   0  0  0  0  0  0  0  0  0  0  0  0
    1.1773    4.2643   -0.2791 C   0  0  0  0  0  0  0  0  0  0  0  0
    1.9086    5.0839   -1.3207 C   0  0  0  0  0  0  0  0  0  0  0  0
  1 15  1  0
  1 23  1  0
  2 11  2  0
  3 14  2  0
  4  6  1  0
  4 14  1  0
  4 15  1  0
  5 11  1  0
  5 14  1  0
  6  7  2  0
  6  9  1  0
  7  8  1  0
  7 11  1  0
  8 12  1  0
  8 13  1  0
  9 10  1  0
 10 16  2  0
 10 17  1  0
 16 18  1  0
 17 19  2  0
 18 20  2  0
 18 21  1  0
 19 20  1  0
 19 22  1  0
 23 24  1  0
M  END
>  <PUBCHEM_COMPOUND_CID>  (1) 
3457

>  <PUBCHEM_CONFORMER_RMSD>  (1) 
0.8

>  <PUBCHEM_CONFORMER_DIVERSEORDER>  (1) 
1
18
6
19
17
16
15
14
4
5
8
3
7
10
2
13
12
11
9

>  <PUBCHEM_MMFF94_PARTIAL_CHARGES>  (1) 
25
1 -0.56
10 -0.14
11 0.62
14 0.69
15 0.58
16 -0.15
17 -0.15
18 -0.14
19 -0.14
2 -0.57
20 -0.15
21 0.14
22 0.14
23 0.28
3 -0.57
36 0.37
37 0.15
38 0.15
39 0.15
4 -0.47
5 -0.49
6 -0.03
7 -0.12
8 0.14
9 0.28

>  <PUBCHEM_EFFECTIVE_ROTOR_COUNT>  (1) 
6

>  <PUBCHEM_PHARMACOPHORE_FEATURES>  (1) 
7
1 1 acceptor
1 2 acceptor
1 3 acceptor
1 5 donor
3 8 12 13 hydrophobe
6 10 16 17 18 19 20 rings
6 4 5 6 7 11 14 rings

>  <PUBCHEM_HEAVY_ATOM_COUNT>  (1) 
24

>  <PUBCHEM_ATOM_DEF_STEREO_COUNT>  (1) 
0

>  <PUBCHEM_ATOM_UDEF_STEREO_COUNT>  (1) 
0

>  <PUBCHEM_BOND_DEF_STEREO_COUNT>  (1) 
0

>  <PUBCHEM_BOND_UDEF_STEREO_COUNT>  (1) 
0

>  <PUBCHEM_ISOTOPIC_ATOM_COUNT>  (1) 
0

>  <PUBCHEM_COMPONENT_COUNT>  (1) 
1

>  <PUBCHEM_CACTVS_TAUTO_COUNT>  (1) 
3

>  <PUBCHEM_CONFORMER_ID>  (1) 
00000D8100000001

>  <PUBCHEM_MMFF94_ENERGY>  (1) 
64.6521

>  <PUBCHEM_FEATURE_SELFOVERLAP>  (1) 
35.522

>  <PUBCHEM_SHAPE_FINGERPRINT>  (1) 
10366900 7 18193562168540041895
108634 29 17687442591077316829
10906281 52 18336552599012028801
1100329 8 15741352661031072843
11582403 64 16597244002781414343
11640471 11 17417804097530911473
12160290 23 11391081742498192098
12363563 72 18194407680112704527
12403259 327 17532070783228313353
12633257 1 17750212825038134665
12788726 201 17613443237797160561
13134695 92 18335413522113419110
13583140 156 17388229459352219200
13681431 1 18269572562481875196
14955137 171 18188486995324328952
20600515 1 17677615254763145084
20715895 44 16267996165769096705
20739085 24 18342181020699153568
22182313 1 17411309064025356930
23419403 2 16379121606063522386
23558518 356 17689134026897606898
23559900 14 17604155813544156102
238 59 18411697720938362167
2748010 2 18196350560324617252
35225 105 17337879669526463851
3729539 64 17904243443902706116
394222 165 16093976880777675136
404807 78 16673050665594945165
4409770 3 15540122628454622015
474 4 17632002100679052802
81228 2 17688882938144920556

>  <PUBCHEM_SHAPE_MULTIPOLES>  (1) 
466.34
6.68
5.06
1.99
8.45
4.9
-0.51
1.02
-1.14
-6.35
2.79
0.29
-0.84
1.09

>  <PUBCHEM_SHAPE_SELFOVERLAP>  (1) 
972.739

>  <PUBCHEM_SHAPE_VOLUME>  (1) 
265.3

>  <PUBCHEM_COORDINATE_TYPE>  (1) 
2
5
10

$$$$
