34574
     RDKit          3D

 18 19  0  0  0  0  0  0  0  0999 V2000
    5.2972    1.3069    0.2269 O   0  0  0  0  0  0  0  0  0  0  0  0
    5.3304   -0.8848    0.3483 O   0  0  0  0  0  0  0  0  0  0  0  0
   -0.8408    0.0904   -0.5891 N   0  0  0  0  0  0  0  0  0  0  0  0
    4.7120    0.1972    0.2019 N   0  0  0  0  0  0  0  0  0  0  0  0
   -1.4302    0.1481    0.5150 N   0  0  0  0  0  0  0  0  0  0  0  0
    1.2534   -1.0880   -0.2262 C   0  0  0  0  0  0  0  0  0  0  0  0
    0.5452    0.1024   -0.3909 C   0  0  0  0  0  0  0  0  0  0  0  0
    2.6340   -1.0567   -0.0295 C   0  0  0  0  0  0  0  0  0  0  0  0
    3.3065    0.1649    0.0023 C   0  0  0  0  0  0  0  0  0  0  0  0
    1.2177    1.3240   -0.3588 C   0  0  0  0  0  0  0  0  0  0  0  0
    2.5983    1.3553   -0.1621 C   0  0  0  0  0  0  0  0  0  0  0  0
    0.5552   -2.4082   -0.2566 C   0  0  0  0  0  0  0  0  0  0  0  0
   -2.8216    0.1364    0.3164 C   0  0  0  0  0  0  0  0  0  0  0  0
   -3.5039   -1.0756    0.2826 C   0  0  0  0  0  0  0  0  0  0  0  0
   -3.5059    1.3369    0.1546 C   0  0  0  0  0  0  0  0  0  0  0  0
   -4.8847   -1.0873    0.0853 C   0  0  0  0  0  0  0  0  0  0  0  0
   -4.8867    1.3252   -0.0427 C   0  0  0  0  0  0  0  0  0  0  0  0
   -5.5762    0.1131   -0.0774 C   0  0  0  0  0  0  0  0  0  0  0  0
  1  4  1  0
  2  4  2  0
  3  5  2  0
  3  7  1  0
  4  9  1  0
  5 13  1  0
  6  7  2  0
  6  8  1  0
  6 12  1  0
  7 10  1  0
  8  9  2  0
  9 11  1  0
 10 11  2  0
 13 14  2  0
 13 15  1  0
 14 16  1  0
 15 17  2  0
 16 18  2  0
 17 18  1  0
M  CHG  2   1  -1   4   1
M  END
>  <PUBCHEM_COMPOUND_CID>  (1) 
34574

>  <PUBCHEM_CONFORMER_RMSD>  (1) 
0.6

>  <PUBCHEM_CONFORMER_DIVERSEORDER>  (1) 
1
3
2

>  <PUBCHEM_MMFF94_PARTIAL_CHARGES>  (1) 
26
1 -0.52
10 -0.15
11 -0.15
12 0.14
13 0.18
14 -0.15
15 -0.15
16 -0.15
17 -0.15
18 -0.15
19 0.15
2 -0.52
20 0.15
21 0.15
25 0.15
26 0.15
27 0.15
28 0.15
29 0.15
3 -0.18
4 0.91
5 -0.18
6 -0.14
7 0.18
8 -0.15
9 0.13

>  <PUBCHEM_EFFECTIVE_ROTOR_COUNT>  (1) 
3

>  <PUBCHEM_PHARMACOPHORE_FEATURES>  (1) 
5
1 1 acceptor
1 1 anion
1 2 acceptor
6 13 14 15 16 17 18 rings
6 6 7 8 9 10 11 rings

>  <PUBCHEM_HEAVY_ATOM_COUNT>  (1) 
18

>  <PUBCHEM_ATOM_DEF_STEREO_COUNT>  (1) 
0

>  <PUBCHEM_ATOM_UDEF_STEREO_COUNT>  (1) 
0

>  <PUBCHEM_BOND_DEF_STEREO_COUNT>  (1) 
0

>  <PUBCHEM_BOND_UDEF_STEREO_COUNT>  (1) 
0

>  <PUBCHEM_ISOTOPIC_ATOM_COUNT>  (1) 
0

>  <PUBCHEM_COMPONENT_COUNT>  (1) 
1

>  <PUBCHEM_CACTVS_TAUTO_COUNT>  (1) 
1

>  <PUBCHEM_CONFORMER_ID>  (1) 
0000870E00000001

>  <PUBCHEM_MMFF94_ENERGY>  (1) 
53.3491

>  <PUBCHEM_FEATURE_SELFOVERLAP>  (1) 
25.453

>  <PUBCHEM_SHAPE_FINGERPRINT>  (1) 
11401426 45 18407759239995809985
12107183 9 17689153409657837329
12236239 1 17989486320670586253
12507557 5 18413109476599081409
13167823 11 18408602578389159755
13533116 47 13398361131977444468
14251764 18 18335133207674540698
14341114 176 18409454678103817041
15196674 1 18410576179885033642
15375358 24 18334018276666103843
15788980 27 17967256394611853011
17834072 33 18412825806445358157
19489759 90 18408321086417105409
200 152 18273494576925567161
20279233 1 18187938265648415155
20645477 70 18201159832447624175
21054139 6 18201145655187991103
21267235 1 18410020944130855747
21709351 56 18335978735852280805
22854114 59 18410857659383571437
23402539 116 18186798084954162413
23402655 69 18343865498403691549
23557571 272 17168142278388574199
23559900 14 18269835307459817571
26918003 58 18407761447835821163
2916195 48 17917421081907707672
300161 21 18409444753114981813
33824 294 18408605825142056778
351380 180 18334575758804196097
3545911 37 18410576167691293153
4072396 5 18335129861399300882
4214541 1 18409167693264548045
42630746 31 18273216366003072294
42788 4 18410855460138815265
465052 167 18040437689844929394
474229 33 18413671330882089974
5104073 3 18337397033011728395
542803 24 17132117931319835609
58051976 378 18343304751916342207
59755656 215 18341619170436779806
67856867 119 18263083378347335365
7495541 125 16558462110277387435
77779 3 18410577275692511853
9709674 26 18410020922973011119
9999458 23 17822292418430776038

>  <PUBCHEM_SHAPE_MULTIPOLES>  (1) 
343.75
12.45
1.76
0.67
1.4
0.46
-0.02
-1.83
1.28
-0.16
-0.09
0.05
0
0.05

>  <PUBCHEM_SHAPE_SELFOVERLAP>  (1) 
740.324

>  <PUBCHEM_SHAPE_VOLUME>  (1) 
190.2

>  <PUBCHEM_COORDINATE_TYPE>  (1) 
2
5
10

$$$$
