34584
     RDKit          3D

 19 21  0  0  1  0  0  0  0  0999 V2000
    0.8883    0.6632    0.2508 O   0  0  0  0  0  0  0  0  0  0  0  0
   -0.1832   -1.2296    0.9571 O   0  0  0  0  0  0  0  0  0  0  0  0
    3.7748   -1.1389   -0.6565 N   0  0  0  0  0  0  0  0  0  0  0  0
   -1.3275    0.5309   -0.0781 N   0  0  0  0  0  0  0  0  0  0  0  0
    3.2515    1.1471    0.4628 C   0  0  0  0  0  0  0  0  0  0  0  0
    2.1222    0.1330    0.7203 C   0  0  0  0  0  0  0  0  0  0  0  0
    3.4366    1.3036   -1.0568 C   0  0  0  0  0  0  0  0  0  0  0  0
    4.5462    0.5440    1.0257 C   0  0  0  0  0  0  0  0  0  0  0  0
    2.4472   -1.1873   -0.0011 C   0  0  0  0  0  0  0  0  0  0  0  0
    3.7586   -0.0663   -1.6748 C   0  0  0  0  0  0  0  0  0  0  0  0
    4.8024   -0.8177    0.3587 C   0  0  0  0  0  0  0  0  0  0  0  0
   -0.2223   -0.1257    0.4276 C   0  0  0  0  0  0  0  0  0  0  0  0
   -2.6685    0.0848   -0.1041 C   0  0  0  0  0  0  0  0  0  0  0  0
   -3.7103    0.9981   -0.0478 C   0  0  0  0  0  0  0  0  0  0  0  0
   -2.9122   -1.2781   -0.1850 C   0  0  0  0  0  0  0  0  0  0  0  0
   -5.0268    0.5380   -0.0733 C   0  0  0  0  0  0  0  0  0  0  0  0
   -3.4622    2.4691    0.0394 C   0  0  0  0  0  0  0  0  0  0  0  0
   -4.2288   -1.7382   -0.2105 C   0  0  0  0  0  0  0  0  0  0  0  0
   -5.2861   -0.8301   -0.1544 C   0  0  0  0  0  0  0  0  0  0  0  0
  1  6  1  0
  1 12  1  0
  2 12  2  0
  3  9  1  0
  3 10  1  0
  3 11  1  0
  4 12  1  0
  4 13  1  0
  5  6  1  0
  5  7  1  0
  5  8  1  0
  6  9  1  0
  7 10  1  0
  8 11  1  0
 13 14  2  0
 13 15  1  0
 14 16  1  0
 14 17  1  0
 15 18  2  0
 16 19  2  0
 18 19  1  0
M  END
>  <PUBCHEM_COMPOUND_CID>  (1) 
34584

>  <PUBCHEM_CONFORMER_RMSD>  (1) 
0.8

>  <PUBCHEM_CONFORMER_DIVERSEORDER>  (1) 
1
21
18
11
4
16
2
12
17
9
7
24
25
23
3
19
26
8
5
20
6
22
13
15
14
10

>  <PUBCHEM_MMFF94_PARTIAL_CHARGES>  (1) 
21
1 -0.43
10 0.27
11 0.27
12 0.78
13 0.12
14 -0.14
15 -0.15
16 -0.15
17 0.14
18 -0.15
19 -0.15
2 -0.57
3 -0.81
32 0.37
33 0.15
34 0.15
38 0.15
39 0.15
4 -0.55
6 0.28
9 0.27

>  <PUBCHEM_EFFECTIVE_ROTOR_COUNT>  (1) 
5.2

>  <PUBCHEM_PHARMACOPHORE_FEATURES>  (1) 
5
1 2 acceptor
1 3 cation
1 4 donor
6 13 14 15 16 18 19 rings
8 3 5 6 7 8 9 10 11 rings

>  <PUBCHEM_HEAVY_ATOM_COUNT>  (1) 
19

>  <PUBCHEM_ATOM_DEF_STEREO_COUNT>  (1) 
0

>  <PUBCHEM_ATOM_UDEF_STEREO_COUNT>  (1) 
1

>  <PUBCHEM_BOND_DEF_STEREO_COUNT>  (1) 
0

>  <PUBCHEM_BOND_UDEF_STEREO_COUNT>  (1) 
0

>  <PUBCHEM_ISOTOPIC_ATOM_COUNT>  (1) 
0

>  <PUBCHEM_COMPONENT_COUNT>  (1) 
1

>  <PUBCHEM_CACTVS_TAUTO_COUNT>  (1) 
2

>  <PUBCHEM_CONFORMER_ID>  (1) 
0000871800000001

>  <PUBCHEM_MMFF94_ENERGY>  (1) 
57.9098

>  <PUBCHEM_FEATURE_SELFOVERLAP>  (1) 
25.371

>  <PUBCHEM_SHAPE_FINGERPRINT>  (1) 
10366900 7 13262394466712416517
10498660 4 18114454583444013021
10595046 47 18335984250347539340
10680689 15 18409172104111337929
11128504 68 17676492773613288319
11287383 113 18130785685105688282
12107183 9 17687740545774301297
12173636 292 18339354180915230223
12236239 1 17821726130607335529
12390115 104 18057897836290448593
12616971 3 17530965782732591781
128620 24 18342737437753804487
12916748 109 18408605872512849585
13167823 11 18408881832583032755
13533116 47 11675140571850944713
13675066 3 17917704712483012960
13760787 5 16588025710036584228
14251751 93 18272928315378645055
14252887 29 16343707625518021686
14573314 32 18343585127064842477
15196674 1 18411417314875472233
15239154 128 18408324363150253933
15788980 27 18333733511290581850
15961568 22 18189048866845865868
17349148 13 17385723599358997113
17834072 33 18334296491546125205
17844677 252 18272093803011570521
18186145 218 18114175324374520988
1986462 14 18412545397042562549
200 152 17846778507335982387
20645477 70 16988850449550153766
21033650 10 18120399604171150676
21267235 1 18409454686973534355
221357 26 18272649052346949833
2297311 6 18343029899942673677
23175994 123 16774080683202437425
23402539 116 18334568044937372452
23402655 69 18410296895674063820
23557571 272 18272090478548543048
23559900 14 18343579650950002008
239999 70 17846785118023906550
2838139 119 16372105765012358085
3004659 81 18410013204758290814
3268164 11 18187635908593413781
34797466 226 17988652946628445277
4214541 1 18412824655768805609
474 4 17096093613835957428
4990 188 18343304747267907806
5104073 3 18342173353955469723
5281201 14 18272375260765947452
5374978 207 10952055537267706318
542803 24 16805604763380274495
633830 44 17385730174837908770
7495541 125 17774716566817440353
77779 3 18413107255868458337
9709674 26 18411705404107665042
9971528 1 18040714758422389204

>  <PUBCHEM_SHAPE_MULTIPOLES>  (1) 
369.31
12.63
1.75
1
3.49
0.41
0.22
-0.56
0.87
1.4
0.05
-1.25
0.03
-0.06

>  <PUBCHEM_SHAPE_SELFOVERLAP>  (1) 
788.71

>  <PUBCHEM_SHAPE_VOLUME>  (1) 
200.4

>  <PUBCHEM_COORDINATE_TYPE>  (1) 
2
5
10

$$$$
