34583
     RDKit          3D

 20 22  0  0  1  0  0  0  0  0999 V2000
    2.8749    2.7392    0.2363 Cl  0  0  0  0  0  0  0  0  0  0  0  0
   -1.0031    0.5754    0.5233 O   0  0  0  0  0  0  0  0  0  0  0  0
    0.1437    0.3317   -1.4402 O   0  0  0  0  0  0  0  0  0  0  0  0
   -3.8293   -1.0913   -0.7563 N   0  0  0  0  0  0  0  0  0  0  0  0
    1.2130    0.2430    0.6405 N   0  0  0  0  0  0  0  0  0  0  0  0
   -3.3805    0.9663    0.7660 C   0  0  0  0  0  0  0  0  0  0  0  0
   -2.2124    0.7337   -0.2094 C   0  0  0  0  0  0  0  0  0  0  0  0
   -3.5849   -0.3084    1.6033 C   0  0  0  0  0  0  0  0  0  0  0  0
   -4.6470    1.1729   -0.0768 C   0  0  0  0  0  0  0  0  0  0  0  0
   -2.4950   -0.5213   -1.0546 C   0  0  0  0  0  0  0  0  0  0  0  0
   -3.8619   -1.4948    0.6663 C   0  0  0  0  0  0  0  0  0  0  0  0
   -4.8589   -0.0526   -0.9814 C   0  0  0  0  0  0  0  0  0  0  0  0
    0.1373    0.3757   -0.2160 C   0  0  0  0  0  0  0  0  0  0  0  0
    2.5693    0.0251    0.3073 C   0  0  0  0  0  0  0  0  0  0  0  0
    3.0315   -1.2790    0.1919 C   0  0  0  0  0  0  0  0  0  0  0  0
    3.4178    1.1041    0.1005 C   0  0  0  0  0  0  0  0  0  0  0  0
    4.3676   -1.5083   -0.1365 C   0  0  0  0  0  0  0  0  0  0  0  0
    2.1351   -2.4550    0.4102 C   0  0  0  0  0  0  0  0  0  0  0  0
    4.7540    0.8749   -0.2279 C   0  0  0  0  0  0  0  0  0  0  0  0
    5.2288   -0.4314   -0.3464 C   0  0  0  0  0  0  0  0  0  0  0  0
  1 16  1  0
  2  7  1  0
  2 13  1  0
  3 13  2  0
  4 10  1  0
  4 11  1  0
  4 12  1  0
  5 13  1  0
  5 14  1  0
  6  7  1  0
  6  8  1  0
  6  9  1  0
  7 10  1  0
  8 11  1  0
  9 12  1  0
 14 15  2  0
 14 16  1  0
 15 17  1  0
 15 18  1  0
 16 19  2  0
 17 20  2  0
 19 20  1  0
M  END
>  <PUBCHEM_COMPOUND_CID>  (1) 
34583

>  <PUBCHEM_CONFORMER_RMSD>  (1) 
0.8

>  <PUBCHEM_CONFORMER_DIVERSEORDER>  (1) 
3
24
11
9
23
13
21
6
2
16
8
5
7
17
20
1
12
4
15
22
18
19
14
10

>  <PUBCHEM_MMFF94_PARTIAL_CHARGES>  (1) 
21
1 -0.18
10 0.27
11 0.27
12 0.27
13 0.78
14 0.12
15 -0.14
16 0.18
17 -0.15
18 0.14
19 -0.15
2 -0.43
20 -0.15
3 -0.57
33 0.37
34 0.15
38 0.15
39 0.15
4 -0.81
5 -0.55
7 0.28

>  <PUBCHEM_EFFECTIVE_ROTOR_COUNT>  (1) 
5.2

>  <PUBCHEM_PHARMACOPHORE_FEATURES>  (1) 
5
1 3 acceptor
1 4 cation
1 5 donor
6 14 15 16 17 19 20 rings
8 4 6 7 8 9 10 11 12 rings

>  <PUBCHEM_HEAVY_ATOM_COUNT>  (1) 
20

>  <PUBCHEM_ATOM_DEF_STEREO_COUNT>  (1) 
0

>  <PUBCHEM_ATOM_UDEF_STEREO_COUNT>  (1) 
1

>  <PUBCHEM_BOND_DEF_STEREO_COUNT>  (1) 
0

>  <PUBCHEM_BOND_UDEF_STEREO_COUNT>  (1) 
0

>  <PUBCHEM_ISOTOPIC_ATOM_COUNT>  (1) 
0

>  <PUBCHEM_COMPONENT_COUNT>  (1) 
1

>  <PUBCHEM_CACTVS_TAUTO_COUNT>  (1) 
2

>  <PUBCHEM_CONFORMER_ID>  (1) 
0000871700000003

>  <PUBCHEM_MMFF94_ENERGY>  (1) 
74.845

>  <PUBCHEM_FEATURE_SELFOVERLAP>  (1) 
25.371

>  <PUBCHEM_SHAPE_FINGERPRINT>  (1) 
10366900 7 18187081758532252416
10616163 171 18271524290269226975
10680689 15 17458345234599210533
11315181 36 17418092122295760449
11370993 144 18263083228049424877
11405975 8 18410575063462906753
11552529 35 18057328486144646571
11615757 297 18201721760182705760
12107183 9 17549828784990567627
12236239 1 17846779598859036040
12596602 18 17132109165144047602
12670546 56 17989201555596277312
128620 24 16008751298993326690
13167823 11 18343581849836055423
13224815 77 17385722504042096952
13533116 47 18412257303779951979
13583140 156 18411419544401511165
13760787 19 18272368663638015559
14289901 80 18413386561876343233
14341114 176 18412834568268540184
14386348 63 17385727975899166107
14528608 73 18409730690219841396
15375358 24 17676487241753537203
15788980 27 18343022189790672484
15961568 22 16661210381356913196
17834072 33 18343298184367897623
17844677 252 18412269440677243237
18186145 218 17675921001797164345
18222031 100 16415186893345594425
19489759 90 15051731967577901803
200 152 18344143691925193729
20645477 56 17894908495762028797
20645477 70 18340763754374074846
21709351 56 18410853261458626860
221490 88 18337114565675999698
22646028 1 18131630079939426448
23402539 116 15791730806468260526
23559900 14 18408316709260173752
23596394 208 18113887230916569302
239999 70 18341897385823378422
26918003 58 18335138678576730416
2871803 45 18261108539583732130
300161 21 18409722941850945305
4214541 1 18412825755217214233
474 4 18266454502683974904
4921388 177 17095532811645687747
5104073 3 18411980264834169138
542803 24 17458065958355624676
633830 44 18187079568061910649
7495541 125 18040718082753352528
77779 3 18412263938876488336
8272917 22 18341616962659825142
9709674 26 18334298707596633067

>  <PUBCHEM_SHAPE_MULTIPOLES>  (1) 
391.76
12.08
2.03
1.06
0.49
0.11
-0.02
-0.54
0.64
-1.83
-0.28
1.05
-0.08
0.02

>  <PUBCHEM_SHAPE_SELFOVERLAP>  (1) 
827.639

>  <PUBCHEM_SHAPE_VOLUME>  (1) 
219.5

>  <PUBCHEM_COORDINATE_TYPE>  (1) 
2
5
10

$$$$
