34589
     RDKit          3D

 23 25  0  0  0  0  0  0  0  0999 V2000
   -0.6579   -2.3853    0.2336 O   0  0  0  0  0  0  0  0  0  0  0  0
    0.4615   -0.3226    0.2025 N   0  0  0  0  0  0  0  0  0  0  0  0
   -2.9463   -1.3287   -0.3450 N   0  0  0  0  0  0  0  0  0  0  0  0
   -4.3002   -0.7796   -0.3396 C   0  0  0  0  0  0  0  0  0  0  0  0
    2.7454    0.7935   -1.6483 C   0  0  0  0  0  0  0  0  0  0  0  0
    1.3706    1.3797   -1.9258 C   0  0  0  0  0  0  0  0  0  0  0  0
    1.7925   -0.8799    0.1302 C   0  0  0  0  0  0  0  0  0  0  0  0
    0.3896    1.0939    0.3629 C   0  0  0  0  0  0  0  0  0  0  0  0
    2.8383   -0.3568   -0.6659 C   0  0  0  0  0  0  0  0  0  0  0  0
    0.8104    1.9542   -0.6598 C   0  0  0  0  0  0  0  0  0  0  0  0
   -2.0251   -0.4664    0.3580 C   0  0  0  0  0  0  0  0  0  0  0  0
   -0.6753   -1.1516    0.2867 C   0  0  0  0  0  0  0  0  0  0  0  0
   -5.2259   -1.7549   -1.0744 C   0  0  0  0  0  0  0  0  0  0  0  0
   -4.7551   -0.6173    1.1146 C   0  0  0  0  0  0  0  0  0  0  0  0
   -4.3002    0.5810   -1.0467 C   0  0  0  0  0  0  0  0  0  0  0  0
    2.0783   -2.0000    0.9451 C   0  0  0  0  0  0  0  0  0  0  0  0
   -0.1221    1.6358    1.5526 C   0  0  0  0  0  0  0  0  0  0  0  0
    4.1144   -0.9660   -0.6035 C   0  0  0  0  0  0  0  0  0  0  0  0
    0.7133    3.3415   -0.4839 C   0  0  0  0  0  0  0  0  0  0  0  0
    3.3432   -2.5884    0.9818 C   0  0  0  0  0  0  0  0  0  0  0  0
   -0.2152    3.0174    1.7187 C   0  0  0  0  0  0  0  0  0  0  0  0
    4.3653   -2.0692    0.2066 C   0  0  0  0  0  0  0  0  0  0  0  0
    0.2006    3.8698    0.7000 C   0  0  0  0  0  0  0  0  0  0  0  0
  1 12  2  0
  2  7  1  0
  2  8  1  0
  2 12  1  0
  3  4  1  0
  3 11  1  0
  4 13  1  0
  4 14  1  0
  4 15  1  0
  5  6  1  0
  5  9  1  0
  6 10  1  0
  7  9  2  0
  7 16  1  0
  8 10  2  0
  8 17  1  0
  9 18  1  0
 10 19  1  0
 11 12  1  0
 16 20  2  0
 17 21  2  0
 18 22  2  0
 19 23  2  0
 20 22  1  0
 21 23  1  0
M  END
>  <PUBCHEM_COMPOUND_CID>  (1) 
34589

>  <PUBCHEM_CONFORMER_RMSD>  (1) 
0.8

>  <PUBCHEM_CONFORMER_DIVERSEORDER>  (1) 
1
4
7
3
2
6
8
5

>  <PUBCHEM_MMFF94_PARTIAL_CHARGES>  (1) 
29
1 -0.57
10 -0.14
11 0.33
12 0.57
16 -0.15
17 -0.15
18 -0.15
19 -0.15
2 -0.29
20 -0.15
21 -0.15
22 -0.15
23 -0.15
28 0.36
3 -0.9
4 0.27
40 0.15
41 0.15
42 0.15
43 0.15
44 0.15
45 0.15
46 0.15
47 0.15
5 0.14
6 0.14
7 0.12
8 0.12
9 -0.14

>  <PUBCHEM_EFFECTIVE_ROTOR_COUNT>  (1) 
4.6

>  <PUBCHEM_PHARMACOPHORE_FEATURES>  (1) 
7
1 1 acceptor
1 3 cation
1 3 donor
4 4 13 14 15 hydrophobe
6 7 9 16 18 20 22 rings
6 8 10 17 19 21 23 rings
7 2 5 6 7 8 9 10 rings

>  <PUBCHEM_HEAVY_ATOM_COUNT>  (1) 
23

>  <PUBCHEM_ATOM_DEF_STEREO_COUNT>  (1) 
0

>  <PUBCHEM_ATOM_UDEF_STEREO_COUNT>  (1) 
0

>  <PUBCHEM_BOND_DEF_STEREO_COUNT>  (1) 
0

>  <PUBCHEM_BOND_UDEF_STEREO_COUNT>  (1) 
0

>  <PUBCHEM_ISOTOPIC_ATOM_COUNT>  (1) 
0

>  <PUBCHEM_COMPONENT_COUNT>  (1) 
1

>  <PUBCHEM_CACTVS_TAUTO_COUNT>  (1) 
1

>  <PUBCHEM_CONFORMER_ID>  (1) 
0000871D00000001

>  <PUBCHEM_MMFF94_ENERGY>  (1) 
101.8919

>  <PUBCHEM_FEATURE_SELFOVERLAP>  (1) 
35.543

>  <PUBCHEM_SHAPE_FINGERPRINT>  (1) 
10165383 225 17251496517200054569
104564 63 18196935461539104459
10764073 3 17468138575688318736
11265709 11 18411987931635647736
11578080 2 18338500959618776152
11582403 64 16051238876417215088
12035759 4 18190483587732289060
12293681 160 18049471376395411788
12553582 1 18341907267915411451
12788726 201 18269005206271764364
13004483 165 18339349765515153154
13134695 92 18340475738267362109
13294875 104 18053098707619256216
13464514 151 17910121535395008701
14068700 675 18336823101032808214
14251757 17 16732993015502994865
14347329 18 16663431188987004429
14955137 171 18341628009479806035
17980427 26 17910945065367346548
1813 80 18202006512203651967
19078846 21 18201730548186842793
20369508 70 18270395113491715239
20600515 1 17632297886512972730
20626108 58 17703224122072914599
20671657 1 18267865176028071179
20775438 99 17619879070872824247
21250096 35 18411697673176938855
22112679 90 18126592070532601760
221357 26 18260821593187770199
23402539 116 18271524187105303822
23419403 2 18125125352386833548
23558518 356 17832152623544276658
23559900 14 17894904192289310959
25147074 1 17898301494303900678
266924 78 16882777358673137284
283562 15 18193270802422486498
345986 75 18189885431568374338
34934 24 18270684302488139494
394222 165 16807300339892956404
5895379 119 16485599596761577049
6442390 28 17183636923018330467
7164475 11 18194403290909186094
7364860 26 18197212761739161505
7471813 234 18413386540237807340
7495541 125 18263089958543084027
81228 2 18195540202943039698
84936 182 17979921840634826549
9981440 41 17331946735011150113

>  <PUBCHEM_SHAPE_MULTIPOLES>  (1) 
457.5
8.35
3.92
1.5
8.79
3.42
0.11
-7.93
1.89
-1.5
-1.15
-0.08
0.7
-1.27

>  <PUBCHEM_SHAPE_SELFOVERLAP>  (1) 
980.024

>  <PUBCHEM_SHAPE_VOLUME>  (1) 
253.4

>  <PUBCHEM_COORDINATE_TYPE>  (1) 
2
5
10

$$$$
