34592
     RDKit          3D

 21 24  0  0  0  0  0  0  0  0999 V2000
   -2.7134   -1.7876   -0.5513 S   0  0  0  0  0  0  0  0  0  0  0  0
   -3.3021    2.6109    1.2683 O   0  0  0  0  0  0  0  0  0  0  0  0
   -0.6094    2.3684   -0.3625 N   0  0  0  0  0  0  0  0  0  0  0  0
   -3.1874    0.7379   -0.0513 N   0  0  0  0  0  0  0  0  0  0  0  0
   -0.2087   -1.4476    0.0367 C   0  0  0  0  0  0  0  0  0  0  0  0
    1.1890   -1.8225    0.4475 C   0  0  0  0  0  0  0  0  0  0  0  0
    1.3356   -3.2939    0.8600 C   0  0  0  0  0  0  0  0  0  0  0  0
    0.6059   -4.2152   -0.1100 C   0  0  0  0  0  0  0  0  0  0  0  0
   -0.8838   -3.8752   -0.1649 C   0  0  0  0  0  0  0  0  0  0  0  0
   -1.1313   -2.3981   -0.2032 C   0  0  0  0  0  0  0  0  0  0  0  0
   -0.7308   -0.0752   -0.0930 C   0  0  0  0  0  0  0  0  0  0  0  0
   -2.2412   -0.1185   -0.2016 C   0  0  0  0  0  0  0  0  0  0  0  0
   -0.0676    1.1067   -0.1720 C   0  0  0  0  0  0  0  0  0  0  0  0
    1.4110    1.1771   -0.1074 C   0  0  0  0  0  0  0  0  0  0  0  0
   -1.9627    2.7097   -0.7019 C   0  0  0  0  0  0  0  0  0  0  0  0
   -2.8757    2.0295    0.2742 C   0  0  0  0  0  0  0  0  0  0  0  0
    2.1592    1.0973   -1.2779 C   0  0  0  0  0  0  0  0  0  0  0  0
    2.0413    1.3244    1.1244 C   0  0  0  0  0  0  0  0  0  0  0  0
    3.5510    1.1658   -1.2161 C   0  0  0  0  0  0  0  0  0  0  0  0
    3.4331    1.3927    1.1862 C   0  0  0  0  0  0  0  0  0  0  0  0
    4.1880    1.3135    0.0159 C   0  0  0  0  0  0  0  0  0  0  0  0
  1 10  1  0
  1 12  1  0
  2 16  2  0
  3 13  1  0
  3 15  1  0
  4 12  2  0
  4 16  1  0
  5  6  1  0
  5 10  2  0
  5 11  1  0
  6  7  1  0
  7  8  1  0
  8  9  1  0
  9 10  1  0
 11 12  1  0
 11 13  2  0
 13 14  1  0
 14 17  2  0
 14 18  1  0
 15 16  1  0
 17 19  1  0
 18 20  2  0
 19 21  2  0
 20 21  1  0
M  END
>  <PUBCHEM_COMPOUND_CID>  (1) 
34592

>  <PUBCHEM_CONFORMER_RMSD>  (1) 
0.6

>  <PUBCHEM_CONFORMER_DIVERSEORDER>  (1) 
1
2

>  <PUBCHEM_MMFF94_PARTIAL_CHARGES>  (1) 
25
1 -0.24
10 -0.04
11 0.01
12 0.58
13 0.07
14 0.03
15 0.43
16 0.72
17 -0.15
18 -0.15
19 -0.15
2 -0.57
20 -0.15
21 -0.15
3 -0.87
30 0.4
33 0.15
34 0.15
35 0.15
36 0.15
37 0.15
4 -0.66
5 -0.14
6 0.14
9 0.14

>  <PUBCHEM_EFFECTIVE_ROTOR_COUNT>  (1) 
2.2

>  <PUBCHEM_PHARMACOPHORE_FEATURES>  (1) 
9
1 2 acceptor
1 3 cation
1 3 donor
1 4 acceptor
1 4 donor
5 1 5 10 11 12 rings
6 14 17 18 19 20 21 rings
6 5 6 7 8 9 10 rings
7 3 4 11 12 13 15 16 rings

>  <PUBCHEM_HEAVY_ATOM_COUNT>  (1) 
21

>  <PUBCHEM_ATOM_DEF_STEREO_COUNT>  (1) 
0

>  <PUBCHEM_ATOM_UDEF_STEREO_COUNT>  (1) 
0

>  <PUBCHEM_BOND_DEF_STEREO_COUNT>  (1) 
0

>  <PUBCHEM_BOND_UDEF_STEREO_COUNT>  (1) 
0

>  <PUBCHEM_ISOTOPIC_ATOM_COUNT>  (1) 
0

>  <PUBCHEM_COMPONENT_COUNT>  (1) 
1

>  <PUBCHEM_CACTVS_TAUTO_COUNT>  (1) 
4

>  <PUBCHEM_CONFORMER_ID>  (1) 
0000872000000001

>  <PUBCHEM_MMFF94_ENERGY>  (1) 
59.7175

>  <PUBCHEM_FEATURE_SELFOVERLAP>  (1) 
45.799

>  <PUBCHEM_SHAPE_FINGERPRINT>  (1) 
10319926 262 18054485162756738088
10411042 1 17401486447553962574
10693767 8 17914598699931794271
10967382 1 17618496580448845919
1100329 8 18196374710846854642
11578080 2 13065190287402722772
11582403 64 16696618972049758928
116883 192 17691692607139750510
12422481 6 17684900563665350250
12553582 1 17544203035226995598
12788726 201 17903649818580192374
13140716 1 18266459815336506467
138480 1 17617939127974260302
14022347 108 17758978290659019294
14022349 108 18121505648143347577
14081887 123 17763728189823877088
14178342 30 18411693296652756656
1420 336 17615404092226232578
14790565 3 18192726754973536413
15042514 8 18120657095628649554
15309172 13 18408327683060065273
16110190 28 17974818754922965386
16752209 62 18191575561318050159
16945 1 18122626312490259503
18785283 64 17975710389305204929
19591789 44 18410860919200666414
20028762 73 17984433103397126119
20510252 161 18198059385692783145
20600515 1 17618472803530955553
20642791 178 18118134571679062950
20775438 99 15896122065294135183
20905425 154 18413672422099319054
23184049 29 17400636516142785214
2334 1 18409726266271754951
23366157 5 17898296000180522275
23402539 116 18126837433582465415
23419403 2 17173763948150024869
23557571 272 17836367425607960352
257057 1 17258489475255310071
2748010 2 18408891706986951567
3084891 72 18267297832022770231
3091708 16 9266715322098126554
350125 39 18338235955740587203
352729 6 18119813761699111207
43471831 8 18408600353326990643
458136 41 18194701279602678865
484985 159 15887337796147204880
5265222 85 18264790847644500364
58807428 26 18410573959445074720
6443956 14 17114936695956907933
7364860 26 18050847715127235412
81228 2 18124881419381283393
90525 40 18260267494555407364
9709674 26 18199476643918245580

>  <PUBCHEM_SHAPE_MULTIPOLES>  (1) 
420.19
5.61
4.94
1.05
5.51
1.97
-0.03
-0.89
0.26
-4.81
-0.72
0.64
-0.23
-0.54

>  <PUBCHEM_SHAPE_SELFOVERLAP>  (1) 
914.034

>  <PUBCHEM_SHAPE_VOLUME>  (1) 
229.2

>  <PUBCHEM_COORDINATE_TYPE>  (1) 
2
5
10

$$$$
