3459
     RDKit          3D

 29 28  0  0  0  0  0  0  0  0999 V2000
   -3.3463   -2.4903    1.0376 O   0  0  0  0  0  0  0  0  0  0  0  0
   -2.2753   -0.5633    1.7162 O   0  0  0  0  0  0  0  0  0  0  0  0
    3.2968   -3.1196   -0.9796 C   0  0  0  0  0  0  0  0  0  0  0  0
    4.4050   -2.2106   -1.5256 C   0  0  0  0  0  0  0  0  0  0  0  0
    5.4111   -0.0204   -0.6723 C   0  0  0  0  0  0  0  0  0  0  0  0
    5.8127    0.9211    0.4433 C   0  0  0  0  0  0  0  0  0  0  0  0
    2.0529   -2.3400   -0.6116 C   0  0  0  0  0  0  0  0  0  0  0  0
    4.8752   -1.2413   -0.4750 C   0  0  0  0  0  0  0  0  0  0  0  0
    5.1541    2.3036    0.3641 C   0  0  0  0  0  0  0  0  0  0  0  0
    1.4786   -2.3423    0.6077 C   0  0  0  0  0  0  0  0  0  0  0  0
    0.2471   -1.6015    1.0457 C   0  0  0  0  0  0  0  0  0  0  0  0
    5.5952    0.5099   -2.0697 C   0  0  0  0  0  0  0  0  0  0  0  0
    1.4541   -1.5246   -1.7283 C   0  0  0  0  0  0  0  0  0  0  0  0
   -1.0129   -2.4336    0.8119 C   0  0  0  0  0  0  0  0  0  0  0  0
   -6.1223    0.7655   -1.0609 C   0  0  0  0  0  0  0  0  0  0  0  0
    3.6601    2.2604    0.5181 C   0  0  0  0  0  0  0  0  0  0  0  0
   -5.2699    1.9067   -1.6313 C   0  0  0  0  0  0  0  0  0  0  0  0
   -5.5186    0.1049    0.1608 C   0  0  0  0  0  0  0  0  0  0  0  0
    2.9428    2.3303    1.6554 C   0  0  0  0  0  0  0  0  0  0  0  0
   -2.2577   -1.6922    1.2448 C   0  0  0  0  0  0  0  0  0  0  0  0
   -5.1734   -1.1950    0.2416 C   0  0  0  0  0  0  0  0  0  0  0  0
   -4.6050   -1.9247    1.4169 C   0  0  0  0  0  0  0  0  0  0  0  0
   -3.8969    1.4524   -2.0431 C   0  0  0  0  0  0  0  0  0  0  0  0
   -5.3433    1.0068    1.3558 C   0  0  0  0  0  0  0  0  0  0  0  0
   -2.7066    1.9516   -1.6601 C   0  0  0  0  0  0  0  0  0  0  0  0
    3.6359    2.4577    2.9857 C   0  0  0  0  0  0  0  0  0  0  0  0
    1.4440    2.2810    1.7398 C   0  0  0  0  0  0  0  0  0  0  0  0
   -2.5094    3.0855   -0.6947 C   0  0  0  0  0  0  0  0  0  0  0  0
   -1.4280    1.3618   -2.1932 C   0  0  0  0  0  0  0  0  0  0  0  0
  1 20  1  0
  1 22  1  0
  2 20  2  0
  3  4  1  0
  3  7  1  0
  4  8  1  0
  5  6  1  0
  5  8  2  0
  5 12  1  0
  6  9  1  0
  7 10  2  0
  7 13  1  0
  9 16  1  0
 10 11  1  0
 11 14  1  0
 14 20  1  0
 15 17  1  0
 15 18  1  0
 16 19  2  3
 17 23  1  0
 18 21  2  0
 18 24  1  0
 19 26  1  0
 19 27  1  0
 21 22  1  0
 23 25  2  3
 25 28  1  0
 25 29  1  0
M  END
>  <PUBCHEM_COMPOUND_CID>  (1) 
3459

>  <PUBCHEM_CONFORMER_RMSD>  (1) 
1.6

>  <PUBCHEM_CONFORMER_DIVERSEORDER>  (1) 
1
121
32
37
141
5
149
142
51
138
52
58
147
65
153
56
45
54
133
28
72
41
122
123
2
53
103
84
16
101
100
105
71
110
93
139
4
33
135
94
48
34
113
70
145
143
83
125
3
157
10
59
14
112
87
42
155
40
49
140
108
115
44
150
76
80
17
104
57
98
134
67
128
69
92
24
116
27
129
146
6
117
118
90
66
152
89
39
126
158
154
137
151
82
97
99
95
62
160
35
61
20
55
109
23
130
156
102
74
7
21
50
64
127
85
75
15
88
73
107
86
63
132
148
81
38
144
111
12
136
19
131
78
29
47
96
161
18
43
31
11
60
79
91
159
119
120
36
124
9
114
77
22
30
13
106
25
46
8
68
26

>  <PUBCHEM_MMFF94_PARTIAL_CHARGES>  (1) 
34
1 -0.43
10 -0.29
11 0.14
12 0.14
13 0.14
14 0.06
15 0.14
16 -0.29
17 0.14
18 -0.28
19 -0.28
2 -0.57
20 0.66
21 -0.29
22 0.42
23 -0.29
24 0.14
25 -0.28
26 0.14
27 0.14
28 0.14
29 0.14
3 0.14
36 0.15
39 0.15
4 0.14
5 -0.28
52 0.15
55 0.15
58 0.15
6 0.14
7 -0.28
8 -0.29
9 0.14

>  <PUBCHEM_EFFECTIVE_ROTOR_COUNT>  (1) 
15

>  <PUBCHEM_PHARMACOPHORE_FEATURES>  (1) 
9
1 12 hydrophobe
1 13 hydrophobe
1 2 acceptor
1 24 hydrophobe
3 19 26 27 hydrophobe
3 25 28 29 hydrophobe
4 15 17 18 23 hydrophobe
4 3 4 7 8 hydrophobe
4 5 6 9 16 hydrophobe

>  <PUBCHEM_HEAVY_ATOM_COUNT>  (1) 
29

>  <PUBCHEM_ATOM_DEF_STEREO_COUNT>  (1) 
0

>  <PUBCHEM_ATOM_UDEF_STEREO_COUNT>  (1) 
0

>  <PUBCHEM_BOND_DEF_STEREO_COUNT>  (1) 
0

>  <PUBCHEM_BOND_UDEF_STEREO_COUNT>  (1) 
3

>  <PUBCHEM_ISOTOPIC_ATOM_COUNT>  (1) 
0

>  <PUBCHEM_COMPONENT_COUNT>  (1) 
1

>  <PUBCHEM_CACTVS_TAUTO_COUNT>  (1) 
1

>  <PUBCHEM_CONFORMER_ID>  (1) 
00000D8300000001

>  <PUBCHEM_MMFF94_ENERGY>  (1) 
27.7748

>  <PUBCHEM_FEATURE_SELFOVERLAP>  (1) 
45.747

>  <PUBCHEM_SHAPE_FINGERPRINT>  (1) 
10864689 126 17753889415916961749
11479125 193 17845076545262856472
11595378 159 16660352675806930834
13111901 137 18409172116759337244
13383661 66 17120542509390030223
13402501 40 18408886256330613472
13561361 72 18040431118254861932
14251757 17 18337957796832031224
14415361 192 15574710314085587949
14739800 52 17822562824649576427
14904385 31 18122052363532515552
15328829 1 16056881338056575885
15406563 190 17240770515300113253
15968369 26 17758080771269236708
15975801 100 16660919964315911284
16067690 210 16805327725036637860
22121540 332 18262507122399997974
328310 1195 18343018891530245226
3459 39 17530673316797706591
354706 132 17972329408556769892
437795 51 18342735217277091253
484989 97 18336836312368177886
508706 21 18188204411612611235
54131252 337 17979888804780719367
54131252 71 17677876965603386538
59755656 215 18408600370385651153

>  <PUBCHEM_SHAPE_MULTIPOLES>  (1) 
585.07
16.15
4.17
2.49
3.9
0.24
0.1
-4.3
-2.81
-2.13
0.71
-0.08
-1.21
5.31

>  <PUBCHEM_SHAPE_SELFOVERLAP>  (1) 
1121.25

>  <PUBCHEM_SHAPE_VOLUME>  (1) 
358

>  <PUBCHEM_COORDINATE_TYPE>  (1) 
2
5
10

$$$$
