34601
     RDKit          3D

 10 10  0  0  0  0  0  0  0  0999 V2000
   -2.6680   -1.5701   -0.6202 Cl  0  0  0  0  0  0  0  0  0  0  0  0
    2.8853   -1.2196   -0.8542 Cl  0  0  0  0  0  0  0  0  0  0  0  0
   -0.7163   -0.8470    1.1442 C   0  0  0  0  0  0  0  0  0  0  0  0
    0.6737   -1.3379    0.7203 C   0  0  0  0  0  0  0  0  0  0  0  0
   -0.7302    2.0593   -0.2486 C   0  0  0  0  0  0  0  0  0  0  0  0
    0.5705    1.8784    0.5359 C   0  0  0  0  0  0  0  0  0  0  0  0
   -1.5666   -0.3711    0.0010 C   0  0  0  0  0  0  0  0  0  0  0  0
    1.5943   -0.3928   -0.0116 C   0  0  0  0  0  0  0  0  0  0  0  0
   -1.5855    0.8559   -0.5452 C   0  0  0  0  0  0  0  0  0  0  0  0
    1.5428    0.9452   -0.1215 C   0  0  0  0  0  0  0  0  0  0  0  0
  1  7  1  0
  2  8  1  0
  3  4  1  0
  3  7  1  0
  4  8  1  0
  5  6  1  0
  5  9  1  0
  6 10  1  0
  7  9  2  0
  8 10  2  0
M  END
>  <PUBCHEM_COMPOUND_CID>  (1) 
34601

>  <PUBCHEM_CONFORMER_RMSD>  (1) 
0.4

>  <PUBCHEM_CONFORMER_DIVERSEORDER>  (1) 
1

>  <PUBCHEM_MMFF94_PARTIAL_CHARGES>  (1) 
10
1 -0.14
10 -0.29
19 0.15
2 -0.14
20 0.15
3 0.14
4 0.14
5 0.14
6 0.14
9 -0.29

>  <PUBCHEM_EFFECTIVE_ROTOR_COUNT>  (1) 
0.8

>  <PUBCHEM_PHARMACOPHORE_FEATURES>  (1) 
0

>  <PUBCHEM_HEAVY_ATOM_COUNT>  (1) 
10

>  <PUBCHEM_ATOM_DEF_STEREO_COUNT>  (1) 
0

>  <PUBCHEM_ATOM_UDEF_STEREO_COUNT>  (1) 
0

>  <PUBCHEM_BOND_DEF_STEREO_COUNT>  (1) 
0

>  <PUBCHEM_BOND_UDEF_STEREO_COUNT>  (1) 
2

>  <PUBCHEM_ISOTOPIC_ATOM_COUNT>  (1) 
0

>  <PUBCHEM_COMPONENT_COUNT>  (1) 
1

>  <PUBCHEM_CACTVS_TAUTO_COUNT>  (1) 
1

>  <PUBCHEM_CONFORMER_ID>  (1) 
0000872900000001

>  <PUBCHEM_MMFF94_ENERGY>  (1) 
12.6801

>  <PUBCHEM_FEATURE_SELFOVERLAP>  (1) 
0

>  <PUBCHEM_SHAPE_FINGERPRINT>  (1) 
11206711 2 18259987041606781734
12423570 1 11329964452418081987
12716758 59 17909265789284083598
12897270 3 18335975445744028663
13024252 1 17315103006920685194
14761567 1 17749106694681054482
14817 1 13516373195668944248
16945 1 18193547874640506153
18185500 45 17612579034474104337
20201158 50 18192426591828658078
20645477 70 17979902028753122167
20653085 51 15864941771161071742
20711978 78 18057592364365603717
21040471 1 17760076320438422376
23211744 25 18113330908124260907
23552423 10 18260547826859749348
241688 4 18409165515188680041
2748010 2 18335975467165922621
5084963 1 18273496796891162698
53812653 217 18194126205014063879
66348 1 18048308951347679113

>  <PUBCHEM_SHAPE_MULTIPOLES>  (1) 
209.53
3.43
2.25
0.99
0.47
0.83
0.1
-1.94
-1.25
-0.23
-0.07
0.01
-0.24
0.2

>  <PUBCHEM_SHAPE_SELFOVERLAP>  (1) 
393.327

>  <PUBCHEM_SHAPE_VOLUME>  (1) 
124.6

>  <PUBCHEM_COORDINATE_TYPE>  (1) 
2
5
10

$$$$
