34609
     RDKit          3D

  8  8  0  0  0  0  0  0  0  0999 V2000
    2.1881   -0.0087   -1.2753 Cl  0  0  0  0  0  0  0  0  0  0  0  0
   -2.5937   -0.0056   -0.5553 O   0  0  0  0  0  0  0  0  0  0  0  0
   -1.4100    0.0071    0.2355 C   0  0  0  0  0  0  0  0  0  0  0  0
   -0.6027    1.2679   -0.0689 C   0  0  0  0  0  0  0  0  0  0  0  0
   -0.6114   -1.2598   -0.0628 C   0  0  0  0  0  0  0  0  0  0  0  0
    0.7404    1.2668    0.6589 C   0  0  0  0  0  0  0  0  0  0  0  0
    0.7317   -1.2651    0.6650 C   0  0  0  0  0  0  0  0  0  0  0  0
    1.5576   -0.0025    0.4031 C   0  0  0  0  0  0  0  0  0  0  0  0
  1  8  1  0
  2  3  1  0
  3  4  1  0
  3  5  1  0
  4  6  1  0
  5  7  1  0
  6  8  1  0
  7  8  1  0
M  END
>  <PUBCHEM_COMPOUND_CID>  (1) 
34609

>  <PUBCHEM_CONFORMER_RMSD>  (1) 
0.4

>  <PUBCHEM_CONFORMER_DIVERSEORDER>  (1) 
2
6
3
7
5
4
1

>  <PUBCHEM_MMFF94_PARTIAL_CHARGES>  (1) 
5
1 -0.29
19 0.4
2 -0.68
3 0.28
8 0.29

>  <PUBCHEM_EFFECTIVE_ROTOR_COUNT>  (1) 
1.2

>  <PUBCHEM_PHARMACOPHORE_FEATURES>  (1) 
3
1 2 acceptor
1 2 donor
6 3 4 5 6 7 8 rings

>  <PUBCHEM_HEAVY_ATOM_COUNT>  (1) 
8

>  <PUBCHEM_ATOM_DEF_STEREO_COUNT>  (1) 
0

>  <PUBCHEM_ATOM_UDEF_STEREO_COUNT>  (1) 
0

>  <PUBCHEM_BOND_DEF_STEREO_COUNT>  (1) 
0

>  <PUBCHEM_BOND_UDEF_STEREO_COUNT>  (1) 
0

>  <PUBCHEM_ISOTOPIC_ATOM_COUNT>  (1) 
0

>  <PUBCHEM_COMPONENT_COUNT>  (1) 
1

>  <PUBCHEM_CACTVS_TAUTO_COUNT>  (1) 
1

>  <PUBCHEM_CONFORMER_ID>  (1) 
0000873100000002

>  <PUBCHEM_MMFF94_ENERGY>  (1) 
6.8715

>  <PUBCHEM_FEATURE_SELFOVERLAP>  (1) 
15.223

>  <PUBCHEM_SHAPE_FINGERPRINT>  (1) 
12423570 1 13439192010790214328
16714656 1 18338812159873263830
18185500 45 18121210978889804082
20653085 51 16589458442871179806
21040471 1 18334285509103746203
23552423 10 17972602082517638659
24536 1 17560801090602124499
29004967 10 16128655228304092570
5084963 1 17749944458105951211

>  <PUBCHEM_SHAPE_MULTIPOLES>  (1) 
160.64
2.68
1.43
1
0.44
0.01
0.15
-0.01
0.99
0.02
-0.24
-0.44
0
0

>  <PUBCHEM_SHAPE_SELFOVERLAP>  (1) 
300.758

>  <PUBCHEM_SHAPE_VOLUME>  (1) 
101.3

>  <PUBCHEM_COORDINATE_TYPE>  (1) 
2
5
10

$$$$
