34607
     RDKit          3D

 13 13  0  0  0  0  0  0  0  0999 V2000
    2.7260    3.8666   -0.0219 I   0  0  0  0  0  0  0  0  0  0  0  0
    2.7278   -3.8661    0.0348 I   0  0  0  0  0  0  0  0  0  0  0  0
    0.7263   -0.0002   -0.0084 N   0  0  0  0  0  0  0  0  0  0  0  0
    1.4616    1.1556    0.4648 C   0  0  0  0  0  0  0  0  0  0  0  0
    1.4589   -1.1612   -0.4736 C   0  0  0  0  0  0  0  0  0  0  0  0
   -0.6841   -0.0006   -0.0035 C   0  0  0  0  0  0  0  0  0  0  0  0
    1.6835    2.1266   -0.6884 C   0  0  0  0  0  0  0  0  0  0  0  0
    1.6892   -2.1191    0.6888 C   0  0  0  0  0  0  0  0  0  0  0  0
   -1.3800    1.1164    0.4588 C   0  0  0  0  0  0  0  0  0  0  0  0
   -1.3830   -1.1174   -0.4615 C   0  0  0  0  0  0  0  0  0  0  0  0
   -2.7749    1.1167    0.4629 C   0  0  0  0  0  0  0  0  0  0  0  0
   -2.7779   -1.1171   -0.4575 C   0  0  0  0  0  0  0  0  0  0  0  0
   -3.4738   -0.0001    0.0047 C   0  0  0  0  0  0  0  0  0  0  0  0
  1  7  1  0
  2  8  1  0
  3  4  1  0
  3  5  1  0
  3  6  1  0
  4  7  1  0
  5  8  1  0
  6  9  2  0
  6 10  1  0
  9 11  1  0
 10 12  2  0
 11 13  2  0
 12 13  1  0
M  END
>  <PUBCHEM_COMPOUND_CID>  (1) 
34607

>  <PUBCHEM_CONFORMER_RMSD>  (1) 
0.6

>  <PUBCHEM_CONFORMER_DIVERSEORDER>  (1) 
4
29
33
9
34
32
12
21
23
28
30
24
36
16
37
2
10
25
31
17
18
13
19
8
22
35
6
26
14
27
15
20
1
5
7
3
11

>  <PUBCHEM_MMFF94_PARTIAL_CHARGES>  (1) 
18
1 -0.19
10 -0.15
11 -0.15
12 -0.15
13 -0.15
2 -0.19
22 0.15
23 0.15
24 0.15
25 0.15
26 0.15
3 -0.84
4 0.37
5 0.37
6 0.1
7 0.19
8 0.19
9 -0.15

>  <PUBCHEM_EFFECTIVE_ROTOR_COUNT>  (1) 
5

>  <PUBCHEM_PHARMACOPHORE_FEATURES>  (1) 
4
1 1 hydrophobe
1 2 hydrophobe
1 3 cation
6 6 9 10 11 12 13 rings

>  <PUBCHEM_HEAVY_ATOM_COUNT>  (1) 
13

>  <PUBCHEM_ATOM_DEF_STEREO_COUNT>  (1) 
0

>  <PUBCHEM_ATOM_UDEF_STEREO_COUNT>  (1) 
0

>  <PUBCHEM_BOND_DEF_STEREO_COUNT>  (1) 
0

>  <PUBCHEM_BOND_UDEF_STEREO_COUNT>  (1) 
0

>  <PUBCHEM_ISOTOPIC_ATOM_COUNT>  (1) 
0

>  <PUBCHEM_COMPONENT_COUNT>  (1) 
1

>  <PUBCHEM_CACTVS_TAUTO_COUNT>  (1) 
1

>  <PUBCHEM_CONFORMER_ID>  (1) 
0000872F00000004

>  <PUBCHEM_MMFF94_ENERGY>  (1) 
41.4598

>  <PUBCHEM_FEATURE_SELFOVERLAP>  (1) 
20.297

>  <PUBCHEM_SHAPE_FINGERPRINT>  (1) 
11357001 24 17327174347698626498
11833330 49 17686620139510398762
15042514 8 17112414975102869730
16945 1 18409730664275827597
20600515 1 17840871767710187554
20645476 183 17685205475746039028
20671657 1 18411427210527763932
20711985 344 17326884085150074562
21426921 1 17401206669353155910
21524375 3 18126566962333351524
21650355 55 17905035955051433914
2255824 54 18410575110765387038
23402539 116 17838897392920286308
23552423 10 18411418431904689719
23598294 1 17038661367162500226
2748010 2 18050834525361784236
305870 269 18264203789190852468
3071541 12 18411141346321219540
3071541 236 17544184343555651784
3091708 16 9183682403445159304
4175511 71 18194690254357891154
43471831 8 18194680590765890658
57177213 63 18267303312406041621
6992083 37 17839190605946911385
7364860 26 18411982464068413824
81228 2 17471010277079582506
90316 7 17762053242471816282

>  <PUBCHEM_SHAPE_MULTIPOLES>  (1) 
286.42
5.33
5.25
0.82
3.38
0.1
0
-0.08
-0.02
-9.02
-0.01
-0.12
0
-0.59

>  <PUBCHEM_SHAPE_SELFOVERLAP>  (1) 
529.133

>  <PUBCHEM_SHAPE_VOLUME>  (1) 
186.8

>  <PUBCHEM_COORDINATE_TYPE>  (1) 
2
5
10

$$$$
