34617
     RDKit          3D

 24 26  0  0  0  0  0  0  0  0999 V2000
   -2.0791   -2.8858   -0.7575 O   0  0  0  0  0  0  0  0  0  0  0  0
   -3.7018    2.2999   -0.2077 O   0  0  0  0  0  0  0  0  0  0  0  0
    0.4140   -1.3920    2.5761 O   0  0  0  0  0  0  0  0  0  0  0  0
    5.2011    0.5731   -0.9146 O   0  0  0  0  0  0  0  0  0  0  0  0
   -1.1423    2.7755    0.4055 N   0  0  0  0  0  0  0  0  0  0  0  0
   -1.7731   -0.8087    0.0767 C   0  0  0  0  0  0  0  0  0  0  0  0
   -2.1402    0.5368    0.2536 C   0  0  0  0  0  0  0  0  0  0  0  0
   -1.3200    1.4858    1.0705 C   0  0  0  0  0  0  0  0  0  0  0  0
   -0.7032   -1.6356    0.5099 C   0  0  0  0  0  0  0  0  0  0  0  0
   -2.5912   -1.6242   -0.6985 C   0  0  0  0  0  0  0  0  0  0  0  0
   -3.3140    0.9994   -0.3569 C   0  0  0  0  0  0  0  0  0  0  0  0
   -3.7632   -1.1934   -1.3175 C   0  0  0  0  0  0  0  0  0  0  0  0
   -0.9366   -2.8823   -0.0226 C   0  0  0  0  0  0  0  0  0  0  0  0
   -4.1095    0.1477   -1.1275 C   0  0  0  0  0  0  0  0  0  0  0  0
    0.4218   -1.3029    1.3340 C   0  0  0  0  0  0  0  0  0  0  0  0
    1.6976   -0.8032    0.7345 C   0  0  0  0  0  0  0  0  0  0  0  0
   -0.4647    2.5997   -0.8788 C   0  0  0  0  0  0  0  0  0  0  0  0
   -0.3876    3.6921    1.2597 C   0  0  0  0  0  0  0  0  0  0  0  0
    1.7711   -0.6682   -0.6317 C   0  0  0  0  0  0  0  0  0  0  0  0
    2.7432   -0.4992    1.5738 C   0  0  0  0  0  0  0  0  0  0  0  0
    2.9606   -0.2017   -1.1914 C   0  0  0  0  0  0  0  0  0  0  0  0
    3.9324   -0.0326    1.0139 C   0  0  0  0  0  0  0  0  0  0  0  0
    4.0412    0.1161   -0.3687 C   0  0  0  0  0  0  0  0  0  0  0  0
    5.2434    0.7033   -2.3348 C   0  0  0  0  0  0  0  0  0  0  0  0
  1 10  1  0
  1 13  1  0
  2 11  1  0
  3 15  2  0
  4 23  1  0
  4 24  1  0
  5  8  1  0
  5 17  1  0
  5 18  1  0
  6  7  1  0
  6  9  1  0
  6 10  2  0
  7  8  1  0
  7 11  2  0
  9 13  2  0
  9 15  1  0
 10 12  1  0
 11 14  1  0
 12 14  2  0
 15 16  1  0
 16 19  2  0
 16 20  1  0
 19 21  1  0
 20 22  2  0
 21 23  2  0
 22 23  1  0
M  END
>  <PUBCHEM_COMPOUND_CID>  (1) 
34617

>  <PUBCHEM_CONFORMER_RMSD>  (1) 
0.8

>  <PUBCHEM_CONFORMER_DIVERSEORDER>  (1) 
1
6
10
11
12
2
7
9
3
4
5
8

>  <PUBCHEM_MMFF94_PARTIAL_CHARGES>  (1) 
31
1 -0.28
10 0.14
11 0.08
12 -0.15
13 -0.01
14 -0.15
15 0.57
16 0.09
17 0.27
18 0.27
19 -0.15
2 -0.53
20 -0.15
21 -0.15
22 -0.15
23 0.08
24 0.28
27 0.15
28 0.15
29 0.15
3 -0.57
36 0.15
37 0.15
38 0.45
39 0.15
4 -0.36
40 0.15
5 -0.81
7 -0.14
8 0.41
9 -0.09

>  <PUBCHEM_EFFECTIVE_ROTOR_COUNT>  (1) 
5

>  <PUBCHEM_PHARMACOPHORE_FEATURES>  (1) 
8
1 1 acceptor
1 2 donor
1 3 acceptor
1 4 acceptor
1 5 cation
5 1 6 9 10 13 rings
6 16 19 20 21 22 23 rings
6 6 7 10 11 12 14 rings

>  <PUBCHEM_HEAVY_ATOM_COUNT>  (1) 
24

>  <PUBCHEM_ATOM_DEF_STEREO_COUNT>  (1) 
0

>  <PUBCHEM_ATOM_UDEF_STEREO_COUNT>  (1) 
0

>  <PUBCHEM_BOND_DEF_STEREO_COUNT>  (1) 
0

>  <PUBCHEM_BOND_UDEF_STEREO_COUNT>  (1) 
0

>  <PUBCHEM_ISOTOPIC_ATOM_COUNT>  (1) 
0

>  <PUBCHEM_COMPONENT_COUNT>  (1) 
1

>  <PUBCHEM_CACTVS_TAUTO_COUNT>  (1) 
3

>  <PUBCHEM_CONFORMER_ID>  (1) 
0000873900000001

>  <PUBCHEM_MMFF94_ENERGY>  (1) 
82.8589

>  <PUBCHEM_FEATURE_SELFOVERLAP>  (1) 
40.698

>  <PUBCHEM_SHAPE_FINGERPRINT>  (1) 
10498660 4 18341885243423207809
10730089 88 17988375792657541526
10871710 139 18262243218182604357
11640471 11 17967530138615990218
12236239 1 17967522476257450343
12788726 201 18341050713929284641
13009979 54 18044068208272774690
13149001 5 18122605400674387903
13947920 75 18408609158711424836
13994607 96 17822875150381128834
14739800 52 18192131897977099096
14787075 74 17822015362865124323
14790565 3 18055636118954490105
14840074 17 18114758027062664549
14910302 57 17846219917418022958
14955137 171 18342192067882176545
15475509 8 17917715695532079413
1601671 61 18269543971870886193
17492 54 18260540126505640309
17818456 19 18194385720398529810
19765921 60 17748818614186866075
20600515 1 17984956392988741219
20642791 239 18187645868348714429
20715895 44 17033004440136297437
20775438 99 16977830297861521207
20905425 154 17691679408762960269
21756936 100 17749970937212372730
22149856 69 17048782393831664489
23402539 116 18271226275367781590
23419403 2 17248106722857000667
23557571 272 18059563746017526554
23558518 356 17329706523451986129
23559900 14 18130783430933887230
23566358 2 17763154219100139255
394222 165 17386836223611729139
4028521 119 18409730651348740836
465052 167 12390938125248412685
469060 322 15938404660901435930
474 4 17458338628881786074
59755656 520 17313115150333605658
6034566 193 15938125377107172014
633830 44 17749108846829058074
70251023 43 17761220211979871754

>  <PUBCHEM_SHAPE_MULTIPOLES>  (1) 
465.45
8.34
3.27
1.77
8.03
1.96
0.15
0.97
-5.12
-2.87
0.6
1.56
-0.06
-1.1

>  <PUBCHEM_SHAPE_SELFOVERLAP>  (1) 
1021.416

>  <PUBCHEM_SHAPE_VOLUME>  (1) 
255.2

>  <PUBCHEM_COORDINATE_TYPE>  (1) 
2
5
10

$$$$
