34613
     RDKit          3D

 23 25  0  0  0  0  0  0  0  0999 V2000
    1.8572    2.9456   -0.5672 O   0  0  0  0  0  0  0  0  0  0  0  0
    3.5818   -2.2116   -0.0612 O   0  0  0  0  0  0  0  0  0  0  0  0
   -0.8768    1.2663    2.4269 O   0  0  0  0  0  0  0  0  0  0  0  0
    0.9879   -2.7858    0.2550 N   0  0  0  0  0  0  0  0  0  0  0  0
    1.5330    0.8257    0.1433 C   0  0  0  0  0  0  0  0  0  0  0  0
    1.9229   -0.5156    0.3026 C   0  0  0  0  0  0  0  0  0  0  0  0
    1.0529   -1.5226    0.9878 C   0  0  0  0  0  0  0  0  0  0  0  0
    0.3973    1.6021    0.4943 C   0  0  0  0  0  0  0  0  0  0  0  0
    2.4007    1.6974   -0.5065 C   0  0  0  0  0  0  0  0  0  0  0  0
    3.1684   -0.9178   -0.1991 C   0  0  0  0  0  0  0  0  0  0  0  0
    3.6441    1.3272   -1.0156 C   0  0  0  0  0  0  0  0  0  0  0  0
    0.6443    2.8775    0.0415 C   0  0  0  0  0  0  0  0  0  0  0  0
    4.0119   -0.0108   -0.8459 C   0  0  0  0  0  0  0  0  0  0  0  0
   -0.7962    1.2020    1.1806 C   0  0  0  0  0  0  0  0  0  0  0  0
   -2.0183    0.6849    0.4700 C   0  0  0  0  0  0  0  0  0  0  0  0
    0.4436   -2.5722   -1.0858 C   0  0  0  0  0  0  0  0  0  0  0  0
    0.1780   -3.7603    0.9856 C   0  0  0  0  0  0  0  0  0  0  0  0
   -1.9820    0.5951   -0.8965 C   0  0  0  0  0  0  0  0  0  0  0  0
   -3.1043    0.3305    1.2265 C   0  0  0  0  0  0  0  0  0  0  0  0
   -4.2419   -0.2563   -0.8226 C   0  0  0  0  0  0  0  0  0  0  0  0
   -3.1145    0.1158   -1.5549 C   0  0  0  0  0  0  0  0  0  0  0  0
   -4.2369   -0.1490    0.5681 C   0  0  0  0  0  0  0  0  0  0  0  0
   -5.4530   -0.7681   -1.5268 C   0  0  0  0  0  0  0  0  0  0  0  0
  1  9  1  0
  1 12  1  0
  2 10  1  0
  3 14  2  0
  4  7  1  0
  4 16  1  0
  4 17  1  0
  5  6  1  0
  5  8  1  0
  5  9  2  0
  6  7  1  0
  6 10  2  0
  8 12  2  0
  8 14  1  0
  9 11  1  0
 10 13  1  0
 11 13  2  0
 14 15  1  0
 15 18  2  0
 15 19  1  0
 18 21  1  0
 19 22  2  0
 20 21  2  0
 20 22  1  0
 20 23  1  0
M  END
>  <PUBCHEM_COMPOUND_CID>  (1) 
34613

>  <PUBCHEM_CONFORMER_RMSD>  (1) 
0.6

>  <PUBCHEM_CONFORMER_DIVERSEORDER>  (1) 
3
18
5
12
11
14
15
17
8
4
6
2
13
7
9
1
10
16

>  <PUBCHEM_MMFF94_PARTIAL_CHARGES>  (1) 
30
1 -0.28
10 0.08
11 -0.15
12 -0.01
13 -0.15
14 0.57
15 0.09
16 0.27
17 0.27
18 -0.15
19 -0.15
2 -0.53
20 -0.14
21 -0.15
22 -0.15
23 0.14
26 0.15
27 0.15
28 0.15
3 -0.57
35 0.15
36 0.15
37 0.45
38 0.15
39 0.15
4 -0.81
6 -0.14
7 0.41
8 -0.09
9 0.14

>  <PUBCHEM_EFFECTIVE_ROTOR_COUNT>  (1) 
4

>  <PUBCHEM_PHARMACOPHORE_FEATURES>  (1) 
7
1 1 acceptor
1 2 donor
1 3 acceptor
1 4 cation
5 1 5 8 9 12 rings
6 15 18 19 20 21 22 rings
6 5 6 9 10 11 13 rings

>  <PUBCHEM_HEAVY_ATOM_COUNT>  (1) 
23

>  <PUBCHEM_ATOM_DEF_STEREO_COUNT>  (1) 
0

>  <PUBCHEM_ATOM_UDEF_STEREO_COUNT>  (1) 
0

>  <PUBCHEM_BOND_DEF_STEREO_COUNT>  (1) 
0

>  <PUBCHEM_BOND_UDEF_STEREO_COUNT>  (1) 
0

>  <PUBCHEM_ISOTOPIC_ATOM_COUNT>  (1) 
0

>  <PUBCHEM_COMPONENT_COUNT>  (1) 
1

>  <PUBCHEM_CACTVS_TAUTO_COUNT>  (1) 
3

>  <PUBCHEM_CONFORMER_ID>  (1) 
0000873500000003

>  <PUBCHEM_MMFF94_ENERGY>  (1) 
71.6096

>  <PUBCHEM_FEATURE_SELFOVERLAP>  (1) 
35.622

>  <PUBCHEM_SHAPE_FINGERPRINT>  (1) 
12156800 1 9421315840010128759
12236239 1 17917717906680932277
12553582 1 18265056829645597315
12596599 1 17700430091038061862
13009979 54 17772471188101811866
13083527 12 17899676991528662098
13149001 5 18123487213221056548
13911987 19 18115043977711243820
14787075 74 17703218637574037216
14844126 61 16098251206166354954
16752209 62 17346593042090577829
17138139 8 17698421549978123279
17492 54 18335145318902047382
20600515 1 15841545280545280081
20645477 70 18334008411168201953
21634736 98 18200591530943391678
23559900 14 15864069849855318928
23566358 2 17908164400945523188
238 59 18261102006853923063
2838139 119 15215012884819434484
3060560 45 18261385697775490716
3323516 105 18260267486192228745
4280585 95 17619348706466927846
4340502 62 18126273383991055673
4409770 3 15894158354553463985
46194498 28 17894627093594034389
484989 97 18119534481757234883
59682541 52 18121183591064825103
8272917 22 18411144606612925253

>  <PUBCHEM_SHAPE_MULTIPOLES>  (1) 
450.74
7.89
3.35
1.5
6.97
2.07
0.26
0.58
-3.66
-2.63
0.46
1.11
-0.07
-0.8

>  <PUBCHEM_SHAPE_SELFOVERLAP>  (1) 
990.601

>  <PUBCHEM_SHAPE_VOLUME>  (1) 
247.3

>  <PUBCHEM_COORDINATE_TYPE>  (1) 
2
5
10

$$$$
