34621
     RDKit          3D

 26 28  0  0  0  0  0  0  0  0999 V2000
   -2.7632   -2.7639   -0.2630 O   0  0  0  0  0  0  0  0  0  0  0  0
   -3.7668    2.6039   -0.3418 O   0  0  0  0  0  0  0  0  0  0  0  0
    0.3237   -1.1161    2.4417 O   0  0  0  0  0  0  0  0  0  0  0  0
    2.2450    0.5316    2.0477 O   0  0  0  0  0  0  0  0  0  0  0  0
    4.7027   -0.3018   -1.9480 O   0  0  0  0  0  0  0  0  0  0  0  0
   -0.3711    2.1414   -0.2917 N   0  0  0  0  0  0  0  0  0  0  0  0
   -2.1349   -0.6404    0.1835 C   0  0  0  0  0  0  0  0  0  0  0  0
   -2.3372    0.7509    0.1896 C   0  0  0  0  0  0  0  0  0  0  0  0
   -1.3171    1.7022    0.7328 C   0  0  0  0  0  0  0  0  0  0  0  0
   -1.1007   -1.5187    0.6017 C   0  0  0  0  0  0  0  0  0  0  0  0
   -3.1338   -1.4547   -0.3403 C   0  0  0  0  0  0  0  0  0  0  0  0
   -3.5357    1.2584   -0.3307 C   0  0  0  0  0  0  0  0  0  0  0  0
   -4.3348   -0.9798   -0.8640 C   0  0  0  0  0  0  0  0  0  0  0  0
   -1.5313   -2.7919    0.3090 C   0  0  0  0  0  0  0  0  0  0  0  0
    0.1596   -1.2084    1.2107 C   0  0  0  0  0  0  0  0  0  0  0  0
   -4.5152    0.4064   -0.8471 C   0  0  0  0  0  0  0  0  0  0  0  0
    1.3778   -0.9572    0.3803 C   0  0  0  0  0  0  0  0  0  0  0  0
    0.6068    3.0676    0.2784 C   0  0  0  0  0  0  0  0  0  0  0  0
   -1.0793    2.7690   -1.4070 C   0  0  0  0  0  0  0  0  0  0  0  0
    2.3490   -0.1022    0.8458 C   0  0  0  0  0  0  0  0  0  0  0  0
    1.4709   -1.6028   -0.8316 C   0  0  0  0  0  0  0  0  0  0  0  0
    3.4771    0.1203    0.0561 C   0  0  0  0  0  0  0  0  0  0  0  0
    2.5988   -1.3802   -1.6214 C   0  0  0  0  0  0  0  0  0  0  0  0
    3.6020   -0.5187   -1.1775 C   0  0  0  0  0  0  0  0  0  0  0  0
    3.3179    1.3940    2.4202 C   0  0  0  0  0  0  0  0  0  0  0  0
    5.6899    0.5909   -1.4336 C   0  0  0  0  0  0  0  0  0  0  0  0
  1 11  1  0
  1 14  1  0
  2 12  1  0
  3 15  2  0
  4 20  1  0
  4 25  1  0
  5 24  1  0
  5 26  1  0
  6  9  1  0
  6 18  1  0
  6 19  1  0
  7  8  1  0
  7 10  1  0
  7 11  2  0
  8  9  1  0
  8 12  2  0
 10 14  2  0
 10 15  1  0
 11 13  1  0
 12 16  1  0
 13 16  2  0
 15 17  1  0
 17 20  2  0
 17 21  1  0
 20 22  1  0
 21 23  2  0
 22 24  2  0
 23 24  1  0
M  END
>  <PUBCHEM_COMPOUND_CID>  (1) 
34621

>  <PUBCHEM_CONFORMER_RMSD>  (1) 
0.8

>  <PUBCHEM_CONFORMER_DIVERSEORDER>  (1) 
28
18
34
3
16
32
22
26
33
20
30
10
36
31
23
35
19
15
24
17
27
29
12
21
5
25
6
7
14
37
13
4
11
2
8
9
1

>  <PUBCHEM_MMFF94_PARTIAL_CHARGES>  (1) 
32
1 -0.28
10 -0.09
11 0.14
12 0.08
13 -0.15
14 -0.01
15 0.57
16 -0.15
17 0.09
18 0.27
19 0.27
2 -0.53
20 0.08
21 -0.15
22 -0.15
23 -0.15
24 0.08
25 0.28
26 0.28
29 0.15
3 -0.57
30 0.15
31 0.15
38 0.15
39 0.45
4 -0.36
40 0.15
41 0.15
5 -0.36
6 -0.81
8 -0.14
9 0.41

>  <PUBCHEM_EFFECTIVE_ROTOR_COUNT>  (1) 
6

>  <PUBCHEM_PHARMACOPHORE_FEATURES>  (1) 
9
1 1 acceptor
1 2 donor
1 3 acceptor
1 4 acceptor
1 5 acceptor
1 6 cation
5 1 7 10 11 14 rings
6 17 20 21 22 23 24 rings
6 7 8 11 12 13 16 rings

>  <PUBCHEM_HEAVY_ATOM_COUNT>  (1) 
26

>  <PUBCHEM_ATOM_DEF_STEREO_COUNT>  (1) 
0

>  <PUBCHEM_ATOM_UDEF_STEREO_COUNT>  (1) 
0

>  <PUBCHEM_BOND_DEF_STEREO_COUNT>  (1) 
0

>  <PUBCHEM_BOND_UDEF_STEREO_COUNT>  (1) 
0

>  <PUBCHEM_ISOTOPIC_ATOM_COUNT>  (1) 
0

>  <PUBCHEM_COMPONENT_COUNT>  (1) 
1

>  <PUBCHEM_CACTVS_TAUTO_COUNT>  (1) 
3

>  <PUBCHEM_CONFORMER_ID>  (1) 
0000873D0000001C

>  <PUBCHEM_MMFF94_ENERGY>  (1) 
101.0179

>  <PUBCHEM_FEATURE_SELFOVERLAP>  (1) 
45.788

>  <PUBCHEM_SHAPE_FINGERPRINT>  (1) 
10366900 7 18059858337697752062
10498660 4 18335700490543276845
10730089 88 18200890477873676702
10871710 139 18115032900816825861
11640471 11 17022910042481437982
12236239 1 17385437730594222058
12553582 1 18335136505719248637
12788726 201 18114461163028280165
13140716 1 18046334512675853547
13402501 40 18273209820573009736
13994607 96 17314821596231399007
14251745 187 18341338829362680580
14739800 52 18042675278028855936
14790565 3 17907589034184529393
14955137 171 18195270870329706209
15219462 58 16126970944152989707
15324884 4 18057323009955823042
17357779 13 18201441414840253758
17492 54 18186796968320694429
200 152 16128665132456940382
20600515 1 18264186158144225080
20691752 17 17096913871005966573
20715895 44 16667648842423819013
20871999 31 18411705365705608605
20905425 154 17542781358065105163
21756936 100 17386021575906105090
22182313 1 18058445568335534786
23557571 272 18270394018043043850
23559900 14 18272367619961488712
238 59 17202466828126649055
2838139 119 17969802950243528012
3052486 1 18187071867354458120
3797600 57 16879379777553842185
4028521 119 18334864882938358551
469060 322 17242484752442388905
57527306 92 16305762258882352573
6287921 2 17771905210201260328
6823239 73 18271523190957714912
7808743 9 18261116235748434469
9709674 26 18200303446238865473
9925002 15 16473156732585764758
9981440 41 18114473318212794626

>  <PUBCHEM_SHAPE_MULTIPOLES>  (1) 
500.74
8.75
3.07
1.82
4.03
1.14
0.64
0.52
-4.27
-2.18
-0.19
2.29
0.15
1.04

>  <PUBCHEM_SHAPE_SELFOVERLAP>  (1) 
1095.964

>  <PUBCHEM_SHAPE_VOLUME>  (1) 
275.4

>  <PUBCHEM_COORDINATE_TYPE>  (1) 
2
5
10

$$$$
