34627
     RDKit          3D

 11 11  0  0  0  0  0  0  0  0999 V2000
   -3.1048    1.3134    0.6203 O   0  0  0  0  0  0  0  0  0  0  0  0
   -0.4589   -0.0086    0.2381 C   0  0  0  0  0  0  0  0  0  0  0  0
    0.4286   -1.2206    0.5644 C   0  0  0  0  0  0  0  0  0  0  0  0
    0.2410    0.9335   -0.7560 C   0  0  0  0  0  0  0  0  0  0  0  0
    1.8085   -0.7940    1.0706 C   0  0  0  0  0  0  0  0  0  0  0  0
    1.6196    1.3671   -0.2521 C   0  0  0  0  0  0  0  0  0  0  0  0
    2.4558    0.1687    0.1106 C   0  0  0  0  0  0  0  0  0  0  0  0
   -1.7858   -0.4576   -0.2916 C   0  0  0  0  0  0  0  0  0  0  0  0
   -2.9969   -0.1004    0.5227 C   0  0  0  0  0  0  0  0  0  0  0  0
    3.6786   -0.0367   -0.3996 C   0  0  0  0  0  0  0  0  0  0  0  0
   -1.8859   -1.1648   -1.4273 C   0  0  0  0  0  0  0  0  0  0  0  0
  1  9  1  0
  2  3  1  0
  2  4  1  0
  2  8  1  0
  3  5  1  0
  4  6  1  0
  5  7  1  0
  6  7  1  0
  7 10  2  0
  8  9  1  0
  8 11  2  0
M  END
>  <PUBCHEM_COMPOUND_CID>  (1) 
34627

>  <PUBCHEM_CONFORMER_RMSD>  (1) 
0.6

>  <PUBCHEM_CONFORMER_DIVERSEORDER>  (1) 
1
35
8
33
22
23
15
21
19
12
2
24
18
38
34
20
9
25
29
36
10
11
13
30
6
32
3
26
28
4
17
31
37
7
16
27
5
14

>  <PUBCHEM_MMFF94_PARTIAL_CHARGES>  (1) 
14
1 -0.68
10 -0.3
11 -0.3
2 0.14
23 0.15
24 0.15
25 0.15
26 0.15
27 0.4
5 0.14
6 0.14
7 -0.28
8 -0.28
9 0.42

>  <PUBCHEM_EFFECTIVE_ROTOR_COUNT>  (1) 
3

>  <PUBCHEM_PHARMACOPHORE_FEATURES>  (1) 
4
1 1 acceptor
1 1 donor
1 11 hydrophobe
6 2 3 4 5 6 7 rings

>  <PUBCHEM_HEAVY_ATOM_COUNT>  (1) 
11

>  <PUBCHEM_ATOM_DEF_STEREO_COUNT>  (1) 
0

>  <PUBCHEM_ATOM_UDEF_STEREO_COUNT>  (1) 
0

>  <PUBCHEM_BOND_DEF_STEREO_COUNT>  (1) 
0

>  <PUBCHEM_BOND_UDEF_STEREO_COUNT>  (1) 
0

>  <PUBCHEM_ISOTOPIC_ATOM_COUNT>  (1) 
0

>  <PUBCHEM_COMPONENT_COUNT>  (1) 
1

>  <PUBCHEM_CACTVS_TAUTO_COUNT>  (1) 
1

>  <PUBCHEM_CONFORMER_ID>  (1) 
0000874300000001

>  <PUBCHEM_MMFF94_ENERGY>  (1) 
13.3375

>  <PUBCHEM_FEATURE_SELFOVERLAP>  (1) 
20.297

>  <PUBCHEM_SHAPE_FINGERPRINT>  (1) 
10219947 1 17313107461993524484
10857977 72 14851605500946062511
11062470 55 13902194772261168426
12138202 97 16343980304148626373
124424 183 15410897336232051910
12500047 106 17274819138530618694
12716758 59 17275101747494902183
12932764 1 18336816550532299076
14325111 11 18334580182509741088
14993402 34 18342451535040312845
15310529 11 14996272630905516898
15775835 57 18413112740600003641
16945 1 17895181234257904624
17844478 74 16370727015236505533
18186145 218 17894914066149670596
18511873 20 18273219681316696528
19026448 4 16988841713681586266
19422 9 18410296938439192006
21061003 4 17022625277448937589
23235685 24 17894349999103786440
23402539 116 16702300123066187129
2748010 2 17608093388289955434
29004967 10 17240759579600538448
5084963 1 17096365210176617423
528886 8 18260264157239101162
63268167 104 18187354433020545280
9939556 21 18130789013800327156

>  <PUBCHEM_SHAPE_MULTIPOLES>  (1) 
220.51
5.13
1.32
1.07
0.31
0.15
-0.2
0.44
0.16
-0.08
0.03
-0.4
-0.21
-0.69

>  <PUBCHEM_SHAPE_SELFOVERLAP>  (1) 
434.17

>  <PUBCHEM_SHAPE_VOLUME>  (1) 
131.4

>  <PUBCHEM_COORDINATE_TYPE>  (1) 
2
5
10

$$$$
