34629
     RDKit          3D

  9  9  0  0  1  0  0  0  0  0999 V2000
   -1.5375    1.8081   -0.0335 O   0  0  0  0  0  0  0  0  0  0  0  0
    2.8381    0.3797   -0.0821 O   0  0  0  0  0  0  0  0  0  0  0  0
    0.6356    1.0565   -0.0534 N   0  0  0  0  0  0  0  0  0  0  0  0
   -1.1814   -0.5548    0.3423 C   0  0  0  0  0  0  0  0  0  0  0  0
   -0.2232   -1.5447   -0.3138 C   0  0  0  0  0  0  0  0  0  0  0  0
    1.1814   -1.3213    0.2196 C   0  0  0  0  0  0  0  0  0  0  0  0
   -0.7419    0.8727    0.0497 C   0  0  0  0  0  0  0  0  0  0  0  0
   -2.6138   -0.7947   -0.1265 C   0  0  0  0  0  0  0  0  0  0  0  0
    1.6426    0.0985   -0.0023 C   0  0  0  0  0  0  0  0  0  0  0  0
  1  7  2  0
  2  9  2  0
  3  7  1  0
  3  9  1  0
  4  5  1  0
  4  7  1  0
  4  8  1  0
  5  6  1  0
  6  9  1  0
M  END
>  <PUBCHEM_COMPOUND_CID>  (1) 
34629

>  <PUBCHEM_CONFORMER_RMSD>  (1) 
0.4

>  <PUBCHEM_CONFORMER_DIVERSEORDER>  (1) 
1
2

>  <PUBCHEM_MMFF94_PARTIAL_CHARGES>  (1) 
8
1 -0.57
18 0.37
2 -0.57
3 -0.49
4 0.06
6 0.06
7 0.57
9 0.57

>  <PUBCHEM_EFFECTIVE_ROTOR_COUNT>  (1) 
0.8

>  <PUBCHEM_PHARMACOPHORE_FEATURES>  (1) 
4
1 1 acceptor
1 2 acceptor
1 3 donor
6 3 4 5 6 7 9 rings

>  <PUBCHEM_HEAVY_ATOM_COUNT>  (1) 
9

>  <PUBCHEM_ATOM_DEF_STEREO_COUNT>  (1) 
0

>  <PUBCHEM_ATOM_UDEF_STEREO_COUNT>  (1) 
1

>  <PUBCHEM_BOND_DEF_STEREO_COUNT>  (1) 
0

>  <PUBCHEM_BOND_UDEF_STEREO_COUNT>  (1) 
0

>  <PUBCHEM_ISOTOPIC_ATOM_COUNT>  (1) 
0

>  <PUBCHEM_COMPONENT_COUNT>  (1) 
1

>  <PUBCHEM_CACTVS_TAUTO_COUNT>  (1) 
3

>  <PUBCHEM_CONFORMER_ID>  (1) 
0000874500000001

>  <PUBCHEM_MMFF94_ENERGY>  (1) 
12.9186

>  <PUBCHEM_FEATURE_SELFOVERLAP>  (1) 
20.297

>  <PUBCHEM_SHAPE_FINGERPRINT>  (1) 
12897270 3 18411135857120945735
16714656 1 18340491169931959974
16945 1 18409730702698606626
18185500 45 18195525028496671391
21040471 1 18122624959517512936
23402655 69 18268411474952592221
23552423 10 18189058603219428298
2748010 2 18267023860205836318
29004967 10 18261680379876746395
5084963 1 18202288013029183594

>  <PUBCHEM_SHAPE_MULTIPOLES>  (1) 
168.5
3.11
1.69
0.62
0.43
0.17
0.01
-0.01
-0.09
-0.4
-0.05
-0.04
-0.07
-0.06

>  <PUBCHEM_SHAPE_SELFOVERLAP>  (1) 
337.226

>  <PUBCHEM_SHAPE_VOLUME>  (1) 
98.7

>  <PUBCHEM_COORDINATE_TYPE>  (1) 
2
5
10

$$$$
