34639
     RDKit          3D

 27 30  0  0  0  0  0  0  0  0999 V2000
    2.4106    4.7652    1.6235 Cl  0  0  0  0  0  0  0  0  0  0  0  0
    3.0173   -0.1596   -2.2371 S   0  0  0  0  0  0  0  0  0  0  0  0
   -7.5877    1.4302   -1.3790 O   0  0  0  0  0  0  0  0  0  0  0  0
   -0.2423    0.6983    1.8212 O   0  0  0  0  0  0  0  0  0  0  0  0
   -2.0430   -0.9136    0.9303 N   0  0  0  0  0  0  0  0  0  0  0  0
   -4.6410   -0.4796   -0.2618 N   0  0  0  0  0  0  0  0  0  0  0  0
    1.4612   -0.2026    0.4606 N   0  0  0  0  0  0  0  0  0  0  0  0
   -2.2385    0.0830   -0.1297 C   0  0  0  0  0  0  0  0  0  0  0  0
   -3.0097   -2.0093    0.7885 C   0  0  0  0  0  0  0  0  0  0  0  0
   -3.6751    0.6167   -0.1196 C   0  0  0  0  0  0  0  0  0  0  0  0
   -4.4460   -1.4747    0.7996 C   0  0  0  0  0  0  0  0  0  0  0  0
   -0.6737   -1.4244    0.9167 C   0  0  0  0  0  0  0  0  0  0  0  0
   -6.0106    0.0304   -0.2501 C   0  0  0  0  0  0  0  0  0  0  0  0
    0.2242   -0.2223    1.1434 C   0  0  0  0  0  0  0  0  0  0  0  0
   -6.2422    0.9732   -1.4200 C   0  0  0  0  0  0  0  0  0  0  0  0
    2.0887    1.0509    0.0976 C   0  0  0  0  0  0  0  0  0  0  0  0
    2.1901   -1.3970    0.1081 C   0  0  0  0  0  0  0  0  0  0  0  0
    2.8340    1.1856   -1.0893 C   0  0  0  0  0  0  0  0  0  0  0  0
    2.9412   -1.4965   -1.0741 C   0  0  0  0  0  0  0  0  0  0  0  0
    1.9780    2.1843    0.9250 C   0  0  0  0  0  0  0  0  0  0  0  0
    2.2201   -2.4887    0.9964 C   0  0  0  0  0  0  0  0  0  0  0  0
    3.4166    2.4157   -1.4363 C   0  0  0  0  0  0  0  0  0  0  0  0
    3.6370   -2.6769   -1.3802 C   0  0  0  0  0  0  0  0  0  0  0  0
    2.5665    3.4044    0.5787 C   0  0  0  0  0  0  0  0  0  0  0  0
    2.9208   -3.6582    0.6929 C   0  0  0  0  0  0  0  0  0  0  0  0
    3.2819    3.5219   -0.6043 C   0  0  0  0  0  0  0  0  0  0  0  0
    3.6217   -3.7560   -0.5011 C   0  0  0  0  0  0  0  0  0  0  0  0
  1 24  1  0
  2 18  1  0
  2 19  1  0
  3 15  1  0
  4 14  2  0
  5  8  1  0
  5  9  1  0
  5 12  1  0
  6 10  1  0
  6 11  1  0
  6 13  1  0
  7 14  1  0
  7 16  1  0
  7 17  1  0
  8 10  1  0
  9 11  1  0
 12 14  1  0
 13 15  1  0
 16 18  2  0
 16 20  1  0
 17 19  2  0
 17 21  1  0
 18 22  1  0
 19 23  1  0
 20 24  2  0
 21 25  2  0
 22 26  2  0
 23 27  2  0
 24 26  1  0
 25 27  1  0
M  END
>  <PUBCHEM_COMPOUND_CID>  (1) 
34639

>  <PUBCHEM_CONFORMER_RMSD>  (1) 
0.8

>  <PUBCHEM_CONFORMER_DIVERSEORDER>  (1) 
1
52
80
5
11
69
72
19
48
17
74
59
58
41
57
78
9
38
75
47
25
15
26
44
65
79
43
46
30
36
40
66
31
60
29
3
21
32
45
63
8
71
49
4
37
14
22
42
77
76
61
20
35
12
50
56
23
2
64
34
7
73
6
28
68
55
53
67
33
54
24
27
62
10
39
70
18
16
51
13

>  <PUBCHEM_MMFF94_PARTIAL_CHARGES>  (1) 
35
1 -0.18
10 0.27
11 0.27
12 0.33
13 0.27
14 0.57
15 0.28
16 0.12
17 0.12
18 0.1
19 0.1
2 -0.2
20 -0.15
21 -0.15
22 -0.15
23 -0.15
24 0.18
25 -0.15
26 -0.15
27 -0.15
3 -0.68
4 -0.57
42 0.15
43 0.15
44 0.4
45 0.15
46 0.15
47 0.15
48 0.15
49 0.15
5 -0.81
6 -0.81
7 -0.29
8 0.27
9 0.27

>  <PUBCHEM_EFFECTIVE_ROTOR_COUNT>  (1) 
6.6

>  <PUBCHEM_PHARMACOPHORE_FEATURES>  (1) 
9
1 3 acceptor
1 3 donor
1 4 acceptor
1 5 cation
1 6 cation
6 16 18 20 22 24 26 rings
6 17 19 21 23 25 27 rings
6 2 7 16 17 18 19 rings
6 5 6 8 9 10 11 rings

>  <PUBCHEM_HEAVY_ATOM_COUNT>  (1) 
27

>  <PUBCHEM_ATOM_DEF_STEREO_COUNT>  (1) 
0

>  <PUBCHEM_ATOM_UDEF_STEREO_COUNT>  (1) 
0

>  <PUBCHEM_BOND_DEF_STEREO_COUNT>  (1) 
0

>  <PUBCHEM_BOND_UDEF_STEREO_COUNT>  (1) 
0

>  <PUBCHEM_ISOTOPIC_ATOM_COUNT>  (1) 
0

>  <PUBCHEM_COMPONENT_COUNT>  (1) 
1

>  <PUBCHEM_CACTVS_TAUTO_COUNT>  (1) 
1

>  <PUBCHEM_CONFORMER_ID>  (1) 
0000874F00000001

>  <PUBCHEM_MMFF94_ENERGY>  (1) 
100.3521

>  <PUBCHEM_FEATURE_SELFOVERLAP>  (1) 
45.712

>  <PUBCHEM_SHAPE_FINGERPRINT>  (1) 
10378564 45 18335136441421015335
10675989 125 18200883996679090672
10721379 63 18413673508599152040
11115154 58 18122632656025145305
11720765 8 18340761529707375472
12730499 353 18265065806317396923
12769317 202 18269281329672011240
12788726 201 17691427217216106562
13004483 165 18049152268862726778
13533116 47 18411138031134026909
13540713 4 18114472248934606619
13617811 41 17682686478134304031
13955234 65 18340491157004919091
14068700 686 17976263757529597131
14251740 57 10663821905863347093
14950920 106 10809611590250398431
16988056 13 18409442557780532580
20600515 1 17900519208950644242
20775438 99 18266434651497795831
21304303 172 17980761541702358874
21304303 282 17123079065487563812
21968339 14 18342453776850211156
221357 26 18189896418479455943
22393880 68 18268158732331268830
23559900 14 18411131416562995155
238 59 17985008113343556714
24941158 1 18265590191695924108
376196 1 18119240920530823328
4066623 53 18262790753662086829
44317340 157 18411981378259404647
44802255 64 17468787503272686476
495365 180 18337107977053645184
508180 173 17973158431665735777
59521099 67 18199455598167733433
60123966 16 18337379479448630421
7399639 24 17905054999052540683
7471813 234 18268157457306165478
960060 61 17703792544052041245
9658208 31 17168154433874314635

>  <PUBCHEM_SHAPE_MULTIPOLES>  (1) 
534.68
12.17
5.19
1.7
31.45
2.36
0.37
2.14
6.27
-9.44
-1.49
-0.58
0.48
2

>  <PUBCHEM_SHAPE_SELFOVERLAP>  (1) 
1126.325

>  <PUBCHEM_SHAPE_VOLUME>  (1) 
301.2

>  <PUBCHEM_COORDINATE_TYPE>  (1) 
2
5
10

$$$$
