34637
     RDKit          3D

 26 29  0  0  0  0  0  0  0  0999 V2000
    3.1313    0.4425   -2.0978 S   0  0  0  0  0  0  0  0  0  0  0  0
   -7.5532    1.3721   -1.2564 O   0  0  0  0  0  0  0  0  0  0  0  0
   -0.2198    0.6417    1.9717 O   0  0  0  0  0  0  0  0  0  0  0  0
   -1.9210   -0.9428    0.8625 N   0  0  0  0  0  0  0  0  0  0  0  0
   -4.5232   -0.5036   -0.3183 N   0  0  0  0  0  0  0  0  0  0  0  0
    1.5461   -0.0018    0.5462 N   0  0  0  0  0  0  0  0  0  0  0  0
   -2.1559    0.1619   -0.0755 C   0  0  0  0  0  0  0  0  0  0  0  0
   -2.8261   -2.0619    0.5738 C   0  0  0  0  0  0  0  0  0  0  0  0
   -3.6189    0.6161   -0.0291 C   0  0  0  0  0  0  0  0  0  0  0  0
   -4.2888   -1.6069    0.6212 C   0  0  0  0  0  0  0  0  0  0  0  0
   -0.5263   -1.3773    0.8141 C   0  0  0  0  0  0  0  0  0  0  0  0
   -5.9181   -0.0695   -0.2720 C   0  0  0  0  0  0  0  0  0  0  0  0
    0.3034   -0.1662    1.1985 C   0  0  0  0  0  0  0  0  0  0  0  0
   -6.1848    0.9929   -1.3261 C   0  0  0  0  0  0  0  0  0  0  0  0
    2.3419   -1.1066    0.0682 C   0  0  0  0  0  0  0  0  0  0  0  0
    2.1104    1.3166    0.3461 C   0  0  0  0  0  0  0  0  0  0  0  0
    3.1120   -1.0257   -1.1030 C   0  0  0  0  0  0  0  0  0  0  0  0
    2.8623    1.6301   -0.8024 C   0  0  0  0  0  0  0  0  0  0  0  0
    2.4188   -2.2935    0.8215 C   0  0  0  0  0  0  0  0  0  0  0  0
    1.9293    2.3360    1.2996 C   0  0  0  0  0  0  0  0  0  0  0  0
    3.8733   -2.1238   -1.5339 C   0  0  0  0  0  0  0  0  0  0  0  0
    3.3830    2.9210   -0.9902 C   0  0  0  0  0  0  0  0  0  0  0  0
    3.1845   -3.3808    0.3947 C   0  0  0  0  0  0  0  0  0  0  0  0
    2.4562    3.6173    1.1114 C   0  0  0  0  0  0  0  0  0  0  0  0
    3.9045   -3.2993   -0.7892 C   0  0  0  0  0  0  0  0  0  0  0  0
    3.1791    3.9116   -0.0357 C   0  0  0  0  0  0  0  0  0  0  0  0
  1 17  1  0
  1 18  1  0
  2 14  1  0
  3 13  2  0
  4  7  1  0
  4  8  1  0
  4 11  1  0
  5  9  1  0
  5 10  1  0
  5 12  1  0
  6 13  1  0
  6 15  1  0
  6 16  1  0
  7  9  1  0
  8 10  1  0
 11 13  1  0
 12 14  1  0
 15 17  2  0
 15 19  1  0
 16 18  2  0
 16 20  1  0
 17 21  1  0
 18 22  1  0
 19 23  2  0
 20 24  2  0
 21 25  2  0
 22 26  2  0
 23 25  1  0
 24 26  1  0
M  END
>  <PUBCHEM_COMPOUND_CID>  (1) 
34637

>  <PUBCHEM_CONFORMER_RMSD>  (1) 
0.8

>  <PUBCHEM_CONFORMER_DIVERSEORDER>  (1) 
1
27
23
25
34
26
21
6
22
35
13
4
9
29
20
18
36
11
31
17
2
28
15
30
3
10
24
7
5
32
37
33
16
14
12
19
8

>  <PUBCHEM_MMFF94_PARTIAL_CHARGES>  (1) 
35
1 -0.2
10 0.27
11 0.33
12 0.27
13 0.57
14 0.28
15 0.12
16 0.12
17 0.1
18 0.1
19 -0.15
2 -0.68
20 -0.15
21 -0.15
22 -0.15
23 -0.15
24 -0.15
25 -0.15
26 -0.15
3 -0.57
4 -0.81
41 0.15
42 0.15
43 0.4
44 0.15
45 0.15
46 0.15
47 0.15
48 0.15
49 0.15
5 -0.81
6 -0.29
7 0.27
8 0.27
9 0.27

>  <PUBCHEM_EFFECTIVE_ROTOR_COUNT>  (1) 
6.6

>  <PUBCHEM_PHARMACOPHORE_FEATURES>  (1) 
9
1 2 acceptor
1 2 donor
1 3 acceptor
1 4 cation
1 5 cation
6 1 6 15 16 17 18 rings
6 15 17 19 21 23 25 rings
6 16 18 20 22 24 26 rings
6 4 5 7 8 9 10 rings

>  <PUBCHEM_HEAVY_ATOM_COUNT>  (1) 
26

>  <PUBCHEM_ATOM_DEF_STEREO_COUNT>  (1) 
0

>  <PUBCHEM_ATOM_UDEF_STEREO_COUNT>  (1) 
0

>  <PUBCHEM_BOND_DEF_STEREO_COUNT>  (1) 
0

>  <PUBCHEM_BOND_UDEF_STEREO_COUNT>  (1) 
0

>  <PUBCHEM_ISOTOPIC_ATOM_COUNT>  (1) 
0

>  <PUBCHEM_COMPONENT_COUNT>  (1) 
1

>  <PUBCHEM_CACTVS_TAUTO_COUNT>  (1) 
1

>  <PUBCHEM_CONFORMER_ID>  (1) 
0000874D00000001

>  <PUBCHEM_MMFF94_ENERGY>  (1) 
99.5543

>  <PUBCHEM_FEATURE_SELFOVERLAP>  (1) 
45.712

>  <PUBCHEM_SHAPE_FINGERPRINT>  (1) 
10378564 45 18337106774795124981
10498660 4 18261674886983125593
10721379 63 18412547613113818824
11115154 58 18196099832670593000
11720765 8 18339637833282259936
12553582 1 18051722982877526898
12730499 353 18194133021185445187
12769317 202 18198347449434259840
13004483 165 18050559656689171722
13533116 47 18413108368808482533
13617811 41 17683810187555052287
14068700 686 17976545241017121043
14251740 57 10519990391718924581
15163728 17 17826527839952537972
15183329 4 18265616485971337343
15950262 2 15432883321624073782
16988056 13 18334856104273736332
20369508 70 18411418384549604402
20775438 99 18267280184413484607
21304303 172 18054509098033886786
21304303 282 16908874409266678764
21756936 100 8356811142487328058
21968339 14 18129935792703924072
221357 26 18263924345896768269
22393880 68 18197508521877507638
23559900 14 18411695474496652971
238 59 18125744489307746810
24941158 1 18265872770600640116
3004659 81 18131630045943977471
3117164 225 8717456531101818047
376196 1 18047181136096757528
4066623 53 18262791857294647573
44317340 157 18412262861773334863
44802255 64 17469629742101543852
46194498 28 18411135814498236407
495365 180 18339920532118882824
57527585 21 12114902428029189554
59682541 52 18272641351850221293
60123966 16 18410844456881074333
633830 44 18260535737329015051
7471813 234 18270408179114564958
960060 61 17561084743707801621
9658208 31 17385732404675288779
9862260 156 17532366474562967978

>  <PUBCHEM_SHAPE_MULTIPOLES>  (1) 
512.24
12.46
4.38
1.58
29.9
1.41
0.26
1.51
6.53
-7.61
-0.45
-0.57
0.3
1.79

>  <PUBCHEM_SHAPE_SELFOVERLAP>  (1) 
1087.33

>  <PUBCHEM_SHAPE_VOLUME>  (1) 
285.4

>  <PUBCHEM_COORDINATE_TYPE>  (1) 
2
5
10

$$$$
