34647
     RDKit          3D

 17 17  0  0  0  0  0  0  0  0999 V2000
    2.8697   -2.7718    0.0591 O   0  0  0  0  0  0  0  0  0  0  0  0
   -1.5346   -1.2583   -0.0247 N   0  0  0  0  0  0  0  0  0  0  0  0
    2.0164    1.8039   -0.1135 N   0  0  0  0  0  0  0  0  0  0  0  0
    0.2202    0.2968   -0.0699 N   0  0  0  0  0  0  0  0  0  0  0  0
    0.6692   -2.0587    0.0195 N   0  0  0  0  0  0  0  0  0  0  0  0
    2.4860   -0.4919   -0.0263 N   0  0  0  0  0  0  0  0  0  0  0  0
   -3.9465   -0.8222   -0.0223 C   0  0  0  0  0  0  0  0  0  0  0  0
   -2.5475   -0.2104   -0.0702 C   0  0  0  0  0  0  0  0  0  0  0  0
   -5.0248    0.2617   -0.0473 C   0  0  0  0  0  0  0  0  0  0  0  0
    1.1376    2.9303   -0.1619 C   0  0  0  0  0  0  0  0  0  0  0  0
    1.8911    4.1311   -0.7183 C   0  0  0  0  0  0  0  0  0  0  0  0
    0.5956    3.2130    1.2332 C   0  0  0  0  0  0  0  0  0  0  0  0
   -6.4209   -0.3405   -0.0356 C   0  0  0  0  0  0  0  0  0  0  0  0
   -0.1811   -1.0003   -0.0249 C   0  0  0  0  0  0  0  0  0  0  0  0
    1.5516    0.4715   -0.0678 C   0  0  0  0  0  0  0  0  0  0  0  0
    1.9715   -1.7314    0.0157 C   0  0  0  0  0  0  0  0  0  0  0  0
    4.2466   -2.4230    0.0551 C   0  0  0  0  0  0  0  0  0  0  0  0
  1 16  1  0
  1 17  1  0
  2  8  1  0
  2 14  1  0
  3 10  1  0
  3 15  1  0
  4 14  2  0
  4 15  1  0
  5 14  1  0
  5 16  2  0
  6 15  2  0
  6 16  1  0
  7  8  1  0
  7  9  1  0
  9 13  1  0
 10 11  1  0
 10 12  1  0
M  END
>  <PUBCHEM_COMPOUND_CID>  (1) 
34647

>  <PUBCHEM_CONFORMER_RMSD>  (1) 
0.8

>  <PUBCHEM_CONFORMER_DIVERSEORDER>  (1) 
1
71
62
101
20
27
92
83
7
98
123
55
90
91
28
45
57
81
52
97
128
78
64
85
46
103
77
122
41
33
109
126
6
134
76
42
34
61
51
107
130
4
82
108
19
133
120
73
38
35
37
100
119
84
11
39
102
67
113
58
112
104
79
110
13
115
96
106
117
124
47
43
86
94
65
18
89
69
99
87
2
127
24
54
95
29
59
60
70
36
135
74
23
9
114
105
118
5
121
3
80
31
131
44
53
50
30
26
111
68
32
88
10
75
49
25
16
63
8
15
40
132
125
72
21
12
48
56
93
14
129
22
66
116
17

>  <PUBCHEM_MMFF94_PARTIAL_CHARGES>  (1) 
14
1 -0.36
10 0.37
14 0.72
15 0.72
16 0.7
17 0.28
2 -0.87
25 0.4
26 0.4
3 -0.87
4 -0.62
5 -0.62
6 -0.62
8 0.37

>  <PUBCHEM_EFFECTIVE_ROTOR_COUNT>  (1) 
7

>  <PUBCHEM_PHARMACOPHORE_FEATURES>  (1) 
7
1 13 hydrophobe
1 2 donor
1 3 donor
3 10 11 12 hydrophobe
4 2 4 5 14 cation
4 3 4 6 15 cation
6 4 5 6 14 15 16 rings

>  <PUBCHEM_HEAVY_ATOM_COUNT>  (1) 
17

>  <PUBCHEM_ATOM_DEF_STEREO_COUNT>  (1) 
0

>  <PUBCHEM_ATOM_UDEF_STEREO_COUNT>  (1) 
0

>  <PUBCHEM_BOND_DEF_STEREO_COUNT>  (1) 
0

>  <PUBCHEM_BOND_UDEF_STEREO_COUNT>  (1) 
0

>  <PUBCHEM_ISOTOPIC_ATOM_COUNT>  (1) 
0

>  <PUBCHEM_COMPONENT_COUNT>  (1) 
1

>  <PUBCHEM_CACTVS_TAUTO_COUNT>  (1) 
9

>  <PUBCHEM_CONFORMER_ID>  (1) 
0000875700000001

>  <PUBCHEM_MMFF94_ENERGY>  (1) 
39.7534

>  <PUBCHEM_FEATURE_SELFOVERLAP>  (1) 
35.562

>  <PUBCHEM_SHAPE_FINGERPRINT>  (1) 
10411042 1 18265895752934171454
10756046 70 18059565927618631943
11265709 11 18339643317792116106
12173636 292 17329989612624243548
12507560 14 18343300327757421743
12730499 353 18193004935635887003
13052359 8 17327731800104074940
13134695 92 18409726235985425143
13294875 104 17986106542307713312
13590594 115 18265061228083011777
138480 1 18410293601234122949
13878862 14 18264183917194852221
13955234 65 18338237175785521955
14178000 15 18412545375198473904
15042514 8 17834393419514125034
17134986 127 18048885387630655740
18785283 64 18189333635597326532
20671657 1 18339645645680033023
21041028 32 18269270175478309301
21065198 57 18408605881725620507
21160774 45 17616251377815853196
21478907 32 17905607705218940074
21524375 3 17695352859852408444
221490 88 18335990864930095275
22289505 5 18409163282043004669
2255824 54 18412545448308110431
23559900 14 18409444804549451867
283562 15 18047194042848248890
3071541 12 18337955713461669126
3091708 16 9357871442074809616
474 4 18265894842675080065
53777708 50 18199181974802592655
54173680 148 17689715255836447742
68521 5 18122065295636235254
7164475 11 17976266729657535142
7364860 26 18411699932366270054
7471813 234 18131340891771372289
77188 2 18337953368625861868
81228 2 17978522931585481602
84936 182 18055914539865892609
9971528 1 18343012268474429491
9981440 41 17762049239477894409

>  <PUBCHEM_SHAPE_MULTIPOLES>  (1) 
319.08
9.21
4.42
0.72
19.49
4.47
-0.1
-4.22
0.35
-6.93
0.04
-0.11
0.47
-0.34

>  <PUBCHEM_SHAPE_SELFOVERLAP>  (1) 
624.987

>  <PUBCHEM_SHAPE_VOLUME>  (1) 
188.9

>  <PUBCHEM_COORDINATE_TYPE>  (1) 
2
5
10

$$$$
