34643
     RDKit          3D

 14 14  0  0  0  0  0  0  0  0999 V2000
    5.1497    1.0613    0.1528 Cl  0  0  0  0  0  0  0  0  0  0  0  0
   -0.6918   -2.1544   -0.3437 O   0  0  0  0  0  0  0  0  0  0  0  0
   -5.1299   -0.0510    0.0364 O   0  0  0  0  0  0  0  0  0  0  0  0
   -3.8147    1.7905    0.3261 O   0  0  0  0  0  0  0  0  0  0  0  0
    0.9100   -0.4589   -0.0894 C   0  0  0  0  0  0  0  0  0  0  0  0
    1.2066    0.8463   -0.4826 C   0  0  0  0  0  0  0  0  0  0  0  0
    1.9248   -1.2939    0.3783 C   0  0  0  0  0  0  0  0  0  0  0  0
   -0.4569   -0.9491   -0.1671 C   0  0  0  0  0  0  0  0  0  0  0  0
    2.5178    1.3162   -0.4084 C   0  0  0  0  0  0  0  0  0  0  0  0
    3.2360   -0.8238    0.4528 C   0  0  0  0  0  0  0  0  0  0  0  0
    3.5325    0.4812    0.0594 C   0  0  0  0  0  0  0  0  0  0  0  0
   -1.5846    0.0290    0.0024 C   0  0  0  0  0  0  0  0  0  0  0  0
   -2.8557   -0.3875   -0.0469 C   0  0  0  0  0  0  0  0  0  0  0  0
   -3.9438    0.5940    0.1298 C   0  0  0  0  0  0  0  0  0  0  0  0
  1 11  1  0
  2  8  2  0
  3 14  1  0
  4 14  2  0
  5  6  2  0
  5  7  1  0
  5  8  1  0
  6  9  1  0
  7 10  2  0
  8 12  1  0
  9 11  2  0
 10 11  1  0
 12 13  2  0
 13 14  1  0
M  END
>  <PUBCHEM_COMPOUND_CID>  (1) 
34643

>  <PUBCHEM_CONFORMER_RMSD>  (1) 
0.6

>  <PUBCHEM_CONFORMER_DIVERSEORDER>  (1) 
1
4
5
7
6
2
3

>  <PUBCHEM_MMFF94_PARTIAL_CHARGES>  (1) 
21
1 -0.18
10 -0.15
11 0.18
12 -0.14
13 -0.14
14 0.71
15 0.15
16 0.15
17 0.15
18 0.15
19 0.15
2 -0.57
20 0.15
21 0.5
3 -0.65
4 -0.57
5 0.09
6 -0.15
7 -0.15
8 0.47
9 -0.15

>  <PUBCHEM_EFFECTIVE_ROTOR_COUNT>  (1) 
3

>  <PUBCHEM_PHARMACOPHORE_FEATURES>  (1) 
5
1 2 acceptor
1 3 acceptor
1 4 acceptor
3 3 4 14 anion
6 5 6 7 9 10 11 rings

>  <PUBCHEM_HEAVY_ATOM_COUNT>  (1) 
14

>  <PUBCHEM_ATOM_DEF_STEREO_COUNT>  (1) 
0

>  <PUBCHEM_ATOM_UDEF_STEREO_COUNT>  (1) 
0

>  <PUBCHEM_BOND_DEF_STEREO_COUNT>  (1) 
0

>  <PUBCHEM_BOND_UDEF_STEREO_COUNT>  (1) 
1

>  <PUBCHEM_ISOTOPIC_ATOM_COUNT>  (1) 
0

>  <PUBCHEM_COMPONENT_COUNT>  (1) 
1

>  <PUBCHEM_CACTVS_TAUTO_COUNT>  (1) 
1

>  <PUBCHEM_CONFORMER_ID>  (1) 
0000875300000001

>  <PUBCHEM_MMFF94_ENERGY>  (1) 
35.9635

>  <PUBCHEM_FEATURE_SELFOVERLAP>  (1) 
25.427

>  <PUBCHEM_SHAPE_FINGERPRINT>  (1) 
10354089 29 18260553328807866016
10465860 228 18198913495974361067
10980938 120 18260264127443446098
11471102 20 18334855009135468990
12251169 10 18186803599417837791
12500047 106 18059007397561019358
12916748 109 18343027696149697009
14252887 29 13118278153566158088
14325111 11 18410575080705832207
14897335 6 18412262860903104542
15188451 53 15647629968490090769
15196674 1 18338234864840200873
15775835 57 18411139151313291444
18186145 218 18411139091378993327
20233049 118 18202562882473014744
20279233 1 16081370748036885187
20645477 56 18272372022339292722
20645477 70 18271810064756023398
212847 35 18272367551315423640
21524375 3 18411419518557925791
22485316 2 8574424318707186603
23402539 116 18060132167390180069
23402655 69 18272649030507980125
293599 30 18410577327432793916
3545911 37 18411140250830258947
366044 4 18412544327311077031
4047638 21 18342741827616556402
5104073 3 18335420153505988530
6430166 295 18410292518991697356
7832392 63 18339639061695556748
83771 10 9295288335385816467

>  <PUBCHEM_SHAPE_MULTIPOLES>  (1) 
272.38
9.62
1.62
0.67
4.04
0.21
0
-4.02
1.12
-0.07
-0.02
-0.14
-0.01
-0.43

>  <PUBCHEM_SHAPE_SELFOVERLAP>  (1) 
560.795

>  <PUBCHEM_SHAPE_VOLUME>  (1) 
156.7

>  <PUBCHEM_COORDINATE_TYPE>  (1) 
2
5
10

$$$$
