3464
     RDKit          3D

 15 14  0  0  1  0  0  0  0  0999 V2000
    0.1383   -1.2860   -0.4193 S   0  0  0  0  0  0  0  0  0  0  0  0
    1.5147    1.9672    0.5241 O   0  0  0  0  0  0  0  0  0  0  0  0
    4.9436   -0.0374   -0.6110 O   0  0  0  0  0  0  0  0  0  0  0  0
    1.7417    1.2437   -1.6106 O   0  0  0  0  0  0  0  0  0  0  0  0
    4.3139   -0.2891    1.5570 O   0  0  0  0  0  0  0  0  0  0  0  0
   -3.4971    0.3008    0.3847 N   0  0  0  0  0  0  0  0  0  0  0  0
   -5.7281    0.8812    0.6093 N   0  0  0  0  0  0  0  0  0  0  0  0
   -5.2655   -1.0052   -0.5833 N   0  0  0  0  0  0  0  0  0  0  0  0
    1.6113   -0.3953    0.1995 C   0  0  0  0  0  0  0  0  0  0  0  0
    2.8776   -1.1592   -0.1814 C   0  0  0  0  0  0  0  0  0  0  0  0
   -1.1195   -0.1535    0.2092 C   0  0  0  0  0  0  0  0  0  0  0  0
   -2.5126   -0.6395   -0.1583 C   0  0  0  0  0  0  0  0  0  0  0  0
    1.6196    0.9928   -0.4186 C   0  0  0  0  0  0  0  0  0  0  0  0
    4.1052   -0.4677    0.3637 C   0  0  0  0  0  0  0  0  0  0  0  0
   -4.7431    0.0471    0.1352 C   0  0  0  0  0  0  0  0  0  0  0  0
  1  9  1  0
  1 11  1  0
  2 13  1  0
  3 14  1  0
  4 13  2  0
  5 14  2  0
  6 12  1  0
  6 15  2  3
  7 15  1  0
  8 15  1  0
  9 10  1  0
  9 13  1  0
 10 14  1  0
 11 12  1  0
M  END
>  <PUBCHEM_COMPOUND_CID>  (1) 
3464

>  <PUBCHEM_CONFORMER_RMSD>  (1) 
0.8

>  <PUBCHEM_CONFORMER_DIVERSEORDER>  (1) 
1
25
10
142
22
152
15
161
94
87
102
149
70
124
128
8
145
98
16
86
82
162
11
134
119
99
103
83
122
71
156
5
155
106
89
26
107
150
110
12
4
112
3
9
116
117
18
140
56
85
66
118
6
57
132
115
39
27
42
138
50
159
109
35
100
34
130
123
52
45
33
46
74
72
120
104
91
23
157
36
151
153
24
31
68
148
92
37
21
105
54
88
48
63
13
77
69
93
90
143
20
154
139
136
7
14
38
51
81
44
30
2
111
131
113
29
78
60
158
40
97
76
73
135
144
127
61
84
165
32
96
163
19
47
129
80
79
62
67
28
17
64
164
141
166
49
65
133
126
146
58
59
95
43
108
53
41
121
137
114
101
160
55
147
75
125

>  <PUBCHEM_MMFF94_PARTIAL_CHARGES>  (1) 
21
1 -0.46
10 0.06
11 0.23
12 0.25
13 0.66
14 0.66
15 0.55
2 -0.65
23 0.5
24 0.5
25 0.4
26 0.4
27 0.4
28 0.4
3 -0.65
4 -0.57
5 -0.57
6 -0.7
7 -0.85
8 -0.85
9 0.29

>  <PUBCHEM_EFFECTIVE_ROTOR_COUNT>  (1) 
7

>  <PUBCHEM_PHARMACOPHORE_FEATURES>  (1) 
10
1 2 acceptor
1 3 acceptor
1 4 acceptor
1 5 acceptor
1 7 donor
1 8 donor
3 2 4 13 anion
3 3 5 14 anion
4 1 9 10 11 hydrophobe
4 6 7 8 15 cation

>  <PUBCHEM_HEAVY_ATOM_COUNT>  (1) 
15

>  <PUBCHEM_ATOM_DEF_STEREO_COUNT>  (1) 
0

>  <PUBCHEM_ATOM_UDEF_STEREO_COUNT>  (1) 
1

>  <PUBCHEM_BOND_DEF_STEREO_COUNT>  (1) 
0

>  <PUBCHEM_BOND_UDEF_STEREO_COUNT>  (1) 
0

>  <PUBCHEM_ISOTOPIC_ATOM_COUNT>  (1) 
0

>  <PUBCHEM_COMPONENT_COUNT>  (1) 
1

>  <PUBCHEM_CACTVS_TAUTO_COUNT>  (1) 
2

>  <PUBCHEM_CONFORMER_ID>  (1) 
00000D8800000001

>  <PUBCHEM_MMFF94_ENERGY>  (1) 
32.3082

>  <PUBCHEM_FEATURE_SELFOVERLAP>  (1) 
50.919

>  <PUBCHEM_SHAPE_FINGERPRINT>  (1) 
10354089 29 18410296895732183699
11287383 113 15339115771126143935
12815109 37 18343301457164677664
13922767 16 18411981372935789115
14123238 8 18409728460899816339
14251718 22 12324247165539598267
15048467 5 18272368707347389344
15375358 24 14045741534601052575
17802600 8 18409445882411981229
17834072 33 18411701027598819959
17834076 25 18131069333789615602
18186145 218 17821725057514422947
18342897 14 18409450284415654570
18522853 276 18343865494029817433
19050596 39 18411422821820208579
20279233 1 14333413371799288887
212847 35 18335708247391532205
21618674 57 17530966865185631129
23402539 116 16917060053959608925
23557571 272 15913337844719671649
23558518 356 17826795042515826530
42 15 18409448085529458155
42788 4 17489867129124134091
57426455 114 17821446880439729690
9971528 1 18342460305242400286

>  <PUBCHEM_SHAPE_MULTIPOLES>  (1) 
274.12
11.85
1.36
0.98
11.76
0.32
0.05
-0.17
-1.64
-0.28
0.13
-0.79
0.16
-0.63

>  <PUBCHEM_SHAPE_SELFOVERLAP>  (1) 
516.572

>  <PUBCHEM_SHAPE_VOLUME>  (1) 
170.2

>  <PUBCHEM_COORDINATE_TYPE>  (1) 
2
5
10

$$$$
