34651
     RDKit          3D

 17 18  0  0  1  0  0  0  0  0999 V2000
   -1.2765   -2.1605   -0.3236 O   0  0  0  0  0  0  0  0  0  0  0  0
   -3.2149   -0.1075    0.2498 N   0  0  0  0  0  0  0  0  0  0  0  0
    4.6823    0.0775   -0.3015 C   0  0  0  0  0  0  0  0  0  0  0  0
    5.3491    1.1063    0.5567 C   0  0  0  0  0  0  0  0  0  0  0  0
    5.0963    1.3874   -0.8955 C   0  0  0  0  0  0  0  0  0  0  0  0
    3.2323   -0.2057   -0.1057 C   0  0  0  0  0  0  0  0  0  0  0  0
    2.7558   -0.5639    1.1553 C   0  0  0  0  0  0  0  0  0  0  0  0
    2.3517   -0.1125   -1.1835 C   0  0  0  0  0  0  0  0  0  0  0  0
    0.5388   -0.7318    0.2579 C   0  0  0  0  0  0  0  0  0  0  0  0
   -0.9335   -1.0168    0.4579 C   0  0  0  0  0  0  0  0  0  0  0  0
    1.3986   -0.8290    1.3385 C   0  0  0  0  0  0  0  0  0  0  0  0
    0.9945   -0.3775   -1.0002 C   0  0  0  0  0  0  0  0  0  0  0  0
   -1.7982    0.1828    0.0516 C   0  0  0  0  0  0  0  0  0  0  0  0
   -4.0416    1.0116   -0.1518 C   0  0  0  0  0  0  0  0  0  0  0  0
   -5.5252    0.6618    0.0145 C   0  0  0  0  0  0  0  0  0  0  0  0
   -3.6684    2.2225    0.6973 C   0  0  0  0  0  0  0  0  0  0  0  0
   -5.9412   -0.5446   -0.8176 C   0  0  0  0  0  0  0  0  0  0  0  0
  1 10  1  0
  2 13  1  0
  2 14  1  0
  3  4  1  0
  3  5  1  0
  3  6  1  0
  4  5  1  0
  6  7  2  0
  6  8  1  0
  7 11  1  0
  8 12  2  0
  9 10  1  0
  9 11  2  0
  9 12  1  0
 10 13  1  0
 14 15  1  0
 14 16  1  0
 15 17  1  0
M  END
>  <PUBCHEM_COMPOUND_CID>  (1) 
34651

>  <PUBCHEM_CONFORMER_RMSD>  (1) 
0.8

>  <PUBCHEM_CONFORMER_DIVERSEORDER>  (1) 
1
47
57
32
24
17
40
3
52
16
12
33
35
49
15
55
11
53
39
51
28
34
9
13
37
27
56
18
42
10
21
19
43
14
26
7
29
44
38
25
46
50
36
48
4
8
41
23
5
30
2
45
20
22
31
54
6

>  <PUBCHEM_MMFF94_PARTIAL_CHARGES>  (1) 
25
1 -0.68
10 0.42
11 -0.15
12 -0.15
13 0.27
14 0.27
18 0.1
19 0.1
2 -0.9
20 0.1
21 0.1
22 0.1
23 0.15
24 0.15
26 0.15
27 0.15
3 -0.07
31 0.36
4 -0.2
40 0.4
5 -0.2
6 -0.03
7 -0.15
8 -0.15
9 -0.14

>  <PUBCHEM_EFFECTIVE_ROTOR_COUNT>  (1) 
6.6

>  <PUBCHEM_PHARMACOPHORE_FEATURES>  (1) 
6
1 1 acceptor
1 1 donor
1 17 hydrophobe
1 2 cation
1 2 donor
6 6 7 8 9 11 12 rings

>  <PUBCHEM_HEAVY_ATOM_COUNT>  (1) 
17

>  <PUBCHEM_ATOM_DEF_STEREO_COUNT>  (1) 
0

>  <PUBCHEM_ATOM_UDEF_STEREO_COUNT>  (1) 
2

>  <PUBCHEM_BOND_DEF_STEREO_COUNT>  (1) 
0

>  <PUBCHEM_BOND_UDEF_STEREO_COUNT>  (1) 
0

>  <PUBCHEM_ISOTOPIC_ATOM_COUNT>  (1) 
0

>  <PUBCHEM_COMPONENT_COUNT>  (1) 
1

>  <PUBCHEM_CACTVS_TAUTO_COUNT>  (1) 
1

>  <PUBCHEM_CONFORMER_ID>  (1) 
0000875B00000001

>  <PUBCHEM_MMFF94_ENERGY>  (1) 
32.3351

>  <PUBCHEM_FEATURE_SELFOVERLAP>  (1) 
30.448

>  <PUBCHEM_SHAPE_FINGERPRINT>  (1) 
10354089 29 17240486900848666776
10498660 4 18199188386851194353
11089746 13 18334573555813033732
12236239 1 18113614586514152731
12507557 5 17313110761172220045
12507560 40 16660915578489546294
12596602 18 17458627830351577817
12616999 72 16630528393092106254
12633257 1 14635161143523226320
12670546 56 17676483891663137457
12730499 353 17203611501277708358
12916748 109 18412270519029980505
13675066 3 16660363666997584454
1420 369 9727633903834712824
14251718 22 18131349726344780005
14251752 14 11743850136050046611
14251764 18 18259981566430723498
14252887 29 15430315798442620634
14350574 20 15841549695692466935
14576447 43 13038907711976316324
14739800 52 18340750620991935784
14911166 2 15339120152214150030
15048467 5 18260267482250871188
15209294 21 17967813868735237864
18186145 218 15123494892357180387
19141452 34 11602827904074010961
19784866 140 14189580714903434535
19784866 240 11959737087504569688
200 152 12679464183400974230
20281389 69 18113897165566665812
20374829 77 8646766690567668985
20645477 56 18412548729546826534
20645477 70 16415211026961925782
20871999 31 18059850722663116647
21150785 3 15339117983414083672
21637258 2 9943528462467685812
221357 26 15841549644068606985
22950370 63 10015575112712451361
23035841 295 11024110944887770877
23402539 116 18342171189534629535
23402655 69 16630248004689302209
23503953 91 15647342978200169850
23557571 272 18201163268278814846
23559900 14 18130794426229662726
26918003 58 13912326776512176589
2767999 5 18186799188344292517
2916195 48 18342173371140918201
300161 21 17603579729933762219
33382 64 8502389827657559836
3472631 163 18335707199604096212
34797466 226 17346323742818825692
351380 3 11672063029977332493
4047638 21 18408608050361916238
4325135 7 18202280325591618501
4340502 62 16443350862252956201
465052 167 10519983785769092328
474 4 17749397004853716724
5207 217 18409445917061714071
542803 24 17846781789039123497
59682541 35 18336554910748439443

>  <PUBCHEM_SHAPE_MULTIPOLES>  (1) 
339
13.47
1.58
1.11
6.78
0.31
-0.03
5.85
1.72
0.73
-0.17
-0.58
-0.06
-0.88

>  <PUBCHEM_SHAPE_SELFOVERLAP>  (1) 
688.043

>  <PUBCHEM_SHAPE_VOLUME>  (1) 
199.8

>  <PUBCHEM_COORDINATE_TYPE>  (1) 
2
5
10

$$$$
