34669
     RDKit          3D

 10  9  0  0  0  0  0  0  0  0999 V2000
   -1.6274   -0.1003   -0.0687 P   0  0  0  0  0  0  0  0  0  0  0  0
    1.5602   -0.1348    0.0665 P   0  0  0  0  0  0  0  0  0  0  0  0
   -1.6345   -1.6681   -0.4655 O   0  0  0  0  0  0  0  0  0  0  0  0
   -1.5835   -0.1132    1.5478 O   0  0  0  0  0  0  0  0  0  0  0  0
    1.6429   -1.6120   -0.5864 O   0  0  0  0  0  0  0  0  0  0  0  0
    2.6775    0.6921   -0.7598 O   0  0  0  0  0  0  0  0  0  0  0  0
   -2.7540    0.6968   -0.6579 O   0  0  0  0  0  0  0  0  0  0  0  0
    1.7065   -0.0997    1.5590 O   0  0  0  0  0  0  0  0  0  0  0  0
    0.0144    1.8547   -0.0709 N   0  0  0  0  0  0  0  0  0  0  0  0
   -0.0021    0.4846   -0.5640 C   0  0  0  0  0  0  0  0  0  0  0  0
  1  3  1  0
  1  4  1  0
  1  7  2  0
  1 10  1  0
  2  5  1  0
  2  6  1  0
  2  8  2  0
  2 10  1  0
  9 10  1  0
M  END
>  <PUBCHEM_COMPOUND_CID>  (1) 
34669

>  <PUBCHEM_CONFORMER_RMSD>  (1) 
0.4

>  <PUBCHEM_CONFORMER_DIVERSEORDER>  (1) 
1

>  <PUBCHEM_MMFF94_PARTIAL_CHARGES>  (1) 
16
1 1.24
10 0.27
12 0.36
13 0.36
14 0.5
15 0.5
16 0.5
17 0.5
2 1.24
3 -0.77
4 -0.77
5 -0.77
6 -0.77
7 -0.7
8 -0.7
9 -0.99

>  <PUBCHEM_EFFECTIVE_ROTOR_COUNT>  (1) 
2

>  <PUBCHEM_PHARMACOPHORE_FEATURES>  (1) 
10
1 3 acceptor
1 4 acceptor
1 5 acceptor
1 6 acceptor
1 7 acceptor
1 8 acceptor
1 9 cation
1 9 donor
4 1 3 4 7 anion
4 2 5 6 8 anion

>  <PUBCHEM_HEAVY_ATOM_COUNT>  (1) 
10

>  <PUBCHEM_ATOM_DEF_STEREO_COUNT>  (1) 
0

>  <PUBCHEM_ATOM_UDEF_STEREO_COUNT>  (1) 
0

>  <PUBCHEM_BOND_DEF_STEREO_COUNT>  (1) 
0

>  <PUBCHEM_BOND_UDEF_STEREO_COUNT>  (1) 
0

>  <PUBCHEM_ISOTOPIC_ATOM_COUNT>  (1) 
0

>  <PUBCHEM_COMPONENT_COUNT>  (1) 
1

>  <PUBCHEM_CACTVS_TAUTO_COUNT>  (1) 
1

>  <PUBCHEM_CONFORMER_ID>  (1) 
0000876D00000001

>  <PUBCHEM_MMFF94_ENERGY>  (1) 
-52.4856

>  <PUBCHEM_FEATURE_SELFOVERLAP>  (1) 
50.82

>  <PUBCHEM_SHAPE_FINGERPRINT>  (1) 
12897270 3 18411145735899161164
12932741 1 17418088862178127772
15310529 11 17167859764235609533
18185500 45 18341051916519737783
21040471 1 18341041926515276701
23552333 60 17676481701398816440
23552423 10 18261392183123360014
24536 1 18263354790157109868
29004967 10 18262532458385787144
5084963 1 17843960351643914255

>  <PUBCHEM_SHAPE_MULTIPOLES>  (1) 
173.3
3.45
1.45
1.15
0.1
0.1
0.53
0.03
-0.36
0.02
-0.32
-0.09
0.09
0.01

>  <PUBCHEM_SHAPE_SELFOVERLAP>  (1) 
298.884

>  <PUBCHEM_SHAPE_VOLUME>  (1) 
115.2

>  <PUBCHEM_COORDINATE_TYPE>  (1) 
2
5
10

$$$$
