34661
     RDKit          3D

 10 10  0  0  0  0  0  0  0  0999 V2000
   -3.1551    0.0000   -0.7493 O   0  0  0  0  0  0  0  0  0  0  0  0
    1.7277    2.3868   -0.1227 O   0  0  0  0  0  0  0  0  0  0  0  0
    1.7278   -2.3867   -0.1230 O   0  0  0  0  0  0  0  0  0  0  0  0
   -1.0146    0.0000    0.2874 C   0  0  0  0  0  0  0  0  0  0  0  0
   -0.3248   -1.2081    0.1843 C   0  0  0  0  0  0  0  0  0  0  0  0
   -0.3250    1.2080    0.1840 C   0  0  0  0  0  0  0  0  0  0  0  0
   -2.4896   -0.0001    0.5078 C   0  0  0  0  0  0  0  0  0  0  0  0
    1.0546    1.2081   -0.0221 C   0  0  0  0  0  0  0  0  0  0  0  0
    1.0548   -1.2080   -0.0218 C   0  0  0  0  0  0  0  0  0  0  0  0
    1.7444    0.0000   -0.1249 C   0  0  0  0  0  0  0  0  0  0  0  0
  1  7  1  0
  2  8  1  0
  3  9  1  0
  4  5  2  0
  4  6  1  0
  4  7  1  0
  5  9  1  0
  6  8  2  0
  8 10  1  0
  9 10  2  0
M  END
>  <PUBCHEM_COMPOUND_CID>  (1) 
34661

>  <PUBCHEM_CONFORMER_RMSD>  (1) 
0.4

>  <PUBCHEM_CONFORMER_DIVERSEORDER>  (1) 
1
2

>  <PUBCHEM_MMFF94_PARTIAL_CHARGES>  (1) 
16
1 -0.68
10 -0.15
11 0.15
12 0.15
15 0.15
16 0.4
17 0.45
18 0.45
2 -0.53
3 -0.53
4 -0.14
5 -0.15
6 -0.15
7 0.42
8 0.08
9 0.08

>  <PUBCHEM_EFFECTIVE_ROTOR_COUNT>  (1) 
1

>  <PUBCHEM_PHARMACOPHORE_FEATURES>  (1) 
5
1 1 acceptor
1 1 donor
1 2 donor
1 3 donor
6 4 5 6 8 9 10 rings

>  <PUBCHEM_HEAVY_ATOM_COUNT>  (1) 
10

>  <PUBCHEM_ATOM_DEF_STEREO_COUNT>  (1) 
0

>  <PUBCHEM_ATOM_UDEF_STEREO_COUNT>  (1) 
0

>  <PUBCHEM_BOND_DEF_STEREO_COUNT>  (1) 
0

>  <PUBCHEM_BOND_UDEF_STEREO_COUNT>  (1) 
0

>  <PUBCHEM_ISOTOPIC_ATOM_COUNT>  (1) 
0

>  <PUBCHEM_COMPONENT_COUNT>  (1) 
1

>  <PUBCHEM_CACTVS_TAUTO_COUNT>  (1) 
5

>  <PUBCHEM_CONFORMER_ID>  (1) 
0000876500000001

>  <PUBCHEM_MMFF94_ENERGY>  (1) 
22.8988

>  <PUBCHEM_FEATURE_SELFOVERLAP>  (1) 
25.373

>  <PUBCHEM_SHAPE_FINGERPRINT>  (1) 
1 1 18337954613728456380
12423570 1 9294443807091457606
14128692 85 18129380414819588759
16945 1 18410581681748669938
18185500 45 18122915221912908779
21040471 1 17978795940944339768
23552423 10 18412268332881077331
241688 4 17905894677848033992
2748010 2 18049736401103390332
29004967 10 18336271154126034499

>  <PUBCHEM_SHAPE_MULTIPOLES>  (1) 
188.19
3.22
2.12
0.68
2.53
0
0.01
0
0.43
-1.78
0.05
0.23
0
0

>  <PUBCHEM_SHAPE_SELFOVERLAP>  (1) 
391.559

>  <PUBCHEM_SHAPE_VOLUME>  (1) 
107.7

>  <PUBCHEM_COORDINATE_TYPE>  (1) 
2
5
10

$$$$
