34660
     RDKit          3D

 18 19  0  0  0  0  0  0  0  0999 V2000
   -0.1446    0.0908   -0.1825 N   0  0  0  0  0  0  0  0  0  0  0  0
    2.5537    2.6424   -0.1580 N   0  0  0  0  0  0  0  0  0  0  0  0
    0.7413    1.0924   -0.7263 C   0  0  0  0  0  0  0  0  0  0  0  0
    1.6298    1.6450    0.3808 C   0  0  0  0  0  0  0  0  0  0  0  0
    0.4148   -1.2138   -0.0174 C   0  0  0  0  0  0  0  0  0  0  0  0
   -1.5384    0.3945   -0.0780 C   0  0  0  0  0  0  0  0  0  0  0  0
    3.3813    2.0560   -1.2116 C   0  0  0  0  0  0  0  0  0  0  0  0
    3.3938    3.1891    0.9071 C   0  0  0  0  0  0  0  0  0  0  0  0
    0.5467   -2.0404   -1.1216 C   0  0  0  0  0  0  0  0  0  0  0  0
   -2.4697   -0.5716   -0.4204 C   0  0  0  0  0  0  0  0  0  0  0  0
    0.8153   -1.6263    1.2434 C   0  0  0  0  0  0  0  0  0  0  0  0
   -1.9275    1.6481    0.3642 C   0  0  0  0  0  0  0  0  0  0  0  0
    1.0934   -3.3136   -0.9609 C   0  0  0  0  0  0  0  0  0  0  0  0
   -3.8291   -0.2759   -0.3178 C   0  0  0  0  0  0  0  0  0  0  0  0
    1.3622   -2.8994    1.4041 C   0  0  0  0  0  0  0  0  0  0  0  0
   -3.2867    1.9438    0.4670 C   0  0  0  0  0  0  0  0  0  0  0  0
    1.5012   -3.7430    0.3020 C   0  0  0  0  0  0  0  0  0  0  0  0
   -4.2375    0.9818    0.1259 C   0  0  0  0  0  0  0  0  0  0  0  0
  1  3  1  0
  1  5  1  0
  1  6  1  0
  2  4  1  0
  2  7  1  0
  2  8  1  0
  3  4  1  0
  5  9  2  0
  5 11  1  0
  6 10  2  0
  6 12  1  0
  9 13  1  0
 10 14  1  0
 11 15  2  0
 12 16  2  0
 13 17  2  0
 14 18  2  0
 15 17  1  0
 16 18  1  0
M  END
>  <PUBCHEM_COMPOUND_CID>  (1) 
34660

>  <PUBCHEM_CONFORMER_RMSD>  (1) 
0.6

>  <PUBCHEM_CONFORMER_DIVERSEORDER>  (1) 
1
26
22
25
15
23
14
2
24
21
10
20
13
19
3
11
5
7
12
6
17
18
8
4
16
9

>  <PUBCHEM_MMFF94_PARTIAL_CHARGES>  (1) 
28
1 -0.57
10 -0.15
11 -0.15
12 -0.15
13 -0.15
14 -0.15
15 -0.15
16 -0.15
17 -0.15
18 -0.15
2 -0.81
29 0.15
3 0.37
30 0.15
31 0.15
32 0.15
33 0.15
34 0.15
35 0.15
36 0.15
37 0.15
38 0.15
4 0.27
5 0.1
6 0.1
7 0.27
8 0.27
9 -0.15

>  <PUBCHEM_EFFECTIVE_ROTOR_COUNT>  (1) 
5

>  <PUBCHEM_PHARMACOPHORE_FEATURES>  (1) 
4
1 1 cation
1 2 cation
6 5 9 11 13 15 17 rings
6 6 10 12 14 16 18 rings

>  <PUBCHEM_HEAVY_ATOM_COUNT>  (1) 
18

>  <PUBCHEM_ATOM_DEF_STEREO_COUNT>  (1) 
0

>  <PUBCHEM_ATOM_UDEF_STEREO_COUNT>  (1) 
0

>  <PUBCHEM_BOND_DEF_STEREO_COUNT>  (1) 
0

>  <PUBCHEM_BOND_UDEF_STEREO_COUNT>  (1) 
0

>  <PUBCHEM_ISOTOPIC_ATOM_COUNT>  (1) 
0

>  <PUBCHEM_COMPONENT_COUNT>  (1) 
1

>  <PUBCHEM_CACTVS_TAUTO_COUNT>  (1) 
1

>  <PUBCHEM_CONFORMER_ID>  (1) 
0000876400000001

>  <PUBCHEM_MMFF94_ENERGY>  (1) 
77.5313

>  <PUBCHEM_FEATURE_SELFOVERLAP>  (1) 
20.297

>  <PUBCHEM_SHAPE_FINGERPRINT>  (1) 
11578080 2 17097770162614201309
11833330 49 9942436690228279756
12532896 13 18195525024502319620
12553582 1 17689160011223316431
12644460 14 18267883695995643241
12707595 3 17974012743615565299
12788726 201 17252870962605986832
13083527 12 18191558935868970851
13140716 1 18409727395673892304
136203 1 17617940678583963976
13681431 1 18121507847208560570
14022347 108 17331420670358451663
14787075 74 17896890846191245826
15042514 8 17688873463573568810
15906896 17 17758961806637626346
17980427 23 17769911525216686141
1813 80 17835805196813165627
20510252 161 17981612881144787001
20567600 347 18335707194913353127
20600515 1 17479731615800527064
20645476 183 17972043805778831540
20671657 1 18341052913120864429
21524375 3 18338234976440778892
21650355 55 17399787212108946539
22112679 90 17403761955201324308
2255824 54 18337956662712985319
23366157 5 18188216385991949517
23419403 2 17466843329810769970
23558518 356 18050002487491952054
23559900 14 18198052583007638563
23598288 3 17321560713894832996
23728640 28 17976812418004940536
25147074 1 18130221554938606741
3091708 16 9116129499539635090
4175511 71 17835529219468154569
43471831 8 18410009983216054321
6138700 20 18338807693993844006
633830 44 18201724002156186581
6992083 37 17407970886034406081
7364860 26 18340770330000341477
81228 2 17473258159587824432
81539 233 18334010614180547925
84936 182 18343305850900910544
90316 7 17328862097930919355
9709674 26 17767691925052653988
9841814 1 18045222635494269467
9981440 41 18337948008427750689

>  <PUBCHEM_SHAPE_MULTIPOLES>  (1) 
360.47
5.93
4.78
1.15
5.91
1.17
0.06
-4.28
0.08
-6.48
0.47
-0.74
0.34
-0.55

>  <PUBCHEM_SHAPE_SELFOVERLAP>  (1) 
754.147

>  <PUBCHEM_SHAPE_VOLUME>  (1) 
203.6

>  <PUBCHEM_COORDINATE_TYPE>  (1) 
2
5
10

$$$$
