34665
     RDKit          3D

 10 10  0  0  0  0  0  0  0  0999 V2000
    2.2913    1.2085    0.4732 S   0  0  0  0  0  0  0  0  0  0  0  0
   -3.5742   -0.2318   -0.2771 O   0  0  0  0  0  0  0  0  0  0  0  0
   -1.9893   -0.4238    1.3370 O   0  0  0  0  0  0  0  0  0  0  0  0
    0.9028   -0.7556   -0.4738 N   0  0  0  0  0  0  0  0  0  0  0  0
    3.1383   -1.2829    0.0873 N   0  0  0  0  0  0  0  0  0  0  0  0
    0.0842    0.3563   -0.4392 C   0  0  0  0  0  0  0  0  0  0  0  0
   -1.3078    0.2172   -0.9112 C   0  0  0  0  0  0  0  0  0  0  0  0
    0.6597    1.5137    0.0420 C   0  0  0  0  0  0  0  0  0  0  0  0
    2.0897   -0.4237   -0.0165 C   0  0  0  0  0  0  0  0  0  0  0  0
   -2.2947   -0.1779    0.1782 C   0  0  0  0  0  0  0  0  0  0  0  0
  1  8  1  0
  1  9  1  0
  2 10  1  0
  3 10  2  0
  4  6  1  0
  4  9  2  0
  5  9  1  0
  6  7  1  0
  6  8  2  0
  7 10  1  0
M  END
>  <PUBCHEM_COMPOUND_CID>  (1) 
34665

>  <PUBCHEM_CONFORMER_RMSD>  (1) 
0.4

>  <PUBCHEM_CONFORMER_DIVERSEORDER>  (1) 
1
6
15
13
18
8
16
7
3
9
11
10
12
17
4
5
2
14

>  <PUBCHEM_MMFF94_PARTIAL_CHARGES>  (1) 
14
1 -0.08
10 0.66
13 0.15
14 0.4
15 0.4
16 0.5
2 -0.65
3 -0.57
4 -0.57
5 -0.88
6 0.05
7 0.24
8 -0.11
9 0.46

>  <PUBCHEM_EFFECTIVE_ROTOR_COUNT>  (1) 
2

>  <PUBCHEM_PHARMACOPHORE_FEATURES>  (1) 
6
1 2 acceptor
1 3 acceptor
1 5 donor
3 2 3 10 anion
3 4 5 9 cation
5 1 4 6 8 9 rings

>  <PUBCHEM_HEAVY_ATOM_COUNT>  (1) 
10

>  <PUBCHEM_ATOM_DEF_STEREO_COUNT>  (1) 
0

>  <PUBCHEM_ATOM_UDEF_STEREO_COUNT>  (1) 
0

>  <PUBCHEM_BOND_DEF_STEREO_COUNT>  (1) 
0

>  <PUBCHEM_BOND_UDEF_STEREO_COUNT>  (1) 
0

>  <PUBCHEM_ISOTOPIC_ATOM_COUNT>  (1) 
0

>  <PUBCHEM_COMPONENT_COUNT>  (1) 
1

>  <PUBCHEM_CACTVS_TAUTO_COUNT>  (1) 
2

>  <PUBCHEM_CONFORMER_ID>  (1) 
0000876900000001

>  <PUBCHEM_MMFF94_ENERGY>  (1) 
8.5692

>  <PUBCHEM_FEATURE_SELFOVERLAP>  (1) 
30.504

>  <PUBCHEM_SHAPE_FINGERPRINT>  (1) 
10219947 1 18272651250990104942
10857977 72 17822568412343635388
12897270 3 15213025942110438158
12932764 1 18201722894122663069
14390081 3 12247685958794206187
20201158 50 18187364298555474363
20281407 28 17967818236284532754
20711985 344 17605825924303748244
20871998 22 18058455292405302014
29004967 10 18334857238102358152
3248919 1 17749669683457739413
5084963 1 17704068490867544245

>  <PUBCHEM_SHAPE_MULTIPOLES>  (1) 
187.94
4.75
1.26
0.9
1.91
0.2
-0.13
-1.06
-0.56
-1.11
-0.05
0.37
0
0.2

>  <PUBCHEM_SHAPE_SELFOVERLAP>  (1) 
372.895

>  <PUBCHEM_SHAPE_VOLUME>  (1) 
113.4

>  <PUBCHEM_COORDINATE_TYPE>  (1) 
2
5
10

$$$$
