34672
     RDKit          3D

 10  9  0  0  0  0  0  0  0  0999 V2000
    3.3719    0.3750    0.4769 C   0  0  0  0  0  0  0  0  0  0  0  0
    2.0104   -0.2430    0.2464 C   0  0  0  0  0  0  0  0  0  0  0  0
    4.0082    0.8639   -0.8162 C   0  0  0  0  0  0  0  0  0  0  0  0
    0.8404    0.4264    0.2690 C   0  0  0  0  0  0  0  0  0  0  0  0
    2.0224   -1.7304    0.0000 C   0  0  0  0  0  0  0  0  0  0  0  0
   -0.4837   -0.1309    0.0760 C   0  0  0  0  0  0  0  0  0  0  0  0
   -1.5985    0.6181    0.1160 C   0  0  0  0  0  0  0  0  0  0  0  0
   -2.9650    0.1401   -0.0599 C   0  0  0  0  0  0  0  0  0  0  0  0
   -3.2124   -1.3215   -0.3129 C   0  0  0  0  0  0  0  0  0  0  0  0
   -3.9937    1.0022    0.0046 C   0  0  0  0  0  0  0  0  0  0  0  0
  1  2  1  0
  1  3  1  0
  2  4  2  0
  2  5  1  0
  4  6  1  0
  6  7  2  0
  7  8  1  0
  8  9  1  0
  8 10  2  0
M  END
>  <PUBCHEM_COMPOUND_CID>  (1) 
34672

>  <PUBCHEM_CONFORMER_RMSD>  (1) 
0.6

>  <PUBCHEM_CONFORMER_DIVERSEORDER>  (1) 
2
5
3
4
6
1

>  <PUBCHEM_MMFF94_PARTIAL_CHARGES>  (1) 
14
1 0.14
10 -0.3
16 0.15
2 -0.28
20 0.15
21 0.15
25 0.15
26 0.15
4 -0.15
5 0.14
6 -0.15
7 -0.15
8 -0.14
9 0.14

>  <PUBCHEM_EFFECTIVE_ROTOR_COUNT>  (1) 
3

>  <PUBCHEM_PHARMACOPHORE_FEATURES>  (1) 
2
1 3 hydrophobe
1 5 hydrophobe

>  <PUBCHEM_HEAVY_ATOM_COUNT>  (1) 
10

>  <PUBCHEM_ATOM_DEF_STEREO_COUNT>  (1) 
0

>  <PUBCHEM_ATOM_UDEF_STEREO_COUNT>  (1) 
0

>  <PUBCHEM_BOND_DEF_STEREO_COUNT>  (1) 
0

>  <PUBCHEM_BOND_UDEF_STEREO_COUNT>  (1) 
2

>  <PUBCHEM_ISOTOPIC_ATOM_COUNT>  (1) 
0

>  <PUBCHEM_COMPONENT_COUNT>  (1) 
1

>  <PUBCHEM_CACTVS_TAUTO_COUNT>  (1) 
1

>  <PUBCHEM_CONFORMER_ID>  (1) 
0000877000000002

>  <PUBCHEM_MMFF94_ENERGY>  (1) 
13.2007

>  <PUBCHEM_FEATURE_SELFOVERLAP>  (1) 
10.149

>  <PUBCHEM_SHAPE_FINGERPRINT>  (1) 
11062470 55 17894630348619873353
12932764 1 17417798543990361681
14144814 61 18201998802890083089
14325111 11 18411979144048261531
14415576 193 18334298664952752748
14445660 50 18412550890347977729
17041 49 9295296044820691782
170605 34 18113900463995651394
18186145 218 16732702731490395978
190213 19 17060621113712838808
20645477 56 18261390014834983461
20645477 70 18269552745745773919
20711985 365 18051409569969731697
22485316 2 18412821374239536187
23402539 116 17821718442927144540
23402655 69 18410855434411398012
3248919 1 17676211268592866411
3312278 4 18272090504576478643
449060 50 18333736814400098245
449060 62 17603873334051299244
4990 188 17917721205737561716
528716 315 18341896320265027567
581208 293 18335698330317210042

>  <PUBCHEM_SHAPE_MULTIPOLES>  (1) 
205.8
8.03
1.35
0.73
0.74
0.55
-0.04
-1.55
-0.99
0.05
-0.1
-0.33
-0.06
-0.37

>  <PUBCHEM_SHAPE_SELFOVERLAP>  (1) 
383.264

>  <PUBCHEM_SHAPE_VOLUME>  (1) 
130.5

>  <PUBCHEM_COORDINATE_TYPE>  (1) 
2
5
10

$$$$
