34674
     RDKit          3D

 22 24  0  0  0  0  0  0  0  0999 V2000
   -3.2968    0.6638    0.9684 S   0  0  0  0  0  0  0  0  0  0  0  0
    1.0452   -0.5798   -2.0857 O   0  0  0  0  0  0  0  0  0  0  0  0
    3.1003   -0.2687   -0.4565 N   0  0  0  0  0  0  0  0  0  0  0  0
   -0.4897   -0.0628   -0.3959 N   0  0  0  0  0  0  0  0  0  0  0  0
    4.2123   -0.4259    0.4777 C   0  0  0  0  0  0  0  0  0  0  0  0
    1.8364   -0.5788    0.1711 C   0  0  0  0  0  0  0  0  0  0  0  0
    4.0165    0.5442    1.6461 C   0  0  0  0  0  0  0  0  0  0  0  0
    4.2216   -1.8705    0.9830 C   0  0  0  0  0  0  0  0  0  0  0  0
    5.5200   -0.1102   -0.2541 C   0  0  0  0  0  0  0  0  0  0  0  0
    0.7812   -0.3896   -0.8981 C   0  0  0  0  0  0  0  0  0  0  0  0
   -0.8432    1.3260   -0.2102 C   0  0  0  0  0  0  0  0  0  0  0  0
   -1.4500   -1.1168   -0.1657 C   0  0  0  0  0  0  0  0  0  0  0  0
   -2.0415    1.7539    0.3759 C   0  0  0  0  0  0  0  0  0  0  0  0
   -2.7197   -0.9026    0.3895 C   0  0  0  0  0  0  0  0  0  0  0  0
    0.0364    2.3320   -0.6760 C   0  0  0  0  0  0  0  0  0  0  0  0
   -1.1047   -2.4550   -0.4695 C   0  0  0  0  0  0  0  0  0  0  0  0
   -2.3125    3.1299    0.5233 C   0  0  0  0  0  0  0  0  0  0  0  0
   -3.6105   -1.9801    0.5754 C   0  0  0  0  0  0  0  0  0  0  0  0
   -0.2401    3.6938   -0.5302 C   0  0  0  0  0  0  0  0  0  0  0  0
   -1.9923   -3.5183   -0.2810 C   0  0  0  0  0  0  0  0  0  0  0  0
   -1.4160    4.0946    0.0778 C   0  0  0  0  0  0  0  0  0  0  0  0
   -3.2531   -3.2793    0.2348 C   0  0  0  0  0  0  0  0  0  0  0  0
  1 13  1  0
  1 14  1  0
  2 10  2  0
  3  5  1  0
  3  6  1  0
  4 10  1  0
  4 11  1  0
  4 12  1  0
  5  7  1  0
  5  8  1  0
  5  9  1  0
  6 10  1  0
 11 13  2  0
 11 15  1  0
 12 14  2  0
 12 16  1  0
 13 17  1  0
 14 18  1  0
 15 19  2  0
 16 20  2  0
 17 21  2  0
 18 22  2  0
 19 21  1  0
 20 22  1  0
M  END
>  <PUBCHEM_COMPOUND_CID>  (1) 
34674

>  <PUBCHEM_CONFORMER_RMSD>  (1) 
0.8

>  <PUBCHEM_CONFORMER_DIVERSEORDER>  (1) 
1
2
3
4
5

>  <PUBCHEM_MMFF94_PARTIAL_CHARGES>  (1) 
28
1 -0.2
10 0.57
11 0.12
12 0.12
13 0.1
14 0.1
15 -0.15
16 -0.15
17 -0.15
18 -0.15
19 -0.15
2 -0.57
20 -0.15
21 -0.15
22 -0.15
23 0.36
3 -0.9
35 0.15
36 0.15
37 0.15
38 0.15
39 0.15
4 -0.29
40 0.15
41 0.15
42 0.15
5 0.27
6 0.33

>  <PUBCHEM_EFFECTIVE_ROTOR_COUNT>  (1) 
4.4

>  <PUBCHEM_PHARMACOPHORE_FEATURES>  (1) 
7
1 2 acceptor
1 3 cation
1 3 donor
4 5 7 8 9 hydrophobe
6 1 4 11 12 13 14 rings
6 11 13 15 17 19 21 rings
6 12 14 16 18 20 22 rings

>  <PUBCHEM_HEAVY_ATOM_COUNT>  (1) 
22

>  <PUBCHEM_ATOM_DEF_STEREO_COUNT>  (1) 
0

>  <PUBCHEM_ATOM_UDEF_STEREO_COUNT>  (1) 
0

>  <PUBCHEM_BOND_DEF_STEREO_COUNT>  (1) 
0

>  <PUBCHEM_BOND_UDEF_STEREO_COUNT>  (1) 
0

>  <PUBCHEM_ISOTOPIC_ATOM_COUNT>  (1) 
0

>  <PUBCHEM_COMPONENT_COUNT>  (1) 
1

>  <PUBCHEM_CACTVS_TAUTO_COUNT>  (1) 
1

>  <PUBCHEM_CONFORMER_ID>  (1) 
0000877200000001

>  <PUBCHEM_MMFF94_ENERGY>  (1) 
88.4484

>  <PUBCHEM_FEATURE_SELFOVERLAP>  (1) 
35.551

>  <PUBCHEM_SHAPE_FINGERPRINT>  (1) 
10319926 262 18269540673447169658
10411042 1 18266744777674122135
10906281 52 18342187635323485277
1100329 8 18409453622127639057
11265709 11 18337393867346686211
11552529 35 18335695010476178314
11578080 2 17533476070815984901
12107183 9 17758671149580227642
12173636 292 18194953055054188636
12553582 1 18266476466808967279
12633257 1 18131076999884201136
12788726 201 18262537973334908830
13004483 165 18337657698397531923
13083527 12 17837204140770784511
13140716 1 18339657745051344417
13540713 5 17481159212371999659
13583140 156 17987499473696200634
138480 1 16032673012659456777
14081887 123 18411692180166650442
14178342 30 18263627516844887402
14420673 8 17833267520283451298
14787075 74 17825948406156818136
14790565 3 17763230953071128661
14844126 61 18335135380021047427
15042514 8 18409453565966062035
15230672 131 17688037414769661590
15475509 35 17100609415866862995
17980427 23 17702952577413844527
17980427 26 17043157269771042428
1813 80 17971177356029188488
19377110 9 18113328735751478728
20510252 161 18127132978803621705
20600515 1 18271256009679293549
20905425 154 17909848856875142085
21421861 104 17833002911346893243
21524375 3 17696737883800298748
21650355 55 18410292531897561795
22393880 68 9006762251469193698
23366157 5 17613442563967284733
23402539 116 18271799129953605303
23419403 2 17843940754325509609
23557571 272 18272661116746404740
23559900 14 17978502367213886251
2748010 2 17616564777806266069
3091708 16 9420949320111084985
3187 122 18122315099376646480
4409770 3 18261946345890263533
58807428 26 17979083682389209313
7097593 13 17907014332862229063
7364860 26 17619073167149967167
7471813 234 17912636110441084799
81228 2 18270421428872401687
84936 182 17045420068990528400
90316 7 18410578400536119603
9981440 41 17832419796290421969

>  <PUBCHEM_SHAPE_MULTIPOLES>  (1) 
440.77
7.98
4.85
1.14
12.38
2.6
-0.07
-4.08
2.79
-5.58
-0.21
0.63
-0.02
-0.34

>  <PUBCHEM_SHAPE_SELFOVERLAP>  (1) 
932.292

>  <PUBCHEM_SHAPE_VOLUME>  (1) 
248.4

>  <PUBCHEM_COORDINATE_TYPE>  (1) 
2
5
10

$$$$
