34686
     RDKit          3D

 20 22  0  0  0  0  0  0  0  0999 V2000
   -0.2615   -1.5955    0.2470 O   0  0  0  0  0  0  0  0  0  0  0  0
    4.9928   -0.1478   -0.0706 O   0  0  0  0  0  0  0  0  0  0  0  0
   -0.6242    4.2656    0.2460 N   0  0  0  0  0  0  0  0  0  0  0  0
    0.0604    0.5669   -0.2853 C   0  0  0  0  0  0  0  0  0  0  0  0
    1.3340   -0.0399   -0.1251 C   0  0  0  0  0  0  0  0  0  0  0  0
   -0.2091    1.9754   -0.6357 C   0  0  0  0  0  0  0  0  0  0  0  0
   -0.8709   -0.4177   -0.0490 C   0  0  0  0  0  0  0  0  0  0  0  0
    1.0814   -1.3684    0.2012 C   0  0  0  0  0  0  0  0  0  0  0  0
   -2.3069   -0.4591   -0.0500 C   0  0  0  0  0  0  0  0  0  0  0  0
   -0.3284    2.8825    0.6044 C   0  0  0  0  0  0  0  0  0  0  0  0
    2.6704    0.3861   -0.2198 C   0  0  0  0  0  0  0  0  0  0  0  0
    2.0743   -2.3160    0.4432 C   0  0  0  0  0  0  0  0  0  0  0  0
    3.6912   -0.5446    0.0181 C   0  0  0  0  0  0  0  0  0  0  0  0
    3.3958   -1.8710    0.3434 C   0  0  0  0  0  0  0  0  0  0  0  0
   -3.0002   -0.7694   -1.2235 C   0  0  0  0  0  0  0  0  0  0  0  0
   -3.0199   -0.1888    1.1216 C   0  0  0  0  0  0  0  0  0  0  0  0
   -4.3946   -0.8089   -1.2255 C   0  0  0  0  0  0  0  0  0  0  0  0
   -4.4143   -0.2283    1.1195 C   0  0  0  0  0  0  0  0  0  0  0  0
   -5.1015   -0.5383   -0.0540 C   0  0  0  0  0  0  0  0  0  0  0  0
    5.2314    1.2172   -0.4058 C   0  0  0  0  0  0  0  0  0  0  0  0
  1  7  1  0
  1  8  1  0
  2 13  1  0
  2 20  1  0
  3 10  1  0
  4  5  1  0
  4  6  1  0
  4  7  2  0
  5  8  2  0
  5 11  1  0
  6 10  1  0
  7  9  1  0
  8 12  1  0
  9 15  2  0
  9 16  1  0
 11 13  2  0
 12 14  2  0
 13 14  1  0
 15 17  1  0
 16 18  2  0
 17 19  2  0
 18 19  1  0
M  END
>  <PUBCHEM_COMPOUND_CID>  (1) 
34686

>  <PUBCHEM_CONFORMER_RMSD>  (1) 
0.6

>  <PUBCHEM_CONFORMER_DIVERSEORDER>  (1) 
1
8
10
6
12
9
5
7
3
2
11
4

>  <PUBCHEM_MMFF94_PARTIAL_CHARGES>  (1) 
29
1 -0.28
10 0.27
11 -0.15
12 -0.15
13 0.08
14 -0.15
15 -0.15
16 -0.15
17 -0.15
18 -0.15
19 -0.15
2 -0.36
20 0.28
25 0.15
26 0.15
27 0.15
28 0.15
29 0.15
3 -0.99
30 0.36
31 0.36
32 0.15
33 0.15
34 0.15
4 -0.18
6 0.18
7 0.09
8 0.14
9 0.05

>  <PUBCHEM_EFFECTIVE_ROTOR_COUNT>  (1) 
4

>  <PUBCHEM_PHARMACOPHORE_FEATURES>  (1) 
7
1 1 acceptor
1 2 acceptor
1 3 cation
1 3 donor
5 1 4 5 7 8 rings
6 5 8 11 12 13 14 rings
6 9 15 16 17 18 19 rings

>  <PUBCHEM_HEAVY_ATOM_COUNT>  (1) 
20

>  <PUBCHEM_ATOM_DEF_STEREO_COUNT>  (1) 
0

>  <PUBCHEM_ATOM_UDEF_STEREO_COUNT>  (1) 
0

>  <PUBCHEM_BOND_DEF_STEREO_COUNT>  (1) 
0

>  <PUBCHEM_BOND_UDEF_STEREO_COUNT>  (1) 
0

>  <PUBCHEM_ISOTOPIC_ATOM_COUNT>  (1) 
0

>  <PUBCHEM_COMPONENT_COUNT>  (1) 
1

>  <PUBCHEM_CACTVS_TAUTO_COUNT>  (1) 
1

>  <PUBCHEM_CONFORMER_ID>  (1) 
0000877E00000001

>  <PUBCHEM_MMFF94_ENERGY>  (1) 
48.4796

>  <PUBCHEM_FEATURE_SELFOVERLAP>  (1) 
35.622

>  <PUBCHEM_SHAPE_FINGERPRINT>  (1) 
10090160 65 18114178657617659550
104564 63 18267586810402064937
10670039 82 18262254239965192820
1100329 8 18193279817621669632
11471102 20 18333730221636075766
11578080 2 17629731575288083505
12236239 1 18131915957827606987
12516196 113 18411698807359138579
12553582 1 18412536617733900519
12788726 201 18335696088191229760
13132413 78 18342463629726773113
13134695 92 18410569617718668933
13140716 1 18191587660863343994
13544653 18 18261394425233237215
13760787 5 18409445869163316398
13899415 154 18339935907875228424
13911987 19 18260555566717988286
13965767 371 17196047781081911633
14178342 30 17832125144643950602
14347332 77 18199193880557263438
14787075 74 18260830440219136202
14790565 3 18338247049689287100
15196674 1 18335701581290818542
17357779 13 18261660515911562941
17980427 23 17131837590568328313
1813 80 18272384061190802125
18785283 64 17679880472213262821
200 152 18335697221878083031
20510252 161 18339361855789932824
20645477 70 18188201005514336402
21029758 11 18410007754128105693
21267235 1 18409175389287111102
21501502 16 18120090585684948746
21641784 216 18114759148117642772
23175994 123 18186243922556511277
23402539 116 18273211997593810831
23558518 356 17973452005285205138
25147074 1 17971478399573433018
26918003 58 17822012003651935842
283562 15 18336264540050530352
312423 11 18116720604137014650
34797466 226 15984829310533822352
34934 24 18408600387639658946
350125 39 18265899060559564738
352729 6 17622153577544774972
474 4 18054216906792266121
5104073 3 18189331277960793288
5283173 99 17896588497504522525
532947 4 17981318203602645312
537710 114 18261397775502868060
5486654 2 18336552711297869958
7164475 11 18267020553481743636
81228 2 18045509607849926313

>  <PUBCHEM_SHAPE_MULTIPOLES>  (1) 
394.87
9.68
2.83
0.97
0.65
3.61
-0.04
-2.41
-0.6
0.94
0.46
-0.98
-0.06
-0.7

>  <PUBCHEM_SHAPE_SELFOVERLAP>  (1) 
864.096

>  <PUBCHEM_SHAPE_VOLUME>  (1) 
217.6

>  <PUBCHEM_COORDINATE_TYPE>  (1) 
2
5
10

$$$$
