34684
     RDKit          3D

 20 22  0  0  0  0  0  0  0  0999 V2000
    1.9202   -2.2691    1.2629 O   0  0  0  0  0  0  0  0  0  0  0  0
   -3.8630   -0.0074   -0.9874 N   0  0  0  0  0  0  0  0  0  0  0  0
    0.5545   -1.7458   -0.5374 N   0  0  0  0  0  0  0  0  0  0  0  0
    4.1719    1.7305   -0.6332 N   0  0  0  0  0  0  0  0  0  0  0  0
   -2.3335   -1.2182    0.0717 C   0  0  0  0  0  0  0  0  0  0  0  0
   -1.5616   -2.3721    0.5762 C   0  0  0  0  0  0  0  0  0  0  0  0
   -2.0750    0.1558    0.3368 C   0  0  0  0  0  0  0  0  0  0  0  0
   -3.0488    0.8939   -0.3393 C   0  0  0  0  0  0  0  0  0  0  0  0
   -0.4026   -2.8010   -0.3385 C   0  0  0  0  0  0  0  0  0  0  0  0
   -3.4387   -1.2863   -0.7449 C   0  0  0  0  0  0  0  0  0  0  0  0
   -1.1030    0.8445    1.0895 C   0  0  0  0  0  0  0  0  0  0  0  0
   -3.0994    2.2919   -0.3003 C   0  0  0  0  0  0  0  0  0  0  0  0
   -1.1412    2.2428    1.1375 C   0  0  0  0  0  0  0  0  0  0  0  0
   -2.1249    2.9533    0.4526 C   0  0  0  0  0  0  0  0  0  0  0  0
    1.6538   -1.5645    0.2929 C   0  0  0  0  0  0  0  0  0  0  0  0
    2.5341   -0.4123   -0.0309 C   0  0  0  0  0  0  0  0  0  0  0  0
    3.2633    0.1729    0.9770 C   0  0  0  0  0  0  0  0  0  0  0  0
    2.5947    0.0355   -1.3293 C   0  0  0  0  0  0  0  0  0  0  0  0
    4.0689    1.2434    0.6236 C   0  0  0  0  0  0  0  0  0  0  0  0
    3.4303    1.1122   -1.5795 C   0  0  0  0  0  0  0  0  0  0  0  0
  1 15  2  0
  2  8  1  0
  2 10  1  0
  3  9  1  0
  3 15  1  0
  4 19  2  0
  4 20  1  0
  5  6  1  0
  5  7  1  0
  5 10  2  0
  6  9  1  0
  7  8  2  0
  7 11  1  0
  8 12  1  0
 11 13  2  0
 12 14  2  0
 13 14  1  0
 15 16  1  0
 16 17  2  0
 16 18  1  0
 17 19  1  0
 18 20  2  0
M  END
>  <PUBCHEM_COMPOUND_CID>  (1) 
34684

>  <PUBCHEM_CONFORMER_RMSD>  (1) 
0.8

>  <PUBCHEM_CONFORMER_DIVERSEORDER>  (1) 
1
20
9
12
27
6
30
10
25
13
3
15
23
29
7
21
19
8
14
18
4
17
16
2
5
28
11
24
22
26

>  <PUBCHEM_MMFF94_PARTIAL_CHARGES>  (1) 
30
1 -0.57
10 -0.3
11 -0.15
12 -0.15
13 -0.15
14 -0.15
15 0.54
16 0.09
17 -0.15
18 -0.15
19 0.16
2 0.03
20 0.16
25 0.15
26 0.27
27 0.15
28 0.15
29 0.37
3 -0.73
30 0.15
31 0.15
32 0.15
33 0.15
34 0.15
35 0.15
4 -0.62
5 -0.18
6 0.18
8 -0.15
9 0.3

>  <PUBCHEM_EFFECTIVE_ROTOR_COUNT>  (1) 
5

>  <PUBCHEM_PHARMACOPHORE_FEATURES>  (1) 
8
1 1 acceptor
1 2 cation
1 2 donor
1 3 donor
1 4 acceptor
5 2 5 7 8 10 rings
6 4 16 17 18 19 20 rings
6 7 8 11 12 13 14 rings

>  <PUBCHEM_HEAVY_ATOM_COUNT>  (1) 
20

>  <PUBCHEM_ATOM_DEF_STEREO_COUNT>  (1) 
0

>  <PUBCHEM_ATOM_UDEF_STEREO_COUNT>  (1) 
0

>  <PUBCHEM_BOND_DEF_STEREO_COUNT>  (1) 
0

>  <PUBCHEM_BOND_UDEF_STEREO_COUNT>  (1) 
0

>  <PUBCHEM_ISOTOPIC_ATOM_COUNT>  (1) 
0

>  <PUBCHEM_COMPONENT_COUNT>  (1) 
1

>  <PUBCHEM_CACTVS_TAUTO_COUNT>  (1) 
2

>  <PUBCHEM_CONFORMER_ID>  (1) 
0000877C00000001

>  <PUBCHEM_MMFF94_ENERGY>  (1) 
38.8532

>  <PUBCHEM_FEATURE_SELFOVERLAP>  (1) 
40.688

>  <PUBCHEM_SHAPE_FINGERPRINT>  (1) 
10498660 4 18341332274757303244
10670039 82 18336276720962982140
10759866 29 18260265287369361890
11370993 70 18337100168602978877
11640471 11 17967817171438513982
12173636 292 18339640028042482797
13027679 85 18196656413735841675
14123250 116 17916036659039428873
14739800 52 18050835917902749992
14787075 74 17897165947436586923
14790565 3 17912364222327562569
15635459 17 17703506687770871200
17492 54 18268974536195419983
17492 89 18337948974764431755
17980427 23 17837462203727959402
192875 21 18261664948048741244
20510252 161 18341057392824670659
20567600 299 16320891324138115468
20715895 44 17828462701481998037
21141583 151 18130514136162707400
21864079 5 18338521815831310859
22749437 52 18335981991252861380
23558518 356 18265054626586421987
23559900 14 18057315090030542486
4028521 119 18343023336757924270
469060 322 17973185081536537163
474 4 17968944076130275179
5048184 11 18337119951365041820
526903 126 18342458097755817145
6328613 192 18187650228647452604
6786 2 13609236401890064507
9981440 41 18408315605664744730

>  <PUBCHEM_SHAPE_MULTIPOLES>  (1) 
390.78
7.57
3.28
1.24
3.99
0.12
0.12
-3.21
1.65
-1.61
-0.49
0.66
-0.16
-0.74

>  <PUBCHEM_SHAPE_SELFOVERLAP>  (1) 
855.55

>  <PUBCHEM_SHAPE_VOLUME>  (1) 
210.6

>  <PUBCHEM_COORDINATE_TYPE>  (1) 
2
5
10

$$$$
