34697
     RDKit          3D

 27 28  0  0  0  0  0  0  0  0999 V2000
    2.1044   -0.9266    0.3355 P   0  0  0  0  0  0  0  0  0  0  0  0
    1.5034    0.5778    0.3446 O   0  0  0  0  0  0  0  0  0  0  0  0
    1.0672   -1.7777   -0.5670 O   0  0  0  0  0  0  0  0  0  0  0  0
    3.4048   -0.8435   -0.6219 O   0  0  0  0  0  0  0  0  0  0  0  0
    2.3707   -1.5131    1.6939 O   0  0  0  0  0  0  0  0  0  0  0  0
   -4.1593    1.6062   -0.0776 C   0  0  0  0  0  0  0  0  0  0  0  0
   -3.4085    2.6592    0.7424 C   0  0  0  0  0  0  0  0  0  0  0  0
   -5.4992    1.2498    0.5754 C   0  0  0  0  0  0  0  0  0  0  0  0
   -2.0709    3.0743    0.1224 C   0  0  0  0  0  0  0  0  0  0  0  0
   -6.3334    0.2467   -0.2430 C   0  0  0  0  0  0  0  0  0  0  0  0
   -1.0959    1.9086   -0.0604 C   0  0  0  0  0  0  0  0  0  0  0  0
    0.2322    2.3870   -0.6562 C   0  0  0  0  0  0  0  0  0  0  0  0
   -7.6373   -0.1392    0.4570 C   0  0  0  0  0  0  0  0  0  0  0  0
   -6.6426    0.8334   -1.6227 C   0  0  0  0  0  0  0  0  0  0  0  0
    1.2106    1.2388   -0.8782 C   0  0  0  0  0  0  0  0  0  0  0  0
   -0.2298   -2.0526   -0.2250 C   0  0  0  0  0  0  0  0  0  0  0  0
    4.5467   -0.1437   -0.3372 C   0  0  0  0  0  0  0  0  0  0  0  0
   -0.7464   -1.5863    0.9840 C   0  0  0  0  0  0  0  0  0  0  0  0
    4.6484    0.5697    0.8572 C   0  0  0  0  0  0  0  0  0  0  0  0
   -1.0345   -2.7995   -1.0855 C   0  0  0  0  0  0  0  0  0  0  0  0
    5.6084   -0.1438   -1.2420 C   0  0  0  0  0  0  0  0  0  0  0  0
   -2.0675   -1.8670    1.3325 C   0  0  0  0  0  0  0  0  0  0  0  0
    5.8115    1.2831    1.1467 C   0  0  0  0  0  0  0  0  0  0  0  0
   -2.3556   -3.0801   -0.7369 C   0  0  0  0  0  0  0  0  0  0  0  0
    6.7716    0.5696   -0.9523 C   0  0  0  0  0  0  0  0  0  0  0  0
   -2.8720   -2.6139    0.4721 C   0  0  0  0  0  0  0  0  0  0  0  0
    6.8730    1.2830    0.2421 C   0  0  0  0  0  0  0  0  0  0  0  0
  1  2  1  0
  1  3  1  0
  1  4  1  0
  1  5  2  0
  2 15  1  0
  3 16  1  0
  4 17  1  0
  6  7  1  0
  6  8  1  0
  7  9  1  0
  8 10  1  0
  9 11  1  0
 10 13  1  0
 10 14  1  0
 11 12  1  0
 12 15  1  0
 16 18  2  0
 16 20  1  0
 17 19  2  0
 17 21  1  0
 18 22  1  0
 19 23  1  0
 20 24  2  0
 21 25  2  0
 22 26  2  0
 23 27  2  0
 24 26  1  0
 25 27  1  0
M  END
>  <PUBCHEM_COMPOUND_CID>  (1) 
34697

>  <PUBCHEM_CONFORMER_RMSD>  (1) 
1.4

>  <PUBCHEM_CONFORMER_DIVERSEORDER>  (1) 
1
18
38
17
54
22
3
50
48
55
34
27
30
11
46
16
45
53
10
8
44
39
35
32
6
33
28
12
13
56
15
21
40
26
47
42
5
23
7
52
49
14
4
37
41
29
43
31
24
2
20
36
19
51
25
9

>  <PUBCHEM_MMFF94_PARTIAL_CHARGES>  (1) 
28
1 1.51
15 0.28
16 0.08
17 0.08
18 -0.15
19 -0.15
2 -0.55
20 -0.15
21 -0.15
22 -0.15
23 -0.15
24 -0.15
25 -0.15
26 -0.15
27 -0.15
3 -0.35
4 -0.35
49 0.15
5 -0.7
50 0.15
51 0.15
52 0.15
53 0.15
54 0.15
55 0.15
56 0.15
57 0.15
58 0.15

>  <PUBCHEM_EFFECTIVE_ROTOR_COUNT>  (1) 
13

>  <PUBCHEM_PHARMACOPHORE_FEATURES>  (1) 
4
1 5 acceptor
3 10 13 14 hydrophobe
6 16 18 20 22 24 26 rings
6 17 19 21 23 25 27 rings

>  <PUBCHEM_HEAVY_ATOM_COUNT>  (1) 
27

>  <PUBCHEM_ATOM_DEF_STEREO_COUNT>  (1) 
0

>  <PUBCHEM_ATOM_UDEF_STEREO_COUNT>  (1) 
0

>  <PUBCHEM_BOND_DEF_STEREO_COUNT>  (1) 
0

>  <PUBCHEM_BOND_UDEF_STEREO_COUNT>  (1) 
0

>  <PUBCHEM_ISOTOPIC_ATOM_COUNT>  (1) 
0

>  <PUBCHEM_COMPONENT_COUNT>  (1) 
1

>  <PUBCHEM_CACTVS_TAUTO_COUNT>  (1) 
1

>  <PUBCHEM_CONFORMER_ID>  (1) 
0000878900000001

>  <PUBCHEM_MMFF94_ENERGY>  (1) 
45.9012

>  <PUBCHEM_FEATURE_SELFOVERLAP>  (1) 
20.297

>  <PUBCHEM_SHAPE_FINGERPRINT>  (1) 
10006869 2 18263634091653859794
10454371 7 18202004351866763437
11136131 41 18116145567571188203
11578080 2 17344891122164440762
12838862 33 18336812144566123749
13402501 40 18413108360055004585
13947920 75 18342450456950845335
14394314 77 18342182112323129601
1454969 45 18410572864497920141
15131766 46 15432318151009088502
15238133 3 17967821590754555734
15968369 153 18199470033489271109
173720 79 17968370169862955594
17492 54 18335132056417693817
21033648 29 17987506169423400402
21133410 90 17274263989076512859
21792938 79 15431738733592242094
3383291 50 18410860997085240427
437795 51 17703500064910676608
469060 322 17022617602600823246
5171179 24 17843393244526725864
58260988 647 16772689702108846102
59567204 34 18409449219675144021

>  <PUBCHEM_SHAPE_MULTIPOLES>  (1) 
536.02
17.84
3.54
1.27
1.25
0.75
0
-7.8
1.58
-3.48
0.05
0.16
0.23
0.27

>  <PUBCHEM_SHAPE_SELFOVERLAP>  (1) 
1070.465

>  <PUBCHEM_SHAPE_VOLUME>  (1) 
315.3

>  <PUBCHEM_COORDINATE_TYPE>  (1) 
2
5
10

$$$$
