34690
     RDKit          3D

  8  7  0  0  1  0  0  0  0  0999 V2000
    1.2933   -1.8363   -0.4426 Cl  0  0  0  0  0  0  0  0  0  0  0  0
   -0.0288    0.4998    0.1288 C   0  0  0  0  0  0  0  0  0  0  0  0
    1.1566   -0.3692    0.5782 C   0  0  0  0  0  0  0  0  0  0  0  0
   -1.3701   -0.2439    0.1753 C   0  0  0  0  0  0  0  0  0  0  0  0
    2.4892    0.3962    0.5929 C   0  0  0  0  0  0  0  0  0  0  0  0
   -2.5619    0.6392   -0.2041 C   0  0  0  0  0  0  0  0  0  0  0  0
    2.9250    0.9815   -0.7447 C   0  0  0  0  0  0  0  0  0  0  0  0
   -3.9033   -0.0674   -0.0838 C   0  0  0  0  0  0  0  0  0  0  0  0
  1  3  1  0
  2  3  1  0
  2  4  1  0
  3  5  1  0
  4  6  1  0
  5  7  1  0
  6  8  1  0
M  END
>  <PUBCHEM_COMPOUND_CID>  (1) 
34690

>  <PUBCHEM_CONFORMER_RMSD>  (1) 
0.6

>  <PUBCHEM_CONFORMER_DIVERSEORDER>  (1) 
1
31
30
16
37
50
5
49
10
24
6
42
9
32
7
12
41
13
19
43
26
29
47
27
8
51
4
11
18
20
48
45
14
25
3
39
34
2
46
38
22
40
17
35
23
36
44
28
52
15
33
21

>  <PUBCHEM_MMFF94_PARTIAL_CHARGES>  (1) 
2
1 -0.29
3 0.29

>  <PUBCHEM_EFFECTIVE_ROTOR_COUNT>  (1) 
4

>  <PUBCHEM_PHARMACOPHORE_FEATURES>  (1) 
2
1 7 hydrophobe
1 8 hydrophobe

>  <PUBCHEM_HEAVY_ATOM_COUNT>  (1) 
8

>  <PUBCHEM_ATOM_DEF_STEREO_COUNT>  (1) 
0

>  <PUBCHEM_ATOM_UDEF_STEREO_COUNT>  (1) 
1

>  <PUBCHEM_BOND_DEF_STEREO_COUNT>  (1) 
0

>  <PUBCHEM_BOND_UDEF_STEREO_COUNT>  (1) 
0

>  <PUBCHEM_ISOTOPIC_ATOM_COUNT>  (1) 
0

>  <PUBCHEM_COMPONENT_COUNT>  (1) 
1

>  <PUBCHEM_CACTVS_TAUTO_COUNT>  (1) 
1

>  <PUBCHEM_CONFORMER_ID>  (1) 
0000878200000001

>  <PUBCHEM_MMFF94_ENERGY>  (1) 
0.8286

>  <PUBCHEM_FEATURE_SELFOVERLAP>  (1) 
10.149

>  <PUBCHEM_SHAPE_FINGERPRINT>  (1) 
11062470 55 16950278516406288877
12897270 3 18343303673399528736
12932764 1 17203034219455971057
13922767 16 7997973449012910415
14325111 11 18410571756569820265
14390081 3 18410290319852527217
15310529 11 18272928280992181837
170605 34 18186239541220377400
18342897 55 18270109235867564668
20645477 70 18270112397633732471
21040471 1 18341608287068499810
21293036 1 18060140980721138848
23235685 24 18410569612880031568
23552423 10 18195530285768685347
3248919 1 18336822009746864825
5460574 1 10015581727104518625

>  <PUBCHEM_SHAPE_MULTIPOLES>  (1) 
166.51
5.76
1.32
0.81
4.49
0.65
-0.02
-1.25
-0.63
-0.87
-0.26
-0.37
-0.03
-0.04

>  <PUBCHEM_SHAPE_SELFOVERLAP>  (1) 
281.968

>  <PUBCHEM_SHAPE_VOLUME>  (1) 
112.8

>  <PUBCHEM_COORDINATE_TYPE>  (1) 
2
5
10

$$$$
