34706
     RDKit          3D

 20 21  0  0  0  0  0  0  0  0999 V2000
   -5.5269   -1.9057   -0.3042 Cl  0  0  0  0  0  0  0  0  0  0  0  0
    4.1083   -3.4140    0.9634 Cl  0  0  0  0  0  0  0  0  0  0  0  0
   -0.4807    0.9532    0.6113 O   0  0  0  0  0  0  0  0  0  0  0  0
    1.0516    1.0781   -1.2622 O   0  0  0  0  0  0  0  0  0  0  0  0
    1.2826    3.7880   -0.8454 O   0  0  0  0  0  0  0  0  0  0  0  0
    0.8593    3.2767    1.3270 O   0  0  0  0  0  0  0  0  0  0  0  0
    0.1124    1.7460   -0.4192 C   0  0  0  0  0  0  0  0  0  0  0  0
   -1.6497    0.2891    0.3992 C   0  0  0  0  0  0  0  0  0  0  0  0
    1.7632    0.0304   -0.7422 C   0  0  0  0  0  0  0  0  0  0  0  0
   -1.9731   -0.1627   -0.8801 C   0  0  0  0  0  0  0  0  0  0  0  0
    2.5882    0.2361    0.3584 C   0  0  0  0  0  0  0  0  0  0  0  0
   -2.5252    0.0622    1.4611 C   0  0  0  0  0  0  0  0  0  0  0  0
    1.6564   -1.2298   -1.3207 C   0  0  0  0  0  0  0  0  0  0  0  0
    0.7685    3.0042    0.1374 C   0  0  0  0  0  0  0  0  0  0  0  0
   -3.1722   -0.8414   -1.0976 C   0  0  0  0  0  0  0  0  0  0  0  0
    3.3147   -0.8311    0.8868 C   0  0  0  0  0  0  0  0  0  0  0  0
   -3.7243   -0.6165    1.2435 C   0  0  0  0  0  0  0  0  0  0  0  0
    2.3828   -2.2969   -0.7923 C   0  0  0  0  0  0  0  0  0  0  0  0
   -4.0478   -1.0683   -0.0358 C   0  0  0  0  0  0  0  0  0  0  0  0
    3.2120   -2.0976    0.3114 C   0  0  0  0  0  0  0  0  0  0  0  0
  1 19  1  0
  2 20  1  0
  3  7  1  0
  3  8  1  0
  4  7  1  0
  4  9  1  0
  5 14  1  0
  6 14  2  0
  7 14  1  0
  8 10  2  0
  8 12  1  0
  9 11  2  0
  9 13  1  0
 10 15  1  0
 11 16  1  0
 12 17  2  0
 13 18  2  0
 15 19  2  0
 16 20  2  0
 17 19  1  0
 18 20  1  0
M  END
>  <PUBCHEM_COMPOUND_CID>  (1) 
34706

>  <PUBCHEM_CONFORMER_RMSD>  (1) 
0.8

>  <PUBCHEM_CONFORMER_DIVERSEORDER>  (1) 
1
5
24
29
31
40
21
36
8
20
3
46
30
27
9
28
25
37
44
38
12
2
15
33
18
32
22
45
39
13
43
23
34
42
6
19
17
26
4
35
7
10
41
14
11
16

>  <PUBCHEM_MMFF94_PARTIAL_CHARGES>  (1) 
29
1 -0.18
10 -0.15
11 -0.15
12 -0.15
13 -0.15
14 0.66
15 -0.15
16 -0.15
17 -0.15
18 -0.15
19 0.18
2 -0.18
20 0.18
22 0.15
23 0.15
24 0.15
25 0.15
26 0.15
27 0.15
28 0.15
29 0.15
3 -0.36
30 0.5
4 -0.36
5 -0.65
6 -0.57
7 0.62
8 0.08
9 0.08

>  <PUBCHEM_EFFECTIVE_ROTOR_COUNT>  (1) 
5

>  <PUBCHEM_PHARMACOPHORE_FEATURES>  (1) 
7
1 3 acceptor
1 4 acceptor
1 5 acceptor
1 6 acceptor
3 5 6 14 anion
6 8 10 12 15 17 19 rings
6 9 11 13 16 18 20 rings

>  <PUBCHEM_HEAVY_ATOM_COUNT>  (1) 
20

>  <PUBCHEM_ATOM_DEF_STEREO_COUNT>  (1) 
0

>  <PUBCHEM_ATOM_UDEF_STEREO_COUNT>  (1) 
0

>  <PUBCHEM_BOND_DEF_STEREO_COUNT>  (1) 
0

>  <PUBCHEM_BOND_UDEF_STEREO_COUNT>  (1) 
0

>  <PUBCHEM_ISOTOPIC_ATOM_COUNT>  (1) 
0

>  <PUBCHEM_COMPONENT_COUNT>  (1) 
1

>  <PUBCHEM_CACTVS_TAUTO_COUNT>  (1) 
1

>  <PUBCHEM_CONFORMER_ID>  (1) 
0000879200000001

>  <PUBCHEM_MMFF94_ENERGY>  (1) 
64.0923

>  <PUBCHEM_FEATURE_SELFOVERLAP>  (1) 
35.617

>  <PUBCHEM_SHAPE_FINGERPRINT>  (1) 
1100329 8 17981883352884815904
11578080 2 17988625386082205457
12363563 72 18262241019016715866
12553582 1 18340784645015881287
13004483 165 18267293232001571530
13083527 12 18270671082141179649
13134695 92 18408877451658238956
13140716 1 17908417305430515424
13533116 47 18338523070753500579
13544653 18 18261392209204257066
13681431 1 18336274508585579116
13955234 65 18195529431381339281
14178342 30 17774173296868568043
14341114 328 16056586694684392338
14844126 61 17904470810369874106
14848160 33 18408887351848266047
15342168 16 9943807790150808683
17818456 19 17844831208568171273
1813 80 18341901761735546543
20626108 58 18413099559435153603
20645477 70 18263923418347401367
20832881 197 18260552178405477467
21250096 35 18409445847767425739
21421861 104 18270981118840300193
21452121 199 18334577898014258060
2255824 54 18196100064509383685
23419403 2 17972283374743921364
23526113 38 17894909641784865777
23559900 14 18043813306548340993
23728640 28 17398670099668112554
257057 1 18337673005813780052
3286 77 18261109703620103023
394222 165 17628925822074295657
463206 1 18186519874058652179
59682541 52 18265875021960276567
6025842 7 18121499317778050885
633830 44 8286199457082668755
7364860 26 18269558410585889593
7615 1 17916603036914601497
7808743 9 10518542317551597306
7970288 3 18336827485546584427
81228 2 17979081474639044144
90316 7 18125449613489701681
9841814 1 18341062886093045599

>  <PUBCHEM_SHAPE_MULTIPOLES>  (1) 
391.85
8.37
3.85
1.35
7.07
2.92
-0.07
-9.69
-1.27
-3.65
-0.3
0.1
-0.03
-0.8

>  <PUBCHEM_SHAPE_SELFOVERLAP>  (1) 
817.595

>  <PUBCHEM_SHAPE_VOLUME>  (1) 
223.1

>  <PUBCHEM_COORDINATE_TYPE>  (1) 
2
5
10

$$$$
