34704
     RDKit          3D

 12 11  0  0  0  0  0  0  0  0999 V2000
   -5.6024    0.5040   -0.0552 O   0  0  0  0  0  0  0  0  0  0  0  0
   -6.7880   -0.3385   -0.0907 N   0  0  0  0  0  0  0  0  0  0  0  0
    0.5900   -0.4229    0.0785 C   0  0  0  0  0  0  0  0  0  0  0  0
    1.8934    0.3803    0.1134 C   0  0  0  0  0  0  0  0  0  0  0  0
   -0.6643    0.4534    0.0601 C   0  0  0  0  0  0  0  0  0  0  0  0
    3.1484   -0.4936    0.0569 C   0  0  0  0  0  0  0  0  0  0  0  0
   -1.9356   -0.3995    0.0564 C   0  0  0  0  0  0  0  0  0  0  0  0
    4.4172    0.3617    0.0209 C   0  0  0  0  0  0  0  0  0  0  0  0
   -3.1917    0.4755    0.0078 C   0  0  0  0  0  0  0  0  0  0  0  0
    5.6712   -0.5073   -0.0741 C   0  0  0  0  0  0  0  0  0  0  0  0
   -4.4700   -0.3530   -0.0301 C   0  0  0  0  0  0  0  0  0  0  0  0
    6.9317    0.3399   -0.1438 C   0  0  0  0  0  0  0  0  0  0  0  0
  1  2  1  0
  1 11  1  0
  3  4  1  0
  3  5  1  0
  4  6  1  0
  5  7  1  0
  6  8  1  0
  7  9  1  0
  8 10  1  0
  9 11  1  0
 10 12  1  0
M  END
>  <PUBCHEM_COMPOUND_CID>  (1) 
34704

>  <PUBCHEM_CONFORMER_RMSD>  (1) 
0.8

>  <PUBCHEM_CONFORMER_DIVERSEORDER>  (1) 
1
394
23
16
257
344
33
66
278
360
42
67
312
56
342
258
91
119
347
144
12
118
294
168
381
153
332
50
335
295
102
41
343
117
38
393
19
131
95
152
193
259
58
128
239
36
110
71
378
236
382
86
82
223
174
328
9
197
289
357
13
132
154
70
267
219
367
314
187
89
176
212
309
54
210
390
340
148
199
65
161
35
317
141
361
323
181
39
10
214
45
135
177
44
191
298
359
48
62
26
74
286
396
218
225
201
51
362
18
2
69
213
215
339
8
238
189
315
196
52
271
83
145
165
195
103
385
276
247
366
283
192
241
14
57
373
308
369
275
279
356
209
175
282
380
28
4
17
350
188
293
60
122
352
146
371
3
365
387
228
46
331
265
136
321
327
5
198
395
251
34
105
329
205
349
80
155
232
260
137
243
372
345
130
84
114
143
222
121
364
178
273
53
374
108
138
351
256
15
73
113
285
173
107
24
101
302
296
270
237
207
180
240
25
156
334
305
288
392
81
78
284
37
31
292
76
123
324
68
92
363
255
159
179
220
262
22
115
184
250
244
231
280
30
233
299
160
316
163
383
164
336
49
77
109
171
245
127
158
272
133
172
326
224
125
208
277
99
170
322
64
111
182
313
59
97
11
248
93
40
266
379
139
300
29
124
304
194
150
274
318
337
129
106
162
90
325
389
116
21
85
388
203
63
370
263
27
32
55
384
354
234
377
88
290
157
310
134
249
230
87
61
167
169
229
252
297
98
221
100
96
200
261
149
355
320
269
6
142
291
190
7
358
126
104
186
202
311
120
216
206
211
72
94
204
185
319
79
376
217
281
112
346
183
20
287
264
338
303
47
301
368
140
235
151
166
341
242
227
75
375
306
147
268
254
246
253
333
330
353
348
43
226
391
307
386

>  <PUBCHEM_MMFF94_PARTIAL_CHARGES>  (1) 
5
1 -0.18
11 0.28
2 -0.82
34 0.36
35 0.36

>  <PUBCHEM_EFFECTIVE_ROTOR_COUNT>  (1) 
9

>  <PUBCHEM_PHARMACOPHORE_FEATURES>  (1) 
1
1 12 hydrophobe

>  <PUBCHEM_HEAVY_ATOM_COUNT>  (1) 
12

>  <PUBCHEM_ATOM_DEF_STEREO_COUNT>  (1) 
0

>  <PUBCHEM_ATOM_UDEF_STEREO_COUNT>  (1) 
0

>  <PUBCHEM_BOND_DEF_STEREO_COUNT>  (1) 
0

>  <PUBCHEM_BOND_UDEF_STEREO_COUNT>  (1) 
0

>  <PUBCHEM_ISOTOPIC_ATOM_COUNT>  (1) 
0

>  <PUBCHEM_COMPONENT_COUNT>  (1) 
1

>  <PUBCHEM_CACTVS_TAUTO_COUNT>  (1) 
1

>  <PUBCHEM_CONFORMER_ID>  (1) 
0000879000000001

>  <PUBCHEM_MMFF94_ENERGY>  (1) 
-3.4039

>  <PUBCHEM_FEATURE_SELFOVERLAP>  (1) 
5.074

>  <PUBCHEM_SHAPE_FINGERPRINT>  (1) 
10968037 39 18408886243920257327
12091667 2 18407760335776881969
12714333 28 17022621974824626552
13533116 47 16588292861993838616
14123238 8 18410292501595361906
1420 363 18343024393108921254
14251718 22 18410573980861765106
14251764 46 18409729564532143211
17834072 33 18272931652298928996
17834076 25 18410292510180021734
187816 3 16732703843823888481
20645477 70 18270401569160390310
20767249 213 18040718078020535268
23402539 116 18130782369733781749
23521765 1 18341895194640646150
33684 2 18410572881344875563
42788 4 18410855460133449537
8209 1 18410573989456974452

>  <PUBCHEM_SHAPE_MULTIPOLES>  (1) 
236.1
18.42
0.78
0.61
1.96
0
0
-0.03
-1.14
-0.1
0
-0.1
0
-0.02

>  <PUBCHEM_SHAPE_SELFOVERLAP>  (1) 
415.214

>  <PUBCHEM_SHAPE_VOLUME>  (1) 
155.6

>  <PUBCHEM_COORDINATE_TYPE>  (1) 
2
5
10

$$$$
