34709
     RDKit          3D

 10 10  0  0  1  0  0  0  0  0999 V2000
   -0.2838   -0.7712    0.8048 O   0  0  0  0  0  0  0  0  0  0  0  0
   -2.9428    0.5453    0.3029 O   0  0  0  0  0  0  0  0  0  0  0  0
    0.0563    0.3145   -0.0800 C   0  0  0  0  0  0  0  0  0  0  0  0
   -1.0327    0.3621   -1.1586 C   0  0  0  0  0  0  0  0  0  0  0  0
   -2.1992   -0.3504   -0.5133 C   0  0  0  0  0  0  0  0  0  0  0  0
    1.4323    0.0320   -0.6807 C   0  0  0  0  0  0  0  0  0  0  0  0
   -1.5118   -1.3711    0.3651 C   0  0  0  0  0  0  0  0  0  0  0  0
    0.1057    1.5966    0.7535 C   0  0  0  0  0  0  0  0  0  0  0  0
    2.5013   -0.0514    0.4032 C   0  0  0  0  0  0  0  0  0  0  0  0
    3.8747   -0.3064   -0.1968 C   0  0  0  0  0  0  0  0  0  0  0  0
  1  3  1  0
  1  7  1  0
  2  5  1  0
  3  4  1  0
  3  6  1  0
  3  8  1  0
  4  5  1  0
  5  7  1  0
  6  9  1  0
  9 10  1  0
M  END
>  <PUBCHEM_COMPOUND_CID>  (1) 
34709

>  <PUBCHEM_CONFORMER_RMSD>  (1) 
0.6

>  <PUBCHEM_CONFORMER_DIVERSEORDER>  (1) 
9
11
13
16
10
6
1
12
14
8
15
3
7
2
4
5

>  <PUBCHEM_MMFF94_PARTIAL_CHARGES>  (1) 
6
1 -0.56
2 -0.68
23 0.4
3 0.28
5 0.28
7 0.28

>  <PUBCHEM_EFFECTIVE_ROTOR_COUNT>  (1) 
3

>  <PUBCHEM_PHARMACOPHORE_FEATURES>  (1) 
5
1 1 acceptor
1 10 hydrophobe
1 2 acceptor
1 2 donor
5 1 3 4 5 7 rings

>  <PUBCHEM_HEAVY_ATOM_COUNT>  (1) 
10

>  <PUBCHEM_ATOM_DEF_STEREO_COUNT>  (1) 
0

>  <PUBCHEM_ATOM_UDEF_STEREO_COUNT>  (1) 
2

>  <PUBCHEM_BOND_DEF_STEREO_COUNT>  (1) 
0

>  <PUBCHEM_BOND_UDEF_STEREO_COUNT>  (1) 
0

>  <PUBCHEM_ISOTOPIC_ATOM_COUNT>  (1) 
0

>  <PUBCHEM_COMPONENT_COUNT>  (1) 
1

>  <PUBCHEM_CACTVS_TAUTO_COUNT>  (1) 
1

>  <PUBCHEM_CONFORMER_ID>  (1) 
0000879500000009

>  <PUBCHEM_MMFF94_ENERGY>  (1) 
22.873

>  <PUBCHEM_FEATURE_SELFOVERLAP>  (1) 
25.372

>  <PUBCHEM_SHAPE_FINGERPRINT>  (1) 
11062470 55 17418093213080218828
12932764 1 17385995191932522660
13024252 1 15936413333637427751
14128692 85 17968381272385174502
16945 1 17967802851711587542
20201158 50 18410572881751356398
20653085 51 16660647306532363084
21028194 46 10881397634522126166
21293036 1 12468360163081848022
23235685 24 18335135367309945302
23402539 116 17346312679520822941
23552423 10 17241609601078869886
29004967 10 17988927803028520710
369184 2 18201997729095582790
5084963 1 17896028996419927671

>  <PUBCHEM_SHAPE_MULTIPOLES>  (1) 
194.06
4.59
1.18
0.97
3.49
0.2
-0.12
-0.73
-0.17
-0.35
0.3
-0.14
0.04
0.12

>  <PUBCHEM_SHAPE_SELFOVERLAP>  (1) 
378.41

>  <PUBCHEM_SHAPE_VOLUME>  (1) 
119.3

>  <PUBCHEM_COORDINATE_TYPE>  (1) 
2
5
10

$$$$
