34716
     RDKit          3D

 10 10  0  0  1  0  0  0  0  0999 V2000
   -0.0974    0.9707   -0.2142 O   0  0  0  0  0  0  0  0  0  0  0  0
    0.8390   -2.4880   -0.2060 O   0  0  0  0  0  0  0  0  0  0  0  0
   -1.3913    0.3663   -0.0012 C   0  0  0  0  0  0  0  0  0  0  0  0
   -1.1825   -1.1435   -0.1164 C   0  0  0  0  0  0  0  0  0  0  0  0
    0.8920   -0.0674   -0.3022 C   0  0  0  0  0  0  0  0  0  0  0  0
    0.2596   -1.3064    0.3075 C   0  0  0  0  0  0  0  0  0  0  0  0
    2.1591    0.3723    0.4087 C   0  0  0  0  0  0  0  0  0  0  0  0
   -1.8664    0.7738    1.3953 C   0  0  0  0  0  0  0  0  0  0  0  0
   -2.3546    0.8904   -1.0617 C   0  0  0  0  0  0  0  0  0  0  0  0
    2.7426    1.6320   -0.2099 C   0  0  0  0  0  0  0  0  0  0  0  0
  1  3  1  0
  1  5  1  0
  2  6  1  0
  3  4  1  0
  3  8  1  0
  3  9  1  0
  4  6  1  0
  5  6  1  0
  5  7  1  0
  7 10  1  0
M  END
>  <PUBCHEM_COMPOUND_CID>  (1) 
34716

>  <PUBCHEM_CONFORMER_RMSD>  (1) 
0.4

>  <PUBCHEM_CONFORMER_DIVERSEORDER>  (1) 
1
17
12
15
3
16
7
4
6
13
14
18
10
5
9
8
11
2

>  <PUBCHEM_MMFF94_PARTIAL_CHARGES>  (1) 
6
1 -0.56
2 -0.68
23 0.4
3 0.28
5 0.28
6 0.28

>  <PUBCHEM_EFFECTIVE_ROTOR_COUNT>  (1) 
2

>  <PUBCHEM_PHARMACOPHORE_FEATURES>  (1) 
6
1 1 acceptor
1 10 hydrophobe
1 2 acceptor
1 2 donor
3 3 8 9 hydrophobe
5 1 3 4 5 6 rings

>  <PUBCHEM_HEAVY_ATOM_COUNT>  (1) 
10

>  <PUBCHEM_ATOM_DEF_STEREO_COUNT>  (1) 
0

>  <PUBCHEM_ATOM_UDEF_STEREO_COUNT>  (1) 
2

>  <PUBCHEM_BOND_DEF_STEREO_COUNT>  (1) 
0

>  <PUBCHEM_BOND_UDEF_STEREO_COUNT>  (1) 
0

>  <PUBCHEM_ISOTOPIC_ATOM_COUNT>  (1) 
0

>  <PUBCHEM_COMPONENT_COUNT>  (1) 
1

>  <PUBCHEM_CACTVS_TAUTO_COUNT>  (1) 
1

>  <PUBCHEM_CONFORMER_ID>  (1) 
0000879C00000001

>  <PUBCHEM_MMFF94_ENERGY>  (1) 
23.2813

>  <PUBCHEM_FEATURE_SELFOVERLAP>  (1) 
30.446

>  <PUBCHEM_SHAPE_FINGERPRINT>  (1) 
12423570 1 14308052672269266153
13024252 1 15069725586618939288
16945 1 18267024946890610282
19837323 101 16845026666098963409
20645464 45 18128824212724032560
20871998 184 17836939158500223542
21028194 46 18335420200961676360
21040471 1 18337950194465512996
228727 97 17703502259907495809
23211744 41 17822008692311128833
23552423 10 18269550550911698191
241688 4 17185866195375035778
2748010 2 18409452517898940414
369184 2 17168412874239763552
5084963 1 18343294890344337200

>  <PUBCHEM_SHAPE_MULTIPOLES>  (1) 
194.06
3.35
1.91
0.97
1.28
1.12
-0.18
-1.95
0.14
0.52
0.15
-0.59
-0.28
-0.03

>  <PUBCHEM_SHAPE_SELFOVERLAP>  (1) 
379.538

>  <PUBCHEM_SHAPE_VOLUME>  (1) 
120.3

>  <PUBCHEM_COORDINATE_TYPE>  (1) 
2
5
10

$$$$
