34719
     RDKit          3D

 11 12  0  0  1  0  0  0  0  0999 V2000
    0.1818    0.6986   -0.7237 O   0  0  0  0  0  0  0  0  0  0  0  0
    1.8823   -1.8172   -0.3095 O   0  0  0  0  0  0  0  0  0  0  0  0
   -0.4411   -0.0516    0.3346 C   0  0  0  0  0  0  0  0  0  0  0  0
    0.6707   -0.4829    1.2805 C   0  0  0  0  0  0  0  0  0  0  0  0
   -1.2405   -1.2015   -0.2813 C   0  0  0  0  0  0  0  0  0  0  0  0
   -1.5307    0.7873    0.9938 C   0  0  0  0  0  0  0  0  0  0  0  0
    1.8737   -0.5639    0.3676 C   0  0  0  0  0  0  0  0  0  0  0  0
   -2.5225   -0.5447   -0.7938 C   0  0  0  0  0  0  0  0  0  0  0  0
   -2.6858    0.7526   -0.0030 C   0  0  0  0  0  0  0  0  0  0  0  0
    1.6116    0.5420   -0.6445 C   0  0  0  0  0  0  0  0  0  0  0  0
    2.2005    1.8812   -0.2207 C   0  0  0  0  0  0  0  0  0  0  0  0
  1  3  1  0
  1 10  1  0
  2  7  1  0
  3  4  1  0
  3  5  1  0
  3  6  1  0
  4  7  1  0
  5  8  1  0
  6  9  1  0
  7 10  1  0
  8  9  1  0
 10 11  1  0
M  END
>  <PUBCHEM_COMPOUND_CID>  (1) 
34719

>  <PUBCHEM_CONFORMER_RMSD>  (1) 
0.4

>  <PUBCHEM_CONFORMER_DIVERSEORDER>  (1) 
5
4
3
2
8
1
7
6

>  <PUBCHEM_MMFF94_PARTIAL_CHARGES>  (1) 
6
1 -0.56
10 0.28
2 -0.68
27 0.4
3 0.28
7 0.28

>  <PUBCHEM_EFFECTIVE_ROTOR_COUNT>  (1) 
1.6

>  <PUBCHEM_PHARMACOPHORE_FEATURES>  (1) 
5
1 1 acceptor
1 2 acceptor
1 2 donor
5 1 3 4 7 10 rings
5 3 5 6 8 9 rings

>  <PUBCHEM_HEAVY_ATOM_COUNT>  (1) 
11

>  <PUBCHEM_ATOM_DEF_STEREO_COUNT>  (1) 
0

>  <PUBCHEM_ATOM_UDEF_STEREO_COUNT>  (1) 
2

>  <PUBCHEM_BOND_DEF_STEREO_COUNT>  (1) 
0

>  <PUBCHEM_BOND_UDEF_STEREO_COUNT>  (1) 
0

>  <PUBCHEM_ISOTOPIC_ATOM_COUNT>  (1) 
0

>  <PUBCHEM_COMPONENT_COUNT>  (1) 
1

>  <PUBCHEM_CACTVS_TAUTO_COUNT>  (1) 
1

>  <PUBCHEM_CONFORMER_ID>  (1) 
0000879F00000005

>  <PUBCHEM_MMFF94_ENERGY>  (1) 
28.5562

>  <PUBCHEM_FEATURE_SELFOVERLAP>  (1) 
25.395

>  <PUBCHEM_SHAPE_FINGERPRINT>  (1) 
12326174 3 17894904101509130210
12423570 1 8762295426460915185
12897270 3 18198344146240106901
14128692 85 18130509630588974494
15219459 52 18340487772639339175
15310529 11 18271527588988063839
15775835 57 18335990830295855373
16945 1 18409733928261107522
20645464 45 16733265737109781912
20653085 51 18261110712921645053
207724 885 18195534683620011195
21040471 1 17604439633609433328
21922407 69 18343586273594270113
23552423 10 18413103935869658351
2748010 2 17822867483806658690
29004967 10 16877663439597051721
3248919 1 18411408523388783587
369184 2 12901818484526778637
5084963 1 18200589181770308331
63268167 104 18261114053947226344
7364860 26 18272088297031840520
8030462 33 18060416936828177165

>  <PUBCHEM_SHAPE_MULTIPOLES>  (1) 
214.64
3.63
1.56
1.03
0.88
0.02
0.19
-0.58
-0.56
-0.8
-0.14
0.08
0
-0.4

>  <PUBCHEM_SHAPE_SELFOVERLAP>  (1) 
443.027

>  <PUBCHEM_SHAPE_VOLUME>  (1) 
125.9

>  <PUBCHEM_COORDINATE_TYPE>  (1) 
2
5
10

$$$$
