34714
     RDKit          3D

  9  9  0  0  1  0  0  0  0  0999 V2000
    0.3799   -1.0736   -0.3602 O   0  0  0  0  0  0  0  0  0  0  0  0
   -2.1097    1.4903   -0.0986 O   0  0  0  0  0  0  0  0  0  0  0  0
    1.2162    0.0444    0.0078 C   0  0  0  0  0  0  0  0  0  0  0  0
    0.3071    1.2732    0.0194 C   0  0  0  0  0  0  0  0  0  0  0  0
   -1.0434    0.6764    0.3446 C   0  0  0  0  0  0  0  0  0  0  0  0
   -0.9856   -0.6311   -0.4260 C   0  0  0  0  0  0  0  0  0  0  0  0
    1.7980   -0.2507    1.3921 C   0  0  0  0  0  0  0  0  0  0  0  0
    2.3360    0.1745   -1.0200 C   0  0  0  0  0  0  0  0  0  0  0  0
   -1.8984   -1.7035    0.1408 C   0  0  0  0  0  0  0  0  0  0  0  0
  1  3  1  0
  1  6  1  0
  2  5  1  0
  3  4  1  0
  3  7  1  0
  3  8  1  0
  4  5  1  0
  5  6  1  0
  6  9  1  0
M  END
>  <PUBCHEM_COMPOUND_CID>  (1) 
34714

>  <PUBCHEM_CONFORMER_RMSD>  (1) 
0.4

>  <PUBCHEM_CONFORMER_DIVERSEORDER>  (1) 
3
1
2
7
5
4
6
8

>  <PUBCHEM_MMFF94_PARTIAL_CHARGES>  (1) 
6
1 -0.56
2 -0.68
23 0.4
3 0.28
5 0.28
6 0.28

>  <PUBCHEM_EFFECTIVE_ROTOR_COUNT>  (1) 
1

>  <PUBCHEM_PHARMACOPHORE_FEATURES>  (1) 
5
1 1 acceptor
1 2 acceptor
1 2 donor
3 3 7 8 hydrophobe
5 1 3 4 5 6 rings

>  <PUBCHEM_HEAVY_ATOM_COUNT>  (1) 
9

>  <PUBCHEM_ATOM_DEF_STEREO_COUNT>  (1) 
0

>  <PUBCHEM_ATOM_UDEF_STEREO_COUNT>  (1) 
2

>  <PUBCHEM_BOND_DEF_STEREO_COUNT>  (1) 
0

>  <PUBCHEM_BOND_UDEF_STEREO_COUNT>  (1) 
0

>  <PUBCHEM_ISOTOPIC_ATOM_COUNT>  (1) 
0

>  <PUBCHEM_COMPONENT_COUNT>  (1) 
1

>  <PUBCHEM_CACTVS_TAUTO_COUNT>  (1) 
1

>  <PUBCHEM_CONFORMER_ID>  (1) 
0000879A00000003

>  <PUBCHEM_MMFF94_ENERGY>  (1) 
23.4427

>  <PUBCHEM_FEATURE_SELFOVERLAP>  (1) 
25.371

>  <PUBCHEM_SHAPE_FINGERPRINT>  (1) 
12423570 1 17557414680883112034
137420 1 11833528692160085576
16945 1 18411415116100155905
18185500 45 18186791483220150346
21040471 1 18268709402988774401
21922407 69 17530681034821873160
23235685 24 18270687441650498017
23552333 60 17386552704040778458
23552423 10 18261118448004855294
24536 1 18342166782697626076
29004967 10 18053949725155317530
5084963 1 17845384386684678486

>  <PUBCHEM_SHAPE_MULTIPOLES>  (1) 
173.48
2.88
1.52
1
0.17
0.15
0.18
-0.32
-0.16
-1.03
0.01
0.65
-0.11
-0.1

>  <PUBCHEM_SHAPE_SELFOVERLAP>  (1) 
340.646

>  <PUBCHEM_SHAPE_VOLUME>  (1) 
107.4

>  <PUBCHEM_COORDINATE_TYPE>  (1) 
2
5
10

$$$$
