34715
     RDKit          3D

 11 11  0  0  1  0  0  0  0  0999 V2000
   -1.5884    0.5170   -0.2788 O   0  0  0  0  0  0  0  0  0  0  0  0
    1.0415   -0.1411   -1.5464 O   0  0  0  0  0  0  0  0  0  0  0  0
    0.7043   -0.1004   -0.1542 C   0  0  0  0  0  0  0  0  0  0  0  0
   -0.2959    1.0485    0.1021 C   0  0  0  0  0  0  0  0  0  0  0  0
   -0.1414   -1.3241    0.1568 C   0  0  0  0  0  0  0  0  0  0  0  0
   -1.4991   -0.9135   -0.3992 C   0  0  0  0  0  0  0  0  0  0  0  0
    2.0049   -0.0453    0.6363 C   0  0  0  0  0  0  0  0  0  0  0  0
   -0.0395    2.2963   -0.7462 C   0  0  0  0  0  0  0  0  0  0  0  0
   -0.4169    1.4577    1.5776 C   0  0  0  0  0  0  0  0  0  0  0  0
   -2.6651   -1.5601    0.3247 C   0  0  0  0  0  0  0  0  0  0  0  0
    2.8955   -1.2351    0.3274 C   0  0  0  0  0  0  0  0  0  0  0  0
  1  4  1  0
  1  6  1  0
  2  3  1  0
  3  4  1  0
  3  5  1  0
  3  7  1  0
  4  8  1  0
  4  9  1  0
  5  6  1  0
  6 10  1  0
  7 11  1  0
M  END
>  <PUBCHEM_COMPOUND_CID>  (1) 
34715

>  <PUBCHEM_CONFORMER_RMSD>  (1) 
0.4

>  <PUBCHEM_CONFORMER_DIVERSEORDER>  (1) 
2
12
8
14
13
11
9
1
6
10
5
3
4
7

>  <PUBCHEM_MMFF94_PARTIAL_CHARGES>  (1) 
6
1 -0.56
2 -0.68
26 0.4
3 0.28
4 0.28
6 0.28

>  <PUBCHEM_EFFECTIVE_ROTOR_COUNT>  (1) 
2

>  <PUBCHEM_PHARMACOPHORE_FEATURES>  (1) 
6
1 1 acceptor
1 11 hydrophobe
1 2 acceptor
1 2 donor
3 4 8 9 hydrophobe
5 1 3 4 5 6 rings

>  <PUBCHEM_HEAVY_ATOM_COUNT>  (1) 
11

>  <PUBCHEM_ATOM_DEF_STEREO_COUNT>  (1) 
0

>  <PUBCHEM_ATOM_UDEF_STEREO_COUNT>  (1) 
2

>  <PUBCHEM_BOND_DEF_STEREO_COUNT>  (1) 
0

>  <PUBCHEM_BOND_UDEF_STEREO_COUNT>  (1) 
0

>  <PUBCHEM_ISOTOPIC_ATOM_COUNT>  (1) 
0

>  <PUBCHEM_COMPONENT_COUNT>  (1) 
1

>  <PUBCHEM_CACTVS_TAUTO_COUNT>  (1) 
1

>  <PUBCHEM_CONFORMER_ID>  (1) 
0000879B00000002

>  <PUBCHEM_MMFF94_ENERGY>  (1) 
32.7251

>  <PUBCHEM_FEATURE_SELFOVERLAP>  (1) 
30.447

>  <PUBCHEM_SHAPE_FINGERPRINT>  (1) 
12423570 1 15663062317663789753
13024252 1 15286496314280054368
137420 1 17329209874117214113
14128692 85 18114464555999202478
14817 1 10852571986931787933
16945 1 18045483245118870578
20653091 64 18050294957379309539
21040471 1 17833838161746832644
21930827 45 17556606265027315952
23552423 10 18186800253754677010
241688 4 18335981991120921312
2748010 2 18337939173294575454
29004967 10 18262793106918393090
369184 2 18267853996133124394
5084963 1 18127399052259398992
528862 383 17830722519503369016

>  <PUBCHEM_SHAPE_MULTIPOLES>  (1) 
214.64
3.01
2.06
1.14
0.53
0.81
0.07
-2.19
0.38
-0.38
0.02
0.11
0.41
-0.06

>  <PUBCHEM_SHAPE_SELFOVERLAP>  (1) 
425.038

>  <PUBCHEM_SHAPE_VOLUME>  (1) 
131.2

>  <PUBCHEM_COORDINATE_TYPE>  (1) 
2
5
10

$$$$
