34727
     RDKit          3D

 12 12  0  0  1  0  0  0  0  0999 V2000
   -0.4949    0.8261   -0.2353 O   0  0  0  0  0  0  0  0  0  0  0  0
   -1.2321   -2.6805   -0.2274 O   0  0  0  0  0  0  0  0  0  0  0  0
   -1.9162    0.8743    0.0143 C   0  0  0  0  0  0  0  0  0  0  0  0
   -0.0877   -0.5477   -0.3412 C   0  0  0  0  0  0  0  0  0  0  0  0
   -1.1982   -1.3675    0.2926 C   0  0  0  0  0  0  0  0  0  0  0  0
   -2.4191   -0.5649   -0.0960 C   0  0  0  0  0  0  0  0  0  0  0  0
    1.2585   -0.7355    0.3347 C   0  0  0  0  0  0  0  0  0  0  0  0
   -2.1186    1.4456    1.4195 C   0  0  0  0  0  0  0  0  0  0  0  0
   -2.5630    1.7846   -1.0251 C   0  0  0  0  0  0  0  0  0  0  0  0
    2.3378    0.1357   -0.3097 C   0  0  0  0  0  0  0  0  0  0  0  0
    3.6836   -0.0304    0.3956 C   0  0  0  0  0  0  0  0  0  0  0  0
    4.7499    0.8601   -0.2221 C   0  0  0  0  0  0  0  0  0  0  0  0
  1  3  1  0
  1  4  1  0
  2  5  1  0
  3  6  1  0
  3  8  1  0
  3  9  1  0
  4  5  1  0
  4  7  1  0
  5  6  1  0
  7 10  1  0
 10 11  1  0
 11 12  1  0
M  END
>  <PUBCHEM_COMPOUND_CID>  (1) 
34727

>  <PUBCHEM_CONFORMER_RMSD>  (1) 
0.6

>  <PUBCHEM_CONFORMER_DIVERSEORDER>  (1) 
1
11
4
10
31
30
20
26
28
8
25
32
5
27
33
6
18
24
13
2
9
15
29
7
3
19
14
21
16
22
17
12
23

>  <PUBCHEM_MMFF94_PARTIAL_CHARGES>  (1) 
6
1 -0.56
2 -0.68
27 0.4
3 0.28
4 0.28
5 0.28

>  <PUBCHEM_EFFECTIVE_ROTOR_COUNT>  (1) 
4

>  <PUBCHEM_PHARMACOPHORE_FEATURES>  (1) 
6
1 1 acceptor
1 12 hydrophobe
1 2 acceptor
1 2 donor
3 3 8 9 hydrophobe
5 1 3 4 5 6 rings

>  <PUBCHEM_HEAVY_ATOM_COUNT>  (1) 
12

>  <PUBCHEM_ATOM_DEF_STEREO_COUNT>  (1) 
0

>  <PUBCHEM_ATOM_UDEF_STEREO_COUNT>  (1) 
2

>  <PUBCHEM_BOND_DEF_STEREO_COUNT>  (1) 
0

>  <PUBCHEM_BOND_UDEF_STEREO_COUNT>  (1) 
0

>  <PUBCHEM_ISOTOPIC_ATOM_COUNT>  (1) 
0

>  <PUBCHEM_COMPONENT_COUNT>  (1) 
1

>  <PUBCHEM_CACTVS_TAUTO_COUNT>  (1) 
1

>  <PUBCHEM_CONFORMER_ID>  (1) 
000087A700000001

>  <PUBCHEM_MMFF94_ENERGY>  (1) 
22.8863

>  <PUBCHEM_FEATURE_SELFOVERLAP>  (1) 
30.446

>  <PUBCHEM_SHAPE_FINGERPRINT>  (1) 
12138202 97 18342731905878392014
12932764 1 18040152894974192376
13024252 1 15213016063996796219
13214271 11 16877947126666646572
13380535 21 18340216206537386506
14144814 61 18333447638742029330
14325111 11 18408321069184365102
14897335 6 18336256856422648422
15669948 3 18337944688470823066
15775835 57 18260546680304038808
16945 1 18264190556528209459
18186145 218 18198913521986680070
20510252 161 18343304764379147059
20645464 45 18272658921828127806
20645477 56 18411705391623202572
20653085 51 16628853768068502889
20871998 184 18270969058329721599
21499 59 18193265313448637093
23402539 116 18343013437101192679
23500284 214 18200884988968723896
23557571 272 18130516348023125790
23559900 14 18272652325797474162
2748010 2 18193006928126477775
3248919 1 18060134293863052510
6333449 129 18413388743624588814
81228 2 18266188399025815131

>  <PUBCHEM_SHAPE_MULTIPOLES>  (1) 
235.22
6.42
1.95
0.93
9.77
0.8
-0.17
-2.77
0.14
-1.63
0.13
-0.53
-0.38
-0.11

>  <PUBCHEM_SHAPE_SELFOVERLAP>  (1) 
455.343

>  <PUBCHEM_SHAPE_VOLUME>  (1) 
146.4

>  <PUBCHEM_COORDINATE_TYPE>  (1) 
2
5
10

$$$$
