34723
     RDKit          3D

 11 11  0  0  1  0  0  0  0  0999 V2000
    0.0001   -1.3347    0.0011 O   0  0  0  0  0  0  0  0  0  0  0  0
    1.5335    1.9153    0.1821 O   0  0  0  0  0  0  0  0  0  0  0  0
   -1.5338    1.9151   -0.1826 O   0  0  0  0  0  0  0  0  0  0  0  0
    1.1796   -0.5021   -0.0527 C   0  0  0  0  0  0  0  0  0  0  0  0
   -1.1796   -0.5022    0.0530 C   0  0  0  0  0  0  0  0  0  0  0  0
    0.6773    0.9163   -0.3393 C   0  0  0  0  0  0  0  0  0  0  0  0
   -0.6774    0.9165    0.3391 C   0  0  0  0  0  0  0  0  0  0  0  0
    2.0789   -1.0159   -1.1754 C   0  0  0  0  0  0  0  0  0  0  0  0
    1.9015   -0.6460    1.2921 C   0  0  0  0  0  0  0  0  0  0  0  0
   -2.0801   -1.0151    1.1750 C   0  0  0  0  0  0  0  0  0  0  0  0
   -1.9001   -0.6470   -1.2924 C   0  0  0  0  0  0  0  0  0  0  0  0
  1  4  1  0
  1  5  1  0
  2  6  1  0
  3  7  1  0
  4  6  1  0
  4  8  1  0
  4  9  1  0
  5  7  1  0
  5 10  1  0
  5 11  1  0
  6  7  1  0
M  END
>  <PUBCHEM_COMPOUND_CID>  (1) 
34723

>  <PUBCHEM_CONFORMER_RMSD>  (1) 
0.4

>  <PUBCHEM_CONFORMER_DIVERSEORDER>  (1) 
3
2
4
1
6
5

>  <PUBCHEM_MMFF94_PARTIAL_CHARGES>  (1) 
9
1 -0.56
2 -0.68
26 0.4
27 0.4
3 -0.68
4 0.28
5 0.28
6 0.28
7 0.28

>  <PUBCHEM_EFFECTIVE_ROTOR_COUNT>  (1) 
1

>  <PUBCHEM_PHARMACOPHORE_FEATURES>  (1) 
8
1 1 acceptor
1 2 acceptor
1 2 donor
1 3 acceptor
1 3 donor
3 4 8 9 hydrophobe
3 5 10 11 hydrophobe
5 1 4 5 6 7 rings

>  <PUBCHEM_HEAVY_ATOM_COUNT>  (1) 
11

>  <PUBCHEM_ATOM_DEF_STEREO_COUNT>  (1) 
0

>  <PUBCHEM_ATOM_UDEF_STEREO_COUNT>  (1) 
2

>  <PUBCHEM_BOND_DEF_STEREO_COUNT>  (1) 
0

>  <PUBCHEM_BOND_UDEF_STEREO_COUNT>  (1) 
0

>  <PUBCHEM_ISOTOPIC_ATOM_COUNT>  (1) 
0

>  <PUBCHEM_COMPONENT_COUNT>  (1) 
1

>  <PUBCHEM_CACTVS_TAUTO_COUNT>  (1) 
1

>  <PUBCHEM_CONFORMER_ID>  (1) 
000087A300000003

>  <PUBCHEM_MMFF94_ENERGY>  (1) 
37.6081

>  <PUBCHEM_FEATURE_SELFOVERLAP>  (1) 
40.596

>  <PUBCHEM_SHAPE_FINGERPRINT>  (1) 
12423570 1 11158185354324264158
12524768 44 18268716180431317327
13024252 1 16956245518770980982
161256 15 18267042693605793605
16945 1 18410570686616795175
21040471 1 17832706772797926096
21922407 69 16916505998572331739
23552423 10 18041852808047829124
241688 4 17981601572358551554
2748010 2 18410294722135970397
29004967 10 18044945816103754417
369184 2 16056591024074320627
5084963 1 17775003487744357127

>  <PUBCHEM_SHAPE_MULTIPOLES>  (1) 
208.77
2.85
1.73
1.22
0
0.86
0
-0.62
0
0
0
0
-0.44
0.21

>  <PUBCHEM_SHAPE_SELFOVERLAP>  (1) 
417.816

>  <PUBCHEM_SHAPE_VOLUME>  (1) 
127.1

>  <PUBCHEM_COORDINATE_TYPE>  (1) 
2
5
10

$$$$
