34725
     RDKit          3D

 12 12  0  0  1  0  0  0  0  0999 V2000
   -1.1928    0.9658   -0.2513 O   0  0  0  0  0  0  0  0  0  0  0  0
    0.1160   -1.7021   -1.1587 O   0  0  0  0  0  0  0  0  0  0  0  0
    2.7559   -1.4836    0.6659 O   0  0  0  0  0  0  0  0  0  0  0  0
    0.8742   -0.0284    0.4441 C   0  0  0  0  0  0  0  0  0  0  0  0
    0.2218    1.2442   -0.1394 C   0  0  0  0  0  0  0  0  0  0  0  0
   -1.4736   -0.3837    0.1734 C   0  0  0  0  0  0  0  0  0  0  0  0
   -0.1331   -1.1276    0.1178 C   0  0  0  0  0  0  0  0  0  0  0  0
    2.3058   -0.3121    0.0085 C   0  0  0  0  0  0  0  0  0  0  0  0
    0.7087    1.6621   -1.5308 C   0  0  0  0  0  0  0  0  0  0  0  0
    0.3872    2.4346    0.8125 C   0  0  0  0  0  0  0  0  0  0  0  0
   -2.0198   -0.3130    1.6066 C   0  0  0  0  0  0  0  0  0  0  0  0
   -2.5503   -0.9560   -0.7485 C   0  0  0  0  0  0  0  0  0  0  0  0
  1  5  1  0
  1  6  1  0
  2  7  1  0
  3  8  1  0
  4  5  1  0
  4  7  1  0
  4  8  1  0
  5  9  1  0
  5 10  1  0
  6  7  1  0
  6 11  1  0
  6 12  1  0
M  END
>  <PUBCHEM_COMPOUND_CID>  (1) 
34725

>  <PUBCHEM_CONFORMER_RMSD>  (1) 
0.6

>  <PUBCHEM_CONFORMER_DIVERSEORDER>  (1) 
1
4
2
3

>  <PUBCHEM_MMFF94_PARTIAL_CHARGES>  (1) 
9
1 -0.56
2 -0.68
29 0.4
3 -0.68
30 0.4
5 0.28
6 0.28
7 0.28
8 0.28

>  <PUBCHEM_EFFECTIVE_ROTOR_COUNT>  (1) 
2

>  <PUBCHEM_PHARMACOPHORE_FEATURES>  (1) 
8
1 1 acceptor
1 2 acceptor
1 2 donor
1 3 acceptor
1 3 donor
3 5 9 10 hydrophobe
3 6 11 12 hydrophobe
5 1 4 5 6 7 rings

>  <PUBCHEM_HEAVY_ATOM_COUNT>  (1) 
12

>  <PUBCHEM_ATOM_DEF_STEREO_COUNT>  (1) 
0

>  <PUBCHEM_ATOM_UDEF_STEREO_COUNT>  (1) 
2

>  <PUBCHEM_BOND_DEF_STEREO_COUNT>  (1) 
0

>  <PUBCHEM_BOND_UDEF_STEREO_COUNT>  (1) 
0

>  <PUBCHEM_ISOTOPIC_ATOM_COUNT>  (1) 
0

>  <PUBCHEM_COMPONENT_COUNT>  (1) 
1

>  <PUBCHEM_CACTVS_TAUTO_COUNT>  (1) 
1

>  <PUBCHEM_CONFORMER_ID>  (1) 
000087A500000001

>  <PUBCHEM_MMFF94_ENERGY>  (1) 
41.3989

>  <PUBCHEM_FEATURE_SELFOVERLAP>  (1) 
40.596

>  <PUBCHEM_SHAPE_FINGERPRINT>  (1) 
12423570 1 14563674088851608131
13024252 1 17170112543264986410
137420 1 14518451188327736469
14128692 85 18128524050001797359
14993402 34 18271804669976035926
16945 1 18042135412727643132
18185500 45 18053377996399422030
20511035 2 18263363745190276237
21040471 1 17543348710217690413
23552423 10 17974848676846662031
241688 4 18341320120020993819
2748010 2 18339350890606589604
29004967 10 17894916264740318456
369184 2 17202180955346149954
5084963 1 18117840125668905739
528862 383 17971211445163459080

>  <PUBCHEM_SHAPE_MULTIPOLES>  (1) 
229.35
2.95
2.1
1.28
0.56
0.55
0.05
-1.18
-0.29
-1.16
0
0.27
0.19
-0.41

>  <PUBCHEM_SHAPE_SELFOVERLAP>  (1) 
456.441

>  <PUBCHEM_SHAPE_VOLUME>  (1) 
139.5

>  <PUBCHEM_COORDINATE_TYPE>  (1) 
2
5
10

$$$$
