34724
     RDKit          3D

 14 14  0  0  1  0  0  0  0  0999 V2000
   -1.1555    1.3041   -0.3295 O   0  0  0  0  0  0  0  0  0  0  0  0
   -0.3713   -1.4322   -1.2818 O   0  0  0  0  0  0  0  0  0  0  0  0
   -0.7432   -2.0385    0.9384 O   0  0  0  0  0  0  0  0  0  0  0  0
    2.2127   -1.2934   -0.8167 O   0  0  0  0  0  0  0  0  0  0  0  0
    2.9670   -0.2025    1.0635 N   0  0  0  0  0  0  0  0  0  0  0  0
    0.6332   -0.0529    0.4822 C   0  0  0  0  0  0  0  0  0  0  0  0
    0.2845    1.2956   -0.1729 C   0  0  0  0  0  0  0  0  0  0  0  0
   -1.7063    0.0382    0.0974 C   0  0  0  0  0  0  0  0  0  0  0  0
   -0.5235   -0.9546    0.0519 C   0  0  0  0  0  0  0  0  0  0  0  0
    0.8714    1.5152   -1.5725 C   0  0  0  0  0  0  0  0  0  0  0  0
    0.6662    2.4725    0.7273 C   0  0  0  0  0  0  0  0  0  0  0  0
   -2.2849    0.2441    1.5073 C   0  0  0  0  0  0  0  0  0  0  0  0
   -2.8515   -0.3165   -0.8552 C   0  0  0  0  0  0  0  0  0  0  0  0
    2.0012   -0.5791    0.1603 C   0  0  0  0  0  0  0  0  0  0  0  0
  1  7  1  0
  1  8  1  0
  2  9  1  0
  3  9  1  0
  4 14  2  0
  5 14  1  0
  6  7  1  0
  6  9  1  0
  6 14  1  0
  7 10  1  0
  7 11  1  0
  8  9  1  0
  8 12  1  0
  8 13  1  0
M  END
>  <PUBCHEM_COMPOUND_CID>  (1) 
34724

>  <PUBCHEM_CONFORMER_RMSD>  (1) 
0.6

>  <PUBCHEM_CONFORMER_DIVERSEORDER>  (1) 
1
8
3
6
2
4
5
7

>  <PUBCHEM_MMFF94_PARTIAL_CHARGES>  (1) 
14
1 -0.56
14 0.57
2 -0.68
28 0.4
29 0.4
3 -0.68
30 0.37
31 0.37
4 -0.57
5 -0.8
6 0.06
7 0.28
8 0.28
9 0.56

>  <PUBCHEM_EFFECTIVE_ROTOR_COUNT>  (1) 
2

>  <PUBCHEM_PHARMACOPHORE_FEATURES>  (1) 
10
1 1 acceptor
1 2 acceptor
1 2 donor
1 3 acceptor
1 3 donor
1 4 acceptor
1 5 donor
3 7 10 11 hydrophobe
3 8 12 13 hydrophobe
5 1 6 7 8 9 rings

>  <PUBCHEM_HEAVY_ATOM_COUNT>  (1) 
14

>  <PUBCHEM_ATOM_DEF_STEREO_COUNT>  (1) 
0

>  <PUBCHEM_ATOM_UDEF_STEREO_COUNT>  (1) 
1

>  <PUBCHEM_BOND_DEF_STEREO_COUNT>  (1) 
0

>  <PUBCHEM_BOND_UDEF_STEREO_COUNT>  (1) 
0

>  <PUBCHEM_ISOTOPIC_ATOM_COUNT>  (1) 
0

>  <PUBCHEM_COMPONENT_COUNT>  (1) 
1

>  <PUBCHEM_CACTVS_TAUTO_COUNT>  (1) 
2

>  <PUBCHEM_CONFORMER_ID>  (1) 
000087A400000001

>  <PUBCHEM_MMFF94_ENERGY>  (1) 
45.6767

>  <PUBCHEM_FEATURE_SELFOVERLAP>  (1) 
50.845

>  <PUBCHEM_SHAPE_FINGERPRINT>  (1) 
10353120 184 18117579356518435165
12423570 1 8645117350043021757
12524768 44 18412544314605289362
13024252 1 17532081709651429106
13172582 1 18410017606529699946
13380536 237 17904746023225562225
13839132 238 15697455316400922729
14181834 199 18264193884837765948
14993402 34 18343013406561349479
16945 1 18114189609303924078
20511035 2 18120087535756904791
21501502 16 18045228399272042363
21922407 69 17415283015920423913
22344851 262 17773860051633673086
23419403 2 15466539371780331262
23552423 10 17679871693025354710
241688 4 18199466558707267315
2748010 2 18121497951435125134
369184 2 18270386196986608474
5084963 1 18411133662735477307
528862 383 17824846630469574772
54276843 12 18121247322987419696
63268167 104 18411695525882922105
68250623 7 17828797214534761571

>  <PUBCHEM_SHAPE_MULTIPOLES>  (1) 
259.66
3.27
2.03
1.34
0.13
0.56
0.1
-0.68
-0.38
-0.55
-0.02
0.12
0.11
-0.07

>  <PUBCHEM_SHAPE_SELFOVERLAP>  (1) 
532.319

>  <PUBCHEM_SHAPE_VOLUME>  (1) 
152.3

>  <PUBCHEM_COORDINATE_TYPE>  (1) 
2
5
10

$$$$
