34733
     RDKit          3D

 12 12  0  0  1  0  0  0  0  0999 V2000
    0.0744    0.8195    0.6607 O   0  0  0  0  0  0  0  0  0  0  0  0
    2.3859   -1.3980   -0.9867 O   0  0  0  0  0  0  0  0  0  0  0  0
   -0.8496   -0.0647   -0.0091 C   0  0  0  0  0  0  0  0  0  0  0  0
    1.4286    0.4381    0.3375 C   0  0  0  0  0  0  0  0  0  0  0  0
   -0.0090   -1.1748   -0.6373 C   0  0  0  0  0  0  0  0  0  0  0  0
    1.3146   -0.4833   -0.8793 C   0  0  0  0  0  0  0  0  0  0  0  0
   -1.5913    0.7587   -1.0652 C   0  0  0  0  0  0  0  0  0  0  0  0
   -1.8344   -0.6100    1.0208 C   0  0  0  0  0  0  0  0  0  0  0  0
    2.0275   -0.2403    1.5750 C   0  0  0  0  0  0  0  0  0  0  0  0
    2.2207    1.7033    0.0134 C   0  0  0  0  0  0  0  0  0  0  0  0
   -2.3948    1.8764   -0.4297 C   0  0  0  0  0  0  0  0  0  0  0  0
   -2.7727   -1.6248    0.4001 C   0  0  0  0  0  0  0  0  0  0  0  0
  1  3  1  0
  1  4  1  0
  2  6  1  0
  3  5  1  0
  3  7  1  0
  3  8  1  0
  4  6  1  0
  4  9  1  0
  4 10  1  0
  5  6  1  0
  7 11  1  0
  8 12  1  0
M  END
>  <PUBCHEM_COMPOUND_CID>  (1) 
34733

>  <PUBCHEM_CONFORMER_RMSD>  (1) 
0.6

>  <PUBCHEM_CONFORMER_DIVERSEORDER>  (1) 
5
4
11
9
8
1
3
10
6
7
2

>  <PUBCHEM_MMFF94_PARTIAL_CHARGES>  (1) 
6
1 -0.56
2 -0.68
3 0.28
32 0.4
4 0.28
6 0.28

>  <PUBCHEM_EFFECTIVE_ROTOR_COUNT>  (1) 
3

>  <PUBCHEM_PHARMACOPHORE_FEATURES>  (1) 
7
1 1 acceptor
1 11 hydrophobe
1 12 hydrophobe
1 2 acceptor
1 2 donor
3 4 9 10 hydrophobe
5 1 3 4 5 6 rings

>  <PUBCHEM_HEAVY_ATOM_COUNT>  (1) 
12

>  <PUBCHEM_ATOM_DEF_STEREO_COUNT>  (1) 
0

>  <PUBCHEM_ATOM_UDEF_STEREO_COUNT>  (1) 
1

>  <PUBCHEM_BOND_DEF_STEREO_COUNT>  (1) 
0

>  <PUBCHEM_BOND_UDEF_STEREO_COUNT>  (1) 
0

>  <PUBCHEM_ISOTOPIC_ATOM_COUNT>  (1) 
0

>  <PUBCHEM_COMPONENT_COUNT>  (1) 
1

>  <PUBCHEM_CACTVS_TAUTO_COUNT>  (1) 
1

>  <PUBCHEM_CONFORMER_ID>  (1) 
000087AD00000005

>  <PUBCHEM_MMFF94_ENERGY>  (1) 
35.252

>  <PUBCHEM_FEATURE_SELFOVERLAP>  (1) 
35.522

>  <PUBCHEM_SHAPE_FINGERPRINT>  (1) 
12138202 97 18116433648523220951
12423570 1 15037673268112679911
12932764 1 17676490510234140249
13571099 52 17843371069293779201
13839132 238 18334010575304471549
14252887 29 18046929335307622707
14648413 74 18411142394193272940
15219456 202 18413393132975696333
16945 1 18117267060867100789
17844478 74 18338529649856959515
18380122 1 18267306615161811921
19973954 147 18410012130510019253
20082192 1 18413111662315032769
20511035 2 17987511520377540460
20653085 51 18058443206272489125
20711978 78 16988299615298729471
20711985 344 18114191813070604891
21040471 1 17988346161546264748
21501502 16 18335136501170826881
21922407 69 16370732551301715452
21930827 45 18262239889735300285
23235685 24 17630893900485002008
2748010 2 18272371953477436900
369184 2 17749936851919349617
5084963 1 18202288017129095382
8030462 33 17168145649974986651
81228 2 18113625607769356617

>  <PUBCHEM_SHAPE_MULTIPOLES>  (1) 
235.22
3.83
1.81
1.23
0.47
0.46
-0.12
-0.06
-0.33
0.66
0.2
-0.41
-0.26
0.64

>  <PUBCHEM_SHAPE_SELFOVERLAP>  (1) 
465.532

>  <PUBCHEM_SHAPE_VOLUME>  (1) 
144.2

>  <PUBCHEM_COORDINATE_TYPE>  (1) 
2
5
10

$$$$
