34747
     RDKit          3D

 13 12  0  0  1  0  0  0  0  0999 V2000
   -0.8637   -1.7117    1.2056 O   0  0  0  0  0  0  0  0  0  0  0  0
   -1.5310   -0.9484   -1.5087 O   0  0  0  0  0  0  0  0  0  0  0  0
    1.9329   -1.4736    0.9356 O   0  0  0  0  0  0  0  0  0  0  0  0
   -2.5600    1.3007    1.2137 O   0  0  0  0  0  0  0  0  0  0  0  0
    3.0456   -0.1614   -1.2698 O   0  0  0  0  0  0  0  0  0  0  0  0
    3.1317    1.7701    0.5609 O   0  0  0  0  0  0  0  0  0  0  0  0
   -0.2924   -0.5803    0.5518 C   0  0  0  0  0  0  0  0  0  0  0  0
   -1.3466   -0.0264   -0.4364 C   0  0  0  0  0  0  0  0  0  0  0  0
    1.0726   -0.9516   -0.0760 C   0  0  0  0  0  0  0  0  0  0  0  0
   -2.7111    0.3294    0.1841 C   0  0  0  0  0  0  0  0  0  0  0  0
    1.7873    0.2309   -0.7549 C   0  0  0  0  0  0  0  0  0  0  0  0
   -3.6892    0.8762   -0.8526 C   0  0  0  0  0  0  0  0  0  0  0  0
    2.0240    1.3459    0.2467 C   0  0  0  0  0  0  0  0  0  0  0  0
  1  7  1  0
  2  8  1  0
  3  9  1  0
  4 10  1  0
  5 11  1  0
  6 13  2  0
  7  8  1  0
  7  9  1  0
  8 10  1  0
  9 11  1  0
 10 12  1  0
 11 13  1  0
M  END
>  <PUBCHEM_COMPOUND_CID>  (1) 
34747

>  <PUBCHEM_CONFORMER_RMSD>  (1) 
0.8

>  <PUBCHEM_CONFORMER_DIVERSEORDER>  (1) 
38
377
550
480
166
335
8
469
161
421
233
558
378
156
88
265
387
536
424
121
309
476
518
352
280
16
72
44
298
449
69
47
408
353
19
403
539
63
465
492
355
549
228
54
380
33
460
215
28
441
538
332
4
316
315
348
136
219
249
178
495
308
64
3
275
430
490
53
255
227
467
530
87
263
473
129
356
218
341
1
289
170
243
180
230
431
76
110
13
293
49
471
113
508
369
491
444
9
7
18
404
390
479
172
2
246
11
259
42
173
398
43
217
168
299
268
101
126
333
104
140
344
52
496
346
317
98
91
145
122
545
189
160
442
448
372
14
389
481
50
412
12
118
20
30
95
242
244
248
128
345
489
267
321
51
82
418
304
322
117
77
254
163
212
564
191
48
226
39
383
195
202
381
10
96
291
124
334
314
281
21
250
455
159
62
25
92
112
320
279
503
144
373
86
451
66
234
24
67
319
115
260
270

>  <PUBCHEM_MMFF94_PARTIAL_CHARGES>  (1) 
18
1 -0.68
10 0.28
11 0.34
13 0.45
2 -0.68
22 0.4
23 0.4
24 0.4
25 0.06
26 0.4
27 0.4
3 -0.68
4 -0.68
5 -0.68
6 -0.57
7 0.28
8 0.28
9 0.28

>  <PUBCHEM_EFFECTIVE_ROTOR_COUNT>  (1) 
5

>  <PUBCHEM_PHARMACOPHORE_FEATURES>  (1) 
11
1 1 acceptor
1 1 donor
1 2 acceptor
1 2 donor
1 3 acceptor
1 3 donor
1 4 acceptor
1 4 donor
1 5 acceptor
1 5 donor
1 6 acceptor

>  <PUBCHEM_HEAVY_ATOM_COUNT>  (1) 
13

>  <PUBCHEM_ATOM_DEF_STEREO_COUNT>  (1) 
0

>  <PUBCHEM_ATOM_UDEF_STEREO_COUNT>  (1) 
5

>  <PUBCHEM_BOND_DEF_STEREO_COUNT>  (1) 
0

>  <PUBCHEM_BOND_UDEF_STEREO_COUNT>  (1) 
0

>  <PUBCHEM_ISOTOPIC_ATOM_COUNT>  (1) 
0

>  <PUBCHEM_COMPONENT_COUNT>  (1) 
1

>  <PUBCHEM_CACTVS_TAUTO_COUNT>  (1) 
12

>  <PUBCHEM_CONFORMER_ID>  (1) 
000087BB00000026

>  <PUBCHEM_MMFF94_ENERGY>  (1) 
24.2515

>  <PUBCHEM_FEATURE_SELFOVERLAP>  (1) 
55.853

>  <PUBCHEM_SHAPE_FINGERPRINT>  (1) 
10857977 72 15719408213122099803
12897270 3 16987997339858707548
12932764 1 18335423448004327679
13380535 21 17822874029505915226
13571099 52 18270390728367146072
13764800 53 18188503495828537793
13922767 16 17969771986826764467
14390081 3 18411983580675683673
15775835 57 18409443674550864933
16945 1 18199470974097275183
17357990 137 17915465990987084713
18186145 218 18412267211873715445
20653085 51 17917445197874442929
20711985 344 12894537449634291050
21028194 46 18334017189749013143
230 275 18410291428101769704
23235685 24 17748831825537683084
23557571 272 17201895206792609571
305870 269 18261099786255558938
3248919 1 17703784795646001263
5084963 1 16371292095488638651
549884 4 18342742901047436388
63268167 104 18336826394708247697
81228 2 17608947704129448115
9939556 21 17846780702217199614

>  <PUBCHEM_SHAPE_MULTIPOLES>  (1) 
232.32
5.39
1.61
1.24
1.27
0.02
-0.13
-2.56
-0.68
-0.62
0.53
0.18
0.13
0.05

>  <PUBCHEM_SHAPE_SELFOVERLAP>  (1) 
442.29

>  <PUBCHEM_SHAPE_VOLUME>  (1) 
142.1

>  <PUBCHEM_COORDINATE_TYPE>  (1) 
2
5
10

$$$$
