34744
     RDKit          3D

  8  8  0  0  1  0  0  0  0  0999 V2000
   -0.3223    0.8750    0.8656 O   0  0  0  0  0  0  0  0  0  0  0  0
    2.0283   -0.8922    0.2298 O   0  0  0  0  0  0  0  0  0  0  0  0
   -0.8897   -0.1078   -0.0229 C   0  0  0  0  0  0  0  0  0  0  0  0
    0.1300   -0.3274   -1.1470 C   0  0  0  0  0  0  0  0  0  0  0  0
    1.4313    0.1439   -0.5392 C   0  0  0  0  0  0  0  0  0  0  0  0
    0.9770    1.2513    0.3845 C   0  0  0  0  0  0  0  0  0  0  0  0
   -1.1425   -1.3796    0.7895 C   0  0  0  0  0  0  0  0  0  0  0  0
   -2.2121    0.4369   -0.5603 C   0  0  0  0  0  0  0  0  0  0  0  0
  1  3  1  0
  1  6  1  0
  2  5  1  0
  3  4  1  0
  3  7  1  0
  3  8  1  0
  4  5  1  0
  5  6  1  0
M  END
>  <PUBCHEM_COMPOUND_CID>  (1) 
34744

>  <PUBCHEM_CONFORMER_RMSD>  (1) 
0.4

>  <PUBCHEM_CONFORMER_DIVERSEORDER>  (1) 
1
2
3

>  <PUBCHEM_MMFF94_PARTIAL_CHARGES>  (1) 
6
1 -0.56
2 -0.68
20 0.4
3 0.28
5 0.28
6 0.28

>  <PUBCHEM_EFFECTIVE_ROTOR_COUNT>  (1) 
1

>  <PUBCHEM_PHARMACOPHORE_FEATURES>  (1) 
5
1 1 acceptor
1 2 acceptor
1 2 donor
3 3 7 8 hydrophobe
5 1 3 4 5 6 rings

>  <PUBCHEM_HEAVY_ATOM_COUNT>  (1) 
8

>  <PUBCHEM_ATOM_DEF_STEREO_COUNT>  (1) 
0

>  <PUBCHEM_ATOM_UDEF_STEREO_COUNT>  (1) 
1

>  <PUBCHEM_BOND_DEF_STEREO_COUNT>  (1) 
0

>  <PUBCHEM_BOND_UDEF_STEREO_COUNT>  (1) 
0

>  <PUBCHEM_ISOTOPIC_ATOM_COUNT>  (1) 
0

>  <PUBCHEM_COMPONENT_COUNT>  (1) 
1

>  <PUBCHEM_CACTVS_TAUTO_COUNT>  (1) 
1

>  <PUBCHEM_CONFORMER_ID>  (1) 
000087B800000001

>  <PUBCHEM_MMFF94_ENERGY>  (1) 
20.6799

>  <PUBCHEM_FEATURE_SELFOVERLAP>  (1) 
25.372

>  <PUBCHEM_SHAPE_FINGERPRINT>  (1) 
12423570 1 9045760776852566780
137420 1 17620706933896397795
21040471 1 17967244295752309701
24536 1 17773899590970516695
29004967 10 17775569740680401935
5084963 1 18261104154374540029
5943 1 8748474123065858241

>  <PUBCHEM_SHAPE_MULTIPOLES>  (1) 
152.9
2.35
1.25
1.03
0.17
0.18
-0.11
0.08
-0.15
0.03
0.3
0.05
-0.01
0.28

>  <PUBCHEM_SHAPE_SELFOVERLAP>  (1) 
300.205

>  <PUBCHEM_SHAPE_VOLUME>  (1) 
94.2

>  <PUBCHEM_COORDINATE_TYPE>  (1) 
2
5
10

$$$$
