34749
     RDKit          3D

 18 19  0  0  0  0  0  0  0  0999 V2000
    3.4234    0.0830    0.4550 N   0  0  0  0  0  0  0  0  0  0  0  0
   -3.4234    0.0831   -0.4550 N   0  0  0  0  0  0  0  0  0  0  0  0
    4.8706    0.0832    0.6479 C   0  0  0  0  0  0  0  0  0  0  0  0
   -4.8706    0.0833   -0.6479 C   0  0  0  0  0  0  0  0  0  0  0  0
    0.7170    0.0828    0.0952 C   0  0  0  0  0  0  0  0  0  0  0  0
   -0.7170    0.0828   -0.0951 C   0  0  0  0  0  0  0  0  0  0  0  0
    5.5533   -0.2887   -0.6619 C   0  0  0  0  0  0  0  0  0  0  0  0
   -5.5532   -0.2887    0.6619 C   0  0  0  0  0  0  0  0  0  0  0  0
    2.8231    1.2169    0.0686 C   0  0  0  0  0  0  0  0  0  0  0  0
   -2.8231    1.2170   -0.0685 C   0  0  0  0  0  0  0  0  0  0  0  0
    2.7430   -1.0510    0.6713 C   0  0  0  0  0  0  0  0  0  0  0  0
   -2.7431   -1.0510   -0.6713 C   0  0  0  0  0  0  0  0  0  0  0  0
    1.4490    1.2463   -0.1223 C   0  0  0  0  0  0  0  0  0  0  0  0
   -1.4490    1.2462    0.1223 C   0  0  0  0  0  0  0  0  0  0  0  0
    1.3669   -1.0806    0.4962 C   0  0  0  0  0  0  0  0  0  0  0  0
   -1.3669   -1.0806   -0.4963 C   0  0  0  0  0  0  0  0  0  0  0  0
    7.0655   -0.2919   -0.5155 C   0  0  0  0  0  0  0  0  0  0  0  0
   -7.0655   -0.2920    0.5155 C   0  0  0  0  0  0  0  0  0  0  0  0
  1  3  1  0
  1  9  2  0
  1 11  1  0
  2  4  1  0
  2 10  2  0
  2 12  1  0
  3  7  1  0
  4  8  1  0
  5  6  1  0
  5 13  2  0
  5 15  1  0
  6 14  2  0
  6 16  1  0
  7 17  1  0
  8 18  1  0
  9 13  1  0
 10 14  1  0
 11 15  2  0
 12 16  2  0
M  CHG  2   1   1   2   1
M  END
>  <PUBCHEM_COMPOUND_CID>  (1) 
34749

>  <PUBCHEM_CONFORMER_RMSD>  (1) 
0.6

>  <PUBCHEM_CONFORMER_DIVERSEORDER>  (1) 
2
12
6
10
7
8
11
13
9
5
1
4
14
3

>  <PUBCHEM_MMFF94_PARTIAL_CHARGES>  (1) 
20
1 -0.21
10 0.21
11 0.21
12 0.21
13 -0.15
14 -0.15
15 -0.15
16 -0.15
2 -0.21
27 0.15
28 0.15
29 0.15
3 0.49
30 0.15
31 0.15
32 0.15
33 0.15
34 0.15
4 0.49
9 0.21

>  <PUBCHEM_EFFECTIVE_ROTOR_COUNT>  (1) 
5

>  <PUBCHEM_PHARMACOPHORE_FEATURES>  (1) 
4
1 17 hydrophobe
1 18 hydrophobe
6 1 5 9 11 13 15 rings
6 2 6 10 12 14 16 rings

>  <PUBCHEM_HEAVY_ATOM_COUNT>  (1) 
18

>  <PUBCHEM_ATOM_DEF_STEREO_COUNT>  (1) 
0

>  <PUBCHEM_ATOM_UDEF_STEREO_COUNT>  (1) 
0

>  <PUBCHEM_BOND_DEF_STEREO_COUNT>  (1) 
0

>  <PUBCHEM_BOND_UDEF_STEREO_COUNT>  (1) 
0

>  <PUBCHEM_ISOTOPIC_ATOM_COUNT>  (1) 
0

>  <PUBCHEM_COMPONENT_COUNT>  (1) 
1

>  <PUBCHEM_CACTVS_TAUTO_COUNT>  (1) 
1

>  <PUBCHEM_CONFORMER_ID>  (1) 
000087BD00000002

>  <PUBCHEM_MMFF94_ENERGY>  (1) 
46.8078

>  <PUBCHEM_FEATURE_SELFOVERLAP>  (1) 
20.297

>  <PUBCHEM_SHAPE_FINGERPRINT>  (1) 
10354089 29 18408321090200298370
106641 1 15647341865487141963
10968037 39 18334857225333344991
11089746 13 7853569097858107635
11796584 16 15913328018103718878
12236239 1 18260547801184936492
12390115 104 17916596315164436121
12403259 415 18410843369801160896
12916748 109 18411981351962203552
13288520 33 18201719552448137717
13533116 47 15769782303846904054
13760787 5 18339916108882888301
14123256 10 18113620084499319206
1420 363 18407479963815599179
14251718 22 16008749108570425361
14251764 46 18410856559639828555
14350574 20 18259985980744656013
14617045 38 18410858750142260478
15042514 8 18199184169551914975
17834076 25 17603303752377923358
19141452 34 17703505583784896070
19489759 90 14620797102807729843
200 152 18410005533698527057
20645477 70 15502642755839376064
21150785 3 16515408482023686134
21267235 1 18410860957686424096
2297311 6 18202569462373474340
23035841 295 18272088292615781294
23402539 116 15267055952421711633
23536379 177 15913330186655897122
23557571 272 17846783970819583088
23559900 14 18059283379385276584
26918003 58 17967813864693394073
335352 9 18341894120977950405
34797466 226 17775010107270298156
3545911 37 18410572885676922030
4072396 5 11095887038891262852
4325135 7 16008752424201087123
4463277 17 18410573985151736964
4990 188 18201441355464975182
5104073 3 18269826687217641347
542803 24 16877657950644678228
59755656 215 18130793330353561070
59755656 520 15267335220022785189

>  <PUBCHEM_SHAPE_MULTIPOLES>  (1) 
360.47
15.83
1.23
0.84
0
0.15
0
-2.06
0
0
0
0
-0.1
-0.02

>  <PUBCHEM_SHAPE_SELFOVERLAP>  (1) 
752.692

>  <PUBCHEM_SHAPE_VOLUME>  (1) 
206.8

>  <PUBCHEM_COORDINATE_TYPE>  (1) 
2
5
10

$$$$
