34740
     RDKit          3D

  7  7  0  0  1  0  0  0  0  0999 V2000
    1.5105    0.8043    0.2575 O   0  0  0  0  0  0  0  0  0  0  0  0
   -0.2710   -1.6100    0.7256 O   0  0  0  0  0  0  0  0  0  0  0  0
   -0.7145    0.4468   -0.4716 C   0  0  0  0  0  0  0  0  0  0  0  0
    0.0112   -0.8855   -0.4664 C   0  0  0  0  0  0  0  0  0  0  0  0
    0.1684    1.2788    0.4450 C   0  0  0  0  0  0  0  0  0  0  0  0
    1.4628   -0.4440   -0.4576 C   0  0  0  0  0  0  0  0  0  0  0  0
   -2.1674    0.4097   -0.0325 C   0  0  0  0  0  0  0  0  0  0  0  0
  1  5  1  0
  1  6  1  0
  2  4  1  0
  3  4  1  0
  3  5  1  0
  3  7  1  0
  4  6  1  0
M  END
>  <PUBCHEM_COMPOUND_CID>  (1) 
34740

>  <PUBCHEM_CONFORMER_RMSD>  (1) 
0.4

>  <PUBCHEM_CONFORMER_DIVERSEORDER>  (1) 
5
3
4
6
7
1
8
2

>  <PUBCHEM_MMFF94_PARTIAL_CHARGES>  (1) 
6
1 -0.56
17 0.4
2 -0.68
4 0.28
5 0.28
6 0.28

>  <PUBCHEM_EFFECTIVE_ROTOR_COUNT>  (1) 
1

>  <PUBCHEM_PHARMACOPHORE_FEATURES>  (1) 
4
1 1 acceptor
1 2 acceptor
1 2 donor
5 1 3 4 5 6 rings

>  <PUBCHEM_HEAVY_ATOM_COUNT>  (1) 
7

>  <PUBCHEM_ATOM_DEF_STEREO_COUNT>  (1) 
0

>  <PUBCHEM_ATOM_UDEF_STEREO_COUNT>  (1) 
2

>  <PUBCHEM_BOND_DEF_STEREO_COUNT>  (1) 
0

>  <PUBCHEM_BOND_UDEF_STEREO_COUNT>  (1) 
0

>  <PUBCHEM_ISOTOPIC_ATOM_COUNT>  (1) 
0

>  <PUBCHEM_COMPONENT_COUNT>  (1) 
1

>  <PUBCHEM_CACTVS_TAUTO_COUNT>  (1) 
1

>  <PUBCHEM_CONFORMER_ID>  (1) 
000087B400000005

>  <PUBCHEM_MMFF94_ENERGY>  (1) 
14.82

>  <PUBCHEM_FEATURE_SELFOVERLAP>  (1) 
20.298

>  <PUBCHEM_SHAPE_FINGERPRINT>  (1) 
18185500 45 17255685192407912859
20096714 4 18272645761974564245
21040471 1 18410291453639347909
29004967 10 17917434168234987431
5943 1 14444423432535081774

>  <PUBCHEM_SHAPE_MULTIPOLES>  (1) 
132.32
2
1.41
0.78
0.69
0.12
0.01
-0.22
-0.15
-0.18
0.31
0
0.11
0.1

>  <PUBCHEM_SHAPE_SELFOVERLAP>  (1) 
257.26

>  <PUBCHEM_SHAPE_VOLUME>  (1) 
82.6

>  <PUBCHEM_COORDINATE_TYPE>  (1) 
2
5
10

$$$$
