34746
     RDKit          3D

 22 26  0  0  0  0  0  0  0  0999 V2000
    0.3396   -4.3621   -1.1790 Cl  0  0  0  0  0  0  0  0  0  0  0  0
    0.2684    0.1994    0.0579 C   0  0  0  0  0  0  0  0  0  0  0  0
    1.6578    0.5086    0.0338 C   0  0  0  0  0  0  0  0  0  0  0  0
   -0.1266   -1.1499    0.1846 C   0  0  0  0  0  0  0  0  0  0  0  0
   -0.7107    1.2235   -0.0431 C   0  0  0  0  0  0  0  0  0  0  0  0
    2.6253   -0.5207    0.1354 C   0  0  0  0  0  0  0  0  0  0  0  0
   -2.1058    0.8749   -0.0153 C   0  0  0  0  0  0  0  0  0  0  0  0
    2.0853    1.8479   -0.0918 C   0  0  0  0  0  0  0  0  0  0  0  0
    0.8435   -2.1564    0.2842 C   0  0  0  0  0  0  0  0  0  0  0  0
   -2.4740   -0.4875    0.1127 C   0  0  0  0  0  0  0  0  0  0  0  0
   -1.4861   -1.4728    0.2100 C   0  0  0  0  0  0  0  0  0  0  0  0
    2.2019   -1.8468    0.2599 C   0  0  0  0  0  0  0  0  0  0  0  0
   -0.2356    2.5492   -0.1672 C   0  0  0  0  0  0  0  0  0  0  0  0
    1.1273    2.8563   -0.1912 C   0  0  0  0  0  0  0  0  0  0  0  0
    3.9900   -0.1977    0.1099 C   0  0  0  0  0  0  0  0  0  0  0  0
    3.4566    2.1439   -0.1147 C   0  0  0  0  0  0  0  0  0  0  0  0
   -3.1650    1.8136   -0.1082 C   0  0  0  0  0  0  0  0  0  0  0  0
    0.4828   -3.6048    0.4204 C   0  0  0  0  0  0  0  0  0  0  0  0
   -3.8288   -0.8623    0.1433 C   0  0  0  0  0  0  0  0  0  0  0  0
    4.4020    1.1267   -0.0144 C   0  0  0  0  0  0  0  0  0  0  0  0
   -4.5078    1.4281   -0.0764 C   0  0  0  0  0  0  0  0  0  0  0  0
   -4.8399    0.0887    0.0494 C   0  0  0  0  0  0  0  0  0  0  0  0
  1 18  1  0
  2  3  2  0
  2  4  1  0
  2  5  1  0
  3  6  1  0
  3  8  1  0
  4  9  2  0
  4 11  1  0
  5  7  2  0
  5 13  1  0
  6 12  2  0
  6 15  1  0
  7 10  1  0
  7 17  1  0
  8 14  1  0
  8 16  2  0
  9 12  1  0
  9 18  1  0
 10 11  2  0
 10 19  1  0
 13 14  2  0
 15 20  2  0
 16 20  1  0
 17 21  2  0
 19 22  2  0
 21 22  1  0
M  END
>  <PUBCHEM_COMPOUND_CID>  (1) 
34746

>  <PUBCHEM_CONFORMER_RMSD>  (1) 
0.6

>  <PUBCHEM_CONFORMER_DIVERSEORDER>  (1) 
1

>  <PUBCHEM_MMFF94_PARTIAL_CHARGES>  (1) 
25
1 -0.29
11 -0.15
12 -0.15
13 -0.15
14 -0.15
15 -0.15
16 -0.15
17 -0.15
18 0.43
19 -0.15
20 -0.15
21 -0.15
22 -0.15
23 0.15
24 0.15
25 0.15
26 0.15
27 0.15
28 0.15
29 0.15
32 0.15
33 0.15
34 0.15
35 0.15
9 -0.14

>  <PUBCHEM_EFFECTIVE_ROTOR_COUNT>  (1) 
1

>  <PUBCHEM_PHARMACOPHORE_FEATURES>  (1) 
5
6 2 3 4 6 9 12 rings
6 2 3 5 8 13 14 rings
6 2 4 5 7 10 11 rings
6 3 6 8 15 16 20 rings
6 7 10 17 19 21 22 rings

>  <PUBCHEM_HEAVY_ATOM_COUNT>  (1) 
22

>  <PUBCHEM_ATOM_DEF_STEREO_COUNT>  (1) 
0

>  <PUBCHEM_ATOM_UDEF_STEREO_COUNT>  (1) 
0

>  <PUBCHEM_BOND_DEF_STEREO_COUNT>  (1) 
0

>  <PUBCHEM_BOND_UDEF_STEREO_COUNT>  (1) 
0

>  <PUBCHEM_ISOTOPIC_ATOM_COUNT>  (1) 
0

>  <PUBCHEM_COMPONENT_COUNT>  (1) 
1

>  <PUBCHEM_CACTVS_TAUTO_COUNT>  (1) 
1

>  <PUBCHEM_CONFORMER_ID>  (1) 
000087BA00000001

>  <PUBCHEM_MMFF94_ENERGY>  (1) 
81.688

>  <PUBCHEM_FEATURE_SELFOVERLAP>  (1) 
25.526

>  <PUBCHEM_SHAPE_FINGERPRINT>  (1) 
10411042 1 17473543547665500243
10493431 412 18339077215338052288
10616163 171 18409450319118492267
10693767 8 18130220445940727270
10967382 1 18409166588914491184
1100329 8 18266738180846740872
11370993 70 18409726300425739057
11578080 2 13192353393969281101
116883 192 17547569280227449663
12553582 1 17474111999260686827
12592029 89 18408044004717029363
12838862 33 18337652196597309392
13140716 1 18409162195263083568
13583140 156 16661745825774734648
138480 1 17977946782870791138
14178342 30 17979343171676290800
14223421 5 18120653535153144853
14790565 3 18337117847021191740
15131766 46 15504914570354057756
15196674 1 18409166623163648128
15536298 74 18413389821566629456
1601671 61 18408041801457179056
16728300 4 17317575740475070170
16945 1 18121499042583671480
18681886 176 18409163346763198872
19591789 44 18410011078174161018
19930381 70 18265613182724599299
20028762 73 18128817624223725711
20645477 70 18337104571461136087
20739085 24 18190481405478056329
20775438 99 16475395299869436959
20905425 154 17979919306904750614
21197605 99 18048611609932133347
21267235 1 18409456877042676504
21421861 104 17825948122135264809
21524375 3 18261672674520800938
23184049 29 17472132878098509995
2334 1 18337391638189873448
23402539 116 18342169007849498548
23419403 2 17461418249187182622
23558518 356 17468190489400318232
23559900 14 18123181308122128586
238 59 17756379947187559741
2748010 2 18408893957428352290
3060560 45 18412262818143439838
3091708 16 9190157422804801379
335352 9 18409166615216960748
34934 24 18409441471074230409
350125 39 18193000533178318489
474 4 18409167705811651673
484985 159 14211477235894910010
5104073 3 18408322185538597225
6138700 20 18338240341519764790
7364860 26 18267304235655276671
7832392 63 18194399129233166618
81228 2 16899320253894176419
8272917 22 18339928104341384887
9709674 26 18336832970725463451

>  <PUBCHEM_SHAPE_MULTIPOLES>  (1) 
454.62
7.42
4.17
0.71
3.95
3.93
-0.07
-3.58
0.17
-1.52
-0.87
-0.04
0.33
-0.01

>  <PUBCHEM_SHAPE_SELFOVERLAP>  (1) 
1050.847

>  <PUBCHEM_SHAPE_VOLUME>  (1) 
221.2

>  <PUBCHEM_COORDINATE_TYPE>  (1) 
2
5
10

$$$$
