34743
     RDKit          3D

 12 12  0  0  1  0  0  0  0  0999 V2000
   -1.1344    0.6006   -0.8549 O   0  0  0  0  0  0  0  0  0  0  0  0
   -3.0711   -1.7801   -0.3808 O   0  0  0  0  0  0  0  0  0  0  0  0
   -0.8887   -0.7401   -0.3851 C   0  0  0  0  0  0  0  0  0  0  0  0
   -2.1012   -1.1409    0.4462 C   0  0  0  0  0  0  0  0  0  0  0  0
   -2.6377    0.1863    0.9324 C   0  0  0  0  0  0  0  0  0  0  0  0
   -2.3291    1.1069   -0.2387 C   0  0  0  0  0  0  0  0  0  0  0  0
    0.3989   -0.7136    0.4277 C   0  0  0  0  0  0  0  0  0  0  0  0
    1.5874   -0.2718   -0.4245 C   0  0  0  0  0  0  0  0  0  0  0  0
   -2.1195    2.5525    0.1710 C   0  0  0  0  0  0  0  0  0  0  0  0
    2.8721   -0.2146    0.4035 C   0  0  0  0  0  0  0  0  0  0  0  0
    4.0690    0.1947   -0.4545 C   0  0  0  0  0  0  0  0  0  0  0  0
    5.3540    0.2202    0.3577 C   0  0  0  0  0  0  0  0  0  0  0  0
  1  3  1  0
  1  6  1  0
  2  4  1  0
  3  4  1  0
  3  7  1  0
  4  5  1  0
  5  6  1  0
  6  9  1  0
  7  8  1  0
  8 10  1  0
 10 11  1  0
 11 12  1  0
M  END
>  <PUBCHEM_COMPOUND_CID>  (1) 
34743

>  <PUBCHEM_CONFORMER_RMSD>  (1) 
0.6

>  <PUBCHEM_CONFORMER_DIVERSEORDER>  (1) 
6
125
97
109
173
26
76
153
5
60
176
96
2
169
178
39
107
121
21
146
4
140
175
78
127
145
69
9
171
177
100
89
12
128
136
63
163
67
133
28
139
47
157
49
54
8
31
143
119
29
124
105
65
135
129
152
79
55
40
134
161
131
3
137
102
41
46
59
108
1
172
32
123
147
86
156
64
126
158
93
14
120
66
166
70
95
122
13
164
141
68
38
130
24
159
83
15
162
80
87
167
148
62
101
144
45
71
149
106
98
43
155
52
154
10
51
132
150
142
94
75
18
174
151
35
7
42
114
84
82
138
22
165
36
58
16
118
103
17
20
61
88
23
53
170
33
116
112
85
115
27
56
25
117
92
168
57
34
37
160
30
81
111
48
113
91
104
74
77
50
73
72
19
110
44
90
11
99

>  <PUBCHEM_MMFF94_PARTIAL_CHARGES>  (1) 
6
1 -0.56
2 -0.68
27 0.4
3 0.28
4 0.28
6 0.28

>  <PUBCHEM_EFFECTIVE_ROTOR_COUNT>  (1) 
5

>  <PUBCHEM_PHARMACOPHORE_FEATURES>  (1) 
6
1 1 acceptor
1 12 hydrophobe
1 2 acceptor
1 2 donor
4 7 8 10 11 hydrophobe
5 1 3 4 5 6 rings

>  <PUBCHEM_HEAVY_ATOM_COUNT>  (1) 
12

>  <PUBCHEM_ATOM_DEF_STEREO_COUNT>  (1) 
0

>  <PUBCHEM_ATOM_UDEF_STEREO_COUNT>  (1) 
3

>  <PUBCHEM_BOND_DEF_STEREO_COUNT>  (1) 
0

>  <PUBCHEM_BOND_UDEF_STEREO_COUNT>  (1) 
0

>  <PUBCHEM_ISOTOPIC_ATOM_COUNT>  (1) 
0

>  <PUBCHEM_COMPONENT_COUNT>  (1) 
1

>  <PUBCHEM_CACTVS_TAUTO_COUNT>  (1) 
1

>  <PUBCHEM_CONFORMER_ID>  (1) 
000087B700000006

>  <PUBCHEM_MMFF94_ENERGY>  (1) 
14.6947

>  <PUBCHEM_FEATURE_SELFOVERLAP>  (1) 
30.447

>  <PUBCHEM_SHAPE_FINGERPRINT>  (1) 
10680689 15 18411426120123054810
12162725 195 18187931711549355580
12346645 44 18261111842397778282
12932764 1 17632566159176965966
13024252 1 17821729438286086803
13296909 8 18408324380103185597
14325111 11 18408041788920306830
1741750 31 18198343952977316576
18186145 218 16630803331624405674
1986462 14 18343024393599460382
200 152 18113891714804780799
20300324 65 18408602599716134226
20645464 45 18201727231870716503
20645477 56 18341056220082281992
20645477 70 14491012932024015994
2306618 200 18202569457804045073
23380061 127 18410290324400468182
23402539 116 18338228362196528471
23500284 214 18270405962384199089
23557571 272 18202010931677377348
27216 239 18336271162689907209
573450 72 18261661602754449706

>  <PUBCHEM_SHAPE_MULTIPOLES>  (1) 
235.22
8.11
1.72
0.84
13.11
0.83
0.04
0.91
0.72
-2.37
-0.01
-0.12
-0.01
-0.09

>  <PUBCHEM_SHAPE_SELFOVERLAP>  (1) 
449.963

>  <PUBCHEM_SHAPE_VOLUME>  (1) 
146.3

>  <PUBCHEM_COORDINATE_TYPE>  (1) 
2
5
10

$$$$
