34752
     RDKit          3D

  9  8  0  0  0  0  0  0  0  0999 V2000
    3.7383   -0.1264    0.4753 O   0  0  0  0  0  0  0  0  0  0  0  0
    2.0977   -1.4270   -0.4018 O   0  0  0  0  0  0  0  0  0  0  0  0
   -2.2145    0.6200   -0.2990 C   0  0  0  0  0  0  0  0  0  0  0  0
   -2.9157   -0.4744    0.5057 C   0  0  0  0  0  0  0  0  0  0  0  0
   -0.8313    0.8777    0.2239 C   0  0  0  0  0  0  0  0  0  0  0  0
   -4.3077   -0.7580   -0.0371 C   0  0  0  0  0  0  0  0  0  0  0  0
    0.2851    0.6881   -0.4952 C   0  0  0  0  0  0  0  0  0  0  0  0
    1.6657    0.9370    0.0295 C   0  0  0  0  0  0  0  0  0  0  0  0
    2.4823   -0.3370   -0.0012 C   0  0  0  0  0  0  0  0  0  0  0  0
  1  9  1  0
  2  9  2  0
  3  4  1  0
  3  5  1  0
  4  6  1  0
  5  7  2  0
  7  8  1  0
  8  9  1  0
M  END
>  <PUBCHEM_COMPOUND_CID>  (1) 
34752

>  <PUBCHEM_CONFORMER_RMSD>  (1) 
0.6

>  <PUBCHEM_CONFORMER_DIVERSEORDER>  (1) 
3
26
23
27
13
10
6
17
28
24
5
14
2
9
21
7
25
1
20
16
4
22
12
29
11
15
8
18
19

>  <PUBCHEM_MMFF94_PARTIAL_CHARGES>  (1) 
10
1 -0.65
14 0.15
18 0.15
2 -0.57
21 0.5
3 0.14
5 -0.29
7 -0.29
8 0.2
9 0.66

>  <PUBCHEM_EFFECTIVE_ROTOR_COUNT>  (1) 
4

>  <PUBCHEM_PHARMACOPHORE_FEATURES>  (1) 
4
1 1 acceptor
1 2 acceptor
1 6 hydrophobe
3 1 2 9 anion

>  <PUBCHEM_HEAVY_ATOM_COUNT>  (1) 
9

>  <PUBCHEM_ATOM_DEF_STEREO_COUNT>  (1) 
0

>  <PUBCHEM_ATOM_UDEF_STEREO_COUNT>  (1) 
0

>  <PUBCHEM_BOND_DEF_STEREO_COUNT>  (1) 
0

>  <PUBCHEM_BOND_UDEF_STEREO_COUNT>  (1) 
1

>  <PUBCHEM_ISOTOPIC_ATOM_COUNT>  (1) 
0

>  <PUBCHEM_COMPONENT_COUNT>  (1) 
1

>  <PUBCHEM_CACTVS_TAUTO_COUNT>  (1) 
1

>  <PUBCHEM_CONFORMER_ID>  (1) 
000087C000000003

>  <PUBCHEM_MMFF94_ENERGY>  (1) 
-0.3064

>  <PUBCHEM_FEATURE_SELFOVERLAP>  (1) 
20.356

>  <PUBCHEM_SHAPE_FINGERPRINT>  (1) 
10149128 111 7997977890257020895
12932764 1 17131823257486845364
14252887 29 17989216940184871398
14325111 11 18409731755187237637
14390081 3 9799689281737769413
177051 138 18343587334641109231
20201158 50 18334016094485139939
20281407 28 18411705387307110297
20645477 70 18335419093113471175
20653085 51 9078819805865660101
20711978 1 18260832617678137901
21119208 17 13623525757851532635
21293036 1 14273739572771830781
22485316 2 18342172280688326983
581208 293 18412262865092446854

>  <PUBCHEM_SHAPE_MULTIPOLES>  (1) 
173.48
7.06
1.17
0.7
2.74
0.11
0
2.56
0.6
-0.18
-0.08
0.04
0
0.15

>  <PUBCHEM_SHAPE_SELFOVERLAP>  (1) 
317.477

>  <PUBCHEM_SHAPE_VOLUME>  (1) 
110.1

>  <PUBCHEM_COORDINATE_TYPE>  (1) 
2
5
10

$$$$
