34751
     RDKit          3D

 32 34  0  0  1  0  0  0  0  0999 V2000
   -1.7391    0.4546   -0.4747 O   0  0  0  0  0  0  0  0  0  0  0  0
    2.5718    0.0019   -0.8852 O   0  0  0  0  0  0  0  0  0  0  0  0
    0.8592    1.3767   -0.0971 O   0  0  0  0  0  0  0  0  0  0  0  0
   -1.1863    3.9940   -1.2368 O   0  0  0  0  0  0  0  0  0  0  0  0
   -3.5763   -0.7138    0.3639 O   0  0  0  0  0  0  0  0  0  0  0  0
   -3.3248    4.0541    0.7070 O   0  0  0  0  0  0  0  0  0  0  0  0
    2.6442    2.4720    1.8062 O   0  0  0  0  0  0  0  0  0  0  0  0
   -5.0623    1.6942    0.4024 O   0  0  0  0  0  0  0  0  0  0  0  0
    4.7799    0.5759    2.5297 O   0  0  0  0  0  0  0  0  0  0  0  0
    6.0517   -0.4710    0.1543 O   0  0  0  0  0  0  0  0  0  0  0  0
    3.5129   -1.2623   -3.1373 O   0  0  0  0  0  0  0  0  0  0  0  0
   -4.9020   -3.8268    0.1364 N   0  0  0  0  0  0  0  0  0  0  0  0
   -1.2571    1.5837   -1.2055 C   0  0  0  0  0  0  0  0  0  0  0  0
   -1.5980    2.8744   -0.4570 C   0  0  0  0  0  0  0  0  0  0  0  0
   -3.1010    2.9676   -0.1929 C   0  0  0  0  0  0  0  0  0  0  0  0
    2.8493    1.1891    1.2151 C   0  0  0  0  0  0  0  0  0  0  0  0
   -3.6352    1.6758    0.4257 C   0  0  0  0  0  0  0  0  0  0  0  0
    4.3443    0.8698    1.2015 C   0  0  0  0  0  0  0  0  0  0  0  0
    2.2737    1.2165   -0.2008 C   0  0  0  0  0  0  0  0  0  0  0  0
    4.6422   -0.3475    0.3259 C   0  0  0  0  0  0  0  0  0  0  0  0
    3.9761   -0.2066   -1.0449 C   0  0  0  0  0  0  0  0  0  0  0  0
   -3.1594    0.4486   -0.3517 C   0  0  0  0  0  0  0  0  0  0  0  0
    0.2487    1.4115   -1.3775 C   0  0  0  0  0  0  0  0  0  0  0  0
    4.1612   -1.4601   -1.8942 C   0  0  0  0  0  0  0  0  0  0  0  0
   -3.1636   -1.9008   -0.2951 C   0  0  0  0  0  0  0  0  0  0  0  0
   -1.7773   -2.2745    0.1759 C   0  0  0  0  0  0  0  0  0  0  0  0
   -4.1338   -2.9778   -0.0526 C   0  0  0  0  0  0  0  0  0  0  0  0
   -1.3999   -1.9774    1.4752 C   0  0  0  0  0  0  0  0  0  0  0  0
   -0.9110   -2.9072   -0.7006 C   0  0  0  0  0  0  0  0  0  0  0  0
   -0.1203   -2.3225    1.9102 C   0  0  0  0  0  0  0  0  0  0  0  0
    0.3686   -3.2523   -0.2654 C   0  0  0  0  0  0  0  0  0  0  0  0
    0.7638   -2.9599    1.0400 C   0  0  0  0  0  0  0  0  0  0  0  0
  1 13  1  0
  1 22  1  0
  2 19  1  0
  2 21  1  0
  3 19  1  0
  3 23  1  0
  4 14  1  0
  5 22  1  0
  5 25  1  0
  6 15  1  0
  7 16  1  0
  8 17  1  0
  9 18  1  0
 10 20  1  0
 11 24  1  0
 12 27  3  0
 13 14  1  0
 13 23  1  0
 14 15  1  0
 15 17  1  0
 16 18  1  0
 16 19  1  0
 17 22  1  0
 18 20  1  0
 20 21  1  0
 21 24  1  0
 25 26  1  0
 25 27  1  0
 26 28  2  0
 26 29  1  0
 28 30  1  0
 29 31  2  0
 30 32  2  0
 31 32  1  0
M  END
>  <PUBCHEM_COMPOUND_CID>  (1) 
34751

>  <PUBCHEM_CONFORMER_RMSD>  (1) 
1.2

>  <PUBCHEM_CONFORMER_DIVERSEORDER>  (1) 
1
565
551
531
259
497
99
32
116
132
222
98
79
33
433
147
7
167
77
25
261
567
179
585
468
121
158
552
168
271
142
89
399
347
553
453
137
75
118
489
234
4
11
9
302
479
435
27
571
152
69
516
249
278
344
87
311
197
265
237
246
111
324
452
38
39
282
580
130
561
48
127
101
8
187
502
29
199
374
617
86
134
420
12
180
498
178
136
47
181
68
196
411
185
56
529
28
175
508
192
611
15
73
438
93
57
103
456
161
96
322
84
184
566
455
131
16
34
42
597
95
285
58
133
2
484
102
608
270
61
51
299
601
45
582
13
109
310
71
157
50
64
6
306
20
206
394
253
457
329
62
535
536
478
46
19
538
37
418
31
215
275
362
164
216
264
355
104
250
544
318
154
3
440
70
283
198
487
530
82
30
24
336
390
217
139
603
369
277

>  <PUBCHEM_MMFF94_PARTIAL_CHARGES>  (1) 
44
1 -0.56
10 -0.68
11 -0.68
12 -0.56
13 0.28
14 0.28
15 0.28
16 0.28
17 0.28
18 0.28
19 0.56
2 -0.56
20 0.28
21 0.28
22 0.56
23 0.28
24 0.28
25 0.62
26 -0.14
27 0.36
28 -0.15
29 -0.15
3 -0.56
30 -0.15
31 -0.15
32 -0.15
4 -0.68
47 0.4
48 0.4
49 0.4
5 -0.56
50 0.4
51 0.4
52 0.4
54 0.4
55 0.15
56 0.15
57 0.15
58 0.15
59 0.15
6 -0.68
7 -0.68
8 -0.68
9 -0.68

>  <PUBCHEM_EFFECTIVE_ROTOR_COUNT>  (1) 
9.4

>  <PUBCHEM_PHARMACOPHORE_FEATURES>  (1) 
22
1 1 acceptor
1 10 acceptor
1 10 donor
1 11 acceptor
1 11 donor
1 12 acceptor
1 2 acceptor
1 3 acceptor
1 4 acceptor
1 4 donor
1 5 acceptor
1 6 acceptor
1 6 donor
1 7 acceptor
1 7 donor
1 8 acceptor
1 8 donor
1 9 acceptor
1 9 donor
6 1 13 14 15 17 22 rings
6 2 16 18 19 20 21 rings
6 26 28 29 30 31 32 rings

>  <PUBCHEM_HEAVY_ATOM_COUNT>  (1) 
32

>  <PUBCHEM_ATOM_DEF_STEREO_COUNT>  (1) 
10

>  <PUBCHEM_ATOM_UDEF_STEREO_COUNT>  (1) 
1

>  <PUBCHEM_BOND_DEF_STEREO_COUNT>  (1) 
0

>  <PUBCHEM_BOND_UDEF_STEREO_COUNT>  (1) 
0

>  <PUBCHEM_ISOTOPIC_ATOM_COUNT>  (1) 
0

>  <PUBCHEM_COMPONENT_COUNT>  (1) 
1

>  <PUBCHEM_CACTVS_TAUTO_COUNT>  (1) 
1

>  <PUBCHEM_CONFORMER_ID>  (1) 
000087BF00000001

>  <PUBCHEM_MMFF94_ENERGY>  (1) 
86.6401

>  <PUBCHEM_FEATURE_SELFOVERLAP>  (1) 
111.789

>  <PUBCHEM_SHAPE_FINGERPRINT>  (1) 
12156800 1 14858431213170134378
12422481 6 17753875131146041338
12788726 201 18190469456841634772
13004483 165 18121767598309402921
13140716 1 18337109076956176205
13402501 40 18343306942407802422
13642711 20 17058621093319266187
13726171 33 17681594520868270412
14178342 30 18335979796588045517
14251757 17 18059296465923780410
14725015 67 18339074994597607538
14955137 171 17976259359657484475
23559900 14 18341620325714676996
3052486 1 18186525397359291598
3298306 158 18120931702989284924
338550 245 17897170126523661414
508706 21 18411983546316166526
5265222 85 18337123328137199502
59755656 215 18409445861221903791
6004065 56 17764574818104029631
602551 16 18335134281163494760
653340 110 18411129238750370546

>  <PUBCHEM_SHAPE_MULTIPOLES>  (1) 
589
10.22
5.09
1.82
6.4
0.54
-0.21
-0.58
0.91
-6.77
0.17
2.68
-0.24
1.3

>  <PUBCHEM_SHAPE_SELFOVERLAP>  (1) 
1233.745

>  <PUBCHEM_SHAPE_VOLUME>  (1) 
324.7

>  <PUBCHEM_COORDINATE_TYPE>  (1) 
2
5
10

$$$$
