34759
     RDKit          3D

 19 20  0  0  0  0  0  0  0  0999 V2000
    5.5207   -1.7021    0.4067 O   0  0  0  0  0  0  0  0  0  0  0  0
    0.0606    1.4103   -0.5435 O   0  0  0  0  0  0  0  0  0  0  0  0
    2.4298    2.1538    0.2128 O   0  0  0  0  0  0  0  0  0  0  0  0
   -6.9615   -1.6285    0.3959 O   0  0  0  0  0  0  0  0  0  0  0  0
    3.4766    0.1295   -0.2310 N   0  0  0  0  0  0  0  0  0  0  0  0
   -5.6280   -1.4859    0.0036 N   0  0  0  0  0  0  0  0  0  0  0  0
    4.7916    0.5984    0.2056 C   0  0  0  0  0  0  0  0  0  0  0  0
    3.4799   -1.2171   -0.8122 C   0  0  0  0  0  0  0  0  0  0  0  0
    5.4613   -0.4459    1.0873 C   0  0  0  0  0  0  0  0  0  0  0  0
    4.2088   -2.1872    0.1090 C   0  0  0  0  0  0  0  0  0  0  0  0
    2.3793    0.9866   -0.1831 C   0  0  0  0  0  0  0  0  0  0  0  0
    1.0618    0.4191   -0.6473 C   0  0  0  0  0  0  0  0  0  0  0  0
   -1.2238    0.9816   -0.3070 C   0  0  0  0  0  0  0  0  0  0  0  0
   -2.0975    1.7965    0.3999 C   0  0  0  0  0  0  0  0  0  0  0  0
   -1.6287   -0.2592   -0.7798 C   0  0  0  0  0  0  0  0  0  0  0  0
   -3.8187    0.1172    0.1684 C   0  0  0  0  0  0  0  0  0  0  0  0
   -3.4013    1.3621    0.6388 C   0  0  0  0  0  0  0  0  0  0  0  0
   -2.9325   -0.6935   -0.5409 C   0  0  0  0  0  0  0  0  0  0  0  0
   -5.1782   -0.3357    0.4171 C   0  0  0  0  0  0  0  0  0  0  0  0
  1  9  1  0
  1 10  1  0
  2 12  1  0
  2 13  1  0
  3 11  2  0
  4  6  1  0
  5  7  1  0
  5  8  1  0
  5 11  1  0
  6 19  2  0
  7  9  1  0
  8 10  1  0
 11 12  1  0
 13 14  2  0
 13 15  1  0
 14 17  1  0
 15 18  2  0
 16 17  2  0
 16 18  1  0
 16 19  1  0
M  END
>  <PUBCHEM_COMPOUND_CID>  (1) 
34759

>  <PUBCHEM_CONFORMER_RMSD>  (1) 
0.8

>  <PUBCHEM_CONFORMER_DIVERSEORDER>  (1) 
1
24
27
38
41
18
10
2
31
23
13
21
8
20
9
35
28
5
39
36
16
3
15
12
30
14
17
26
40
4
29
22
32
34
25
7
19
6
37
11
33

>  <PUBCHEM_MMFF94_PARTIAL_CHARGES>  (1) 
25
1 -0.56
10 0.28
11 0.57
12 0.34
13 0.08
14 -0.15
15 -0.15
16 0.09
17 -0.15
18 -0.15
19 0.3
2 -0.36
3 -0.57
30 0.15
31 0.15
32 0.15
33 0.15
34 0.06
35 0.4
4 -0.34
5 -0.66
6 -0.51
7 0.3
8 0.3
9 0.28

>  <PUBCHEM_EFFECTIVE_ROTOR_COUNT>  (1) 
6.2

>  <PUBCHEM_PHARMACOPHORE_FEATURES>  (1) 
7
1 1 acceptor
1 2 acceptor
1 3 acceptor
1 4 anion
1 6 acceptor
6 1 5 7 8 9 10 rings
6 13 14 15 16 17 18 rings

>  <PUBCHEM_HEAVY_ATOM_COUNT>  (1) 
19

>  <PUBCHEM_ATOM_DEF_STEREO_COUNT>  (1) 
0

>  <PUBCHEM_ATOM_UDEF_STEREO_COUNT>  (1) 
0

>  <PUBCHEM_BOND_DEF_STEREO_COUNT>  (1) 
0

>  <PUBCHEM_BOND_UDEF_STEREO_COUNT>  (1) 
1

>  <PUBCHEM_ISOTOPIC_ATOM_COUNT>  (1) 
0

>  <PUBCHEM_COMPONENT_COUNT>  (1) 
1

>  <PUBCHEM_CACTVS_TAUTO_COUNT>  (1) 
2

>  <PUBCHEM_CONFORMER_ID>  (1) 
000087C700000001

>  <PUBCHEM_MMFF94_ENERGY>  (1) 
49.8156

>  <PUBCHEM_FEATURE_SELFOVERLAP>  (1) 
35.535

>  <PUBCHEM_SHAPE_FINGERPRINT>  (1) 
100836 57 11167941372341968744
10378564 45 11314305032333449802
10498660 4 8358248255317666110
11595378 159 15051460349351078674
12107183 9 17838062502664096656
12236239 1 18334859424420137773
12596602 18 17917713474480171522
12633257 1 16558750165360019827
12839892 36 17561083622705604967
12892183 10 17917427567324135432
13073987 5 18342455915859735352
13167823 11 18411699851046728056
13533116 47 18410857706538690409
13551218 46 18342177743692023135
13685833 64 18333452058131631555
13862211 1 18341894138981057487
1420 369 18335422344155625366
14211702 104 18336556014086295571
14251740 57 18272095933790233134
14252887 29 17988082180583267662
14341114 176 18202283602313976864
14420673 8 17838908040202092438
14528608 73 8430308030913935754
15048467 5 10087643697714108163
15183329 4 11674872282075458783
15188451 53 18335696135351402075
15196674 1 18411420570629565612
15210252 30 10519691298881850182
17492 89 18270685238548676622
17857418 61 18411136948343455655
17959699 21 9367350323064551119
1813 80 17749394737163765036
18222031 100 17385444332011509012
193927 3 18187094944086911513
19784866 240 17894353289354657997
20028762 73 18342175583202699687
20281389 69 11743847945463796763
20645477 56 10735880569279332345
20645477 70 18113335332162063292
21065198 48 18341900683677974480
21065199 12 18059009484867548424
21267235 1 18342181042701315830
21637258 2 17894343384701169809
22079108 93 13542462081719820509
23402539 116 18131629002767909261
23559900 14 18335977662395682729
25122255 55 17822586000894388547
270888 7 10447634799854321850
293599 30 9223237334549812941
29717793 49 17022621983261593789
3472631 163 9151170961124017747
351380 3 18261108552437031106
42 15 18412546479189828276
4214541 1 18340206288946320573
465052 167 18412548712683592254
5104073 3 18202282455304690376
542803 24 11959728265757937572
559249 180 18334292038213535309
5718773 13 17969494923589309962
5924683 9 17417514904571895023
59682541 35 18340195376568006762
59682541 52 12252170832744007632

>  <PUBCHEM_SHAPE_MULTIPOLES>  (1) 
357.57
15.17
2.03
0.85
4.87
0.14
0.01
9.13
4.01
-0.3
0.16
-0.29
0.04
-0.16

>  <PUBCHEM_SHAPE_SELFOVERLAP>  (1) 
742

>  <PUBCHEM_SHAPE_VOLUME>  (1) 
203.1

>  <PUBCHEM_COORDINATE_TYPE>  (1) 
2
5
10

$$$$
