34750
     RDKit          3D

 14 13  0  0  0  0  0  0  0  0999 V2000
   -4.9061    0.7516    0.4420 O   0  0  0  0  0  0  0  0  0  0  0  0
    4.9482   -0.7957   -0.3967 O   0  0  0  0  0  0  0  0  0  0  0  0
   -4.9483   -1.2985   -0.6921 N   0  0  0  0  0  0  0  0  0  0  0  0
    5.0270    1.3729    0.4870 N   0  0  0  0  0  0  0  0  0  0  0  0
   -0.5307   -0.1697    0.4028 C   0  0  0  0  0  0  0  0  0  0  0  0
    0.6042    0.3563   -0.4814 C   0  0  0  0  0  0  0  0  0  0  0  0
   -1.9373   -0.0733   -0.1936 C   0  0  0  0  0  0  0  0  0  0  0  0
    1.9924    0.1571    0.1279 C   0  0  0  0  0  0  0  0  0  0  0  0
   -3.0190   -0.6678    0.7035 C   0  0  0  0  0  0  0  0  0  0  0  0
    3.0881    0.6161   -0.8303 C   0  0  0  0  0  0  0  0  0  0  0  0
   -4.3747   -0.4484    0.0930 C   0  0  0  0  0  0  0  0  0  0  0  0
    4.4387    0.4468   -0.1941 C   0  0  0  0  0  0  0  0  0  0  0  0
   -6.2013    1.0721   -0.0827 C   0  0  0  0  0  0  0  0  0  0  0  0
    5.8188   -1.3196    0.6147 C   0  0  0  0  0  0  0  0  0  0  0  0
  1 11  1  0
  1 13  1  0
  2 12  1  0
  2 14  1  0
  3 11  2  0
  4 12  2  0
  5  6  1  0
  5  7  1  0
  6  8  1  0
  7  9  1  0
  8 10  1  0
  9 11  1  0
 10 12  1  0
M  END
>  <PUBCHEM_COMPOUND_CID>  (1) 
34750

>  <PUBCHEM_CONFORMER_RMSD>  (1) 
0.8

>  <PUBCHEM_CONFORMER_DIVERSEORDER>  (1) 
1
359
263
141
75
34
23
193
370
45
24
251
155
200
169
235
256
361
28
41
305
266
94
124
280
173
15
4
140
365
109
36
371
202
279
145
77
257
6
372
306
126
385
166
35
288
211
88
9
350
71
267
168
281
196
315
274
313
375
112
336
390
70
83
181
414
384
16
92
314
25
358
154
407
26
183
111
175
63
368
180
161
328
125
394
117
120
82
348
201
158
32
262
101
223
146
90
397
194
95
64
5
165
115
51
247
48
335
378
12
59
122
102
40
398
303
260
326
241
240
162
316
254
307
87
66
136
337
353
225
39
376
31
114
33
392
415
148
19
47
182
179
171
234
172
208
321
318
245
139
78
143
164
142
159
401
216
89
396
53
339
381
50
207
214
20
2
389
317
233
60
116
61
8
304
310
275
319
300
10
276
108
253
239
160
248
134
356
170
17
100
369
93
338
42
393
203
3
334
273
386
286
264
204
387
198
153
104
103
72
250
121
291
399
205
270
106
341
177
58
330
18
192
278
14
296
68
272
231
167
174
302
363
74
412
119
44
65
215
37
62
346
227
49
81
374
22
190
197
282
184
343
27
232
206
224
80
238
76
130
157
151
409
246
226
21
218
73
287
11
351
312
54
403
149
342
345
294
131
402
271
38
191
118
213
199
219
85
297
362
228
189
340
298
252
152
243
290
52
13
132
283
195
56
209
333
129
354
405
113
147
295
277
379
185
292
178
55
327
97
7
258
144
268
259
217
329
186
29
67
84
347
367
404
324
138
69
156
135
373
176
43
236
357
331
57
269
187
406
344
377
249
311
107
289
46
222
355
98
242
255
137
325
210
163
133
410
284
221
110
265
400
30
150
105
96
408
352
323
413
349
308
229
212
388
293
237
309
127
299
285
320
123
416
383
366
261
128
244
382
188
411
79
391
332
395
91
322
360
220
301
380
364
230
99
86

>  <PUBCHEM_MMFF94_PARTIAL_CHARGES>  (1) 
12
1 -0.43
10 0.06
11 0.54
12 0.54
13 0.28
14 0.28
2 -0.43
27 0.4
28 0.4
3 -0.85
4 -0.85
9 0.06

>  <PUBCHEM_EFFECTIVE_ROTOR_COUNT>  (1) 
9

>  <PUBCHEM_PHARMACOPHORE_FEATURES>  (1) 
4
1 3 donor
1 4 donor
3 5 7 9 hydrophobe
3 6 8 10 hydrophobe

>  <PUBCHEM_HEAVY_ATOM_COUNT>  (1) 
14

>  <PUBCHEM_ATOM_DEF_STEREO_COUNT>  (1) 
0

>  <PUBCHEM_ATOM_UDEF_STEREO_COUNT>  (1) 
0

>  <PUBCHEM_BOND_DEF_STEREO_COUNT>  (1) 
0

>  <PUBCHEM_BOND_UDEF_STEREO_COUNT>  (1) 
0

>  <PUBCHEM_ISOTOPIC_ATOM_COUNT>  (1) 
0

>  <PUBCHEM_COMPONENT_COUNT>  (1) 
1

>  <PUBCHEM_CACTVS_TAUTO_COUNT>  (1) 
1

>  <PUBCHEM_CONFORMER_ID>  (1) 
000087BE00000001

>  <PUBCHEM_MMFF94_ENERGY>  (1) 
22.4698

>  <PUBCHEM_FEATURE_SELFOVERLAP>  (1) 
20.298

>  <PUBCHEM_SHAPE_FINGERPRINT>  (1) 
10912923 1 17989214771484629098
11401426 45 18201722864321467029
114248 4 10807934855648915590
11858739 19 18202006486771503886
13533116 47 18410009906476530994
14123238 8 13183025115780445541
1420 363 10519984876896319029
14251718 22 17632296813103243471
14251752 14 18335698295994537817
17834072 33 17846215600348032110
17834076 25 18186803582633516513
19489759 90 17917994958305090777
20281389 69 18334859403219867777
20645477 70 18335421245377519502
20767249 13 17203612583561591076
21354914 41 16515405170340176166
220451 1 18341905111799533350
23081809 10 18408326609201592789
23218964 4 18187365406873009053
23402539 116 18341891900891425285
23536379 177 18411700980417379233
300161 21 18409163308023616211
42788 4 18413672421961700853
522135 26 12107781922392213580
5374978 207 17846497041729908672
57483677 66 18408884053160239462

>  <PUBCHEM_SHAPE_MULTIPOLES>  (1) 
266.41
16.86
1.2
0.81
2.08
0.08
-0.03
0.23
0.78
-0.4
0.05
-0.06
0.03
-0.39

>  <PUBCHEM_SHAPE_SELFOVERLAP>  (1) 
492.406

>  <PUBCHEM_SHAPE_VOLUME>  (1) 
168.5

>  <PUBCHEM_COORDINATE_TYPE>  (1) 
2
5
10

$$$$
