3476
     RDKit          3D

 34 36  0  0  0  0  0  0  0  0999 V2000
   -2.5584   -3.3766   -1.0960 S   0  0  0  0  0  0  0  0  0  0  0  0
   -2.3351   -0.4212   -2.0172 O   0  0  0  0  0  0  0  0  0  0  0  0
   -3.3046   -4.5060   -0.5568 O   0  0  0  0  0  0  0  0  0  0  0  0
   -2.4112   -3.2353   -2.5382 O   0  0  0  0  0  0  0  0  0  0  0  0
    1.4667    1.2676    0.6203 O   0  0  0  0  0  0  0  0  0  0  0  0
    5.2883   -0.7281    0.7903 O   0  0  0  0  0  0  0  0  0  0  0  0
   -3.6716    0.3636   -0.3018 N   0  0  0  0  0  0  0  0  0  0  0  0
   -3.2202   -1.9266   -0.4662 N   0  0  0  0  0  0  0  0  0  0  0  0
    3.7823    0.9404    0.1844 N   0  0  0  0  0  0  0  0  0  0  0  0
    3.0913   -0.8904    1.4875 N   0  0  0  0  0  0  0  0  0  0  0  0
   -3.8847    3.4161    1.8006 C   0  0  0  0  0  0  0  0  0  0  0  0
   -3.6227    1.7618   -0.6638 C   0  0  0  0  0  0  0  0  0  0  0  0
   -5.0899    2.6792    1.2035 C   0  0  0  0  0  0  0  0  0  0  0  0
   -2.5773    2.6840    1.4726 C   0  0  0  0  0  0  0  0  0  0  0  0
   -4.9324    2.4667   -0.3025 C   0  0  0  0  0  0  0  0  0  0  0  0
   -2.4144    2.4584   -0.0314 C   0  0  0  0  0  0  0  0  0  0  0  0
   -4.0467    3.5791    3.3107 C   0  0  0  0  0  0  0  0  0  0  0  0
   -3.0168   -0.6212   -1.0163 C   0  0  0  0  0  0  0  0  0  0  0  0
    4.7779    1.6904   -0.5491 C   0  0  0  0  0  0  0  0  0  0  0  0
    4.0045    2.8600   -1.0528 C   0  0  0  0  0  0  0  0  0  0  0  0
    2.7187    2.8293   -0.6796 C   0  0  0  0  0  0  0  0  0  0  0  0
   -0.9582   -3.3694   -0.3981 C   0  0  0  0  0  0  0  0  0  0  0  0
    2.5329    1.5976    0.1252 C   0  0  0  0  0  0  0  0  0  0  0  0
    1.5967    3.7622   -0.9413 C   0  0  0  0  0  0  0  0  0  0  0  0
    2.9818   -3.3544    1.3209 C   0  0  0  0  0  0  0  0  0  0  0  0
    1.5990   -3.3603    0.7169 C   0  0  0  0  0  0  0  0  0  0  0  0
    4.1436   -0.2702    0.8239 C   0  0  0  0  0  0  0  0  0  0  0  0
    3.2409   -2.1362    2.2039 C   0  0  0  0  0  0  0  0  0  0  0  0
    4.7008    3.8888   -1.8745 C   0  0  0  0  0  0  0  0  0  0  0  0
   -0.7349   -3.9727    0.8397 C   0  0  0  0  0  0  0  0  0  0  0  0
    0.0970   -2.7614   -1.0782 C   0  0  0  0  0  0  0  0  0  0  0  0
    0.5437   -3.9682    1.3971 C   0  0  0  0  0  0  0  0  0  0  0  0
    1.3756   -2.7569   -0.5207 C   0  0  0  0  0  0  0  0  0  0  0  0
    0.8374    3.4098   -2.2131 C   0  0  0  0  0  0  0  0  0  0  0  0
  1  3  2  0
  1  4  2  0
  1  8  1  0
  1 22  1  0
  2 18  2  0
  5 23  2  0
  6 27  2  0
  7 12  1  0
  7 18  1  0
  8 18  1  0
  9 19  1  0
  9 23  1  0
  9 27  1  0
 10 27  1  0
 10 28  1  0
 11 13  1  0
 11 14  1  0
 11 17  1  0
 12 15  1  0
 12 16  1  0
 13 15  1  0
 14 16  1  0
 19 20  1  0
 20 21  2  0
 20 29  1  0
 21 23  1  0
 21 24  1  0
 22 30  2  0
 22 31  1  0
 24 34  1  0
 25 26  1  0
 25 28  1  0
 26 32  2  0
 26 33  1  0
 30 32  1  0
 31 33  2  0
M  END
>  <PUBCHEM_COMPOUND_CID>  (1) 
3476

>  <PUBCHEM_CONFORMER_RMSD>  (1) 
1.4

>  <PUBCHEM_CONFORMER_DIVERSEORDER>  (1) 
1
40
173
172
41
80
97
74
45
57
89
91
18
170
22
149
100
139
124
160
163
14
44
130
96
154
150
157
111
102
94
36
167
161
54
64
123
148
49
104
51
78
60
42
24
27
79
90
114
131
84
117
158
43
122
35
132
2
125
68
48
93
165
65
113
121
133
106
76
151
71
128
127
155
69
37
168
55
109
153
53
72
16
164
28
4
126
142
146
144
15
141
145
105
56
46
58
107
171
5
110
135
61
166
108
39
119
147
29
87
129
85
23
70
32
116
81
99
162
103
118
10
92
62
169
59
83
66
21
8
47
52
140
50
143
98
26
156
137
77
38
159
20
86
6
67
95
7
19
75
63
112
17
120
136
11
9
138
3
88
115
30
82
34
25
33
134
152
73
101
12
31
13

>  <PUBCHEM_MMFF94_PARTIAL_CHARGES>  (1) 
34
1 1.45
10 -0.73
12 0.3
18 0.87
19 0.44
2 -0.57
20 -0.28
21 -0.12
22 -0.01
23 0.62
24 0.14
25 0.14
26 -0.14
27 0.69
28 0.3
29 0.14
3 -0.65
30 -0.15
31 -0.15
32 -0.15
33 -0.15
4 -0.65
48 0.37
49 0.42
5 -0.57
6 -0.57
61 0.15
62 0.15
63 0.37
64 0.15
65 0.15
7 -0.73
8 -0.79
9 -0.42

>  <PUBCHEM_EFFECTIVE_ROTOR_COUNT>  (1) 
12.6

>  <PUBCHEM_PHARMACOPHORE_FEATURES>  (1) 
12
1 10 donor
1 2 acceptor
1 3 acceptor
1 34 hydrophobe
1 4 acceptor
1 5 acceptor
1 6 acceptor
1 7 donor
1 8 donor
5 9 19 20 21 23 rings
6 11 12 13 14 15 16 rings
6 22 26 30 31 32 33 rings

>  <PUBCHEM_HEAVY_ATOM_COUNT>  (1) 
34

>  <PUBCHEM_ATOM_DEF_STEREO_COUNT>  (1) 
0

>  <PUBCHEM_ATOM_UDEF_STEREO_COUNT>  (1) 
0

>  <PUBCHEM_BOND_DEF_STEREO_COUNT>  (1) 
0

>  <PUBCHEM_BOND_UDEF_STEREO_COUNT>  (1) 
0

>  <PUBCHEM_ISOTOPIC_ATOM_COUNT>  (1) 
0

>  <PUBCHEM_COMPONENT_COUNT>  (1) 
1

>  <PUBCHEM_CACTVS_TAUTO_COUNT>  (1) 
6

>  <PUBCHEM_CONFORMER_ID>  (1) 
00000D9400000001

>  <PUBCHEM_MMFF94_ENERGY>  (1) 
27.613

>  <PUBCHEM_FEATURE_SELFOVERLAP>  (1) 
60.96

>  <PUBCHEM_SHAPE_FINGERPRINT>  (1) 
10049733 135 16532077971686572177
10305334 12 18411985775367166492
10653451 467 14954364319790891337
10815517 723 18052238623866468178
11059048 146 18337114565639108748
11513181 2 17702653342067540071
12788726 201 18124596650164591999
12978246 48 18412257303468475555
13398642 44 18268724809442946369
15297060 5 17845929637531898586
15351339 4 17830155162913683954
16112460 7 18336261327842416592
161222 619 18120400691024249841
20737093 172 15388163065250592741
20739085 24 17836085572114419618
20764821 26 17471268679312611788
21796203 349 17900277316424474568
245318 6 18127976300185576049
3534868 343 18054192622953210535
437795 96 16967161216508173289
50150288 127 18057059088594437801
5895379 119 18268136729930930834
9980921 221 17684392907369525572

>  <PUBCHEM_SHAPE_MULTIPOLES>  (1) 
654.28
10.63
8.24
2.3
1.89
3.59
0.67
-10.19
2.97
0.09
-1.16
1.31
-0.78
-6.81

>  <PUBCHEM_SHAPE_SELFOVERLAP>  (1) 
1345.026

>  <PUBCHEM_SHAPE_VOLUME>  (1) 
376.4

>  <PUBCHEM_COORDINATE_TYPE>  (1) 
2
5
10

$$$$
