34764
     RDKit          3D

 23 26  0  0  0  0  0  0  0  0999 V2000
   -1.1270    0.9920    0.0471 O   0  0  0  0  0  0  0  0  0  0  0  0
   -2.7324   -2.1756   -0.0083 O   0  0  0  0  0  0  0  0  0  0  0  0
   -1.1551   -0.4299   -0.0019 N   0  0  0  0  0  0  0  0  0  0  0  0
    1.2674   -0.3523   -0.0016 C   0  0  0  0  0  0  0  0  0  0  0  0
    1.4474    1.1513   -0.0040 C   0  0  0  0  0  0  0  0  0  0  0  0
    2.5229   -1.0008   -0.0003 C   0  0  0  0  0  0  0  0  0  0  0  0
    2.9562    1.2816   -0.0037 C   0  0  0  0  0  0  0  0  0  0  0  0
    3.5629    0.0055   -0.0016 C   0  0  0  0  0  0  0  0  0  0  0  0
    0.0836   -1.0688   -0.0005 C   0  0  0  0  0  0  0  0  0  0  0  0
    2.6006   -2.3834    0.0023 C   0  0  0  0  0  0  0  0  0  0  0  0
    3.7114    2.4412   -0.0052 C   0  0  0  0  0  0  0  0  0  0  0  0
    4.9422   -0.1176   -0.0007 C   0  0  0  0  0  0  0  0  0  0  0  0
    0.1621   -2.4626    0.0021 C   0  0  0  0  0  0  0  0  0  0  0  0
    1.4080   -3.1134    0.0035 C   0  0  0  0  0  0  0  0  0  0  0  0
    5.1018    2.3167   -0.0042 C   0  0  0  0  0  0  0  0  0  0  0  0
    5.7111    1.0502   -0.0020 C   0  0  0  0  0  0  0  0  0  0  0  0
   -2.4469   -0.9809   -0.0010 C   0  0  0  0  0  0  0  0  0  0  0  0
   -3.5963   -0.0548   -0.0028 C   0  0  0  0  0  0  0  0  0  0  0  0
   -4.1231    0.3677   -1.2110 C   0  0  0  0  0  0  0  0  0  0  0  0
   -4.1228    0.3696    1.2049 C   0  0  0  0  0  0  0  0  0  0  0  0
   -5.2103    1.2415   -1.2115 C   0  0  0  0  0  0  0  0  0  0  0  0
   -5.2100    1.2435    1.2043 C   0  0  0  0  0  0  0  0  0  0  0  0
   -5.7538    1.6794   -0.0039 C   0  0  0  0  0  0  0  0  0  0  0  0
  1  3  1  0
  2 17  2  0
  3  9  1  0
  3 17  1  0
  4  5  1  0
  4  6  2  0
  4  9  1  0
  5  7  1  0
  6  8  1  0
  6 10  1  0
  7  8  2  0
  7 11  1  0
  8 12  1  0
  9 13  2  0
 10 14  2  0
 11 15  2  0
 12 16  2  0
 13 14  1  0
 15 16  1  0
 17 18  1  0
 18 19  2  0
 18 20  1  0
 19 21  1  0
 20 22  2  0
 21 23  2  0
 22 23  1  0
M  END
>  <PUBCHEM_COMPOUND_CID>  (1) 
34764

>  <PUBCHEM_CONFORMER_RMSD>  (1) 
0.6

>  <PUBCHEM_CONFORMER_DIVERSEORDER>  (1) 
1
10
33
26
21
17
16
7
5
23
9
32
2
25
15
3
8
6
18
29
22
24
27
31
30
28
19
20
14
13
4
11
12

>  <PUBCHEM_MMFF94_PARTIAL_CHARGES>  (1) 
34
1 -0.44
10 -0.15
11 -0.15
12 -0.15
13 -0.15
14 -0.15
15 -0.15
16 -0.15
17 0.54
18 0.09
19 -0.15
2 -0.57
20 -0.15
21 -0.15
22 -0.15
23 -0.15
26 0.15
27 0.15
28 0.15
29 0.15
3 -0.14
30 0.15
31 0.15
32 0.15
33 0.4
34 0.15
35 0.15
36 0.15
37 0.15
38 0.15
4 -0.14
5 0.29
7 -0.14
9 0.12

>  <PUBCHEM_EFFECTIVE_ROTOR_COUNT>  (1) 
3.2

>  <PUBCHEM_PHARMACOPHORE_FEATURES>  (1) 
5
1 2 acceptor
5 4 5 6 7 8 rings
6 18 19 20 21 22 23 rings
6 4 6 9 10 13 14 rings
6 7 8 11 12 15 16 rings

>  <PUBCHEM_HEAVY_ATOM_COUNT>  (1) 
23

>  <PUBCHEM_ATOM_DEF_STEREO_COUNT>  (1) 
0

>  <PUBCHEM_ATOM_UDEF_STEREO_COUNT>  (1) 
0

>  <PUBCHEM_BOND_DEF_STEREO_COUNT>  (1) 
0

>  <PUBCHEM_BOND_UDEF_STEREO_COUNT>  (1) 
0

>  <PUBCHEM_ISOTOPIC_ATOM_COUNT>  (1) 
0

>  <PUBCHEM_COMPONENT_COUNT>  (1) 
1

>  <PUBCHEM_CACTVS_TAUTO_COUNT>  (1) 
1

>  <PUBCHEM_CONFORMER_ID>  (1) 
000087CC00000001

>  <PUBCHEM_MMFF94_ENERGY>  (1) 
91.722

>  <PUBCHEM_FEATURE_SELFOVERLAP>  (1) 
25.538

>  <PUBCHEM_SHAPE_FINGERPRINT>  (1) 
10 15 17967538999307686377
10411042 1 17690280413757357506
10595046 47 18343014476952406279
11089746 13 17632854231038866264
11595378 159 16153975859847262973
11796584 16 13183022899609190733
12236239 1 17846777382370964301
12390115 104 18267600159007232294
12403259 118 17896037826899146332
12403259 415 18198905997082840328
12422481 6 17458338650235160924
12730499 353 18335426746280955962
12769317 202 18341041965143959424
12788726 201 17203056153896436609
13103583 49 12540689285036684039
13140716 1 18335423452257831179
13631057 29 18128246986632096919
13675066 3 17822300059051085795
13878862 14 18191282915532557205
14528608 73 18343860030683632917
14790565 3 18337394966985206964
14848178 96 18341608252197402984
15081414 286 18409738326445230124
15188451 53 14779838212891598449
15196674 1 18338799021869161026
15475509 35 16371284399271430690
1601671 61 18334857229776213244
18335252 98 18409450311330404339
18608769 82 18339361998146670643
19784866 170 18260831501028540061
19784866 34 18411136939663817739
19784866 9 18411700984960370530
20157964 124 18339078186506764509
20511986 3 17917134027636746697
20612939 158 18341329981397975335
20645477 56 18113897144075576487
21033648 144 18408316671180195607
21033648 29 18267859661232333752
21033650 10 15338849625262441555
21236236 1 18339079414667353799
21279426 13 18341622525133084054
21307412 95 17915770659800661590
21421861 104 17969212348815628274
21709351 56 18339921618756093566
22122407 14 18052269401781466201
22393880 68 18059848523571003447
22950370 63 9006789704245741990
23402539 116 18272365425591409628
23402655 69 18273213118770055750
23559900 14 18341612569072383146
23929065 36 17481961825394286626
25147074 1 18270101479405132503
268830 7 18267585707054256697
2838139 119 18342734117813111285
335352 9 18411138027050153782
34797466 226 14835824215069068467
34934 24 18411978053047654943
350125 39 18408603635357238044
3545911 37 18409451392780863625
3680242 22 18335414639406309586
38695281 34 18273496775622418774
474 4 18411419505393397235
5104073 3 18261390078779367722
543358 83 18341895143201531730
57724786 102 18198633142295305729
59755656 215 18337675218101388684
602551 16 16009048193166329419
6034566 193 17972901411731733100
633830 44 18343020021191021078
636775 72 17619910999992375296
8272917 22 18341334392456099430

>  <PUBCHEM_SHAPE_MULTIPOLES>  (1) 
456.61
13.43
2.88
0.87
6.49
1.34
0
-9.95
-0.03
-2.22
0
1.23
-0.21
-0.01

>  <PUBCHEM_SHAPE_SELFOVERLAP>  (1) 
1027.943

>  <PUBCHEM_SHAPE_VOLUME>  (1) 
241.1

>  <PUBCHEM_COORDINATE_TYPE>  (1) 
2
5
10

$$$$
