34762
     RDKit          3D

 19 20  0  0  0  0  0  0  0  0999 V2000
    5.8597   -1.1824   -0.1735 O   0  0  0  0  0  0  0  0  0  0  0  0
   -0.0226    0.9867    0.6422 O   0  0  0  0  0  0  0  0  0  0  0  0
    2.1605    2.0955    0.0039 O   0  0  0  0  0  0  0  0  0  0  0  0
   -5.6596   -1.8158   -0.1576 O   0  0  0  0  0  0  0  0  0  0  0  0
    3.3744    0.1396   -0.2985 N   0  0  0  0  0  0  0  0  0  0  0  0
    4.6124    0.8409   -0.6375 C   0  0  0  0  0  0  0  0  0  0  0  0
    3.4515   -1.3187   -0.4351 C   0  0  0  0  0  0  0  0  0  0  0  0
    5.7921    0.2201    0.0971 C   0  0  0  0  0  0  0  0  0  0  0  0
    4.6826   -1.8514    0.2870 C   0  0  0  0  0  0  0  0  0  0  0  0
    2.2224    0.8635    0.0014 C   0  0  0  0  0  0  0  0  0  0  0  0
    0.9935    0.0603    0.3445 C   0  0  0  0  0  0  0  0  0  0  0  0
   -1.3233    0.5918    0.4216 C   0  0  0  0  0  0  0  0  0  0  0  0
   -2.2760    1.5418    0.0846 C   0  0  0  0  0  0  0  0  0  0  0  0
   -1.6580   -0.7489    0.5410 C   0  0  0  0  0  0  0  0  0  0  0  0
   -3.9434   -0.2035   -0.0216 C   0  0  0  0  0  0  0  0  0  0  0  0
   -3.5936    1.1418   -0.1382 C   0  0  0  0  0  0  0  0  0  0  0  0
   -2.9756   -1.1488    0.3180 C   0  0  0  0  0  0  0  0  0  0  0  0
   -5.3171   -0.6204   -0.2539 C   0  0  0  0  0  0  0  0  0  0  0  0
   -6.3801    0.4078   -0.6254 C   0  0  0  0  0  0  0  0  0  0  0  0
  1  8  1  0
  1  9  1  0
  2 11  1  0
  2 12  1  0
  3 10  2  0
  4 18  2  0
  5  6  1  0
  5  7  1  0
  5 10  1  0
  6  8  1  0
  7  9  1  0
 10 11  1  0
 12 13  2  0
 12 14  1  0
 13 16  1  0
 14 17  2  0
 15 16  2  0
 15 17  1  0
 15 18  1  0
 18 19  1  0
M  END
>  <PUBCHEM_COMPOUND_CID>  (1) 
34762

>  <PUBCHEM_CONFORMER_RMSD>  (1) 
0.8

>  <PUBCHEM_CONFORMER_DIVERSEORDER>  (1) 
1
38
71
62
69
2
70
5
57
23
40
22
20
34
49
72
8
55
43
44
66
54
13
37
58
6
18
67
12
26
24
16
50
14
28
36
32
25
41
65
48
60
64
39
4
30
21
31
42
52
53
9
63
45
10
47
33
27
51
68
61
3
17
46
35
15
19
59
56
73
7
11
29

>  <PUBCHEM_MMFF94_PARTIAL_CHARGES>  (1) 
23
1 -0.56
10 0.57
11 0.34
12 0.08
13 -0.15
14 -0.15
15 0.09
16 -0.15
17 -0.15
18 0.42
19 0.06
2 -0.36
3 -0.57
30 0.15
31 0.15
32 0.15
33 0.15
4 -0.57
5 -0.66
6 0.3
7 0.3
8 0.28
9 0.28

>  <PUBCHEM_EFFECTIVE_ROTOR_COUNT>  (1) 
6.2

>  <PUBCHEM_PHARMACOPHORE_FEATURES>  (1) 
6
1 1 acceptor
1 2 acceptor
1 3 acceptor
1 4 acceptor
6 1 5 6 7 8 9 rings
6 12 13 14 15 16 17 rings

>  <PUBCHEM_HEAVY_ATOM_COUNT>  (1) 
19

>  <PUBCHEM_ATOM_DEF_STEREO_COUNT>  (1) 
0

>  <PUBCHEM_ATOM_UDEF_STEREO_COUNT>  (1) 
0

>  <PUBCHEM_BOND_DEF_STEREO_COUNT>  (1) 
0

>  <PUBCHEM_BOND_UDEF_STEREO_COUNT>  (1) 
0

>  <PUBCHEM_ISOTOPIC_ATOM_COUNT>  (1) 
0

>  <PUBCHEM_COMPONENT_COUNT>  (1) 
1

>  <PUBCHEM_CACTVS_TAUTO_COUNT>  (1) 
2

>  <PUBCHEM_CONFORMER_ID>  (1) 
000087CA00000001

>  <PUBCHEM_MMFF94_ENERGY>  (1) 
53.2159

>  <PUBCHEM_FEATURE_SELFOVERLAP>  (1) 
30.465

>  <PUBCHEM_SHAPE_FINGERPRINT>  (1) 
10447042 23 18342171159754746990
10595046 47 18409169913388204196
106641 1 14764337271533972958
10968037 39 18410294730941851447
11089746 13 13190340205363453278
11315181 36 18272655657774523225
11524674 6 16559031614984126895
12107183 9 17617096906657517128
12236239 1 18333450945360503484
12516196 113 18131631192694814944
12555020 224 18410568509775485431
12670543 26 18261106357930081133
13073987 5 18341894056812170056
13167823 11 18410855443333537890
13288520 33 18342176665997739669
13533116 47 18413106139514851058
13668630 136 17775011188889705670
13685833 64 18412548734306115091
14251718 22 18335138704320095260
14251740 57 17273987848196560710
14251752 14 18113610145723593245
15048467 5 8142087563462915399
15183329 4 18261671489441987065
15196674 1 18411139100063840746
15352361 1 18411139130075987692
17834072 33 18410856572915075188
17834072 8 18260542321481711869
17857418 61 18413669114747407047
19784866 170 9799691506409613497
19784866 240 18272940400952093161
200 152 18131351907929768553
20281389 69 9007056863880502303
20369508 70 18131068260100766736
20374829 77 18413387644513803211
20645477 70 18411140199955595078
21267235 1 18411426115337444659
21637258 2 16917057911361765695
22079108 93 12535622773952394036
221357 26 18334853909381631469
2215653 11 18410851062482584015
22224240 67 15267335228644056110
23402539 116 18412261718805956717
23522609 53 18125472836463222361
23536379 177 18335420149464201921
23559900 14 18338510949728017849
2871803 45 18259987050697889002
29717793 49 18408044000733337172
3004659 81 18260548901313697282
34797466 226 17132120173794242184
351380 180 18410012147747676839
351380 3 18060699493946969950
4073 2 17967820500149146586
4214541 1 18410294674838660449
4325135 7 18409731777226304052
465052 167 18202569492438102862
5104073 3 18343586217870602248
542803 24 11963390751843156929
559249 180 18337951173523072635
59682541 35 18059564833361813930
59755656 520 16153426160495320859
7495541 125 17846495971528801424
9709674 26 18262522635663797147

>  <PUBCHEM_SHAPE_MULTIPOLES>  (1) 
362.55
15.91
1.75
0.72
0.27
0.11
0.01
4.57
2.82
0.43
-0.02
-0.05
-0.01
-0.06

>  <PUBCHEM_SHAPE_SELFOVERLAP>  (1) 
754.924

>  <PUBCHEM_SHAPE_VOLUME>  (1) 
205.8

>  <PUBCHEM_COORDINATE_TYPE>  (1) 
2
5
10

$$$$
