34768
     RDKit          3D

 23 25  0  0  1  0  0  0  0  0999 V2000
    3.4499    2.0354    0.1977 P   0  0  0  0  0  0  0  0  0  0  0  0
    0.7155   -1.1706    1.0439 O   0  0  0  0  0  0  0  0  0  0  0  0
    0.0313   -1.6409   -1.8720 O   0  0  0  0  0  0  0  0  0  0  0  0
    1.8127   -3.9783    0.2082 O   0  0  0  0  0  0  0  0  0  0  0  0
    2.8062    0.6373    0.7002 O   0  0  0  0  0  0  0  0  0  0  0  0
    2.4705    2.4993   -1.0027 O   0  0  0  0  0  0  0  0  0  0  0  0
    4.7875    1.5597   -0.5765 O   0  0  0  0  0  0  0  0  0  0  0  0
    3.6707    3.0554    1.2762 O   0  0  0  0  0  0  0  0  0  0  0  0
   -1.5790   -1.2214    0.4120 N   0  0  0  0  0  0  0  0  0  0  0  0
   -3.7693   -0.7774    0.4451 N   0  0  0  0  0  0  0  0  0  0  0  0
   -0.7225    0.9873   -0.1303 N   0  0  0  0  0  0  0  0  0  0  0  0
   -2.5298    2.6081   -0.3809 N   0  0  0  0  0  0  0  0  0  0  0  0
   -4.8327    2.0169   -0.1084 N   0  0  0  0  0  0  0  0  0  0  0  0
    0.1784   -2.5678   -0.8040 C   0  0  0  0  0  0  0  0  0  0  0  0
    1.6504   -2.7469   -0.4923 C   0  0  0  0  0  0  0  0  0  0  0  0
   -0.3408   -1.9859    0.5074 C   0  0  0  0  0  0  0  0  0  0  0  0
    1.9638   -1.5841    0.4515 C   0  0  0  0  0  0  0  0  0  0  0  0
    2.5661   -0.3790   -0.2573 C   0  0  0  0  0  0  0  0  0  0  0  0
   -1.7063    0.1114    0.1238 C   0  0  0  0  0  0  0  0  0  0  0  0
   -2.8502   -1.7080    0.5959 C   0  0  0  0  0  0  0  0  0  0  0  0
   -3.0685    0.3649    0.1499 C   0  0  0  0  0  0  0  0  0  0  0  0
   -3.4706    1.6701   -0.1153 C   0  0  0  0  0  0  0  0  0  0  0  0
   -1.2333    2.2144   -0.3720 C   0  0  0  0  0  0  0  0  0  0  0  0
  1  5  1  0
  1  6  1  0
  1  7  1  0
  1  8  2  0
  2 16  1  0
  2 17  1  0
  3 14  1  0
  4 15  1  0
  5 18  1  0
  9 16  1  0
  9 19  1  0
  9 20  1  0
 10 20  2  0
 10 21  1  0
 11 19  1  0
 11 23  2  0
 12 22  2  0
 12 23  1  0
 13 22  1  0
 14 15  1  0
 14 16  1  0
 15 17  1  0
 17 18  1  0
 19 21  2  0
 21 22  1  0
M  END
>  <PUBCHEM_COMPOUND_CID>  (1) 
34768

>  <PUBCHEM_CONFORMER_RMSD>  (1) 
0.8

>  <PUBCHEM_CONFORMER_DIVERSEORDER>  (1) 
2
38
5
43
25
35
11
41
30
37
44
46
45
42
40
31
13
19
26
20
33
39
24
34
23
28
48
4
27
18
47
22
21
12
10
36
32
1
14
17
9
6
3
29
8
16
7
15

>  <PUBCHEM_MMFF94_PARTIAL_CHARGES>  (1) 
31
1 1.51
10 -0.57
11 -0.57
12 -0.62
13 -0.9
14 0.28
15 0.28
16 0.54
17 0.28
18 0.28
19 0.11
2 -0.56
20 0.04
21 0.23
22 0.41
23 0.47
3 -0.68
30 0.4
31 0.4
32 0.15
33 0.15
34 0.4
35 0.4
36 0.5
37 0.5
4 -0.68
5 -0.55
6 -0.77
7 -0.77
8 -0.7
9 0.05

>  <PUBCHEM_EFFECTIVE_ROTOR_COUNT>  (1) 
5

>  <PUBCHEM_PHARMACOPHORE_FEATURES>  (1) 
17
1 13 cation
1 13 donor
1 2 acceptor
1 3 acceptor
1 3 donor
1 4 acceptor
1 4 donor
1 6 acceptor
1 7 acceptor
1 8 acceptor
3 11 12 23 cation
3 9 10 20 cation
3 9 11 19 cation
4 1 6 7 8 anion
5 2 14 15 16 17 rings
5 9 10 19 20 21 rings
6 11 12 19 21 22 23 rings

>  <PUBCHEM_HEAVY_ATOM_COUNT>  (1) 
23

>  <PUBCHEM_ATOM_DEF_STEREO_COUNT>  (1) 
4

>  <PUBCHEM_ATOM_UDEF_STEREO_COUNT>  (1) 
0

>  <PUBCHEM_BOND_DEF_STEREO_COUNT>  (1) 
0

>  <PUBCHEM_BOND_UDEF_STEREO_COUNT>  (1) 
0

>  <PUBCHEM_ISOTOPIC_ATOM_COUNT>  (1) 
0

>  <PUBCHEM_COMPONENT_COUNT>  (1) 
1

>  <PUBCHEM_CACTVS_TAUTO_COUNT>  (1) 
3

>  <PUBCHEM_CONFORMER_ID>  (1) 
000087D000000002

>  <PUBCHEM_MMFF94_ENERGY>  (1) 
18.7858

>  <PUBCHEM_FEATURE_SELFOVERLAP>  (1) 
86.914

>  <PUBCHEM_SHAPE_FINGERPRINT>  (1) 
10498660 4 18337950202812841541
10608611 8 18265333915398073611
10616163 171 18335423516560605297
10871710 139 18052533567169106783
10906281 52 18189913079074516755
1100329 8 17331401969775913696
11221954 11 18335988592475008227
11370993 70 18411131480713275568
12035759 4 17984398988007157591
12173636 292 18123183769518262382
12403259 226 17684649823073500327
12633257 1 18042958783749092010
13134695 92 17907009582739501158
13140716 1 18408881815366032737
138480 1 17978228258058102114
14223421 5 18335425621231450967
14250199 8 18125156035627473199
14466204 15 18337666413703534906
16945 1 18409449154876666251
17980427 23 17980162384826654706
19591789 44 18122908891178554793
20905425 154 18410863139629920573
21524375 3 18270967954876391730
23227448 37 18410009914654651503
23559900 14 18195521494002545347
238 59 17905009631075616373
2748010 2 18335432214365186843
350125 39 18409452470917907770
3524813 1 18199187463374924248
474 4 18338795594369136489
5262128 65 17555460530835069087
5939293 188 17906162958817190200
7097593 13 17607505952296133002
7364860 26 18267867177192557420
7808743 9 17834113422581774984
81228 2 17335042946854539458
9709674 26 18265896861283419787
9981440 41 18335136544189358282

>  <PUBCHEM_SHAPE_MULTIPOLES>  (1) 
411.19
7.37
4.29
0.98
0.58
0.74
-0.15
-6.33
0.51
-2.57
-0.18
-0.39
0.11
0.74

>  <PUBCHEM_SHAPE_SELFOVERLAP>  (1) 
871.865

>  <PUBCHEM_SHAPE_VOLUME>  (1) 
232.1

>  <PUBCHEM_COORDINATE_TYPE>  (1) 
2
5
10

$$$$
