34770
     RDKit          3D

 12 12  0  0  1  0  0  0  0  0999 V2000
    0.0680    0.0270   -0.7223 O   0  0  0  0  0  0  0  0  0  0  0  0
   -1.0625    2.9154   -0.5731 O   0  0  0  0  0  0  0  0  0  0  0  0
   -1.2601    0.5098   -0.4371 C   0  0  0  0  0  0  0  0  0  0  0  0
    1.0279    0.8525   -0.0438 C   0  0  0  0  0  0  0  0  0  0  0  0
   -1.0949    1.8145    0.3325 C   0  0  0  0  0  0  0  0  0  0  0  0
    0.2557    1.6546    0.9928 C   0  0  0  0  0  0  0  0  0  0  0  0
   -1.9757   -0.5637    0.3721 C   0  0  0  0  0  0  0  0  0  0  0  0
    2.1162   -0.0174    0.5567 C   0  0  0  0  0  0  0  0  0  0  0  0
   -2.0821   -1.8563   -0.4177 C   0  0  0  0  0  0  0  0  0  0  0  0
    2.8800   -0.7640   -0.5256 C   0  0  0  0  0  0  0  0  0  0  0  0
   -2.8217   -2.9155    0.3829 C   0  0  0  0  0  0  0  0  0  0  0  0
    3.9491   -1.6568    0.0826 C   0  0  0  0  0  0  0  0  0  0  0  0
  1  3  1  0
  1  4  1  0
  2  5  1  0
  3  5  1  0
  3  7  1  0
  4  6  1  0
  4  8  1  0
  5  6  1  0
  7  9  1  0
  8 10  1  0
  9 11  1  0
 10 12  1  0
M  END
>  <PUBCHEM_COMPOUND_CID>  (1) 
34770

>  <PUBCHEM_CONFORMER_RMSD>  (1) 
0.6

>  <PUBCHEM_CONFORMER_DIVERSEORDER>  (1) 
1
90
84
170
120
148
83
156
48
77
141
55
147
155
42
39
163
139
44
116
124
36
151
27
69
145
59
32
121
105
31
115
60
154
109
7
161
17
134
47
168
37
34
91
20
113
171
99
142
118
53
65
92
111
73
159
135
95
112
4
123
102
122
80
88
28
46
103
166
70
85
25
128
6
101
117
33
169
61
165
87
158
94
143
63
127
15
126
150
131
43
49
144
78
64
45
130
153
110
138
79
107
26
75
57
21
68
160
8
108
129
18
162
133
81
97
152
164
72
50
157
54
24
93
66
40
132
10
13
149
106
137
56
125
30
167
23
96
35
86
19
2
5
104
82
14
58
140
51
136
16
29
52
89
146
9
12
119
76
114
67
98
41
100
71
38
3
11
74
62
22

>  <PUBCHEM_MMFF94_PARTIAL_CHARGES>  (1) 
6
1 -0.56
2 -0.68
26 0.4
3 0.28
4 0.28
5 0.28

>  <PUBCHEM_EFFECTIVE_ROTOR_COUNT>  (1) 
5

>  <PUBCHEM_PHARMACOPHORE_FEATURES>  (1) 
6
1 1 acceptor
1 11 hydrophobe
1 12 hydrophobe
1 2 acceptor
1 2 donor
5 1 3 4 5 6 rings

>  <PUBCHEM_HEAVY_ATOM_COUNT>  (1) 
12

>  <PUBCHEM_ATOM_DEF_STEREO_COUNT>  (1) 
0

>  <PUBCHEM_ATOM_UDEF_STEREO_COUNT>  (1) 
3

>  <PUBCHEM_BOND_DEF_STEREO_COUNT>  (1) 
0

>  <PUBCHEM_BOND_UDEF_STEREO_COUNT>  (1) 
0

>  <PUBCHEM_ISOTOPIC_ATOM_COUNT>  (1) 
0

>  <PUBCHEM_COMPONENT_COUNT>  (1) 
1

>  <PUBCHEM_CACTVS_TAUTO_COUNT>  (1) 
1

>  <PUBCHEM_CONFORMER_ID>  (1) 
000087D200000001

>  <PUBCHEM_MMFF94_ENERGY>  (1) 
14.8285

>  <PUBCHEM_FEATURE_SELFOVERLAP>  (1) 
30.446

>  <PUBCHEM_SHAPE_FINGERPRINT>  (1) 
12138202 97 18121497947266920972
12500047 106 18049152268798546032
12716758 59 18196361529438963256
13024252 1 14925094560123251420
15279307 12 17899416377034008610
16945 1 18336537205775133609
18186145 218 11242508013296965450
20524608 308 18194119616560618562
20645476 183 17973729069319855772
20645477 70 17471280125839195023
20711985 344 18336531734208123761
20871998 184 18130788936522759446
20871998 22 18267301121835453859
21061003 4 17132115736654876914
21665056 4 17977101262670952398
23500284 5 18410579495626660386
2748010 2 18268977859988098373
3250762 1 18269538567879654625
81228 2 18339347609320251353

>  <PUBCHEM_SHAPE_MULTIPOLES>  (1) 
235.22
4.92
3.1
0.86
3.65
0.14
0.05
-5.28
0.14
-2.05
0.08
0
0.13
0.36

>  <PUBCHEM_SHAPE_SELFOVERLAP>  (1) 
451.718

>  <PUBCHEM_SHAPE_VOLUME>  (1) 
145.7

>  <PUBCHEM_COORDINATE_TYPE>  (1) 
2
5
10

$$$$
