34776
     RDKit          3D

 14 15  0  0  1  0  0  0  0  0999 V2000
    2.5510   -1.4424    1.0635 O   0  0  0  0  0  0  0  0  0  0  0  0
    4.2891    0.3904   -0.3228 N   0  0  0  0  0  0  0  0  0  0  0  0
   -3.6217   -0.0209    0.2535 C   0  0  0  0  0  0  0  0  0  0  0  0
   -4.3663    0.5062   -0.9329 C   0  0  0  0  0  0  0  0  0  0  0  0
   -4.1794    1.3677    0.2815 C   0  0  0  0  0  0  0  0  0  0  0  0
   -2.1462   -0.2096    0.1624 C   0  0  0  0  0  0  0  0  0  0  0  0
   -1.6049   -0.9911   -0.8584 C   0  0  0  0  0  0  0  0  0  0  0  0
   -1.3064    0.3967    1.0966 C   0  0  0  0  0  0  0  0  0  0  0  0
    0.6161   -0.5598   -0.0107 C   0  0  0  0  0  0  0  0  0  0  0  0
   -0.2237   -1.1662   -0.9449 C   0  0  0  0  0  0  0  0  0  0  0  0
    0.0748    0.2216    1.0100 C   0  0  0  0  0  0  0  0  0  0  0  0
    2.0927   -0.7477   -0.1041 C   0  0  0  0  0  0  0  0  0  0  0  0
    2.8450    0.5920   -0.2289 C   0  0  0  0  0  0  0  0  0  0  0  0
    4.9799    1.6631   -0.4649 C   0  0  0  0  0  0  0  0  0  0  0  0
  1 12  1  0
  2 13  1  0
  2 14  1  0
  3  4  1  0
  3  5  1  0
  3  6  1  0
  4  5  1  0
  6  7  2  0
  6  8  1  0
  7 10  1  0
  8 11  2  0
  9 10  2  0
  9 11  1  0
  9 12  1  0
 12 13  1  0
M  END
>  <PUBCHEM_COMPOUND_CID>  (1) 
34776

>  <PUBCHEM_CONFORMER_RMSD>  (1) 
0.6

>  <PUBCHEM_CONFORMER_DIVERSEORDER>  (1) 
1
23
18
26
25
11
21
3
28
15
22
12
32
27
2
13
24
9
20
14
33
19
6
4
30
29
8
31
16
17
5
7
10

>  <PUBCHEM_MMFF94_PARTIAL_CHARGES>  (1) 
25
1 -0.68
10 -0.15
11 -0.15
12 0.42
13 0.27
14 0.27
15 0.1
16 0.1
17 0.1
18 0.1
19 0.1
2 -0.9
20 0.15
21 0.15
22 0.15
23 0.15
27 0.36
28 0.4
3 -0.07
4 -0.2
5 -0.2
6 -0.03
7 -0.15
8 -0.15
9 -0.14

>  <PUBCHEM_EFFECTIVE_ROTOR_COUNT>  (1) 
4.6

>  <PUBCHEM_PHARMACOPHORE_FEATURES>  (1) 
5
1 1 acceptor
1 1 donor
1 2 cation
1 2 donor
6 6 7 8 9 10 11 rings

>  <PUBCHEM_HEAVY_ATOM_COUNT>  (1) 
14

>  <PUBCHEM_ATOM_DEF_STEREO_COUNT>  (1) 
0

>  <PUBCHEM_ATOM_UDEF_STEREO_COUNT>  (1) 
1

>  <PUBCHEM_BOND_DEF_STEREO_COUNT>  (1) 
0

>  <PUBCHEM_BOND_UDEF_STEREO_COUNT>  (1) 
0

>  <PUBCHEM_ISOTOPIC_ATOM_COUNT>  (1) 
0

>  <PUBCHEM_COMPONENT_COUNT>  (1) 
1

>  <PUBCHEM_CACTVS_TAUTO_COUNT>  (1) 
1

>  <PUBCHEM_CONFORMER_ID>  (1) 
000087D800000001

>  <PUBCHEM_MMFF94_ENERGY>  (1) 
31.7421

>  <PUBCHEM_FEATURE_SELFOVERLAP>  (1) 
25.374

>  <PUBCHEM_SHAPE_FINGERPRINT>  (1) 
10014705 185 18199749305411327596
11769659 78 9943517501600194761
12119455 92 17312816091422960226
12251169 10 14345796071540246894
12670546 177 17346593110245701981
13214271 11 17968098676168733399
13675066 3 11458419163325085112
13760787 19 18410289220588988099
13760787 5 18131072584984906635
14252887 29 14490471950485395800
14911166 2 17203608194368810601
14943859 89 18260829310457952113
14993402 34 17846779615490279041
15209294 21 16009022848585557253
15342168 16 17749962192685429892
15775835 57 18411138052070702132
16945 1 17275383192633701731
17959699 21 18343021129382624088
18186145 218 17895481319312312019
19026448 4 17676774180213536907
19026448 5 18261667104349222579
19784866 240 10735889386741780448
200 152 11312058746635306270
20645476 183 18343017839078765095
20645477 70 18336547105822840218
20871999 31 17632290241581877903
21119208 17 18060143154312135892
21637258 2 11167935819276738157
22713019 99 14620797106459073844
22926399 37 18341899610030907648
23048698 100 18336265656731510354
231179 274 18407761439093055236
23379529 103 14905614715025930629
23402539 116 14346069875811141339
23402655 69 17489024856173103385
23559900 14 17703230594673422238
2748010 2 17058064839641734659
296302 2 18260831488264840499
42 15 11241965988650868724
449060 50 17749394771101178207
474 4 18041846232964985220
4990 188 15267342911781366140
633830 44 18268433438824467311
76465 3 7781215718571874513

>  <PUBCHEM_SHAPE_MULTIPOLES>  (1) 
277.26
9.11
1.37
1.05
3.9
0.09
0.09
4.93
-2.09
0.53
-0.12
-0.12
-0.07
-0.71

>  <PUBCHEM_SHAPE_SELFOVERLAP>  (1) 
569.144

>  <PUBCHEM_SHAPE_VOLUME>  (1) 
162.1

>  <PUBCHEM_COORDINATE_TYPE>  (1) 
2
5
10

$$$$
