34773
     RDKit          3D

  9  9  0  0  1  0  0  0  0  0999 V2000
    0.3114   -1.2286   -0.5829 O   0  0  0  0  0  0  0  0  0  0  0  0
    2.2928    1.0137   -0.2646 O   0  0  0  0  0  0  0  0  0  0  0  0
   -0.5263   -0.1028   -0.2540 C   0  0  0  0  0  0  0  0  0  0  0  0
    0.1887    0.6676    0.8626 C   0  0  0  0  0  0  0  0  0  0  0  0
    1.6300    0.2343    0.7226 C   0  0  0  0  0  0  0  0  0  0  0  0
   -1.8835   -0.6320    0.2063 C   0  0  0  0  0  0  0  0  0  0  0  0
    1.4959   -1.1878    0.2273 C   0  0  0  0  0  0  0  0  0  0  0  0
   -0.6978    0.7364   -1.5219 C   0  0  0  0  0  0  0  0  0  0  0  0
   -2.8113    0.4992    0.6045 C   0  0  0  0  0  0  0  0  0  0  0  0
  1  3  1  0
  1  7  1  0
  2  5  1  0
  3  4  1  0
  3  6  1  0
  3  8  1  0
  4  5  1  0
  5  7  1  0
  6  9  1  0
M  END
>  <PUBCHEM_COMPOUND_CID>  (1) 
34773

>  <PUBCHEM_CONFORMER_RMSD>  (1) 
0.4

>  <PUBCHEM_CONFORMER_DIVERSEORDER>  (1) 
1
16
14
10
4
12
17
13
9
7
11
15
5
6
8
3
2

>  <PUBCHEM_MMFF94_PARTIAL_CHARGES>  (1) 
6
1 -0.56
2 -0.68
23 0.4
3 0.28
5 0.28
7 0.28

>  <PUBCHEM_EFFECTIVE_ROTOR_COUNT>  (1) 
2

>  <PUBCHEM_PHARMACOPHORE_FEATURES>  (1) 
5
1 1 acceptor
1 2 acceptor
1 2 donor
1 9 hydrophobe
5 1 3 4 5 7 rings

>  <PUBCHEM_HEAVY_ATOM_COUNT>  (1) 
9

>  <PUBCHEM_ATOM_DEF_STEREO_COUNT>  (1) 
0

>  <PUBCHEM_ATOM_UDEF_STEREO_COUNT>  (1) 
2

>  <PUBCHEM_BOND_DEF_STEREO_COUNT>  (1) 
0

>  <PUBCHEM_BOND_UDEF_STEREO_COUNT>  (1) 
0

>  <PUBCHEM_ISOTOPIC_ATOM_COUNT>  (1) 
0

>  <PUBCHEM_COMPONENT_COUNT>  (1) 
1

>  <PUBCHEM_CACTVS_TAUTO_COUNT>  (1) 
1

>  <PUBCHEM_CONFORMER_ID>  (1) 
000087D500000001

>  <PUBCHEM_MMFF94_ENERGY>  (1) 
22.3514

>  <PUBCHEM_FEATURE_SELFOVERLAP>  (1) 
25.372

>  <PUBCHEM_SHAPE_FINGERPRINT>  (1) 
10857977 72 16805603711171491129
137420 1 7879166248175074070
16945 1 18334575767235758139
21040471 1 18060131093727464170
24536 1 18193534727824662992
29004967 10 17167584903397700009
369184 2 16298651858913877761
5084963 1 18263902458411202650
68250623 7 16769332862601420742

>  <PUBCHEM_SHAPE_MULTIPOLES>  (1) 
173.48
3.08
1.18
1.11
0.99
0.06
-0.14
-0.2
0.74
-0.32
-0.23
0.17
-0.23
0.12

>  <PUBCHEM_SHAPE_SELFOVERLAP>  (1) 
340.415

>  <PUBCHEM_SHAPE_VOLUME>  (1) 
106.1

>  <PUBCHEM_COORDINATE_TYPE>  (1) 
2
5
10

$$$$
