34787
     RDKit          3D

 16 17  0  0  1  0  0  0  0  0999 V2000
    1.5268    2.7455   -0.4506 Cl  0  0  0  0  0  0  0  0  0  0  0  0
   -3.3231   -0.5473   -0.0372 O   0  0  0  0  0  0  0  0  0  0  0  0
    2.6657    0.2147    0.3724 N   0  0  0  0  0  0  0  0  0  0  0  0
    1.6176   -0.3669   -0.4733 C   0  0  0  0  0  0  0  0  0  0  0  0
    1.5893   -1.8748   -0.1755 C   0  0  0  0  0  0  0  0  0  0  0  0
    0.3998   -2.5362   -0.8567 C   0  0  0  0  0  0  0  0  0  0  0  0
    0.2578    0.2972   -0.3149 C   0  0  0  0  0  0  0  0  0  0  0  0
   -0.8986   -1.9773   -0.2855 C   0  0  0  0  0  0  0  0  0  0  0  0
   -0.9249   -0.4694   -0.2553 C   0  0  0  0  0  0  0  0  0  0  0  0
    0.1486    1.6999   -0.3115 C   0  0  0  0  0  0  0  0  0  0  0  0
   -2.1675    0.1736   -0.1254 C   0  0  0  0  0  0  0  0  0  0  0  0
    3.9316   -0.4804    0.1569 C   0  0  0  0  0  0  0  0  0  0  0  0
    2.2738    0.1505    1.7776 C   0  0  0  0  0  0  0  0  0  0  0  0
   -1.0933    2.3266   -0.1956 C   0  0  0  0  0  0  0  0  0  0  0  0
   -2.2504    1.5635   -0.0949 C   0  0  0  0  0  0  0  0  0  0  0  0
   -3.7533   -0.9191    1.2695 C   0  0  0  0  0  0  0  0  0  0  0  0
  1 10  1  0
  2 11  1  0
  2 16  1  0
  3  4  1  0
  3 12  1  0
  3 13  1  0
  4  5  1  0
  4  7  1  0
  5  6  1  0
  6  8  1  0
  7  9  2  0
  7 10  1  0
  8  9  1  0
  9 11  1  0
 10 14  2  0
 11 15  2  0
 14 15  1  0
M  END
>  <PUBCHEM_COMPOUND_CID>  (1) 
34787

>  <PUBCHEM_CONFORMER_RMSD>  (1) 
0.6

>  <PUBCHEM_CONFORMER_DIVERSEORDER>  (1) 
1

>  <PUBCHEM_MMFF94_PARTIAL_CHARGES>  (1) 
16
1 -0.18
10 0.18
11 0.08
12 0.27
13 0.27
14 -0.15
15 -0.15
16 0.28
2 -0.36
3 -0.81
30 0.15
31 0.15
4 0.41
7 -0.14
8 0.14
9 -0.14

>  <PUBCHEM_EFFECTIVE_ROTOR_COUNT>  (1) 
2.8

>  <PUBCHEM_PHARMACOPHORE_FEATURES>  (1) 
4
1 2 acceptor
1 3 cation
6 4 5 6 7 8 9 rings
6 7 9 10 11 14 15 rings

>  <PUBCHEM_HEAVY_ATOM_COUNT>  (1) 
16

>  <PUBCHEM_ATOM_DEF_STEREO_COUNT>  (1) 
1

>  <PUBCHEM_ATOM_UDEF_STEREO_COUNT>  (1) 
0

>  <PUBCHEM_BOND_DEF_STEREO_COUNT>  (1) 
0

>  <PUBCHEM_BOND_UDEF_STEREO_COUNT>  (1) 
0

>  <PUBCHEM_ISOTOPIC_ATOM_COUNT>  (1) 
0

>  <PUBCHEM_COMPONENT_COUNT>  (1) 
1

>  <PUBCHEM_CACTVS_TAUTO_COUNT>  (1) 
1

>  <PUBCHEM_CONFORMER_ID>  (1) 
000087E300000001

>  <PUBCHEM_MMFF94_ENERGY>  (1) 
62.2066

>  <PUBCHEM_FEATURE_SELFOVERLAP>  (1) 
20.318

>  <PUBCHEM_SHAPE_FINGERPRINT>  (1) 
10967382 1 18194683889211174813
11132069 177 18271514377394471626
11471102 22 18336842951954776219
11680986 33 18052259496842452375
12011746 2 18411695461289510470
12382932 28 18265613178208027569
12644460 14 18117014370893317329
13140716 1 18195249042546213443
13172582 1 18411699928182143979
13380535 21 17981615870320510620
13544592 271 18266161856249037205
14178342 30 18268433434366015369
14790565 3 18267326354742749589
15219456 202 18198624324126235599
15309172 13 18342178873094075579
15852999 172 17539379082373060765
16945 1 18411133653797415759
193761 8 17762899166171324758
19591789 44 17327475016572686700
20510252 161 18272649022044886600
20588541 1 17980477858658835708
20645477 70 18262233456285812559
20871998 184 18411413977696569244
21029758 27 18261117387163588652
21501502 16 17980474564313223214
22112679 90 17984979560058231263
22802520 49 17911247113252819662
2334 1 17834956747334932783
23388829 49 18341602746418113909
23402539 116 18341597214194593486
23419403 2 15820670734263983914
23463225 33 18336265733766517500
23493267 7 17968935254256919208
23559900 14 15677164606753418158
2748010 2 18196371412016156783
43471831 8 18263359192409463162
465052 167 18115317794729896403
528862 383 18116996804429571197
53812653 166 18200590272539118120
7364860 26 18267586986575150756
81228 2 17768501122270770206
8809292 202 17832431890712312727

>  <PUBCHEM_SHAPE_MULTIPOLES>  (1) 
320.29
5.01
2.83
1.03
0.63
0.67
-0.44
-0.9
-1.72
-0.14
0.75
-0.17
-0.15
0.31

>  <PUBCHEM_SHAPE_SELFOVERLAP>  (1) 
663.454

>  <PUBCHEM_SHAPE_VOLUME>  (1) 
185.2

>  <PUBCHEM_COORDINATE_TYPE>  (1) 
2
5
10

$$$$
