34789
     RDKit          3D

 16 17  0  0  1  0  0  0  0  0999 V2000
    1.5745   -2.7155   -0.4548 Cl  0  0  0  0  0  0  0  0  0  0  0  0
   -3.3208    0.5116   -0.0439 O   0  0  0  0  0  0  0  0  0  0  0  0
    2.6110   -0.2094    0.3907 N   0  0  0  0  0  0  0  0  0  0  0  0
    1.6181    0.3930   -0.4768 C   0  0  0  0  0  0  0  0  0  0  0  0
    1.5828    1.8993   -0.1863 C   0  0  0  0  0  0  0  0  0  0  0  0
    0.3818    2.5508   -0.8562 C   0  0  0  0  0  0  0  0  0  0  0  0
    0.2693   -0.2839   -0.3192 C   0  0  0  0  0  0  0  0  0  0  0  0
   -0.9098    1.9758   -0.2833 C   0  0  0  0  0  0  0  0  0  0  0  0
   -0.9216    0.4677   -0.2596 C   0  0  0  0  0  0  0  0  0  0  0  0
    0.1835   -1.6879   -0.3100 C   0  0  0  0  0  0  0  0  0  0  0  0
   -2.1547   -0.1924   -0.1315 C   0  0  0  0  0  0  0  0  0  0  0  0
    2.1992   -0.0888    1.7856 C   0  0  0  0  0  0  0  0  0  0  0  0
    3.9113    0.4186    0.1782 C   0  0  0  0  0  0  0  0  0  0  0  0
   -1.0490   -2.3317   -0.1954 C   0  0  0  0  0  0  0  0  0  0  0  0
   -2.2173   -1.5840   -0.0999 C   0  0  0  0  0  0  0  0  0  0  0  0
   -3.7583    0.8767    1.2624 C   0  0  0  0  0  0  0  0  0  0  0  0
  1 10  1  0
  2 11  1  0
  2 16  1  0
  3  4  1  0
  3 12  1  0
  3 13  1  0
  4  5  1  0
  4  7  1  0
  5  6  1  0
  6  8  1  0
  7  9  2  0
  7 10  1  0
  8  9  1  0
  9 11  1  0
 10 14  2  0
 11 15  2  0
 14 15  1  0
M  END
>  <PUBCHEM_COMPOUND_CID>  (1) 
34789

>  <PUBCHEM_CONFORMER_RMSD>  (1) 
0.6

>  <PUBCHEM_CONFORMER_DIVERSEORDER>  (1) 
2
1

>  <PUBCHEM_MMFF94_PARTIAL_CHARGES>  (1) 
16
1 -0.18
10 0.18
11 0.08
12 0.27
13 0.27
14 -0.15
15 -0.15
16 0.28
2 -0.36
3 -0.81
30 0.15
31 0.15
4 0.41
7 -0.14
8 0.14
9 -0.14

>  <PUBCHEM_EFFECTIVE_ROTOR_COUNT>  (1) 
2.8

>  <PUBCHEM_PHARMACOPHORE_FEATURES>  (1) 
4
1 2 acceptor
1 3 cation
6 4 5 6 7 8 9 rings
6 7 9 10 11 14 15 rings

>  <PUBCHEM_HEAVY_ATOM_COUNT>  (1) 
16

>  <PUBCHEM_ATOM_DEF_STEREO_COUNT>  (1) 
0

>  <PUBCHEM_ATOM_UDEF_STEREO_COUNT>  (1) 
1

>  <PUBCHEM_BOND_DEF_STEREO_COUNT>  (1) 
0

>  <PUBCHEM_BOND_UDEF_STEREO_COUNT>  (1) 
0

>  <PUBCHEM_ISOTOPIC_ATOM_COUNT>  (1) 
0

>  <PUBCHEM_COMPONENT_COUNT>  (1) 
1

>  <PUBCHEM_CACTVS_TAUTO_COUNT>  (1) 
1

>  <PUBCHEM_CONFORMER_ID>  (1) 
000087E500000002

>  <PUBCHEM_MMFF94_ENERGY>  (1) 
63.4683

>  <PUBCHEM_FEATURE_SELFOVERLAP>  (1) 
20.318

>  <PUBCHEM_SHAPE_FINGERPRINT>  (1) 
10382601 240 18266193728926937258
10967382 1 18410575050319223495
11086676 242 18187080637640889656
11132069 177 18409720773071815440
11680986 33 18340218401049617823
12251169 10 18408888468476043857
12382932 28 18410290307046532307
12423570 1 9690490747327495705
12524768 44 18408884023058356879
12716301 132 17469309340938891090
13140716 1 18338238296329075601
13172582 1 18408885156919134409
13221675 6 18261109699066438680
14178342 30 18341888623573266323
14251711 518 17543905067512454334
14790565 3 18265917833361495236
15309172 13 18410575080378674259
15375462 189 17822283609052146352
15490181 8 18267311004771791639
15775835 57 18131350786800905531
161256 15 18124040026645380038
16945 1 18410007723820527309
17804303 29 18342738537840445202
193761 8 17761491391861074708
20510252 161 17913494820120745507
20588541 1 18412263908927703462
20739085 24 17906201489027110889
20871998 184 18263071129042376868
21501502 16 18121222240436550453
22112679 90 18118099567642638776
22182313 1 18048031874396394013
22344851 262 18413387652792774295
22959321 45 18409731746560243506
2334 1 18049441748971960365
23388829 49 18052804029839354735
23419403 2 16980088256657937890
23463225 33 18334855047631873622
23552423 10 17612306763680861405
23559900 14 18272102625755176556
2748010 2 17976816489180392781
2897 32 17471008554402103437
34934 24 18187351173467817896
528886 8 18411698802737097666
53812653 166 18272653432733342426
6992083 37 18336547234681979813
7364860 26 17986676973835753262
90316 7 18116688812414510968

>  <PUBCHEM_SHAPE_MULTIPOLES>  (1) 
320.29
4.96
2.83
1.03
0.77
0.61
0.44
-0.8
1.69
-0.18
-0.77
-0.17
-0.16
-0.27

>  <PUBCHEM_SHAPE_SELFOVERLAP>  (1) 
664.929

>  <PUBCHEM_SHAPE_VOLUME>  (1) 
185.3

>  <PUBCHEM_COORDINATE_TYPE>  (1) 
2
5
10

$$$$
