34793
     RDKit          3D

 15 16  0  0  1  0  0  0  0  0999 V2000
    1.4674   -2.9126    0.4816 Cl  0  0  0  0  0  0  0  0  0  0  0  0
   -3.0308    0.7299   -0.5411 O   0  0  0  0  0  0  0  0  0  0  0  0
    2.6348   -0.0920   -0.7059 N   0  0  0  0  0  0  0  0  0  0  0  0
    1.7947    0.1553    0.4506 C   0  0  0  0  0  0  0  0  0  0  0  0
    1.8132    1.6509    0.7910 C   0  0  0  0  0  0  0  0  0  0  0  0
    0.9080    2.4500   -0.1415 C   0  0  0  0  0  0  0  0  0  0  0  0
    0.4051   -0.3809    0.1877 C   0  0  0  0  0  0  0  0  0  0  0  0
   -0.5374    1.9761   -0.0208 C   0  0  0  0  0  0  0  0  0  0  0  0
   -0.6819    0.4760   -0.0697 C   0  0  0  0  0  0  0  0  0  0  0  0
   -1.9505   -0.0730   -0.3157 C   0  0  0  0  0  0  0  0  0  0  0  0
    0.1987   -1.7713    0.1739 C   0  0  0  0  0  0  0  0  0  0  0  0
   -2.1389   -1.4544   -0.3266 C   0  0  0  0  0  0  0  0  0  0  0  0
   -1.0645   -2.3034   -0.0823 C   0  0  0  0  0  0  0  0  0  0  0  0
    3.9724    0.4241   -0.4796 C   0  0  0  0  0  0  0  0  0  0  0  0
   -3.7903    1.1252    0.5982 C   0  0  0  0  0  0  0  0  0  0  0  0
  1 11  1  0
  2 10  1  0
  2 15  1  0
  3  4  1  0
  3 14  1  0
  4  5  1  0
  4  7  1  0
  5  6  1  0
  6  8  1  0
  7  9  2  0
  7 11  1  0
  8  9  1  0
  9 10  1  0
 10 12  2  0
 11 13  2  0
 12 13  1  0
M  END
>  <PUBCHEM_COMPOUND_CID>  (1) 
34793

>  <PUBCHEM_CONFORMER_RMSD>  (1) 
0.6

>  <PUBCHEM_CONFORMER_DIVERSEORDER>  (1) 
1
2
3
4

>  <PUBCHEM_MMFF94_PARTIAL_CHARGES>  (1) 
16
1 -0.18
10 0.08
11 0.18
12 -0.15
13 -0.15
14 0.27
15 0.28
2 -0.36
23 0.36
24 0.15
25 0.15
3 -0.9
4 0.41
7 -0.14
8 0.14
9 -0.14

>  <PUBCHEM_EFFECTIVE_ROTOR_COUNT>  (1) 
2.8

>  <PUBCHEM_PHARMACOPHORE_FEATURES>  (1) 
5
1 2 acceptor
1 3 cation
1 3 donor
6 4 5 6 7 8 9 rings
6 7 9 10 11 12 13 rings

>  <PUBCHEM_HEAVY_ATOM_COUNT>  (1) 
15

>  <PUBCHEM_ATOM_DEF_STEREO_COUNT>  (1) 
0

>  <PUBCHEM_ATOM_UDEF_STEREO_COUNT>  (1) 
1

>  <PUBCHEM_BOND_DEF_STEREO_COUNT>  (1) 
0

>  <PUBCHEM_BOND_UDEF_STEREO_COUNT>  (1) 
0

>  <PUBCHEM_ISOTOPIC_ATOM_COUNT>  (1) 
0

>  <PUBCHEM_COMPONENT_COUNT>  (1) 
1

>  <PUBCHEM_CACTVS_TAUTO_COUNT>  (1) 
1

>  <PUBCHEM_CONFORMER_ID>  (1) 
000087E900000001

>  <PUBCHEM_MMFF94_ENERGY>  (1) 
47.1732

>  <PUBCHEM_FEATURE_SELFOVERLAP>  (1) 
25.392

>  <PUBCHEM_SHAPE_FINGERPRINT>  (1) 
10967382 1 18338514140555941371
10980938 120 18337669707352405491
12423570 1 17676202442387587639
13140716 1 18339075011750771936
13380535 21 18408609136662016819
13380535 220 18191307280480983460
14178342 30 18268129002651782283
14790565 3 18338814328864553056
14911166 2 18412261739795321285
15219456 202 18057603377031093584
15775835 57 18407761425844078334
16945 1 18338222804455820305
193761 8 17689996734955086408
19591789 44 18267309728955137667
19973954 147 18050565449855560221
20510252 161 17982168134669586969
20511035 2 17985265433160723580
20588541 1 18409732833023322070
20645476 183 17822865293879798430
20739085 24 17905915590228953641
20871999 31 18265627661343963884
21501502 16 18122345949962975492
22802520 49 18199194060439064982
2334 1 18122056782541484577
23402539 116 18413101784618187260
23419403 2 17175231886584015194
23463225 33 18192707843535823122
23493267 7 17458623355032643145
23558518 356 18048033261744624827
23559900 14 18342741836971531644
25 1 18409166584598385919
2748010 2 18193549206111951493
3071541 250 17980204084458428878
353137 74 18338802191344029012
5255222 1 18337380561258278965
528886 8 18411415111557314409
53812653 166 18412262835027565449
589210 1 17834116724788574548
63268167 104 18339922598145812817
7364860 26 18268706108997148506
81228 2 17687457279775356091

>  <PUBCHEM_SHAPE_MULTIPOLES>  (1) 
299.71
4.87
2.99
0.78
0.29
1.14
0.04
-1.46
-0.38
-0.39
0.34
-0.1
-0.04
-0.25

>  <PUBCHEM_SHAPE_SELFOVERLAP>  (1) 
620.387

>  <PUBCHEM_SHAPE_VOLUME>  (1) 
173.2

>  <PUBCHEM_COORDINATE_TYPE>  (1) 
2
5
10

$$$$
