34797
     RDKit          3D

 16 17  0  0  1  0  0  0  0  0999 V2000
   -1.0277    2.9664   -0.6692 Cl  0  0  0  0  0  0  0  0  0  0  0  0
    3.2621   -0.7960    0.7429 O   0  0  0  0  0  0  0  0  0  0  0  0
   -2.3962    0.1456    0.4058 N   0  0  0  0  0  0  0  0  0  0  0  0
   -1.4402   -0.0937   -0.6818 C   0  0  0  0  0  0  0  0  0  0  0  0
   -1.4288   -1.5779   -1.0830 C   0  0  0  0  0  0  0  0  0  0  0  0
   -0.6560   -2.4264   -0.0789 C   0  0  0  0  0  0  0  0  0  0  0  0
   -0.0617    0.4063   -0.2958 C   0  0  0  0  0  0  0  0  0  0  0  0
    0.8015   -1.9774   -0.0136 C   0  0  0  0  0  0  0  0  0  0  0  0
    0.9744   -0.4803    0.0567 C   0  0  0  0  0  0  0  0  0  0  0  0
    2.2284    0.0353    0.4218 C   0  0  0  0  0  0  0  0  0  0  0  0
    0.1786    1.7909   -0.2571 C   0  0  0  0  0  0  0  0  0  0  0  0
   -3.7142   -0.3423    0.0404 C   0  0  0  0  0  0  0  0  0  0  0  0
    2.4511    1.4114    0.4553 C   0  0  0  0  0  0  0  0  0  0  0  0
    1.4264    2.2889    0.1161 C   0  0  0  0  0  0  0  0  0  0  0  0
   -4.7111   -0.1420    1.1632 C   0  0  0  0  0  0  0  0  0  0  0  0
    4.1135   -1.2087   -0.3229 C   0  0  0  0  0  0  0  0  0  0  0  0
  1 11  1  0
  2 10  1  0
  2 16  1  0
  3  4  1  0
  3 12  1  0
  4  5  1  0
  4  7  1  0
  5  6  1  0
  6  8  1  0
  7  9  2  0
  7 11  1  0
  8  9  1  0
  9 10  1  0
 10 13  2  0
 11 14  2  0
 12 15  1  0
 13 14  1  0
M  END
>  <PUBCHEM_COMPOUND_CID>  (1) 
34797

>  <PUBCHEM_CONFORMER_RMSD>  (1) 
0.6

>  <PUBCHEM_CONFORMER_DIVERSEORDER>  (1) 
3
1
5
4
2
6

>  <PUBCHEM_MMFF94_PARTIAL_CHARGES>  (1) 
16
1 -0.18
10 0.08
11 0.18
12 0.27
13 -0.15
14 -0.15
16 0.28
2 -0.36
24 0.36
27 0.15
28 0.15
3 -0.9
4 0.41
7 -0.14
8 0.14
9 -0.14

>  <PUBCHEM_EFFECTIVE_ROTOR_COUNT>  (1) 
3.8

>  <PUBCHEM_PHARMACOPHORE_FEATURES>  (1) 
5
1 2 acceptor
1 3 cation
1 3 donor
6 4 5 6 7 8 9 rings
6 7 9 10 11 13 14 rings

>  <PUBCHEM_HEAVY_ATOM_COUNT>  (1) 
16

>  <PUBCHEM_ATOM_DEF_STEREO_COUNT>  (1) 
0

>  <PUBCHEM_ATOM_UDEF_STEREO_COUNT>  (1) 
1

>  <PUBCHEM_BOND_DEF_STEREO_COUNT>  (1) 
0

>  <PUBCHEM_BOND_UDEF_STEREO_COUNT>  (1) 
0

>  <PUBCHEM_ISOTOPIC_ATOM_COUNT>  (1) 
0

>  <PUBCHEM_COMPONENT_COUNT>  (1) 
1

>  <PUBCHEM_CACTVS_TAUTO_COUNT>  (1) 
1

>  <PUBCHEM_CONFORMER_ID>  (1) 
000087ED00000003

>  <PUBCHEM_MMFF94_ENERGY>  (1) 
43.1067

>  <PUBCHEM_FEATURE_SELFOVERLAP>  (1) 
25.392

>  <PUBCHEM_SHAPE_FINGERPRINT>  (1) 
10219947 1 18409448107125659425
10967382 1 18338228387955522660
10980938 120 18337109080950066901
11086676 242 18335129899806197192
11132069 177 18271791437197562538
11471102 22 18335431157660541243
11680986 33 18192997242679748203
12011746 2 18337111172620265199
12251169 10 18342453772370127322
12382932 28 18122608711830461624
12553582 1 18337659850619154666
13140716 1 18338509867353944346
13172582 1 18412542132529774919
13380535 21 18119532286896110004
14178342 30 17763450012965071320
14790565 3 18338811043377731740
15042514 8 17976533919583211434
15375462 189 18114452401516113770
15442244 35 18341329015009280143
15490181 8 17469880447093131924
16945 1 18338498777758772926
17844478 74 17894905235274942773
18511873 20 18131070454354112739
193761 8 17690555282477345662
19591789 44 18268149751733948742
20028762 73 18200876292119859871
20510252 161 18271236111196363160
20511035 2 17913207847348564390
20671657 1 18193565690281161029
20739085 24 18262820517801096369
21029758 27 18261398827638071148
21501502 16 18124871515239550334
22094290 62 18340768251204560627
22182313 1 17983292625737596166
23184049 59 18412266159712132097
2334 1 18049712211874173990
23463225 33 18410007779618100783
23493267 7 17386836215048226157
23557571 272 18200881674145196556
23559900 14 17980770647619459508
2748010 2 18194106637327842190
465052 167 18261122884822162347
57426455 70 18408605859612103755
59554788 170 18409735066765596980
7364860 26 18127404777635589712
7832392 63 18196934598139986036

>  <PUBCHEM_SHAPE_MULTIPOLES>  (1) 
320.29
6.08
2.84
0.91
2.79
1.16
0
-1.6
-1.98
-0.48
0.54
0.42
-0.03
0.12

>  <PUBCHEM_SHAPE_SELFOVERLAP>  (1) 
656.766

>  <PUBCHEM_SHAPE_VOLUME>  (1) 
186.2

>  <PUBCHEM_COORDINATE_TYPE>  (1) 
2
5
10

$$$$
