34791
     RDKit          3D

 15 16  0  0  1  0  0  0  0  0999 V2000
    1.4392    2.9326   -0.4815 Cl  0  0  0  0  0  0  0  0  0  0  0  0
   -3.0255   -0.7488    0.5491 O   0  0  0  0  0  0  0  0  0  0  0  0
    2.6633    0.0683    0.7387 N   0  0  0  0  0  0  0  0  0  0  0  0
    1.8013   -0.1317   -0.4320 C   0  0  0  0  0  0  0  0  0  0  0  0
    1.8003   -1.6168   -0.8279 C   0  0  0  0  0  0  0  0  0  0  0  0
    0.9241   -2.4480    0.1034 C   0  0  0  0  0  0  0  0  0  0  0  0
    0.4002    0.3928   -0.1819 C   0  0  0  0  0  0  0  0  0  0  0  0
   -0.5253   -1.9746    0.0333 C   0  0  0  0  0  0  0  0  0  0  0  0
   -0.6787   -0.4744    0.0784 C   0  0  0  0  0  0  0  0  0  0  0  0
   -1.9530    0.0638    0.3200 C   0  0  0  0  0  0  0  0  0  0  0  0
    0.1787    1.7810   -0.1790 C   0  0  0  0  0  0  0  0  0  0  0  0
   -2.1560    1.4432    0.3208 C   0  0  0  0  0  0  0  0  0  0  0  0
   -1.0905    2.3017    0.0711 C   0  0  0  0  0  0  0  0  0  0  0  0
    4.0016   -0.4307    0.4760 C   0  0  0  0  0  0  0  0  0  0  0  0
   -3.7797   -1.1582   -0.5885 C   0  0  0  0  0  0  0  0  0  0  0  0
  1 11  1  0
  2 10  1  0
  2 15  1  0
  3  4  1  0
  3 14  1  0
  4  5  1  0
  4  7  1  0
  5  6  1  0
  6  8  1  0
  7  9  2  0
  7 11  1  0
  8  9  1  0
  9 10  1  0
 10 12  2  0
 11 13  2  0
 12 13  1  0
M  END
>  <PUBCHEM_COMPOUND_CID>  (1) 
34791

>  <PUBCHEM_CONFORMER_RMSD>  (1) 
0.6

>  <PUBCHEM_CONFORMER_DIVERSEORDER>  (1) 
1
4
3
2

>  <PUBCHEM_MMFF94_PARTIAL_CHARGES>  (1) 
16
1 -0.18
10 0.08
11 0.18
12 -0.15
13 -0.15
14 0.27
15 0.28
2 -0.36
23 0.36
24 0.15
25 0.15
3 -0.9
4 0.41
7 -0.14
8 0.14
9 -0.14

>  <PUBCHEM_EFFECTIVE_ROTOR_COUNT>  (1) 
2.8

>  <PUBCHEM_PHARMACOPHORE_FEATURES>  (1) 
5
1 2 acceptor
1 3 cation
1 3 donor
6 4 5 6 7 8 9 rings
6 7 9 10 11 12 13 rings

>  <PUBCHEM_HEAVY_ATOM_COUNT>  (1) 
15

>  <PUBCHEM_ATOM_DEF_STEREO_COUNT>  (1) 
1

>  <PUBCHEM_ATOM_UDEF_STEREO_COUNT>  (1) 
0

>  <PUBCHEM_BOND_DEF_STEREO_COUNT>  (1) 
0

>  <PUBCHEM_BOND_UDEF_STEREO_COUNT>  (1) 
0

>  <PUBCHEM_ISOTOPIC_ATOM_COUNT>  (1) 
0

>  <PUBCHEM_COMPONENT_COUNT>  (1) 
1

>  <PUBCHEM_CACTVS_TAUTO_COUNT>  (1) 
1

>  <PUBCHEM_CONFORMER_ID>  (1) 
000087E700000001

>  <PUBCHEM_MMFF94_ENERGY>  (1) 
46.7323

>  <PUBCHEM_FEATURE_SELFOVERLAP>  (1) 
25.392

>  <PUBCHEM_SHAPE_FINGERPRINT>  (1) 
10967382 1 18122629610919608749
11132069 177 18338798901267218008
12382932 28 18266459797998310216
12423570 1 8968905798844908689
13140716 1 18194409020026196827
13172582 1 18410860992051378906
14178342 30 18268995293244691281
14181834 199 18116996782790990573
14251717 144 18340202015970546583
14614273 12 17970906661504962261
15490181 7 17470168055130141033
16945 1 18338248131888520831
193761 8 17690001558213909334
20510252 161 18271805696805561704
20645476 183 16452925697234210180
20645477 70 18264485269047976015
20871998 184 18342735178743418812
21501502 16 18122622751973063586
22802520 49 17840317618187220358
2334 1 17762904663713756111
23388829 49 18341325669366581837
23402539 116 18340754992698806638
23419403 2 17913171451986206337
23463225 33 18336828701058141424
23552423 10 18263377905533842983
23559900 14 16829533143543764470
241688 4 18121792624851585240
2748010 2 18195534683598853783
34934 24 18265892458873129257
43471831 8 18262796251209532970
5255222 1 17617667553055201708
53812653 166 18270962319551985696
53812654 25 18058165205691757791
7364860 26 18268716193543429740
7832392 63 18196380212725996809
81228 2 18191597345613981529
90316 7 18043515141392385768

>  <PUBCHEM_SHAPE_MULTIPOLES>  (1) 
299.71
4.89
2.99
0.79
0.15
1.18
0.04
-1.51
-0.42
-0.34
0.36
-0.11
-0.05
-0.24

>  <PUBCHEM_SHAPE_SELFOVERLAP>  (1) 
619.112

>  <PUBCHEM_SHAPE_VOLUME>  (1) 
173.5

>  <PUBCHEM_COORDINATE_TYPE>  (1) 
2
5
10

$$$$
