34799
     RDKit          3D

 15 16  0  0  1  0  0  0  0  0999 V2000
    3.1540   -0.6798    0.7974 O   0  0  0  0  0  0  0  0  0  0  0  0
   -2.4468    0.5007    0.2918 N   0  0  0  0  0  0  0  0  0  0  0  0
   -1.4959    0.1021   -0.7528 C   0  0  0  0  0  0  0  0  0  0  0  0
   -1.5565   -1.4145   -0.9974 C   0  0  0  0  0  0  0  0  0  0  0  0
   -0.8352   -2.1908    0.0992 C   0  0  0  0  0  0  0  0  0  0  0  0
   -0.0969    0.5709   -0.4032 C   0  0  0  0  0  0  0  0  0  0  0  0
    0.6427   -1.8101    0.1362 C   0  0  0  0  0  0  0  0  0  0  0  0
    0.8904   -0.3243    0.0528 C   0  0  0  0  0  0  0  0  0  0  0  0
    2.1660    0.1640    0.3783 C   0  0  0  0  0  0  0  0  0  0  0  0
    0.2128    1.9383   -0.5054 C   0  0  0  0  0  0  0  0  0  0  0  0
   -3.7860    0.0435   -0.0367 C   0  0  0  0  0  0  0  0  0  0  0  0
    2.4577    1.5233    0.2715 C   0  0  0  0  0  0  0  0  0  0  0  0
    1.4813    2.4102   -0.1700 C   0  0  0  0  0  0  0  0  0  0  0  0
   -4.7788    0.4097    1.0471 C   0  0  0  0  0  0  0  0  0  0  0  0
    3.9912   -1.2432   -0.2086 C   0  0  0  0  0  0  0  0  0  0  0  0
  1  9  1  0
  1 15  1  0
  2  3  1  0
  2 11  1  0
  3  4  1  0
  3  6  1  0
  4  5  1  0
  5  7  1  0
  6  8  2  0
  6 10  1  0
  7  8  1  0
  8  9  1  0
  9 12  2  0
 10 13  2  0
 11 14  1  0
 12 13  1  0
M  END
>  <PUBCHEM_COMPOUND_CID>  (1) 
34799

>  <PUBCHEM_CONFORMER_RMSD>  (1) 
0.6

>  <PUBCHEM_CONFORMER_DIVERSEORDER>  (1) 
3
2
10
9
5
4
7
8
6
11
1

>  <PUBCHEM_MMFF94_PARTIAL_CHARGES>  (1) 
16
1 -0.36
10 -0.15
11 0.27
12 -0.15
13 -0.15
15 0.28
2 -0.9
23 0.36
24 0.15
27 0.15
28 0.15
3 0.41
6 -0.14
7 0.14
8 -0.14
9 0.08

>  <PUBCHEM_EFFECTIVE_ROTOR_COUNT>  (1) 
3.8

>  <PUBCHEM_PHARMACOPHORE_FEATURES>  (1) 
5
1 1 acceptor
1 2 cation
1 2 donor
6 3 4 5 6 7 8 rings
6 6 8 9 10 12 13 rings

>  <PUBCHEM_HEAVY_ATOM_COUNT>  (1) 
15

>  <PUBCHEM_ATOM_DEF_STEREO_COUNT>  (1) 
0

>  <PUBCHEM_ATOM_UDEF_STEREO_COUNT>  (1) 
1

>  <PUBCHEM_BOND_DEF_STEREO_COUNT>  (1) 
0

>  <PUBCHEM_BOND_UDEF_STEREO_COUNT>  (1) 
0

>  <PUBCHEM_ISOTOPIC_ATOM_COUNT>  (1) 
0

>  <PUBCHEM_COMPONENT_COUNT>  (1) 
1

>  <PUBCHEM_CACTVS_TAUTO_COUNT>  (1) 
1

>  <PUBCHEM_CONFORMER_ID>  (1) 
000087EF00000003

>  <PUBCHEM_MMFF94_ENERGY>  (1) 
39.9345

>  <PUBCHEM_FEATURE_SELFOVERLAP>  (1) 
25.392

>  <PUBCHEM_SHAPE_FINGERPRINT>  (1) 
10219947 1 18408040706372172961
10967382 1 18409724071585495796
10980938 120 18408602591110511829
11132069 177 18340751698416406626
11471102 22 18261402113514756617
12032990 46 18335984160206064494
12251169 10 18411695504212828920
12390115 104 17618517918021147416
12553582 1 18336532825488928786
13140716 1 18337383950288227634
13172582 1 18410005541940146014
13380535 21 18117563044385749236
14178342 30 17978495765753830184
14617773 55 17912916468625876639
14790565 3 18337684018300233940
15375462 189 18040986320229608498
15442244 35 18339920514754481623
15775835 57 18271248343131333577
15906896 17 17842557620121655527
16945 1 18264469750755908310
17844478 74 17603578621499858229
18186145 218 18412539933664762165
18511873 20 18273494576387516491
193761 8 18048312542167237430
19591789 44 18123471570660241454
20511035 2 18127969926216439446
20671657 1 18265058105193309988
20871998 22 18196939872507622710
21029758 27 18187368688333687404
21501502 16 18195522816651713686
21637258 2 15574704790393537490
22094290 62 18411416249723582729
23184049 59 18410573981083447657
2334 1 18120363513407734526
23463225 33 18409162229459284822
23493267 7 17096636596301660173
23559900 14 18340490080192279308
2748010 2 18263912410145800702
276578 36 18271254888756197889
465052 167 18113911459175466739
53812653 11 18409729551853138814
57426455 70 18336265656583700177
7364860 26 18197773508933697964
74978 22 18338796844062246798
7832392 63 18269273637184929012
9999458 23 18187650206196689487

>  <PUBCHEM_SHAPE_MULTIPOLES>  (1) 
297.84
6.43
2.31
0.87
4.32
0.18
0.01
-0.1
-1.88
-1.15
0.18
0.36
-0.03
-0.33

>  <PUBCHEM_SHAPE_SELFOVERLAP>  (1) 
616.772

>  <PUBCHEM_SHAPE_VOLUME>  (1) 
170.3

>  <PUBCHEM_COORDINATE_TYPE>  (1) 
2
5
10

$$$$
