348
     RDKit          3D

 23 24  0  0  1  0  0  0  0  0999 V2000
    2.8966   -3.1123   -0.0796 P   0  0  0  0  0  0  0  0  0  0  0  0
    0.5908    0.4669   -0.4653 O   0  0  0  0  0  0  0  0  0  0  0  0
    3.4806    2.1576    1.0189 O   0  0  0  0  0  0  0  0  0  0  0  0
    1.9111    4.3343   -0.0559 O   0  0  0  0  0  0  0  0  0  0  0  0
   -1.5729    1.1810   -0.9679 O   0  0  0  0  0  0  0  0  0  0  0  0
   -0.9646    3.7201    0.1247 O   0  0  0  0  0  0  0  0  0  0  0  0
    2.0785   -1.7492    0.2294 O   0  0  0  0  0  0  0  0  0  0  0  0
    4.2747   -2.9282    0.7462 O   0  0  0  0  0  0  0  0  0  0  0  0
    3.3561   -2.9180   -1.6179 O   0  0  0  0  0  0  0  0  0  0  0  0
    2.1443   -4.3801    0.2018 O   0  0  0  0  0  0  0  0  0  0  0  0
   -5.3184   -2.4341    0.8440 O   0  0  0  0  0  0  0  0  0  0  0  0
    2.3749    1.9938    0.1346 C   0  0  0  0  0  0  0  0  0  0  0  0
    1.3516    3.0995    0.3945 C   0  0  0  0  0  0  0  0  0  0  0  0
    1.7509    0.6139    0.3553 C   0  0  0  0  0  0  0  0  0  0  0  0
    0.0449    2.8306   -0.3520 C   0  0  0  0  0  0  0  0  0  0  0  0
   -0.4370    1.3969   -0.1311 C   0  0  0  0  0  0  0  0  0  0  0  0
    2.7175   -0.5083   -0.0094 C   0  0  0  0  0  0  0  0  0  0  0  0
   -2.5024    0.2839   -0.5185 C   0  0  0  0  0  0  0  0  0  0  0  0
   -2.1319   -1.0373   -0.2866 C   0  0  0  0  0  0  0  0  0  0  0  0
   -3.8119    0.6988   -0.2961 C   0  0  0  0  0  0  0  0  0  0  0  0
   -3.0798   -1.9522    0.1719 C   0  0  0  0  0  0  0  0  0  0  0  0
   -4.7599   -0.2160    0.1625 C   0  0  0  0  0  0  0  0  0  0  0  0
   -4.3938   -1.5415    0.3965 C   0  0  0  0  0  0  0  0  0  0  0  0
  1  7  1  0
  1  8  1  0
  1  9  1  0
  1 10  2  0
  2 14  1  0
  2 16  1  0
  3 12  1  0
  4 13  1  0
  5 16  1  0
  5 18  1  0
  6 15  1  0
  7 17  1  0
 11 23  1  0
 12 13  1  0
 12 14  1  0
 13 15  1  0
 14 17  1  0
 15 16  1  0
 18 19  2  0
 18 20  1  0
 19 21  1  0
 20 22  2  0
 21 23  2  0
 22 23  1  0
M  END
>  <PUBCHEM_COMPOUND_CID>  (1) 
348

>  <PUBCHEM_CONFORMER_RMSD>  (1) 
1

>  <PUBCHEM_CONFORMER_DIVERSEORDER>  (1) 
1
538
106
734
466
11
455
400
169
563
128
419
412
253
387
762
507
732
92
59
3
430
235
587
578
217
48
279
641
74
322
10
216
167
214
319
751
779
315
721
14
582
265
244
602
115
673
51
327
320
700
443
94
349
291
17
703
427
36
775
688
527
49
683
40
53
160
145
111
610
134
405
755
43
768
13
518
69
344
288
5
165
473
42
620
735
210
485
176
477
206
453
2
478
187
194
728
23
381
12
542
730
777
634
399
247
171
579
93
22
655
366
78
200
451
546
57
301
678
281
618
117
581
759
31
39
604
21
54
243
613
665
425
98
133
4
158
516
152
326
449
30
595
498
89
24
101
9
241
384
58
608

>  <PUBCHEM_MMFF94_PARTIAL_CHARGES>  (1) 
33
1 1.51
10 -0.7
11 -0.53
12 0.28
13 0.28
14 0.28
15 0.28
16 0.56
17 0.28
18 0.08
19 -0.15
2 -0.56
20 -0.15
21 -0.15
22 -0.15
23 0.08
3 -0.68
31 0.4
32 0.4
33 0.4
34 0.15
35 0.15
36 0.15
37 0.15
38 0.5
39 0.5
4 -0.68
40 0.45
5 -0.36
6 -0.68
7 -0.55
8 -0.77
9 -0.77

>  <PUBCHEM_EFFECTIVE_ROTOR_COUNT>  (1) 
6.2

>  <PUBCHEM_PHARMACOPHORE_FEATURES>  (1) 
15
1 10 acceptor
1 11 donor
1 2 acceptor
1 3 acceptor
1 3 donor
1 4 acceptor
1 4 donor
1 5 acceptor
1 6 acceptor
1 6 donor
1 8 acceptor
1 9 acceptor
4 1 8 9 10 anion
6 18 19 20 21 22 23 rings
6 2 12 13 14 15 16 rings

>  <PUBCHEM_HEAVY_ATOM_COUNT>  (1) 
23

>  <PUBCHEM_ATOM_DEF_STEREO_COUNT>  (1) 
0

>  <PUBCHEM_ATOM_UDEF_STEREO_COUNT>  (1) 
5

>  <PUBCHEM_BOND_DEF_STEREO_COUNT>  (1) 
0

>  <PUBCHEM_BOND_UDEF_STEREO_COUNT>  (1) 
0

>  <PUBCHEM_ISOTOPIC_ATOM_COUNT>  (1) 
0

>  <PUBCHEM_COMPONENT_COUNT>  (1) 
1

>  <PUBCHEM_CACTVS_TAUTO_COUNT>  (1) 
2

>  <PUBCHEM_CONFORMER_ID>  (1) 
0000015C00000001

>  <PUBCHEM_MMFF94_ENERGY>  (1) 
33.147

>  <PUBCHEM_FEATURE_SELFOVERLAP>  (1) 
76.217

>  <PUBCHEM_SHAPE_FINGERPRINT>  (1) 
10064457 181 17402331967373596973
1100329 8 17979636728216987921
114674 6 18261394498243056419
12107183 9 18197510537003049473
12553582 1 18195812864425598470
12788726 201 17901673665742311514
12969540 37 18334856121368585398
12990986 174 18048875200226776826
13140716 1 17618783999923668137
13533116 47 18342457093324274475
13785724 45 18198079014305300815
138480 1 18410291397857559482
14251757 5 17835253242086785742
14790565 3 18049164672348664284
14844126 61 17615118889371182834
14863182 85 18263649639762350172
14866123 147 17619067231705435899
15042514 8 17762621689772301672
15352361 1 18337669694172715035
15422964 175 18410001131024979637
15927050 60 17763462117048093916
17492 89 18338237171770765787
17859628 70 18338523061525203851
19591789 44 18050002496129515116
19930381 70 18409447020599634731
20028762 73 17695344068017956774
20645477 70 18191008209576889175
20739085 24 18118118314674830125
21197605 99 17615415096413285883
21279426 13 18262788559655984869
221490 88 18408603643282501842
23557571 272 17839738163344763590
23559900 14 18409720764376561113
3091708 16 9213756266636020120
3117164 225 18267605545798133409
314173 41 18339367365964201558
3421961 26 18411417310575451147
5104073 3 18191865850296159905
5309563 4 18411420570830811743
6443956 14 18408887325745646230
7097593 13 18342177821248906023
7364860 26 18266459991329990541
9709674 26 18334858376638249219

>  <PUBCHEM_SHAPE_MULTIPOLES>  (1) 
418.49
8.76
5.68
0.85
8.35
0.18
-0.12
7.23
1.47
-6.56
0.22
-0.25
0.25
1.19

>  <PUBCHEM_SHAPE_SELFOVERLAP>  (1) 
857.88

>  <PUBCHEM_SHAPE_VOLUME>  (1) 
241.9

>  <PUBCHEM_COORDINATE_TYPE>  (1) 
2
5
10

$$$$
