34809
     RDKit          3D

 16 18  0  0  0  0  0  0  0  0999 V2000
    0.0511    2.4262    0.0001 O   0  0  0  0  0  0  0  0  0  0  0  0
    2.6077    2.1657   -0.0006 O   0  0  0  0  0  0  0  0  0  0  0  0
    1.0986    0.2544    0.0001 C   0  0  0  0  0  0  0  0  0  0  0  0
    0.9599   -1.1509   -0.0001 C   0  0  0  0  0  0  0  0  0  0  0  0
   -1.3398    0.4949    0.0001 C   0  0  0  0  0  0  0  0  0  0  0  0
   -1.4784   -0.9103    0.0000 C   0  0  0  0  0  0  0  0  0  0  0  0
   -0.0531    1.0590    0.0002 C   0  0  0  0  0  0  0  0  0  0  0  0
   -0.3267   -1.7149   -0.0002 C   0  0  0  0  0  0  0  0  0  0  0  0
    2.3855    0.8177    0.0002 C   0  0  0  0  0  0  0  0  0  0  0  0
    2.1120   -1.9548   -0.0001 C   0  0  0  0  0  0  0  0  0  0  0  0
   -2.4918    1.2988    0.0001 C   0  0  0  0  0  0  0  0  0  0  0  0
   -2.7653   -1.4736    0.0000 C   0  0  0  0  0  0  0  0  0  0  0  0
    3.5194    0.0050    0.0003 C   0  0  0  0  0  0  0  0  0  0  0  0
    3.3828   -1.3795    0.0001 C   0  0  0  0  0  0  0  0  0  0  0  0
   -3.7626    0.7234    0.0000 C   0  0  0  0  0  0  0  0  0  0  0  0
   -3.8992   -0.6610   -0.0001 C   0  0  0  0  0  0  0  0  0  0  0  0
  1  7  1  0
  2  9  1  0
  3  4  1  0
  3  7  2  0
  3  9  1  0
  4  8  2  0
  4 10  1  0
  5  6  2  0
  5  7  1  0
  5 11  1  0
  6  8  1  0
  6 12  1  0
  9 13  2  0
 10 14  2  0
 11 15  2  0
 12 16  2  0
 13 14  1  0
 15 16  1  0
M  END
>  <PUBCHEM_COMPOUND_CID>  (1) 
34809

>  <PUBCHEM_CONFORMER_RMSD>  (1) 
0.4

>  <PUBCHEM_CONFORMER_DIVERSEORDER>  (1) 
1

>  <PUBCHEM_MMFF94_PARTIAL_CHARGES>  (1) 
22
1 -0.53
10 -0.15
11 -0.15
12 -0.15
13 -0.15
14 -0.15
15 -0.15
16 -0.15
17 0.15
18 0.15
19 0.15
2 -0.53
20 0.15
21 0.15
22 0.15
23 0.15
24 0.15
25 0.45
26 0.45
7 0.08
8 -0.15
9 0.08

>  <PUBCHEM_EFFECTIVE_ROTOR_COUNT>  (1) 
0

>  <PUBCHEM_PHARMACOPHORE_FEATURES>  (1) 
5
1 1 donor
1 2 donor
6 3 4 5 6 7 8 rings
6 3 4 9 10 13 14 rings
6 5 6 11 12 15 16 rings

>  <PUBCHEM_HEAVY_ATOM_COUNT>  (1) 
16

>  <PUBCHEM_ATOM_DEF_STEREO_COUNT>  (1) 
0

>  <PUBCHEM_ATOM_UDEF_STEREO_COUNT>  (1) 
0

>  <PUBCHEM_BOND_DEF_STEREO_COUNT>  (1) 
0

>  <PUBCHEM_BOND_UDEF_STEREO_COUNT>  (1) 
0

>  <PUBCHEM_ISOTOPIC_ATOM_COUNT>  (1) 
0

>  <PUBCHEM_COMPONENT_COUNT>  (1) 
1

>  <PUBCHEM_CACTVS_TAUTO_COUNT>  (1) 
23

>  <PUBCHEM_CONFORMER_ID>  (1) 
000087F900000001

>  <PUBCHEM_MMFF94_ENERGY>  (1) 
55.1146

>  <PUBCHEM_FEATURE_SELFOVERLAP>  (1) 
25.437

>  <PUBCHEM_SHAPE_FINGERPRINT>  (1) 
10411042 1 15528552399819543017
10608611 8 18409163307633440477
10967382 1 18338516446953398790
10980938 120 18411138073403172170
11132069 177 18411974754396434843
11471102 20 18410288094974857566
11806522 49 18338231686880939079
12032990 46 18410579465646070691
13140716 1 18410575058919707811
13221675 6 18410292480120798254
13380535 76 18410009957209140106
13897977 150 18410853274074334149
14144814 61 18411138021874172691
14325111 11 18410573998210504289
14790565 3 15389805040100271694
15196674 1 18410856551065737703
15219456 202 18410291414984479763
15442244 35 18267585706373722546
15536298 74 18343301474629383290
16945 1 18194682562097850694
17804303 29 18339084782970058126
18186145 218 18412547574258542357
193761 8 17834113421837378535
200 152 18059564798643235983
20645477 70 18412822478262714767
21267235 1 18411146826536368143
21501502 16 18411419531226413375
221490 88 18336554901182999922
2334 1 18410574023811464039
23402539 116 18271232850804463014
23402655 69 18341045229566790493
23463225 33 18409449171881903422
23559900 14 18341327791518477314
2748010 2 18410573993752006831
335352 9 18122624942295309727
34934 24 18410846646876590283
5104073 3 18410575080431468099
528886 8 18411413994871215650
53812653 166 18343016739519430576
69090 78 18342451535119745815
7364860 26 18342175592071279896
84936 31 15983982488806387142
8809292 202 18261117365430490739
9709674 26 18411423920593897319

>  <PUBCHEM_SHAPE_MULTIPOLES>  (1) 
317.53
6.33
2.23
0.6
1.41
0.45
0
-0.55
0
-0.65
0
0.02
-0.03
0

>  <PUBCHEM_SHAPE_SELFOVERLAP>  (1) 
723.619

>  <PUBCHEM_SHAPE_VOLUME>  (1) 
165.9

>  <PUBCHEM_COORDINATE_TYPE>  (1) 
2
5
10

$$$$
