34808
     RDKit          3D

 21 22  0  0  1  0  0  0  0  0999 V2000
    0.1413    0.3977   -0.2671 O   0  0  0  0  0  0  0  0  0  0  0  0
    0.4679   -0.9297    1.5849 O   0  0  0  0  0  0  0  0  0  0  0  0
   -1.6762    3.3029    0.3036 N   0  0  0  0  0  0  0  0  0  0  0  0
   -1.9482    1.2960   -1.0762 C   0  0  0  0  0  0  0  0  0  0  0  0
   -1.2705    0.3785   -0.0457 C   0  0  0  0  0  0  0  0  0  0  0  0
   -1.4388    2.7366   -1.0198 C   0  0  0  0  0  0  0  0  0  0  0  0
   -1.7321   -1.0590   -0.1057 C   0  0  0  0  0  0  0  0  0  0  0  0
   -2.8137   -1.4565    0.6631 C   0  0  0  0  0  0  0  0  0  0  0  0
   -1.0647   -1.9516   -0.9283 C   0  0  0  0  0  0  0  0  0  0  0  0
   -3.1096    3.3399    0.5981 C   0  0  0  0  0  0  0  0  0  0  0  0
   -1.1032    4.6464    0.3990 C   0  0  0  0  0  0  0  0  0  0  0  0
    0.8889   -0.2999    0.6271 C   0  0  0  0  0  0  0  0  0  0  0  0
   -3.2396   -2.7837    0.6080 C   0  0  0  0  0  0  0  0  0  0  0  0
   -1.4907   -3.2787   -0.9836 C   0  0  0  0  0  0  0  0  0  0  0  0
   -2.5781   -3.6947   -0.2154 C   0  0  0  0  0  0  0  0  0  0  0  0
    2.3311   -0.1999    0.2885 C   0  0  0  0  0  0  0  0  0  0  0  0
    3.1674   -1.2473    0.6161 C   0  0  0  0  0  0  0  0  0  0  0  0
    2.7902    0.9377   -0.3431 C   0  0  0  0  0  0  0  0  0  0  0  0
    4.5224   -1.1531    0.2982 C   0  0  0  0  0  0  0  0  0  0  0  0
    4.1451    1.0320   -0.6612 C   0  0  0  0  0  0  0  0  0  0  0  0
    5.0111   -0.0135   -0.3405 C   0  0  0  0  0  0  0  0  0  0  0  0
  1  5  1  0
  1 12  1  0
  2 12  2  0
  3  6  1  0
  3 10  1  0
  3 11  1  0
  4  5  1  0
  4  6  1  0
  5  7  1  0
  7  8  2  0
  7  9  1  0
  8 13  1  0
  9 14  2  0
 12 16  1  0
 13 15  2  0
 14 15  1  0
 16 17  2  0
 16 18  1  0
 17 19  1  0
 18 20  2  0
 19 21  2  0
 20 21  1  0
M  END
>  <PUBCHEM_COMPOUND_CID>  (1) 
34808

>  <PUBCHEM_CONFORMER_RMSD>  (1) 
0.8

>  <PUBCHEM_CONFORMER_DIVERSEORDER>  (1) 
2
23
17
73
28
72
22
70
53
58
77
80
52
49
65
63
57
76
16
14
55
11
83
24
21
82
30
69
12
54
60
45
71
50
62
46
15
37
18
10
40
25
31
27
81
78
33
59
61
39
41
38
3
56
43
5
29
4
51
36
67
9
13
32
75
8
68
20
6
47
7
26
48
44
35
19
34
1
66
64
42
74
79

>  <PUBCHEM_MMFF94_PARTIAL_CHARGES>  (1) 
30
1 -0.43
10 0.27
11 0.27
12 0.63
13 -0.15
14 -0.15
15 -0.15
16 0.09
17 -0.15
18 -0.15
19 -0.15
2 -0.57
20 -0.15
21 -0.15
27 0.15
28 0.15
3 -0.81
35 0.15
36 0.15
37 0.15
38 0.15
39 0.15
40 0.15
41 0.15
42 0.15
5 0.42
6 0.27
7 -0.14
8 -0.15
9 -0.15

>  <PUBCHEM_EFFECTIVE_ROTOR_COUNT>  (1) 
7

>  <PUBCHEM_PHARMACOPHORE_FEATURES>  (1) 
4
1 2 acceptor
1 3 cation
6 16 17 18 19 20 21 rings
6 7 8 9 13 14 15 rings

>  <PUBCHEM_HEAVY_ATOM_COUNT>  (1) 
21

>  <PUBCHEM_ATOM_DEF_STEREO_COUNT>  (1) 
0

>  <PUBCHEM_ATOM_UDEF_STEREO_COUNT>  (1) 
1

>  <PUBCHEM_BOND_DEF_STEREO_COUNT>  (1) 
0

>  <PUBCHEM_BOND_UDEF_STEREO_COUNT>  (1) 
0

>  <PUBCHEM_ISOTOPIC_ATOM_COUNT>  (1) 
0

>  <PUBCHEM_COMPONENT_COUNT>  (1) 
1

>  <PUBCHEM_CACTVS_TAUTO_COUNT>  (1) 
1

>  <PUBCHEM_CONFORMER_ID>  (1) 
000087F800000002

>  <PUBCHEM_MMFF94_ENERGY>  (1) 
62.6685

>  <PUBCHEM_FEATURE_SELFOVERLAP>  (1) 
20.297

>  <PUBCHEM_SHAPE_FINGERPRINT>  (1) 
1100329 8 18410017671661753513
11045515 52 18043808903853279159
11578080 2 17988632047607740496
12054548 360 18267581488821391336
12160290 23 18120623943049800615
12173636 292 18268420240041891572
12553582 1 18193830676920893002
12643181 29 17979358561167351558
12714826 92 18202282532841032354
12788726 201 18334007302544757987
13004483 165 18338792437557936219
13583140 156 17845915400194970122
138480 1 16249129485879385317
14178342 30 18264186064356584218
14251751 93 18335699412765363922
14713325 29 18338805524244022898
14955137 171 18119831341528053995
15042514 8 18409452487992457203
15230672 131 17905340533465033846
15664445 248 17838078235282107462
1741750 31 18267578001466280544
17492 89 18334573543187419930
1813 80 18053118490196677247
18785283 64 17401213274547886731
19930381 70 17690276432005734376
21202864 24 18340500971485296745
21524375 3 18044658585702484144
22849341 161 18050588505968382619
22907989 373 18410565193358743135
23402539 116 17968649549270503102
23557571 272 18410859897172315838
23598288 3 18409722941919802866
3091708 16 9419545260968632001
352729 6 18265606589960122247
458136 41 17765721213431122417
474 4 17545872733796561605
5104073 3 18334849486493283848
532947 4 17185884333164910036
53777708 50 18333169453963500882
6287921 2 17191501720774648082
7164475 11 18409166641008064686
7364860 26 17330273282698312343
7399639 24 18057031631264160096
79837 15 18195246602978168905
81228 2 18266996484474642753
90316 7 18340493373408620247

>  <PUBCHEM_SHAPE_MULTIPOLES>  (1) 
415.45
7.48
5.32
1.05
10.77
4.48
0
-2.38
0.08
-7.54
0.06
-0.22
-0.09
-0.58

>  <PUBCHEM_SHAPE_SELFOVERLAP>  (1) 
875.002

>  <PUBCHEM_SHAPE_VOLUME>  (1) 
233.6

>  <PUBCHEM_COORDINATE_TYPE>  (1) 
2
5
10

$$$$
