34804
     RDKit          3D

 15 17  0  0  0  0  0  0  0  0999 V2000
    4.7635   -0.9697    0.0003 O   0  0  0  0  0  0  0  0  0  0  0  0
   -0.5075   -1.7692    0.0000 C   0  0  0  0  0  0  0  0  0  0  0  0
    0.5676   -0.7027   -0.0001 C   0  0  0  0  0  0  0  0  0  0  0  0
   -0.0133    0.5854   -0.0002 C   0  0  0  0  0  0  0  0  0  0  0  0
   -1.7708   -0.9340   -0.0001 C   0  0  0  0  0  0  0  0  0  0  0  0
   -1.4534    0.4430   -0.0002 C   0  0  0  0  0  0  0  0  0  0  0  0
    1.9406   -0.8766    0.0001 C   0  0  0  0  0  0  0  0  0  0  0  0
    0.7848    1.7171    0.0000 C   0  0  0  0  0  0  0  0  0  0  0  0
   -3.0829   -1.3736    0.0000 C   0  0  0  0  0  0  0  0  0  0  0  0
   -2.4578    1.3964    0.0000 C   0  0  0  0  0  0  0  0  0  0  0  0
    2.7448    0.2644    0.0001 C   0  0  0  0  0  0  0  0  0  0  0  0
    2.1728    1.5483    0.0000 C   0  0  0  0  0  0  0  0  0  0  0  0
   -4.0952   -0.4122    0.0002 C   0  0  0  0  0  0  0  0  0  0  0  0
   -3.7858    0.9589    0.0003 C   0  0  0  0  0  0  0  0  0  0  0  0
    4.1926    0.1243   -0.0002 C   0  0  0  0  0  0  0  0  0  0  0  0
  1 15  2  0
  2  3  1  0
  2  5  1  0
  3  4  2  0
  3  7  1  0
  4  6  1  0
  4  8  1  0
  5  6  2  0
  5  9  1  0
  6 10  1  0
  7 11  2  0
  8 12  2  0
  9 13  2  0
 10 14  2  0
 11 12  1  0
 11 15  1  0
 13 14  1  0
M  END
>  <PUBCHEM_COMPOUND_CID>  (1) 
34804

>  <PUBCHEM_CONFORMER_RMSD>  (1) 
0.6

>  <PUBCHEM_CONFORMER_DIVERSEORDER>  (1) 
1

>  <PUBCHEM_MMFF94_PARTIAL_CHARGES>  (1) 
21
1 -0.57
10 -0.15
11 0.09
12 -0.15
13 -0.15
14 -0.15
15 0.42
18 0.15
19 0.15
2 0.29
20 0.15
21 0.15
22 0.15
23 0.15
24 0.15
25 0.06
3 -0.14
5 -0.14
7 -0.15
8 -0.15
9 -0.15

>  <PUBCHEM_EFFECTIVE_ROTOR_COUNT>  (1) 
1.2

>  <PUBCHEM_PHARMACOPHORE_FEATURES>  (1) 
4
1 1 acceptor
5 2 3 4 5 6 rings
6 3 4 7 8 11 12 rings
6 5 6 9 10 13 14 rings

>  <PUBCHEM_HEAVY_ATOM_COUNT>  (1) 
15

>  <PUBCHEM_ATOM_DEF_STEREO_COUNT>  (1) 
0

>  <PUBCHEM_ATOM_UDEF_STEREO_COUNT>  (1) 
0

>  <PUBCHEM_BOND_DEF_STEREO_COUNT>  (1) 
0

>  <PUBCHEM_BOND_UDEF_STEREO_COUNT>  (1) 
0

>  <PUBCHEM_ISOTOPIC_ATOM_COUNT>  (1) 
0

>  <PUBCHEM_COMPONENT_COUNT>  (1) 
1

>  <PUBCHEM_CACTVS_TAUTO_COUNT>  (1) 
1

>  <PUBCHEM_CONFORMER_ID>  (1) 
000087F400000001

>  <PUBCHEM_MMFF94_ENERGY>  (1) 
49.4223

>  <PUBCHEM_FEATURE_SELFOVERLAP>  (1) 
20.462

>  <PUBCHEM_SHAPE_FINGERPRINT>  (1) 
10062212 137 18412537712982319911
10608611 8 18411415154723661337
10967382 1 18410573942259852423
11132069 177 18411695491343757776
11401426 45 18341889697314609362
11471102 20 18411133662397919276
12032990 46 18410015459082974978
12251169 10 18409450284584368721
12403259 226 18340198704429688809
13140716 1 18339368568908219145
13221675 6 18409165523667688682
13288520 33 18412547583355002574
13380535 76 18411420604984360487
13675066 3 18272929453386365370
13690532 89 18410292506154092794
13862211 1 18410849949806927530
14115302 16 17968387818052555198
14144814 61 18409728469473757937
14325111 11 18410856598532138401
15196674 1 18410574019521920901
15309172 13 18341339945996415251
15375462 189 18040710329920684786
15442244 35 18410575102128090040
15536298 74 18342455993237750736
15775835 57 18259985950737744785
16945 1 18266740379568945607
17802600 8 18411132558807712333
17804303 29 18411704304658957540
18186145 218 17967524705397769821
18522853 276 18342175578780287192
200 152 17989200469486145869
20510252 161 18273216391340275081
21267235 1 18410301323764441819
21501502 16 18267025140137719533
221490 88 18191593153504062226
23175994 123 17346885545962841952
23402539 116 18272643541423595013
23402655 69 18269825442415785301
23463225 33 18408040706261299268
23559900 14 18343862226145202592
2748010 2 18338515347790106125
335352 9 18410855417326390197
474 4 16662342929920478772
5104073 3 18411419552553570753
528886 8 18411132528489564921
53812653 166 18412823577394222424
54173680 148 18120375612288916075
69090 78 18201996663870067919
7364860 26 18268711597654252911
8809292 202 18261115226594708691
9709674 26 18340774826800010662
9981440 41 17254273947944261184

>  <PUBCHEM_SHAPE_MULTIPOLES>  (1) 
302.82
7.6
1.75
0.61
2.77
0.1
0
-0.63
0
-0.28
0
-0.03
0.01
0

>  <PUBCHEM_SHAPE_SELFOVERLAP>  (1) 
681.47

>  <PUBCHEM_SHAPE_VOLUME>  (1) 
161.7

>  <PUBCHEM_COORDINATE_TYPE>  (1) 
2
5
10

$$$$
