3482
     RDKit          3D

 13 13  0  0  1  0  0  0  0  0999 V2000
    0.2201    1.3242   -0.0140 O   0  0  0  0  0  0  0  0  0  0  0  0
   -1.6534   -2.2674   -0.6942 O   0  0  0  0  0  0  0  0  0  0  0  0
    1.0482   -2.2169    0.3767 O   0  0  0  0  0  0  0  0  0  0  0  0
   -3.1791    0.0328    0.3331 O   0  0  0  0  0  0  0  0  0  0  0  0
   -1.8088    2.4755   -0.0416 O   0  0  0  0  0  0  0  0  0  0  0  0
    2.5393    1.0451   -1.1299 O   0  0  0  0  0  0  0  0  0  0  0  0
    3.3159   -0.0852    0.7176 N   0  0  0  0  0  0  0  0  0  0  0  0
   -1.1241   -1.2121    0.1098 C   0  0  0  0  0  0  0  0  0  0  0  0
    0.3711   -1.0953   -0.1878 C   0  0  0  0  0  0  0  0  0  0  0  0
   -1.8595    0.0902   -0.2082 C   0  0  0  0  0  0  0  0  0  0  0  0
    0.9448    0.1788    0.4196 C   0  0  0  0  0  0  0  0  0  0  0  0
   -1.1426    1.2943    0.4030 C   0  0  0  0  0  0  0  0  0  0  0  0
    2.3281    0.4361   -0.0841 C   0  0  0  0  0  0  0  0  0  0  0  0
  1 11  1  0
  1 12  1  0
  2  8  1  0
  3  9  1  0
  4 10  1  0
  5 12  1  0
  6 13  2  0
  7 13  1  0
  8  9  1  0
  8 10  1  0
  9 11  1  0
 10 12  1  0
 11 13  1  0
M  END
>  <PUBCHEM_COMPOUND_CID>  (1) 
3482

>  <PUBCHEM_CONFORMER_RMSD>  (1) 
0.6

>  <PUBCHEM_CONFORMER_DIVERSEORDER>  (1) 
1
120
144
39
7
85
137
114
34
128
106
90
94
103
118
105
146
121
77
65
58
37
75
51
135
136
88
99
56
5
131
70
2
127
126
79
30
149
83
116
20
133
62
73
96
12
139
60
107
80
129
27
41
11
109
63
104
117
8
71
125
28
48
55
124
14
45
141
74
100
32
47
151
42
134
132
61
111
140
123
112
81
113
49
43
150
97
108
82
89
36
93
16
23
143
35
110
66
95
68
29
148
130
57
102
84
52
54
26
67
69
101
22
122
145
92
21
40
86
64
17
44
53
3
6
147
19
78
76
115
13
33
142
4
98
50
138
18
38
46
10
87
119
9
152
72
91
25
59
24
31
15

>  <PUBCHEM_MMFF94_PARTIAL_CHARGES>  (1) 
19
1 -0.56
10 0.28
11 0.34
12 0.56
13 0.57
19 0.4
2 -0.68
20 0.4
21 0.4
22 0.4
23 0.37
24 0.37
3 -0.68
4 -0.68
5 -0.68
6 -0.57
7 -0.8
8 0.28
9 0.28

>  <PUBCHEM_EFFECTIVE_ROTOR_COUNT>  (1) 
2.2

>  <PUBCHEM_PHARMACOPHORE_FEATURES>  (1) 
12
1 1 acceptor
1 2 acceptor
1 2 donor
1 3 acceptor
1 3 donor
1 4 acceptor
1 4 donor
1 5 acceptor
1 5 donor
1 6 acceptor
1 7 donor
6 1 8 9 10 11 12 rings

>  <PUBCHEM_HEAVY_ATOM_COUNT>  (1) 
13

>  <PUBCHEM_ATOM_DEF_STEREO_COUNT>  (1) 
0

>  <PUBCHEM_ATOM_UDEF_STEREO_COUNT>  (1) 
5

>  <PUBCHEM_BOND_DEF_STEREO_COUNT>  (1) 
0

>  <PUBCHEM_BOND_UDEF_STEREO_COUNT>  (1) 
0

>  <PUBCHEM_ISOTOPIC_ATOM_COUNT>  (1) 
0

>  <PUBCHEM_COMPONENT_COUNT>  (1) 
1

>  <PUBCHEM_CACTVS_TAUTO_COUNT>  (1) 
2

>  <PUBCHEM_CONFORMER_ID>  (1) 
00000D9A00000001

>  <PUBCHEM_MMFF94_ENERGY>  (1) 
28.8817

>  <PUBCHEM_FEATURE_SELFOVERLAP>  (1) 
60.97

>  <PUBCHEM_SHAPE_FINGERPRINT>  (1) 
12423570 1 10626697393614067336
12716758 59 18201164265006373350
13380535 76 18192989314581634737
15775835 57 18341615936120307032
16945 1 18412544322947258597
193761 8 18050849914387971771
20511035 2 17980189795175711243
20645476 183 17750814318106872910
20871998 184 18130508651215020927
21040471 1 18340768126629442528
21501502 16 18194965128423646001
22802520 49 18057348199949154590
2334 1 17907577287173732873
23402539 116 18272074007459447237
23463225 33 18334009463266423554
23552423 10 18190747431430548651
23559900 14 18130228152298082110
2748010 2 18122910819745438725
5084963 1 18272097075818490544
528862 383 18189894219060775691
528886 8 18339640143626531731
53812653 8 18337120020005065948

>  <PUBCHEM_SHAPE_MULTIPOLES>  (1) 
227.34
3.98
2.21
0.77
1.26
0.28
0.07
-0.62
-0.11
-0.99
0.16
0.26
-0.01
-0.45

>  <PUBCHEM_SHAPE_SELFOVERLAP>  (1) 
462.283

>  <PUBCHEM_SHAPE_VOLUME>  (1) 
129.4

>  <PUBCHEM_COORDINATE_TYPE>  (1) 
2
5
10

$$$$
