34838
     RDKit          3D

 23 26  0  0  0  0  0  0  0  0999 V2000
    3.8741    1.0070   -0.0345 N   0  0  0  0  0  0  0  0  0  0  0  0
   -1.2028   -0.9281   -0.2495 N   0  0  0  0  0  0  0  0  0  0  0  0
    1.0621   -0.3920   -0.6681 N   0  0  0  0  0  0  0  0  0  0  0  0
    2.7706   -1.9990   -0.1615 N   0  0  0  0  0  0  0  0  0  0  0  0
    0.4672   -2.5241    0.2580 N   0  0  0  0  0  0  0  0  0  0  0  0
    2.1586   -4.0748    0.7413 N   0  0  0  0  0  0  0  0  0  0  0  0
    4.8941    1.9418   -0.5090 C   0  0  0  0  0  0  0  0  0  0  0  0
    2.8243    1.8491    0.5381 C   0  0  0  0  0  0  0  0  0  0  0  0
    4.9712    2.9630    0.6164 C   0  0  0  0  0  0  0  0  0  0  0  0
    3.6122    2.8995    1.3067 C   0  0  0  0  0  0  0  0  0  0  0  0
    3.3765    0.1426   -1.0944 C   0  0  0  0  0  0  0  0  0  0  0  0
   -2.2475   -1.9533   -0.2060 C   0  0  0  0  0  0  0  0  0  0  0  0
   -3.3672   -1.4820    0.7178 C   0  0  0  0  0  0  0  0  0  0  0  0
   -1.6032    0.3904   -0.7562 C   0  0  0  0  0  0  0  0  0  0  0  0
   -3.8547   -0.1102    0.3349 C   0  0  0  0  0  0  0  0  0  0  0  0
   -3.0085    0.7797   -0.3493 C   0  0  0  0  0  0  0  0  0  0  0  0
    2.3369   -0.8099   -0.6099 C   0  0  0  0  0  0  0  0  0  0  0  0
    0.1436   -1.2906   -0.2184 C   0  0  0  0  0  0  0  0  0  0  0  0
   -5.1420    0.3021    0.7058 C   0  0  0  0  0  0  0  0  0  0  0  0
   -3.4806    2.0593   -0.6782 C   0  0  0  0  0  0  0  0  0  0  0  0
   -5.5971    1.5783    0.3769 C   0  0  0  0  0  0  0  0  0  0  0  0
   -4.7682    2.4554   -0.3172 C   0  0  0  0  0  0  0  0  0  0  0  0
    1.7804   -2.8040    0.2562 C   0  0  0  0  0  0  0  0  0  0  0  0
  1  7  1  0
  1  8  1  0
  1 11  1  0
  2 12  1  0
  2 14  1  0
  2 18  1  0
  3 17  2  0
  3 18  1  0
  4 17  1  0
  4 23  2  0
  5 18  2  0
  5 23  1  0
  6 23  1  0
  7  9  1  0
  8 10  1  0
  9 10  1  0
 11 17  1  0
 12 13  1  0
 13 15  1  0
 14 16  1  0
 15 16  2  0
 15 19  1  0
 16 20  1  0
 19 21  2  0
 20 22  2  0
 21 22  1  0
M  END
>  <PUBCHEM_COMPOUND_CID>  (1) 
34838

>  <PUBCHEM_CONFORMER_RMSD>  (1) 
0.8

>  <PUBCHEM_CONFORMER_DIVERSEORDER>  (1) 
1
75
14
64
36
40
63
70
25
62
80
51
57
11
9
24
68
59
34
61
72
50
74
55
28
18
19
66
67
54
39
8
73
49
52
23
53
3
17
32
46
10
79
76
21
37
31
56
71
20
33
44
35
38
6
22
7
69
4
41
65
30
78
48
5
42
43
45
29
58
47
60
27
13
16
77
15
12
26
2

>  <PUBCHEM_MMFF94_PARTIAL_CHARGES>  (1) 
27
1 -0.81
11 0.41
12 0.37
13 0.14
14 0.51
15 -0.14
16 -0.14
17 0.48
18 0.72
19 -0.15
2 -0.84
20 -0.15
21 -0.15
22 -0.15
23 0.72
3 -0.62
4 -0.62
40 0.15
41 0.15
42 0.15
43 0.15
44 0.4
45 0.4
5 -0.62
6 -0.9
7 0.27
8 0.27

>  <PUBCHEM_EFFECTIVE_ROTOR_COUNT>  (1) 
4.8

>  <PUBCHEM_PHARMACOPHORE_FEATURES>  (1) 
8
1 1 cation
1 6 donor
4 2 3 5 18 cation
4 4 5 6 23 cation
5 1 7 8 9 10 rings
6 15 16 19 20 21 22 rings
6 2 12 13 14 15 16 rings
6 3 4 5 17 18 23 rings

>  <PUBCHEM_HEAVY_ATOM_COUNT>  (1) 
23

>  <PUBCHEM_ATOM_DEF_STEREO_COUNT>  (1) 
0

>  <PUBCHEM_ATOM_UDEF_STEREO_COUNT>  (1) 
0

>  <PUBCHEM_BOND_DEF_STEREO_COUNT>  (1) 
0

>  <PUBCHEM_BOND_UDEF_STEREO_COUNT>  (1) 
0

>  <PUBCHEM_ISOTOPIC_ATOM_COUNT>  (1) 
0

>  <PUBCHEM_COMPONENT_COUNT>  (1) 
1

>  <PUBCHEM_CACTVS_TAUTO_COUNT>  (1) 
4

>  <PUBCHEM_CONFORMER_ID>  (1) 
0000881600000001

>  <PUBCHEM_MMFF94_ENERGY>  (1) 
65.2035

>  <PUBCHEM_FEATURE_SELFOVERLAP>  (1) 
40.661

>  <PUBCHEM_SHAPE_FINGERPRINT>  (1) 
1100329 8 17402895522785713761
11112241 14 16986857167786746825
11595378 159 16950556658367500589
12390115 104 18268726054614040772
12403259 415 18340498866893169116
12549972 3 17605860052161375331
12769317 202 18273210915526075824
12788726 201 16885842964843228802
12925494 130 18337954464175734721
12930653 34 18335987579026847579
13140716 1 18334008359212285266
13402501 40 18341331183963061616
13878862 14 18045763625438551997
13955234 65 18264210218493319906
13965767 371 18113886166086569716
14178342 30 18042128811416117823
14251764 75 18271537450233690369
14790565 3 18191314977300313532
14848178 96 18341891904812307248
14849402 71 18335422353399648644
15475509 84 17903916652335423824
17868525 174 17901941937756802224
17980427 23 17982980450546305974
17980427 26 18340192060510986510
18681886 176 18127404558239589762
21033648 29 18268708488741496176
21120745 212 17331129291630826998
21279426 13 18343312474716063420
21304303 172 17477202726773549282
21452121 103 18410008819427603778
21475661 188 18271243932284563524
21756936 100 18197490938851064396
21859007 373 16880739753400207621
22122407 14 18056212276116683953
23227448 37 18271806877889867565
23559900 14 18194961842541997747
23845131 108 18335136531262556675
283562 15 18050555545872673959
2838139 119 18201995577538962052
34797466 226 17846225428045530581
350125 39 18334860468392245870
376196 1 17916017053072540480
4371632 12 17627758085218875889
5104073 3 18188498973818708763
57124632 79 18337942420691024856
59124914 9 18412545431660945800
633830 44 18343298210649424254
6442390 28 18336549434042780630
67856867 119 18337103467327850691
7064713 232 18261394515433293356
7808743 9 17975700803370944356
79837 15 18044657735483881674
84936 182 18412261718789833634
9777508 108 18192436479134115242
9981440 41 18262797492133029730

>  <PUBCHEM_SHAPE_MULTIPOLES>  (1) 
443.44
12.1
4.12
0.95
3.71
1.71
0.04
-11.29
1.38
-3.73
1.09
-0.33
-0.24
1.07

>  <PUBCHEM_SHAPE_SELFOVERLAP>  (1) 
954.995

>  <PUBCHEM_SHAPE_VOLUME>  (1) 
235.9

>  <PUBCHEM_COORDINATE_TYPE>  (1) 
2
5
10

$$$$
