34834
     RDKit          3D

 13 13  0  0  0  0  0  0  0  0999 V2000
    0.1777   -3.0450   -0.0056 S   0  0  0  0  0  0  0  0  0  0  0  0
    1.5243    0.7257    0.0045 C   0  0  0  0  0  0  0  0  0  0  0  0
   -1.5736    0.5559   -0.0050 C   0  0  0  0  0  0  0  0  0  0  0  0
    0.7253   -0.5881   -0.0001 C   0  0  0  0  0  0  0  0  0  0  0  0
   -0.6689   -0.6194   -0.0038 C   0  0  0  0  0  0  0  0  0  0  0  0
    3.0365    0.4140    0.0083 C   0  0  0  0  0  0  0  0  0  0  0  0
    1.1714    1.5441    1.2655 C   0  0  0  0  0  0  0  0  0  0  0  0
    1.2478    1.6298   -1.2181 C   0  0  0  0  0  0  0  0  0  0  0  0
   -2.9239    0.2414    0.7170 C   0  0  0  0  0  0  0  0  0  0  0  0
   -1.9210    1.0115   -1.4595 C   0  0  0  0  0  0  0  0  0  0  0  0
   -1.0201    1.8404    0.7044 C   0  0  0  0  0  0  0  0  0  0  0  0
    1.3402   -1.7878   -0.0004 C   0  0  0  0  0  0  0  0  0  0  0  0
   -1.1156   -1.9226   -0.0073 C   0  0  0  0  0  0  0  0  0  0  0  0
  1 12  1  0
  1 13  1  0
  2  4  1  0
  2  6  1  0
  2  7  1  0
  2  8  1  0
  3  5  1  0
  3  9  1  0
  3 10  1  0
  3 11  1  0
  4  5  1  0
  4 12  2  0
  5 13  2  0
M  END
>  <PUBCHEM_COMPOUND_CID>  (1) 
34834

>  <PUBCHEM_CONFORMER_RMSD>  (1) 
0.6

>  <PUBCHEM_CONFORMER_DIVERSEORDER>  (1) 
1

>  <PUBCHEM_MMFF94_PARTIAL_CHARGES>  (1) 
9
1 -0.08
12 -0.11
13 -0.11
2 0.18
3 0.18
32 0.15
33 0.15
4 -0.18
5 -0.18

>  <PUBCHEM_EFFECTIVE_ROTOR_COUNT>  (1) 
2

>  <PUBCHEM_PHARMACOPHORE_FEATURES>  (1) 
3
4 2 6 7 8 hydrophobe
4 3 9 10 11 hydrophobe
5 1 4 5 12 13 rings

>  <PUBCHEM_HEAVY_ATOM_COUNT>  (1) 
13

>  <PUBCHEM_ATOM_DEF_STEREO_COUNT>  (1) 
0

>  <PUBCHEM_ATOM_UDEF_STEREO_COUNT>  (1) 
0

>  <PUBCHEM_BOND_DEF_STEREO_COUNT>  (1) 
0

>  <PUBCHEM_BOND_UDEF_STEREO_COUNT>  (1) 
0

>  <PUBCHEM_ISOTOPIC_ATOM_COUNT>  (1) 
0

>  <PUBCHEM_COMPONENT_COUNT>  (1) 
1

>  <PUBCHEM_CACTVS_TAUTO_COUNT>  (1) 
1

>  <PUBCHEM_CONFORMER_ID>  (1) 
0000881200000001

>  <PUBCHEM_MMFF94_ENERGY>  (1) 
108.3975

>  <PUBCHEM_FEATURE_SELFOVERLAP>  (1) 
15.223

>  <PUBCHEM_SHAPE_FINGERPRINT>  (1) 
1 1 18410291376324655398
12423570 1 13949503918889514756
14614273 12 18119514685872211327
14761567 1 18342170063984035932
14817 1 10157762972773981217
15775835 57 18202569449419929305
16945 1 18270389508364052696
193761 8 17619072733094565136
21040471 1 18339363088118291080
21501502 16 17980201108415149960
21947302 44 17391042882243554389
22802520 49 17767153125435996380
23235685 24 18410855468718427737
2334 1 17979355587867242506
23419403 2 16100154598221645880
23552423 10 18051417266524557459
241688 4 16752965339078615578
2748010 2 18120092788475663974
2897 32 18268155244854344680
5084963 1 18261668298012280256
5255222 1 18410853291217221611
528862 383 18336268925069714827
63268167 104 18124302822793327029
66348 1 18050289158899133538
81228 2 17761203719231011019

>  <PUBCHEM_SHAPE_MULTIPOLES>  (1) 
271.38
3.22
2.83
1.1
0.14
2.1
-0.16
-1.06
0.1
-0.34
0.05
0.19
-0.61
0.06

>  <PUBCHEM_SHAPE_SELFOVERLAP>  (1) 
545.71

>  <PUBCHEM_SHAPE_VOLUME>  (1) 
162.4

>  <PUBCHEM_COORDINATE_TYPE>  (1) 
2
5
10

$$$$
