34839
     RDKit          3D

 25 28  0  0  0  0  0  0  0  0999 V2000
    3.3782    0.1214    0.5608 N   0  0  0  0  0  0  0  0  0  0  0  0
    4.8980    2.1861   -0.7757 N   0  0  0  0  0  0  0  0  0  0  0  0
   -1.5432   -0.5304    0.4464 N   0  0  0  0  0  0  0  0  0  0  0  0
    0.7474   -0.8780    0.6962 N   0  0  0  0  0  0  0  0  0  0  0  0
    1.7065   -2.9301   -0.0954 N   0  0  0  0  0  0  0  0  0  0  0  0
   -0.6486   -2.5361   -0.3331 N   0  0  0  0  0  0  0  0  0  0  0  0
    0.3174   -4.5312   -1.0986 N   0  0  0  0  0  0  0  0  0  0  0  0
    3.3230    0.2859   -0.8969 C   0  0  0  0  0  0  0  0  0  0  0  0
    4.6787    0.5657    1.0773 C   0  0  0  0  0  0  0  0  0  0  0  0
    3.5978    1.7409   -1.2922 C   0  0  0  0  0  0  0  0  0  0  0  0
    4.9549    2.0204    0.6818 C   0  0  0  0  0  0  0  0  0  0  0  0
    3.1170   -1.2664    0.9370 C   0  0  0  0  0  0  0  0  0  0  0  0
   -1.5131    0.5456    1.4391 C   0  0  0  0  0  0  0  0  0  0  0  0
   -2.1787    1.7850    0.8479 C   0  0  0  0  0  0  0  0  0  0  0  0
   -2.8713   -0.9706    0.0014 C   0  0  0  0  0  0  0  0  0  0  0  0
   -3.5493    1.4697    0.3112 C   0  0  0  0  0  0  0  0  0  0  0  0
   -3.8670    0.1649   -0.1045 C   0  0  0  0  0  0  0  0  0  0  0  0
    5.1576    3.5746   -1.1509 C   0  0  0  0  0  0  0  0  0  0  0  0
    1.7578   -1.7252    0.4799 C   0  0  0  0  0  0  0  0  0  0  0  0
   -0.4315   -1.3523    0.2621 C   0  0  0  0  0  0  0  0  0  0  0  0
   -4.4990    2.4918    0.1773 C   0  0  0  0  0  0  0  0  0  0  0  0
   -5.1454   -0.0991   -0.6186 C   0  0  0  0  0  0  0  0  0  0  0  0
   -5.7644    2.2169   -0.3396 C   0  0  0  0  0  0  0  0  0  0  0  0
   -6.0885    0.9218   -0.7347 C   0  0  0  0  0  0  0  0  0  0  0  0
    0.4655   -3.2715   -0.4783 C   0  0  0  0  0  0  0  0  0  0  0  0
  1  8  1  0
  1  9  1  0
  1 12  1  0
  2 10  1  0
  2 11  1  0
  2 18  1  0
  3 13  1  0
  3 15  1  0
  3 20  1  0
  4 19  2  0
  4 20  1  0
  5 19  1  0
  5 25  2  0
  6 20  2  0
  6 25  1  0
  7 25  1  0
  8 10  1  0
  9 11  1  0
 12 19  1  0
 13 14  1  0
 14 16  1  0
 15 17  1  0
 16 17  2  0
 16 21  1  0
 17 22  1  0
 21 23  2  0
 22 24  2  0
 23 24  1  0
M  END
>  <PUBCHEM_COMPOUND_CID>  (1) 
34839

>  <PUBCHEM_CONFORMER_RMSD>  (1) 
0.8

>  <PUBCHEM_CONFORMER_DIVERSEORDER>  (1) 
4
94
148
69
115
16
62
165
143
135
14
147
120
39
87
173
57
125
105
44
145
119
45
156
170
144
92
49
146
101
134
71
123
162
154
76
33
27
171
12
172
41
140
66
114
58
174
116
163
48
106
29
142
168
25
129
112
158
85
90
91
155
157
152
166
81
82
167
118
34
159
55
108
5
80
113
9
136
88
161
175
56
128
72
122
141
52
60
67
15
8
96
50
169
42
10
18
164
131
24
63
28
93
78
139
31
74
84
121
102
26
130
73
54
111
32
51
126
23
36
61
1
149
117
103
127
137
79
19
35
21
38
133
107
77
37
100
64
75
22
2
110
6
17
95
98
11
160
30
97
20
65
150
47
7
138
86
104
70
153
40
43
59
151
13
89
124
46
68
109
83
53
99
132
3

>  <PUBCHEM_MMFF94_PARTIAL_CHARGES>  (1) 
31
1 -0.81
10 0.27
11 0.27
12 0.41
13 0.37
14 0.14
15 0.51
16 -0.14
17 -0.14
18 0.27
19 0.48
2 -0.81
20 0.72
21 -0.15
22 -0.15
23 -0.15
24 -0.15
25 0.72
3 -0.84
4 -0.62
45 0.15
46 0.15
47 0.15
48 0.15
49 0.4
5 -0.62
50 0.4
6 -0.62
7 -0.9
8 0.27
9 0.27

>  <PUBCHEM_EFFECTIVE_ROTOR_COUNT>  (1) 
5

>  <PUBCHEM_PHARMACOPHORE_FEATURES>  (1) 
9
1 1 cation
1 2 cation
1 7 donor
4 3 4 6 20 cation
4 5 6 7 25 cation
6 1 2 8 9 10 11 rings
6 16 17 21 22 23 24 rings
6 3 13 14 15 16 17 rings
6 4 5 6 19 20 25 rings

>  <PUBCHEM_HEAVY_ATOM_COUNT>  (1) 
25

>  <PUBCHEM_ATOM_DEF_STEREO_COUNT>  (1) 
0

>  <PUBCHEM_ATOM_UDEF_STEREO_COUNT>  (1) 
0

>  <PUBCHEM_BOND_DEF_STEREO_COUNT>  (1) 
0

>  <PUBCHEM_BOND_UDEF_STEREO_COUNT>  (1) 
0

>  <PUBCHEM_ISOTOPIC_ATOM_COUNT>  (1) 
0

>  <PUBCHEM_COMPONENT_COUNT>  (1) 
1

>  <PUBCHEM_CACTVS_TAUTO_COUNT>  (1) 
4

>  <PUBCHEM_CONFORMER_ID>  (1) 
0000881700000004

>  <PUBCHEM_MMFF94_ENERGY>  (1) 
75.5647

>  <PUBCHEM_FEATURE_SELFOVERLAP>  (1) 
45.742

>  <PUBCHEM_SHAPE_FINGERPRINT>  (1) 
10498660 4 18343025505758730368
10673678 19 18410294688303752621
10763959 59 18187649051283003484
10906281 52 17988650628458921953
10937287 8 18410295856413472902
12107183 9 18335126606515619866
12166972 35 18196647394041114362
12403259 118 18187359990982715194
12403259 327 16370729227324212760
12422481 6 17677038067046203500
12633257 1 14996568464095256156
12788726 201 17903634434430260474
14117953 113 18337105675326241012
14251764 30 9943531803493644317
14251764 38 18043809780096069261
14251764 75 18337122249120031504
14257110 125 18335704978884438188
14420673 8 9295020084740517465
14528608 73 18413105039749924517
14767858 380 18270948155382885551
14774955 27 18334293162846367341
14790565 3 18412543236431770385
14840074 17 17749394801330104060
15142526 21 17967532410658848282
15198563 99 17693659620562728663
15342168 16 18408038511353702199
15575132 122 18264777725559411985
15840311 113 17977112258959245005
15961568 22 17968097482284545885
16988056 13 17834675994229070462
17810953 82 18334575716081636252
18681886 176 18199739255193552490
19427546 62 18338233757145177755
19784866 135 8430328921487469454
20511986 3 17897149420428727240
20567600 9 18267317438685217388
20715895 44 18263637377483228161
21033648 144 18040711476566137575
21298829 104 18408041797194600981
22149856 69 18129949980072296443
22950370 63 9727637215022278997
23366157 5 18122065295525900795
23559900 14 17983850082686834667
245318 6 17968392245927006756
2838139 119 18186795864076606509
3004659 81 18054501409958368659
3472631 163 18337675329660158380
394222 165 18334005069425800914
474 4 18261112937250389955
56633871 153 10809335659454890433
6034566 193 18265914590597389561
6327066 14 18336264651888901020
6371009 1 18341043026465235432
6523845 18 17978552802998681006
67856867 119 18267015064308291891
7288768 16 17604711221840357042
7808743 9 18266460004626329664
7970288 3 9871481902053646148
9981440 41 18409168835267257891

>  <PUBCHEM_SHAPE_MULTIPOLES>  (1) 
479.62
13.53
4.33
1.15
4.76
2.76
0
-14.82
-2.29
-3.33
-1.63
-0.8
-0.24
-1.28

>  <PUBCHEM_SHAPE_SELFOVERLAP>  (1) 
1025.418

>  <PUBCHEM_SHAPE_VOLUME>  (1) 
256.8

>  <PUBCHEM_COORDINATE_TYPE>  (1) 
2
5
10

$$$$
