34844
     RDKit          3D

 28 31  0  0  0  0  0  0  0  0999 V2000
    5.4942    2.4993   -1.2794 O   0  0  0  0  0  0  0  0  0  0  0  0
    7.0583    2.5647    0.5528 O   0  0  0  0  0  0  0  0  0  0  0  0
   -3.2402    1.3667   -0.0292 O   0  0  0  0  0  0  0  0  0  0  0  0
   -0.1241   -2.0194    0.0621 N   0  0  0  0  0  0  0  0  0  0  0  0
    2.7039   -1.8182   -0.5040 N   0  0  0  0  0  0  0  0  0  0  0  0
   -3.5550   -0.7785    0.7953 N   0  0  0  0  0  0  0  0  0  0  0  0
   -9.5716    1.0613   -0.3207 N   0  0  0  0  0  0  0  0  0  0  0  0
    0.6283   -0.7953    0.3631 C   0  0  0  0  0  0  0  0  0  0  0  0
    0.4767   -2.7225   -1.0780 C   0  0  0  0  0  0  0  0  0  0  0  0
    2.1024   -1.1147    0.6355 C   0  0  0  0  0  0  0  0  0  0  0  0
    1.9510   -3.0416   -0.8070 C   0  0  0  0  0  0  0  0  0  0  0  0
   -1.5294   -1.7141   -0.1984 C   0  0  0  0  0  0  0  0  0  0  0  0
    4.1088   -2.1247   -0.2418 C   0  0  0  0  0  0  0  0  0  0  0  0
   -2.1683   -1.0782    1.0275 C   0  0  0  0  0  0  0  0  0  0  0  0
    4.9187   -0.8791    0.0014 C   0  0  0  0  0  0  0  0  0  0  0  0
    4.7500    0.2166   -0.8377 C   0  0  0  0  0  0  0  0  0  0  0  0
    5.8242   -0.8520    1.0681 C   0  0  0  0  0  0  0  0  0  0  0  0
    5.5143    1.3349   -0.5751 C   0  0  0  0  0  0  0  0  0  0  0  0
    6.4076    1.3723    0.4711 C   0  0  0  0  0  0  0  0  0  0  0  0
    6.5860    0.2932    1.3122 C   0  0  0  0  0  0  0  0  0  0  0  0
   -3.9833    0.4383    0.2780 C   0  0  0  0  0  0  0  0  0  0  0  0
    6.4744    3.2740   -0.5588 C   0  0  0  0  0  0  0  0  0  0  0  0
   -5.4517    0.6020    0.1221 C   0  0  0  0  0  0  0  0  0  0  0  0
   -5.9890    1.8716    0.1680 C   0  0  0  0  0  0  0  0  0  0  0  0
   -6.2311   -0.5209   -0.0649 C   0  0  0  0  0  0  0  0  0  0  0  0
   -7.3676    2.0253    0.0203 C   0  0  0  0  0  0  0  0  0  0  0  0
   -7.6096   -0.3671   -0.2126 C   0  0  0  0  0  0  0  0  0  0  0  0
   -8.1779    0.9060   -0.1699 C   0  0  0  0  0  0  0  0  0  0  0  0
  1 18  1  0
  1 22  1  0
  2 19  1  0
  2 22  1  0
  3 21  2  0
  4  8  1  0
  4  9  1  0
  4 12  1  0
  5 10  1  0
  5 11  1  0
  5 13  1  0
  6 14  1  0
  6 21  1  0
  7 28  1  0
  8 10  1  0
  9 11  1  0
 12 14  1  0
 13 15  1  0
 15 16  1  0
 15 17  2  0
 16 18  2  0
 17 20  1  0
 18 19  1  0
 19 20  2  0
 21 23  1  0
 23 24  2  0
 23 25  1  0
 24 26  1  0
 25 27  2  0
 26 28  2  0
 27 28  1  0
M  END
>  <PUBCHEM_COMPOUND_CID>  (1) 
34844

>  <PUBCHEM_CONFORMER_RMSD>  (1) 
1

>  <PUBCHEM_CONFORMER_DIVERSEORDER>  (1) 
1
54
12
3
57
77
47
18
40
24
58
80
69
50
42
10
34
73
52
5
72
76
27
53
55
60
39
35
41
26
87
65
30
33
9
17
37
62
45
48
79
22
88
59
7
15
83
20
75
38
81
29
82
32
85
66
63
11
16
44
64
84
13
36
25
74
67
56
68
86
2
70
51
19
46
43
6
71
4
8
14
28
31
23
61
78
21
49

>  <PUBCHEM_MMFF94_PARTIAL_CHARGES>  (1) 
38
1 -0.36
10 0.27
11 0.27
12 0.27
13 0.41
14 0.3
15 -0.14
16 -0.15
17 -0.15
18 0.08
19 0.08
2 -0.36
20 -0.15
21 0.54
22 0.56
23 0.09
24 -0.15
25 -0.15
26 -0.15
27 -0.15
28 0.1
3 -0.57
4 -0.81
43 0.15
44 0.15
45 0.37
46 0.15
49 0.15
5 -0.81
50 0.15
51 0.15
52 0.15
53 0.4
54 0.4
6 -0.73
7 -0.9
8 0.27
9 0.27

>  <PUBCHEM_EFFECTIVE_ROTOR_COUNT>  (1) 
8.8

>  <PUBCHEM_PHARMACOPHORE_FEATURES>  (1) 
12
1 1 acceptor
1 2 acceptor
1 3 acceptor
1 4 cation
1 5 cation
1 6 donor
1 7 cation
1 7 donor
5 1 2 18 19 22 rings
6 15 16 17 18 19 20 rings
6 23 24 25 26 27 28 rings
6 4 5 8 9 10 11 rings

>  <PUBCHEM_HEAVY_ATOM_COUNT>  (1) 
28

>  <PUBCHEM_ATOM_DEF_STEREO_COUNT>  (1) 
0

>  <PUBCHEM_ATOM_UDEF_STEREO_COUNT>  (1) 
0

>  <PUBCHEM_BOND_DEF_STEREO_COUNT>  (1) 
0

>  <PUBCHEM_BOND_UDEF_STEREO_COUNT>  (1) 
0

>  <PUBCHEM_ISOTOPIC_ATOM_COUNT>  (1) 
0

>  <PUBCHEM_COMPONENT_COUNT>  (1) 
1

>  <PUBCHEM_CACTVS_TAUTO_COUNT>  (1) 
3

>  <PUBCHEM_CONFORMER_ID>  (1) 
0000881C00000001

>  <PUBCHEM_MMFF94_ENERGY>  (1) 
79.6839

>  <PUBCHEM_FEATURE_SELFOVERLAP>  (1) 
61.055

>  <PUBCHEM_SHAPE_FINGERPRINT>  (1) 
10 15 18040718073366975850
10280341 67 17843113973744412480
10673678 19 18342744017965812862
11146346 142 17911788377906684660
11315181 36 18131631155147690345
11374522 155 18335987549294769565
11386260 185 18201451229594984150
11578821 258 18338796699020906781
11828042 226 18059294387560880921
125118 31 18335140881863493048
12522641 24 17604421904496516298
12539765 74 17917157096270136591
12664476 115 18113901533811754118
12821665 9 18341893026674380615
12925494 130 18264770037752899992
13533116 47 9151167645736663278
13673619 4 10447926161761579475
14117953 113 18342464734192433196
14142895 15 18413106182833639815
14216079 64 9007057963576401993
14251757 52 18335137596218715145
14565420 104 18259982656751816370
15183329 4 17989211451301310545
15419008 145 18042111073944919280
155225 6 18190749824508736836
15684393 108 11024105465068599512
15840311 113 18334014982394370654
15890870 6 18412828014981844232
16989713 51 17488171798776186063
17686467 74 18040718096181488799
18393751 57 18187363221078215999
20157964 124 18412546475021779746
20715895 44 18411703192995547034
20721686 146 17845363536217311144
21049683 271 17988920077342822097
21298829 104 18338517542597775796
21315764 268 18115304471587882478
21344244 181 11600002154431429861
21585482 111 18264210391331637756
21585482 57 18410567418874527759
23522609 53 17273715169555036691
23569943 247 10015595995260793965
25269216 80 16629669790717504589
2748736 6 18412824694328461816
312425 54 16660644094218793954
33532 11 9583515417455841817
3418910 222 18202571662172625977
34797466 226 17988086591145747095
3711267 37 18200041634388178641
3918712 181 18272647995780169080
406291 66 9583253725267905860
4073 2 18408606959810333027
4258327 124 18343304794940043399
444735 82 18410577253964935637
445580 167 18341324553281785703
45377200 153 14332829561859676949
4625314 4 18411982425620125351
5080951 261 16950840423353460843
5109719 28 18410304617951396419
5372103 7 16199286855383749378
5470011 282 12535341320418728840
60111433 81 17914327129556103088
6327066 14 18342177808195426494
9849439 229 18411138065436165270

>  <PUBCHEM_SHAPE_MULTIPOLES>  (1) 
538.69
28.06
3.26
0.99
35.46
0.47
-0.04
22.52
-0.25
-5.02
0.94
-1.23
-0.07
-0.4

>  <PUBCHEM_SHAPE_SELFOVERLAP>  (1) 
1159.506

>  <PUBCHEM_SHAPE_VOLUME>  (1) 
296.8

>  <PUBCHEM_COORDINATE_TYPE>  (1) 
2
5
10

$$$$
