34849
     RDKit          3D

 24 26  0  0  0  0  0  0  0  0999 V2000
    3.7404    2.2951    0.5726 O   0  0  0  0  0  0  0  0  0  0  0  0
   -0.7495    2.2937    0.2407 N   0  0  0  0  0  0  0  0  0  0  0  0
   -2.7718    0.5073    0.1679 N   0  0  0  0  0  0  0  0  0  0  0  0
    1.9273    1.6725   -0.7336 N   0  0  0  0  0  0  0  0  0  0  0  0
   -5.9705   -2.3693   -0.1258 N   0  0  0  0  0  0  0  0  0  0  0  0
    4.9906   -3.8937   -0.0599 N   0  0  0  0  0  0  0  0  0  0  0  0
    0.3438    3.2595    0.2804 C   0  0  0  0  0  0  0  0  0  0  0  0
   -3.8364   -0.4336    0.1291 C   0  0  0  0  0  0  0  0  0  0  0  0
   -3.5574   -1.9140    0.2868 C   0  0  0  0  0  0  0  0  0  0  0  0
    1.3351    2.9782   -0.8383 C   0  0  0  0  0  0  0  0  0  0  0  0
   -1.8380    2.5737   -0.4886 C   0  0  0  0  0  0  0  0  0  0  0  0
   -0.6347    1.1533    0.9350 C   0  0  0  0  0  0  0  0  0  0  0  0
   -2.8763    1.6566   -0.5263 C   0  0  0  0  0  0  0  0  0  0  0  0
   -1.6731    0.2363    0.8976 C   0  0  0  0  0  0  0  0  0  0  0  0
   -4.5955   -2.7700   -0.4383 C   0  0  0  0  0  0  0  0  0  0  0  0
   -5.1136   -0.0469   -0.0384 C   0  0  0  0  0  0  0  0  0  0  0  0
   -6.1463   -1.1033    0.0215 C   0  0  0  0  0  0  0  0  0  0  0  0
    3.0996    1.4348   -0.0256 C   0  0  0  0  0  0  0  0  0  0  0  0
    3.5968    0.0349   -0.0350 C   0  0  0  0  0  0  0  0  0  0  0  0
    4.9476   -0.1936    0.1252 C   0  0  0  0  0  0  0  0  0  0  0  0
    2.6912   -0.9921   -0.2026 C   0  0  0  0  0  0  0  0  0  0  0  0
    5.4140   -1.5081    0.1171 C   0  0  0  0  0  0  0  0  0  0  0  0
    3.1576   -2.3066   -0.2106 C   0  0  0  0  0  0  0  0  0  0  0  0
    4.5190   -2.5647   -0.0508 C   0  0  0  0  0  0  0  0  0  0  0  0
  1 18  2  0
  2  7  1  0
  2 11  2  0
  2 12  1  0
  3  8  1  0
  3 13  2  0
  3 14  1  0
  4 10  1  0
  4 18  1  0
  5 15  1  0
  5 17  2  0
  6 24  1  0
  7 10  1  0
  8  9  1  0
  8 16  2  0
  9 15  1  0
 11 13  1  0
 12 14  2  0
 16 17  1  0
 18 19  1  0
 19 20  2  0
 19 21  1  0
 20 22  1  0
 21 23  2  0
 22 24  2  0
 23 24  1  0
M  CHG  2   2   1   3   1
M  END
>  <PUBCHEM_COMPOUND_CID>  (1) 
34849

>  <PUBCHEM_CONFORMER_RMSD>  (1) 
0.8

>  <PUBCHEM_CONFORMER_DIVERSEORDER>  (1) 
1
8
6
10
14
15
3
9
4
5
12
2
11
7
13

>  <PUBCHEM_MMFF94_PARTIAL_CHARGES>  (1) 
37
1 -0.57
10 0.3
11 0.21
12 0.21
13 0.21
14 0.21
15 0.25
16 -0.14
17 0.38
18 0.54
19 0.09
2 -0.21
20 -0.15
21 -0.15
22 -0.15
23 -0.15
24 0.1
3 -0.07
31 0.15
32 0.15
33 0.15
34 0.15
37 0.15
38 0.37
39 0.06
4 -0.73
40 0.15
41 0.15
42 0.15
43 0.15
44 0.4
45 0.4
5 -0.7
6 -0.9
7 0.49
8 0.21
9 0.14

>  <PUBCHEM_EFFECTIVE_ROTOR_COUNT>  (1) 
6.4

>  <PUBCHEM_PHARMACOPHORE_FEATURES>  (1) 
8
1 1 acceptor
1 4 donor
1 5 acceptor
1 6 cation
1 6 donor
6 19 20 21 22 23 24 rings
6 2 3 11 12 13 14 rings
6 5 8 9 15 16 17 rings

>  <PUBCHEM_HEAVY_ATOM_COUNT>  (1) 
24

>  <PUBCHEM_ATOM_DEF_STEREO_COUNT>  (1) 
0

>  <PUBCHEM_ATOM_UDEF_STEREO_COUNT>  (1) 
0

>  <PUBCHEM_BOND_DEF_STEREO_COUNT>  (1) 
0

>  <PUBCHEM_BOND_UDEF_STEREO_COUNT>  (1) 
0

>  <PUBCHEM_ISOTOPIC_ATOM_COUNT>  (1) 
0

>  <PUBCHEM_COMPONENT_COUNT>  (1) 
1

>  <PUBCHEM_CACTVS_TAUTO_COUNT>  (1) 
3

>  <PUBCHEM_CONFORMER_ID>  (1) 
0000882100000001

>  <PUBCHEM_MMFF94_ENERGY>  (1) 
83.1168

>  <PUBCHEM_FEATURE_SELFOVERLAP>  (1) 
40.596

>  <PUBCHEM_SHAPE_FINGERPRINT>  (1) 
10622 236 17679571251974953226
10693767 8 18197201750340424343
11197282 1 18410013238638319027
11719270 70 18121496015096815528
12107183 9 18270413694074593937
12166972 35 17894635842094256462
13150687 139 17753632414561683676
13533116 47 18343022237146310169
1361 2 18265895954543874882
13911852 28 18412260658085749415
13955234 65 17911238639710236537
13989917 61 18120940761482306115
14117953 113 18272092643713279431
14251740 57 18343018904425605714
14251751 18 18410855447470184775
14429380 30 18335706005571993858
1454969 45 18335987575581096052
14681488 357 17987819418283681374
14866123 147 18196657294368389057
15320467 1 18410573972352121063
15352361 1 18410012117640577718
15475509 35 17915738889362608715
17492 89 18411135805829264430
17857418 61 18411138043338511531
19141452 34 18194970638445245865
20028762 73 18343301453319038830
20403669 9 18413395323609581559
20567600 247 18199464553575017231
20645477 70 18116429434960401841
20775530 9 18410851032180578826
21279426 13 18261666000975209413
21285901 2 17749942388201312085
21478907 32 18410294696841277521
22224240 67 18056473092311438376
22393880 68 17968648315997398828
23559900 14 18410003326011698225
23569914 152 18051376662911583751
2838139 119 9007054651882615528
3004659 81 18259982699368361058
316301 35 18338230450141211586
3246872 21 18410851058067310718
325973 47 18264774448347449778
3421961 26 18341330105836313817
345986 75 17703518769751343369
34797466 226 11530746099774817073
3680242 22 18341062890778584719
44062 13 18262516975218777757
444735 79 18339062853837560906
46194498 28 17531806986353096797
463206 1 18338237192628131355
5104073 3 18130786720388395256
5309563 4 18412546500648678052
56633871 153 18196385718779027681
6299153 45 18270976682982992129
6433294 58 18194967563290502443
7970288 3 18410854339231972510
88748 71 18408889542270517839
9709674 26 18260554454041909464

>  <PUBCHEM_SHAPE_MULTIPOLES>  (1) 
463.13
14.29
4.42
0.78
5.12
0.27
0.02
14.41
-0.36
-2.25
-0.49
0.07
-0.22
-0.01

>  <PUBCHEM_SHAPE_SELFOVERLAP>  (1) 
992.258

>  <PUBCHEM_SHAPE_VOLUME>  (1) 
255.1

>  <PUBCHEM_COORDINATE_TYPE>  (1) 
2
5
10

$$$$
