34853
     RDKit          3D

 19 20  0  0  0  0  0  0  0  0999 V2000
   -1.4108    2.1465   -0.0954 Cl  0  0  0  0  0  0  0  0  0  0  0  0
   -6.4710    0.5394   -1.0029 Cl  0  0  0  0  0  0  0  0  0  0  0  0
    1.3851   -0.2361   -0.3303 O   0  0  0  0  0  0  0  0  0  0  0  0
   -1.0647   -0.6457    0.9633 O   0  0  0  0  0  0  0  0  0  0  0  0
    6.0925   -0.3073   -1.1156 O   0  0  0  0  0  0  0  0  0  0  0  0
    2.8023    1.3426    1.6262 O   0  0  0  0  0  0  0  0  0  0  0  0
    2.7768   -0.0005   -0.2782 N   0  0  0  0  0  0  0  0  0  0  0  0
    4.7190    0.6249    0.5149 N   0  0  0  0  0  0  0  0  0  0  0  0
    3.6766   -0.5012   -1.2826 C   0  0  0  0  0  0  0  0  0  0  0  0
    1.1146   -1.4456    0.3679 C   0  0  0  0  0  0  0  0  0  0  0  0
   -0.3765   -1.7189    0.3248 C   0  0  0  0  0  0  0  0  0  0  0  0
    4.9885   -0.0742   -0.6432 C   0  0  0  0  0  0  0  0  0  0  0  0
    3.3581    0.7201    0.7330 C   0  0  0  0  0  0  0  0  0  0  0  0
   -2.3125   -0.3491    0.5016 C   0  0  0  0  0  0  0  0  0  0  0  0
   -2.6118    0.9105   -0.0177 C   0  0  0  0  0  0  0  0  0  0  0  0
   -3.2992   -1.3336    0.5555 C   0  0  0  0  0  0  0  0  0  0  0  0
   -3.8976    1.1856   -0.4829 C   0  0  0  0  0  0  0  0  0  0  0  0
   -4.5851   -1.0585    0.0904 C   0  0  0  0  0  0  0  0  0  0  0  0
   -4.8843    0.2010   -0.4288 C   0  0  0  0  0  0  0  0  0  0  0  0
  1 15  1  0
  2 19  1  0
  3  7  1  0
  3 10  1  0
  4 11  1  0
  4 14  1  0
  5 12  2  0
  6 13  2  0
  7  9  1  0
  7 13  1  0
  8 12  1  0
  8 13  1  0
  9 12  1  0
 10 11  1  0
 14 15  2  0
 14 16  1  0
 15 17  1  0
 16 18  2  0
 17 19  2  0
 18 19  1  0
M  END
>  <PUBCHEM_COMPOUND_CID>  (1) 
34853

>  <PUBCHEM_CONFORMER_RMSD>  (1) 
0.8

>  <PUBCHEM_CONFORMER_DIVERSEORDER>  (1) 
1
75
51
21
23
132
90
117
28
25
111
84
81
122
5
143
8
85
100
29
136
97
3
102
79
66
63
38
103
2
112
47
60
131
99
15
20
71
87
91
6
145
128
16
56
32
148
129
126
7
33
52
36
42
146
123
142
31
135
119
121
50
144
30
125
70
101
54
127
137
39
105
34
72
53
77
94
124
78
95
4
74
9
130
115
43
73
118
89
55
67
147
138
109
92
24
41
110
98
46
27
49
61
18
104
59
48
113
68
40
108
83
64
80
45
62
141
58
116
14
96
88
22
114
86
37
120
12
57
11
26
107
13
65
17
140
76
44
35
134
10
139
93
19
82
69
133
106

>  <PUBCHEM_MMFF94_PARTIAL_CHARGES>  (1) 
23
1 -0.18
10 0.28
11 0.28
12 0.57
13 0.69
14 0.08
15 0.18
16 -0.15
17 -0.15
18 -0.15
19 0.18
2 -0.18
26 0.37
27 0.15
28 0.15
29 0.15
3 -0.32
4 -0.36
5 -0.57
6 -0.57
7 -0.32
8 -0.49
9 0.36

>  <PUBCHEM_EFFECTIVE_ROTOR_COUNT>  (1) 
5.6

>  <PUBCHEM_PHARMACOPHORE_FEATURES>  (1) 
6
1 4 acceptor
1 5 acceptor
1 6 acceptor
1 8 donor
5 7 8 9 12 13 rings
6 14 15 16 17 18 19 rings

>  <PUBCHEM_HEAVY_ATOM_COUNT>  (1) 
19

>  <PUBCHEM_ATOM_DEF_STEREO_COUNT>  (1) 
0

>  <PUBCHEM_ATOM_UDEF_STEREO_COUNT>  (1) 
0

>  <PUBCHEM_BOND_DEF_STEREO_COUNT>  (1) 
0

>  <PUBCHEM_BOND_UDEF_STEREO_COUNT>  (1) 
0

>  <PUBCHEM_ISOTOPIC_ATOM_COUNT>  (1) 
0

>  <PUBCHEM_COMPONENT_COUNT>  (1) 
1

>  <PUBCHEM_CACTVS_TAUTO_COUNT>  (1) 
3

>  <PUBCHEM_CONFORMER_ID>  (1) 
0000882500000001

>  <PUBCHEM_MMFF94_ENERGY>  (1) 
53.8903

>  <PUBCHEM_FEATURE_SELFOVERLAP>  (1) 
30.446

>  <PUBCHEM_SHAPE_FINGERPRINT>  (1) 
10354089 29 15140683587809782702
10366900 7 18412265021160703016
10498660 4 18334011679089993336
10670039 82 18187650146230989732
11089746 13 16588027943878455926
11128504 68 16200428091463685995
12011746 2 18409167705516408468
12236239 1 16732983141267744514
12403259 415 18340770433010926672
12596602 18 15502381131611091945
12969540 114 18340187645226174495
13402501 40 18341891917908134368
13533116 47 18115297878407479642
13668630 136 16200156482364360990
15183329 4 18188498974045938142
15242439 84 18342177777814046666
19489759 90 18186238437619633931
200 152 16558754498786959786
20645477 56 18259985964313873091
20645477 70 17346049900594917486
21637258 2 15195276517714093053
221357 26 18060419092865239384
22224240 67 12035737552310754684
23402539 116 18409445916439475431
23557571 272 18410585002259861391
23559900 14 18410011052383180264
2871803 45 18341891874647049633
300161 21 16515400789510451052
351380 180 18412261752943765584
3545911 37 18333452028140836823
4028521 119 18410292501806410467
465052 167 12894779403060259725
542803 24 16732701661964476323
59755656 215 18409732824713599222
8272917 22 15574706972342470730

>  <PUBCHEM_SHAPE_MULTIPOLES>  (1) 
361.31
14.12
1.64
1.08
3.01
0.13
0.02
1.79
-4.68
-1.02
0.26
0.86
0.12
1.05

>  <PUBCHEM_SHAPE_SELFOVERLAP>  (1) 
741.162

>  <PUBCHEM_SHAPE_VOLUME>  (1) 
210.6

>  <PUBCHEM_COORDINATE_TYPE>  (1) 
2
5
10

$$$$
