34851
     RDKit          3D

 16 17  0  0  1  0  0  0  0  0999 V2000
   -0.1234   -0.0075    0.5417 O   0  0  0  0  0  0  0  0  0  0  0  0
   -4.6566    0.9068   -0.5740 O   0  0  0  0  0  0  0  0  0  0  0  0
   -1.6310   -2.4311    0.3028 O   0  0  0  0  0  0  0  0  0  0  0  0
   -1.4637   -0.1091    0.2076 N   0  0  0  0  0  0  0  0  0  0  0  0
   -3.4291   -1.0169   -0.1294 N   0  0  0  0  0  0  0  0  0  0  0  0
   -2.2648    1.0492   -0.1078 C   0  0  0  0  0  0  0  0  0  0  0  0
   -3.6066    0.3403   -0.3021 C   0  0  0  0  0  0  0  0  0  0  0  0
   -2.3172    2.0618    1.0171 C   0  0  0  0  0  0  0  0  0  0  0  0
   -2.1118   -1.3167    0.1561 C   0  0  0  0  0  0  0  0  0  0  0  0
    0.6667   -0.0965   -0.6464 C   0  0  0  0  0  0  0  0  0  0  0  0
    2.1257    0.0066   -0.3527 C   0  0  0  0  0  0  0  0  0  0  0  0
    2.7486    1.2546   -0.3438 C   0  0  0  0  0  0  0  0  0  0  0  0
    2.8665   -1.1448   -0.0863 C   0  0  0  0  0  0  0  0  0  0  0  0
    4.1125    1.3512   -0.0689 C   0  0  0  0  0  0  0  0  0  0  0  0
    4.2305   -1.0480    0.1888 C   0  0  0  0  0  0  0  0  0  0  0  0
    4.8536    0.2000    0.1975 C   0  0  0  0  0  0  0  0  0  0  0  0
  1  4  1  0
  1 10  1  0
  2  7  2  0
  3  9  2  0
  4  6  1  0
  4  9  1  0
  5  7  1  0
  5  9  1  0
  6  7  1  0
  6  8  1  0
 10 11  1  0
 11 12  2  0
 11 13  1  0
 12 14  1  0
 13 15  2  0
 14 16  2  0
 15 16  1  0
M  END
>  <PUBCHEM_COMPOUND_CID>  (1) 
34851

>  <PUBCHEM_CONFORMER_RMSD>  (1) 
0.6

>  <PUBCHEM_CONFORMER_DIVERSEORDER>  (1) 
1
6
8
5
4
10
3
9
7
2

>  <PUBCHEM_MMFF94_PARTIAL_CHARGES>  (1) 
21
1 -0.32
10 0.42
11 -0.14
12 -0.15
13 -0.15
14 -0.15
15 -0.15
16 -0.15
2 -0.57
21 0.37
24 0.15
25 0.15
26 0.15
27 0.15
28 0.15
3 -0.57
4 -0.32
5 -0.49
6 0.36
7 0.57
9 0.69

>  <PUBCHEM_EFFECTIVE_ROTOR_COUNT>  (1) 
3.6

>  <PUBCHEM_PHARMACOPHORE_FEATURES>  (1) 
5
1 2 acceptor
1 3 acceptor
1 5 donor
5 4 5 6 7 9 rings
6 11 12 13 14 15 16 rings

>  <PUBCHEM_HEAVY_ATOM_COUNT>  (1) 
16

>  <PUBCHEM_ATOM_DEF_STEREO_COUNT>  (1) 
0

>  <PUBCHEM_ATOM_UDEF_STEREO_COUNT>  (1) 
1

>  <PUBCHEM_BOND_DEF_STEREO_COUNT>  (1) 
0

>  <PUBCHEM_BOND_UDEF_STEREO_COUNT>  (1) 
0

>  <PUBCHEM_ISOTOPIC_ATOM_COUNT>  (1) 
0

>  <PUBCHEM_COMPONENT_COUNT>  (1) 
1

>  <PUBCHEM_CACTVS_TAUTO_COUNT>  (1) 
3

>  <PUBCHEM_CONFORMER_ID>  (1) 
0000882300000001

>  <PUBCHEM_MMFF94_ENERGY>  (1) 
40.552

>  <PUBCHEM_FEATURE_SELFOVERLAP>  (1) 
25.371

>  <PUBCHEM_SHAPE_FINGERPRINT>  (1) 
10014705 185 18187362142740237741
10366900 7 17703789232289156880
10616163 171 18339927116399329734
11370993 70 18410852157552031998
12107183 9 17762336912440286866
12162725 195 18341898471954147424
12251169 10 18408323285287217772
12500047 106 18409443726042979982
12507557 5 18410008871025584392
13533116 47 18270677571752426242
13675066 3 17530688705528007612
14004511 7 18335707109008680512
14144814 61 18408889512163548744
15196674 1 18408603681889767230
15375358 24 18343302565451096774
15442244 35 18266460906500630154
17492 89 18336830883176646538
17802600 8 18342171155138376840
18186145 218 18337115566371614036
18522853 276 18342738511664771408
187816 3 18343577435305981325
19050596 39 18411138060781962400
200 152 18201714068027978477
20279233 1 18201445778611604438
20300324 65 17988638593285351253
20510252 161 18342745108939889947
20528008 55 18410853269716011444
20645477 56 18333732420574727509
20645477 70 18341332206513113126
23402539 116 18342449340428186205
23402655 69 18408605877134818924
23557571 272 18269847560716514295
23559900 14 18341891888148934986
2838139 119 16661744602437173477
300161 21 18334850641391196708
351380 180 18271802415102355052
3545911 37 18409451396991571364
4028521 119 18260824874020784949
4214541 1 18408885139812994878
474 4 17604716702298182948
5104073 3 18408323306582706912
573450 72 18336537257567806162
58051976 100 18334296474292695318
69090 78 18408319977846116015
77779 3 18408605881176597990
93112 12 18409732871968165038
9709674 26 18413114961035201454

>  <PUBCHEM_SHAPE_MULTIPOLES>  (1) 
301.7
9.76
1.86
0.76
3.07
0.21
-0.03
-1.27
0.33
-0.74
-0.33
-0.16
-0.15
-0.22

>  <PUBCHEM_SHAPE_SELFOVERLAP>  (1) 
636.815

>  <PUBCHEM_SHAPE_VOLUME>  (1) 
171.2

>  <PUBCHEM_COORDINATE_TYPE>  (1) 
2
5
10

$$$$
