34866
     RDKit          3D

  9  8  0  0  0  0  0  0  0  0999 V2000
    2.3414    1.6220    0.1838 Br  0  0  0  0  0  0  0  0  0  0  0  0
    2.3418   -1.6207    0.1897 Br  0  0  0  0  0  0  0  0  0  0  0  0
    0.3359   -0.0043   -1.6588 O   0  0  0  0  0  0  0  0  0  0  0  0
   -1.2647    0.0003    0.1619 C   0  0  0  0  0  0  0  0  0  0  0  0
   -1.4670    1.2511    1.0268 C   0  0  0  0  0  0  0  0  0  0  0  0
   -1.4820   -1.2702    0.9940 C   0  0  0  0  0  0  0  0  0  0  0  0
   -2.3012    0.0213   -0.9766 C   0  0  0  0  0  0  0  0  0  0  0  0
    0.1596   -0.0007   -0.4363 C   0  0  0  0  0  0  0  0  0  0  0  0
    1.3361    0.0011    0.5155 C   0  0  0  0  0  0  0  0  0  0  0  0
  1  9  1  0
  2  9  1  0
  3  8  2  0
  4  5  1  0
  4  6  1  0
  4  7  1  0
  4  8  1  0
  8  9  1  0
M  END
>  <PUBCHEM_COMPOUND_CID>  (1) 
34866

>  <PUBCHEM_CONFORMER_RMSD>  (1) 
0.4

>  <PUBCHEM_CONFORMER_DIVERSEORDER>  (1) 
1
2
3
4

>  <PUBCHEM_MMFF94_PARTIAL_CHARGES>  (1) 
6
1 -0.23
2 -0.23
3 -0.57
4 0.06
8 0.45
9 0.52

>  <PUBCHEM_EFFECTIVE_ROTOR_COUNT>  (1) 
2

>  <PUBCHEM_PHARMACOPHORE_FEATURES>  (1) 
5
1 1 hydrophobe
1 2 hydrophobe
1 3 acceptor
3 1 2 9 hydrophobe
4 4 5 6 7 hydrophobe

>  <PUBCHEM_HEAVY_ATOM_COUNT>  (1) 
9

>  <PUBCHEM_ATOM_DEF_STEREO_COUNT>  (1) 
0

>  <PUBCHEM_ATOM_UDEF_STEREO_COUNT>  (1) 
0

>  <PUBCHEM_BOND_DEF_STEREO_COUNT>  (1) 
0

>  <PUBCHEM_BOND_UDEF_STEREO_COUNT>  (1) 
0

>  <PUBCHEM_ISOTOPIC_ATOM_COUNT>  (1) 
0

>  <PUBCHEM_COMPONENT_COUNT>  (1) 
1

>  <PUBCHEM_CACTVS_TAUTO_COUNT>  (1) 
2

>  <PUBCHEM_CONFORMER_ID>  (1) 
0000883200000001

>  <PUBCHEM_MMFF94_ENERGY>  (1) 
18.5196

>  <PUBCHEM_FEATURE_SELFOVERLAP>  (1) 
26.664

>  <PUBCHEM_SHAPE_FINGERPRINT>  (1) 
12423570 1 14861421622704394004
12932741 1 18113898264650687726
15775835 57 17275099570009689632
16945 1 18189894223382025802
20082192 1 17241342372329221516
20645464 45 17676475160052647008
20653085 51 18189322477641712837
21040471 1 15503200186184873373
21922407 69 18272365420900887738
23552423 10 18343297042012202186
24536 1 18410854364985374088
29004967 10 18337950083023424682
369184 2 18411135844431118753
5084963 1 16415482640355932190

>  <PUBCHEM_SHAPE_MULTIPOLES>  (1) 
191.23
3.56
1.71
1.23
0.63
0.01
0.25
0
-0.12
1.13
-0.42
-0.45
-0.01
0

>  <PUBCHEM_SHAPE_SELFOVERLAP>  (1) 
333.486

>  <PUBCHEM_SHAPE_VOLUME>  (1) 
131.2

>  <PUBCHEM_COORDINATE_TYPE>  (1) 
2
5
10

$$$$
