34879
     RDKit          3D

 14 15  0  0  0  0  0  0  0  0999 V2000
   -3.5891   -1.7507   -0.1961 N   0  0  0  0  0  0  0  0  0  0  0  0
   -1.9478    1.1011    0.1165 N   0  0  0  0  0  0  0  0  0  0  0  0
    0.3131    0.5229    0.3828 N   0  0  0  0  0  0  0  0  0  0  0  0
   -0.3865    2.6185   -0.5404 N   0  0  0  0  0  0  0  0  0  0  0  0
    1.7148    0.9306    0.2140 C   0  0  0  0  0  0  0  0  0  0  0  0
   -2.4040   -0.1672    0.5194 C   0  0  0  0  0  0  0  0  0  0  0  0
    2.1939    0.5216   -1.1795 C   0  0  0  0  0  0  0  0  0  0  0  0
    2.5560    0.2963    1.3221 C   0  0  0  0  0  0  0  0  0  0  0  0
    2.3482   -0.9914   -1.3307 C   0  0  0  0  0  0  0  0  0  0  0  0
    2.7087   -1.2155    1.1565 C   0  0  0  0  0  0  0  0  0  0  0  0
    3.2255   -1.5814   -0.2312 C   0  0  0  0  0  0  0  0  0  0  0  0
   -2.2320   -1.2620   -0.5429 C   0  0  0  0  0  0  0  0  0  0  0  0
   -3.9075   -0.3906    0.3033 C   0  0  0  0  0  0  0  0  0  0  0  0
   -0.5932    1.3679    0.0062 C   0  0  0  0  0  0  0  0  0  0  0  0
  1 12  1  0
  1 13  1  0
  2  6  1  0
  2 14  1  0
  3  5  1  0
  3 14  2  0
  4 14  1  0
  5  7  1  0
  5  8  1  0
  6 12  1  0
  6 13  1  0
  7  9  1  0
  8 10  1  0
  9 11  1  0
 10 11  1  0
M  END
>  <PUBCHEM_COMPOUND_CID>  (1) 
34879

>  <PUBCHEM_CONFORMER_RMSD>  (1) 
0.6

>  <PUBCHEM_CONFORMER_DIVERSEORDER>  (1) 
1
7
52
64
12
19
60
54
55
20
43
45
47
17
8
28
63
57
13
58
68
50
22
38
29
46
30
40
32
5
33
66
56
27
18
42
61
9
41
34
31
26
67
62
24
59
39
49
15
6
65
14
44
51
35
10
48
21
25
53
4
11
36
37
2
23
3
16

>  <PUBCHEM_MMFF94_PARTIAL_CHARGES>  (1) 
13
1 -0.78
12 0.21
13 0.21
14 0.55
2 -0.7
3 -0.7
31 0.36
32 0.4
33 0.4
34 0.4
4 -0.85
5 0.25
6 0.25

>  <PUBCHEM_EFFECTIVE_ROTOR_COUNT>  (1) 
5

>  <PUBCHEM_PHARMACOPHORE_FEATURES>  (1) 
7
1 1 cation
1 1 donor
1 2 donor
1 4 donor
4 1 6 12 13 rings
4 2 3 4 14 cation
6 5 7 8 9 10 11 rings

>  <PUBCHEM_HEAVY_ATOM_COUNT>  (1) 
14

>  <PUBCHEM_ATOM_DEF_STEREO_COUNT>  (1) 
0

>  <PUBCHEM_ATOM_UDEF_STEREO_COUNT>  (1) 
0

>  <PUBCHEM_BOND_DEF_STEREO_COUNT>  (1) 
0

>  <PUBCHEM_BOND_UDEF_STEREO_COUNT>  (1) 
0

>  <PUBCHEM_ISOTOPIC_ATOM_COUNT>  (1) 
0

>  <PUBCHEM_COMPONENT_COUNT>  (1) 
1

>  <PUBCHEM_CACTVS_TAUTO_COUNT>  (1) 
3

>  <PUBCHEM_CONFORMER_ID>  (1) 
0000883F00000001

>  <PUBCHEM_MMFF94_ENERGY>  (1) 
31.0383

>  <PUBCHEM_FEATURE_SELFOVERLAP>  (1) 
35.578

>  <PUBCHEM_SHAPE_FINGERPRINT>  (1) 
10618630 7 18409728452177909027
11471102 22 16414907535961561078
11715629 250 11674880021733094243
12202030 40 17988362555409981908
12500047 106 17832697977179787524
12553582 1 18337397127295286183
13296908 3 18410008840754649665
14252887 29 18341618169334554571
18186145 218 11458413627217833103
19107657 9 9655584036432387947
20281407 28 18342179964020868217
20361792 2 18334012813256511845
20442098 301 17846215609075279343
20645477 70 18049156963330098287
20653085 51 11747210234662292437
20671657 53 16515957095381515518
20767249 442 9727632795611662307
20871998 22 18411699906670540225
2255824 54 17975698612457477909
230 275 8862950450316999140
232386 152 18336825299649810282
23557571 272 18410005507950160160
251288 83 17846205717739203178
449060 23 18411981360230280891
549884 4 12252175268880870670
568465 68 17059767802769872830
6338986 31 18334569144459588601
7364860 26 18055076724800985529
8030462 33 17386014935712689568
81228 2 18335420110889306305
94968 8 18335708298683167899

>  <PUBCHEM_SHAPE_MULTIPOLES>  (1) 
268.19
6.47
2.01
1.16
3.66
0.54
0
-3.6
-0.46
0.27
0.33
-1.04
-0.12
-0.06

>  <PUBCHEM_SHAPE_SELFOVERLAP>  (1) 
537.792

>  <PUBCHEM_SHAPE_VOLUME>  (1) 
154.6

>  <PUBCHEM_COORDINATE_TYPE>  (1) 
2
5
10

$$$$
