34872
     RDKit          3D

 15 15  0  0  1  0  0  0  0  0999 V2000
   -4.6365    0.1322    0.8820 O   0  0  0  0  0  0  0  0  0  0  0  0
   -3.1744   -1.6008    0.7728 O   0  0  0  0  0  0  0  0  0  0  0  0
   -1.4378    0.0240   -0.9420 C   0  0  0  0  0  0  0  0  0  0  0  0
   -0.6880    0.4633    0.3365 C   0  0  0  0  0  0  0  0  0  0  0  0
    0.8065    0.2615    0.2644 C   0  0  0  0  0  0  0  0  0  0  0  0
   -2.9532    0.2573   -0.7897 C   0  0  0  0  0  0  0  0  0  0  0  0
   -0.9291    0.7900   -2.1697 C   0  0  0  0  0  0  0  0  0  0  0  0
    1.6666    1.3417    0.3922 C   0  0  0  0  0  0  0  0  0  0  0  0
    1.2918   -1.0228    0.0668 C   0  0  0  0  0  0  0  0  0  0  0  0
    2.6691   -1.2312   -0.0045 C   0  0  0  0  0  0  0  0  0  0  0  0
    3.0439    1.1332    0.3207 C   0  0  0  0  0  0  0  0  0  0  0  0
    3.5452   -0.1531    0.1223 C   0  0  0  0  0  0  0  0  0  0  0  0
   -3.5628   -0.5170    0.3600 C   0  0  0  0  0  0  0  0  0  0  0  0
    1.1531    2.7281    0.6046 C   0  0  0  0  0  0  0  0  0  0  0  0
    3.2057   -2.6065   -0.2164 C   0  0  0  0  0  0  0  0  0  0  0  0
  1 13  1  0
  2 13  2  0
  3  4  1  0
  3  6  1  0
  3  7  1  0
  4  5  1  0
  5  8  2  0
  5  9  1  0
  6 13  1  0
  8 11  1  0
  8 14  1  0
  9 10  2  0
 10 12  1  0
 10 15  1  0
 11 12  2  0
M  END
>  <PUBCHEM_COMPOUND_CID>  (1) 
34872

>  <PUBCHEM_CONFORMER_RMSD>  (1) 
0.6

>  <PUBCHEM_CONFORMER_DIVERSEORDER>  (1) 
5
53
55
1
30
24
11
54
7
3
56
38
19
51
42
45
57
23
37
2
33
52
58
9
50
32
6
44
14
47
35
20
36
41
16
46
25
27
26
48
13
43
28
4
39
15
22
31
12
18
17
21
40
10
8
29
49
34

>  <PUBCHEM_MMFF94_PARTIAL_CHARGES>  (1) 
17
1 -0.65
10 -0.14
11 -0.15
12 -0.15
13 0.66
14 0.14
15 0.14
2 -0.57
24 0.15
25 0.15
26 0.15
33 0.5
4 0.14
5 -0.14
6 0.06
8 -0.14
9 -0.15

>  <PUBCHEM_EFFECTIVE_ROTOR_COUNT>  (1) 
4

>  <PUBCHEM_PHARMACOPHORE_FEATURES>  (1) 
5
1 1 acceptor
1 2 acceptor
1 7 hydrophobe
3 1 2 13 anion
6 5 8 9 10 11 12 rings

>  <PUBCHEM_HEAVY_ATOM_COUNT>  (1) 
15

>  <PUBCHEM_ATOM_DEF_STEREO_COUNT>  (1) 
0

>  <PUBCHEM_ATOM_UDEF_STEREO_COUNT>  (1) 
1

>  <PUBCHEM_BOND_DEF_STEREO_COUNT>  (1) 
0

>  <PUBCHEM_BOND_UDEF_STEREO_COUNT>  (1) 
0

>  <PUBCHEM_ISOTOPIC_ATOM_COUNT>  (1) 
0

>  <PUBCHEM_COMPONENT_COUNT>  (1) 
1

>  <PUBCHEM_CACTVS_TAUTO_COUNT>  (1) 
1

>  <PUBCHEM_CONFORMER_ID>  (1) 
0000883800000005

>  <PUBCHEM_MMFF94_ENERGY>  (1) 
33.2905

>  <PUBCHEM_FEATURE_SELFOVERLAP>  (1) 
25.43

>  <PUBCHEM_SHAPE_FINGERPRINT>  (1) 
11471102 20 18341325669192644868
13533116 47 18341332292850152787
14178342 30 17771319127717636586
14252887 29 18040441018264910881
15219456 202 18333723624281095789
15375462 189 17846491547865278808
15422964 175 18268990882598302886
15501101 241 18261392290502739261
16945 1 18199167629352899612
17834074 16 18260829284836120723
17844478 74 18114455708387555069
19422 9 17631445825341679727
19765921 60 17055828514279044136
20339313 130 18201721721754612738
20645477 70 18268975545006280359
20871998 22 18129383692343846366
21041028 32 18200312100455795648
21730867 7 18336262430973499168
2255824 54 18199464540394768176
22802520 49 18044356267539669284
23402539 116 16009020675263351574
23557571 272 17458340823472762084
23598291 2 17631441444343701852
2748010 2 18197478650691167620
276578 36 15267074643797487999
31174 14 18409443717268318780
458136 41 18193001640990107188
6049 1 18187355519958839165
77492 1 17203319039779623789
81228 2 17478590336138166912
8272917 22 18059866030211220679

>  <PUBCHEM_SHAPE_MULTIPOLES>  (1) 
296.95
7.03
2.2
1.17
5.06
0.11
0.65
-2.62
-1.49
-2.19
-0.34
0.89
0.22
0.75

>  <PUBCHEM_SHAPE_SELFOVERLAP>  (1) 
603.834

>  <PUBCHEM_SHAPE_VOLUME>  (1) 
174.3

>  <PUBCHEM_COORDINATE_TYPE>  (1) 
2
5
10

$$$$
