34880
     RDKit          3D

 17 17  0  0  0  0  0  0  0  0999 V2000
   -3.1568    0.0615   -1.3734 S   0  0  0  0  0  0  0  0  0  0  0  0
    2.3910    0.8674    0.3287 O   0  0  0  0  0  0  0  0  0  0  0  0
    1.2162   -1.4362   -0.3211 O   0  0  0  0  0  0  0  0  0  0  0  0
    1.4445    2.3050   -1.2036 O   0  0  0  0  0  0  0  0  0  0  0  0
   -0.6683   -1.3593    1.0149 O   0  0  0  0  0  0  0  0  0  0  0  0
    0.1283    0.5948   -0.1324 C   0  0  0  0  0  0  0  0  0  0  0  0
   -1.0282    1.2772   -0.2385 C   0  0  0  0  0  0  0  0  0  0  0  0
   -2.3259    0.7138   -0.0366 C   0  0  0  0  0  0  0  0  0  0  0  0
    1.3728    1.3659   -0.4244 C   0  0  0  0  0  0  0  0  0  0  0  0
    0.1519   -0.8357    0.2762 C   0  0  0  0  0  0  0  0  0  0  0  0
   -3.0297    0.6193    1.1312 C   0  0  0  0  0  0  0  0  0  0  0  0
    3.6538    1.5232    0.1742 C   0  0  0  0  0  0  0  0  0  0  0  0
    1.3716   -2.8307   -0.0397 C   0  0  0  0  0  0  0  0  0  0  0  0
   -4.2927   -0.0083    0.9298 C   0  0  0  0  0  0  0  0  0  0  0  0
    4.6708    0.8531    1.0734 C   0  0  0  0  0  0  0  0  0  0  0  0
    2.5910   -3.3486   -0.7721 C   0  0  0  0  0  0  0  0  0  0  0  0
   -4.4905   -0.3623   -0.3867 C   0  0  0  0  0  0  0  0  0  0  0  0
  1  8  1  0
  1 17  1  0
  2  9  1  0
  2 12  1  0
  3 10  1  0
  3 13  1  0
  4  9  2  0
  5 10  2  0
  6  7  2  3
  6  9  1  0
  6 10  1  0
  7  8  1  0
  8 11  2  0
 11 14  1  0
 12 15  1  0
 13 16  1  0
 14 17  2  0
M  END
>  <PUBCHEM_COMPOUND_CID>  (1) 
34880

>  <PUBCHEM_CONFORMER_RMSD>  (1) 
0.8

>  <PUBCHEM_CONFORMER_DIVERSEORDER>  (1) 
1
24
43
68
37
75
74
6
29
52
38
83
27
42
11
69
30
41
72
25
13
56
7
21
28
62
49
47
3
44
19
58
71
10
22
18
36
86
4
34
85
64
63
23
50
54
66
77
45
57
48
51
12
20
32
70
65
79
2
73
84
39
8
67
16
40
80
31
14
76
15
53
9
59
5
33
61
46
81
60
35
26
55
82
78
17

>  <PUBCHEM_MMFF94_PARTIAL_CHARGES>  (1) 
19
1 -0.08
10 0.71
11 -0.15
12 0.28
13 0.28
14 -0.15
17 -0.11
18 0.15
2 -0.43
23 0.15
24 0.15
3 -0.43
31 0.15
4 -0.57
5 -0.57
6 0.03
7 -0.11
8 -0.01
9 0.71

>  <PUBCHEM_EFFECTIVE_ROTOR_COUNT>  (1) 
7

>  <PUBCHEM_PHARMACOPHORE_FEATURES>  (1) 
4
1 4 acceptor
1 5 acceptor
1 6 anion
5 1 8 11 14 17 rings

>  <PUBCHEM_HEAVY_ATOM_COUNT>  (1) 
17

>  <PUBCHEM_ATOM_DEF_STEREO_COUNT>  (1) 
0

>  <PUBCHEM_ATOM_UDEF_STEREO_COUNT>  (1) 
0

>  <PUBCHEM_BOND_DEF_STEREO_COUNT>  (1) 
0

>  <PUBCHEM_BOND_UDEF_STEREO_COUNT>  (1) 
0

>  <PUBCHEM_ISOTOPIC_ATOM_COUNT>  (1) 
0

>  <PUBCHEM_COMPONENT_COUNT>  (1) 
1

>  <PUBCHEM_CACTVS_TAUTO_COUNT>  (1) 
1

>  <PUBCHEM_CONFORMER_ID>  (1) 
0000884000000001

>  <PUBCHEM_MMFF94_ENERGY>  (1) 
34.1395

>  <PUBCHEM_FEATURE_SELFOVERLAP>  (1) 
20.297

>  <PUBCHEM_SHAPE_FINGERPRINT>  (1) 
11132069 177 18335419122898576345
11680986 33 18336841830652216490
124424 183 16805594897872498761
12553582 1 17903641783097990435
12592029 89 18411699894096777530
12839892 36 18339070613852239666
13140716 1 18119250803060835864
13380535 76 18334858363172786811
15502722 9 18411419479549811814
15536298 74 18271248226818836047
16945 1 18335431174566324477
17862501 102 18340479070977620657
1813 80 17769391430194016655
200 152 18338789113733180157
204376 136 18338516472881795920
20603629 256 18200326411212999155
20645477 70 18337097974634177247
21041028 32 18054799381566729801
21054139 6 18127958914268835895
22182313 1 18115863001730072397
23402539 116 18338507633997505877
23419403 2 17899962855909000566
23557571 272 17313097536936352085
23598291 2 18059293137329426999
2748010 2 18044369426955272228
352729 6 18120386594308626232
42630746 31 18341895186066743774
458136 41 18119276032057305053
465052 167 17676209112456169056
474229 33 18337667645456860528
58734987 50 18339925905022938050
59755656 215 18409446951473729381
633830 44 18059022785975498316
7364860 26 18342460292194084838
81228 2 16970531232478863649
81539 233 18333729130634995006
9999458 23 15647327589211412256

>  <PUBCHEM_SHAPE_MULTIPOLES>  (1) 
330.22
7.99
2.78
1.13
1.48
2.72
-0.04
-1.37
1.44
-3.91
-0.65
0.48
-0.13
0.36

>  <PUBCHEM_SHAPE_SELFOVERLAP>  (1) 
661.41

>  <PUBCHEM_SHAPE_VOLUME>  (1) 
195.7

>  <PUBCHEM_COORDINATE_TYPE>  (1) 
2
5
10

$$$$
