34897
     RDKit          3D

 16 16  0  0  0  0  0  0  0  0999 V2000
    3.2197    0.4549    1.6269 Cl  0  0  0  0  0  0  0  0  0  0  0  0
    3.3227    0.0976   -1.2864 Cl  0  0  0  0  0  0  0  0  0  0  0  0
    1.6717   -2.8045   -0.9235 Cl  0  0  0  0  0  0  0  0  0  0  0  0
   -2.5385   -1.6322    1.6764 Cl  0  0  0  0  0  0  0  0  0  0  0  0
   -4.0334    0.1048   -0.0713 Cl  0  0  0  0  0  0  0  0  0  0  0  0
   -2.4235   -1.9935   -1.2256 Cl  0  0  0  0  0  0  0  0  0  0  0  0
   -0.0509   -0.5142    0.1500 N   0  0  0  0  0  0  0  0  0  0  0  0
    0.9492    1.6548   -0.0811 N   0  0  0  0  0  0  0  0  0  0  0  0
   -1.4384    1.4224   -0.1368 N   0  0  0  0  0  0  0  0  0  0  0  0
   -0.4325    3.5287   -0.3604 N   0  0  0  0  0  0  0  0  0  0  0  0
    2.3509   -0.2882    0.2069 C   0  0  0  0  0  0  0  0  0  0  0  0
    0.9969    0.3231    0.0841 C   0  0  0  0  0  0  0  0  0  0  0  0
    2.3942   -1.8380    0.3987 C   0  0  0  0  0  0  0  0  0  0  0  0
   -1.2362    0.1057    0.0319 C   0  0  0  0  0  0  0  0  0  0  0  0
   -0.3009    2.1342   -0.1842 C   0  0  0  0  0  0  0  0  0  0  0  0
   -2.4511   -0.7555    0.0944 C   0  0  0  0  0  0  0  0  0  0  0  0
  1 11  1  0
  2 11  1  0
  3 13  1  0
  4 16  1  0
  5 16  1  0
  6 16  1  0
  7 12  2  0
  7 14  1  0
  8 12  1  0
  8 15  2  0
  9 14  2  0
  9 15  1  0
 10 15  1  0
 11 12  1  0
 11 13  1  0
 14 16  1  0
M  END
>  <PUBCHEM_COMPOUND_CID>  (1) 
34897

>  <PUBCHEM_CONFORMER_RMSD>  (1) 
0.6

>  <PUBCHEM_CONFORMER_DIVERSEORDER>  (1) 
1
25
4
19
14
16
21
26
20
27
24
2
22
9
28
7
11
5
8
13
18
32
12
3
17
23
15
30
31
10
6
29

>  <PUBCHEM_MMFF94_PARTIAL_CHARGES>  (1) 
18
1 -0.29
10 -0.9
11 0.72
12 0.48
13 0.29
14 0.48
15 0.72
16 1.01
19 0.4
2 -0.29
20 0.4
3 -0.29
4 -0.29
5 -0.29
6 -0.29
7 -0.62
8 -0.62
9 -0.62

>  <PUBCHEM_EFFECTIVE_ROTOR_COUNT>  (1) 
3

>  <PUBCHEM_PHARMACOPHORE_FEATURES>  (1) 
3
1 10 donor
4 8 9 10 15 cation
6 7 8 9 12 14 15 rings

>  <PUBCHEM_HEAVY_ATOM_COUNT>  (1) 
16

>  <PUBCHEM_ATOM_DEF_STEREO_COUNT>  (1) 
0

>  <PUBCHEM_ATOM_UDEF_STEREO_COUNT>  (1) 
0

>  <PUBCHEM_BOND_DEF_STEREO_COUNT>  (1) 
0

>  <PUBCHEM_BOND_UDEF_STEREO_COUNT>  (1) 
0

>  <PUBCHEM_ISOTOPIC_ATOM_COUNT>  (1) 
0

>  <PUBCHEM_COMPONENT_COUNT>  (1) 
1

>  <PUBCHEM_CACTVS_TAUTO_COUNT>  (1) 
4

>  <PUBCHEM_CONFORMER_ID>  (1) 
0000885100000001

>  <PUBCHEM_MMFF94_ENERGY>  (1) 
35.1673

>  <PUBCHEM_FEATURE_SELFOVERLAP>  (1) 
15.223

>  <PUBCHEM_SHAPE_FINGERPRINT>  (1) 
10130415 120 18113893883947628369
11132069 177 18272363213445953210
116883 192 18194966236229634031
12553582 1 18409731793804981135
12596599 1 17489598899637011230
12759256 9 18121497122648848777
12932764 1 18131071519622137602
13140716 1 18337950224393472217
14022347 108 18115037290119914635
14115302 16 17240765077406844171
14178342 30 18271795886900083187
14289901 80 15267340768587605567
14648413 74 18117559750446656529
15375358 24 18409439302221247627
16945 1 18411980281998239117
20511035 2 17908975514056527254
20600515 1 17749657571723824400
20645476 183 16887545648402645854
20645477 70 17976254961473485119
20711985 365 18121218671176224711
20871998 184 18269549446951966388
20871998 22 18410577266691172667
21501502 16 18194972829152132718
21524375 3 17473257678673215797
2255824 54 18050005785794713645
22802520 49 18125998256970266008
2334 1 18050004690419992309
23388829 49 18269263728552783452
23402539 116 18340769355654617420
23419403 2 13709277773756239787
23557571 272 18337386042179990976
23558518 356 17975413512327474105
23559900 14 18265607689851577442
23598291 2 18057335096241070951
2748010 2 18338228400729888604
34934 24 18410003343133174795
352729 6 17689714156214336037
576247 118 17901710108291748715
5902787 121 17968372476086313907
6992083 37 18272660038973253483
7364860 26 18123193669185939765
81228 2 18263364685598638913

>  <PUBCHEM_SHAPE_MULTIPOLES>  (1) 
320.57
5.74
3.04
1.3
1.18
1.03
-0.34
-1.72
-0.45
-0.03
0.79
-0.31
-0.51
0.42

>  <PUBCHEM_SHAPE_SELFOVERLAP>  (1) 
599.404

>  <PUBCHEM_SHAPE_VOLUME>  (1) 
199.1

>  <PUBCHEM_COORDINATE_TYPE>  (1) 
2
5
10

$$$$
