34896
     RDKit          3D

 14 14  0  0  0  0  0  0  0  0999 V2000
    2.5285   -2.3263    1.0664 Cl  0  0  0  0  0  0  0  0  0  0  0  0
   -1.9431   -2.1103    1.1493 Cl  0  0  0  0  0  0  0  0  0  0  0  0
   -3.5941    0.1625    0.5047 Cl  0  0  0  0  0  0  0  0  0  0  0  0
   -2.5119   -1.4350   -1.6410 Cl  0  0  0  0  0  0  0  0  0  0  0  0
    0.2497   -0.5856   -0.4739 N   0  0  0  0  0  0  0  0  0  0  0  0
    1.3988    1.5035   -0.2033 N   0  0  0  0  0  0  0  0  0  0  0  0
   -0.9528    1.3599    0.2516 N   0  0  0  0  0  0  0  0  0  0  0  0
    0.1968    3.3876    0.5067 N   0  0  0  0  0  0  0  0  0  0  0  0
    2.6147   -0.4488   -0.9335 C   0  0  0  0  0  0  0  0  0  0  0  0
    1.3400    0.1975   -0.5099 C   0  0  0  0  0  0  0  0  0  0  0  0
   -0.8595    0.0632   -0.0845 C   0  0  0  0  0  0  0  0  0  0  0  0
    3.4330   -1.0479    0.2176 C   0  0  0  0  0  0  0  0  0  0  0  0
    0.2151    2.0171    0.1686 C   0  0  0  0  0  0  0  0  0  0  0  0
   -2.1151   -0.7374   -0.0188 C   0  0  0  0  0  0  0  0  0  0  0  0
  1 12  1  0
  2 14  1  0
  3 14  1  0
  4 14  1  0
  5 10  2  0
  5 11  1  0
  6 10  1  0
  6 13  2  0
  7 11  2  0
  7 13  1  0
  8 13  1  0
  9 10  1  0
  9 12  1  0
 11 14  1  0
M  END
>  <PUBCHEM_COMPOUND_CID>  (1) 
34896

>  <PUBCHEM_CONFORMER_RMSD>  (1) 
0.6

>  <PUBCHEM_CONFORMER_DIVERSEORDER>  (1) 
1
9
4
12
5
10
3
11
2
6
8
7

>  <PUBCHEM_MMFF94_PARTIAL_CHARGES>  (1) 
16
1 -0.29
10 0.48
11 0.48
12 0.29
13 0.72
14 1.01
19 0.4
2 -0.29
20 0.4
3 -0.29
4 -0.29
5 -0.62
6 -0.62
7 -0.62
8 -0.9
9 0.14

>  <PUBCHEM_EFFECTIVE_ROTOR_COUNT>  (1) 
3

>  <PUBCHEM_PHARMACOPHORE_FEATURES>  (1) 
3
1 8 donor
4 6 7 8 13 cation
6 5 6 7 10 11 13 rings

>  <PUBCHEM_HEAVY_ATOM_COUNT>  (1) 
14

>  <PUBCHEM_ATOM_DEF_STEREO_COUNT>  (1) 
0

>  <PUBCHEM_ATOM_UDEF_STEREO_COUNT>  (1) 
0

>  <PUBCHEM_BOND_DEF_STEREO_COUNT>  (1) 
0

>  <PUBCHEM_BOND_UDEF_STEREO_COUNT>  (1) 
0

>  <PUBCHEM_ISOTOPIC_ATOM_COUNT>  (1) 
0

>  <PUBCHEM_COMPONENT_COUNT>  (1) 
1

>  <PUBCHEM_CACTVS_TAUTO_COUNT>  (1) 
9

>  <PUBCHEM_CONFORMER_ID>  (1) 
0000885000000001

>  <PUBCHEM_MMFF94_ENERGY>  (1) 
26.3972

>  <PUBCHEM_FEATURE_SELFOVERLAP>  (1) 
15.223

>  <PUBCHEM_SHAPE_FINGERPRINT>  (1) 
10130415 120 18409455777726221027
12202030 40 17604991609979773547
12553582 1 18410855438875365174
14022347 108 18124065384195482239
14115302 16 17895210899381136815
15076042 46 18049442548105097538
15375462 189 18333736805541339882
15852999 172 17321233024980268639
16945 1 17967811669247745934
17841504 4 18266467692201006155
20645476 183 17464009798040544342
20645477 70 18054788653102707319
20711985 344 18053688896328810212
20871998 184 18055914290636112790
21501502 16 18198627825062509149
21524375 3 16978433968019644272
22112679 90 18202282510980794757
23388829 49 18412256225426454766
23402539 116 18059001766858771189
23419403 2 16167416333224493496
23500284 5 18116997684929470258
23552423 10 18125441066726361301
23598294 1 18124319298620151656
2748010 2 18343022219966499388
3312278 4 18260841396823269450
34934 24 18413390942711193492
53812654 25 18270961245846915807
6338986 31 18268973367405139462
7364860 26 18055918937675000576
74978 22 18339924943256264383
81228 2 18197229039765641512

>  <PUBCHEM_SHAPE_MULTIPOLES>  (1) 
275.67
5.08
2.91
1.17
0.29
1.73
-0.25
-2.99
0.12
0.55
1.04
-0.41
-0.63
-0.6

>  <PUBCHEM_SHAPE_SELFOVERLAP>  (1) 
522.568

>  <PUBCHEM_SHAPE_VOLUME>  (1) 
167.6

>  <PUBCHEM_COORDINATE_TYPE>  (1) 
2
5
10

$$$$
