34892
     RDKit          3D

 16 16  0  0  0  0  0  0  0  0999 V2000
    2.6927   -2.2335    0.9414 Br  0  0  0  0  0  0  0  0  0  0  0  0
    3.2400   -0.7063   -1.8754 Br  0  0  0  0  0  0  0  0  0  0  0  0
    3.9476    0.6981    0.8997 Br  0  0  0  0  0  0  0  0  0  0  0  0
   -1.5845   -3.0118   -0.9430 Br  0  0  0  0  0  0  0  0  0  0  0  0
   -2.6355   -1.7778    1.8747 Br  0  0  0  0  0  0  0  0  0  0  0  0
   -3.7925   -0.7108   -0.8997 Br  0  0  0  0  0  0  0  0  0  0  0  0
    0.2405   -0.9021    0.0002 N   0  0  0  0  0  0  0  0  0  0  0  0
   -1.3121    0.9274   -0.0006 N   0  0  0  0  0  0  0  0  0  0  0  0
    1.0486    1.3573    0.0023 N   0  0  0  0  0  0  0  0  0  0  0  0
   -0.4928    3.1244    0.0011 N   0  0  0  0  0  0  0  0  0  0  0  0
    1.2124    0.0246    0.0018 C   0  0  0  0  0  0  0  0  0  0  0  0
   -0.9956   -0.3776   -0.0010 C   0  0  0  0  0  0  0  0  0  0  0  0
   -0.2398    1.7355    0.0009 C   0  0  0  0  0  0  0  0  0  0  0  0
    2.6160   -0.4774    0.0029 C   0  0  0  0  0  0  0  0  0  0  0  0
   -2.1320   -1.3420   -0.0032 C   0  0  0  0  0  0  0  0  0  0  0  0
   -1.8131    3.6722   -0.0021 C   0  0  0  0  0  0  0  0  0  0  0  0
  1 14  1  0
  2 14  1  0
  3 14  1  0
  4 15  1  0
  5 15  1  0
  6 15  1  0
  7 11  2  0
  7 12  1  0
  8 12  2  0
  8 13  1  0
  9 11  1  0
  9 13  2  0
 10 13  1  0
 10 16  1  0
 11 14  1  0
 12 15  1  0
M  END
>  <PUBCHEM_COMPOUND_CID>  (1) 
34892

>  <PUBCHEM_CONFORMER_RMSD>  (1) 
0.6

>  <PUBCHEM_CONFORMER_DIVERSEORDER>  (1) 
1
3
4
2

>  <PUBCHEM_MMFF94_PARTIAL_CHARGES>  (1) 
17
1 -0.23
10 -0.87
11 0.48
12 0.48
13 0.72
14 0.83
15 0.83
16 0.37
17 0.4
2 -0.23
3 -0.23
4 -0.23
5 -0.23
6 -0.23
7 -0.62
8 -0.62
9 -0.62

>  <PUBCHEM_EFFECTIVE_ROTOR_COUNT>  (1) 
3

>  <PUBCHEM_PHARMACOPHORE_FEATURES>  (1) 
11
1 1 hydrophobe
1 10 donor
1 2 hydrophobe
1 3 hydrophobe
1 4 hydrophobe
1 5 hydrophobe
1 6 hydrophobe
4 1 2 3 14 hydrophobe
4 4 5 6 15 hydrophobe
4 8 9 10 13 cation
6 7 8 9 11 12 13 rings

>  <PUBCHEM_HEAVY_ATOM_COUNT>  (1) 
16

>  <PUBCHEM_ATOM_DEF_STEREO_COUNT>  (1) 
0

>  <PUBCHEM_ATOM_UDEF_STEREO_COUNT>  (1) 
0

>  <PUBCHEM_BOND_DEF_STEREO_COUNT>  (1) 
0

>  <PUBCHEM_BOND_UDEF_STEREO_COUNT>  (1) 
0

>  <PUBCHEM_ISOTOPIC_ATOM_COUNT>  (1) 
0

>  <PUBCHEM_COMPONENT_COUNT>  (1) 
1

>  <PUBCHEM_CACTVS_TAUTO_COUNT>  (1) 
3

>  <PUBCHEM_CONFORMER_ID>  (1) 
0000884C00000001

>  <PUBCHEM_MMFF94_ENERGY>  (1) 
38.7996

>  <PUBCHEM_FEATURE_SELFOVERLAP>  (1) 
57.728

>  <PUBCHEM_SHAPE_FINGERPRINT>  (1) 
104564 63 18338527317726719079
11132069 177 18129373977132980746
116883 192 18343021086036987765
12553582 1 18337963397000354222
13140716 1 18192712469173279752
13380535 76 17689994531636733657
14022347 108 18337125526147981543
14115302 16 17458338658619450770
14178342 30 18188485775352591728
14252887 29 18129673018273075042
16752209 62 18267584611183786710
16945 1 18334303054118938384
20510252 161 18200586999652940456
20645476 183 17828787044268268324
20645477 70 17621594347434608823
20711985 344 18267597826708069950
21041028 32 18191037891864023169
21501502 16 18265044726897190394
21524375 3 17543633032699910377
2334 1 17905327677677207060
23402539 116 18200857552933791495
23557571 272 18272087180572718620
23558518 356 18118119160782620978
23559900 14 18338784629792357482
23598288 3 18263365789563593386
23598291 2 17912382101616564895
23598294 1 18338526218172906506
2748010 2 18339923821947929845
34934 24 18339348777340404518
352729 6 17979072682650851329
4175511 71 18124056738653058019
6049 1 17916877824563727020
6992083 37 18129111189385148387
7364860 26 17693374855640373197
81228 2 18335703797467920377

>  <PUBCHEM_SHAPE_MULTIPOLES>  (1) 
345
6.22
3.75
1.45
2.07
3.21
0
-2.37
-0.06
-2.08
0.06
0.18
-0.97
0.24

>  <PUBCHEM_SHAPE_SELFOVERLAP>  (1) 
612.763

>  <PUBCHEM_SHAPE_VOLUME>  (1) 
233.6

>  <PUBCHEM_COORDINATE_TYPE>  (1) 
2
5
10

$$$$
