34893
     RDKit          3D

 17 17  0  0  0  0  0  0  0  0999 V2000
   -3.7716   -0.2494   -0.9479 Br  0  0  0  0  0  0  0  0  0  0  0  0
   -3.2574    1.2823    1.8727 Br  0  0  0  0  0  0  0  0  0  0  0  0
   -2.9317    2.8270   -0.8992 Br  0  0  0  0  0  0  0  0  0  0  0  0
   -0.9099   -3.5220    0.9367 Br  0  0  0  0  0  0  0  0  0  0  0  0
    0.6863   -3.2032   -1.8769 Br  0  0  0  0  0  0  0  0  0  0  0  0
    2.2501   -3.0927    0.9009 Br  0  0  0  0  0  0  0  0  0  0  0  0
    2.0524    1.9647    0.0088 N   0  0  0  0  0  0  0  0  0  0  0  0
    1.3280   -0.2655    0.0058 N   0  0  0  0  0  0  0  0  0  0  0  0
   -0.2535    1.5391    0.0027 N   0  0  0  0  0  0  0  0  0  0  0  0
   -1.0256   -0.7329   -0.0009 N   0  0  0  0  0  0  0  0  0  0  0  0
    1.0160    1.0563    0.0057 C   0  0  0  0  0  0  0  0  0  0  0  0
    3.4567    1.5743    0.0122 C   0  0  0  0  0  0  0  0  0  0  0  0
    0.2687   -1.0907    0.0024 C   0  0  0  0  0  0  0  0  0  0  0  0
   -1.2104    0.5971   -0.0007 C   0  0  0  0  0  0  0  0  0  0  0  0
   -2.6219    1.0767   -0.0045 C   0  0  0  0  0  0  0  0  0  0  0  0
    0.5590   -2.5527    0.0020 C   0  0  0  0  0  0  0  0  0  0  0  0
    4.3650    2.7918   -0.0198 C   0  0  0  0  0  0  0  0  0  0  0  0
  1 15  1  0
  2 15  1  0
  3 15  1  0
  4 16  1  0
  5 16  1  0
  6 16  1  0
  7 11  1  0
  7 12  1  0
  8 11  2  0
  8 13  1  0
  9 11  1  0
  9 14  2  0
 10 13  2  0
 10 14  1  0
 12 17  1  0
 13 16  1  0
 14 15  1  0
M  END
>  <PUBCHEM_COMPOUND_CID>  (1) 
34893

>  <PUBCHEM_CONFORMER_RMSD>  (1) 
0.6

>  <PUBCHEM_CONFORMER_DIVERSEORDER>  (1) 
1
12
9
4
11
5
7
3
10
6
8
2

>  <PUBCHEM_MMFF94_PARTIAL_CHARGES>  (1) 
17
1 -0.23
10 -0.62
11 0.72
12 0.37
13 0.48
14 0.48
15 0.83
16 0.83
2 -0.23
20 0.4
3 -0.23
4 -0.23
5 -0.23
6 -0.23
7 -0.87
8 -0.62
9 -0.62

>  <PUBCHEM_EFFECTIVE_ROTOR_COUNT>  (1) 
4

>  <PUBCHEM_PHARMACOPHORE_FEATURES>  (1) 
11
1 1 hydrophobe
1 2 hydrophobe
1 3 hydrophobe
1 4 hydrophobe
1 5 hydrophobe
1 6 hydrophobe
1 7 donor
4 1 2 3 15 hydrophobe
4 4 5 6 16 hydrophobe
4 7 8 9 11 cation
6 8 9 10 11 13 14 rings

>  <PUBCHEM_HEAVY_ATOM_COUNT>  (1) 
17

>  <PUBCHEM_ATOM_DEF_STEREO_COUNT>  (1) 
0

>  <PUBCHEM_ATOM_UDEF_STEREO_COUNT>  (1) 
0

>  <PUBCHEM_BOND_DEF_STEREO_COUNT>  (1) 
0

>  <PUBCHEM_BOND_UDEF_STEREO_COUNT>  (1) 
0

>  <PUBCHEM_ISOTOPIC_ATOM_COUNT>  (1) 
0

>  <PUBCHEM_COMPONENT_COUNT>  (1) 
1

>  <PUBCHEM_CACTVS_TAUTO_COUNT>  (1) 
3

>  <PUBCHEM_CONFORMER_ID>  (1) 
0000884D00000001

>  <PUBCHEM_MMFF94_ENERGY>  (1) 
35.9216

>  <PUBCHEM_FEATURE_SELFOVERLAP>  (1) 
57.728

>  <PUBCHEM_SHAPE_FINGERPRINT>  (1) 
11357001 24 17904198479530841482
12553582 1 17475241197897533079
12707595 3 17760944947857498243
12759256 9 18124312709897726155
12788726 201 17762890370590129010
13140716 1 18265621991844753739
14181834 199 18263923233072964286
14508225 48 17332514078600297844
15042514 8 18047191040217040370
16752209 62 17833253595518598050
16945 1 18260555553595540089
20510252 161 17835804470963504584
20600515 1 17105381965897265510
20645477 70 18268421331606909853
21524375 3 18341330097404251308
2255824 54 18195807371378581135
23366157 5 18042120964547200128
23402539 116 18054784259007680893
23419403 2 17462824507568675486
23526113 38 17917440881754447072
23557571 272 17403754727262768500
23598288 3 17464265198302559524
23598291 2 17986111799674412693
2748010 2 18195264401407318670
3071541 12 18194117413200619980
3091708 16 9264465712844232912
352729 6 18193560196906940188
4175511 71 17478908086144746353
7364860 26 18197214754588188636
81228 2 17619627325062669080

>  <PUBCHEM_SHAPE_MULTIPOLES>  (1) 
365.58
6.22
5.01
1.4
3.49
1.08
0
3.09
-0.19
-6.12
0.21
0.68
-0.97
0.1

>  <PUBCHEM_SHAPE_SELFOVERLAP>  (1) 
649.024

>  <PUBCHEM_SHAPE_VOLUME>  (1) 
246

>  <PUBCHEM_COORDINATE_TYPE>  (1) 
2
5
10

$$$$
