34908
     RDKit          3D

 16 16  0  0  0  0  0  0  0  0999 V2000
   -0.9157    2.8164   -0.6178 Cl  0  0  0  0  0  0  0  0  0  0  0  0
   -3.5714    1.7154   -0.8227 Cl  0  0  0  0  0  0  0  0  0  0  0  0
   -2.4060    2.0817    1.7916 Cl  0  0  0  0  0  0  0  0  0  0  0  0
   -0.2317    0.0989    0.7662 N   0  0  0  0  0  0  0  0  0  0  0  0
   -0.2340   -2.1961    0.0658 N   0  0  0  0  0  0  0  0  0  0  0  0
   -2.0165   -0.7356   -0.6032 N   0  0  0  0  0  0  0  0  0  0  0  0
   -1.9919   -2.9830   -1.2717 N   0  0  0  0  0  0  0  0  0  0  0  0
    2.8153   -1.1066    0.5956 C   0  0  0  0  0  0  0  0  0  0  0  0
    2.9374    0.3489    0.1338 C   0  0  0  0  0  0  0  0  0  0  0  0
    1.5642   -1.3639    1.4431 C   0  0  0  0  0  0  0  0  0  0  0  0
    4.2108    0.5648   -0.6850 C   0  0  0  0  0  0  0  0  0  0  0  0
    0.2698   -1.1368    0.7033 C   0  0  0  0  0  0  0  0  0  0  0  0
    4.3577    2.0160   -1.1138 C   0  0  0  0  0  0  0  0  0  0  0  0
   -1.3824    0.2265    0.0861 C   0  0  0  0  0  0  0  0  0  0  0  0
   -1.3847   -1.9199   -0.5689 C   0  0  0  0  0  0  0  0  0  0  0  0
   -2.0211    1.5734    0.0976 C   0  0  0  0  0  0  0  0  0  0  0  0
  1 16  1  0
  2 16  1  0
  3 16  1  0
  4 12  2  0
  4 14  1  0
  5 12  1  0
  5 15  2  0
  6 14  2  0
  6 15  1  0
  7 15  1  0
  8  9  1  0
  8 10  1  0
  9 11  1  0
 10 12  1  0
 11 13  1  0
 14 16  1  0
M  END
>  <PUBCHEM_COMPOUND_CID>  (1) 
34908

>  <PUBCHEM_CONFORMER_RMSD>  (1) 
0.6

>  <PUBCHEM_CONFORMER_DIVERSEORDER>  (1) 
1
75
84
94
23
34
32
102
96
80
98
97
5
8
87
64
100
49
91
83
60
99
3
92
88
53
61
89
6
4
17
28
103
85
86
26
38
90
13
77
62
81
95
2
41
101
39
10
20
46
30
93
15
44
48
50
52
59
42
55
24
16
9
25
7
68
43
36
21
66
47
70
31
54
27
19
79
33
69
40
14
11
67
22
76
72
35
57
29
63
12
45
74
82
65
58
51
71
18
78
73
56
37

>  <PUBCHEM_MMFF94_PARTIAL_CHARGES>  (1) 
14
1 -0.29
10 0.14
12 0.48
14 0.48
15 0.72
16 1.01
2 -0.29
28 0.4
29 0.4
3 -0.29
4 -0.62
5 -0.62
6 -0.62
7 -0.9

>  <PUBCHEM_EFFECTIVE_ROTOR_COUNT>  (1) 
5

>  <PUBCHEM_PHARMACOPHORE_FEATURES>  (1) 
5
1 13 hydrophobe
1 7 donor
4 5 6 7 15 cation
4 8 9 10 11 hydrophobe
6 4 5 6 12 14 15 rings

>  <PUBCHEM_HEAVY_ATOM_COUNT>  (1) 
16

>  <PUBCHEM_ATOM_DEF_STEREO_COUNT>  (1) 
0

>  <PUBCHEM_ATOM_UDEF_STEREO_COUNT>  (1) 
0

>  <PUBCHEM_BOND_DEF_STEREO_COUNT>  (1) 
0

>  <PUBCHEM_BOND_UDEF_STEREO_COUNT>  (1) 
0

>  <PUBCHEM_ISOTOPIC_ATOM_COUNT>  (1) 
0

>  <PUBCHEM_COMPONENT_COUNT>  (1) 
1

>  <PUBCHEM_CACTVS_TAUTO_COUNT>  (1) 
9

>  <PUBCHEM_CONFORMER_ID>  (1) 
0000885C00000001

>  <PUBCHEM_MMFF94_ENERGY>  (1) 
23.6747

>  <PUBCHEM_FEATURE_SELFOVERLAP>  (1) 
25.372

>  <PUBCHEM_SHAPE_FINGERPRINT>  (1) 
10498660 4 18333732407764010076
10871710 139 18116158937935762132
12173636 292 18130785594948636129
13583140 156 17243020046906108435
14026960 21 18044665204241819097
14123250 116 18340499940598531184
14648413 74 17112693688194251417
15342168 16 17240776094156012964
15775835 57 18334860476655450808
16945 1 17988627597952971331
17134986 127 18121499059742435430
18785283 64 17694809336110283843
20300324 65 18196657508984261244
20645476 183 18265886965193668043
20671657 1 18266739074331690330
21421566 26 17843402044756070270
21524375 3 18266454300287262138
21864079 5 17968101949651621068
22620623 9 17703500112281514615
23557571 272 17986652956763294850
2748010 2 17767086025262527755
3071541 250 17691402336175635975
44154327 71 18262798454195231844
458136 41 17770510742079423643
526903 126 18263645233210618520
7615 1 18261657243357479810
81228 2 18198319901524657403
9981440 41 18043808913208189768

>  <PUBCHEM_SHAPE_MULTIPOLES>  (1) 
314.96
6.56
3.35
1.36
6.39
0.45
-0.36
-4.65
1.64
-1.26
0.98
-0.41
-0.1
-1.83

>  <PUBCHEM_SHAPE_SELFOVERLAP>  (1) 
601.138

>  <PUBCHEM_SHAPE_VOLUME>  (1) 
190.4

>  <PUBCHEM_COORDINATE_TYPE>  (1) 
2
5
10

$$$$
