34902
     RDKit          3D

 16 16  0  0  0  0  0  0  0  0999 V2000
    1.9690   -2.4584   -1.4622 Cl  0  0  0  0  0  0  0  0  0  0  0  0
    1.9688   -2.4587    1.4622 Cl  0  0  0  0  0  0  0  0  0  0  0  0
   -2.9495   -1.4061    1.4623 Cl  0  0  0  0  0  0  0  0  0  0  0  0
   -2.9487   -1.4069   -1.4621 Cl  0  0  0  0  0  0  0  0  0  0  0  0
   -0.2644   -0.8767    0.0003 N   0  0  0  0  0  0  0  0  0  0  0  0
   -1.0028    1.4063    0.0000 N   0  0  0  0  0  0  0  0  0  0  0  0
    1.3436    0.9044    0.0000 N   0  0  0  0  0  0  0  0  0  0  0  0
    0.5917    3.1255   -0.0007 N   0  0  0  0  0  0  0  0  0  0  0  0
    2.0938   -1.3891    0.0001 C   0  0  0  0  0  0  0  0  0  0  0  0
   -2.6255   -0.3795   -0.0002 C   0  0  0  0  0  0  0  0  0  0  0  0
    0.9873   -0.3902    0.0001 C   0  0  0  0  0  0  0  0  0  0  0  0
   -1.2073    0.0792    0.0001 C   0  0  0  0  0  0  0  0  0  0  0  0
    0.2965    1.7450   -0.0002 C   0  0  0  0  0  0  0  0  0  0  0  0
    3.5411   -0.8405   -0.0001 C   0  0  0  0  0  0  0  0  0  0  0  0
   -3.7219    0.7131   -0.0003 C   0  0  0  0  0  0  0  0  0  0  0  0
    1.9283    3.6327    0.0007 C   0  0  0  0  0  0  0  0  0  0  0  0
  1  9  1  0
  2  9  1  0
  3 10  1  0
  4 10  1  0
  5 11  2  0
  5 12  1  0
  6 12  2  0
  6 13  1  0
  7 11  1  0
  7 13  2  0
  8 13  1  0
  8 16  1  0
  9 11  1  0
  9 14  1  0
 10 12  1  0
 10 15  1  0
M  END
>  <PUBCHEM_COMPOUND_CID>  (1) 
34902

>  <PUBCHEM_CONFORMER_RMSD>  (1) 
0.6

>  <PUBCHEM_CONFORMER_DIVERSEORDER>  (1) 
1
23
7
25
16
24
3
12
11
21
9
10
8
4
20
15
22
18
6
19
2
5
17
14
13

>  <PUBCHEM_MMFF94_PARTIAL_CHARGES>  (1) 
15
1 -0.29
10 0.72
11 0.48
12 0.48
13 0.72
16 0.37
2 -0.29
23 0.4
3 -0.29
4 -0.29
5 -0.62
6 -0.62
7 -0.62
8 -0.87
9 0.72

>  <PUBCHEM_EFFECTIVE_ROTOR_COUNT>  (1) 
3

>  <PUBCHEM_PHARMACOPHORE_FEATURES>  (1) 
3
1 8 donor
4 6 7 8 13 cation
6 5 6 7 11 12 13 rings

>  <PUBCHEM_HEAVY_ATOM_COUNT>  (1) 
16

>  <PUBCHEM_ATOM_DEF_STEREO_COUNT>  (1) 
0

>  <PUBCHEM_ATOM_UDEF_STEREO_COUNT>  (1) 
0

>  <PUBCHEM_BOND_DEF_STEREO_COUNT>  (1) 
0

>  <PUBCHEM_BOND_UDEF_STEREO_COUNT>  (1) 
0

>  <PUBCHEM_ISOTOPIC_ATOM_COUNT>  (1) 
0

>  <PUBCHEM_COMPONENT_COUNT>  (1) 
1

>  <PUBCHEM_CACTVS_TAUTO_COUNT>  (1) 
3

>  <PUBCHEM_CONFORMER_ID>  (1) 
0000885600000001

>  <PUBCHEM_MMFF94_ENERGY>  (1) 
38.754

>  <PUBCHEM_FEATURE_SELFOVERLAP>  (1) 
15.223

>  <PUBCHEM_SHAPE_FINGERPRINT>  (1) 
108231 29 18261123979928040122
12553582 1 18338230453766506019
12707595 3 18335710424755497339
12759256 9 18341333400054688958
12788726 201 17903922153977273690
13140716 1 18121501524863837400
13380535 76 17761203715067834376
13538477 17 17539413124494773562
14022347 108 18050025297820810539
14115302 16 17531824441221597167
14181834 199 18336537338950580396
14252887 29 18271535195048630162
14648413 74 18408886273874525073
14817 1 13154756500163612686
15309172 13 17617101742833253697
16945 1 18266459991102890309
19868273 325 18266465295419240420
20510252 161 17693090769450270848
20645476 183 17029657977570410180
20645477 70 18267859657153507695
20711985 344 17762069739309389678
20871998 184 17911232823801472343
20871998 22 18270127794368632926
21524375 3 17691687105191653160
2255824 54 18340203114980865047
23388829 49 18271799146621608804
23402539 116 18340478977010845910
23419403 2 17753854369131843988
23552423 10 18339918341870132645
23557571 272 18122628254311310718
23598291 2 18130510842043772981
23598294 1 17904766578838834002
2748010 2 18268705009284690516
305870 269 18122906696561471401
3071541 12 18338800133865231796
3091708 16 9575165725859345808
34934 24 18338509725340182019
352729 6 17184751836061570212
4175511 71 18269291070641799793
5902787 121 18260830388526749547
6992083 37 17987526922531203371
7364860 26 18341051929357348629
81228 2 17979921505685465008

>  <PUBCHEM_SHAPE_MULTIPOLES>  (1) 
316.83
5.4
3.66
1.21
2.66
3.56
0
-2.31
0
-2.96
0
0.27
-1.15
0

>  <PUBCHEM_SHAPE_SELFOVERLAP>  (1) 
605.1

>  <PUBCHEM_SHAPE_VOLUME>  (1) 
197.7

>  <PUBCHEM_COORDINATE_TYPE>  (1) 
2
5
10

$$$$
