34900
     RDKit          3D

 12 12  0  0  0  0  0  0  0  0999 V2000
   -1.0063    0.8876    0.4392 N   0  0  0  0  0  0  0  0  0  0  0  0
    1.2877    0.2495    0.1418 N   0  0  0  0  0  0  0  0  0  0  0  0
   -0.4351   -1.4205    0.1162 N   0  0  0  0  0  0  0  0  0  0  0  0
    1.8152   -2.0135   -0.1721 N   0  0  0  0  0  0  0  0  0  0  0  0
   -2.7441   -0.7864    0.4145 C   0  0  0  0  0  0  0  0  0  0  0  0
    0.7208    2.5726    0.4655 C   0  0  0  0  0  0  0  0  0  0  0  0
   -1.3035   -0.4163    0.3171 C   0  0  0  0  0  0  0  0  0  0  0  0
    0.3078    1.1458    0.3410 C   0  0  0  0  0  0  0  0  0  0  0  0
    0.8420   -1.0129    0.0389 C   0  0  0  0  0  0  0  0  0  0  0  0
   -3.4420   -0.7691   -0.9433 C   0  0  0  0  0  0  0  0  0  0  0  0
    0.7457    3.2905   -0.8817 C   0  0  0  0  0  0  0  0  0  0  0  0
    3.2118   -1.7272   -0.2770 C   0  0  0  0  0  0  0  0  0  0  0  0
  1  7  2  0
  1  8  1  0
  2  8  2  0
  2  9  1  0
  3  7  1  0
  3  9  2  0
  4  9  1  0
  4 12  1  0
  5  7  1  0
  5 10  1  0
  6  8  1  0
  6 11  1  0
M  END
>  <PUBCHEM_COMPOUND_CID>  (1) 
34900

>  <PUBCHEM_CONFORMER_RMSD>  (1) 
0.6

>  <PUBCHEM_CONFORMER_DIVERSEORDER>  (1) 
1
5
7
2
3
6
4

>  <PUBCHEM_MMFF94_PARTIAL_CHARGES>  (1) 
11
1 -0.62
12 0.37
2 -0.62
23 0.4
3 -0.62
4 -0.87
5 0.14
6 0.14
7 0.48
8 0.48
9 0.72

>  <PUBCHEM_EFFECTIVE_ROTOR_COUNT>  (1) 
3

>  <PUBCHEM_PHARMACOPHORE_FEATURES>  (1) 
5
1 10 hydrophobe
1 11 hydrophobe
1 4 donor
4 2 3 4 9 cation
6 1 2 3 7 8 9 rings

>  <PUBCHEM_HEAVY_ATOM_COUNT>  (1) 
12

>  <PUBCHEM_ATOM_DEF_STEREO_COUNT>  (1) 
0

>  <PUBCHEM_ATOM_UDEF_STEREO_COUNT>  (1) 
0

>  <PUBCHEM_BOND_DEF_STEREO_COUNT>  (1) 
0

>  <PUBCHEM_BOND_UDEF_STEREO_COUNT>  (1) 
0

>  <PUBCHEM_ISOTOPIC_ATOM_COUNT>  (1) 
0

>  <PUBCHEM_COMPONENT_COUNT>  (1) 
1

>  <PUBCHEM_CACTVS_TAUTO_COUNT>  (1) 
8

>  <PUBCHEM_CONFORMER_ID>  (1) 
0000885400000001

>  <PUBCHEM_MMFF94_ENERGY>  (1) 
21.6205

>  <PUBCHEM_FEATURE_SELFOVERLAP>  (1) 
25.372

>  <PUBCHEM_SHAPE_FINGERPRINT>  (1) 
1 1 18051129490767682549
12138202 78 18336256946611687069
13380535 76 17904471162509173563
14817 1 8206349645507982088
16945 1 18267028430093081385
193761 8 17907580585709038466
20645476 183 17179403794588014356
20645477 70 18266728272768977007
20671657 53 18412823560452093871
20711985 344 17975406923768508003
20871998 184 17839470981301314963
21040471 1 17403737143117571081
21524375 3 17396970731570285353
23552423 10 18268996573345346643
241688 4 18267023855868541408
2748010 2 18339917117408853344
3071541 12 18339367486302309545
3071541 158 18335136509639461893
3071541 250 18339942470653627150
7364860 26 18270118057693350329
81228 2 17979082586903166178

>  <PUBCHEM_SHAPE_MULTIPOLES>  (1) 
227.03
4.03
3.24
0.82
2.75
2.37
0.11
-2.54
0.93
-3.16
0.61
0.22
0.24
-0.01

>  <PUBCHEM_SHAPE_SELFOVERLAP>  (1) 
450.905

>  <PUBCHEM_SHAPE_VOLUME>  (1) 
130.8

>  <PUBCHEM_COORDINATE_TYPE>  (1) 
2
5
10

$$$$
