34904
     RDKit          3D

 17 17  0  0  0  0  0  0  0  0999 V2000
    3.2838    0.0829    1.6780 Cl  0  0  0  0  0  0  0  0  0  0  0  0
    3.4681    0.0832   -1.2532 Cl  0  0  0  0  0  0  0  0  0  0  0  0
   -3.2833    0.0831   -1.6782 Cl  0  0  0  0  0  0  0  0  0  0  0  0
   -3.4684    0.0833    1.2529 Cl  0  0  0  0  0  0  0  0  0  0  0  0
    1.5524   -2.6748   -1.3090 Cl  0  0  0  0  0  0  0  0  0  0  0  0
   -1.5528   -2.6748    1.3089 Cl  0  0  0  0  0  0  0  0  0  0  0  0
   -0.0001   -0.3854    0.0002 N   0  0  0  0  0  0  0  0  0  0  0  0
   -1.1973    1.6927   -0.0750 N   0  0  0  0  0  0  0  0  0  0  0  0
    1.1975    1.6927    0.0754 N   0  0  0  0  0  0  0  0  0  0  0  0
    0.0001    3.7074   -0.0003 N   0  0  0  0  0  0  0  0  0  0  0  0
    2.4083   -0.3932    0.1514 C   0  0  0  0  0  0  0  0  0  0  0  0
   -2.4082   -0.3930   -0.1515 C   0  0  0  0  0  0  0  0  0  0  0  0
    1.1200    0.3522    0.0706 C   0  0  0  0  0  0  0  0  0  0  0  0
   -1.1199    0.3522   -0.0702 C   0  0  0  0  0  0  0  0  0  0  0  0
    2.3059   -1.9521    0.1450 C   0  0  0  0  0  0  0  0  0  0  0  0
   -2.3060   -1.9520   -0.1451 C   0  0  0  0  0  0  0  0  0  0  0  0
    0.0000    2.2957    0.0001 C   0  0  0  0  0  0  0  0  0  0  0  0
  1 11  1  0
  2 11  1  0
  3 12  1  0
  4 12  1  0
  5 15  1  0
  6 16  1  0
  7 13  2  0
  7 14  1  0
  8 14  2  0
  8 17  1  0
  9 13  1  0
  9 17  2  0
 10 17  1  0
 11 13  1  0
 11 15  1  0
 12 14  1  0
 12 16  1  0
M  END
>  <PUBCHEM_COMPOUND_CID>  (1) 
34904

>  <PUBCHEM_CONFORMER_RMSD>  (1) 
0.6

>  <PUBCHEM_CONFORMER_DIVERSEORDER>  (1) 
1
23
32
75
103
56
7
55
110
98
106
46
112
6
65
84
11
74
111
100
88
102
63
60
81
109
35
87
76
107
43
47
33
113
49
10
90
53
52
67
48
31
95
71
80
82
104
83
99
101
13
61
91
15
94
36
29
57
39
86
79
70
16
12
68
108
17
45
89
115
64
105
69
28
78
25
72
114
96
4
20
62
85
19
50
41
21
37
40
73
2
27
93
42
14
34
58
66
22
30
44
51
8
54
26
97
9
92
38
77
3
59
5
24
18

>  <PUBCHEM_MMFF94_PARTIAL_CHARGES>  (1) 
19
1 -0.29
10 -0.9
11 0.72
12 0.72
13 0.48
14 0.48
15 0.29
16 0.29
17 0.72
2 -0.29
22 0.4
23 0.4
3 -0.29
4 -0.29
5 -0.29
6 -0.29
7 -0.62
8 -0.62
9 -0.62

>  <PUBCHEM_EFFECTIVE_ROTOR_COUNT>  (1) 
4

>  <PUBCHEM_PHARMACOPHORE_FEATURES>  (1) 
3
1 10 donor
4 8 9 10 17 cation
6 7 8 9 13 14 17 rings

>  <PUBCHEM_HEAVY_ATOM_COUNT>  (1) 
17

>  <PUBCHEM_ATOM_DEF_STEREO_COUNT>  (1) 
0

>  <PUBCHEM_ATOM_UDEF_STEREO_COUNT>  (1) 
0

>  <PUBCHEM_BOND_DEF_STEREO_COUNT>  (1) 
0

>  <PUBCHEM_BOND_UDEF_STEREO_COUNT>  (1) 
0

>  <PUBCHEM_ISOTOPIC_ATOM_COUNT>  (1) 
0

>  <PUBCHEM_COMPONENT_COUNT>  (1) 
1

>  <PUBCHEM_CACTVS_TAUTO_COUNT>  (1) 
3

>  <PUBCHEM_CONFORMER_ID>  (1) 
0000885800000001

>  <PUBCHEM_MMFF94_ENERGY>  (1) 
40.3437

>  <PUBCHEM_FEATURE_SELFOVERLAP>  (1) 
15.223

>  <PUBCHEM_SHAPE_FINGERPRINT>  (1) 
10906281 52 18410570686622362241
10967382 1 18410859866780444747
11132069 177 18411692201641499698
12382932 28 18410569608638130498
12553582 1 18410579487004596293
12759256 9 18267859656636529621
13140716 1 18266741470390496928
13544592 271 18340471365816951539
14022347 108 18190197718650762339
14178342 30 18272367620008870931
14648413 74 18192427696046787857
15207287 21 18266434612115134755
15375358 24 18339060649374560081
15375462 189 18040441026533196338
15490181 7 17474662850080056865
16752209 62 18117828915614443541
16945 1 18410571786128325509
17990270 104 18194403513788354843
19591789 44 17476086726518222145
20645476 183 16963830851790740750
20645477 70 17906448080559310591
21524375 3 17261032121744064737
22721475 48 18410581686028150663
22802520 49 17983577403443774286
2334 1 17978227493221523076
23526113 38 18262217951253466055
23557571 272 18342736274503761800
23558518 356 17905322931701421772
23559900 14 18408317783951076170
2748010 2 18122623026745261044
34934 24 18410845564523518314
576247 118 17978270206661284451
5902787 121 18188766291997707450
7364860 26 18052265286342621449
74978 22 18338236097754004857
81228 2 18267863878457753304
8809292 202 18334298677579393066

>  <PUBCHEM_SHAPE_MULTIPOLES>  (1) 
341.15
5.56
3.25
1.42
0
0.94
0
-1.28
0
0
0
0
-0.5
0.65

>  <PUBCHEM_SHAPE_SELFOVERLAP>  (1) 
639.06

>  <PUBCHEM_SHAPE_VOLUME>  (1) 
214.9

>  <PUBCHEM_COORDINATE_TYPE>  (1) 
2
5
10

$$$$
