34906
     RDKit          3D

 15 15  0  0  0  0  0  0  0  0999 V2000
   -2.7181   -1.9627    1.5095 Cl  0  0  0  0  0  0  0  0  0  0  0  0
   -4.0481   -0.5588   -0.6275 Cl  0  0  0  0  0  0  0  0  0  0  0  0
   -1.9413   -2.4216   -1.2746 Cl  0  0  0  0  0  0  0  0  0  0  0  0
   -0.1554   -0.5288    0.4397 N   0  0  0  0  0  0  0  0  0  0  0  0
    0.5424    1.7596    0.2564 N   0  0  0  0  0  0  0  0  0  0  0  0
   -1.7192    1.1496   -0.2637 N   0  0  0  0  0  0  0  0  0  0  0  0
   -1.0082    3.3775   -0.4338 N   0  0  0  0  0  0  0  0  0  0  0  0
    3.0128   -0.2900   -0.2236 C   0  0  0  0  0  0  0  0  0  0  0  0
    2.1207    0.0771    0.9642 C   0  0  0  0  0  0  0  0  0  0  0  0
    4.4056   -0.7158    0.2405 C   0  0  0  0  0  0  0  0  0  0  0  0
    0.7332    0.4646    0.5206 C   0  0  0  0  0  0  0  0  0  0  0  0
    5.2843   -1.1208   -0.9322 C   0  0  0  0  0  0  0  0  0  0  0  0
   -1.3667   -0.1103    0.0390 C   0  0  0  0  0  0  0  0  0  0  0  0
   -0.7141    2.0302   -0.1324 C   0  0  0  0  0  0  0  0  0  0  0  0
   -2.4280   -1.1499   -0.0822 C   0  0  0  0  0  0  0  0  0  0  0  0
  1 15  1  0
  2 15  1  0
  3 15  1  0
  4 11  2  0
  4 13  1  0
  5 11  1  0
  5 14  2  0
  6 13  2  0
  6 14  1  0
  7 14  1  0
  8  9  1  0
  8 10  1  0
  9 11  1  0
 10 12  1  0
 13 15  1  0
M  END
>  <PUBCHEM_COMPOUND_CID>  (1) 
34906

>  <PUBCHEM_CONFORMER_RMSD>  (1) 
0.6

>  <PUBCHEM_CONFORMER_DIVERSEORDER>  (1) 
1
32
27
19
14
33
30
6
7
8
11
31
34
16
28
12
3
17
29
20
5
4
2
13
15
21
10
23
9
26
25
18
24
22

>  <PUBCHEM_MMFF94_PARTIAL_CHARGES>  (1) 
14
1 -0.29
11 0.48
13 0.48
14 0.72
15 1.01
2 -0.29
25 0.4
26 0.4
3 -0.29
4 -0.62
5 -0.62
6 -0.62
7 -0.9
9 0.14

>  <PUBCHEM_EFFECTIVE_ROTOR_COUNT>  (1) 
4

>  <PUBCHEM_PHARMACOPHORE_FEATURES>  (1) 
4
1 12 hydrophobe
1 7 donor
4 5 6 7 14 cation
6 4 5 6 11 13 14 rings

>  <PUBCHEM_HEAVY_ATOM_COUNT>  (1) 
15

>  <PUBCHEM_ATOM_DEF_STEREO_COUNT>  (1) 
0

>  <PUBCHEM_ATOM_UDEF_STEREO_COUNT>  (1) 
0

>  <PUBCHEM_BOND_DEF_STEREO_COUNT>  (1) 
0

>  <PUBCHEM_BOND_UDEF_STEREO_COUNT>  (1) 
0

>  <PUBCHEM_ISOTOPIC_ATOM_COUNT>  (1) 
0

>  <PUBCHEM_COMPONENT_COUNT>  (1) 
1

>  <PUBCHEM_CACTVS_TAUTO_COUNT>  (1) 
9

>  <PUBCHEM_CONFORMER_ID>  (1) 
0000885A00000001

>  <PUBCHEM_MMFF94_ENERGY>  (1) 
23.7733

>  <PUBCHEM_FEATURE_SELFOVERLAP>  (1) 
20.297

>  <PUBCHEM_SHAPE_FINGERPRINT>  (1) 
11543360 7 15430316983653556426
12032990 46 18336829796185150835
12553582 1 18336536200800590722
14115302 16 17748828548530643359
14178000 29 18270674410835675959
16945 1 18264470828750696553
18186145 218 17023456564221725854
19141452 34 17917428761056239487
20645476 183 17604147004586830661
20645477 70 18268982262197928870
20711985 344 18335970978835453801
20871998 184 18342176626678246484
20871998 22 18266739271325127593
20871999 31 18261668181979812701
22094290 60 18410577258480994122
23402539 116 18339353076554903117
23557571 272 18342181012525872364
23559900 14 18410566280861259264
2748010 2 18192693747611575569
3071541 250 18189626122907282796
3286 77 16773510074710618154
559249 180 17975406924581462826
58051976 100 18336832974977706598
68521 5 18335981986773479069
6992083 37 18130516343854908283
7364860 26 17835797869604337393
81228 2 18336255761037508041
84936 182 8356611039127375983

>  <PUBCHEM_SHAPE_MULTIPOLES>  (1) 
294.38
7.81
2.73
1.11
10.09
1.92
0.13
-5.39
-1.54
-1.75
-0.57
-0.4
-0.62
0.59

>  <PUBCHEM_SHAPE_SELFOVERLAP>  (1) 
562.719

>  <PUBCHEM_SHAPE_VOLUME>  (1) 
177.9

>  <PUBCHEM_COORDINATE_TYPE>  (1) 
2
5
10

$$$$
