34905
     RDKit          3D

 14 14  0  0  0  0  0  0  0  0999 V2000
    2.2495   -1.7736   -1.4648 Cl  0  0  0  0  0  0  0  0  0  0  0  0
    3.6349    0.2822    0.0050 Cl  0  0  0  0  0  0  0  0  0  0  0  0
    2.2370   -1.7795    1.4618 Cl  0  0  0  0  0  0  0  0  0  0  0  0
   -0.2854   -0.6792   -0.0003 N   0  0  0  0  0  0  0  0  0  0  0  0
   -1.4590    1.4138   -0.0004 N   0  0  0  0  0  0  0  0  0  0  0  0
    0.9403    1.3837   -0.0001 N   0  0  0  0  0  0  0  0  0  0  0  0
   -0.2342    3.4132    0.0003 N   0  0  0  0  0  0  0  0  0  0  0  0
   -2.6983   -0.6568   -0.0005 C   0  0  0  0  0  0  0  0  0  0  0  0
   -1.3748    0.0854   -0.0004 C   0  0  0  0  0  0  0  0  0  0  0  0
   -2.8658   -1.5091    1.2599 C   0  0  0  0  0  0  0  0  0  0  0  0
   -2.8658   -1.5089   -1.2610 C   0  0  0  0  0  0  0  0  0  0  0  0
    0.8459    0.0443    0.0000 C   0  0  0  0  0  0  0  0  0  0  0  0
   -0.2518    2.0017   -0.0001 C   0  0  0  0  0  0  0  0  0  0  0  0
    2.1275   -0.7171    0.0005 C   0  0  0  0  0  0  0  0  0  0  0  0
  1 14  1  0
  2 14  1  0
  3 14  1  0
  4  9  2  0
  4 12  1  0
  5  9  1  0
  5 13  2  0
  6 12  2  0
  6 13  1  0
  7 13  1  0
  8  9  1  0
  8 10  1  0
  8 11  1  0
 12 14  1  0
M  END
>  <PUBCHEM_COMPOUND_CID>  (1) 
34905

>  <PUBCHEM_CONFORMER_RMSD>  (1) 
0.6

>  <PUBCHEM_CONFORMER_DIVERSEORDER>  (1) 
1
3
4
2

>  <PUBCHEM_MMFF94_PARTIAL_CHARGES>  (1) 
14
1 -0.29
12 0.48
13 0.72
14 1.01
2 -0.29
22 0.4
23 0.4
3 -0.29
4 -0.62
5 -0.62
6 -0.62
7 -0.9
8 0.14
9 0.48

>  <PUBCHEM_EFFECTIVE_ROTOR_COUNT>  (1) 
2

>  <PUBCHEM_PHARMACOPHORE_FEATURES>  (1) 
4
1 7 donor
3 8 10 11 hydrophobe
4 5 6 7 13 cation
6 4 5 6 9 12 13 rings

>  <PUBCHEM_HEAVY_ATOM_COUNT>  (1) 
14

>  <PUBCHEM_ATOM_DEF_STEREO_COUNT>  (1) 
0

>  <PUBCHEM_ATOM_UDEF_STEREO_COUNT>  (1) 
0

>  <PUBCHEM_BOND_DEF_STEREO_COUNT>  (1) 
0

>  <PUBCHEM_BOND_UDEF_STEREO_COUNT>  (1) 
0

>  <PUBCHEM_ISOTOPIC_ATOM_COUNT>  (1) 
0

>  <PUBCHEM_COMPONENT_COUNT>  (1) 
1

>  <PUBCHEM_CACTVS_TAUTO_COUNT>  (1) 
9

>  <PUBCHEM_CONFORMER_ID>  (1) 
0000885900000001

>  <PUBCHEM_MMFF94_ENERGY>  (1) 
28.2059

>  <PUBCHEM_FEATURE_SELFOVERLAP>  (1) 
20.297

>  <PUBCHEM_SHAPE_FINGERPRINT>  (1) 
1 1 17616814770108487157
108231 29 18116724095560077482
12202030 40 17345747461302664046
12553582 1 18411417336461643583
12716758 59 17836931092361412654
12759256 9 18124879211825979101
12932764 1 17825116908872466878
13538477 17 17898857846432752690
14252887 29 18270415969494546371
16945 1 18194682798299842532
18380122 1 18202276975300777902
20361792 2 18413103987472491615
20645476 183 17246140426319209591
20645477 70 18051967323598664471
20711985 344 18194128408242758943
20871998 184 18200033928213697757
20871998 22 18341065063472737439
21061003 4 18262527021147029763
21501502 16 18266173938197424968
21524375 3 17255401518413559261
22802520 49 17984154660044288510
232386 152 17972874766139575106
2334 1 18410293626940285377
23388829 49 18270958067376171852
23402539 116 18411693305738426966
23419403 2 17470107826877992300
23552423 10 18187654565620123812
23557571 272 18339362959696650756
2748010 2 18412258424159702853
3071541 236 17830163619704237705
3312278 4 18187365415325852266
34934 24 18410570678232465489
6338986 31 18266997549410540063
7364860 26 18054509381058804769
8030462 33 17896327926122902962
81228 2 18194683670331554857
88987 49 17905886981646557790

>  <PUBCHEM_SHAPE_MULTIPOLES>  (1) 
273.8
5.01
2.74
1.19
0.38
2.33
0
-2.85
0
-0.28
0
0.1
-0.96
0

>  <PUBCHEM_SHAPE_SELFOVERLAP>  (1) 
528.674

>  <PUBCHEM_SHAPE_VOLUME>  (1) 
164.9

>  <PUBCHEM_COORDINATE_TYPE>  (1) 
2
5
10

$$$$
