34901
     RDKit          3D

 15 15  0  0  0  0  0  0  0  0999 V2000
    2.5147   -1.7283   -1.4624 Cl  0  0  0  0  0  0  0  0  0  0  0  0
    2.5146   -1.7289    1.4621 Cl  0  0  0  0  0  0  0  0  0  0  0  0
   -2.5151   -1.7285    1.4622 Cl  0  0  0  0  0  0  0  0  0  0  0  0
   -2.5141   -1.7288   -1.4623 Cl  0  0  0  0  0  0  0  0  0  0  0  0
   -0.0001   -0.6489    0.0002 N   0  0  0  0  0  0  0  0  0  0  0  0
   -1.1998    1.4292    0.0002 N   0  0  0  0  0  0  0  0  0  0  0  0
    1.1998    1.4292    0.0002 N   0  0  0  0  0  0  0  0  0  0  0  0
   -0.0001    3.4438   -0.0003 N   0  0  0  0  0  0  0  0  0  0  0  0
    2.4131   -0.6567    0.0001 C   0  0  0  0  0  0  0  0  0  0  0  0
   -2.4130   -0.6567   -0.0002 C   0  0  0  0  0  0  0  0  0  0  0  0
    1.1222    0.0887    0.0002 C   0  0  0  0  0  0  0  0  0  0  0  0
   -1.1221    0.0886    0.0002 C   0  0  0  0  0  0  0  0  0  0  0  0
    3.7137    0.1826    0.0000 C   0  0  0  0  0  0  0  0  0  0  0  0
   -3.7137    0.1824   -0.0003 C   0  0  0  0  0  0  0  0  0  0  0  0
   -0.0001    2.0321    0.0001 C   0  0  0  0  0  0  0  0  0  0  0  0
  1  9  1  0
  2  9  1  0
  3 10  1  0
  4 10  1  0
  5 11  2  0
  5 12  1  0
  6 12  2  0
  6 15  1  0
  7 11  1  0
  7 15  2  0
  8 15  1  0
  9 11  1  0
  9 13  1  0
 10 12  1  0
 10 14  1  0
M  END
>  <PUBCHEM_COMPOUND_CID>  (1) 
34901

>  <PUBCHEM_CONFORMER_RMSD>  (1) 
0.6

>  <PUBCHEM_CONFORMER_DIVERSEORDER>  (1) 
1
6
10
7
19
12
21
13
20
14
9
3
8
4
5
11
17
18
2
15
16

>  <PUBCHEM_MMFF94_PARTIAL_CHARGES>  (1) 
15
1 -0.29
10 0.72
11 0.48
12 0.48
15 0.72
2 -0.29
22 0.4
23 0.4
3 -0.29
4 -0.29
5 -0.62
6 -0.62
7 -0.62
8 -0.9
9 0.72

>  <PUBCHEM_EFFECTIVE_ROTOR_COUNT>  (1) 
2

>  <PUBCHEM_PHARMACOPHORE_FEATURES>  (1) 
3
1 8 donor
4 6 7 8 15 cation
6 5 6 7 11 12 15 rings

>  <PUBCHEM_HEAVY_ATOM_COUNT>  (1) 
15

>  <PUBCHEM_ATOM_DEF_STEREO_COUNT>  (1) 
0

>  <PUBCHEM_ATOM_UDEF_STEREO_COUNT>  (1) 
0

>  <PUBCHEM_BOND_DEF_STEREO_COUNT>  (1) 
0

>  <PUBCHEM_BOND_UDEF_STEREO_COUNT>  (1) 
0

>  <PUBCHEM_ISOTOPIC_ATOM_COUNT>  (1) 
0

>  <PUBCHEM_COMPONENT_COUNT>  (1) 
1

>  <PUBCHEM_CACTVS_TAUTO_COUNT>  (1) 
3

>  <PUBCHEM_CONFORMER_ID>  (1) 
0000885500000001

>  <PUBCHEM_MMFF94_ENERGY>  (1) 
34.9994

>  <PUBCHEM_FEATURE_SELFOVERLAP>  (1) 
15.223

>  <PUBCHEM_SHAPE_FINGERPRINT>  (1) 
10130415 120 18334575728887014209
108231 29 18116725190887501274
11132069 177 18131343137944218618
12553582 1 18410849962570458147
12759256 9 18125161781876925436
13538477 17 17899417489409049120
14022347 108 18192451700397497955
14115302 16 17531254941268872191
14252887 29 18270975603907152002
14648413 74 18191868040407337041
15375462 189 18333730234225435891
16945 1 17704353268589742067
17990270 104 18340490096300970767
20361792 2 18412538834037252183
20645476 183 17317632892923829966
20645477 70 18124027099358536007
20711985 344 18122356678717141958
20871998 184 18199748042216007268
20871998 22 18341906176940756310
21524375 3 17255964468245654781
232386 152 18116706327412554298
2334 1 18410293644046359993
23388829 49 18270675488756402924
23402539 116 18411130355890513670
23419403 2 17543009845999032948
23552423 10 18123464149209448397
23557571 272 18339082575815784548
23559900 14 18266171730864127874
23598291 2 18129104600978766869
2748010 2 18411976962020473268
3312278 4 18186525405674932642
34934 24 18410849966865016192
352729 6 17690277105983218916
5902787 121 18188207709899607506
6338986 31 18267279024197301183
6992083 37 18059868263557161195
7364860 26 18126565862605380937
8030462 33 17823711771719901626
81228 2 18266746766085484496

>  <PUBCHEM_SHAPE_MULTIPOLES>  (1) 
296.25
5.57
2.71
1.25
0
2.14
0
-2.63
0
0
0
0
-1.08
0

>  <PUBCHEM_SHAPE_SELFOVERLAP>  (1) 
567.351

>  <PUBCHEM_SHAPE_VOLUME>  (1) 
184.5

>  <PUBCHEM_COORDINATE_TYPE>  (1) 
2
5
10

$$$$
