34915
     RDKit          3D

 12 12  0  0  0  0  0  0  0  0999 V2000
    2.5456    0.7869   -1.4215 Cl  0  0  0  0  0  0  0  0  0  0  0  0
   -0.1762   -1.2144   -0.0008 N   0  0  0  0  0  0  0  0  0  0  0  0
   -0.1338    1.1843    0.0432 N   0  0  0  0  0  0  0  0  0  0  0  0
   -2.2323    0.0224   -0.0197 N   0  0  0  0  0  0  0  0  0  0  0  0
   -2.2420   -2.3226   -0.0603 N   0  0  0  0  0  0  0  0  0  0  0  0
   -2.1594    2.3658    0.0256 N   0  0  0  0  0  0  0  0  0  0  0  0
    1.9381   -0.0526    0.0642 C   0  0  0  0  0  0  0  0  0  0  0  0
    0.4085   -0.0252    0.0321 C   0  0  0  0  0  0  0  0  0  0  0  0
    2.5621   -1.4594    0.0531 C   0  0  0  0  0  0  0  0  0  0  0  0
    2.4794    0.6966    1.2947 C   0  0  0  0  0  0  0  0  0  0  0  0
   -1.5148   -1.1126   -0.0259 C   0  0  0  0  0  0  0  0  0  0  0  0
   -1.4753    1.1308    0.0153 C   0  0  0  0  0  0  0  0  0  0  0  0
  1  7  1  0
  2  8  2  0
  2 11  1  0
  3  8  1  0
  3 12  2  0
  4 11  2  0
  4 12  1  0
  5 11  1  0
  6 12  1  0
  7  8  1  0
  7  9  1  0
  7 10  1  0
M  END
>  <PUBCHEM_COMPOUND_CID>  (1) 
34915

>  <PUBCHEM_CONFORMER_RMSD>  (1) 
0.4

>  <PUBCHEM_CONFORMER_DIVERSEORDER>  (1) 
1
2
3

>  <PUBCHEM_MMFF94_PARTIAL_CHARGES>  (1) 
14
1 -0.29
11 0.72
12 0.72
19 0.4
2 -0.62
20 0.4
21 0.4
22 0.4
3 -0.62
4 -0.62
5 -0.9
6 -0.9
7 0.43
8 0.48

>  <PUBCHEM_EFFECTIVE_ROTOR_COUNT>  (1) 
1

>  <PUBCHEM_PHARMACOPHORE_FEATURES>  (1) 
6
1 5 donor
1 6 donor
3 7 9 10 hydrophobe
4 2 4 5 11 cation
4 3 4 6 12 cation
6 2 3 4 8 11 12 rings

>  <PUBCHEM_HEAVY_ATOM_COUNT>  (1) 
12

>  <PUBCHEM_ATOM_DEF_STEREO_COUNT>  (1) 
0

>  <PUBCHEM_ATOM_UDEF_STEREO_COUNT>  (1) 
0

>  <PUBCHEM_BOND_DEF_STEREO_COUNT>  (1) 
0

>  <PUBCHEM_BOND_UDEF_STEREO_COUNT>  (1) 
0

>  <PUBCHEM_ISOTOPIC_ATOM_COUNT>  (1) 
0

>  <PUBCHEM_COMPONENT_COUNT>  (1) 
1

>  <PUBCHEM_CACTVS_TAUTO_COUNT>  (1) 
5

>  <PUBCHEM_CONFORMER_ID>  (1) 
0000886300000001

>  <PUBCHEM_MMFF94_ENERGY>  (1) 
36.8749

>  <PUBCHEM_FEATURE_SELFOVERLAP>  (1) 
30.489

>  <PUBCHEM_SHAPE_FINGERPRINT>  (1) 
1 1 17690273816343653845
10857977 72 18197486535781501362
12423570 1 15388965790341792544
12716758 59 18341046311576691587
12897270 3 18265341775172102366
12932741 1 17775287162055449116
12932764 1 18060422438633972966
161256 15 18055639674579917712
16945 1 18411418457400128369
18380122 1 17915732287697064208
19973954 147 18412539925074918392
20082192 1 17749657541706350590
20511035 2 18270674260575136982
20645464 45 17917986183428481088
20871998 184 18201156641355332415
21040471 1 18339079259494389809
21501502 16 18410856542834596694
21524375 3 18052818040428732501
23552423 10 18259704488841491602
23559900 14 18057327185539559374
2748010 2 18413669101867702070
3248919 1 17894909654806865690
369184 2 18131060528615931586
5084963 1 18262237699117375976
8030462 33 18410571807808923070
81228 2 18410006671991363721

>  <PUBCHEM_SHAPE_MULTIPOLES>  (1) 
223.92
4.17
2.08
0.94
0.7
0.15
0.06
0.08
0.13
-1.49
0.04
0.9
-0.26
-0.17

>  <PUBCHEM_SHAPE_SELFOVERLAP>  (1) 
449.362

>  <PUBCHEM_SHAPE_VOLUME>  (1) 
133.3

>  <PUBCHEM_COORDINATE_TYPE>  (1) 
2
5
10

$$$$
