34910
     RDKit          3D

 15 15  0  0  0  0  0  0  0  0999 V2000
   -2.9242    1.4193   -1.5085 Cl  0  0  0  0  0  0  0  0  0  0  0  0
   -3.8165   -0.2169    0.6900 Cl  0  0  0  0  0  0  0  0  0  0  0  0
   -2.1603    2.0818    1.2380 Cl  0  0  0  0  0  0  0  0  0  0  0  0
   -0.0634    0.6153   -0.5403 N   0  0  0  0  0  0  0  0  0  0  0  0
    1.1396   -1.4544   -0.3747 N   0  0  0  0  0  0  0  0  0  0  0  0
   -1.1787   -1.3619    0.2372 N   0  0  0  0  0  0  0  0  0  0  0  0
    0.0229   -3.3697    0.3887 N   0  0  0  0  0  0  0  0  0  0  0  0
    3.1450    1.1290   -0.0404 C   0  0  0  0  0  0  0  0  0  0  0  0
    2.2679    0.5300   -1.1573 C   0  0  0  0  0  0  0  0  0  0  0  0
    2.3664    2.1149    0.8343 C   0  0  0  0  0  0  0  0  0  0  0  0
    3.7140    0.0059    0.8302 C   0  0  0  0  0  0  0  0  0  0  0  0
    1.0210   -0.1545   -0.6528 C   0  0  0  0  0  0  0  0  0  0  0  0
   -1.1319   -0.0596   -0.0866 C   0  0  0  0  0  0  0  0  0  0  0  0
   -0.0069   -1.9952    0.0682 C   0  0  0  0  0  0  0  0  0  0  0  0
   -2.3948    0.7159    0.0738 C   0  0  0  0  0  0  0  0  0  0  0  0
  1 15  1  0
  2 15  1  0
  3 15  1  0
  4 12  2  0
  4 13  1  0
  5 12  1  0
  5 14  2  0
  6 13  2  0
  6 14  1  0
  7 14  1  0
  8  9  1  0
  8 10  1  0
  8 11  1  0
  9 12  1  0
 13 15  1  0
M  END
>  <PUBCHEM_COMPOUND_CID>  (1) 
34910

>  <PUBCHEM_CONFORMER_RMSD>  (1) 
0.6

>  <PUBCHEM_CONFORMER_DIVERSEORDER>  (1) 
1
11
12
2
9
8
5
4
10
3
6
7

>  <PUBCHEM_MMFF94_PARTIAL_CHARGES>  (1) 
14
1 -0.29
12 0.48
13 0.48
14 0.72
15 1.01
2 -0.29
25 0.4
26 0.4
3 -0.29
4 -0.62
5 -0.62
6 -0.62
7 -0.9
9 0.14

>  <PUBCHEM_EFFECTIVE_ROTOR_COUNT>  (1) 
3

>  <PUBCHEM_PHARMACOPHORE_FEATURES>  (1) 
4
1 7 donor
3 8 10 11 hydrophobe
4 5 6 7 14 cation
6 4 5 6 12 13 14 rings

>  <PUBCHEM_HEAVY_ATOM_COUNT>  (1) 
15

>  <PUBCHEM_ATOM_DEF_STEREO_COUNT>  (1) 
0

>  <PUBCHEM_ATOM_UDEF_STEREO_COUNT>  (1) 
0

>  <PUBCHEM_BOND_DEF_STEREO_COUNT>  (1) 
0

>  <PUBCHEM_BOND_UDEF_STEREO_COUNT>  (1) 
0

>  <PUBCHEM_ISOTOPIC_ATOM_COUNT>  (1) 
0

>  <PUBCHEM_COMPONENT_COUNT>  (1) 
1

>  <PUBCHEM_CACTVS_TAUTO_COUNT>  (1) 
9

>  <PUBCHEM_CONFORMER_ID>  (1) 
0000885E00000001

>  <PUBCHEM_MMFF94_ENERGY>  (1) 
29.2112

>  <PUBCHEM_FEATURE_SELFOVERLAP>  (1) 
20.297

>  <PUBCHEM_SHAPE_FINGERPRINT>  (1) 
11132069 177 18336558208734812859
12251169 10 18335135449246815272
12500047 106 18335690702708473900
13380535 76 18413109484856609118
13764800 53 18267597985732733712
14178342 30 18262813856406780849
14614273 12 18260547806044231061
14787075 74 18058168521886727057
15775835 57 18261675969193331088
15852999 172 17967808311010555727
16945 1 17989208144049527877
17846911 113 18342177803752629657
18186145 218 18272094872289336228
18219364 16 18408889507742481145
20281407 28 10953455236844345452
20510252 161 18196658603557330578
21028194 46 18334296469812910181
21069387 34 14273746213081362803
21524375 3 18412546509075231870
21947302 44 18131360708581515172
230 275 18273213067220093360
23402539 116 18272642489278056653
23526113 38 17628113124368032924
23557571 272 17839193148847287604
23598294 1 18048320234532838138
2748010 2 18262533506394984263
305870 269 18266742385302939688
3071541 236 18263358268806579298
6333272 397 18340773731445862328
633830 44 18202571652559090013
7364860 26 18124598582894931503
81228 2 17976269254449380423
84936 182 18124300619771081357

>  <PUBCHEM_SHAPE_MULTIPOLES>  (1) 
294.38
5.83
2.65
1.18
0.28
1.71
0.18
-2.75
-0.78
0.03
-0.68
-0.37
-0.54
0.33

>  <PUBCHEM_SHAPE_SELFOVERLAP>  (1) 
567.509

>  <PUBCHEM_SHAPE_VOLUME>  (1) 
177.2

>  <PUBCHEM_COORDINATE_TYPE>  (1) 
2
5
10

$$$$
