34911
     RDKit          3D

 14 14  0  0  0  0  0  0  0  0999 V2000
    2.0352   -2.1345   -1.3606 Cl  0  0  0  0  0  0  0  0  0  0  0  0
    3.7679   -0.0378   -0.4074 Cl  0  0  0  0  0  0  0  0  0  0  0  0
    2.4971   -1.7825    1.5079 Cl  0  0  0  0  0  0  0  0  0  0  0  0
   -0.1542   -0.6615    0.3143 N   0  0  0  0  0  0  0  0  0  0  0  0
   -1.1776    1.5065    0.2138 N   0  0  0  0  0  0  0  0  0  0  0  0
    1.1832    1.2763   -0.1482 N   0  0  0  0  0  0  0  0  0  0  0  0
    0.1551    3.3816   -0.2397 N   0  0  0  0  0  0  0  0  0  0  0  0
   -2.5289   -0.4377    0.6795 C   0  0  0  0  0  0  0  0  0  0  0  0
   -3.2624   -0.8433   -0.5995 C   0  0  0  0  0  0  0  0  0  0  0  0
   -1.1877    0.1815    0.3805 C   0  0  0  0  0  0  0  0  0  0  0  0
   -4.6009   -1.4945   -0.2890 C   0  0  0  0  0  0  0  0  0  0  0  0
    1.0056   -0.0405    0.0453 C   0  0  0  0  0  0  0  0  0  0  0  0
    0.0484    1.9871   -0.0487 C   0  0  0  0  0  0  0  0  0  0  0  0
    2.2194   -0.9007   -0.0482 C   0  0  0  0  0  0  0  0  0  0  0  0
  1 14  1  0
  2 14  1  0
  3 14  1  0
  4 10  2  0
  4 12  1  0
  5 10  1  0
  5 13  2  0
  6 12  2  0
  6 13  1  0
  7 13  1  0
  8  9  1  0
  8 10  1  0
  9 11  1  0
 12 14  1  0
M  END
>  <PUBCHEM_COMPOUND_CID>  (1) 
34911

>  <PUBCHEM_CONFORMER_RMSD>  (1) 
0.6

>  <PUBCHEM_CONFORMER_DIVERSEORDER>  (1) 
1
12
11
6
9
2
13
10
7
5
3
8
4

>  <PUBCHEM_MMFF94_PARTIAL_CHARGES>  (1) 
14
1 -0.29
10 0.48
12 0.48
13 0.72
14 1.01
2 -0.29
22 0.4
23 0.4
3 -0.29
4 -0.62
5 -0.62
6 -0.62
7 -0.9
8 0.14

>  <PUBCHEM_EFFECTIVE_ROTOR_COUNT>  (1) 
3

>  <PUBCHEM_PHARMACOPHORE_FEATURES>  (1) 
4
1 11 hydrophobe
1 7 donor
4 5 6 7 13 cation
6 4 5 6 10 12 13 rings

>  <PUBCHEM_HEAVY_ATOM_COUNT>  (1) 
14

>  <PUBCHEM_ATOM_DEF_STEREO_COUNT>  (1) 
0

>  <PUBCHEM_ATOM_UDEF_STEREO_COUNT>  (1) 
0

>  <PUBCHEM_BOND_DEF_STEREO_COUNT>  (1) 
0

>  <PUBCHEM_BOND_UDEF_STEREO_COUNT>  (1) 
0

>  <PUBCHEM_ISOTOPIC_ATOM_COUNT>  (1) 
0

>  <PUBCHEM_COMPONENT_COUNT>  (1) 
1

>  <PUBCHEM_CACTVS_TAUTO_COUNT>  (1) 
9

>  <PUBCHEM_CONFORMER_ID>  (1) 
0000885F00000001

>  <PUBCHEM_MMFF94_ENERGY>  (1) 
24.0045

>  <PUBCHEM_FEATURE_SELFOVERLAP>  (1) 
20.297

>  <PUBCHEM_SHAPE_FINGERPRINT>  (1) 
1 1 17904479958671053325
116883 192 18197499519805279845
11806522 49 18340769350578947374
12202030 40 17487334837797073878
12553582 1 18408892810698926027
14251717 144 18268148832373252284
14252887 29 18271535255157014834
15477762 27 18341332296622789759
15757776 16 18408602582483718890
16945 1 18195264405612517608
18186145 218 12324249325744897399
20339313 130 18412548747206743747
20361792 2 18412539908005857983
20645476 183 16522199976164194952
20645477 70 18267582606093429463
20671657 53 18408600366544201931
20711985 344 18048049470903753082
20871998 184 18129095628375393012
20871998 22 18343026557893874815
21256008 61 18339643442235280919
21296965 67 18411416207111558861
21501502 16 18192434069904725768
21524375 3 17472976680443052329
221490 88 17975700807402167451
2255824 54 18196376046496871973
23388829 49 18342177794941220284
23402539 116 18410008806542857814
23419403 2 17827597544375404428
23552423 10 17970082058149347424
23557571 272 18269273478492529194
23559900 14 17981602672482407862
2748010 2 18410571743221077957
6338986 31 18336533924615343899
7364860 26 18126848419987605865
8030462 33 17605573054178325018
81228 2 18121505656733373193
88987 49 17759804745809637342

>  <PUBCHEM_SHAPE_MULTIPOLES>  (1) 
273.8
6.2
2.71
1.05
4.66
2.15
-0.1
-4.47
0.66
-0.32
0.37
-0.63
-0.66
-0.32

>  <PUBCHEM_SHAPE_SELFOVERLAP>  (1) 
524.837

>  <PUBCHEM_SHAPE_VOLUME>  (1) 
165.1

>  <PUBCHEM_COORDINATE_TYPE>  (1) 
2
5
10

$$$$
