34926
     RDKit          3D

 15 15  0  0  0  0  0  0  0  0999 V2000
   -0.0827    3.8938    0.0022 F   0  0  0  0  0  0  0  0  0  0  0  0
    2.3409   -0.0509   -0.0817 N   0  0  0  0  0  0  0  0  0  0  0  0
   -2.3446   -0.1461    0.0817 N   0  0  0  0  0  0  0  0  0  0  0  0
   -0.0012   -0.1300    0.0003 N   0  0  0  0  0  0  0  0  0  0  0  0
   -1.2422    1.9232    0.0429 N   0  0  0  0  0  0  0  0  0  0  0  0
    1.1553    1.9720   -0.0409 N   0  0  0  0  0  0  0  0  0  0  0  0
    2.4489   -1.5091   -0.0831 C   0  0  0  0  0  0  0  0  0  0  0  0
   -2.3866   -1.5749    0.0818 C   0  0  0  0  0  0  0  0  0  0  0  0
    2.2693   -2.0542    1.3309 C   0  0  0  0  0  0  0  0  0  0  0  0
    3.8006   -1.9175   -0.6602 C   0  0  0  0  0  0  0  0  0  0  0  0
   -2.1824   -2.1102   -1.3327 C   0  0  0  0  0  0  0  0  0  0  0  0
   -3.7190   -2.0437    0.6580 C   0  0  0  0  0  0  0  0  0  0  0  0
    1.1367    0.6127   -0.0398 C   0  0  0  0  0  0  0  0  0  0  0  0
   -1.1373    0.5845    0.0396 C   0  0  0  0  0  0  0  0  0  0  0  0
   -0.0557    2.5505    0.0010 C   0  0  0  0  0  0  0  0  0  0  0  0
  1 15  1  0
  2  7  1  0
  2 13  1  0
  3  8  1  0
  3 14  1  0
  4 13  2  0
  4 14  1  0
  5 14  2  0
  5 15  1  0
  6 13  1  0
  6 15  2  0
  7  9  1  0
  7 10  1  0
  8 11  1  0
  8 12  1  0
M  END
>  <PUBCHEM_COMPOUND_CID>  (1) 
34926

>  <PUBCHEM_CONFORMER_RMSD>  (1) 
0.6

>  <PUBCHEM_CONFORMER_DIVERSEORDER>  (1) 
1
40
18
43
25
34
28
10
26
3
29
36
24
41
23
42
35
5
4
39
30
38
16
8
32
17
33
7
15
37
14
44
12
22
31
20
9
19
21
27
11
6
2
13

>  <PUBCHEM_MMFF94_PARTIAL_CHARGES>  (1) 
13
1 -0.19
13 0.72
14 0.72
15 0.81
18 0.4
19 0.4
2 -0.87
3 -0.87
4 -0.62
5 -0.62
6 -0.62
7 0.37
8 0.37

>  <PUBCHEM_EFFECTIVE_ROTOR_COUNT>  (1) 
4

>  <PUBCHEM_PHARMACOPHORE_FEATURES>  (1) 
7
1 2 donor
1 3 donor
3 7 9 10 hydrophobe
3 8 11 12 hydrophobe
4 2 4 6 13 cation
4 3 4 5 14 cation
6 4 5 6 13 14 15 rings

>  <PUBCHEM_HEAVY_ATOM_COUNT>  (1) 
15

>  <PUBCHEM_ATOM_DEF_STEREO_COUNT>  (1) 
0

>  <PUBCHEM_ATOM_UDEF_STEREO_COUNT>  (1) 
0

>  <PUBCHEM_BOND_DEF_STEREO_COUNT>  (1) 
0

>  <PUBCHEM_BOND_UDEF_STEREO_COUNT>  (1) 
0

>  <PUBCHEM_ISOTOPIC_ATOM_COUNT>  (1) 
0

>  <PUBCHEM_COMPONENT_COUNT>  (1) 
1

>  <PUBCHEM_CACTVS_TAUTO_COUNT>  (1) 
5

>  <PUBCHEM_CONFORMER_ID>  (1) 
0000886E00000001

>  <PUBCHEM_MMFF94_ENERGY>  (1) 
33.9864

>  <PUBCHEM_FEATURE_SELFOVERLAP>  (1) 
35.562

>  <PUBCHEM_SHAPE_FINGERPRINT>  (1) 
11321824 6 18124013651288456719
12403259 327 15339125653793787735
12500047 106 17691396418085001602
12553582 1 18410571790429223690
14178342 30 17622998415076688787
15042514 8 18193846933482345683
15279307 12 17539417522652282098
15442244 35 18340778121640728793
15669948 3 18048034069610101914
16945 1 18050001095669437728
20291156 8 18410577287992481386
20510252 161 17624128300713396520
20645476 183 17541117367559920742
20645477 70 18121772001084015175
20871998 184 18127692634374578726
20871998 22 18412266168011916330
21665056 4 17545041498504955598
22445834 79 18053955218972305579
2255824 54 17907017631381034933
23530152 11 17112977924544692085
23552423 10 18052535770809004807
23559900 14 17550944798933396326
23598291 2 18270136706868715051
23598294 1 18266179418138241226
23728640 28 17615674151111572098
257057 1 18338784676245674341
2748010 2 18340473526137742820
3071541 250 18337683021461054647
3091708 16 9065714713894850129
33824 294 17615686675753210475
34934 24 18410848867358806089
6338986 31 18267561611612772023
7364860 26 18124035886249199817
81228 2 18194949756287222865

>  <PUBCHEM_SHAPE_MULTIPOLES>  (1) 
276.51
5.27
3.83
0.91
0.27
3.36
0
-5.95
0
-0.18
0.01
0.01
-0.68
-0.14

>  <PUBCHEM_SHAPE_SELFOVERLAP>  (1) 
549.104

>  <PUBCHEM_SHAPE_VOLUME>  (1) 
164

>  <PUBCHEM_COORDINATE_TYPE>  (1) 
2
5
10

$$$$
