34921
     RDKit          3D

 16 17  0  0  0  0  0  0  0  0999 V2000
    4.5938    0.3199   -0.1107 O   0  0  0  0  0  0  0  0  0  0  0  0
   -1.6498    1.1740    0.1767 N   0  0  0  0  0  0  0  0  0  0  0  0
   -1.5296   -1.1961   -0.1781 N   0  0  0  0  0  0  0  0  0  0  0  0
   -3.6645   -0.1218    0.0362 N   0  0  0  0  0  0  0  0  0  0  0  0
   -3.7504    2.1959    0.3832 N   0  0  0  0  0  0  0  0  0  0  0  0
   -3.5151   -2.4360   -0.3104 N   0  0  0  0  0  0  0  0  0  0  0  0
    0.4494    0.0978   -0.0378 C   0  0  0  0  0  0  0  0  0  0  0  0
   -0.9948    0.0207   -0.0113 C   0  0  0  0  0  0  0  0  0  0  0  0
    1.0779    1.2567   -0.4933 C   0  0  0  0  0  0  0  0  0  0  0  0
    1.2137   -0.9866    0.3930 C   0  0  0  0  0  0  0  0  0  0  0  0
    3.2348    0.2467   -0.0876 C   0  0  0  0  0  0  0  0  0  0  0  0
    2.4706    1.3312   -0.5182 C   0  0  0  0  0  0  0  0  0  0  0  0
    2.6064   -0.9121    0.3682 C   0  0  0  0  0  0  0  0  0  0  0  0
   -2.9843    1.0258    0.1892 C   0  0  0  0  0  0  0  0  0  0  0  0
   -2.8719   -1.1909   -0.1427 C   0  0  0  0  0  0  0  0  0  0  0  0
    5.3135   -0.8251    0.3436 C   0  0  0  0  0  0  0  0  0  0  0  0
  1 11  1  0
  1 16  1  0
  2  8  2  0
  2 14  1  0
  3  8  1  0
  3 15  2  0
  4 14  2  0
  4 15  1  0
  5 14  1  0
  6 15  1  0
  7  8  1  0
  7  9  2  0
  7 10  1  0
  9 12  1  0
 10 13  2  0
 11 12  2  0
 11 13  1  0
M  END
>  <PUBCHEM_COMPOUND_CID>  (1) 
34921

>  <PUBCHEM_CONFORMER_RMSD>  (1) 
0.6

>  <PUBCHEM_CONFORMER_DIVERSEORDER>  (1) 
1

>  <PUBCHEM_MMFF94_PARTIAL_CHARGES>  (1) 
23
1 -0.36
10 -0.15
11 0.08
12 -0.15
13 -0.15
14 0.72
15 0.72
16 0.28
17 0.15
18 0.15
19 0.15
2 -0.62
20 0.15
24 0.4
25 0.4
26 0.4
27 0.4
3 -0.62
4 -0.62
5 -0.9
6 -0.9
8 0.62
9 -0.15

>  <PUBCHEM_EFFECTIVE_ROTOR_COUNT>  (1) 
2

>  <PUBCHEM_PHARMACOPHORE_FEATURES>  (1) 
7
1 1 acceptor
1 5 donor
1 6 donor
4 2 4 5 14 cation
4 3 4 6 15 cation
6 2 3 4 8 14 15 rings
6 7 9 10 11 12 13 rings

>  <PUBCHEM_HEAVY_ATOM_COUNT>  (1) 
16

>  <PUBCHEM_ATOM_DEF_STEREO_COUNT>  (1) 
0

>  <PUBCHEM_ATOM_UDEF_STEREO_COUNT>  (1) 
0

>  <PUBCHEM_BOND_DEF_STEREO_COUNT>  (1) 
0

>  <PUBCHEM_BOND_UDEF_STEREO_COUNT>  (1) 
0

>  <PUBCHEM_ISOTOPIC_ATOM_COUNT>  (1) 
0

>  <PUBCHEM_COMPONENT_COUNT>  (1) 
1

>  <PUBCHEM_CACTVS_TAUTO_COUNT>  (1) 
5

>  <PUBCHEM_CONFORMER_ID>  (1) 
0000886900000001

>  <PUBCHEM_MMFF94_ENERGY>  (1) 
59.8071

>  <PUBCHEM_FEATURE_SELFOVERLAP>  (1) 
35.564

>  <PUBCHEM_SHAPE_FINGERPRINT>  (1) 
10062212 137 18335415768534406018
10465860 250 17775282759819407704
10616163 171 18412263964678583855
11132069 177 18410009910249070088
11806522 49 18335418036498651790
12236239 1 18259704501646895393
12251169 10 18408889516453429645
12500047 106 18342732975515029041
13167823 11 18409446999135204642
13288520 33 18412265030388979878
13675066 3 17989203755157291142
13760787 5 17168147832488169070
14144814 61 18408603651809016025
14965852 173 18410011052557286057
15196674 1 18409167731803079252
15375462 189 17895188862283359592
15442244 35 18336826368906626578
15536298 74 18339923818159423088
17834072 33 18336550508032537596
17862501 102 18335978740236911922
18186145 218 16515685571907463152
19026448 4 17632579353437500284
19050596 39 18409171034115900353
19422 9 18335423503817790518
1986462 14 18410575097611349542
200 152 18338791320955960767
20279233 1 16487257668316173252
20281475 54 18260542316991773362
20645477 56 18341616971513737649
21267235 1 18336554879660534643
21339142 126 18040711412020730908
21501502 16 18335424603129159517
221490 88 18117002297777048002
2306618 200 18131642183742790665
23402539 116 18201711834882705773
23402655 69 18261109651610996956
23463225 33 18335139782562608486
23557571 272 17988929963455196793
23559900 14 18342166821389638400
3286 77 18337387261839901060
3312278 4 18342459227041903313
3545911 37 18341333305586461929
4214541 1 18411418397260140640
4990 188 18272098180105049390
5104073 3 18410292532077034192
559249 180 18336541616896567602
57096353 35 18191309479488194199
573450 72 18409158901134047690
633830 44 17095248016464058292
77779 3 18411983568117653988
9709674 26 18410863187017674070
9981440 41 17325210023058097784

>  <PUBCHEM_SHAPE_MULTIPOLES>  (1) 
298.5
8.95
1.88
0.67
4.91
0.13
0
0.99
-0.55
-1.93
0.06
0.08
-0.03
-0.83

>  <PUBCHEM_SHAPE_SELFOVERLAP>  (1) 
643.998

>  <PUBCHEM_SHAPE_VOLUME>  (1) 
160.9

>  <PUBCHEM_COORDINATE_TYPE>  (1) 
2
5
10

$$$$
