34931
     RDKit          3D

 19 20  0  0  0  0  0  0  0  0999 V2000
    4.3643    2.8205   -0.0307 Cl  0  0  0  0  0  0  0  0  0  0  0  0
   -5.7100   -0.9814   -0.0767 Cl  0  0  0  0  0  0  0  0  0  0  0  0
    2.5682   -1.7894   -0.0233 N   0  0  0  0  0  0  0  0  0  0  0  0
   -0.4731    1.7816   -0.0568 N   0  0  0  0  0  0  0  0  0  0  0  0
    1.0227   -0.0251   -0.0403 N   0  0  0  0  0  0  0  0  0  0  0  0
    3.3826    0.4091   -0.0258 N   0  0  0  0  0  0  0  0  0  0  0  0
    1.8269    2.2358   -0.0428 N   0  0  0  0  0  0  0  0  0  0  0  0
    1.5083   -2.7966   -0.0254 C   0  0  0  0  0  0  0  0  0  0  0  0
    2.0644   -4.1179   -0.5466 C   0  0  0  0  0  0  0  0  0  0  0  0
    0.9312   -2.9601    1.3779 C   0  0  0  0  0  0  0  0  0  0  0  0
    2.3183   -0.4367   -0.0298 C   0  0  0  0  0  0  0  0  0  0  0  0
   -1.7182    1.1254   -0.0622 C   0  0  0  0  0  0  0  0  0  0  0  0
    0.8567    1.3075   -0.0461 C   0  0  0  0  0  0  0  0  0  0  0  0
   -2.8293    1.7262    0.5327 C   0  0  0  0  0  0  0  0  0  0  0  0
   -1.8459   -0.1292   -0.6619 C   0  0  0  0  0  0  0  0  0  0  0  0
   -4.0630    1.0753    0.5282 C   0  0  0  0  0  0  0  0  0  0  0  0
   -3.0796   -0.7803   -0.6665 C   0  0  0  0  0  0  0  0  0  0  0  0
    3.0638    1.7134   -0.0324 C   0  0  0  0  0  0  0  0  0  0  0  0
   -4.1882   -0.1780   -0.0715 C   0  0  0  0  0  0  0  0  0  0  0  0
  1 18  1  0
  2 19  1  0
  3  8  1  0
  3 11  1  0
  4 12  1  0
  4 13  1  0
  5 11  2  0
  5 13  1  0
  6 11  1  0
  6 18  2  0
  7 13  2  0
  7 18  1  0
  8  9  1  0
  8 10  1  0
 12 14  2  0
 12 15  1  0
 14 16  1  0
 15 17  2  0
 16 19  2  0
 17 19  1  0
M  END
>  <PUBCHEM_COMPOUND_CID>  (1) 
34931

>  <PUBCHEM_CONFORMER_RMSD>  (1) 
0.6

>  <PUBCHEM_CONFORMER_DIVERSEORDER>  (1) 
1
63
11
12
55
30
4
57
36
65
20
31
18
14
32
33
64
54
21
2
61
51
16
26
49
53
34
29
59
44
15
13
43
48
37
46
42
25
35
50
56
40
6
19
47
41
60
52
7
10
39
62
38
27
22
24
5
23
28
3
45
17
8
58
9

>  <PUBCHEM_MMFF94_PARTIAL_CHARGES>  (1) 
23
1 -0.18
11 0.72
12 0.1
13 0.72
14 -0.15
15 -0.15
16 -0.15
17 -0.15
18 0.8
19 0.18
2 -0.18
21 0.4
28 0.4
29 0.15
3 -0.87
30 0.15
31 0.15
32 0.15
4 -0.6
5 -0.62
6 -0.62
7 -0.62
8 0.37

>  <PUBCHEM_EFFECTIVE_ROTOR_COUNT>  (1) 
4

>  <PUBCHEM_PHARMACOPHORE_FEATURES>  (1) 
7
1 3 donor
1 4 donor
3 8 9 10 hydrophobe
4 3 5 6 11 cation
4 4 5 7 13 cation
6 12 14 15 16 17 19 rings
6 5 6 7 11 13 18 rings

>  <PUBCHEM_HEAVY_ATOM_COUNT>  (1) 
19

>  <PUBCHEM_ATOM_DEF_STEREO_COUNT>  (1) 
0

>  <PUBCHEM_ATOM_UDEF_STEREO_COUNT>  (1) 
0

>  <PUBCHEM_BOND_DEF_STEREO_COUNT>  (1) 
0

>  <PUBCHEM_BOND_UDEF_STEREO_COUNT>  (1) 
0

>  <PUBCHEM_ISOTOPIC_ATOM_COUNT>  (1) 
0

>  <PUBCHEM_COMPONENT_COUNT>  (1) 
1

>  <PUBCHEM_CACTVS_TAUTO_COUNT>  (1) 
9

>  <PUBCHEM_CONFORMER_ID>  (1) 
0000887300000001

>  <PUBCHEM_MMFF94_ENERGY>  (1) 
54.1736

>  <PUBCHEM_FEATURE_SELFOVERLAP>  (1) 
35.562

>  <PUBCHEM_SHAPE_FINGERPRINT>  (1) 
10090160 65 18263637523459225989
10616163 171 18340488966962221687
12107183 9 17766571149131265297
12553582 1 17688868635951531531
12596602 18 17559973159164314595
13533116 47 18343016675996747611
13836976 161 18115871965379716044
138480 1 18122907529953782550
14178342 30 18196639701902529600
14863182 85 18334867159481996108
15196674 1 18412545410001486309
15375462 189 18130784568773062705
15442244 35 18125442999351037017
17492 89 18340769226732388199
20028762 73 18272083916376825726
20286276 3 18267029358259938133
20291156 8 17978229357290551323
20567600 347 18260828241211796154
20600515 1 17337594449522659980
20645477 70 18335695023271351079
21197605 99 18120100734788518123
21267235 1 18341902899907089805
21421861 104 18264490594068795865
221490 88 18337117747946410315
22445834 79 18341612594810018765
2255824 54 18408889538023302732
23559900 14 18196082253385196721
239999 70 18273221880503385390
2871803 45 18410290324294992837
3091708 16 9259681751026922026
314173 41 17978514130759901871
33824 294 18408321107301046155
474229 33 18264487463148347944
5104073 3 18412827967357513625
5486654 2 18195249038568166476
7097593 13 18197500614890110249
7364860 26 18340205189750742686
8272917 22 18410577271065306789
9709674 26 18335989670955346395

>  <PUBCHEM_SHAPE_MULTIPOLES>  (1) 
369.85
9.17
4.1
0.8
8.83
4
0.12
-2.6
-0.17
-5.39
0.2
0.12
0.36
-0.38

>  <PUBCHEM_SHAPE_SELFOVERLAP>  (1) 
756.017

>  <PUBCHEM_SHAPE_VOLUME>  (1) 
211.6

>  <PUBCHEM_COORDINATE_TYPE>  (1) 
2
5
10

$$$$
