34939
     RDKit          3D

 15 15  0  0  0  0  0  0  0  0999 V2000
   -0.0959    2.3709    0.0064 N   0  0  0  0  0  0  0  0  0  0  0  0
    2.1571   -1.7423   -0.0072 N   0  0  0  0  0  0  0  0  0  0  0  0
    1.0583    0.3293    0.0016 N   0  0  0  0  0  0  0  0  0  0  0  0
   -0.1881   -1.7211   -0.0040 N   0  0  0  0  0  0  0  0  0  0  0  0
   -1.3406    0.3835    0.0032 N   0  0  0  0  0  0  0  0  0  0  0  0
   -3.7274   -1.0090    0.0000 N   0  0  0  0  0  0  0  0  0  0  0  0
   -4.7249   -0.4555    0.0028 N   0  0  0  0  0  0  0  0  0  0  0  0
    1.1210    3.1453    0.0077 C   0  0  0  0  0  0  0  0  0  0  0  0
    3.4431   -1.1186   -0.0062 C   0  0  0  0  0  0  0  0  0  0  0  0
   -0.1270    0.9847    0.0041 C   0  0  0  0  0  0  0  0  0  0  0  0
    0.9505   -1.0091   -0.0026 C   0  0  0  0  0  0  0  0  0  0  0  0
    0.7972    4.6268   -0.0122 C   0  0  0  0  0  0  0  0  0  0  0  0
    4.5343   -2.1717    0.0104 C   0  0  0  0  0  0  0  0  0  0  0  0
   -1.2932   -0.9585   -0.0011 C   0  0  0  0  0  0  0  0  0  0  0  0
   -2.5644   -1.6547   -0.0031 C   0  0  0  0  0  0  0  0  0  0  0  0
  1  8  1  0
  1 10  1  0
  2  9  1  0
  2 11  1  0
  3 10  2  0
  3 11  1  0
  4 11  2  0
  4 14  1  0
  5 10  1  0
  5 14  2  0
  6  7  2  0
  6 15  2  0
  8 12  1  0
  9 13  1  0
 14 15  1  0
M  CHG  2   6   1   7  -1
M  END
>  <PUBCHEM_COMPOUND_CID>  (1) 
34939

>  <PUBCHEM_CONFORMER_RMSD>  (1) 
0.6

>  <PUBCHEM_CONFORMER_DIVERSEORDER>  (1) 
1
22
31
10
35
36
14
25
19
5
3
21
39
15
13
8
29
32
2
11
23
30
28
27
4
17
18
38
33
34
37
12
9
24
6
20
16
26
7

>  <PUBCHEM_MMFF94_PARTIAL_CHARGES>  (1) 
16
1 -0.87
10 0.72
11 0.72
14 0.71
15 -0.13
2 -0.87
20 0.4
21 0.4
28 0.06
3 -0.62
4 -0.62
5 -0.62
6 0.36
7 -0.37
8 0.37
9 0.37

>  <PUBCHEM_EFFECTIVE_ROTOR_COUNT>  (1) 
5

>  <PUBCHEM_PHARMACOPHORE_FEATURES>  (1) 
6
1 1 donor
1 2 donor
1 6 acceptor
4 1 3 5 10 cation
4 2 3 4 11 cation
6 3 4 5 10 11 14 rings

>  <PUBCHEM_HEAVY_ATOM_COUNT>  (1) 
15

>  <PUBCHEM_ATOM_DEF_STEREO_COUNT>  (1) 
0

>  <PUBCHEM_ATOM_UDEF_STEREO_COUNT>  (1) 
0

>  <PUBCHEM_BOND_DEF_STEREO_COUNT>  (1) 
0

>  <PUBCHEM_BOND_UDEF_STEREO_COUNT>  (1) 
0

>  <PUBCHEM_ISOTOPIC_ATOM_COUNT>  (1) 
0

>  <PUBCHEM_COMPONENT_COUNT>  (1) 
1

>  <PUBCHEM_CACTVS_TAUTO_COUNT>  (1) 
5

>  <PUBCHEM_CONFORMER_ID>  (1) 
0000887B00000001

>  <PUBCHEM_MMFF94_ENERGY>  (1) 
30.8247

>  <PUBCHEM_FEATURE_SELFOVERLAP>  (1) 
30.488

>  <PUBCHEM_SHAPE_FINGERPRINT>  (1) 
10756046 70 17988356096006282599
10989021 7 18411700993471105546
11833330 49 18264485092442464608
12788726 201 18116715106278332394
14648413 74 18192432102493544019
15042514 8 18122065290861012170
18785283 64 17973445691456712393
193761 8 17834394896851382726
20510252 161 18197213655583184130
20671657 1 18266744769294599623
20671657 53 18413393128796890495
21029758 11 18409728443529984631
212916 134 17264677500869342088
21339142 36 18337100155749504855
21426921 1 18050569548019466038
21524375 3 17191798580524815709
23366157 5 17971748032597223918
23402539 116 18199740371584193519
23419403 2 18116126996232106188
23557571 272 18268718208183687958
23558518 356 17685786713749555346
2748010 2 18268407106105603756
305870 269 17834113426364460917
3071541 12 18194684988891561973
3071541 158 18334010614169920549
3071541 250 18409737287141804454
3091708 16 9283290468745790176
43471831 8 17473541829277018570
458136 41 17832438861692056657
532947 4 18052546761947248708
68521 5 18266180530729748110
7364860 26 18267585899599816949
81228 2 18125178046971017994
84936 182 17841155764218349513

>  <PUBCHEM_SHAPE_MULTIPOLES>  (1) 
273.83
6.32
4.54
0.57
1.13
8.44
0
-6.96
-0.01
-2.56
0.01
-0.05
0.01
0

>  <PUBCHEM_SHAPE_SELFOVERLAP>  (1) 
546.47

>  <PUBCHEM_SHAPE_VOLUME>  (1) 
152.7

>  <PUBCHEM_COORDINATE_TYPE>  (1) 
2
5
10

$$$$
