34935
     RDKit          3D

 12 12  0  0  0  0  0  0  0  0999 V2000
    2.7417   -1.1927   -0.0001 O   0  0  0  0  0  0  0  0  0  0  0  0
    1.5414    0.8344    0.0018 N   0  0  0  0  0  0  0  0  0  0  0  0
   -0.0238   -0.9019    0.0014 N   0  0  0  0  0  0  0  0  0  0  0  0
   -0.7284    1.3919    0.0019 N   0  0  0  0  0  0  0  0  0  0  0  0
   -2.3626   -0.3652   -0.0007 N   0  0  0  0  0  0  0  0  0  0  0  0
   -3.0198    1.8862   -0.0026 N   0  0  0  0  0  0  0  0  0  0  0  0
    0.2003    0.4221    0.0022 C   0  0  0  0  0  0  0  0  0  0  0  0
   -1.3280   -1.2213   -0.0001 C   0  0  0  0  0  0  0  0  0  0  0  0
   -1.9870    0.9240    0.0003 C   0  0  0  0  0  0  0  0  0  0  0  0
   -1.6618   -2.6743   -0.0013 C   0  0  0  0  0  0  0  0  0  0  0  0
    2.6849    0.0327    0.0008 C   0  0  0  0  0  0  0  0  0  0  0  0
    3.9431    0.8641   -0.0038 C   0  0  0  0  0  0  0  0  0  0  0  0
  1 11  2  0
  2  7  1  0
  2 11  1  0
  3  7  2  0
  3  8  1  0
  4  7  1  0
  4  9  2  0
  5  8  2  0
  5  9  1  0
  6  9  1  0
  8 10  1  0
 11 12  1  0
M  END
>  <PUBCHEM_COMPOUND_CID>  (1) 
34935

>  <PUBCHEM_CONFORMER_RMSD>  (1) 
0.6

>  <PUBCHEM_CONFORMER_DIVERSEORDER>  (1) 
1
4
5
6
3
2
8
7

>  <PUBCHEM_MMFF94_PARTIAL_CHARGES>  (1) 
15
1 -0.57
10 0.14
11 0.57
12 0.06
13 0.37
2 -0.55
20 0.4
21 0.4
3 -0.62
4 -0.62
5 -0.62
6 -0.9
7 0.74
8 0.48
9 0.72

>  <PUBCHEM_EFFECTIVE_ROTOR_COUNT>  (1) 
2

>  <PUBCHEM_PHARMACOPHORE_FEATURES>  (1) 
5
1 1 acceptor
1 2 donor
1 6 donor
4 4 5 6 9 cation
6 3 4 5 7 8 9 rings

>  <PUBCHEM_HEAVY_ATOM_COUNT>  (1) 
12

>  <PUBCHEM_ATOM_DEF_STEREO_COUNT>  (1) 
0

>  <PUBCHEM_ATOM_UDEF_STEREO_COUNT>  (1) 
0

>  <PUBCHEM_BOND_DEF_STEREO_COUNT>  (1) 
0

>  <PUBCHEM_BOND_UDEF_STEREO_COUNT>  (1) 
0

>  <PUBCHEM_ISOTOPIC_ATOM_COUNT>  (1) 
0

>  <PUBCHEM_COMPONENT_COUNT>  (1) 
1

>  <PUBCHEM_CACTVS_TAUTO_COUNT>  (1) 
13

>  <PUBCHEM_CONFORMER_ID>  (1) 
0000887700000001

>  <PUBCHEM_MMFF94_ENERGY>  (1) 
28.6192

>  <PUBCHEM_FEATURE_SELFOVERLAP>  (1) 
25.371

>  <PUBCHEM_SHAPE_FINGERPRINT>  (1) 
10608611 8 18341890831429120936
12500047 106 18411693275452064216
12716758 59 18412821382660633459
12932764 1 17489021673438572862
13024252 1 14851599994824349845
13380535 21 18411992351315328758
13380535 76 18341891836081988767
14325111 11 18410856521117225536
15669948 3 18410851101063644358
15775835 57 18261959552803759704
16945 1 18338797926267255265
193761 8 18050567640663680865
20510252 161 18272092677777442961
20645476 183 17969525760736622014
20645477 56 18410293609850398800
20871998 184 18200880698212174487
23402539 116 18342728655184033591
23552423 10 18116432733462974078
23559900 14 18271805688869455514
2748010 2 18265626376990648871
3071541 12 17547856248530557349
3312278 4 18341335578030278576
369184 2 18343301470086450696
6333449 129 18412260653173733404
75552 356 18410575123544637996

>  <PUBCHEM_SHAPE_MULTIPOLES>  (1) 
216.18
5.34
2.16
0.57
4.8
0.83
0
-1.03
0.01
-2
0
0.01
0.01
0

>  <PUBCHEM_SHAPE_SELFOVERLAP>  (1) 
440.664

>  <PUBCHEM_SHAPE_VOLUME>  (1) 
121.8

>  <PUBCHEM_COORDINATE_TYPE>  (1) 
2
5
10

$$$$
