34944
     RDKit          3D

 14 14  0  0  0  0  0  0  0  0999 V2000
   -4.1635    0.3047    1.0740 Cl  0  0  0  0  0  0  0  0  0  0  0  0
    0.9259    2.2764   -0.0256 N   0  0  0  0  0  0  0  0  0  0  0  0
    0.5727   -2.4001   -0.0394 N   0  0  0  0  0  0  0  0  0  0  0  0
    0.7809   -0.0644   -0.0305 N   0  0  0  0  0  0  0  0  0  0  0  0
   -1.3679   -1.1046   -0.2724 N   0  0  0  0  0  0  0  0  0  0  0  0
   -1.1871    1.2882   -0.2654 N   0  0  0  0  0  0  0  0  0  0  0  0
    2.3587    2.2627    0.1400 C   0  0  0  0  0  0  0  0  0  0  0  0
    1.9815   -2.5783    0.1242 C   0  0  0  0  0  0  0  0  0  0  0  0
    0.1492    1.1311   -0.1104 C   0  0  0  0  0  0  0  0  0  0  0  0
   -0.0342   -1.1278   -0.1185 C   0  0  0  0  0  0  0  0  0  0  0  0
   -1.8748    0.1372   -0.3381 C   0  0  0  0  0  0  0  0  0  0  0  0
    2.8942    3.6813    0.1734 C   0  0  0  0  0  0  0  0  0  0  0  0
    2.3162   -4.0557    0.1961 C   0  0  0  0  0  0  0  0  0  0  0  0
   -3.3518    0.2492   -0.5072 C   0  0  0  0  0  0  0  0  0  0  0  0
  1 14  1  0
  2  7  1  0
  2  9  1  0
  3  8  1  0
  3 10  1  0
  4  9  2  0
  4 10  1  0
  5 10  2  0
  5 11  1  0
  6  9  1  0
  6 11  2  0
  7 12  1  0
  8 13  1  0
 11 14  1  0
M  END
>  <PUBCHEM_COMPOUND_CID>  (1) 
34944

>  <PUBCHEM_CONFORMER_RMSD>  (1) 
0.6

>  <PUBCHEM_CONFORMER_DIVERSEORDER>  (1) 
1
26
38
28
34
29
17
22
30
31
13
15
32
27
18
5
39
25
6
20
33
2
16
11
35
10
19
3
12
21
36
24
4
8
14
9
7
37
23

>  <PUBCHEM_MMFF94_PARTIAL_CHARGES>  (1) 
14
1 -0.29
10 0.72
11 0.48
14 0.43
19 0.4
2 -0.87
20 0.4
3 -0.87
4 -0.62
5 -0.62
6 -0.62
7 0.37
8 0.37
9 0.72

>  <PUBCHEM_EFFECTIVE_ROTOR_COUNT>  (1) 
5

>  <PUBCHEM_PHARMACOPHORE_FEATURES>  (1) 
5
1 2 donor
1 3 donor
4 2 4 6 9 cation
4 3 4 5 10 cation
6 4 5 6 9 10 11 rings

>  <PUBCHEM_HEAVY_ATOM_COUNT>  (1) 
14

>  <PUBCHEM_ATOM_DEF_STEREO_COUNT>  (1) 
0

>  <PUBCHEM_ATOM_UDEF_STEREO_COUNT>  (1) 
0

>  <PUBCHEM_BOND_DEF_STEREO_COUNT>  (1) 
0

>  <PUBCHEM_BOND_UDEF_STEREO_COUNT>  (1) 
0

>  <PUBCHEM_ISOTOPIC_ATOM_COUNT>  (1) 
0

>  <PUBCHEM_COMPONENT_COUNT>  (1) 
1

>  <PUBCHEM_CACTVS_TAUTO_COUNT>  (1) 
5

>  <PUBCHEM_CONFORMER_ID>  (1) 
0000888000000001

>  <PUBCHEM_MMFF94_ENERGY>  (1) 
28.8338

>  <PUBCHEM_FEATURE_SELFOVERLAP>  (1) 
25.414

>  <PUBCHEM_SHAPE_FINGERPRINT>  (1) 
1 1 18410008883424819525
108231 29 18045510716062616179
12532896 13 18052544557927172060
13140716 1 18338801246366659122
136203 1 17185877731593804873
14022349 108 18409157818849736048
15042514 8 17111567251458798738
16945 1 18410568470703580581
18785283 64 18334303097042406600
19021347 4 17978511162989864514
20510252 161 17694788819077774233
20645477 70 18262784221496188591
20671657 1 18412833481852635463
21041028 32 18050860909588795137
21061003 4 18119535323775851723
21426921 1 17258215164727868878
21524375 3 18057325204747174461
21650355 55 17688586065805438435
21665056 4 17977661236586460620
23402539 116 17117174219546929253
23557571 272 17403175898451049254
2748010 2 18119536676083732767
305870 269 18339927125057465729
3071541 12 18411699855199536941
3071541 250 18194410995621384598
3091708 16 9256867009443620146
43471831 8 18266174122575245323
458136 41 18337404840972348721
54173680 148 16968574681744399476
58807428 26 18267581493121750664
7364860 26 18411697668860450319
81228 2 17188127895130516585

>  <PUBCHEM_SHAPE_MULTIPOLES>  (1) 
265.08
5.31
4.86
0.73
5.13
0.63
0.09
-0.6
1.16
-8.44
0.47
0.47
-0.01
-0.02

>  <PUBCHEM_SHAPE_SELFOVERLAP>  (1) 
514.356

>  <PUBCHEM_SHAPE_VOLUME>  (1) 
160.5

>  <PUBCHEM_COORDINATE_TYPE>  (1) 
2
5
10

$$$$
