34946
     RDKit          3D

 13 13  0  0  0  0  0  0  0  0999 V2000
   -1.9806   -2.3837    1.4631 Cl  0  0  0  0  0  0  0  0  0  0  0  0
   -1.9755   -2.3879   -1.4634 Cl  0  0  0  0  0  0  0  0  0  0  0  0
    2.3004    0.2895    0.0099 N   0  0  0  0  0  0  0  0  0  0  0  0
    0.1087   -0.5444    0.0023 N   0  0  0  0  0  0  0  0  0  0  0  0
    0.5230    1.8191    0.0018 N   0  0  0  0  0  0  0  0  0  0  0  0
   -1.7310    0.9961   -0.0043 N   0  0  0  0  0  0  0  0  0  0  0  0
   -1.2953    3.3003   -0.0031 N   0  0  0  0  0  0  0  0  0  0  0  0
    2.8853   -1.0218    0.0147 C   0  0  0  0  0  0  0  0  0  0  0  0
    0.9312    0.5295    0.0038 C   0  0  0  0  0  0  0  0  0  0  0  0
   -1.1983   -0.2365   -0.0018 C   0  0  0  0  0  0  0  0  0  0  0  0
    4.3982   -0.9546   -0.0188 C   0  0  0  0  0  0  0  0  0  0  0  0
   -0.8109    1.9740   -0.0026 C   0  0  0  0  0  0  0  0  0  0  0  0
   -2.1553   -1.3796   -0.0018 C   0  0  0  0  0  0  0  0  0  0  0  0
  1 13  1  0
  2 13  1  0
  3  8  1  0
  3  9  1  0
  4  9  2  0
  4 10  1  0
  5  9  1  0
  5 12  2  0
  6 10  2  0
  6 12  1  0
  7 12  1  0
  8 11  1  0
 10 13  1  0
M  END
>  <PUBCHEM_COMPOUND_CID>  (1) 
34946

>  <PUBCHEM_CONFORMER_RMSD>  (1) 
0.6

>  <PUBCHEM_CONFORMER_DIVERSEORDER>  (1) 
1
13
5
3
7
18
14
6
15
16
9
10
4
2
12
17
8
11

>  <PUBCHEM_MMFF94_PARTIAL_CHARGES>  (1) 
15
1 -0.29
10 0.48
12 0.72
13 0.72
16 0.4
2 -0.29
21 0.4
22 0.4
3 -0.87
4 -0.62
5 -0.62
6 -0.62
7 -0.9
8 0.37
9 0.72

>  <PUBCHEM_EFFECTIVE_ROTOR_COUNT>  (1) 
3

>  <PUBCHEM_PHARMACOPHORE_FEATURES>  (1) 
5
1 3 donor
1 7 donor
4 3 4 5 9 cation
4 5 6 7 12 cation
6 4 5 6 9 10 12 rings

>  <PUBCHEM_HEAVY_ATOM_COUNT>  (1) 
13

>  <PUBCHEM_ATOM_DEF_STEREO_COUNT>  (1) 
0

>  <PUBCHEM_ATOM_UDEF_STEREO_COUNT>  (1) 
0

>  <PUBCHEM_BOND_DEF_STEREO_COUNT>  (1) 
0

>  <PUBCHEM_BOND_UDEF_STEREO_COUNT>  (1) 
0

>  <PUBCHEM_ISOTOPIC_ATOM_COUNT>  (1) 
0

>  <PUBCHEM_COMPONENT_COUNT>  (1) 
1

>  <PUBCHEM_CACTVS_TAUTO_COUNT>  (1) 
9

>  <PUBCHEM_CONFORMER_ID>  (1) 
0000888200000001

>  <PUBCHEM_MMFF94_ENERGY>  (1) 
27.863

>  <PUBCHEM_FEATURE_SELFOVERLAP>  (1) 
25.414

>  <PUBCHEM_SHAPE_FINGERPRINT>  (1) 
1 1 17255401518281424228
11357001 24 18335427824359861066
12759256 9 17545875392154061809
13380535 76 17980196387908286772
14817 1 7780657312261011379
15669948 3 18337667495687081418
16945 1 18339356357899490792
20524608 308 18197776609530567310
20645476 183 17536061890362840806
20645477 70 17472120152596215487
20711985 344 18336813221848209898
20871998 184 18343025449750049542
20871998 22 18193279817173192538
21524375 3 17833824976144713677
23402539 116 18199455598309710165
23526113 38 17828744459657465859
23559900 14 18055628410030960058
257057 1 18198047273831929487
2748010 2 18267577090622016357
6338986 31 18126830810484607350
81228 2 18336816533310485393

>  <PUBCHEM_SHAPE_MULTIPOLES>  (1) 
246.37
4.91
3.25
0.98
6.34
2.26
0
-4.2
-0.01
-1.94
-0.01
-0.86
-0.85
0.01

>  <PUBCHEM_SHAPE_SELFOVERLAP>  (1) 
476.525

>  <PUBCHEM_SHAPE_VOLUME>  (1) 
148

>  <PUBCHEM_COORDINATE_TYPE>  (1) 
2
5
10

$$$$
