34942
     RDKit          3D

 16 17  0  0  0  0  0  0  0  0999 V2000
    2.5567   -3.2354    0.6979 Cl  0  0  0  0  0  0  0  0  0  0  0  0
   -0.7156    1.2487    0.2310 N   0  0  0  0  0  0  0  0  0  0  0  0
    0.7910   -0.4802   -0.2592 N   0  0  0  0  0  0  0  0  0  0  0  0
    1.5794    1.7307    0.2393 N   0  0  0  0  0  0  0  0  0  0  0  0
    3.1455   -0.0173   -0.2602 N   0  0  0  0  0  0  0  0  0  0  0  0
    3.8862    2.1531    0.2290 N   0  0  0  0  0  0  0  0  0  0  0  0
   -1.9576    0.5880    0.1293 C   0  0  0  0  0  0  0  0  0  0  0  0
    0.6131    0.8129    0.0632 C   0  0  0  0  0  0  0  0  0  0  0  0
   -3.0928    1.2949   -0.2676 C   0  0  0  0  0  0  0  0  0  0  0  0
   -2.0509   -0.7720    0.4246 C   0  0  0  0  0  0  0  0  0  0  0  0
    2.0811   -0.8232   -0.4044 C   0  0  0  0  0  0  0  0  0  0  0  0
   -4.3210    0.6417   -0.3694 C   0  0  0  0  0  0  0  0  0  0  0  0
   -3.2792   -1.4251    0.3229 C   0  0  0  0  0  0  0  0  0  0  0  0
   -4.4142   -0.7183   -0.0742 C   0  0  0  0  0  0  0  0  0  0  0  0
    2.8185    1.2444    0.0619 C   0  0  0  0  0  0  0  0  0  0  0  0
    2.3598   -2.2429   -0.7643 C   0  0  0  0  0  0  0  0  0  0  0  0
  1 16  1  0
  2  7  1  0
  2  8  1  0
  3  8  2  0
  3 11  1  0
  4  8  1  0
  4 15  2  0
  5 11  2  0
  5 15  1  0
  6 15  1  0
  7  9  2  0
  7 10  1  0
  9 12  1  0
 10 13  2  0
 11 16  1  0
 12 14  2  0
 13 14  1  0
M  END
>  <PUBCHEM_COMPOUND_CID>  (1) 
34942

>  <PUBCHEM_CONFORMER_RMSD>  (1) 
0.6

>  <PUBCHEM_CONFORMER_DIVERSEORDER>  (1) 
2
18
19
12
5
20
17
8
13
16
7
15
1
23
4
21
6
14
3
11
22
10
9

>  <PUBCHEM_MMFF94_PARTIAL_CHARGES>  (1) 
24
1 -0.29
10 -0.15
11 0.48
12 -0.15
13 -0.15
14 -0.15
15 0.72
16 0.43
17 0.4
18 0.15
19 0.15
2 -0.6
20 0.15
21 0.15
22 0.15
25 0.4
26 0.4
3 -0.62
4 -0.62
5 -0.62
6 -0.9
7 0.1
8 0.72
9 -0.15

>  <PUBCHEM_EFFECTIVE_ROTOR_COUNT>  (1) 
3

>  <PUBCHEM_PHARMACOPHORE_FEATURES>  (1) 
6
1 2 donor
1 6 donor
4 2 3 4 8 cation
4 4 5 6 15 cation
6 3 4 5 8 11 15 rings
6 7 9 10 12 13 14 rings

>  <PUBCHEM_HEAVY_ATOM_COUNT>  (1) 
16

>  <PUBCHEM_ATOM_DEF_STEREO_COUNT>  (1) 
0

>  <PUBCHEM_ATOM_UDEF_STEREO_COUNT>  (1) 
0

>  <PUBCHEM_BOND_DEF_STEREO_COUNT>  (1) 
0

>  <PUBCHEM_BOND_UDEF_STEREO_COUNT>  (1) 
0

>  <PUBCHEM_ISOTOPIC_ATOM_COUNT>  (1) 
0

>  <PUBCHEM_COMPONENT_COUNT>  (1) 
1

>  <PUBCHEM_CACTVS_TAUTO_COUNT>  (1) 
9

>  <PUBCHEM_CONFORMER_ID>  (1) 
0000887E00000002

>  <PUBCHEM_MMFF94_ENERGY>  (1) 
50.8215

>  <PUBCHEM_FEATURE_SELFOVERLAP>  (1) 
30.489

>  <PUBCHEM_SHAPE_FINGERPRINT>  (1) 
10608611 8 18410291411022283133
10616163 171 18267869561047574055
11471102 20 18342175591707445500
12553582 1 17907874898300805290
13296908 3 18411140221161061807
15196674 1 18411700989424155527
15219456 202 18411139151661574525
15375358 24 18334856164418355129
15375462 6 18411138047623039973
15442244 35 18196093235606042697
15536298 74 18413389817392910027
17834074 16 18410577292619218967
18186145 218 17967814899553691319
200 152 17846215596675589453
20201158 50 18411140251109801363
20279233 1 18335706069747894721
20645477 56 18187364307921063941
20645477 70 18343865498235153127
20671657 53 18194967339967897446
21501502 16 18270970024728803721
21501925 9 18341041909525532442
221490 88 18410302397342923890
23402539 116 17822559625041235365
23402655 69 18343863320913704093
23557571 272 17530960263757814669
23559900 14 18339355258567029306
2871803 45 18411140255119964646
33824 294 18411701019056585290
474229 33 18195527215109674784
5104073 3 18410859828800921243
58051976 378 18339642346934374029
5902787 121 18194118508644140274
7364860 26 18412825755312055882
81539 233 18337109063975757316
9709674 26 18408609184049029891

>  <PUBCHEM_SHAPE_MULTIPOLES>  (1) 
306.24
8.22
2.73
0.73
4.87
1.43
-0.02
0.28
-0.33
-3.33
0.39
-0.12
0.21
0.32

>  <PUBCHEM_SHAPE_SELFOVERLAP>  (1) 
640.317

>  <PUBCHEM_SHAPE_VOLUME>  (1) 
171.8

>  <PUBCHEM_COORDINATE_TYPE>  (1) 
2
5
10

$$$$
