34949
     RDKit          3D

 18 19  0  0  0  0  0  0  0  0999 V2000
    3.3431   -1.9671    1.6008 Cl  0  0  0  0  0  0  0  0  0  0  0  0
    1.0612   -2.9733    0.1560 Cl  0  0  0  0  0  0  0  0  0  0  0  0
    3.3801   -2.0997   -1.3227 Cl  0  0  0  0  0  0  0  0  0  0  0  0
   -1.2093    1.4495   -0.0848 N   0  0  0  0  0  0  0  0  0  0  0  0
    0.5361   -0.1135    0.0137 N   0  0  0  0  0  0  0  0  0  0  0  0
    0.9991    2.2383   -0.0984 N   0  0  0  0  0  0  0  0  0  0  0  0
    2.8065    0.6631   -0.0003 N   0  0  0  0  0  0  0  0  0  0  0  0
    3.2281    2.9671   -0.1122 N   0  0  0  0  0  0  0  0  0  0  0  0
   -2.3466    0.6156   -0.0567 C   0  0  0  0  0  0  0  0  0  0  0  0
    0.1726    1.1790   -0.0545 C   0  0  0  0  0  0  0  0  0  0  0  0
   -3.5344    1.0758    0.5115 C   0  0  0  0  0  0  0  0  0  0  0  0
   -2.2841   -0.6684   -0.5979 C   0  0  0  0  0  0  0  0  0  0  0  0
    1.8664   -0.2950    0.0373 C   0  0  0  0  0  0  0  0  0  0  0  0
   -4.6598    0.2521    0.5385 C   0  0  0  0  0  0  0  0  0  0  0  0
   -3.4094   -1.4921   -0.5709 C   0  0  0  0  0  0  0  0  0  0  0  0
    2.2994    1.9045   -0.0674 C   0  0  0  0  0  0  0  0  0  0  0  0
    2.3485   -1.7039    0.1107 C   0  0  0  0  0  0  0  0  0  0  0  0
   -4.5974   -1.0320   -0.0027 C   0  0  0  0  0  0  0  0  0  0  0  0
  1 17  1  0
  2 17  1  0
  3 17  1  0
  4  9  1  0
  4 10  1  0
  5 10  2  0
  5 13  1  0
  6 10  1  0
  6 16  2  0
  7 13  2  0
  7 16  1  0
  8 16  1  0
  9 11  2  0
  9 12  1  0
 11 14  1  0
 12 15  2  0
 13 17  1  0
 14 18  2  0
 15 18  1  0
M  END
>  <PUBCHEM_COMPOUND_CID>  (1) 
34949

>  <PUBCHEM_CONFORMER_RMSD>  (1) 
0.6

>  <PUBCHEM_CONFORMER_DIVERSEORDER>  (1) 
1
7
9
14
4
8
12
15
6
5
13
10
2
3
16
11

>  <PUBCHEM_MMFF94_PARTIAL_CHARGES>  (1) 
26
1 -0.29
10 0.72
11 -0.15
12 -0.15
13 0.48
14 -0.15
15 -0.15
16 0.72
17 1.01
18 -0.15
19 0.4
2 -0.29
20 0.15
21 0.15
22 0.15
23 0.15
24 0.15
25 0.4
26 0.4
3 -0.29
4 -0.6
5 -0.62
6 -0.62
7 -0.62
8 -0.9
9 0.1

>  <PUBCHEM_EFFECTIVE_ROTOR_COUNT>  (1) 
3

>  <PUBCHEM_PHARMACOPHORE_FEATURES>  (1) 
6
1 4 donor
1 8 donor
4 4 5 6 10 cation
4 6 7 8 16 cation
6 5 6 7 10 13 16 rings
6 9 11 12 14 15 18 rings

>  <PUBCHEM_HEAVY_ATOM_COUNT>  (1) 
18

>  <PUBCHEM_ATOM_DEF_STEREO_COUNT>  (1) 
0

>  <PUBCHEM_ATOM_UDEF_STEREO_COUNT>  (1) 
0

>  <PUBCHEM_BOND_DEF_STEREO_COUNT>  (1) 
0

>  <PUBCHEM_BOND_UDEF_STEREO_COUNT>  (1) 
0

>  <PUBCHEM_ISOTOPIC_ATOM_COUNT>  (1) 
0

>  <PUBCHEM_COMPONENT_COUNT>  (1) 
1

>  <PUBCHEM_CACTVS_TAUTO_COUNT>  (1) 
9

>  <PUBCHEM_CONFORMER_ID>  (1) 
0000888500000001

>  <PUBCHEM_MMFF94_ENERGY>  (1) 
55.0815

>  <PUBCHEM_FEATURE_SELFOVERLAP>  (1) 
30.489

>  <PUBCHEM_SHAPE_FINGERPRINT>  (1) 
10616163 171 18197218259661687183
11578080 2 17459736052357750764
12107183 9 17981615870974866353
12553582 1 18266177219078133647
12596599 1 18129954381554379331
12633257 1 18337108965192035619
13140716 1 18411133619643366827
13533116 47 18272931657358748251
14178342 30 17980751650118246442
14252887 29 18130786690529319226
15196674 1 18412265056216812319
15375462 189 18189055300278808163
15422964 175 18052248497537092126
15442244 35 18341335479167130297
15536298 74 18342740723583160015
17492 89 18342178886422693511
18186145 218 18040434386935768855
19422 9 18344150293521997193
20291156 8 18267586814512402943
20442098 301 18201715150433791463
20645477 70 18409724080381236863
20871998 22 18197496225628699526
21421861 104 18338242574190440209
21634736 98 18412830165995698550
221490 88 18409740581128915523
22445834 79 18341613741734929437
2255824 54 18335706052552149294
23366157 5 18186803599497179980
23463225 33 18413389822062228935
23503953 91 18272930480105049987
23559900 14 18273214157893691333
23598291 2 18271816683189460101
314173 41 18267593407234519958
33824 294 18336263560602645555
474 4 18116996804361278845
5104073 3 18411422817525157761
58051976 100 18336830767522992893
5902787 121 18263918852454384834
7364860 26 18342460352534487252
9709674 26 18337396036505728219
9841814 1 18334292024970132626

>  <PUBCHEM_SHAPE_MULTIPOLES>  (1) 
351.14
8.46
3.17
0.95
7.35
0.53
-0.11
-2.28
-0.64
-3.45
0.09
-0.72
-0.55
-0.54

>  <PUBCHEM_SHAPE_SELFOVERLAP>  (1) 
716.25

>  <PUBCHEM_SHAPE_VOLUME>  (1) 
199.3

>  <PUBCHEM_COORDINATE_TYPE>  (1) 
2
5
10

$$$$
