34941
     RDKit          3D

 12 12  0  0  0  0  0  0  0  0999 V2000
   -2.3757   -2.7345    0.8884 Cl  0  0  0  0  0  0  0  0  0  0  0  0
    2.1460    0.4163    0.1046 N   0  0  0  0  0  0  0  0  0  0  0  0
    0.1400   -0.7425   -0.2592 N   0  0  0  0  0  0  0  0  0  0  0  0
    0.1346    1.6206    0.1573 N   0  0  0  0  0  0  0  0  0  0  0  0
   -1.9345    0.4623   -0.2097 N   0  0  0  0  0  0  0  0  0  0  0  0
   -1.9087    2.7709    0.2013 N   0  0  0  0  0  0  0  0  0  0  0  0
    2.9487   -0.7657   -0.0388 C   0  0  0  0  0  0  0  0  0  0  0  0
    0.7601    0.4322   -0.0034 C   0  0  0  0  0  0  0  0  0  0  0  0
    4.4249   -0.4532    0.0937 C   0  0  0  0  0  0  0  0  0  0  0  0
   -1.1967   -0.6510   -0.3481 C   0  0  0  0  0  0  0  0  0  0  0  0
   -1.2018    1.5592    0.0412 C   0  0  0  0  0  0  0  0  0  0  0  0
   -1.9370   -1.9146   -0.6272 C   0  0  0  0  0  0  0  0  0  0  0  0
  1 12  1  0
  2  7  1  0
  2  8  1  0
  3  8  2  0
  3 10  1  0
  4  8  1  0
  4 11  2  0
  5 10  2  0
  5 11  1  0
  6 11  1  0
  7  9  1  0
 10 12  1  0
M  END
>  <PUBCHEM_COMPOUND_CID>  (1) 
34941

>  <PUBCHEM_CONFORMER_RMSD>  (1) 
0.6

>  <PUBCHEM_CONFORMER_DIVERSEORDER>  (1) 
1
15
12
6
9
10
11
7
13
8
5
14
2
3
4

>  <PUBCHEM_MMFF94_PARTIAL_CHARGES>  (1) 
14
1 -0.29
10 0.48
11 0.72
12 0.43
15 0.4
2 -0.87
21 0.4
22 0.4
3 -0.62
4 -0.62
5 -0.62
6 -0.9
7 0.37
8 0.72

>  <PUBCHEM_EFFECTIVE_ROTOR_COUNT>  (1) 
3

>  <PUBCHEM_PHARMACOPHORE_FEATURES>  (1) 
5
1 2 donor
1 6 donor
4 2 3 4 8 cation
4 4 5 6 11 cation
6 3 4 5 8 10 11 rings

>  <PUBCHEM_HEAVY_ATOM_COUNT>  (1) 
12

>  <PUBCHEM_ATOM_DEF_STEREO_COUNT>  (1) 
0

>  <PUBCHEM_ATOM_UDEF_STEREO_COUNT>  (1) 
0

>  <PUBCHEM_BOND_DEF_STEREO_COUNT>  (1) 
0

>  <PUBCHEM_BOND_UDEF_STEREO_COUNT>  (1) 
0

>  <PUBCHEM_ISOTOPIC_ATOM_COUNT>  (1) 
0

>  <PUBCHEM_COMPONENT_COUNT>  (1) 
1

>  <PUBCHEM_CACTVS_TAUTO_COUNT>  (1) 
9

>  <PUBCHEM_CONFORMER_ID>  (1) 
0000887D00000001

>  <PUBCHEM_MMFF94_ENERGY>  (1) 
26.9684

>  <PUBCHEM_FEATURE_SELFOVERLAP>  (1) 
25.414

>  <PUBCHEM_SHAPE_FINGERPRINT>  (1) 
11357001 24 18408888429647394947
12716758 59 18270109111498025352
13380535 76 18126842698922063862
16945 1 18411702058348818317
17841504 4 17832712644493369915
19021347 4 18122911927920860633
20645476 183 17972904478522492246
20645477 70 17399781096492982487
20711985 344 18338780274088955339
20871998 184 18202003239501921550
20871998 22 18050286165412520875
21524375 3 17838608968575356797
23402539 116 18271512114337155669
23500284 5 18334012825973031162
23552423 10 18261951955122534268
23559900 14 18057318398046825966
2748010 2 18125145280792078277
3071541 236 18264757779652142137
3312278 4 18334571360879303026
81228 2 18411125948842513897

>  <PUBCHEM_SHAPE_MULTIPOLES>  (1) 
223.92
5.26
2.78
0.72
7.05
0.68
0.03
-2.98
0.41
-3.11
0.52
-0.28
-0.27
0.21

>  <PUBCHEM_SHAPE_SELFOVERLAP>  (1) 
438.934

>  <PUBCHEM_SHAPE_VOLUME>  (1) 
134.5

>  <PUBCHEM_COORDINATE_TYPE>  (1) 
2
5
10

$$$$
