34950
     RDKit          3D

 15 15  0  0  0  0  0  0  0  0999 V2000
    3.0918    0.7277   -1.4799 Cl  0  0  0  0  0  0  0  0  0  0  0  0
    1.9423    2.8838    0.0487 Cl  0  0  0  0  0  0  0  0  0  0  0  0
    3.1028    0.6411    1.4454 Cl  0  0  0  0  0  0  0  0  0  0  0  0
   -2.6471    0.9577    0.0203 N   0  0  0  0  0  0  0  0  0  0  0  0
   -0.3033    1.0318    0.0082 N   0  0  0  0  0  0  0  0  0  0  0  0
   -1.4653   -1.0670   -0.0383 N   0  0  0  0  0  0  0  0  0  0  0  0
    0.9338   -1.0234   -0.0498 N   0  0  0  0  0  0  0  0  0  0  0  0
   -0.2292   -3.0593   -0.0929 N   0  0  0  0  0  0  0  0  0  0  0  0
    0.9202   -3.7671    0.1659 N   0  0  0  0  0  0  0  0  0  0  0  0
   -1.4268    0.2825   -0.0048 C   0  0  0  0  0  0  0  0  0  0  0  0
    0.8320    0.3152   -0.0157 C   0  0  0  0  0  0  0  0  0  0  0  0
   -2.6975    2.4136    0.0589 C   0  0  0  0  0  0  0  0  0  0  0  0
   -3.9082    0.2276   -0.0055 C   0  0  0  0  0  0  0  0  0  0  0  0
   -0.2549   -1.6479   -0.0593 C   0  0  0  0  0  0  0  0  0  0  0  0
    2.1093    1.0837   -0.0012 C   0  0  0  0  0  0  0  0  0  0  0  0
  1 15  1  0
  2 15  1  0
  3 15  1  0
  4 10  1  0
  4 12  1  0
  4 13  1  0
  5 10  2  0
  5 11  1  0
  6 10  1  0
  6 14  2  0
  7 11  2  0
  7 14  1  0
  8  9  1  0
  8 14  1  0
 11 15  1  0
M  END
>  <PUBCHEM_COMPOUND_CID>  (1) 
34950

>  <PUBCHEM_CONFORMER_RMSD>  (1) 
0.6

>  <PUBCHEM_CONFORMER_DIVERSEORDER>  (1) 
1
6
3
8
7
4
5
2

>  <PUBCHEM_MMFF94_PARTIAL_CHARGES>  (1) 
18
1 -0.29
10 0.72
11 0.48
12 0.37
13 0.37
14 0.72
15 1.01
2 -0.29
22 0.4
23 0.36
24 0.36
3 -0.29
4 -0.84
5 -0.62
6 -0.62
7 -0.62
8 -0.51
9 -0.71

>  <PUBCHEM_EFFECTIVE_ROTOR_COUNT>  (1) 
3

>  <PUBCHEM_PHARMACOPHORE_FEATURES>  (1) 
5
1 8 donor
1 9 donor
4 4 5 6 10 cation
4 6 7 8 14 cation
6 5 6 7 10 11 14 rings

>  <PUBCHEM_HEAVY_ATOM_COUNT>  (1) 
15

>  <PUBCHEM_ATOM_DEF_STEREO_COUNT>  (1) 
0

>  <PUBCHEM_ATOM_UDEF_STEREO_COUNT>  (1) 
0

>  <PUBCHEM_BOND_DEF_STEREO_COUNT>  (1) 
0

>  <PUBCHEM_BOND_UDEF_STEREO_COUNT>  (1) 
0

>  <PUBCHEM_ISOTOPIC_ATOM_COUNT>  (1) 
0

>  <PUBCHEM_COMPONENT_COUNT>  (1) 
1

>  <PUBCHEM_CACTVS_TAUTO_COUNT>  (1) 
4

>  <PUBCHEM_CONFORMER_ID>  (1) 
0000888600000001

>  <PUBCHEM_MMFF94_ENERGY>  (1) 
44.352

>  <PUBCHEM_FEATURE_SELFOVERLAP>  (1) 
26.947

>  <PUBCHEM_SHAPE_FINGERPRINT>  (1) 
1 1 18410855417262963055
12716758 59 18269563904117781292
13380535 76 18341326781583912855
13538477 17 18044367460166062608
14648413 74 18048600318161586841
15490181 7 18413392046549605967
15775835 57 18114462370140631548
16945 1 18339080505008395468
18186145 218 18131358492130814785
193761 8 17329992396042599788
20510252 161 18126855021410193425
20645476 183 18041852838413241830
20671657 1 18269837506287634463
20711985 344 17905053895287948350
21501502 16 18122910833136885605
21524375 3 18260546727453525585
2334 1 18194966244951619037
23402539 116 18055615459812662143
23419403 2 16598502836374132866
23526113 38 18057632930632154750
23526114 1 18123192299043432063
23552423 10 18194968439874845845
23557571 272 17694232462057628556
23598294 1 18047188836793348754
2748010 2 18410302414501453831
305870 269 18339914905479687945
3060560 45 18409168805012355221
3071541 12 18123193398375692133
3071541 158 17614003984421751335
3071541 236 18193261125459871355
3071541 37 18335989653627420383
352729 6 18338235002284312187
43471831 8 18409445869358280859
458136 41 18193301648782062841
633830 44 18202288021967732741
7364860 26 18125153836366951299
74978 22 18265894846885716236
81228 2 17765717205968022859
88987 49 18194401319587606716

>  <PUBCHEM_SHAPE_MULTIPOLES>  (1) 
284.42
5.16
3.53
0.93
1.51
2.99
-0.02
-3.37
0.01
0.22
0.13
-1.07
-0.14
-0.07

>  <PUBCHEM_SHAPE_SELFOVERLAP>  (1) 
547.617

>  <PUBCHEM_SHAPE_VOLUME>  (1) 
171.8

>  <PUBCHEM_COORDINATE_TYPE>  (1) 
2
5
10

$$$$
