34956
     RDKit          3D

 23 23  0  0  0  0  0  0  0  0999 V2000
   -3.3157    2.8279    0.8663 Cl  0  0  0  0  0  0  0  0  0  0  0  0
   -1.2260    3.8151   -0.8558 Cl  0  0  0  0  0  0  0  0  0  0  0  0
   -3.3157    2.1782   -1.9874 Cl  0  0  0  0  0  0  0  0  0  0  0  0
   -3.3608   -2.7839   -0.8829 Cl  0  0  0  0  0  0  0  0  0  0  0  0
   -1.3047   -3.8104    0.8566 Cl  0  0  0  0  0  0  0  0  0  0  0  0
   -3.3730   -2.1348    1.9708 Cl  0  0  0  0  0  0  0  0  0  0  0  0
    1.8169   -0.0265    0.0133 N   0  0  0  0  0  0  0  0  0  0  0  0
   -0.2097   -1.1784    0.2668 N   0  0  0  0  0  0  0  0  0  0  0  0
   -0.1855    1.1633   -0.2563 N   0  0  0  0  0  0  0  0  0  0  0  0
   -2.2756    0.0120   -0.0034 N   0  0  0  0  0  0  0  0  0  0  0  0
    2.5572   -1.2361    0.2850 C   0  0  0  0  0  0  0  0  0  0  0  0
    2.5619    1.2004   -0.2738 C   0  0  0  0  0  0  0  0  0  0  0  0
    2.6801   -2.1262   -0.9596 C   0  0  0  0  0  0  0  0  0  0  0  0
    2.6771    2.1049    0.9611 C   0  0  0  0  0  0  0  0  0  0  0  0
    3.3743   -1.4051   -2.1162 C   0  0  0  0  0  0  0  0  0  0  0  0
    3.3820   -3.4503   -0.6526 C   0  0  0  0  0  0  0  0  0  0  0  0
    3.3720    1.4002    2.1274 C   0  0  0  0  0  0  0  0  0  0  0  0
    3.3730    3.4289    0.6412 C   0  0  0  0  0  0  0  0  0  0  0  0
    0.4152   -0.0132    0.0078 C   0  0  0  0  0  0  0  0  0  0  0  0
   -1.5494   -1.0900    0.2442 C   0  0  0  0  0  0  0  0  0  0  0  0
   -1.5268    1.1001   -0.2451 C   0  0  0  0  0  0  0  0  0  0  0  0
   -2.2591    2.3669   -0.5300 C   0  0  0  0  0  0  0  0  0  0  0  0
   -2.3077   -2.3429    0.5225 C   0  0  0  0  0  0  0  0  0  0  0  0
  1 22  1  0
  2 22  1  0
  3 22  1  0
  4 23  1  0
  5 23  1  0
  6 23  1  0
  7 11  1  0
  7 12  1  0
  7 19  1  0
  8 19  2  0
  8 20  1  0
  9 19  1  0
  9 21  2  0
 10 20  2  0
 10 21  1  0
 11 13  1  0
 12 14  1  0
 13 15  1  0
 13 16  1  0
 14 17  1  0
 14 18  1  0
 20 23  1  0
 21 22  1  0
M  END
>  <PUBCHEM_COMPOUND_CID>  (1) 
34956

>  <PUBCHEM_CONFORMER_RMSD>  (1) 
0.8

>  <PUBCHEM_CONFORMER_DIVERSEORDER>  (1) 
1
29
26
15
8
33
13
48
5
21
16
39
31
14
25
4
6
10
27
19
9
40
18
11
22
2
46
7
20
30
12
37
23
3
17
47
28
51
41
36
50
38
24
52
42
35
44
43
45
34
32
49

>  <PUBCHEM_MMFF94_PARTIAL_CHARGES>  (1) 
17
1 -0.29
10 -0.62
11 0.37
12 0.37
19 0.72
2 -0.29
20 0.48
21 0.48
22 1.01
23 1.01
3 -0.29
4 -0.29
5 -0.29
6 -0.29
7 -0.84
8 -0.62
9 -0.62

>  <PUBCHEM_EFFECTIVE_ROTOR_COUNT>  (1) 
7

>  <PUBCHEM_PHARMACOPHORE_FEATURES>  (1) 
4
3 13 15 16 hydrophobe
3 14 17 18 hydrophobe
4 7 8 9 19 cation
6 8 9 10 19 20 21 rings

>  <PUBCHEM_HEAVY_ATOM_COUNT>  (1) 
23

>  <PUBCHEM_ATOM_DEF_STEREO_COUNT>  (1) 
0

>  <PUBCHEM_ATOM_UDEF_STEREO_COUNT>  (1) 
0

>  <PUBCHEM_BOND_DEF_STEREO_COUNT>  (1) 
0

>  <PUBCHEM_BOND_UDEF_STEREO_COUNT>  (1) 
0

>  <PUBCHEM_ISOTOPIC_ATOM_COUNT>  (1) 
0

>  <PUBCHEM_COMPONENT_COUNT>  (1) 
1

>  <PUBCHEM_CACTVS_TAUTO_COUNT>  (1) 
1

>  <PUBCHEM_CONFORMER_ID>  (1) 
0000888C00000001

>  <PUBCHEM_MMFF94_ENERGY>  (1) 
47.2091

>  <PUBCHEM_FEATURE_SELFOVERLAP>  (1) 
20.297

>  <PUBCHEM_SHAPE_FINGERPRINT>  (1) 
10906281 52 18046628086316798231
1100329 8 14880875149091523960
11578080 2 18271544051308111608
12160290 23 18186517688072161205
12553582 1 17974862970788051307
13140716 1 18336547127407862193
13149001 5 18268993077162645398
14022347 108 17751378371861959003
140371 6 18119532295744507341
14178342 30 18409162255472195088
14223421 5 18340488962424115488
14251757 5 17978812120434057006
14790565 3 17690859860590115260
15295992 7 18127981806154353553
15420108 30 17042616881617916705
15775530 1 18342175566216930632
18186145 218 18195801860798695765
19049666 15 18413109433459056074
19591789 44 18192723245763053345
20600515 1 16881031424064691267
20739085 24 17469339483367553369
20775438 99 17981286163283092671
21285901 2 18263911315198581823
21524375 3 17975134241159499215
22182313 1 18408321107638675815
22907989 373 18114480967522889415
23557571 272 18337389460472662557
23558518 356 18339350903491329031
23559900 14 18341319029584655472
23598288 3 17614241836049042256
2748010 2 18410012143357621119
3084891 72 17474952021875506342
3178227 256 17907035992772933969
3250762 1 18411981356067078240
3380486 145 18122625217827655875
350125 39 18338529572389260347
484985 159 15512149107509015168
6049 1 18411993450557950746
621550 34 18197503032808972426
633830 44 18055055585320302925
6913067 236 17840848982930080170
7399639 24 18199465656969876426
81228 2 18261678163963564001
9709674 26 18341321228138373854
9981440 41 17555692751259042904

>  <PUBCHEM_SHAPE_MULTIPOLES>  (1) 
464.62
7.12
5.67
1.7
2.02
0.05
0
-0.14
0.03
-1.4
-0.04
0.13
0.01
3.22

>  <PUBCHEM_SHAPE_SELFOVERLAP>  (1) 
873.629

>  <PUBCHEM_SHAPE_VOLUME>  (1) 
284.9

>  <PUBCHEM_COORDINATE_TYPE>  (1) 
2
5
10

$$$$
