34957
     RDKit          3D

 21 22  0  0  0  0  0  0  0  0999 V2000
   -1.9297   -3.2111   -1.6002 Cl  0  0  0  0  0  0  0  0  0  0  0  0
    0.5331   -3.4805   -0.1276 Cl  0  0  0  0  0  0  0  0  0  0  0  0
   -1.9552   -3.3170    1.3244 Cl  0  0  0  0  0  0  0  0  0  0  0  0
   -4.3646    1.1565    1.4902 Cl  0  0  0  0  0  0  0  0  0  0  0  0
   -3.1792    3.3932    0.1123 Cl  0  0  0  0  0  0  0  0  0  0  0  0
   -4.3502    1.2572   -1.4348 Cl  0  0  0  0  0  0  0  0  0  0  0  0
    1.3894    1.4189    0.0627 N   0  0  0  0  0  0  0  0  0  0  0  0
   -0.9533    1.5181    0.0544 N   0  0  0  0  0  0  0  0  0  0  0  0
    0.1864   -0.5921   -0.0219 N   0  0  0  0  0  0  0  0  0  0  0  0
   -2.2121   -0.5230   -0.0311 N   0  0  0  0  0  0  0  0  0  0  0  0
    0.1500    0.7506    0.0302 C   0  0  0  0  0  0  0  0  0  0  0  0
    2.7228    0.9595    0.0508 C   0  0  0  0  0  0  0  0  0  0  0  0
   -2.0961    0.8138    0.0214 C   0  0  0  0  0  0  0  0  0  0  0  0
   -1.0301   -1.1599   -0.0498 C   0  0  0  0  0  0  0  0  0  0  0  0
    3.7261    1.7439   -0.5186 C   0  0  0  0  0  0  0  0  0  0  0  0
    3.0385   -0.2797    0.6082 C   0  0  0  0  0  0  0  0  0  0  0  0
   -1.0728   -2.6487   -0.1076 C   0  0  0  0  0  0  0  0  0  0  0  0
   -3.3651    1.5954    0.0455 C   0  0  0  0  0  0  0  0  0  0  0  0
    5.0446    1.2892   -0.5309 C   0  0  0  0  0  0  0  0  0  0  0  0
    4.3572   -0.7343    0.5961 C   0  0  0  0  0  0  0  0  0  0  0  0
    5.3601    0.0501    0.0265 C   0  0  0  0  0  0  0  0  0  0  0  0
  1 17  1  0
  2 17  1  0
  3 17  1  0
  4 18  1  0
  5 18  1  0
  6 18  1  0
  7 11  1  0
  7 12  1  0
  8 11  2  0
  8 13  1  0
  9 11  1  0
  9 14  2  0
 10 13  2  0
 10 14  1  0
 12 15  2  0
 12 16  1  0
 13 18  1  0
 14 17  1  0
 15 19  1  0
 16 20  2  0
 19 21  2  0
 20 21  1  0
M  END
>  <PUBCHEM_COMPOUND_CID>  (1) 
34957

>  <PUBCHEM_CONFORMER_RMSD>  (1) 
0.6

>  <PUBCHEM_CONFORMER_DIVERSEORDER>  (1) 
1
9
8
15
10
4
6
12
13
7
11
5
3
14
2
16

>  <PUBCHEM_MMFF94_PARTIAL_CHARGES>  (1) 
27
1 -0.29
10 -0.62
11 0.72
12 0.1
13 0.48
14 0.48
15 -0.15
16 -0.15
17 1.01
18 1.01
19 -0.15
2 -0.29
20 -0.15
21 -0.15
22 0.4
23 0.15
24 0.15
25 0.15
26 0.15
27 0.15
3 -0.29
4 -0.29
5 -0.29
6 -0.29
7 -0.6
8 -0.62
9 -0.62

>  <PUBCHEM_EFFECTIVE_ROTOR_COUNT>  (1) 
4

>  <PUBCHEM_PHARMACOPHORE_FEATURES>  (1) 
4
1 7 donor
4 7 8 9 11 cation
6 12 15 16 19 20 21 rings
6 8 9 10 11 13 14 rings

>  <PUBCHEM_HEAVY_ATOM_COUNT>  (1) 
21

>  <PUBCHEM_ATOM_DEF_STEREO_COUNT>  (1) 
0

>  <PUBCHEM_ATOM_UDEF_STEREO_COUNT>  (1) 
0

>  <PUBCHEM_BOND_DEF_STEREO_COUNT>  (1) 
0

>  <PUBCHEM_BOND_UDEF_STEREO_COUNT>  (1) 
0

>  <PUBCHEM_ISOTOPIC_ATOM_COUNT>  (1) 
0

>  <PUBCHEM_COMPONENT_COUNT>  (1) 
1

>  <PUBCHEM_CACTVS_TAUTO_COUNT>  (1) 
3

>  <PUBCHEM_CONFORMER_ID>  (1) 
0000888D00000001

>  <PUBCHEM_MMFF94_ENERGY>  (1) 
54.7259

>  <PUBCHEM_FEATURE_SELFOVERLAP>  (1) 
20.297

>  <PUBCHEM_SHAPE_FINGERPRINT>  (1) 
10616163 171 18337956800510738854
12173636 292 18411131467912425652
12500047 106 18412822504095717792
12553582 1 17762337316088655970
12592029 89 18337680689351738219
12788726 201 18265039417906857651
13140716 1 18339648965616153305
13583140 156 17240482490096952857
138480 1 17329710920886787938
14178342 30 18192695955741691832
14251751 93 18335420192139795971
14508225 48 17910381016318444093
14790565 3 18339649914725460376
15042514 8 18264497346189856075
16752209 62 18268416009678673690
167882 2 18121496856229280487
200 152 10591758762216054168
20101258 96 17975991060869784760
204376 136 18410577249669630465
20681677 155 18410293619046618352
21033648 29 18263066777961613120
21033650 10 17345218639339224944
21478907 32 18124590049132751975
21524375 3 18339919321127983245
22224240 67 18341061752955046025
23366157 5 17829048706460862291
23402539 116 18201995500092647437
23419403 2 17125414191846007071
23558518 356 17971194978680904488
23559900 14 18201437004758543528
23598288 3 18193568988815843287
23728640 28 18340487858412272907
3084891 72 18271242703681174408
3091708 16 9125412689414393483
350125 39 18338520854085658379
352729 6 18411987974321589525
3759504 43 18260264148897170639
38695281 34 18127406753114687927
469060 322 13262965207504470066
474 4 18266173920801394849
474229 33 18410296908943977241
5104073 3 18337387258009177512
532947 4 18125161524395626982
559249 180 18408597051093407890
58051976 100 18261677068741797748
59755656 215 18410291402907037463
59755656 520 18060149712732315761
6138700 20 17907580225385674222
633830 44 18127413345715725869
7364860 26 17836926694541702821
81228 2 17977930604087235329
9709674 26 18342744035440983854

>  <PUBCHEM_SHAPE_MULTIPOLES>  (1) 
423.46
9.77
4.22
1.13
9.64
3.55
0.07
-6.73
0.01
-3.83
0.26
-1.18
0.46
-0.57

>  <PUBCHEM_SHAPE_SELFOVERLAP>  (1) 
836.136

>  <PUBCHEM_SHAPE_VOLUME>  (1) 
246.9

>  <PUBCHEM_COORDINATE_TYPE>  (1) 
2
5
10

$$$$
