34951
     RDKit          3D

 19 20  0  0  0  0  0  0  0  0999 V2000
    3.4840    2.3466   -1.3219 Cl  0  0  0  0  0  0  0  0  0  0  0  0
    1.0953    2.9835    0.1596 Cl  0  0  0  0  0  0  0  0  0  0  0  0
    3.4662    2.1903    1.6005 Cl  0  0  0  0  0  0  0  0  0  0  0  0
   -5.8291    1.3905    0.0242 Cl  0  0  0  0  0  0  0  0  0  0  0  0
   -0.7413   -1.6359   -0.0874 N   0  0  0  0  0  0  0  0  0  0  0  0
    0.8465    0.0871    0.0091 N   0  0  0  0  0  0  0  0  0  0  0  0
    1.5324   -2.2098   -0.0984 N   0  0  0  0  0  0  0  0  0  0  0  0
    3.1807   -0.4688    0.0010 N   0  0  0  0  0  0  0  0  0  0  0  0
    3.8209   -2.7224   -0.1028 N   0  0  0  0  0  0  0  0  0  0  0  0
   -1.9531   -0.9151   -0.0607 C   0  0  0  0  0  0  0  0  0  0  0  0
    0.6084   -1.2343   -0.0582 C   0  0  0  0  0  0  0  0  0  0  0  0
   -3.0921   -1.4861    0.5071 C   0  0  0  0  0  0  0  0  0  0  0  0
   -2.0129    0.3690   -0.6021 C   0  0  0  0  0  0  0  0  0  0  0  0
    2.1532    0.3950    0.0350 C   0  0  0  0  0  0  0  0  0  0  0  0
   -4.2906   -0.7731    0.5335 C   0  0  0  0  0  0  0  0  0  0  0  0
   -3.2114    1.0821   -0.5758 C   0  0  0  0  0  0  0  0  0  0  0  0
    2.7948   -1.7532   -0.0657 C   0  0  0  0  0  0  0  0  0  0  0  0
   -4.3503    0.5110   -0.0081 C   0  0  0  0  0  0  0  0  0  0  0  0
    2.4983    1.8434    0.1112 C   0  0  0  0  0  0  0  0  0  0  0  0
  1 19  1  0
  2 19  1  0
  3 19  1  0
  4 18  1  0
  5 10  1  0
  5 11  1  0
  6 11  2  0
  6 14  1  0
  7 11  1  0
  7 17  2  0
  8 14  2  0
  8 17  1  0
  9 17  1  0
 10 12  2  0
 10 13  1  0
 12 15  1  0
 13 16  2  0
 14 19  1  0
 15 18  2  0
 16 18  1  0
M  END
>  <PUBCHEM_COMPOUND_CID>  (1) 
34951

>  <PUBCHEM_CONFORMER_RMSD>  (1) 
0.6

>  <PUBCHEM_CONFORMER_DIVERSEORDER>  (1) 
1
14
6
10
16
2
13
4
9
3
15
18
8
5
11
7
17
12

>  <PUBCHEM_MMFF94_PARTIAL_CHARGES>  (1) 
26
1 -0.29
10 0.1
11 0.72
12 -0.15
13 -0.15
14 0.48
15 -0.15
16 -0.15
17 0.72
18 0.18
19 1.01
2 -0.29
20 0.4
21 0.15
22 0.15
23 0.15
24 0.15
25 0.4
26 0.4
3 -0.29
4 -0.18
5 -0.6
6 -0.62
7 -0.62
8 -0.62
9 -0.9

>  <PUBCHEM_EFFECTIVE_ROTOR_COUNT>  (1) 
3

>  <PUBCHEM_PHARMACOPHORE_FEATURES>  (1) 
6
1 5 donor
1 9 donor
4 5 6 7 11 cation
4 7 8 9 17 cation
6 10 12 13 15 16 18 rings
6 6 7 8 11 14 17 rings

>  <PUBCHEM_HEAVY_ATOM_COUNT>  (1) 
19

>  <PUBCHEM_ATOM_DEF_STEREO_COUNT>  (1) 
0

>  <PUBCHEM_ATOM_UDEF_STEREO_COUNT>  (1) 
0

>  <PUBCHEM_BOND_DEF_STEREO_COUNT>  (1) 
0

>  <PUBCHEM_BOND_UDEF_STEREO_COUNT>  (1) 
0

>  <PUBCHEM_ISOTOPIC_ATOM_COUNT>  (1) 
0

>  <PUBCHEM_COMPONENT_COUNT>  (1) 
1

>  <PUBCHEM_CACTVS_TAUTO_COUNT>  (1) 
9

>  <PUBCHEM_CONFORMER_ID>  (1) 
0000888700000001

>  <PUBCHEM_MMFF94_ENERGY>  (1) 
55.8463

>  <PUBCHEM_FEATURE_SELFOVERLAP>  (1) 
30.489

>  <PUBCHEM_SHAPE_FINGERPRINT>  (1) 
10366900 7 17973166411466434747
10608611 8 18408039619856190943
10980938 120 18338515347642205096
11405975 8 18335984190598084979
11471102 20 18411980226264196455
11595378 159 15647046045615322381
12633257 1 18187071845911049369
13134695 92 17917136205258518666
13140716 1 18410003338643425194
13533116 47 18413108355986903469
13878862 14 18263625317679376277
14178342 30 17980184602855883554
14790565 3 17975704105800349164
15196674 1 18409168818535170279
15420108 30 17986085604911759890
15536298 74 18411700997713325359
1601671 61 18262240035828141724
1798214 55 18269835478899878384
18186145 218 17844821466896216176
20671657 1 18342457062267590182
20681677 76 18335980952261354087
21033648 29 17749379314258101301
21065198 57 18408043987996556867
21065199 12 18335986449756014355
21452121 103 18412255147057243880
21478907 32 17618225009925643882
221490 88 18335430079191687778
22289505 5 18411138004704989644
22854114 111 18341049717448807954
23559900 14 18410008810510777459
335352 9 18337954463816142359
350125 39 18336550417089352453
474 4 18261392294897829209
49207404 50 18190185765925550275
5104073 3 18408887335032082795
5895379 119 16414091676400376104
633830 44 18187079555620432119
7364860 26 18413106173732027966
7808743 9 17759807335680847828
7832392 63 18341889744474925270
81228 2 17692543212970978434
9709674 26 18335423508371766299
9971528 1 18130219342529445274

>  <PUBCHEM_SHAPE_MULTIPOLES>  (1) 
373.59
9.99
3.22
0.93
10.38
0.12
-0.1
3.16
-0.53
-3.59
-0.03
-0.72
0.56
0.54

>  <PUBCHEM_SHAPE_SELFOVERLAP>  (1) 
755.269

>  <PUBCHEM_SHAPE_VOLUME>  (1) 
215.5

>  <PUBCHEM_COORDINATE_TYPE>  (1) 
2
5
10

$$$$
