34958
     RDKit          3D

 22 23  0  0  0  0  0  0  0  0999 V2000
    3.5719   -2.8772   -0.9512 Cl  0  0  0  0  0  0  0  0  0  0  0  0
   -2.4185    3.3332    1.1614 Cl  0  0  0  0  0  0  0  0  0  0  0  0
    0.0667    3.6300   -0.2676 Cl  0  0  0  0  0  0  0  0  0  0  0  0
   -2.3426    3.0655   -1.7520 Cl  0  0  0  0  0  0  0  0  0  0  0  0
   -4.3597   -1.5879   -1.4018 Cl  0  0  0  0  0  0  0  0  0  0  0  0
   -3.0434   -3.5190    0.2849 Cl  0  0  0  0  0  0  0  0  0  0  0  0
   -4.4471   -1.3159    1.5109 Cl  0  0  0  0  0  0  0  0  0  0  0  0
    1.3381   -1.1592    0.2002 N   0  0  0  0  0  0  0  0  0  0  0  0
   -0.9867   -1.4627    0.1589 N   0  0  0  0  0  0  0  0  0  0  0  0
   -0.0319    0.7323   -0.0080 N   0  0  0  0  0  0  0  0  0  0  0  0
   -2.4147    0.4538   -0.0537 N   0  0  0  0  0  0  0  0  0  0  0  0
    2.6285   -0.5834    0.1879 C   0  0  0  0  0  0  0  0  0  0  0  0
    0.0483   -0.6049    0.1131 C   0  0  0  0  0  0  0  0  0  0  0  0
   -2.1849   -0.8635    0.0702 C   0  0  0  0  0  0  0  0  0  0  0  0
   -1.2920    1.1896   -0.0861 C   0  0  0  0  0  0  0  0  0  0  0  0
    3.7279   -1.2783   -0.3165 C   0  0  0  0  0  0  0  0  0  0  0  0
    2.7908    0.7068    0.6927 C   0  0  0  0  0  0  0  0  0  0  0  0
   -1.4617    2.6643   -0.2227 C   0  0  0  0  0  0  0  0  0  0  0  0
   -3.3820   -1.7506    0.1137 C   0  0  0  0  0  0  0  0  0  0  0  0
    4.9893   -0.6827   -0.3162 C   0  0  0  0  0  0  0  0  0  0  0  0
    4.0522    1.3022    0.6931 C   0  0  0  0  0  0  0  0  0  0  0  0
    5.1515    0.6075    0.1887 C   0  0  0  0  0  0  0  0  0  0  0  0
  1 16  1  0
  2 18  1  0
  3 18  1  0
  4 18  1  0
  5 19  1  0
  6 19  1  0
  7 19  1  0
  8 12  1  0
  8 13  1  0
  9 13  2  0
  9 14  1  0
 10 13  1  0
 10 15  2  0
 11 14  2  0
 11 15  1  0
 12 16  2  0
 12 17  1  0
 14 19  1  0
 15 18  1  0
 16 20  1  0
 17 21  2  0
 20 22  2  0
 21 22  1  0
M  END
>  <PUBCHEM_COMPOUND_CID>  (1) 
34958

>  <PUBCHEM_CONFORMER_RMSD>  (1) 
0.6

>  <PUBCHEM_CONFORMER_DIVERSEORDER>  (1) 
1
29
5
28
15
35
3
31
8
26
37
9
18
25
39
14
34
12
36
17
24
27
16
33
40
11
22
23
38
20
13
10
30
7
32
4
6
19
21
2

>  <PUBCHEM_MMFF94_PARTIAL_CHARGES>  (1) 
27
1 -0.18
10 -0.62
11 -0.62
12 0.1
13 0.72
14 0.48
15 0.48
16 0.18
17 -0.15
18 1.01
19 1.01
2 -0.29
20 -0.15
21 -0.15
22 -0.15
23 0.4
24 0.15
25 0.15
26 0.15
27 0.15
3 -0.29
4 -0.29
5 -0.29
6 -0.29
7 -0.29
8 -0.6
9 -0.62

>  <PUBCHEM_EFFECTIVE_ROTOR_COUNT>  (1) 
4

>  <PUBCHEM_PHARMACOPHORE_FEATURES>  (1) 
4
1 8 donor
4 8 9 10 13 cation
6 12 16 17 20 21 22 rings
6 9 10 11 13 14 15 rings

>  <PUBCHEM_HEAVY_ATOM_COUNT>  (1) 
22

>  <PUBCHEM_ATOM_DEF_STEREO_COUNT>  (1) 
0

>  <PUBCHEM_ATOM_UDEF_STEREO_COUNT>  (1) 
0

>  <PUBCHEM_BOND_DEF_STEREO_COUNT>  (1) 
0

>  <PUBCHEM_BOND_UDEF_STEREO_COUNT>  (1) 
0

>  <PUBCHEM_ISOTOPIC_ATOM_COUNT>  (1) 
0

>  <PUBCHEM_COMPONENT_COUNT>  (1) 
1

>  <PUBCHEM_CACTVS_TAUTO_COUNT>  (1) 
3

>  <PUBCHEM_CONFORMER_ID>  (1) 
0000888E00000001

>  <PUBCHEM_MMFF94_ENERGY>  (1) 
56.7581

>  <PUBCHEM_FEATURE_SELFOVERLAP>  (1) 
20.297

>  <PUBCHEM_SHAPE_FINGERPRINT>  (1) 
10006869 2 18119529826544559713
10366900 7 18411420657003892762
10498660 4 18262229998568633708
10608611 8 18340765936760494032
10670039 82 18262251001544183292
11045515 52 18188205519809099773
11405975 8 18196091041363207178
11552529 35 17989488506787880009
12403259 226 18341608222796938784
12553582 1 18265628739038227223
12623949 98 17774461463109609710
12788726 201 18187638107094469035
13140716 1 17977670032304975682
13544653 18 18342176721373404591
13690498 29 18196956391458843630
138480 1 15816499118054574520
14787075 74 17898010376481675210
14790565 3 17979918203257359233
17357779 13 18266440152897136693
17492 89 18338797810836823706
17980427 23 17488476329078370035
1813 80 18265069066376915927
19591789 44 17402339174196220816
20510252 161 18410572872776092312
20600515 1 18128272257681193187
21029758 11 18339353188698708663
21202864 24 18198919019650834153
22182937 141 18198627635667717184
23175994 123 18261111937161371623
23402539 116 18412822516759184095
23557571 272 18412825780807436380
23558518 356 18261965054720292978
23559900 14 18055067663179496686
23845131 108 17690292508437809993
283562 15 18408599254121441651
352729 6 17977936891771676403
469060 322 16950576449903516565
5104073 3 18340201883174538874
5283173 99 18189036656237051397
621550 34 18272649099733826426
6913067 236 18127952282696860130
7399639 24 18200863098021335696
81228 2 18334583425405196081
9709674 26 18341051822484475734

>  <PUBCHEM_SHAPE_MULTIPOLES>  (1) 
445.91
9.92
4.53
1.17
8.1
2.35
-0.18
-5.28
0.21
-3.89
-0.59
-1.12
0.3
1.2

>  <PUBCHEM_SHAPE_SELFOVERLAP>  (1) 
875.583

>  <PUBCHEM_SHAPE_VOLUME>  (1) 
261.6

>  <PUBCHEM_COORDINATE_TYPE>  (1) 
2
5
10

$$$$
