34966
     RDKit          3D

 22 23  0  0  0  0  0  0  0  0999 V2000
    2.4050   -3.3291    1.1834 Cl  0  0  0  0  0  0  0  0  0  0  0  0
   -0.0796   -3.6257   -0.2469 Cl  0  0  0  0  0  0  0  0  0  0  0  0
    2.3338   -3.0801   -1.7318 Cl  0  0  0  0  0  0  0  0  0  0  0  0
    4.3683    1.5675   -1.4094 Cl  0  0  0  0  0  0  0  0  0  0  0  0
    3.0574    3.5148    0.2630 Cl  0  0  0  0  0  0  0  0  0  0  0  0
    4.4510    1.3144    1.5052 Cl  0  0  0  0  0  0  0  0  0  0  0  0
   -1.3331    1.1714    0.1880 N   0  0  0  0  0  0  0  0  0  0  0  0
    0.9929    1.4657    0.1478 N   0  0  0  0  0  0  0  0  0  0  0  0
    0.0299   -0.7267   -0.0061 N   0  0  0  0  0  0  0  0  0  0  0  0
    2.4139   -0.4576   -0.0505 N   0  0  0  0  0  0  0  0  0  0  0  0
   -2.6251    0.6016    0.1778 C   0  0  0  0  0  0  0  0  0  0  0  0
   -3.7132    1.3084   -0.3342 C   0  0  0  0  0  0  0  0  0  0  0  0
   -0.0447    0.6113    0.1061 C   0  0  0  0  0  0  0  0  0  0  0  0
   -2.8062   -0.6839    0.6881 C   0  0  0  0  0  0  0  0  0  0  0  0
   -4.9823    0.7296   -0.3360 C   0  0  0  0  0  0  0  0  0  0  0  0
   -3.5485    2.6867   -0.8871 C   0  0  0  0  0  0  0  0  0  0  0  0
    2.1890    0.8612    0.0644 C   0  0  0  0  0  0  0  0  0  0  0  0
    1.2883   -1.1894   -0.0796 C   0  0  0  0  0  0  0  0  0  0  0  0
   -4.0753   -1.2627    0.6861 C   0  0  0  0  0  0  0  0  0  0  0  0
   -5.1633   -0.5560    0.1742 C   0  0  0  0  0  0  0  0  0  0  0  0
    1.4525   -2.6654   -0.2062 C   0  0  0  0  0  0  0  0  0  0  0  0
    3.3894    1.7440    0.1037 C   0  0  0  0  0  0  0  0  0  0  0  0
  1 21  1  0
  2 21  1  0
  3 21  1  0
  4 22  1  0
  5 22  1  0
  6 22  1  0
  7 11  1  0
  7 13  1  0
  8 13  2  0
  8 17  1  0
  9 13  1  0
  9 18  2  0
 10 17  2  0
 10 18  1  0
 11 12  2  0
 11 14  1  0
 12 15  1  0
 12 16  1  0
 14 19  2  0
 15 20  2  0
 17 22  1  0
 18 21  1  0
 19 20  1  0
M  END
>  <PUBCHEM_COMPOUND_CID>  (1) 
34966

>  <PUBCHEM_CONFORMER_RMSD>  (1) 
0.6

>  <PUBCHEM_CONFORMER_DIVERSEORDER>  (1) 
1
24
5
18
12
31
14
30
27
35
28
34
9
26
32
13
19
8
29
11
25
3
17
16
36
15
33
4
21
6
23
2
20
7
10
22

>  <PUBCHEM_MMFF94_PARTIAL_CHARGES>  (1) 
27
1 -0.29
10 -0.62
11 0.1
12 -0.14
13 0.72
14 -0.15
15 -0.15
16 0.14
17 0.48
18 0.48
19 -0.15
2 -0.29
20 -0.15
21 1.01
22 1.01
23 0.4
24 0.15
25 0.15
29 0.15
3 -0.29
30 0.15
4 -0.29
5 -0.29
6 -0.29
7 -0.6
8 -0.62
9 -0.62

>  <PUBCHEM_EFFECTIVE_ROTOR_COUNT>  (1) 
4

>  <PUBCHEM_PHARMACOPHORE_FEATURES>  (1) 
4
1 7 donor
4 7 8 9 13 cation
6 11 12 14 15 19 20 rings
6 8 9 10 13 17 18 rings

>  <PUBCHEM_HEAVY_ATOM_COUNT>  (1) 
22

>  <PUBCHEM_ATOM_DEF_STEREO_COUNT>  (1) 
0

>  <PUBCHEM_ATOM_UDEF_STEREO_COUNT>  (1) 
0

>  <PUBCHEM_BOND_DEF_STEREO_COUNT>  (1) 
0

>  <PUBCHEM_BOND_UDEF_STEREO_COUNT>  (1) 
0

>  <PUBCHEM_ISOTOPIC_ATOM_COUNT>  (1) 
0

>  <PUBCHEM_COMPONENT_COUNT>  (1) 
1

>  <PUBCHEM_CACTVS_TAUTO_COUNT>  (1) 
3

>  <PUBCHEM_CONFORMER_ID>  (1) 
0000889600000001

>  <PUBCHEM_MMFF94_ENERGY>  (1) 
58.8751

>  <PUBCHEM_FEATURE_SELFOVERLAP>  (1) 
20.297

>  <PUBCHEM_SHAPE_FINGERPRINT>  (1) 
10074138 170 17618194636016465808
10090160 65 18338791325119052501
10366900 7 18339922718700569121
10616163 171 18336549425553163707
11370993 70 18410006671827748883
11405975 8 18192993717123579961
11488393 25 17986697903580886110
11578080 2 17024577906946787158
12592029 89 18410012165043487040
12730499 353 18409457998583067857
12788726 201 17131282238570212529
12839892 36 18336531819975718282
13140716 1 17978788235662052897
13533116 47 18201720605696209745
138480 1 18122907521036956202
14787075 74 17986390216386495209
14790565 3 18192722351930814860
14955137 171 18338790097397008538
15375358 24 18261110798841778305
15502722 9 18412829053440529982
15961568 22 17603592958027470236
18681886 176 18262804098399801036
19591789 44 18267306606656312280
20600515 1 17546993144724196146
20645477 70 18341332193501318223
20693207 138 18191313680409321391
21054139 6 18057306482905389487
21524375 3 18341051942669115810
21859007 373 16953919936041555717
221490 88 18337962177424671563
22393880 68 18339648845298962455
2255824 54 18267306439026357518
23366157 5 18041002774022446290
23419403 2 17535161386287461158
23557571 272 17386002845733348573
23559900 14 18194673779126977515
239999 70 18272377459720637950
3060560 45 18411423938364337676
314173 41 17980206283713819119
3298306 158 18411982481153409108
33824 294 18411139142966359379
352729 6 18196098969582438216
4280585 95 17834682587110196166
474229 33 18266457792285369715
5104073 3 18337113355012213529
58051976 378 18411134757899442325
59755656 215 18335139786615060708
6138700 20 18339370665485333734
633830 44 17917159380464983861
6669772 16 18059862787922389006
7364860 26 18341614759346896374
7808743 9 17833267902287490728
81228 2 17260454298407951250
81539 233 18409168822408345902
9709674 26 18336829697991681531
9841814 1 18119813512712567986

>  <PUBCHEM_SHAPE_MULTIPOLES>  (1) 
444.04
9.91
4.45
1.16
8.18
2.64
-0.15
-5.42
0.18
-4.04
-0.51
-1.14
0.33
1.07

>  <PUBCHEM_SHAPE_SELFOVERLAP>  (1) 
878.954

>  <PUBCHEM_SHAPE_VOLUME>  (1) 
259.2

>  <PUBCHEM_COORDINATE_TYPE>  (1) 
2
5
10

$$$$
