34965
     RDKit          3D

 22 23  0  0  0  0  0  0  0  0999 V2000
   -6.8333   -0.3775    0.0090 Br  0  0  0  0  0  0  0  0  0  0  0  0
    2.1896   -3.3527    1.3266 Cl  0  0  0  0  0  0  0  0  0  0  0  0
   -0.2895   -3.4487   -0.1402 Cl  0  0  0  0  0  0  0  0  0  0  0  0
    2.1915   -3.2297   -1.5975 Cl  0  0  0  0  0  0  0  0  0  0  0  0
    4.7054    1.1860   -1.4351 Cl  0  0  0  0  0  0  0  0  0  0  0  0
    3.5836    3.3349    0.1240 Cl  0  0  0  0  0  0  0  0  0  0  0  0
    4.7145    1.0577    1.4887 Cl  0  0  0  0  0  0  0  0  0  0  0  0
   -1.0303    1.4690    0.0605 N   0  0  0  0  0  0  0  0  0  0  0  0
    1.3141    1.5130    0.0553 N   0  0  0  0  0  0  0  0  0  0  0  0
    0.1251   -0.5698   -0.0231 N   0  0  0  0  0  0  0  0  0  0  0  0
    2.5245   -0.5571   -0.0302 N   0  0  0  0  0  0  0  0  0  0  0  0
   -2.3741    1.0412    0.0485 C   0  0  0  0  0  0  0  0  0  0  0  0
    0.1931    0.7716    0.0295 C   0  0  0  0  0  0  0  0  0  0  0  0
    2.4400    0.7820    0.0229 C   0  0  0  0  0  0  0  0  0  0  0  0
    1.3280   -1.1659   -0.0506 C   0  0  0  0  0  0  0  0  0  0  0  0
   -3.3581    1.8494   -0.5204 C   0  0  0  0  0  0  0  0  0  0  0  0
   -2.7191   -0.1902    0.6059 C   0  0  0  0  0  0  0  0  0  0  0  0
    1.3356   -2.6554   -0.1098 C   0  0  0  0  0  0  0  0  0  0  0  0
    3.7271    1.5336    0.0484 C   0  0  0  0  0  0  0  0  0  0  0  0
   -4.6873    1.4266   -0.5320 C   0  0  0  0  0  0  0  0  0  0  0  0
   -4.0482   -0.6132    0.5942 C   0  0  0  0  0  0  0  0  0  0  0  0
   -5.0324    0.1952    0.0251 C   0  0  0  0  0  0  0  0  0  0  0  0
  1 22  1  0
  2 18  1  0
  3 18  1  0
  4 18  1  0
  5 19  1  0
  6 19  1  0
  7 19  1  0
  8 12  1  0
  8 13  1  0
  9 13  2  0
  9 14  1  0
 10 13  1  0
 10 15  2  0
 11 14  2  0
 11 15  1  0
 12 16  2  0
 12 17  1  0
 14 19  1  0
 15 18  1  0
 16 20  1  0
 17 21  2  0
 20 22  2  0
 21 22  1  0
M  END
>  <PUBCHEM_COMPOUND_CID>  (1) 
34965

>  <PUBCHEM_CONFORMER_RMSD>  (1) 
0.6

>  <PUBCHEM_CONFORMER_DIVERSEORDER>  (1) 
1
9
6
14
11
4
7
12
3
13
2
10
8
15
5
16

>  <PUBCHEM_MMFF94_PARTIAL_CHARGES>  (1) 
27
1 -0.11
10 -0.62
11 -0.62
12 0.1
13 0.72
14 0.48
15 0.48
16 -0.15
17 -0.15
18 1.01
19 1.01
2 -0.29
20 -0.15
21 -0.15
22 0.11
23 0.4
24 0.15
25 0.15
26 0.15
27 0.15
3 -0.29
4 -0.29
5 -0.29
6 -0.29
7 -0.29
8 -0.6
9 -0.62

>  <PUBCHEM_EFFECTIVE_ROTOR_COUNT>  (1) 
4

>  <PUBCHEM_PHARMACOPHORE_FEATURES>  (1) 
5
1 1 hydrophobe
1 8 donor
4 8 9 10 13 cation
6 12 16 17 20 21 22 rings
6 9 10 11 13 14 15 rings

>  <PUBCHEM_HEAVY_ATOM_COUNT>  (1) 
22

>  <PUBCHEM_ATOM_DEF_STEREO_COUNT>  (1) 
0

>  <PUBCHEM_ATOM_UDEF_STEREO_COUNT>  (1) 
0

>  <PUBCHEM_BOND_DEF_STEREO_COUNT>  (1) 
0

>  <PUBCHEM_BOND_UDEF_STEREO_COUNT>  (1) 
0

>  <PUBCHEM_ISOTOPIC_ATOM_COUNT>  (1) 
0

>  <PUBCHEM_COMPONENT_COUNT>  (1) 
1

>  <PUBCHEM_CACTVS_TAUTO_COUNT>  (1) 
3

>  <PUBCHEM_CONFORMER_ID>  (1) 
0000889500000001

>  <PUBCHEM_MMFF94_ENERGY>  (1) 
55.6786

>  <PUBCHEM_FEATURE_SELFOVERLAP>  (1) 
25.371

>  <PUBCHEM_SHAPE_FINGERPRINT>  (1) 
10090160 65 18409722997775392357
10366900 7 18411984689215310761
10411042 1 17906734700469394478
10693767 8 17988087677814801446
10835480 77 18335410233160805973
10906281 52 17968958464814529353
11488393 25 17914920667807118358
11719270 70 18409720755559740939
11963148 33 18261387918770234747
12592029 89 18409448094140609152
12596602 18 17131838690142714219
12730499 353 18409455799485959265
12788726 201 17131560427896818145
12839892 36 18335686274180415378
13140716 1 18194677305094985912
13533116 47 18130507445167655963
13583140 156 16952221392118162072
13692114 37 18200583817267381502
13836976 161 18335144227674691420
138480 1 18050285860343540995
13911882 115 18337124435827668859
14617045 38 18411145757790670263
14787075 74 18129659849913745601
14790565 3 18265903625377480333
14863182 85 18336839635902374742
15196674 1 18336827481972997689
15375358 24 18259705601475138497
15537594 2 18060133259213869111
15961568 22 17385732404021557620
16728300 4 17535152641992341120
17492 89 18197778804707638303
18681886 176 18262521506710461940
20567600 347 18260831501092032242
20645477 70 18339643335098553399
20693207 138 18117284649169524719
21049683 118 17981863535715854696
21054139 6 18200016482309872767
21197605 99 18266745869134113043
21344244 181 17560256798055722926
21344244 246 18199202711115727398
221490 88 18265903462431901911
22182313 1 18192176925601970075
22224240 67 18270390706528313105
22393880 68 18339648815313143807
22956985 138 17899404304145119170
23557571 272 17095520656835544509
23559900 14 18193829337059258777
239999 70 18271812289226933094
3060560 45 18410298021346204188
312423 11 17916032248292261465
3298306 158 18410857672231537172
335352 9 18411421748215625972
33824 294 18410293597102406691
42630746 31 18413951680624516974
4340502 62 18343297089198690385
474229 33 18337953505816784985
5104073 3 18337112238362979489
5486654 2 18340492273817903725
58051976 378 18411981360225096973
59755656 215 18335143089471200623
6025842 7 18412261714473747959
621550 34 18260542329665997453
633830 44 18201440306792121180
6669772 16 18202570583908552606
7364860 26 18269556044412136022
81228 2 17617647100774288064
81539 233 18408042901079342886
8272917 22 18341615867453701205
9709674 26 18335425621706328187
9841814 1 18046910377063534642

>  <PUBCHEM_SHAPE_MULTIPOLES>  (1) 
449.99
12.12
4.02
1.11
16.14
3.4
-0.06
-6
0.04
-4.61
-0.26
-1.26
0.45
0.53

>  <PUBCHEM_SHAPE_SELFOVERLAP>  (1) 
877.687

>  <PUBCHEM_SHAPE_VOLUME>  (1) 
282.5

>  <PUBCHEM_COORDINATE_TYPE>  (1) 
2
5
10

$$$$
