34962
     RDKit          3D

 24 25  0  0  0  0  0  0  0  0999 V2000
   -2.7227   -3.4260    0.9431 Cl  0  0  0  0  0  0  0  0  0  0  0  0
    5.0203   -1.2626    1.2813 Cl  0  0  0  0  0  0  0  0  0  0  0  0
    3.8851   -3.2595   -0.4597 Cl  0  0  0  0  0  0  0  0  0  0  0  0
    4.9987   -0.8625   -1.6179 Cl  0  0  0  0  0  0  0  0  0  0  0  0
    2.4702    3.5073   -1.0209 Cl  0  0  0  0  0  0  0  0  0  0  0  0
    0.0060    3.4614    0.4733 Cl  0  0  0  0  0  0  0  0  0  0  0  0
    2.5020    3.1137    1.8790 Cl  0  0  0  0  0  0  0  0  0  0  0  0
   -4.0519    2.3350   -1.0684 Cl  0  0  0  0  0  0  0  0  0  0  0  0
   -6.3710    0.3956    0.0820 Cl  0  0  0  0  0  0  0  0  0  0  0  0
   -0.7302   -1.4181   -0.1766 N   0  0  0  0  0  0  0  0  0  0  0  0
    0.4232    0.6065    0.0856 N   0  0  0  0  0  0  0  0  0  0  0  0
    1.6142   -1.4571   -0.1982 N   0  0  0  0  0  0  0  0  0  0  0  0
    2.8226    0.5988    0.0674 N   0  0  0  0  0  0  0  0  0  0  0  0
   -2.0764   -0.9936   -0.1115 C   0  0  0  0  0  0  0  0  0  0  0  0
    0.4909   -0.7249   -0.0927 C   0  0  0  0  0  0  0  0  0  0  0  0
    1.6254    1.2003    0.1562 C   0  0  0  0  0  0  0  0  0  0  0  0
    2.7394   -0.7297   -0.1094 C   0  0  0  0  0  0  0  0  0  0  0  0
   -3.0767   -1.8302    0.3838 C   0  0  0  0  0  0  0  0  0  0  0  0
   -2.3965    0.2893   -0.5552 C   0  0  0  0  0  0  0  0  0  0  0  0
    4.0271   -1.4726   -0.2181 C   0  0  0  0  0  0  0  0  0  0  0  0
    1.6317    2.6779    0.3532 C   0  0  0  0  0  0  0  0  0  0  0  0
   -3.7170    0.7359   -0.5035 C   0  0  0  0  0  0  0  0  0  0  0  0
   -4.3972   -1.3838    0.4354 C   0  0  0  0  0  0  0  0  0  0  0  0
   -4.7174   -0.1008   -0.0084 C   0  0  0  0  0  0  0  0  0  0  0  0
  1 18  1  0
  2 20  1  0
  3 20  1  0
  4 20  1  0
  5 21  1  0
  6 21  1  0
  7 21  1  0
  8 22  1  0
  9 24  1  0
 10 14  1  0
 10 15  1  0
 11 15  2  0
 11 16  1  0
 12 15  1  0
 12 17  2  0
 13 16  2  0
 13 17  1  0
 14 18  2  0
 14 19  1  0
 16 21  1  0
 17 20  1  0
 18 23  1  0
 19 22  2  0
 22 24  1  0
 23 24  2  0
M  END
>  <PUBCHEM_COMPOUND_CID>  (1) 
34962

>  <PUBCHEM_CONFORMER_RMSD>  (1) 
0.8

>  <PUBCHEM_CONFORMER_DIVERSEORDER>  (1) 
2
9
3
15
6
11
7
13
1
12
4
14
5
10
8
16

>  <PUBCHEM_MMFF94_PARTIAL_CHARGES>  (1) 
27
1 -0.18
10 -0.6
11 -0.62
12 -0.62
13 -0.62
14 0.1
15 0.72
16 0.48
17 0.48
18 0.18
19 -0.15
2 -0.29
20 1.01
21 1.01
22 0.18
23 -0.15
24 0.18
25 0.4
26 0.15
27 0.15
3 -0.29
4 -0.29
5 -0.29
6 -0.29
7 -0.29
8 -0.18
9 -0.18

>  <PUBCHEM_EFFECTIVE_ROTOR_COUNT>  (1) 
4

>  <PUBCHEM_PHARMACOPHORE_FEATURES>  (1) 
4
1 10 donor
4 10 11 12 15 cation
6 11 12 13 15 16 17 rings
6 14 18 19 22 23 24 rings

>  <PUBCHEM_HEAVY_ATOM_COUNT>  (1) 
24

>  <PUBCHEM_ATOM_DEF_STEREO_COUNT>  (1) 
0

>  <PUBCHEM_ATOM_UDEF_STEREO_COUNT>  (1) 
0

>  <PUBCHEM_BOND_DEF_STEREO_COUNT>  (1) 
0

>  <PUBCHEM_BOND_UDEF_STEREO_COUNT>  (1) 
0

>  <PUBCHEM_ISOTOPIC_ATOM_COUNT>  (1) 
0

>  <PUBCHEM_COMPONENT_COUNT>  (1) 
1

>  <PUBCHEM_CACTVS_TAUTO_COUNT>  (1) 
3

>  <PUBCHEM_CONFORMER_ID>  (1) 
0000889200000002

>  <PUBCHEM_MMFF94_ENERGY>  (1) 
59.7139

>  <PUBCHEM_FEATURE_SELFOVERLAP>  (1) 
20.297

>  <PUBCHEM_SHAPE_FINGERPRINT>  (1) 
11405975 8 18410013281898839003
11578080 2 14059300699584573588
12166972 35 17918273138968104043
12236239 1 16443351949112102007
12403259 226 18409164446247991517
12403259 415 18260259738467125861
12422481 6 18052501583307686216
12553582 1 18340503161881681122
12633257 1 18411707582267533371
12788726 201 18122908621139317634
13134695 92 17703782618018779328
13140716 1 18339354274850765635
13402501 40 18337669720495991293
13533116 47 18269274733087521631
138480 1 18411982485538560224
140371 6 18342185410165954538
14251757 5 18263656086281245798
14341114 176 18409454695674193125
14347329 18 17097476610648890501
14466204 15 18263636277828955035
14790565 3 17618794560932718720
14866123 147 17187569339092929578
15042514 8 17907860605087058938
15196674 1 18337954605850567637
15238133 3 18188768345150265134
15420108 30 17628614647973674688
17492 89 18194119840052827795
17804303 29 18335144197973942999
17980427 23 17274827908801291393
18785283 64 18263643029860461412
20681677 76 18266455597789547207
20832881 197 18334296439843403418
21033648 29 17417230057692675986
21065198 57 18337392742255282171
21133410 127 17823972540802958261
21279426 13 18122059797750964647
21478907 32 18051416163050784902
21859007 373 17824516640138725917
221357 26 18410291381199839109
221490 88 18264778824965830602
23175994 123 18272092656339340959
23366157 5 17969500588239060052
23557571 272 18056480548468843014
23558518 356 17975685400964326874
23559900 14 18337670913990256819
3004659 81 18042128670299551134
314173 41 18409170991636193438
335352 9 18410012113915349015
3411729 13 18268138941960856048
350125 39 18335144168199263797
4015057 19 18340758356364853579
5104073 3 18339082709012661787
59755656 215 18340487876046010996
6287921 2 17897733290845802381
7164475 11 18120942698944352326
7399639 24 17763742487432128795
81228 2 17982183227448291962
9709674 26 18265331884094904771
9971528 1 17918275338028366798
9981440 41 17620462945262683984

>  <PUBCHEM_SHAPE_MULTIPOLES>  (1) 
490.81
11.84
4.5
1.19
6.96
2.14
-0.14
-4.34
0.92
-2.58
-0.72
-1.12
0.46
1.75

>  <PUBCHEM_SHAPE_SELFOVERLAP>  (1) 
953.962

>  <PUBCHEM_SHAPE_VOLUME>  (1) 
292.3

>  <PUBCHEM_COORDINATE_TYPE>  (1) 
2
5
10

$$$$
