34969
     RDKit          3D

 23 24  0  0  0  0  0  0  0  0999 V2000
    2.8161    3.3394   -0.9389 Cl  0  0  0  0  0  0  0  0  0  0  0  0
    0.3054    3.7043    0.4285 Cl  0  0  0  0  0  0  0  0  0  0  0  0
    2.6201    2.8885    1.9461 Cl  0  0  0  0  0  0  0  0  0  0  0  0
    4.3510   -1.8539    1.3478 Cl  0  0  0  0  0  0  0  0  0  0  0  0
    2.9763   -3.5815   -0.5049 Cl  0  0  0  0  0  0  0  0  0  0  0  0
    4.5587   -1.3998   -1.5360 Cl  0  0  0  0  0  0  0  0  0  0  0  0
   -3.5894   -2.2614    0.4498 O   0  0  0  0  0  0  0  0  0  0  0  0
   -1.2480   -0.9514   -0.3990 N   0  0  0  0  0  0  0  0  0  0  0  0
    1.0501   -1.4080   -0.3056 N   0  0  0  0  0  0  0  0  0  0  0  0
    0.2302    0.8293   -0.0217 N   0  0  0  0  0  0  0  0  0  0  0  0
    2.5877    0.3935    0.0796 N   0  0  0  0  0  0  0  0  0  0  0  0
   -2.4985   -0.2958   -0.3885 C   0  0  0  0  0  0  0  0  0  0  0  0
   -3.6469   -0.9639    0.0363 C   0  0  0  0  0  0  0  0  0  0  0  0
    0.0710   -0.4889   -0.2346 C   0  0  0  0  0  0  0  0  0  0  0  0
   -2.5790    1.0322   -0.8075 C   0  0  0  0  0  0  0  0  0  0  0  0
    2.2799   -0.8951   -0.1395 C   0  0  0  0  0  0  0  0  0  0  0  0
    1.5131    1.1972    0.1263 C   0  0  0  0  0  0  0  0  0  0  0  0
   -4.8758   -0.3039    0.0422 C   0  0  0  0  0  0  0  0  0  0  0  0
   -3.8078    1.6921   -0.8016 C   0  0  0  0  0  0  0  0  0  0  0  0
   -4.9563    1.0241   -0.3768 C   0  0  0  0  0  0  0  0  0  0  0  0
    1.7706    2.6457    0.3667 C   0  0  0  0  0  0  0  0  0  0  0  0
    3.4194   -1.8538   -0.2049 C   0  0  0  0  0  0  0  0  0  0  0  0
   -3.3479   -2.4888    1.8366 C   0  0  0  0  0  0  0  0  0  0  0  0
  1 21  1  0
  2 21  1  0
  3 21  1  0
  4 22  1  0
  5 22  1  0
  6 22  1  0
  7 13  1  0
  7 23  1  0
  8 12  1  0
  8 14  1  0
  9 14  2  0
  9 16  1  0
 10 14  1  0
 10 17  2  0
 11 16  2  0
 11 17  1  0
 12 13  2  0
 12 15  1  0
 13 18  1  0
 15 19  2  0
 16 22  1  0
 17 21  1  0
 18 20  2  0
 19 20  1  0
M  END
>  <PUBCHEM_COMPOUND_CID>  (1) 
34969

>  <PUBCHEM_CONFORMER_RMSD>  (1) 
0.8

>  <PUBCHEM_CONFORMER_DIVERSEORDER>  (1) 
1
19
22
15
10
26
4
20
17
18
16
23
13
21
3
14
2
9
24
7
25
12
6
8
11
5

>  <PUBCHEM_MMFF94_PARTIAL_CHARGES>  (1) 
28
1 -0.29
10 -0.62
11 -0.62
12 0.1
13 0.08
14 0.72
15 -0.15
16 0.48
17 0.48
18 -0.15
19 -0.15
2 -0.29
20 -0.15
21 1.01
22 1.01
23 0.28
24 0.4
25 0.15
26 0.15
27 0.15
28 0.15
3 -0.29
4 -0.29
5 -0.29
6 -0.29
7 -0.36
8 -0.6
9 -0.62

>  <PUBCHEM_EFFECTIVE_ROTOR_COUNT>  (1) 
5

>  <PUBCHEM_PHARMACOPHORE_FEATURES>  (1) 
5
1 7 acceptor
1 8 donor
4 8 9 10 14 cation
6 12 13 15 18 19 20 rings
6 9 10 11 14 16 17 rings

>  <PUBCHEM_HEAVY_ATOM_COUNT>  (1) 
23

>  <PUBCHEM_ATOM_DEF_STEREO_COUNT>  (1) 
0

>  <PUBCHEM_ATOM_UDEF_STEREO_COUNT>  (1) 
0

>  <PUBCHEM_BOND_DEF_STEREO_COUNT>  (1) 
0

>  <PUBCHEM_BOND_UDEF_STEREO_COUNT>  (1) 
0

>  <PUBCHEM_ISOTOPIC_ATOM_COUNT>  (1) 
0

>  <PUBCHEM_COMPONENT_COUNT>  (1) 
1

>  <PUBCHEM_CACTVS_TAUTO_COUNT>  (1) 
3

>  <PUBCHEM_CONFORMER_ID>  (1) 
0000889900000001

>  <PUBCHEM_MMFF94_ENERGY>  (1) 
71.2686

>  <PUBCHEM_FEATURE_SELFOVERLAP>  (1) 
25.371

>  <PUBCHEM_SHAPE_FINGERPRINT>  (1) 
10366900 7 18260832596599089711
10608611 8 18337104661750524749
1100329 8 17910960140776733001
11405975 8 18409167723186758275
12422481 6 18052780829175115336
12553582 1 18268160755429468706
12633257 1 18339935831261766291
12788726 201 17906170655478134994
13134695 92 17845923057404506704
13140716 1 18411129234445009649
13533116 47 18341331189048423223
138480 1 18412260623272992892
14022347 108 18265897943541585206
140371 6 18268153054595162004
14223421 5 18264208183200417405
14251757 5 18192724336226031860
14347329 18 16952800645946970165
14466204 15 18192703458469192139
14790565 3 18049722120670590308
14866123 147 16826716181018732203
15042514 8 17620192036284964906
15238133 3 18116992187197056340
15420108 30 17628610215477734880
15927050 60 17909542098169387740
17804303 29 18334579006147599215
1813 80 17916877807109603766
18785283 64 18335980964924658116
19591789 44 17473832104583579588
20681651 13 17630891706332181291
20681677 76 18337949108123773271
21033648 29 17201897268266233427
21065198 57 18409729565117783695
21478907 32 17763745395193787078
221490 88 18336554905424920723
22943178 12 18334855065165300507
23175994 123 18270681944366276261
23366157 5 18113615737528439004
23557571 272 17911795774625578526
23558518 356 18051394464733782366
23559900 14 18335699459708836661
3004659 81 17969789571109449654
3091708 16 8782249677462929408
314173 41 18336830784265271926
4015057 19 18340192073479712125
49207404 50 18120653788830496137
5104073 3 18411419544717945027
6442390 28 17762345016759023052
7164475 11 17905612099666472246
7364860 26 18342453785577042324
7399639 24 17977947118146895699
7808743 9 17185873342433816152
81228 2 17766570053597722736
9709674 26 18335980978067957711
9841814 1 18410289199340712938
9971528 1 17846492587442640630
9981440 41 17836629091641517337

>  <PUBCHEM_SHAPE_MULTIPOLES>  (1) 
458.75
9.94
4.54
1.31
6.76
2.27
-0.48
-4.61
0.53
-4.05
-0.87
-0.76
0.02
1.84

>  <PUBCHEM_SHAPE_SELFOVERLAP>  (1) 
908.263

>  <PUBCHEM_SHAPE_VOLUME>  (1) 
271.7

>  <PUBCHEM_COORDINATE_TYPE>  (1) 
2
5
10

$$$$
