34964
     RDKit          3D

 22 23  0  0  0  0  0  0  0  0999 V2000
   -4.7866   -1.9541    1.0579 Br  0  0  0  0  0  0  0  0  0  0  0  0
    4.7150    1.0449   -1.3036 Cl  0  0  0  0  0  0  0  0  0  0  0  0
    3.6751    3.1947    0.3100 Cl  0  0  0  0  0  0  0  0  0  0  0  0
    4.6213    0.7992    1.6112 Cl  0  0  0  0  0  0  0  0  0  0  0  0
    1.8413   -3.4363    1.1896 Cl  0  0  0  0  0  0  0  0  0  0  0  0
   -0.5905   -3.3209   -0.3531 Cl  0  0  0  0  0  0  0  0  0  0  0  0
    1.9450   -3.1979   -1.7255 Cl  0  0  0  0  0  0  0  0  0  0  0  0
   -1.0386    1.6212    0.0312 N   0  0  0  0  0  0  0  0  0  0  0  0
   -0.0066   -0.4799   -0.1041 N   0  0  0  0  0  0  0  0  0  0  0  0
    1.3030    1.5206    0.0967 N   0  0  0  0  0  0  0  0  0  0  0  0
    2.3883   -0.6151   -0.0393 N   0  0  0  0  0  0  0  0  0  0  0  0
   -2.4051    1.2777   -0.0384 C   0  0  0  0  0  0  0  0  0  0  0  0
    0.1406    0.8517    0.0068 C   0  0  0  0  0  0  0  0  0  0  0  0
    1.1582   -1.1477   -0.1206 C   0  0  0  0  0  0  0  0  0  0  0  0
    2.3831    0.7234    0.0675 C   0  0  0  0  0  0  0  0  0  0  0  0
   -2.8423    0.0488    0.4557 C   0  0  0  0  0  0  0  0  0  0  0  0
   -3.3190    2.1681   -0.6018 C   0  0  0  0  0  0  0  0  0  0  0  0
    3.7118    1.3923    0.1632 C   0  0  0  0  0  0  0  0  0  0  0  0
    1.0778   -2.6313   -0.2413 C   0  0  0  0  0  0  0  0  0  0  0  0
   -4.1938   -0.2898    0.3863 C   0  0  0  0  0  0  0  0  0  0  0  0
   -4.6703    1.8297   -0.6712 C   0  0  0  0  0  0  0  0  0  0  0  0
   -5.1078    0.6008   -0.1772 C   0  0  0  0  0  0  0  0  0  0  0  0
  1 20  1  0
  2 18  1  0
  3 18  1  0
  4 18  1  0
  5 19  1  0
  6 19  1  0
  7 19  1  0
  8 12  1  0
  8 13  1  0
  9 13  2  0
  9 14  1  0
 10 13  1  0
 10 15  2  0
 11 14  2  0
 11 15  1  0
 12 16  2  0
 12 17  1  0
 14 19  1  0
 15 18  1  0
 16 20  1  0
 17 21  2  0
 20 22  2  0
 21 22  1  0
M  END
>  <PUBCHEM_COMPOUND_CID>  (1) 
34964

>  <PUBCHEM_CONFORMER_RMSD>  (1) 
0.6

>  <PUBCHEM_CONFORMER_DIVERSEORDER>  (1) 
1
21
23
36
16
31
15
40
9
32
2
42
22
24
26
7
33
3
30
27
18
37
17
38
4
39
12
28
35
11
13
43
8
5
19
29
20
41
14
34
6
10
25

>  <PUBCHEM_MMFF94_PARTIAL_CHARGES>  (1) 
27
1 -0.11
10 -0.62
11 -0.62
12 0.1
13 0.72
14 0.48
15 0.48
16 -0.15
17 -0.15
18 1.01
19 1.01
2 -0.29
20 0.11
21 -0.15
22 -0.15
23 0.4
24 0.15
25 0.15
26 0.15
27 0.15
3 -0.29
4 -0.29
5 -0.29
6 -0.29
7 -0.29
8 -0.6
9 -0.62

>  <PUBCHEM_EFFECTIVE_ROTOR_COUNT>  (1) 
4

>  <PUBCHEM_PHARMACOPHORE_FEATURES>  (1) 
5
1 1 hydrophobe
1 8 donor
4 8 9 10 13 cation
6 12 16 17 20 21 22 rings
6 9 10 11 13 14 15 rings

>  <PUBCHEM_HEAVY_ATOM_COUNT>  (1) 
22

>  <PUBCHEM_ATOM_DEF_STEREO_COUNT>  (1) 
0

>  <PUBCHEM_ATOM_UDEF_STEREO_COUNT>  (1) 
0

>  <PUBCHEM_BOND_DEF_STEREO_COUNT>  (1) 
0

>  <PUBCHEM_BOND_UDEF_STEREO_COUNT>  (1) 
0

>  <PUBCHEM_ISOTOPIC_ATOM_COUNT>  (1) 
0

>  <PUBCHEM_COMPONENT_COUNT>  (1) 
1

>  <PUBCHEM_CACTVS_TAUTO_COUNT>  (1) 
3

>  <PUBCHEM_CONFORMER_ID>  (1) 
0000889400000001

>  <PUBCHEM_MMFF94_ENERGY>  (1) 
55.3956

>  <PUBCHEM_FEATURE_SELFOVERLAP>  (1) 
25.371

>  <PUBCHEM_SHAPE_FINGERPRINT>  (1) 
10074138 170 17761749055966306578
10366900 7 18343575257752631977
10616163 171 18408325510349471195
11370993 70 18410005542304227385
11488393 25 17844269344803944214
11578080 2 17097483198669331718
12592029 89 18409448085598049912
12730499 353 18409455760873685377
12788726 201 17689425406016297490
12839892 36 18335406993779070650
13140716 1 17906454677470432067
13257819 37 18118993466506847302
13533116 47 18130222628717386633
138480 1 17979071574596930647
13911882 115 18339377335000059395
14787075 74 18129379483033283625
14790565 3 18265621059447311052
15375358 24 18333448725400637625
17980427 23 17385732442981821669
18681886 176 18262242230804479724
19591789 44 18339363066817547356
20028762 73 17914337028985611095
20197701 30 18412258476073713848
20645477 70 18269552741645485295
20693207 138 18119257168745317623
21054139 6 18129078165244135173
21859007 373 16809242888928664525
221490 88 18338807697550456031
22182313 1 18338537290694028019
22393880 68 18338242552857976503
22956985 138 17971465209544887986
23366157 5 17970073240307299106
23402539 116 17749100132556425825
23557571 272 17095803201132602325
23559900 14 18193548970110225011
239999 70 18272656714293981294
3060560 45 18411421700754967772
3298306 158 18411981364456604916
33824 294 18410855430337853275
338550 245 18334292089605820118
4280585 95 17762905359831436894
474229 33 18338234989304282961
484989 97 18267326308257544118
5104073 3 18265054635703500921
58051976 378 18412260614761802877
59755656 215 18335421222968720780
633830 44 18202563990437855748
6438718 38 17629481070882596670
6442390 28 18337675325201303198
6669772 16 18131636682174807198
7364860 26 18198059184055874470
7808743 9 17977381960887129016
81228 2 17618767494390658384
81539 233 18408885109758805950
9709674 26 18337672997687731343
9841814 1 17975697190686146658
9862522 239 18269265927581794467

>  <PUBCHEM_SHAPE_MULTIPOLES>  (1) 
449.99
10.63
4.26
1.19
5.88
3.33
-0.02
-5.85
1.09
-1.77
-0.41
-0.92
0.59
1.46

>  <PUBCHEM_SHAPE_SELFOVERLAP>  (1) 
877.657

>  <PUBCHEM_SHAPE_VOLUME>  (1) 
282.2

>  <PUBCHEM_COORDINATE_TYPE>  (1) 
2
5
10

$$$$
