34968
     RDKit          3D

 22 23  0  0  0  0  0  0  0  0999 V2000
    2.1918   -3.3453    1.3266 Cl  0  0  0  0  0  0  0  0  0  0  0  0
   -0.2866   -3.4558   -0.1403 Cl  0  0  0  0  0  0  0  0  0  0  0  0
    2.1932   -3.2224   -1.5974 Cl  0  0  0  0  0  0  0  0  0  0  0  0
    4.6813    1.2079   -1.4349 Cl  0  0  0  0  0  0  0  0  0  0  0  0
    3.5469    3.3501    0.1241 Cl  0  0  0  0  0  0  0  0  0  0  0  0
    4.6909    1.0796    1.4889 Cl  0  0  0  0  0  0  0  0  0  0  0  0
   -1.0560    1.4574    0.0604 N   0  0  0  0  0  0  0  0  0  0  0  0
    1.2881    1.5151    0.0553 N   0  0  0  0  0  0  0  0  0  0  0  0
    0.1112   -0.5745   -0.0232 N   0  0  0  0  0  0  0  0  0  0  0  0
    2.5105   -0.5480   -0.0301 N   0  0  0  0  0  0  0  0  0  0  0  0
   -2.3974    1.0218    0.0485 C   0  0  0  0  0  0  0  0  0  0  0  0
    0.1714    0.7673    0.0294 C   0  0  0  0  0  0  0  0  0  0  0  0
   -5.0506    0.1600    0.0242 C   0  0  0  0  0  0  0  0  0  0  0  0
   -3.3863    1.8243   -0.5207 C   0  0  0  0  0  0  0  0  0  0  0  0
   -2.7351   -0.2118    0.6053 C   0  0  0  0  0  0  0  0  0  0  0  0
   -4.7129    1.3934   -0.5326 C   0  0  0  0  0  0  0  0  0  0  0  0
   -4.0618   -0.6426    0.5931 C   0  0  0  0  0  0  0  0  0  0  0  0
    2.4182    0.7907    0.0230 C   0  0  0  0  0  0  0  0  0  0  0  0
    1.3175   -1.1638   -0.0506 C   0  0  0  0  0  0  0  0  0  0  0  0
   -6.4691   -0.3001    0.0122 C   0  0  0  0  0  0  0  0  0  0  0  0
    1.3338   -2.6531   -0.1097 C   0  0  0  0  0  0  0  0  0  0  0  0
    3.7010    1.5496    0.0486 C   0  0  0  0  0  0  0  0  0  0  0  0
  1 21  1  0
  2 21  1  0
  3 21  1  0
  4 22  1  0
  5 22  1  0
  6 22  1  0
  7 11  1  0
  7 12  1  0
  8 12  2  0
  8 18  1  0
  9 12  1  0
  9 19  2  0
 10 18  2  0
 10 19  1  0
 11 14  2  0
 11 15  1  0
 13 16  2  0
 13 17  1  0
 13 20  1  0
 14 16  1  0
 15 17  2  0
 18 22  1  0
 19 21  1  0
M  END
>  <PUBCHEM_COMPOUND_CID>  (1) 
34968

>  <PUBCHEM_CONFORMER_RMSD>  (1) 
0.6

>  <PUBCHEM_CONFORMER_DIVERSEORDER>  (1) 
1
9
6
14
11
3
2
12
7
13
4
10
8
15
5
16

>  <PUBCHEM_MMFF94_PARTIAL_CHARGES>  (1) 
27
1 -0.29
10 -0.62
11 0.1
12 0.72
13 -0.14
14 -0.15
15 -0.15
16 -0.15
17 -0.15
18 0.48
19 0.48
2 -0.29
20 0.14
21 1.01
22 1.01
23 0.4
24 0.15
25 0.15
26 0.15
27 0.15
3 -0.29
4 -0.29
5 -0.29
6 -0.29
7 -0.6
8 -0.62
9 -0.62

>  <PUBCHEM_EFFECTIVE_ROTOR_COUNT>  (1) 
4

>  <PUBCHEM_PHARMACOPHORE_FEATURES>  (1) 
4
1 7 donor
4 7 8 9 12 cation
6 11 13 14 15 16 17 rings
6 8 9 10 12 18 19 rings

>  <PUBCHEM_HEAVY_ATOM_COUNT>  (1) 
22

>  <PUBCHEM_ATOM_DEF_STEREO_COUNT>  (1) 
0

>  <PUBCHEM_ATOM_UDEF_STEREO_COUNT>  (1) 
0

>  <PUBCHEM_BOND_DEF_STEREO_COUNT>  (1) 
0

>  <PUBCHEM_BOND_UDEF_STEREO_COUNT>  (1) 
0

>  <PUBCHEM_ISOTOPIC_ATOM_COUNT>  (1) 
0

>  <PUBCHEM_COMPONENT_COUNT>  (1) 
1

>  <PUBCHEM_CACTVS_TAUTO_COUNT>  (1) 
3

>  <PUBCHEM_CONFORMER_ID>  (1) 
0000889800000001

>  <PUBCHEM_MMFF94_ENERGY>  (1) 
57.296

>  <PUBCHEM_FEATURE_SELFOVERLAP>  (1) 
20.297

>  <PUBCHEM_SHAPE_FINGERPRINT>  (1) 
10090160 65 18409722997775385853
10366900 7 18411984689215323729
10411042 1 17906734696137510430
10693767 8 17988087677814794958
10906281 52 17968676981163572473
11405975 8 18120935006468118465
11488393 25 17914920667801843614
11719270 70 18410002226225634042
11963148 33 18189048854061132475
12107183 9 17622454844453654745
12592029 89 18409448094119529616
12730499 353 18409175423999790377
12788726 201 17203055067675892449
12839892 36 18335686274148773362
13140716 1 18194957680570624792
13533116 47 18202283559939219673
13583140 156 16880162698547507352
13692114 37 18200302346585651118
13836976 161 18335425702693613084
138480 1 18050285860375196003
13911882 115 18336842965140663747
14787075 74 18129659849945407089
14790565 3 18265622154706267021
14863182 85 18336839635923467254
14955137 171 18265324011815653010
15196674 1 18337108961223628593
15375358 24 18259705605785910569
15849732 13 18260542330478185512
15961568 22 17385732404058493884
18681886 176 18262522610501232764
20567600 347 18261112976095110138
20645477 70 18339643335051074151
20693207 138 18117284649180080719
21049683 118 17982142807347936304
21054139 6 18199735011643986127
21197605 99 18266745877697686907
21344244 181 17560257901835944230
221490 88 18265903462453000919
22182313 1 18191895450635808923
22224240 67 18270390710812743881
22393880 68 18339648819597542103
22956985 138 17899122833473918834
23366157 5 17969791773973244618
23557571 272 17095519553007843933
23558518 356 18046350721429273969
23559900 14 18193829341375318585
239999 70 18271812293558797678
3060560 45 18410298021330366932
312423 11 17916032252566129745
3298306 158 18410857672184064412
33824 294 18410293597070751691
42630746 31 18342174462162467702
4340502 62 18343298188678663169
474229 33 18337953505827327985
5104073 3 18336830767665411881
5486654 2 18340492273812635477
58051976 378 18412262835201788141
59755656 215 18335143085218424854
6025842 7 18412260610688225927
621550 34 18260542329644904949
633830 44 18201721781747719828
6669772 16 18202570583903297342
67856867 119 18336819797638390395
7364860 26 18269556048686010798
7808743 9 17977101593990881696
81228 2 17617647100769013306
81539 233 18408042905353217662
8272917 22 18341615871764479757
9709674 26 18335425621711602939
9841814 1 18046910381337415922

>  <PUBCHEM_SHAPE_MULTIPOLES>  (1) 
444.04
11.41
4.06
1.11
13.41
3.42
-0.06
-6.25
0.02
-4.51
-0.26
-1.27
0.45
0.54

>  <PUBCHEM_SHAPE_SELFOVERLAP>  (1) 
878.211

>  <PUBCHEM_SHAPE_VOLUME>  (1) 
259.1

>  <PUBCHEM_COORDINATE_TYPE>  (1) 
2
5
10

$$$$
