34976
     RDKit          3D

 21 22  0  0  0  0  0  0  0  0999 V2000
    1.9689    3.2574   -1.4646 Cl  0  0  0  0  0  0  0  0  0  0  0  0
   -0.4978    3.5014    0.0059 Cl  0  0  0  0  0  0  0  0  0  0  0  0
    1.9807    3.2489    1.4620 Cl  0  0  0  0  0  0  0  0  0  0  0  0
    4.3311   -1.2589    1.4643 Cl  0  0  0  0  0  0  0  0  0  0  0  0
    3.1241   -3.4245   -0.0054 Cl  0  0  0  0  0  0  0  0  0  0  0  0
    4.3305   -1.2454   -1.4624 Cl  0  0  0  0  0  0  0  0  0  0  0  0
   -1.4183   -1.3899    0.0009 N   0  0  0  0  0  0  0  0  0  0  0  0
    0.9230   -1.5196   -0.0004 N   0  0  0  0  0  0  0  0  0  0  0  0
   -0.1890    0.6068    0.0004 N   0  0  0  0  0  0  0  0  0  0  0  0
    2.2085    0.5066   -0.0003 N   0  0  0  0  0  0  0  0  0  0  0  0
   -2.9560    0.4300    0.0003 N   0  0  0  0  0  0  0  0  0  0  0  0
   -0.1741   -0.7393    0.0003 C   0  0  0  0  0  0  0  0  0  0  0  0
    2.0749   -0.8295   -0.0005 C   0  0  0  0  0  0  0  0  0  0  0  0
    1.0349    1.1592    0.0003 C   0  0  0  0  0  0  0  0  0  0  0  0
   -2.7501   -0.9062    0.0007 C   0  0  0  0  0  0  0  0  0  0  0  0
    1.0971    2.6486    0.0010 C   0  0  0  0  0  0  0  0  0  0  0  0
    3.3336   -1.6282   -0.0011 C   0  0  0  0  0  0  0  0  0  0  0  0
   -3.7668   -1.8475    0.0004 C   0  0  0  0  0  0  0  0  0  0  0  0
   -5.0792   -1.3882   -0.0004 C   0  0  0  0  0  0  0  0  0  0  0  0
   -5.3313   -0.0208   -0.0009 C   0  0  0  0  0  0  0  0  0  0  0  0
   -4.2447    0.8390   -0.0004 C   0  0  0  0  0  0  0  0  0  0  0  0
  1 16  1  0
  2 16  1  0
  3 16  1  0
  4 17  1  0
  5 17  1  0
  6 17  1  0
  7 12  1  0
  7 15  1  0
  8 12  2  0
  8 13  1  0
  9 12  1  0
  9 14  2  0
 10 13  2  0
 10 14  1  0
 11 15  2  0
 11 21  1  0
 13 17  1  0
 14 16  1  0
 15 18  1  0
 18 19  2  0
 19 20  1  0
 20 21  2  0
M  END
>  <PUBCHEM_COMPOUND_CID>  (1) 
34976

>  <PUBCHEM_CONFORMER_RMSD>  (1) 
0.6

>  <PUBCHEM_CONFORMER_DIVERSEORDER>  (1) 
1
21
28
29
17
23
4
26
6
11
25
3
24
7
27
2
22
10
19
8
5
16
14
15
18
20
13
12
9

>  <PUBCHEM_MMFF94_PARTIAL_CHARGES>  (1) 
26
1 -0.29
10 -0.62
11 -0.62
12 0.72
13 0.48
14 0.48
15 0.41
16 1.01
17 1.01
18 -0.15
19 -0.15
2 -0.29
20 -0.15
21 0.16
22 0.4
23 0.15
24 0.15
25 0.15
26 0.15
3 -0.29
4 -0.29
5 -0.29
6 -0.29
7 -0.6
8 -0.62
9 -0.62

>  <PUBCHEM_EFFECTIVE_ROTOR_COUNT>  (1) 
4

>  <PUBCHEM_PHARMACOPHORE_FEATURES>  (1) 
5
1 11 acceptor
1 7 donor
4 7 8 9 12 cation
6 11 15 18 19 20 21 rings
6 8 9 10 12 13 14 rings

>  <PUBCHEM_HEAVY_ATOM_COUNT>  (1) 
21

>  <PUBCHEM_ATOM_DEF_STEREO_COUNT>  (1) 
0

>  <PUBCHEM_ATOM_UDEF_STEREO_COUNT>  (1) 
0

>  <PUBCHEM_BOND_DEF_STEREO_COUNT>  (1) 
0

>  <PUBCHEM_BOND_UDEF_STEREO_COUNT>  (1) 
0

>  <PUBCHEM_ISOTOPIC_ATOM_COUNT>  (1) 
0

>  <PUBCHEM_COMPONENT_COUNT>  (1) 
1

>  <PUBCHEM_CACTVS_TAUTO_COUNT>  (1) 
4

>  <PUBCHEM_CONFORMER_ID>  (1) 
000088A000000001

>  <PUBCHEM_MMFF94_ENERGY>  (1) 
50.9653

>  <PUBCHEM_FEATURE_SELFOVERLAP>  (1) 
25.371

>  <PUBCHEM_SHAPE_FINGERPRINT>  (1) 
11405975 8 18411704309708364211
116883 192 18268434529439919588
12403259 226 18335415777646482637
12553582 1 18337680719348268322
12633257 1 18340780256292326097
12788726 201 18118971295664502194
13009979 54 17987817240750670497
13052359 8 17615963314237744164
13134695 92 18131060533032640265
13140716 1 18266732652865043978
13533116 47 18339644568297661655
13583140 156 14044607796162934930
138480 1 18410575106344156897
14022347 108 18335708191710327994
14347329 18 16734653179846713573
14790565 3 17976823408727102100
14866123 147 17186721619859500211
15042514 8 17834111948964308954
15196674 1 18410855499589962981
15420108 30 17770761714314468480
15442244 35 18411983542363798001
15536298 74 18340768255868747521
15664445 248 18340784671566244846
15848700 24 18412544275956007998
15885798 251 18336825273727149266
15927050 60 17764866189128066296
17492 89 18267865167560228991
1813 80 18272098153739452022
18222031 100 18272089374794780174
18785283 64 18189055463471455148
19591789 44 16034370663002785679
20369508 70 18411699906654780982
20645477 70 18336826510851855703
20671657 1 18269839877310061469
20739085 24 18335972177601081024
21033648 29 17202464637894087155
21065198 57 18409730694910726675
21267235 1 18411428310799352115
21478907 32 17977103461715722706
221490 88 18263652916917498331
2255824 54 18335703913621791990
23366157 5 18041840747785027668
23419403 2 18119217689332638124
23557571 272 18127131862660621038
23558518 356 17903909298977529258
23559900 14 18340482357097048603
3004659 81 17968945176164947830
3091708 16 9141419405461360256
312423 11 18270695276219296795
314173 41 18409737239765873526
335352 9 18338798906364032341
3411729 13 18267575996133571016
3421961 26 18411696608024659881
345986 75 17316735721754025074
4409770 3 17539961784933947245
474 4 17971469847987552605
5104073 3 18339365279432847275
59755656 215 18338515373470628932
6443956 14 18409730638474583238
67856867 119 18270108162579323779
68521 5 18266464208971823692
7164475 11 18046349630876624950
7364860 26 18269555099271424080
81228 2 18049455746750322090
8863177 126 17896899831495009787
9709674 26 18192151705991695315
9841814 1 18334571360958249330
9971528 1 18202001014735248546
9981440 41 17617651502841921857

>  <PUBCHEM_SHAPE_MULTIPOLES>  (1) 
418.48
9.68
4.33
1.07
10.4
3.47
0
-6.82
0
-3.72
0
-1.44
0.47
0

>  <PUBCHEM_SHAPE_SELFOVERLAP>  (1) 
824.988

>  <PUBCHEM_SHAPE_VOLUME>  (1) 
244.1

>  <PUBCHEM_COORDINATE_TYPE>  (1) 
2
5
10

$$$$
