34975
     RDKit          3D

 20 21  0  0  0  0  0  0  0  0999 V2000
   -4.0917    1.2441    1.4649 Cl  0  0  0  0  0  0  0  0  0  0  0  0
   -2.8925    3.4134   -0.0056 Cl  0  0  0  0  0  0  0  0  0  0  0  0
   -4.0917    1.2297   -1.4617 Cl  0  0  0  0  0  0  0  0  0  0  0  0
   -1.7148   -3.2642   -1.4645 Cl  0  0  0  0  0  0  0  0  0  0  0  0
    0.7534   -3.4999    0.0050 Cl  0  0  0  0  0  0  0  0  0  0  0  0
   -1.7253   -3.2561    1.4622 Cl  0  0  0  0  0  0  0  0  0  0  0  0
    4.2301    2.0676   -0.0003 S   0  0  0  0  0  0  0  0  0  0  0  0
    1.6569    1.3948   -0.0011 N   0  0  0  0  0  0  0  0  0  0  0  0
    0.4346   -0.6064    0.0002 N   0  0  0  0  0  0  0  0  0  0  0  0
   -0.6847    1.5161   -0.0005 N   0  0  0  0  0  0  0  0  0  0  0  0
   -1.9632   -0.5144    0.0003 N   0  0  0  0  0  0  0  0  0  0  0  0
    3.2710   -0.3329    0.0003 N   0  0  0  0  0  0  0  0  0  0  0  0
    0.4082    0.7362   -0.0004 C   0  0  0  0  0  0  0  0  0  0  0  0
   -0.7873   -1.1630    0.0004 C   0  0  0  0  0  0  0  0  0  0  0  0
   -1.8343    0.8221   -0.0002 C   0  0  0  0  0  0  0  0  0  0  0  0
   -3.0957    1.6163   -0.0008 C   0  0  0  0  0  0  0  0  0  0  0  0
   -0.8444   -2.6526    0.0008 C   0  0  0  0  0  0  0  0  0  0  0  0
    2.9829    0.9225   -0.0004 C   0  0  0  0  0  0  0  0  0  0  0  0
    5.3399    0.7601    0.0006 C   0  0  0  0  0  0  0  0  0  0  0  0
    4.6487   -0.4333    0.0007 C   0  0  0  0  0  0  0  0  0  0  0  0
  1 16  1  0
  2 16  1  0
  3 16  1  0
  4 17  1  0
  5 17  1  0
  6 17  1  0
  7 18  1  0
  7 19  1  0
  8 13  1  0
  8 18  1  0
  9 13  2  0
  9 14  1  0
 10 13  1  0
 10 15  2  0
 11 14  2  0
 11 15  1  0
 12 18  2  0
 12 20  1  0
 14 17  1  0
 15 16  1  0
 19 20  2  0
M  END
>  <PUBCHEM_COMPOUND_CID>  (1) 
34975

>  <PUBCHEM_CONFORMER_RMSD>  (1) 
0.6

>  <PUBCHEM_CONFORMER_DIVERSEORDER>  (1) 
1
28
14
32
9
25
8
30
31
5
4
29
26
2
27
3
24
16
19
20
21
22
15
23
7
18
10
11
12
13
6
17

>  <PUBCHEM_MMFF94_PARTIAL_CHARGES>  (1) 
23
1 -0.29
10 -0.62
11 -0.62
12 -0.57
13 0.72
14 0.48
15 0.48
16 1.01
17 1.01
18 0.46
19 -0.11
2 -0.29
20 0.08
21 0.4
22 0.15
23 0.15
3 -0.29
4 -0.29
5 -0.29
6 -0.29
7 -0.08
8 -0.58
9 -0.62

>  <PUBCHEM_EFFECTIVE_ROTOR_COUNT>  (1) 
4

>  <PUBCHEM_PHARMACOPHORE_FEATURES>  (1) 
4
1 8 donor
4 8 9 10 13 cation
5 7 12 18 19 20 rings
6 9 10 11 13 14 15 rings

>  <PUBCHEM_HEAVY_ATOM_COUNT>  (1) 
20

>  <PUBCHEM_ATOM_DEF_STEREO_COUNT>  (1) 
0

>  <PUBCHEM_ATOM_UDEF_STEREO_COUNT>  (1) 
0

>  <PUBCHEM_BOND_DEF_STEREO_COUNT>  (1) 
0

>  <PUBCHEM_BOND_UDEF_STEREO_COUNT>  (1) 
0

>  <PUBCHEM_ISOTOPIC_ATOM_COUNT>  (1) 
0

>  <PUBCHEM_COMPONENT_COUNT>  (1) 
1

>  <PUBCHEM_CACTVS_TAUTO_COUNT>  (1) 
4

>  <PUBCHEM_CONFORMER_ID>  (1) 
0000889F00000001

>  <PUBCHEM_MMFF94_ENERGY>  (1) 
38.8606

>  <PUBCHEM_FEATURE_SELFOVERLAP>  (1) 
20.297

>  <PUBCHEM_SHAPE_FINGERPRINT>  (1) 
10411042 1 17762056940349669122
10616163 171 18338801234109868302
11357001 24 18263931118685946443
11405975 8 18409727396460213776
12173636 292 18410570695428575044
12500047 106 18412258463331405576
12553582 1 17617948375376517238
12555020 224 18341044130155331222
12592029 89 18265621991438636947
12788726 201 18192978542392472843
13004483 165 17839451529400154614
13052359 8 18335418006201863083
13140716 1 18266187321004640401
13544592 145 18199480887456619382
13583140 156 17167859759788077265
138480 1 17401767419797654694
14178342 30 18192136300102013496
14251751 93 18335138712883890307
14508225 48 17909816971016473989
14790565 3 18340776935592484537
15042514 8 18263934400425881059
16752209 62 18267008639121710266
167882 2 18120649132795887702
19591789 44 18339081484276730763
20101258 96 17976271449388646032
204376 136 18410578361934427713
20510252 161 18342742961087288657
20645477 56 18408885152914759204
21033648 29 18336814325814132272
21041028 32 17758971697995054939
21478907 32 18124590049021982191
21524375 3 18412544275982186701
22224240 67 18339935853021823153
23402539 116 18343857831961402205
23419403 2 17196908835835555159
23557571 272 18199479942405928748
23558518 356 17898854810207444128
3071541 12 17834678197368139501
3091708 16 9125412676413427563
352729 6 18411144653161122869
3759504 43 18187642509615281927
474229 33 18410295813664039201
5104073 3 18337950216621261128
532947 4 18124880045287466342
559249 180 18335975411975075506
58779409 54 18268698588371932223
59755656 215 18408605842949459135
59755656 520 18130517361624825353
6138700 20 17907299849999673726
633830 44 18128540357882045509
69090 78 18410570682606723004
7364860 26 17835802993494592013
81228 2 18049991496575637561
9709674 26 18343587365201804718

>  <PUBCHEM_SHAPE_MULTIPOLES>  (1) 
401.75
8.86
4.47
1.09
10.14
3.56
0
-6.86
0
-3.31
0
-1.39
0.48
0

>  <PUBCHEM_SHAPE_SELFOVERLAP>  (1) 
776.182

>  <PUBCHEM_SHAPE_VOLUME>  (1) 
245.9

>  <PUBCHEM_COORDINATE_TYPE>  (1) 
2
5
10

$$$$
