34985
     RDKit          3D

 16 16  0  0  0  0  0  0  0  0999 V2000
    3.1101    1.4730   -1.4644 Cl  0  0  0  0  0  0  0  0  0  0  0  0
    1.0976    2.9211    0.0051 Cl  0  0  0  0  0  0  0  0  0  0  0  0
    3.1146    1.4598    1.4622 Cl  0  0  0  0  0  0  0  0  0  0  0  0
   -2.1516   -0.8491   -0.0014 N   0  0  0  0  0  0  0  0  0  0  0  0
   -0.0868    0.2619   -0.0009 N   0  0  0  0  0  0  0  0  0  0  0  0
   -0.1910   -2.1353   -0.0017 N   0  0  0  0  0  0  0  0  0  0  0  0
    1.9372   -1.0269   -0.0007 N   0  0  0  0  0  0  0  0  0  0  0  0
   -2.8980    0.3964    0.0006 C   0  0  0  0  0  0  0  0  0  0  0  0
   -2.5326    1.1930   -1.2551 C   0  0  0  0  0  0  0  0  0  0  0  0
   -4.3952    0.0747    0.0019 C   0  0  0  0  0  0  0  0  0  0  0  0
   -2.5235    1.1849    1.2578 C   0  0  0  0  0  0  0  0  0  0  0  0
   -0.7717   -0.9091   -0.0013 C   0  0  0  0  0  0  0  0  0  0  0  0
    1.2492    0.1261   -0.0003 C   0  0  0  0  0  0  0  0  0  0  0  0
    1.1517   -2.1159   -0.0012 C   0  0  0  0  0  0  0  0  0  0  0  0
    2.0498    1.3835    0.0007 C   0  0  0  0  0  0  0  0  0  0  0  0
    1.8402   -3.4381   -0.0013 C   0  0  0  0  0  0  0  0  0  0  0  0
  1 15  1  0
  2 15  1  0
  3 15  1  0
  4  8  1  0
  4 12  1  0
  5 12  2  0
  5 13  1  0
  6 12  1  0
  6 14  2  0
  7 13  2  0
  7 14  1  0
  8  9  1  0
  8 10  1  0
  8 11  1  0
 13 15  1  0
 14 16  1  0
M  END
>  <PUBCHEM_COMPOUND_CID>  (1) 
34985

>  <PUBCHEM_CONFORMER_RMSD>  (1) 
0.6

>  <PUBCHEM_CONFORMER_DIVERSEORDER>  (1) 
1
12
6
3
8
10
7
5
4
9
11
2

>  <PUBCHEM_MMFF94_PARTIAL_CHARGES>  (1) 
14
1 -0.29
12 0.72
13 0.48
14 0.48
15 1.01
16 0.14
2 -0.29
26 0.4
3 -0.29
4 -0.87
5 -0.62
6 -0.62
7 -0.62
8 0.37

>  <PUBCHEM_EFFECTIVE_ROTOR_COUNT>  (1) 
3

>  <PUBCHEM_PHARMACOPHORE_FEATURES>  (1) 
4
1 4 donor
4 4 5 6 12 cation
4 8 9 10 11 hydrophobe
6 5 6 7 12 13 14 rings

>  <PUBCHEM_HEAVY_ATOM_COUNT>  (1) 
16

>  <PUBCHEM_ATOM_DEF_STEREO_COUNT>  (1) 
0

>  <PUBCHEM_ATOM_UDEF_STEREO_COUNT>  (1) 
0

>  <PUBCHEM_BOND_DEF_STEREO_COUNT>  (1) 
0

>  <PUBCHEM_BOND_UDEF_STEREO_COUNT>  (1) 
0

>  <PUBCHEM_ISOTOPIC_ATOM_COUNT>  (1) 
0

>  <PUBCHEM_COMPONENT_COUNT>  (1) 
1

>  <PUBCHEM_CACTVS_TAUTO_COUNT>  (1) 
4

>  <PUBCHEM_CONFORMER_ID>  (1) 
000088A900000001

>  <PUBCHEM_MMFF94_ENERGY>  (1) 
43.6029

>  <PUBCHEM_FEATURE_SELFOVERLAP>  (1) 
20.297

>  <PUBCHEM_SHAPE_FINGERPRINT>  (1) 
1 1 18411134757709570822
10967382 1 18410855455838508226
10980938 120 18409449172024419169
13140716 1 18195242454172052025
13380535 21 18336840761400304503
13380535 76 18335977674742313043
14178342 30 18341887528303527241
15309172 13 18264499536196058353
15775835 57 18187930650254986285
16945 1 18338797930630852801
17134986 127 18263368156027010396
18186145 218 18201726192531075585
18219364 16 18337121179841551393
20097449 115 17904763280420410658
20510252 161 17765441232786052018
20559304 39 18342456993674720651
20645476 183 17898577737503646588
20671657 1 18342460317916383382
20711985 344 17399805285816546766
21041028 32 17979081479012866465
21130352 189 18049155575390776423
21524375 3 18262516021540800522
21639500 275 18338785763262797181
2255824 54 18337679594188376879
22854114 111 18413388739551180721
2334 1 18338236088953327030
23419403 2 17611432300287648358
23557571 272 17129858580573809687
23598291 2 17843419396634890113
25 1 18409176518936843484
2748010 2 18338806718334673382
305870 269 18339350950815077818
3060560 45 18337675316453379756
3071541 158 18117840993257795470
3071541 37 18408328778176011871
3091708 16 9548475089822369458
352729 6 17906167708967065222
458136 41 18264510475398321603
474 4 18411982498549855001
7364860 26 18342735174490993674
81228 2 17402613446713606490
81539 233 18259982690894626871

>  <PUBCHEM_SHAPE_MULTIPOLES>  (1) 
314.96
5.86
3.27
1.12
4.39
2.13
0
-2.4
0
-2.79
0
-0.44
-0.67
0

>  <PUBCHEM_SHAPE_SELFOVERLAP>  (1) 
609.617

>  <PUBCHEM_SHAPE_VOLUME>  (1) 
189.3

>  <PUBCHEM_COORDINATE_TYPE>  (1) 
2
5
10

$$$$
