34987
     RDKit          3D

 20 20  0  0  0  0  0  0  0  0999 V2000
   -4.6765    1.0070    1.1792 Cl  0  0  0  0  0  0  0  0  0  0  0  0
   -2.4026    2.7695    1.0061 Cl  0  0  0  0  0  0  0  0  0  0  0  0
   -3.6847    1.8957   -1.4269 Cl  0  0  0  0  0  0  0  0  0  0  0  0
    1.0955   -0.7169   -0.1754 N   0  0  0  0  0  0  0  0  0  0  0  0
   -1.0052    0.3066    0.0190 N   0  0  0  0  0  0  0  0  0  0  0  0
   -0.8064   -2.0834   -0.0571 N   0  0  0  0  0  0  0  0  0  0  0  0
   -2.9701   -1.0651    0.1419 N   0  0  0  0  0  0  0  0  0  0  0  0
    4.1784    0.0726    0.3848 C   0  0  0  0  0  0  0  0  0  0  0  0
    3.2844    0.1569   -0.8930 C   0  0  0  0  0  0  0  0  0  0  0  0
    1.7540    0.4125   -0.8106 C   0  0  0  0  0  0  0  0  0  0  0  0
    5.4282   -0.7978    0.1580 C   0  0  0  0  0  0  0  0  0  0  0  0
    3.3389   -0.6232    1.4839 C   0  0  0  0  0  0  0  0  0  0  0  0
    4.6022    1.4473    0.9195 C   0  0  0  0  0  0  0  0  0  0  0  0
    1.3685    1.6920   -0.0675 C   0  0  0  0  0  0  0  0  0  0  0  0
    1.2015    0.4973   -2.2472 C   0  0  0  0  0  0  0  0  0  0  0  0
   -0.2757   -0.8344   -0.0683 C   0  0  0  0  0  0  0  0  0  0  0  0
   -2.3304    0.1153    0.1202 C   0  0  0  0  0  0  0  0  0  0  0  0
   -2.1445   -2.1201    0.0492 C   0  0  0  0  0  0  0  0  0  0  0  0
   -3.1777    1.3377    0.2185 C   0  0  0  0  0  0  0  0  0  0  0  0
   -2.7779   -3.4693    0.0659 C   0  0  0  0  0  0  0  0  0  0  0  0
  1 19  1  0
  2 19  1  0
  3 19  1  0
  4 10  1  0
  4 16  1  0
  5 16  2  0
  5 17  1  0
  6 16  1  0
  6 18  2  0
  7 17  2  0
  7 18  1  0
  8  9  1  0
  8 11  1  0
  8 12  1  0
  8 13  1  0
  9 10  1  0
 10 14  1  0
 10 15  1  0
 17 19  1  0
 18 20  1  0
M  END
>  <PUBCHEM_COMPOUND_CID>  (1) 
34987

>  <PUBCHEM_CONFORMER_RMSD>  (1) 
0.8

>  <PUBCHEM_CONFORMER_DIVERSEORDER>  (1) 
7
29
4
22
18
11
34
16
30
21
14
15
13
23
32
35
19
2
31
25
27
26
28
10
17
24
5
33
1
9
20
12
3
6
8

>  <PUBCHEM_MMFF94_PARTIAL_CHARGES>  (1) 
14
1 -0.29
10 0.37
16 0.72
17 0.48
18 0.48
19 1.01
2 -0.29
20 0.14
3 -0.29
38 0.4
4 -0.87
5 -0.62
6 -0.62
7 -0.62

>  <PUBCHEM_EFFECTIVE_ROTOR_COUNT>  (1) 
5

>  <PUBCHEM_PHARMACOPHORE_FEATURES>  (1) 
5
1 4 donor
3 10 14 15 hydrophobe
4 4 5 6 16 cation
4 8 11 12 13 hydrophobe
6 5 6 7 16 17 18 rings

>  <PUBCHEM_HEAVY_ATOM_COUNT>  (1) 
20

>  <PUBCHEM_ATOM_DEF_STEREO_COUNT>  (1) 
0

>  <PUBCHEM_ATOM_UDEF_STEREO_COUNT>  (1) 
0

>  <PUBCHEM_BOND_DEF_STEREO_COUNT>  (1) 
0

>  <PUBCHEM_BOND_UDEF_STEREO_COUNT>  (1) 
0

>  <PUBCHEM_ISOTOPIC_ATOM_COUNT>  (1) 
0

>  <PUBCHEM_COMPONENT_COUNT>  (1) 
1

>  <PUBCHEM_CACTVS_TAUTO_COUNT>  (1) 
4

>  <PUBCHEM_CONFORMER_ID>  (1) 
000088AB00000007

>  <PUBCHEM_MMFF94_ENERGY>  (1) 
70.1472

>  <PUBCHEM_FEATURE_SELFOVERLAP>  (1) 
25.371

>  <PUBCHEM_SHAPE_FINGERPRINT>  (1) 
10062212 137 18187364358732547698
10319926 262 18271793641380916890
10366900 7 17775556529435119024
10646746 165 18342740728242208656
11405975 8 18413105057341218242
11725454 13 17274244064005807352
12077114 3 17749948852232314629
12107183 9 18121213187220477978
121448 382 18342446016387158725
12173636 292 18198353870747827917
12236239 1 17967537865446661608
12346177 29 18412256259422345887
12403814 3 18040158418444878189
12500047 106 18411412891302023214
12507560 40 18130222774540124130
12596602 18 17895202111988981784
12633257 1 18341899588429730505
12670546 56 18337101354335445994
12788726 201 18047208606676063523
128620 24 10735870690638215256
12892183 10 18268705177352761498
13009979 54 18042136503654546350
13140716 1 18341336711764767673
13296909 8 18408881875447939607
13583140 156 17632286909125254890
13675066 3 17894914005650999512
13965767 371 17611759907149967153
14178342 30 18409171017226714174
14420673 8 18265899052028581386
15042514 8 18337118968392446707
15295992 7 17632292410498138521
15375358 24 17704079477335949756
15842332 3 17678756736737582326
17349148 13 18272928289250157788
1741750 31 18342463603829979067
17492 89 18265335186914582706
1813 80 16950570931039431270
20261772 1 18113622261451873196
20281475 54 18113613526079159014
20510252 161 18271529804869565387
20600515 1 18271536316599739604
20645477 56 18412270514677029891
20645477 70 16271656572662499828
21033648 29 18264753398723067296
21065198 57 18342738529377221690
21065199 12 18271522117547946970
212916 134 18271235019762661842
21524375 3 18188501181342246899
22224240 67 18271258140800692265
23184049 29 18195249042493173485
23402539 116 18272927211603626901
23419403 2 17691378112918542933
23557571 272 17988934404567412423
23559900 14 18272660017767501070
23598288 3 18189630491326911691
23598291 2 17822299045312320918
23622692 88 17967818227884456895
25147074 1 17970081125840835924
312423 11 17824556380880018294
351380 180 17846772980061517776
4214541 1 18410854378255339226
5104073 3 18411695530631512474
573450 72 18335414703525064866
5924683 9 18269549593081561831
6992083 37 18040438788849901773
7097593 13 18259979358295527858
7615 1 17968949728370560212
81228 2 18120670268984111459
9709674 26 18202007611947498902
9862522 239 17895746284571900461

>  <PUBCHEM_SHAPE_MULTIPOLES>  (1) 
397.28
9.84
2.85
1.37
7
1.57
0.46
-2.08
-2.53
-3.74
-0.36
0.18
-0.57
-0.07

>  <PUBCHEM_SHAPE_SELFOVERLAP>  (1) 
770.801

>  <PUBCHEM_SHAPE_VOLUME>  (1) 
239.4

>  <PUBCHEM_COORDINATE_TYPE>  (1) 
2
5
10

$$$$
