34994
     RDKit          3D

 16 16  0  0  0  0  0  0  0  0999 V2000
   -3.2249    1.6213    1.4608 Cl  0  0  0  0  0  0  0  0  0  0  0  0
   -1.1459    2.9799   -0.0016 Cl  0  0  0  0  0  0  0  0  0  0  0  0
   -3.2216    1.6108   -1.4658 Cl  0  0  0  0  0  0  0  0  0  0  0  0
    2.4580    1.3567    0.0077 O   0  0  0  0  0  0  0  0  0  0  0  0
    1.9243   -0.9309    0.0056 N   0  0  0  0  0  0  0  0  0  0  0  0
   -0.0807    0.2709    0.0040 N   0  0  0  0  0  0  0  0  0  0  0  0
   -0.0827   -2.1286    0.0014 N   0  0  0  0  0  0  0  0  0  0  0  0
   -2.1598   -0.9271   -0.0020 N   0  0  0  0  0  0  0  0  0  0  0  0
    4.2284   -0.2756    0.0092 C   0  0  0  0  0  0  0  0  0  0  0  0
    0.5091   -0.9293    0.0040 C   0  0  0  0  0  0  0  0  0  0  0  0
    2.7742    0.1715    0.0073 C   0  0  0  0  0  0  0  0  0  0  0  0
   -1.4213    0.1944    0.0008 C   0  0  0  0  0  0  0  0  0  0  0  0
   -1.4232   -2.0498   -0.0015 C   0  0  0  0  0  0  0  0  0  0  0  0
    5.2008    0.8898   -0.0235 C   0  0  0  0  0  0  0  0  0  0  0  0
   -2.1656    1.4864   -0.0013 C   0  0  0  0  0  0  0  0  0  0  0  0
   -2.1692   -3.3403   -0.0050 C   0  0  0  0  0  0  0  0  0  0  0  0
  1 15  1  0
  2 15  1  0
  3 15  1  0
  4 11  2  0
  5 10  1  0
  5 11  1  0
  6 10  2  0
  6 12  1  0
  7 10  1  0
  7 13  2  0
  8 12  2  0
  8 13  1  0
  9 11  1  0
  9 14  1  0
 12 15  1  0
 13 16  1  0
M  END
>  <PUBCHEM_COMPOUND_CID>  (1) 
34994

>  <PUBCHEM_CONFORMER_RMSD>  (1) 
0.6

>  <PUBCHEM_CONFORMER_DIVERSEORDER>  (1) 
1
11
16
10
5
15
9
12
3
14
7
13
8
2
6
4

>  <PUBCHEM_MMFF94_PARTIAL_CHARGES>  (1) 
16
1 -0.29
10 0.74
11 0.57
12 0.48
13 0.48
15 1.01
16 0.14
19 0.37
2 -0.29
3 -0.29
4 -0.57
5 -0.55
6 -0.62
7 -0.62
8 -0.62
9 0.06

>  <PUBCHEM_EFFECTIVE_ROTOR_COUNT>  (1) 
4

>  <PUBCHEM_PHARMACOPHORE_FEATURES>  (1) 
6
1 14 hydrophobe
1 4 acceptor
1 5 donor
3 6 8 12 cation
3 7 8 13 cation
6 6 7 8 10 12 13 rings

>  <PUBCHEM_HEAVY_ATOM_COUNT>  (1) 
16

>  <PUBCHEM_ATOM_DEF_STEREO_COUNT>  (1) 
0

>  <PUBCHEM_ATOM_UDEF_STEREO_COUNT>  (1) 
0

>  <PUBCHEM_BOND_DEF_STEREO_COUNT>  (1) 
0

>  <PUBCHEM_BOND_UDEF_STEREO_COUNT>  (1) 
0

>  <PUBCHEM_ISOTOPIC_ATOM_COUNT>  (1) 
0

>  <PUBCHEM_COMPONENT_COUNT>  (1) 
1

>  <PUBCHEM_CACTVS_TAUTO_COUNT>  (1) 
5

>  <PUBCHEM_CONFORMER_ID>  (1) 
000088B200000001

>  <PUBCHEM_MMFF94_ENERGY>  (1) 
27.4383

>  <PUBCHEM_FEATURE_SELFOVERLAP>  (1) 
31.37

>  <PUBCHEM_SHAPE_FINGERPRINT>  (1) 
10493431 412 18270692973874460817
10608611 8 18342173406128085616
13380535 76 18341608157744915702
13583140 156 17022902319924758376
14508225 48 18124301968400985655
14648413 74 17183909065036530905
15042514 8 18408892853558843691
15309172 13 18265620887943466217
16945 1 17690561888680424199
1741750 31 18343021060536072698
18186145 218 18198910197296975094
204376 136 18337674096756318889
20510252 161 18340486793529201170
20645477 56 18410299090507853588
21041028 32 17905624537749564051
21339142 51 18338229465939598989
21499 59 18265606577165053669
21524375 3 18199459970254016719
22182937 141 18272658956156425936
2306618 200 18272942651736658794
23402539 116 18271800263693128631
23419403 2 17414700262379300747
23526113 38 17632295632309022866
23557571 272 18201167645235280270
23559900 14 18272652321476204562
23598294 1 18335977653256966506
2748010 2 18126271176277300993
3071541 12 17619349801403252975
5104073 3 18411133663305183914
573450 72 18261095401721833914
6333449 129 18411981364361626749
633830 44 17842281359002866957
68521 5 18264485264172877063
81228 2 18337680839939720587

>  <PUBCHEM_SHAPE_MULTIPOLES>  (1) 
309.09
7.33
3.31
0.91
10.97
1.63
0
-3.41
0.02
-3.28
0
-1.03
-0.47
-0.01

>  <PUBCHEM_SHAPE_SELFOVERLAP>  (1) 
599.613

>  <PUBCHEM_SHAPE_VOLUME>  (1) 
186.2

>  <PUBCHEM_COORDINATE_TYPE>  (1) 
2
5
10

$$$$
