34996
     RDKit          3D

 14 14  0  0  0  0  0  0  0  0999 V2000
   -2.1850   -1.8372    1.4648 Cl  0  0  0  0  0  0  0  0  0  0  0  0
   -3.6491    0.1635   -0.0051 Cl  0  0  0  0  0  0  0  0  0  0  0  0
   -2.1722   -1.8425   -1.4618 Cl  0  0  0  0  0  0  0  0  0  0  0  0
    2.9461   -1.5247   -1.4627 Cl  0  0  0  0  0  0  0  0  0  0  0  0
    2.9458   -1.5251    1.4637 Cl  0  0  0  0  0  0  0  0  0  0  0  0
    0.3054   -0.6453    0.0003 N   0  0  0  0  0  0  0  0  0  0  0  0
   -0.9992    1.3686    0.0001 N   0  0  0  0  0  0  0  0  0  0  0  0
    1.3972    1.4916    0.0005 N   0  0  0  0  0  0  0  0  0  0  0  0
    0.0957    3.4421   -0.0002 N   0  0  0  0  0  0  0  0  0  0  0  0
   -0.8530    0.0338    0.0000 C   0  0  0  0  0  0  0  0  0  0  0  0
    1.3884    0.1489    0.0005 C   0  0  0  0  0  0  0  0  0  0  0  0
   -2.1039   -0.7766   -0.0007 C   0  0  0  0  0  0  0  0  0  0  0  0
    0.1681    2.0323    0.0002 C   0  0  0  0  0  0  0  0  0  0  0  0
    2.7158   -0.5294    0.0006 C   0  0  0  0  0  0  0  0  0  0  0  0
  1 12  1  0
  2 12  1  0
  3 12  1  0
  4 14  1  0
  5 14  1  0
  6 10  2  0
  6 11  1  0
  7 10  1  0
  7 13  2  0
  8 11  2  0
  8 13  1  0
  9 13  1  0
 10 12  1  0
 11 14  1  0
M  END
>  <PUBCHEM_COMPOUND_CID>  (1) 
34996

>  <PUBCHEM_CONFORMER_RMSD>  (1) 
0.6

>  <PUBCHEM_CONFORMER_DIVERSEORDER>  (1) 
1
3
4
5
2
6

>  <PUBCHEM_MMFF94_PARTIAL_CHARGES>  (1) 
16
1 -0.29
10 0.48
11 0.48
12 1.01
13 0.72
14 0.72
16 0.4
17 0.4
2 -0.29
3 -0.29
4 -0.29
5 -0.29
6 -0.62
7 -0.62
8 -0.62
9 -0.9

>  <PUBCHEM_EFFECTIVE_ROTOR_COUNT>  (1) 
2

>  <PUBCHEM_PHARMACOPHORE_FEATURES>  (1) 
3
1 9 donor
4 7 8 9 13 cation
6 6 7 8 10 11 13 rings

>  <PUBCHEM_HEAVY_ATOM_COUNT>  (1) 
14

>  <PUBCHEM_ATOM_DEF_STEREO_COUNT>  (1) 
0

>  <PUBCHEM_ATOM_UDEF_STEREO_COUNT>  (1) 
0

>  <PUBCHEM_BOND_DEF_STEREO_COUNT>  (1) 
0

>  <PUBCHEM_BOND_UDEF_STEREO_COUNT>  (1) 
0

>  <PUBCHEM_ISOTOPIC_ATOM_COUNT>  (1) 
0

>  <PUBCHEM_COMPONENT_COUNT>  (1) 
1

>  <PUBCHEM_CACTVS_TAUTO_COUNT>  (1) 
4

>  <PUBCHEM_CONFORMER_ID>  (1) 
000088B400000001

>  <PUBCHEM_MMFF94_ENERGY>  (1) 
26.4715

>  <PUBCHEM_FEATURE_SELFOVERLAP>  (1) 
15.223

>  <PUBCHEM_SHAPE_FINGERPRINT>  (1) 
10130415 120 18334293154277369491
12202030 40 17241600805086419027
12423570 1 13636545358535466144
12553582 1 18409728443651693714
12759256 9 18052535761971098276
12932764 1 15647602471460536363
14022347 108 18264787474982381443
14115302 16 17531251621206476410
14252887 29 18343311378855934922
14648413 74 18192150619122038505
15848700 24 18271520914476971789
15852999 172 16959534407157690443
16752209 62 18046904875004141007
16945 1 18122344579783888456
17841504 4 18262803011418997883
17990270 104 18268151035754927975
20339313 130 18340498840738139547
20361792 2 18412542132508929438
20645476 183 17389688292402313662
20645477 70 18051970617664507103
20711985 344 18194413186265474566
20871998 184 18126274251626768294
20871998 22 18342182154565062870
21524375 3 17257087069696644364
232386 152 18188762847766635018
2334 1 18338236075836193144
23419403 2 17546949400345642536
23552423 10 18051689142460345269
23557571 272 18269275669411107924
2748010 2 18411978078785784268
34934 24 18410852183268685448
576247 118 18122660277144676038
5902787 121 18261390091574552850
6338986 31 18267561611686618550
6992083 37 18059869358694771859
7364860 26 18127132106745912232
81228 2 18267026042181273472

>  <PUBCHEM_SHAPE_MULTIPOLES>  (1) 
277.54
5.1
2.81
1.3
0.05
2.41
0
-3.06
0
0
0
0.29
-1.11
0

>  <PUBCHEM_SHAPE_SELFOVERLAP>  (1) 
521.568

>  <PUBCHEM_SHAPE_VOLUME>  (1) 
169.2

>  <PUBCHEM_COORDINATE_TYPE>  (1) 
2
5
10

$$$$
