34990
     RDKit          3D

 18 19  0  0  0  0  0  0  0  0999 V2000
   -3.3300   -1.9831   -1.6024 Cl  0  0  0  0  0  0  0  0  0  0  0  0
   -1.0468   -2.9808   -0.1537 Cl  0  0  0  0  0  0  0  0  0  0  0  0
   -3.3716   -2.1161    1.3210 Cl  0  0  0  0  0  0  0  0  0  0  0  0
    1.2064    1.4508    0.0855 N   0  0  0  0  0  0  0  0  0  0  0  0
   -0.5328   -0.1190   -0.0121 N   0  0  0  0  0  0  0  0  0  0  0  0
   -1.0047    2.2311    0.0981 N   0  0  0  0  0  0  0  0  0  0  0  0
   -2.8061    0.6488   -0.0002 N   0  0  0  0  0  0  0  0  0  0  0  0
    2.3470    0.6214    0.0571 C   0  0  0  0  0  0  0  0  0  0  0  0
   -0.1743    1.1747    0.0558 C   0  0  0  0  0  0  0  0  0  0  0  0
   -1.8623   -0.3056   -0.0362 C   0  0  0  0  0  0  0  0  0  0  0  0
   -2.3037    1.8924    0.0666 C   0  0  0  0  0  0  0  0  0  0  0  0
    3.5327    1.0862   -0.5119 C   0  0  0  0  0  0  0  0  0  0  0  0
    2.2898   -0.6627    0.5984 C   0  0  0  0  0  0  0  0  0  0  0  0
    4.6612    0.2668   -0.5392 C   0  0  0  0  0  0  0  0  0  0  0  0
    3.4183   -1.4821    0.5711 C   0  0  0  0  0  0  0  0  0  0  0  0
   -2.3390   -1.7160   -0.1106 C   0  0  0  0  0  0  0  0  0  0  0  0
   -3.2884    3.0106    0.1104 C   0  0  0  0  0  0  0  0  0  0  0  0
    4.6041   -1.0174    0.0023 C   0  0  0  0  0  0  0  0  0  0  0  0
  1 16  1  0
  2 16  1  0
  3 16  1  0
  4  8  1  0
  4  9  1  0
  5  9  2  0
  5 10  1  0
  6  9  1  0
  6 11  2  0
  7 10  2  0
  7 11  1  0
  8 12  2  0
  8 13  1  0
 10 16  1  0
 11 17  1  0
 12 14  1  0
 13 15  2  0
 14 18  2  0
 15 18  1  0
M  END
>  <PUBCHEM_COMPOUND_CID>  (1) 
34990

>  <PUBCHEM_CONFORMER_RMSD>  (1) 
0.6

>  <PUBCHEM_CONFORMER_DIVERSEORDER>  (1) 
1
10
14
2
7
15
4
12
6
9
5
13
3
11
16
8

>  <PUBCHEM_MMFF94_PARTIAL_CHARGES>  (1) 
24
1 -0.29
10 0.48
11 0.48
12 -0.15
13 -0.15
14 -0.15
15 -0.15
16 1.01
17 0.14
18 -0.15
19 0.4
2 -0.29
20 0.15
21 0.15
22 0.15
23 0.15
27 0.15
3 -0.29
4 -0.6
5 -0.62
6 -0.62
7 -0.62
8 0.1
9 0.72

>  <PUBCHEM_EFFECTIVE_ROTOR_COUNT>  (1) 
3

>  <PUBCHEM_PHARMACOPHORE_FEATURES>  (1) 
4
1 4 donor
4 4 5 6 9 cation
6 5 6 7 9 10 11 rings
6 8 12 13 14 15 18 rings

>  <PUBCHEM_HEAVY_ATOM_COUNT>  (1) 
18

>  <PUBCHEM_ATOM_DEF_STEREO_COUNT>  (1) 
0

>  <PUBCHEM_ATOM_UDEF_STEREO_COUNT>  (1) 
0

>  <PUBCHEM_BOND_DEF_STEREO_COUNT>  (1) 
0

>  <PUBCHEM_BOND_UDEF_STEREO_COUNT>  (1) 
0

>  <PUBCHEM_ISOTOPIC_ATOM_COUNT>  (1) 
0

>  <PUBCHEM_COMPONENT_COUNT>  (1) 
1

>  <PUBCHEM_CACTVS_TAUTO_COUNT>  (1) 
4

>  <PUBCHEM_CONFORMER_ID>  (1) 
000088AE00000001

>  <PUBCHEM_MMFF94_ENERGY>  (1) 
50.6318

>  <PUBCHEM_FEATURE_SELFOVERLAP>  (1) 
20.297

>  <PUBCHEM_SHAPE_FINGERPRINT>  (1) 
10062212 137 18335694997364611714
10616163 171 18410577271202807470
11578080 2 17488165166734173041
12173636 292 18410849928316059212
12346177 29 18201991106087292021
12500047 106 18340481158548095160
12553582 1 18267021854445832354
12788726 201 18412254047999510859
13140716 1 18337105662224619504
13760787 19 18335709295643042900
138480 1 16609134911861638019
14178342 30 18335686253111936120
14965852 173 18410573976788623256
15006816 218 17980763735961362934
15042514 8 18409175389819659905
15196674 1 18409168788512792114
15415430 112 18410580561284549044
15669948 3 18411413990708006536
16752209 62 18340190947523417435
17492 89 18335706031373621602
19422 9 18261115171092124620
20291156 8 18265616661474113698
20442098 301 18341327872848575278
20681677 155 18338235947467261456
20871999 31 18411414016451482276
21524375 3 18122903132192237937
21634736 98 18262521528195061926
221490 88 18409174337726446792
23402655 69 18261397698594552116
23557571 272 18273221910974435364
23558518 356 18187652430863044424
23559900 14 18200869566516467864
23728640 28 18341047432864076563
2871803 45 18335414729336995046
3084891 72 18055067653634942633
352729 6 18268713813999432121
4214541 1 18409731725354627092
5104073 3 18410009919292712224
559249 180 18264765455133499794
57096353 35 18261398901037494428
58051976 100 18333736797093706668
58051976 378 18194401328341123740
633830 44 17168156598484998952
81228 2 18264190560976450169
90525 40 18339079293827838858
9709674 26 18341054034350253342

>  <PUBCHEM_SHAPE_MULTIPOLES>  (1) 
356.12
8.51
3.31
0.95
7.97
0.41
-0.11
-1.62
-0.58
-3.98
0.07
-0.69
-0.56
-0.57

>  <PUBCHEM_SHAPE_SELFOVERLAP>  (1) 
724.171

>  <PUBCHEM_SHAPE_VOLUME>  (1) 
203.1

>  <PUBCHEM_COORDINATE_TYPE>  (1) 
2
5
10

$$$$
