35
     RDKit          3D

 11 11  0  0  1  0  0  0  0  0999 V2000
    0.4403   -1.2620    1.7010 Cl  0  0  0  0  0  0  0  0  0  0  0  0
   -0.7122    0.6636    0.3399 O   0  0  0  0  0  0  0  0  0  0  0  0
    3.3877    0.0200   -0.6950 O   0  0  0  0  0  0  0  0  0  0  0  0
   -2.8154    1.5252   -0.0251 O   0  0  0  0  0  0  0  0  0  0  0  0
    2.0246    1.3011    0.6017 O   0  0  0  0  0  0  0  0  0  0  0  0
   -0.0922   -0.6130    0.1342 C   0  0  0  0  0  0  0  0  0  0  0  0
    1.0924   -0.4553   -0.8078 C   0  0  0  0  0  0  0  0  0  0  0  0
   -1.1816   -1.4407   -0.4279 C   0  0  0  0  0  0  0  0  0  0  0  0
   -2.3064   -0.7430   -0.5507 C   0  0  0  0  0  0  0  0  0  0  0  0
   -2.0157    0.6062   -0.0635 C   0  0  0  0  0  0  0  0  0  0  0  0
    2.1785    0.3979   -0.2067 C   0  0  0  0  0  0  0  0  0  0  0  0
  1  6  1  0
  2  6  1  0
  2 10  1  0
  3 11  1  0
  4 10  2  0
  5 11  2  0
  6  7  1  0
  6  8  1  0
  7 11  1  0
  8  9  2  0
  9 10  1  0
M  END
>  <PUBCHEM_COMPOUND_CID>  (1) 
35

>  <PUBCHEM_CONFORMER_RMSD>  (1) 
0.6

>  <PUBCHEM_CONFORMER_DIVERSEORDER>  (1) 
1
4
9
11
8
6
3
10
12
5
7
2

>  <PUBCHEM_MMFF94_PARTIAL_CHARGES>  (1) 
14
1 -0.29
10 0.71
11 0.66
14 0.15
15 0.15
16 0.5
2 -0.43
3 -0.65
4 -0.57
5 -0.57
6 0.71
7 0.06
8 -0.29
9 -0.14

>  <PUBCHEM_EFFECTIVE_ROTOR_COUNT>  (1) 
2.4

>  <PUBCHEM_PHARMACOPHORE_FEATURES>  (1) 
5
1 3 acceptor
1 4 acceptor
1 5 acceptor
3 3 5 11 anion
5 2 6 8 9 10 rings

>  <PUBCHEM_HEAVY_ATOM_COUNT>  (1) 
11

>  <PUBCHEM_ATOM_DEF_STEREO_COUNT>  (1) 
0

>  <PUBCHEM_ATOM_UDEF_STEREO_COUNT>  (1) 
1

>  <PUBCHEM_BOND_DEF_STEREO_COUNT>  (1) 
0

>  <PUBCHEM_BOND_UDEF_STEREO_COUNT>  (1) 
0

>  <PUBCHEM_ISOTOPIC_ATOM_COUNT>  (1) 
0

>  <PUBCHEM_COMPONENT_COUNT>  (1) 
1

>  <PUBCHEM_CACTVS_TAUTO_COUNT>  (1) 
1

>  <PUBCHEM_CONFORMER_ID>  (1) 
0000002300000001

>  <PUBCHEM_MMFF94_ENERGY>  (1) 
11.1842

>  <PUBCHEM_FEATURE_SELFOVERLAP>  (1) 
25.428

>  <PUBCHEM_SHAPE_FINGERPRINT>  (1) 
12716758 59 18342735247294337154
12897270 3 18060138768770575798
12932764 1 18201163242772670782
13024252 1 17604153751906762055
14390081 3 18413102870617321293
15775835 57 18261394403573907741
16945 1 18339357599176655463
19837323 101 18271815613811084247
19973954 147 18270119161632112956
20653085 51 18340218456720181672
21040471 1 18057028130601933043
23235685 24 17240206534026292022
23552423 10 18338232781707001590
29004967 10 14117805742614433038
305870 269 17822848667512665355
369184 2 18271528705368434814
5084963 1 18040713709801503078
528886 8 18060420179338594551

>  <PUBCHEM_SHAPE_MULTIPOLES>  (1) 
204.77
4.01
1.45
1.09
1.21
0.05
-0.28
-1.47
0.79
-0.52
-0.35
0.28
0.39
-0.25

>  <PUBCHEM_SHAPE_SELFOVERLAP>  (1) 
417.271

>  <PUBCHEM_SHAPE_VOLUME>  (1) 
118.8

>  <PUBCHEM_COORDINATE_TYPE>  (1) 
2
5
10

$$$$
