35008
     RDKit          3D

 15 15  0  0  0  0  0  0  0  0999 V2000
   -2.6130    3.4677    0.0058 Cl  0  0  0  0  0  0  0  0  0  0  0  0
    1.5691    0.8877   -0.1809 O   0  0  0  0  0  0  0  0  0  0  0  0
   -2.4368   -1.4769    0.0705 N   0  0  0  0  0  0  0  0  0  0  0  0
   -0.3997   -0.3219   -0.0578 N   0  0  0  0  0  0  0  0  0  0  0  0
   -0.4134    2.0773   -0.0942 N   0  0  0  0  0  0  0  0  0  0  0  0
   -2.4815    0.8676    0.0372 N   0  0  0  0  0  0  0  0  0  0  0  0
    3.7345   -0.1860   -0.2598 C   0  0  0  0  0  0  0  0  0  0  0  0
    2.2167   -0.3776   -0.1944 C   0  0  0  0  0  0  0  0  0  0  0  0
    4.2518    0.5857    0.9560 C   0  0  0  0  0  0  0  0  0  0  0  0
    4.4378   -1.5370   -0.3697 C   0  0  0  0  0  0  0  0  0  0  0  0
    0.2005    0.8807   -0.1090 C   0  0  0  0  0  0  0  0  0  0  0  0
   -1.7783   -2.7453    0.0538 C   0  0  0  0  0  0  0  0  0  0  0  0
   -1.7387   -0.2509    0.0141 C   0  0  0  0  0  0  0  0  0  0  0  0
   -2.7976   -3.8642    0.1484 C   0  0  0  0  0  0  0  0  0  0  0  0
   -1.7514    1.9931   -0.0199 C   0  0  0  0  0  0  0  0  0  0  0  0
  1 15  1  0
  2  8  1  0
  2 11  1  0
  3 12  1  0
  3 13  1  0
  4 11  2  0
  4 13  1  0
  5 11  1  0
  5 15  2  0
  6 13  2  0
  6 15  1  0
  7  8  1  0
  7  9  1  0
  7 10  1  0
 12 14  1  0
M  END
>  <PUBCHEM_COMPOUND_CID>  (1) 
35008

>  <PUBCHEM_CONFORMER_RMSD>  (1) 
0.6

>  <PUBCHEM_CONFORMER_DIVERSEORDER>  (1) 
1
34
35
30
9
42
29
19
23
38
6
2
44
41
21
8
11
40
10
32
43
36
14
12
25
7
27
33
5
26
39
22
31
13
37
20
15
18
28
17
3
16
24
4

>  <PUBCHEM_MMFF94_PARTIAL_CHARGES>  (1) 
12
1 -0.18
11 0.7
12 0.37
13 0.72
15 0.8
2 -0.36
27 0.4
3 -0.87
4 -0.62
5 -0.62
6 -0.62
8 0.28

>  <PUBCHEM_EFFECTIVE_ROTOR_COUNT>  (1) 
5

>  <PUBCHEM_PHARMACOPHORE_FEATURES>  (1) 
4
1 3 donor
3 7 9 10 hydrophobe
4 3 4 6 13 cation
6 4 5 6 11 13 15 rings

>  <PUBCHEM_HEAVY_ATOM_COUNT>  (1) 
15

>  <PUBCHEM_ATOM_DEF_STEREO_COUNT>  (1) 
0

>  <PUBCHEM_ATOM_UDEF_STEREO_COUNT>  (1) 
0

>  <PUBCHEM_BOND_DEF_STEREO_COUNT>  (1) 
0

>  <PUBCHEM_BOND_UDEF_STEREO_COUNT>  (1) 
0

>  <PUBCHEM_ISOTOPIC_ATOM_COUNT>  (1) 
0

>  <PUBCHEM_COMPONENT_COUNT>  (1) 
1

>  <PUBCHEM_CACTVS_TAUTO_COUNT>  (1) 
4

>  <PUBCHEM_CONFORMER_ID>  (1) 
000088C000000001

>  <PUBCHEM_MMFF94_ENERGY>  (1) 
31.4878

>  <PUBCHEM_FEATURE_SELFOVERLAP>  (1) 
20.297

>  <PUBCHEM_SHAPE_FINGERPRINT>  (1) 
10616163 171 18411141325179361694
11265709 11 18193841680753387651
11357001 24 18409169930589068587
12173636 292 18193833734805726340
12500047 106 18266739082858126404
12553582 1 18049737500441607502
12757275 245 18410297986754207542
13955234 65 16970555993641188779
14178342 30 18335689534487925706
15042514 8 18409175428469123267
17859628 97 17687466767458859394
20510252 161 18200030629811261593
20524608 308 18338800017874130448
20645477 56 18338799992379256864
20645477 70 17183330159475452687
20871998 184 18201721790205324430
20871998 22 17978791534392212203
21452121 199 17975686508970255200
21650355 55 18338794627864273369
21665056 4 18265614277788214151
2255824 54 17042049537891742135
22943178 12 18202279191720089538
23402539 116 18342449314848533389
23557571 272 18273221885109848612
23558518 356 18261114101661300184
23559900 14 18270960117114483772
23598291 2 17822870731218549404
257057 1 18122625221816356189
3086196 2 18338228370912602194
3091708 16 9058133572963436505
3421961 26 17690564504110175691
532947 4 17476079029609890791
54173680 148 18410295834632492903
7364860 26 17329994006634028963
81228 2 18334295409040377825
8809292 202 18341335492152122478
9709674 26 18271527503279031518

>  <PUBCHEM_SHAPE_MULTIPOLES>  (1) 
284.77
7.27
4.16
0.68
10.04
2.11
-0.06
1.49
-0.43
-6.73
-0.15
0.35
-0.03
0.54

>  <PUBCHEM_SHAPE_SELFOVERLAP>  (1) 
555.562

>  <PUBCHEM_SHAPE_VOLUME>  (1) 
172.1

>  <PUBCHEM_COORDINATE_TYPE>  (1) 
2
5
10

$$$$
