3500
     RDKit          3D

 35 40  0  0  1  0  0  0  0  0999 V2000
   -1.3761    1.5362   -2.0492 O   0  0  0  0  0  0  0  0  0  0  0  0
    0.3416   -4.5551   -0.5465 O   0  0  0  0  0  0  0  0  0  0  0  0
    4.5311   -2.6234   -0.6648 O   0  0  0  0  0  0  0  0  0  0  0  0
   -4.5455   -3.5837    0.2365 O   0  0  0  0  0  0  0  0  0  0  0  0
   -1.0114    0.6409    0.6600 N   0  0  0  0  0  0  0  0  0  0  0  0
    1.5157    1.8059    0.5889 N   0  0  0  0  0  0  0  0  0  0  0  0
    2.5933   -3.9354   -0.6943 N   0  0  0  0  0  0  0  0  0  0  0  0
   -3.3010    4.2054   -0.3558 N   0  0  0  0  0  0  0  0  0  0  0  0
    0.0844   -0.1000    0.3796 C   0  0  0  0  0  0  0  0  0  0  0  0
    1.3553    0.4859    0.3437 C   0  0  0  0  0  0  0  0  0  0  0  0
    0.0195   -1.5071    0.1050 C   0  0  0  0  0  0  0  0  0  0  0  0
    2.4539   -0.3847    0.0362 C   0  0  0  0  0  0  0  0  0  0  0  0
    1.1025   -2.3301   -0.1907 C   0  0  0  0  0  0  0  0  0  0  0  0
   -1.4390   -1.6027    0.2610 C   0  0  0  0  0  0  0  0  0  0  0  0
    2.3634   -1.7488   -0.2265 C   0  0  0  0  0  0  0  0  0  0  0  0
   -2.0050   -0.3238    0.5853 C   0  0  0  0  0  0  0  0  0  0  0  0
   -1.3317    2.0111    0.3043 C   0  0  0  0  0  0  0  0  0  0  0  0
    3.4794    0.6648    0.1226 C   0  0  0  0  0  0  0  0  0  0  0  0
    2.8895    1.9327    0.4479 C   0  0  0  0  0  0  0  0  0  0  0  0
   -2.1513    2.1007   -0.9890 C   0  0  0  0  0  0  0  0  0  0  0  0
    1.2442   -3.7438   -0.4926 C   0  0  0  0  0  0  0  0  0  0  0  0
    3.3318   -2.7814   -0.5520 C   0  0  0  0  0  0  0  0  0  0  0  0
   -2.3328   -2.6950    0.1492 C   0  0  0  0  0  0  0  0  0  0  0  0
   -3.3838   -0.1554    0.7839 C   0  0  0  0  0  0  0  0  0  0  0  0
    0.8196    2.6769    1.5182 C   0  0  0  0  0  0  0  0  0  0  0  0
    4.8839    0.6320   -0.0535 C   0  0  0  0  0  0  0  0  0  0  0  0
   -2.4899    3.5459   -1.3704 C   0  0  0  0  0  0  0  0  0  0  0  0
    3.6649    3.0939    0.5867 C   0  0  0  0  0  0  0  0  0  0  0  0
   -3.7058   -2.5161    0.3496 C   0  0  0  0  0  0  0  0  0  0  0  0
   -4.2212   -1.2649    0.6618 C   0  0  0  0  0  0  0  0  0  0  0  0
    5.6474    1.7958    0.0870 C   0  0  0  0  0  0  0  0  0  0  0  0
    5.0453    3.0069    0.4023 C   0  0  0  0  0  0  0  0  0  0  0  0
   -4.5475    3.4699   -0.1323 C   0  0  0  0  0  0  0  0  0  0  0  0
   -3.5909    5.5874   -0.7436 C   0  0  0  0  0  0  0  0  0  0  0  0
   -5.9340   -3.3409    0.4515 C   0  0  0  0  0  0  0  0  0  0  0  0
  1 20  1  0
  2 21  2  0
  3 22  2  0
  4 29  1  0
  4 35  1  0
  5  9  1  0
  5 16  1  0
  5 17  1  0
  6 10  1  0
  6 19  1  0
  6 25  1  0
  7 21  1  0
  7 22  1  0
  8 27  1  0
  8 33  1  0
  8 34  1  0
  9 10  2  0
  9 11  1  0
 10 12  1  0
 11 13  2  0
 11 14  1  0
 12 15  2  0
 12 18  1  0
 13 15  1  0
 13 21  1  0
 14 16  2  0
 14 23  1  0
 15 22  1  0
 16 24  1  0
 17 20  1  0
 18 19  2  0
 18 26  1  0
 19 28  1  0
 20 27  1  0
 23 29  2  0
 24 30  2  0
 26 31  2  0
 28 32  2  0
 29 30  1  0
 31 32  1  0
M  END
>  <PUBCHEM_COMPOUND_CID>  (1) 
3500

>  <PUBCHEM_CONFORMER_RMSD>  (1) 
0.8

>  <PUBCHEM_CONFORMER_DIVERSEORDER>  (1) 
2
3
1
4

>  <PUBCHEM_MMFF94_PARTIAL_CHARGES>  (1) 
42
1 -0.68
10 -0.05
11 -0.01
12 -0.01
13 0.09
15 0.09
16 -0.15
17 0.26
19 -0.15
2 -0.57
20 0.28
21 0.54
22 0.54
23 -0.15
24 -0.15
25 0.26
26 -0.15
27 0.27
28 -0.15
29 0.08
3 -0.57
30 -0.15
31 -0.15
32 -0.15
33 0.27
34 0.27
35 0.28
39 0.15
4 -0.36
40 0.15
44 0.37
47 0.15
48 0.15
49 0.15
5 -0.04
50 0.15
51 0.15
52 0.4
6 -0.04
7 -0.49
8 -0.81
9 -0.05

>  <PUBCHEM_EFFECTIVE_ROTOR_COUNT>  (1) 
5.2

>  <PUBCHEM_PHARMACOPHORE_FEATURES>  (1) 
15
1 1 acceptor
1 1 donor
1 2 acceptor
1 3 acceptor
1 4 acceptor
1 5 cation
1 6 cation
1 7 donor
1 8 cation
5 5 9 11 14 16 rings
5 6 10 12 18 19 rings
5 7 13 15 21 22 rings
6 14 16 23 24 29 30 rings
6 18 19 26 28 31 32 rings
6 9 10 11 12 13 15 rings

>  <PUBCHEM_HEAVY_ATOM_COUNT>  (1) 
35

>  <PUBCHEM_ATOM_DEF_STEREO_COUNT>  (1) 
0

>  <PUBCHEM_ATOM_UDEF_STEREO_COUNT>  (1) 
1

>  <PUBCHEM_BOND_DEF_STEREO_COUNT>  (1) 
0

>  <PUBCHEM_BOND_UDEF_STEREO_COUNT>  (1) 
0

>  <PUBCHEM_ISOTOPIC_ATOM_COUNT>  (1) 
0

>  <PUBCHEM_COMPONENT_COUNT>  (1) 
1

>  <PUBCHEM_CACTVS_TAUTO_COUNT>  (1) 
3

>  <PUBCHEM_CONFORMER_ID>  (1) 
00000DAC00000002

>  <PUBCHEM_MMFF94_ENERGY>  (1) 
187.295

>  <PUBCHEM_FEATURE_SELFOVERLAP>  (1) 
76.591

>  <PUBCHEM_SHAPE_FINGERPRINT>  (1) 
10050765 1 18337108973850223634
10165383 225 18055360390479497192
102385 1 18337387132774682003
10290309 65 18270675493932559400
10675989 125 16535665536277272628
1100329 8 17978228262252972802
11578080 2 18190193295225071740
11621639 148 17544193139263896800
12058002 1 17386586763147240387
12788726 201 18115294713174454977
13140716 1 18269837523926816698
13383665 225 18188792615794820949
13402501 40 18195529418042964394
13617811 41 18119260703139645772
140371 6 18045230581447582371
14068700 686 18412266176496290885
14117953 113 18122064466258946823
14415360 78 17829879941615637373
14790565 3 18125449858514152752
14955137 171 17758119581005004835
15420108 30 16319484632945412537
15484559 13 17331387685178151375
15775530 1 18336821987997832131
18681886 176 17762331818651713427
19591789 44 18269842059448879530
19611394 137 17392486897583469675
20739085 24 17976839892863227899
20775438 99 17979879810701891301
21796203 349 17106817300928375627
21857420 4 14581894920648587684
22113638 7 17617940669993938335
22311459 1 18196373843690241626
23558518 356 18187087221825390513
23559900 14 18124872361891355234
25019877 29 17556874825064093086
266924 87 18411129260320198063
3178227 256 17908438183393714203
3380486 145 18336280028361885601
350125 39 18411704326729646186
7399639 24 18268420411877578104

>  <PUBCHEM_SHAPE_MULTIPOLES>  (1) 
676.88
10.51
7.22
1.02
0.87
2.65
-0.17
1.22
0.8
-5.66
-1.93
-0.29
0.56
2.95

>  <PUBCHEM_SHAPE_SELFOVERLAP>  (1) 
1536.022

>  <PUBCHEM_SHAPE_VOLUME>  (1) 
358.2

>  <PUBCHEM_COORDINATE_TYPE>  (1) 
2
5
10

$$$$
