35017
     RDKit          3D

 12 12  0  0  0  0  0  0  0  0999 V2000
   -1.7299    2.0657    0.0004 O   0  0  0  0  0  0  0  0  0  0  0  0
    2.7328    0.8464    0.0006 O   0  0  0  0  0  0  0  0  0  0  0  0
   -0.5640   -2.4444   -0.0006 N   0  0  0  0  0  0  0  0  0  0  0  0
    1.1243   -0.8168   -0.0010 N   0  0  0  0  0  0  0  0  0  0  0  0
   -1.1904   -0.1843   -0.0012 N   0  0  0  0  0  0  0  0  0  0  0  0
    0.5147    1.5040   -0.0015 N   0  0  0  0  0  0  0  0  0  0  0  0
   -0.1919   -1.0823   -0.0010 C   0  0  0  0  0  0  0  0  0  0  0  0
   -0.7622    1.0883   -0.0015 C   0  0  0  0  0  0  0  0  0  0  0  0
    1.4026    0.4968   -0.0013 C   0  0  0  0  0  0  0  0  0  0  0  0
   -1.9266   -2.8757    0.0015 C   0  0  0  0  0  0  0  0  0  0  0  0
   -3.0795    1.6231    0.0027 C   0  0  0  0  0  0  0  0  0  0  0  0
    3.6700   -0.2208    0.0029 C   0  0  0  0  0  0  0  0  0  0  0  0
  1  8  1  0
  1 11  1  0
  2  9  1  0
  2 12  1  0
  3  7  1  0
  3 10  1  0
  4  7  2  0
  4  9  1  0
  5  7  1  0
  5  8  2  0
  6  8  1  0
  6  9  2  0
M  END
>  <PUBCHEM_COMPOUND_CID>  (1) 
35017

>  <PUBCHEM_CONFORMER_RMSD>  (1) 
0.6

>  <PUBCHEM_CONFORMER_DIVERSEORDER>  (1) 
1
2
3

>  <PUBCHEM_MMFF94_PARTIAL_CHARGES>  (1) 
13
1 -0.36
10 0.37
11 0.28
12 0.28
13 0.4
2 -0.36
3 -0.87
4 -0.62
5 -0.62
6 -0.62
7 0.72
8 0.7
9 0.7

>  <PUBCHEM_EFFECTIVE_ROTOR_COUNT>  (1) 
3

>  <PUBCHEM_PHARMACOPHORE_FEATURES>  (1) 
3
1 3 donor
4 3 4 5 7 cation
6 4 5 6 7 8 9 rings

>  <PUBCHEM_HEAVY_ATOM_COUNT>  (1) 
12

>  <PUBCHEM_ATOM_DEF_STEREO_COUNT>  (1) 
0

>  <PUBCHEM_ATOM_UDEF_STEREO_COUNT>  (1) 
0

>  <PUBCHEM_BOND_DEF_STEREO_COUNT>  (1) 
0

>  <PUBCHEM_BOND_UDEF_STEREO_COUNT>  (1) 
0

>  <PUBCHEM_ISOTOPIC_ATOM_COUNT>  (1) 
0

>  <PUBCHEM_COMPONENT_COUNT>  (1) 
1

>  <PUBCHEM_CACTVS_TAUTO_COUNT>  (1) 
3

>  <PUBCHEM_CONFORMER_ID>  (1) 
000088C900000001

>  <PUBCHEM_MMFF94_ENERGY>  (1) 
40.7482

>  <PUBCHEM_FEATURE_SELFOVERLAP>  (1) 
15.223

>  <PUBCHEM_SHAPE_FINGERPRINT>  (1) 
1 1 18049442539324953663
13380535 76 18341890732354482462
14325111 11 18338797793202871072
16945 1 18410575127665531876
19021347 4 18339364046033154715
193761 8 18122626320953924741
20645476 183 17969245381350994774
20645477 70 17831011331049469557
20711985 365 18265895933243228462
20871998 184 18129384959058499062
21040471 1 18410573950966019940
23530152 11 18267022761047629903
23552423 10 18115869788210669460
23559900 14 18271528607818368750
241688 4 15888557820240979331
2748010 2 18193569873626455199
366044 4 18337671901785483008
528862 383 17972594377409320970
54173680 148 18337673138883906691
7364860 26 17619627977955622685
81228 2 18191862533847469227

>  <PUBCHEM_SHAPE_MULTIPOLES>  (1) 
215.29
4.32
2.85
0.57
2.74
1.86
0
-1.17
-0.01
-2.79
0
-0.01
0.01
0

>  <PUBCHEM_SHAPE_SELFOVERLAP>  (1) 
433.482

>  <PUBCHEM_SHAPE_VOLUME>  (1) 
123.8

>  <PUBCHEM_COORDINATE_TYPE>  (1) 
2
5
10

$$$$
