35015
     RDKit          3D

 16 17  0  0  0  0  0  0  0  0999 V2000
    4.3326    2.1058    0.0033 Cl  0  0  0  0  0  0  0  0  0  0  0  0
    2.3343   -2.7650    0.1046 S   0  0  0  0  0  0  0  0  0  0  0  0
   -0.5544    1.3304    0.0297 N   0  0  0  0  0  0  0  0  0  0  0  0
    0.8413   -0.5535    0.0638 N   0  0  0  0  0  0  0  0  0  0  0  0
    1.7671    1.6597    0.0180 N   0  0  0  0  0  0  0  0  0  0  0  0
    3.2213   -0.2487    0.0525 N   0  0  0  0  0  0  0  0  0  0  0  0
   -1.8360    0.7418    0.0449 C   0  0  0  0  0  0  0  0  0  0  0  0
   -2.9084    1.3891   -0.5689 C   0  0  0  0  0  0  0  0  0  0  0  0
   -2.0312   -0.4877    0.6742 C   0  0  0  0  0  0  0  0  0  0  0  0
    0.7449    0.7870    0.0375 C   0  0  0  0  0  0  0  0  0  0  0  0
   -4.1760    0.8071   -0.5531 C   0  0  0  0  0  0  0  0  0  0  0  0
   -3.2989   -1.0696    0.6898 C   0  0  0  0  0  0  0  0  0  0  0  0
   -4.3712   -0.4222    0.0762 C   0  0  0  0  0  0  0  0  0  0  0  0
    2.1079   -0.9991    0.0699 C   0  0  0  0  0  0  0  0  0  0  0  0
    2.9739    1.0708    0.0271 C   0  0  0  0  0  0  0  0  0  0  0  0
    0.8530   -3.3458   -0.7696 C   0  0  0  0  0  0  0  0  0  0  0  0
  1 15  1  0
  2 14  1  0
  2 16  1  0
  3  7  1  0
  3 10  1  0
  4 10  2  0
  4 14  1  0
  5 10  1  0
  5 15  2  0
  6 14  2  0
  6 15  1  0
  7  8  2  0
  7  9  1  0
  8 11  1  0
  9 12  2  0
 11 13  2  0
 12 13  1  0
M  END
>  <PUBCHEM_COMPOUND_CID>  (1) 
35015

>  <PUBCHEM_CONFORMER_RMSD>  (1) 
0.6

>  <PUBCHEM_CONFORMER_DIVERSEORDER>  (1) 
1
23
27
2
22
7
16
18
6
26
15
21
4
24
13
20
5
8
19
25
14
3
17
11
9
10
12

>  <PUBCHEM_MMFF94_PARTIAL_CHARGES>  (1) 
22
1 -0.18
10 0.72
11 -0.15
12 -0.15
13 -0.15
14 0.72
15 0.8
16 0.23
17 0.4
18 0.15
19 0.15
2 -0.33
20 0.15
21 0.15
22 0.15
3 -0.6
4 -0.62
5 -0.62
6 -0.62
7 0.1
8 -0.15
9 -0.15

>  <PUBCHEM_EFFECTIVE_ROTOR_COUNT>  (1) 
3

>  <PUBCHEM_PHARMACOPHORE_FEATURES>  (1) 
5
1 16 hydrophobe
1 3 donor
4 3 4 5 10 cation
6 4 5 6 10 14 15 rings
6 7 8 9 11 12 13 rings

>  <PUBCHEM_HEAVY_ATOM_COUNT>  (1) 
16

>  <PUBCHEM_ATOM_DEF_STEREO_COUNT>  (1) 
0

>  <PUBCHEM_ATOM_UDEF_STEREO_COUNT>  (1) 
0

>  <PUBCHEM_BOND_DEF_STEREO_COUNT>  (1) 
0

>  <PUBCHEM_BOND_UDEF_STEREO_COUNT>  (1) 
0

>  <PUBCHEM_ISOTOPIC_ATOM_COUNT>  (1) 
0

>  <PUBCHEM_COMPONENT_COUNT>  (1) 
1

>  <PUBCHEM_CACTVS_TAUTO_COUNT>  (1) 
4

>  <PUBCHEM_CONFORMER_ID>  (1) 
000088C700000001

>  <PUBCHEM_MMFF94_ENERGY>  (1) 
45.3649

>  <PUBCHEM_FEATURE_SELFOVERLAP>  (1) 
25.371

>  <PUBCHEM_SHAPE_FINGERPRINT>  (1) 
10608611 8 18334009471772299813
10616163 171 18337393854567467707
11471102 20 18411134744840622908
116883 192 17835519323557556028
12553582 1 17619360809478655930
13533116 47 18201717311350733673
14251717 144 18412824668284513758
15196674 1 18408322194223151659
15219456 202 18334858311939043209
15375358 24 18260827115961830993
15442244 35 18051976917932812465
15635459 17 18336835190901756563
18186145 218 17677050123314373217
200 152 18202560705267363149
20201158 50 18408886205059985819
20279233 1 18260269659218957185
204376 136 18268148832779648464
20645477 56 17968375642105555957
20645477 70 18409725123889608015
221490 88 18336273348917996410
23402539 116 17458613575370991597
23402655 69 18412258433082128781
23530152 11 18340770446312930006
23557571 272 17458345200165730197
23559900 14 18266169539850233530
3060560 45 18410295826554242148
33824 294 18410575097653807266
474229 33 18265332987716506840
495365 180 18199446840607655793
5104073 3 18334576824067161433
58051976 378 18411419552617016460
6669772 16 18201729474904156782
7364860 26 18339923714805791002
81539 233 18335702762807699718
8272917 22 18342461387610932767
9709674 26 18334580118470580979

>  <PUBCHEM_SHAPE_MULTIPOLES>  (1) 
315.07
8.17
2.97
0.75
3.4
2.49
-0.01
-2.73
-0.08
-3.17
-0.51
0.27
0.15
0.58

>  <PUBCHEM_SHAPE_SELFOVERLAP>  (1) 
642.836

>  <PUBCHEM_SHAPE_VOLUME>  (1) 
183.2

>  <PUBCHEM_COORDINATE_TYPE>  (1) 
2
5
10

$$$$
