35018
     RDKit          3D

 15 15  0  0  0  0  0  0  0  0999 V2000
    3.4404   -1.6914   -0.0276 O   0  0  0  0  0  0  0  0  0  0  0  0
    1.9558    2.6901   -0.0208 O   0  0  0  0  0  0  0  0  0  0  0  0
   -1.1307   -0.7978    0.0527 N   0  0  0  0  0  0  0  0  0  0  0  0
    0.3924    0.9849    0.0171 N   0  0  0  0  0  0  0  0  0  0  0  0
    1.1624   -1.2878    0.0137 N   0  0  0  0  0  0  0  0  0  0  0  0
    2.7452    0.5153   -0.0232 N   0  0  0  0  0  0  0  0  0  0  0  0
   -3.5736   -0.7190    0.0329 C   0  0  0  0  0  0  0  0  0  0  0  0
   -2.2746    0.0817    0.0693 C   0  0  0  0  0  0  0  0  0  0  0  0
   -4.8166    0.1740    0.0018 C   0  0  0  0  0  0  0  0  0  0  0  0
   -6.0903   -0.6506   -0.1006 C   0  0  0  0  0  0  0  0  0  0  0  0
    0.1820   -0.3532    0.0271 C   0  0  0  0  0  0  0  0  0  0  0  0
    2.4069   -0.7841   -0.0110 C   0  0  0  0  0  0  0  0  0  0  0  0
    1.6868    1.3415   -0.0078 C   0  0  0  0  0  0  0  0  0  0  0  0
    3.0795   -3.0652   -0.0169 C   0  0  0  0  0  0  0  0  0  0  0  0
    0.8344    3.5616   -0.0067 C   0  0  0  0  0  0  0  0  0  0  0  0
  1 12  1  0
  1 14  1  0
  2 13  1  0
  2 15  1  0
  3  8  1  0
  3 11  1  0
  4 11  2  0
  4 13  1  0
  5 11  1  0
  5 12  2  0
  6 12  1  0
  6 13  2  0
  7  8  1  0
  7  9  1  0
  9 10  1  0
M  END
>  <PUBCHEM_COMPOUND_CID>  (1) 
35018

>  <PUBCHEM_CONFORMER_RMSD>  (1) 
0.6

>  <PUBCHEM_CONFORMER_DIVERSEORDER>  (1) 
1
63
51
39
60
26
47
17
69
57
4
41
31
45
16
32
70
40
8
34
25
59
29
3
55
14
15
66
24
22
62
9
42
19
46
52
18
30
50
68
6
67
13
2
38
56
61
36
48
64
28
58
21
65
53
11
5
10
43
12
49
7
44
33
54
23
37
20
35
27

>  <PUBCHEM_MMFF94_PARTIAL_CHARGES>  (1) 
13
1 -0.36
11 0.72
12 0.7
13 0.7
14 0.28
15 0.28
2 -0.36
22 0.4
3 -0.87
4 -0.62
5 -0.62
6 -0.62
8 0.37

>  <PUBCHEM_EFFECTIVE_ROTOR_COUNT>  (1) 
6

>  <PUBCHEM_PHARMACOPHORE_FEATURES>  (1) 
4
1 10 hydrophobe
1 3 donor
4 3 4 5 11 cation
6 4 5 6 11 12 13 rings

>  <PUBCHEM_HEAVY_ATOM_COUNT>  (1) 
15

>  <PUBCHEM_ATOM_DEF_STEREO_COUNT>  (1) 
0

>  <PUBCHEM_ATOM_UDEF_STEREO_COUNT>  (1) 
0

>  <PUBCHEM_BOND_DEF_STEREO_COUNT>  (1) 
0

>  <PUBCHEM_BOND_UDEF_STEREO_COUNT>  (1) 
0

>  <PUBCHEM_ISOTOPIC_ATOM_COUNT>  (1) 
0

>  <PUBCHEM_COMPONENT_COUNT>  (1) 
1

>  <PUBCHEM_CACTVS_TAUTO_COUNT>  (1) 
3

>  <PUBCHEM_CONFORMER_ID>  (1) 
000088CA00000001

>  <PUBCHEM_MMFF94_ENERGY>  (1) 
37.5417

>  <PUBCHEM_FEATURE_SELFOVERLAP>  (1) 
20.297

>  <PUBCHEM_SHAPE_FINGERPRINT>  (1) 
10912923 1 17846223297958204675
11471102 20 18409729581938813775
13052359 8 17327169953936383596
13167823 11 18342172306854334999
13955234 65 18340487884598360329
14178000 15 18412826863018167833
15042514 8 17617941331550835714
15442244 35 18340772529203185553
15477762 27 18411982446672591630
18186145 218 17749382681448871387
20369508 70 18333725797672126451
20606313 2 18410293626882146145
20645477 70 18409166606406044935
20671657 53 18340491058463172899
20871998 22 18339921490176372402
21065198 57 18408888469067023931
21478907 32 17905327329711464370
221490 88 18335709398495658083
22289505 5 18335979800888359405
2255824 54 18340207491668727078
22943178 12 18041282183710744499
23559900 14 18410853300145071891
2748010 2 18267007368069522316
3060560 45 18059868284879043694
3421961 26 18411697660434319026
522135 26 18409731768188132167
5281201 14 18335417963779613741
54173680 148 17834113039991328164
7364860 26 18339361967300800720
77188 2 18339079268611981580
77779 3 18410575119935596243
9971528 1 18341889671339174875

>  <PUBCHEM_SHAPE_MULTIPOLES>  (1) 
277.03
9.18
3.22
0.58
17.74
2.1
0
-4.59
0.25
-4.71
0.03
0.07
0
-0.01

>  <PUBCHEM_SHAPE_SELFOVERLAP>  (1) 
545.963

>  <PUBCHEM_SHAPE_VOLUME>  (1) 
162.9

>  <PUBCHEM_COORDINATE_TYPE>  (1) 
2
5
10

$$$$
