35012
     RDKit          3D

 15 16  0  0  0  0  0  0  0  0999 V2000
    1.6881   -3.2040    0.0003 Br  0  0  0  0  0  0  0  0  0  0  0  0
   -0.3834    1.4470   -0.0001 O   0  0  0  0  0  0  0  0  0  0  0  0
    1.9293    1.3753   -0.0002 N   0  0  0  0  0  0  0  0  0  0  0  0
    0.6218   -0.6368   -0.0001 N   0  0  0  0  0  0  0  0  0  0  0  0
    3.0181   -0.7630    0.0001 N   0  0  0  0  0  0  0  0  0  0  0  0
    4.2691    1.2202    0.0001 N   0  0  0  0  0  0  0  0  0  0  0  0
   -1.5704    0.7814    0.0000 C   0  0  0  0  0  0  0  0  0  0  0  0
   -2.1788    0.4402    1.2080 C   0  0  0  0  0  0  0  0  0  0  0  0
   -2.1783    0.4397   -1.2081 C   0  0  0  0  0  0  0  0  0  0  0  0
   -3.3951   -0.2427    1.2080 C   0  0  0  0  0  0  0  0  0  0  0  0
   -3.3947   -0.2432   -1.2080 C   0  0  0  0  0  0  0  0  0  0  0  0
    0.7780    0.6926    0.0000 C   0  0  0  0  0  0  0  0  0  0  0  0
   -4.0030   -0.5843    0.0000 C   0  0  0  0  0  0  0  0  0  0  0  0
    3.0110    0.5797    0.0000 C   0  0  0  0  0  0  0  0  0  0  0  0
    1.7882   -1.3021    0.0000 C   0  0  0  0  0  0  0  0  0  0  0  0
  1 15  1  0
  2  7  1  0
  2 12  1  0
  3 12  2  0
  3 14  1  0
  4 12  1  0
  4 15  2  0
  5 14  2  0
  5 15  1  0
  6 14  1  0
  7  8  2  0
  7  9  1  0
  8 10  1  0
  9 11  2  0
 10 13  2  0
 11 13  1  0
M  END
>  <PUBCHEM_COMPOUND_CID>  (1) 
35012

>  <PUBCHEM_CONFORMER_RMSD>  (1) 
0.6

>  <PUBCHEM_CONFORMER_DIVERSEORDER>  (1) 
1
11
7
3
12
6
9
8
5
10
4
2

>  <PUBCHEM_MMFF94_PARTIAL_CHARGES>  (1) 
22
1 -0.11
10 -0.15
11 -0.15
12 0.7
13 -0.15
14 0.72
15 0.73
16 0.15
17 0.15
18 0.15
19 0.15
2 -0.17
20 0.15
21 0.4
22 0.4
3 -0.62
4 -0.62
5 -0.62
6 -0.9
7 0.08
8 -0.15
9 -0.15

>  <PUBCHEM_EFFECTIVE_ROTOR_COUNT>  (1) 
2

>  <PUBCHEM_PHARMACOPHORE_FEATURES>  (1) 
5
1 1 hydrophobe
1 6 donor
4 3 5 6 14 cation
6 3 4 5 12 14 15 rings
6 7 8 9 10 11 13 rings

>  <PUBCHEM_HEAVY_ATOM_COUNT>  (1) 
15

>  <PUBCHEM_ATOM_DEF_STEREO_COUNT>  (1) 
0

>  <PUBCHEM_ATOM_UDEF_STEREO_COUNT>  (1) 
0

>  <PUBCHEM_BOND_DEF_STEREO_COUNT>  (1) 
0

>  <PUBCHEM_BOND_UDEF_STEREO_COUNT>  (1) 
0

>  <PUBCHEM_ISOTOPIC_ATOM_COUNT>  (1) 
0

>  <PUBCHEM_COMPONENT_COUNT>  (1) 
1

>  <PUBCHEM_CACTVS_TAUTO_COUNT>  (1) 
4

>  <PUBCHEM_CONFORMER_ID>  (1) 
000088C400000001

>  <PUBCHEM_MMFF94_ENERGY>  (1) 
45.7521

>  <PUBCHEM_FEATURE_SELFOVERLAP>  (1) 
25.371

>  <PUBCHEM_SHAPE_FINGERPRINT>  (1) 
107287 299 18334582343015421514
11137873 295 18118121377460453735
12553582 1 17545605552186500266
12932764 1 17632569431567473409
13032168 30 17986383614805788655
13296908 3 18262235521589971519
14251717 144 18411697694720132726
15219456 202 18114179713926140445
15279307 12 18130786788997082351
15309172 13 18411703226643109330
15375358 24 18040991839267630853
15375462 189 18060700576457985683
16945 1 18410856564114273828
19422 9 17632301150682608870
200 152 18343294886381679389
20201158 50 18187085052972518099
20279233 1 17821447962998035939
204376 136 18337391672876789296
20645477 70 18337379440572716263
22445834 79 18202286875079037019
2255824 54 18341052999162765084
23402539 116 16153975941846780031
23557571 272 17095807624748080261
23559900 14 16805310081727522272
33824 294 18408604764195418563
474 4 17557971016788040384
474229 33 18336546122728425466
57812782 119 17313101968677774217
581208 293 18411416215622326786
633830 44 18201454596279891308
77492 1 17703791422754178049
81228 2 16827831090530908730
81539 233 18187364342037877646

>  <PUBCHEM_SHAPE_MULTIPOLES>  (1) 
288.84
7.11
2.14
1.01
0.65
2.07
0
-0.16
0
-2.49
0
1.14
0.01
0

>  <PUBCHEM_SHAPE_SELFOVERLAP>  (1) 
606.088

>  <PUBCHEM_SHAPE_VOLUME>  (1) 
167.7

>  <PUBCHEM_COORDINATE_TYPE>  (1) 
2
5
10

$$$$
