35019
     RDKit          3D

 18 19  0  0  0  0  0  0  0  0999 V2000
    3.3571    2.4028    0.0126 O   0  0  0  0  0  0  0  0  0  0  0  0
    3.8198   -2.2002    0.0214 O   0  0  0  0  0  0  0  0  0  0  0  0
   -0.4341   -0.3033   -0.0404 N   0  0  0  0  0  0  0  0  0  0  0  0
    1.6905   -1.2954   -0.0105 N   0  0  0  0  0  0  0  0  0  0  0  0
    1.4505    1.0921   -0.0152 N   0  0  0  0  0  0  0  0  0  0  0  0
    3.6380    0.1061    0.0157 N   0  0  0  0  0  0  0  0  0  0  0  0
   -1.3515    0.8154   -0.0535 C   0  0  0  0  0  0  0  0  0  0  0  0
   -2.7667    0.3457   -0.0202 C   0  0  0  0  0  0  0  0  0  0  0  0
   -3.4469    0.0962   -1.2123 C   0  0  0  0  0  0  0  0  0  0  0  0
   -3.4100    0.1554    1.2028 C   0  0  0  0  0  0  0  0  0  0  0  0
    0.9428   -0.1647   -0.0216 C   0  0  0  0  0  0  0  0  0  0  0  0
   -4.7703   -0.3432   -1.1814 C   0  0  0  0  0  0  0  0  0  0  0  0
   -4.7335   -0.2841    1.2335 C   0  0  0  0  0  0  0  0  0  0  0  0
   -5.4136   -0.5335    0.0414 C   0  0  0  0  0  0  0  0  0  0  0  0
    2.7920    1.1489    0.0033 C   0  0  0  0  0  0  0  0  0  0  0  0
    3.0164   -1.0840    0.0076 C   0  0  0  0  0  0  0  0  0  0  0  0
    2.4599    3.5038    0.0017 C   0  0  0  0  0  0  0  0  0  0  0  0
    3.1597   -3.4579    0.0150 C   0  0  0  0  0  0  0  0  0  0  0  0
  1 15  1  0
  1 17  1  0
  2 16  1  0
  2 18  1  0
  3  7  1  0
  3 11  1  0
  4 11  2  0
  4 16  1  0
  5 11  1  0
  5 15  2  0
  6 15  1  0
  6 16  2  0
  7  8  1  0
  8  9  2  0
  8 10  1  0
  9 12  1  0
 10 13  2  0
 12 14  2  0
 13 14  1  0
M  END
>  <PUBCHEM_COMPOUND_CID>  (1) 
35019

>  <PUBCHEM_CONFORMER_RMSD>  (1) 
0.6

>  <PUBCHEM_CONFORMER_DIVERSEORDER>  (1) 
1
43
29
32
46
35
20
47
41
2
36
26
45
44
37
23
28
18
39
25
42
11
4
19
15
27
33
38
3
16
34
14
6
12
21
30
13
9
5
40
10
17
22
31
7
24
8

>  <PUBCHEM_MMFF94_PARTIAL_CHARGES>  (1) 
24
1 -0.36
10 -0.15
11 0.72
12 -0.15
13 -0.15
14 -0.15
15 0.7
16 0.7
17 0.28
18 0.28
2 -0.36
21 0.4
22 0.15
23 0.15
24 0.15
25 0.15
26 0.15
3 -0.87
4 -0.62
5 -0.62
6 -0.62
7 0.51
8 -0.14
9 -0.15

>  <PUBCHEM_EFFECTIVE_ROTOR_COUNT>  (1) 
5

>  <PUBCHEM_PHARMACOPHORE_FEATURES>  (1) 
4
1 3 donor
4 3 4 5 11 cation
6 4 5 6 11 15 16 rings
6 8 9 10 12 13 14 rings

>  <PUBCHEM_HEAVY_ATOM_COUNT>  (1) 
18

>  <PUBCHEM_ATOM_DEF_STEREO_COUNT>  (1) 
0

>  <PUBCHEM_ATOM_UDEF_STEREO_COUNT>  (1) 
0

>  <PUBCHEM_BOND_DEF_STEREO_COUNT>  (1) 
0

>  <PUBCHEM_BOND_UDEF_STEREO_COUNT>  (1) 
0

>  <PUBCHEM_ISOTOPIC_ATOM_COUNT>  (1) 
0

>  <PUBCHEM_COMPONENT_COUNT>  (1) 
1

>  <PUBCHEM_CACTVS_TAUTO_COUNT>  (1) 
3

>  <PUBCHEM_CONFORMER_ID>  (1) 
000088CB00000001

>  <PUBCHEM_MMFF94_ENERGY>  (1) 
56.8411

>  <PUBCHEM_FEATURE_SELFOVERLAP>  (1) 
20.297

>  <PUBCHEM_SHAPE_FINGERPRINT>  (1) 
10912923 1 17846501456887632515
11405975 8 18339081467672232041
12107183 9 17910967833473896097
12236239 1 17704075105138415553
12616971 3 18202847643500314791
12730499 353 18263372536977742720
12916754 54 18411135819104368127
13009979 54 17702111266039545170
13167823 11 18273214201349993983
13533116 47 18413390947528497779
13631057 29 17768240576970237311
13675066 3 12247677193082362183
13760787 5 18272368685677263549
13955234 65 18411980299494678432
15477762 27 18411417268142697222
15961568 22 16371292250176378780
17844677 252 18411142411837339741
1813 80 18057897835709810214
19050596 39 17632578236688137067
200 152 18342734101265770507
20281475 54 18202275923097197943
20369508 70 18187358788529275618
20645477 70 18334570235386777415
20693207 138 17967823721374839015
21065198 57 18408606942260347473
21065201 7 16443060591341393889
221490 88 18335701590033883412
2255824 54 18341896298895796702
22646028 1 18059852844619410751
22943178 12 17967811652500484173
23532345 1 18337672022123837969
23557571 272 17240195530679062309
23559900 14 18408038524233361819
23596394 208 17895187758234521763
31174 14 18335416859603811876
312423 11 18270694081754281793
3421961 26 18338796719888068346
474 4 18268146654994229368
5104073 3 18340485552209657241
5281201 14 18334011666452933781
573450 72 17203325581647928643
602551 16 15267048289983622631
6025842 7 18411135874406284158
7364860 26 18410855473604004812
9709674 26 18334296461634542763

>  <PUBCHEM_SHAPE_MULTIPOLES>  (1) 
338.77
11.09
2.89
0.94
9.87
0.2
-0.01
-2.47
-0.11
-6.62
-0.02
1.45
-0.03
-0.03

>  <PUBCHEM_SHAPE_SELFOVERLAP>  (1) 
710.28

>  <PUBCHEM_SHAPE_VOLUME>  (1) 
187.7

>  <PUBCHEM_COORDINATE_TYPE>  (1) 
2
5
10

$$$$
