35011
     RDKit          3D

 17 18  0  0  0  0  0  0  0  0999 V2000
    4.3375    2.0533   -0.0054 Cl  0  0  0  0  0  0  0  0  0  0  0  0
   -0.5765    1.8719   -0.0011 O   0  0  0  0  0  0  0  0  0  0  0  0
    1.7499   -2.1642    0.0061 N   0  0  0  0  0  0  0  0  0  0  0  0
    0.5433   -0.1530    0.0036 N   0  0  0  0  0  0  0  0  0  0  0  0
    2.9429   -0.1453    0.0012 N   0  0  0  0  0  0  0  0  0  0  0  0
    1.7364    1.9289   -0.0008 N   0  0  0  0  0  0  0  0  0  0  0  0
    0.5516   -2.9434    0.0091 C   0  0  0  0  0  0  0  0  0  0  0  0
    1.7450   -0.7522    0.0033 C   0  0  0  0  0  0  0  0  0  0  0  0
    0.8900   -4.4217   -0.0108 C   0  0  0  0  0  0  0  0  0  0  0  0
   -1.7247    1.1411   -0.0010 C   0  0  0  0  0  0  0  0  0  0  0  0
    0.6248    1.1830    0.0013 C   0  0  0  0  0  0  0  0  0  0  0  0
   -2.3144    0.7687    1.2069 C   0  0  0  0  0  0  0  0  0  0  0  0
   -2.3113    0.7636   -1.2089 C   0  0  0  0  0  0  0  0  0  0  0  0
   -3.4907    0.0189    1.2071 C   0  0  0  0  0  0  0  0  0  0  0  0
   -3.4876    0.0139   -1.2089 C   0  0  0  0  0  0  0  0  0  0  0  0
   -4.0772   -0.3584   -0.0008 C   0  0  0  0  0  0  0  0  0  0  0  0
    2.8609    1.1950   -0.0010 C   0  0  0  0  0  0  0  0  0  0  0  0
  1 17  1  0
  2 10  1  0
  2 11  1  0
  3  7  1  0
  3  8  1  0
  4  8  2  0
  4 11  1  0
  5  8  1  0
  5 17  2  0
  6 11  2  0
  6 17  1  0
  7  9  1  0
 10 12  2  0
 10 13  1  0
 12 14  1  0
 13 15  2  0
 14 16  2  0
 15 16  1  0
M  END
>  <PUBCHEM_COMPOUND_CID>  (1) 
35011

>  <PUBCHEM_CONFORMER_RMSD>  (1) 
0.6

>  <PUBCHEM_CONFORMER_DIVERSEORDER>  (1) 
1
10
24
53
41
52
39
34
6
36
44
19
16
43
14
28
7
51
15
32
21
29
37
17
23
18
49
31
35
3
13
45
33
11
40
2
47
46
20
26
50
30
4
38
22
48
25
9
27
5
42
8
54
12

>  <PUBCHEM_MMFF94_PARTIAL_CHARGES>  (1) 
22
1 -0.18
10 0.08
11 0.7
12 -0.15
13 -0.15
14 -0.15
15 -0.15
16 -0.15
17 0.8
2 -0.17
20 0.4
24 0.15
25 0.15
26 0.15
27 0.15
28 0.15
3 -0.87
4 -0.62
5 -0.62
6 -0.62
7 0.37
8 0.72

>  <PUBCHEM_EFFECTIVE_ROTOR_COUNT>  (1) 
4

>  <PUBCHEM_PHARMACOPHORE_FEATURES>  (1) 
4
1 3 donor
4 3 4 5 8 cation
6 10 12 13 14 15 16 rings
6 4 5 6 8 11 17 rings

>  <PUBCHEM_HEAVY_ATOM_COUNT>  (1) 
17

>  <PUBCHEM_ATOM_DEF_STEREO_COUNT>  (1) 
0

>  <PUBCHEM_ATOM_UDEF_STEREO_COUNT>  (1) 
0

>  <PUBCHEM_BOND_DEF_STEREO_COUNT>  (1) 
0

>  <PUBCHEM_BOND_UDEF_STEREO_COUNT>  (1) 
0

>  <PUBCHEM_ISOTOPIC_ATOM_COUNT>  (1) 
0

>  <PUBCHEM_COMPONENT_COUNT>  (1) 
1

>  <PUBCHEM_CACTVS_TAUTO_COUNT>  (1) 
4

>  <PUBCHEM_CONFORMER_ID>  (1) 
000088C300000001

>  <PUBCHEM_MMFF94_ENERGY>  (1) 
47.9577

>  <PUBCHEM_FEATURE_SELFOVERLAP>  (1) 
20.297

>  <PUBCHEM_SHAPE_FINGERPRINT>  (1) 
12553582 1 17547014026618422639
12892183 10 18123781728198623993
13032168 30 17986667284674064511
13052359 8 18120929770707597770
13583140 156 16590244610828705972
14178342 30 17980751650218583712
14844126 61 16317239846164599314
15309172 13 18410577330973471593
15375358 24 18113893862631203173
15375462 189 18060137639537250217
17138139 8 17483363672612739071
19591789 44 18410580587102189342
200 152 18343577473813273277
20279233 1 17821728355722505529
20344682 1 17822566213568553485
204376 136 18337110193468117196
20645477 70 18262507109810507727
21160774 45 18048314732542549159
21427221 339 17413052914740409153
22445834 79 18200880578322088785
2255824 54 18340209587850209262
23530152 11 18338238275186567862
23557571 272 17023472949664489381
23559900 14 18120359974312406688
23598291 2 17916311545551819357
2748010 2 18263944278687280794
33824 294 18409167714349014075
458136 41 18338814350459656506
474229 33 18336545035795627512
633830 44 18201733850610920836
6438718 38 17628081414044926110
7097593 13 17911529692141523065
81228 2 17398945467417443592
8272917 22 18339927017872979669
9925002 15 17321555216051825828

>  <PUBCHEM_SHAPE_MULTIPOLES>  (1) 
325.93
6.87
3.6
0.96
0.76
6.13
0
-3.48
-0.01
-3.17
-0.01
1.06
-0.17
-0.01

>  <PUBCHEM_SHAPE_SELFOVERLAP>  (1) 
679.762

>  <PUBCHEM_SHAPE_VOLUME>  (1) 
183.9

>  <PUBCHEM_COORDINATE_TYPE>  (1) 
2
5
10

$$$$
