35025
     RDKit          3D

 19 20  0  0  0  0  0  0  0  0999 V2000
    0.9415    2.9184    0.0999 O   0  0  0  0  0  0  0  0  0  0  0  0
    3.8741   -0.6578   -0.0120 O   0  0  0  0  0  0  0  0  0  0  0  0
   -0.7190   -1.4313   -0.0496 N   0  0  0  0  0  0  0  0  0  0  0  0
    1.5998   -1.0821   -0.0330 N   0  0  0  0  0  0  0  0  0  0  0  0
    0.0787    0.7728    0.0250 N   0  0  0  0  0  0  0  0  0  0  0  0
    2.4464    1.1618    0.0432 N   0  0  0  0  0  0  0  0  0  0  0  0
   -2.1156   -1.2344   -0.0468 C   0  0  0  0  0  0  0  0  0  0  0  0
    0.3701   -0.5389   -0.0178 C   0  0  0  0  0  0  0  0  0  0  0  0
   -2.9541   -2.1923    0.5234 C   0  0  0  0  0  0  0  0  0  0  0  0
   -2.6585   -0.0817   -0.6147 C   0  0  0  0  0  0  0  0  0  0  0  0
    1.1647    1.5620    0.0533 C   0  0  0  0  0  0  0  0  0  0  0  0
    2.5873   -0.1728   -0.0008 C   0  0  0  0  0  0  0  0  0  0  0  0
   -4.3354   -1.9978    0.5254 C   0  0  0  0  0  0  0  0  0  0  0  0
   -4.0397    0.1129   -0.6125 C   0  0  0  0  0  0  0  0  0  0  0  0
   -0.4151    3.3387    0.1130 C   0  0  0  0  0  0  0  0  0  0  0  0
    4.0204   -2.0700   -0.0563 C   0  0  0  0  0  0  0  0  0  0  0  0
   -4.8781   -0.8453   -0.0424 C   0  0  0  0  0  0  0  0  0  0  0  0
   -0.4623    4.8503    0.1801 C   0  0  0  0  0  0  0  0  0  0  0  0
    5.4948   -2.4125   -0.0774 C   0  0  0  0  0  0  0  0  0  0  0  0
  1 11  1  0
  1 15  1  0
  2 12  1  0
  2 16  1  0
  3  7  1  0
  3  8  1  0
  4  8  2  0
  4 12  1  0
  5  8  1  0
  5 11  2  0
  6 11  1  0
  6 12  2  0
  7  9  2  0
  7 10  1  0
  9 13  1  0
 10 14  2  0
 13 17  2  0
 14 17  1  0
 15 18  1  0
 16 19  1  0
M  END
>  <PUBCHEM_COMPOUND_CID>  (1) 
35025

>  <PUBCHEM_CONFORMER_RMSD>  (1) 
0.8

>  <PUBCHEM_CONFORMER_DIVERSEORDER>  (1) 
1
13
2
29
7
23
12
24
17
19
6
27
5
4
15
28
16
14
21
8
22
20
25
9
11
18
10
26
3

>  <PUBCHEM_MMFF94_PARTIAL_CHARGES>  (1) 
23
1 -0.36
10 -0.15
11 0.7
12 0.7
13 -0.15
14 -0.15
15 0.28
16 0.28
17 -0.15
2 -0.36
20 0.4
21 0.15
22 0.15
27 0.15
28 0.15
29 0.15
3 -0.6
4 -0.62
5 -0.62
6 -0.62
7 0.1
8 0.72
9 -0.15

>  <PUBCHEM_EFFECTIVE_ROTOR_COUNT>  (1) 
6

>  <PUBCHEM_PHARMACOPHORE_FEATURES>  (1) 
4
1 3 donor
4 3 4 5 8 cation
6 4 5 6 8 11 12 rings
6 7 9 10 13 14 17 rings

>  <PUBCHEM_HEAVY_ATOM_COUNT>  (1) 
19

>  <PUBCHEM_ATOM_DEF_STEREO_COUNT>  (1) 
0

>  <PUBCHEM_ATOM_UDEF_STEREO_COUNT>  (1) 
0

>  <PUBCHEM_BOND_DEF_STEREO_COUNT>  (1) 
0

>  <PUBCHEM_BOND_UDEF_STEREO_COUNT>  (1) 
0

>  <PUBCHEM_ISOTOPIC_ATOM_COUNT>  (1) 
0

>  <PUBCHEM_COMPONENT_COUNT>  (1) 
1

>  <PUBCHEM_CACTVS_TAUTO_COUNT>  (1) 
3

>  <PUBCHEM_CONFORMER_ID>  (1) 
000088D100000001

>  <PUBCHEM_MMFF94_ENERGY>  (1) 
57.4864

>  <PUBCHEM_FEATURE_SELFOVERLAP>  (1) 
20.297

>  <PUBCHEM_SHAPE_FINGERPRINT>  (1) 
10411042 1 18411139125654621234
10608611 8 18119243107180593437
1100329 8 18267306430642619041
116883 192 18268996397304253446
12403259 226 18262514913929705823
12788726 201 18190739739571714818
12916754 54 18267022941901038563
13052359 8 17905605506448632224
13134695 92 18340482373807374165
13140716 1 18341334400792975953
138480 1 14880034022432894801
13955234 65 17907586074882438939
14178000 15 18340207491642600056
14790565 3 17761214714654010252
14866123 147 17906734696036562907
15042514 8 18050849914714909002
15442244 35 18412266159654064393
15885798 251 18411418393213203754
17492 89 18123187067953685287
17804303 29 18260831518572744031
19427546 20 18192160300452830860
20671657 1 18123193673696892749
20671657 53 18341338863390161635
20681677 76 18119803866743268655
21041028 32 18411700971769688765
21065198 57 18265899249491081779
21478907 32 18266178336022643274
21524375 3 16976465850869537557
221357 26 18335695053568295919
221490 88 18191030212267487851
23175994 123 18410293610119164431
23402539 116 18200867388382733303
23419403 2 17273387544622162344
23557571 272 17984705520197547606
23558518 356 17902523583982996410
23559900 14 18265606757933786883
3004659 81 18040718044167881246
3091708 16 9137491945532192000
335352 9 18410010993007928125
3421961 26 18340486763648903386
5104073 3 18339364170946351435
54173680 148 18266459798172506704
58779409 8 17690009933721916380
621550 5 17967254225885523069
6442390 28 16752698776391795841
68521 5 18339081471782193086
7164475 11 18337397020311338364
7364860 26 18122626321064506197
77188 2 18411139160135906324
81228 2 18197510527606064240
9709674 26 18119248608849850003
9971528 1 18342448287707576218
9981440 41 17114373200785129985

>  <PUBCHEM_SHAPE_MULTIPOLES>  (1) 
359.35
9.3
4.53
0.67
2.73
7.6
-0.01
-10.49
-0.26
0.7
0.6
-0.29
-0.06
0.52

>  <PUBCHEM_SHAPE_SELFOVERLAP>  (1) 
747.713

>  <PUBCHEM_SHAPE_VOLUME>  (1) 
200.4

>  <PUBCHEM_COORDINATE_TYPE>  (1) 
2
5
10

$$$$
