35026
     RDKit          3D

 20 21  0  0  0  0  0  0  0  0999 V2000
   -2.6103    3.2734   -0.9766 Cl  0  0  0  0  0  0  0  0  0  0  0  0
    1.3468   -2.9689   -0.2106 O   0  0  0  0  0  0  0  0  0  0  0  0
    3.9299    0.8607    0.0405 O   0  0  0  0  0  0  0  0  0  0  0  0
   -0.7143    1.1903    0.1783 N   0  0  0  0  0  0  0  0  0  0  0  0
    1.6264    1.0649    0.1132 N   0  0  0  0  0  0  0  0  0  0  0  0
    0.2866   -0.9215   -0.0170 N   0  0  0  0  0  0  0  0  0  0  0  0
    2.6798   -1.0818   -0.0864 N   0  0  0  0  0  0  0  0  0  0  0  0
   -2.0881    0.8591    0.1842 C   0  0  0  0  0  0  0  0  0  0  0  0
    0.4520    0.4094    0.0874 C   0  0  0  0  0  0  0  0  0  0  0  0
   -3.0479    1.7368   -0.3199 C   0  0  0  0  0  0  0  0  0  0  0  0
   -2.4771   -0.3743    0.7072 C   0  0  0  0  0  0  0  0  0  0  0  0
    1.4416   -1.6014   -0.0993 C   0  0  0  0  0  0  0  0  0  0  0  0
    2.6947    0.2564    0.0224 C   0  0  0  0  0  0  0  0  0  0  0  0
   -4.3966    1.3809   -0.3012 C   0  0  0  0  0  0  0  0  0  0  0  0
   -3.8258   -0.7299    0.7259 C   0  0  0  0  0  0  0  0  0  0  0  0
    0.0360   -3.5154   -0.2266 C   0  0  0  0  0  0  0  0  0  0  0  0
    3.9429    2.2765    0.1535 C   0  0  0  0  0  0  0  0  0  0  0  0
   -4.7855    0.1477    0.2217 C   0  0  0  0  0  0  0  0  0  0  0  0
    0.1306   -5.0196   -0.3685 C   0  0  0  0  0  0  0  0  0  0  0  0
    5.3784    2.7566    0.1718 C   0  0  0  0  0  0  0  0  0  0  0  0
  1 10  1  0
  2 12  1  0
  2 16  1  0
  3 13  1  0
  3 17  1  0
  4  8  1  0
  4  9  1  0
  5  9  2  0
  5 13  1  0
  6  9  1  0
  6 12  2  0
  7 12  1  0
  7 13  2  0
  8 10  2  0
  8 11  1  0
 10 14  1  0
 11 15  2  0
 14 18  2  0
 15 18  1  0
 16 19  1  0
 17 20  1  0
M  END
>  <PUBCHEM_COMPOUND_CID>  (1) 
35026

>  <PUBCHEM_CONFORMER_RMSD>  (1) 
0.8

>  <PUBCHEM_CONFORMER_DIVERSEORDER>  (1) 
1
49
55
12
21
48
2
61
58
27
56
51
52
10
24
13
53
9
35
36
7
41
20
29
17
59
57
25
46
22
34
37
15
23
45
28
16
44
38
11
14
50
60
3
33
54
40
30
32
5
4
6
62
47
19
26
31
39
42
8
18
43

>  <PUBCHEM_MMFF94_PARTIAL_CHARGES>  (1) 
23
1 -0.18
10 0.18
11 -0.15
12 0.7
13 0.7
14 -0.15
15 -0.15
16 0.28
17 0.28
18 -0.15
2 -0.36
21 0.4
22 0.15
23 0.15
24 0.15
29 0.15
3 -0.36
4 -0.6
5 -0.62
6 -0.62
7 -0.62
8 0.1
9 0.72

>  <PUBCHEM_EFFECTIVE_ROTOR_COUNT>  (1) 
6

>  <PUBCHEM_PHARMACOPHORE_FEATURES>  (1) 
4
1 4 donor
4 4 5 6 9 cation
6 5 6 7 9 12 13 rings
6 8 10 11 14 15 18 rings

>  <PUBCHEM_HEAVY_ATOM_COUNT>  (1) 
20

>  <PUBCHEM_ATOM_DEF_STEREO_COUNT>  (1) 
0

>  <PUBCHEM_ATOM_UDEF_STEREO_COUNT>  (1) 
0

>  <PUBCHEM_BOND_DEF_STEREO_COUNT>  (1) 
0

>  <PUBCHEM_BOND_UDEF_STEREO_COUNT>  (1) 
0

>  <PUBCHEM_ISOTOPIC_ATOM_COUNT>  (1) 
0

>  <PUBCHEM_COMPONENT_COUNT>  (1) 
1

>  <PUBCHEM_CACTVS_TAUTO_COUNT>  (1) 
3

>  <PUBCHEM_CONFORMER_ID>  (1) 
000088D200000001

>  <PUBCHEM_MMFF94_ENERGY>  (1) 
59.5548

>  <PUBCHEM_FEATURE_SELFOVERLAP>  (1) 
20.297

>  <PUBCHEM_SHAPE_FINGERPRINT>  (1) 
10074138 170 17977920695719250242
10608611 8 18263361391553856037
12553582 1 17116367165064396939
12788726 201 17831285474227083458
13052359 8 18195526124014129194
138480 1 17834959672171238062
14787075 74 18059010721491049625
15042514 8 17977388553281490202
15375358 24 18333450928634321617
15927050 60 18340204193952196798
17539 30 17695060389991983494
17980427 23 17386573586398781341
20286276 3 18123475969265466885
204376 136 18340770433100707592
20645477 70 18264486187896586251
21033648 29 18342446089007003456
21202864 24 18195252349844961682
221490 88 18121226385238577787
2255824 54 18197498428757213166
23227448 37 18051978309877113580
23557571 272 17459196188017003869
23559900 14 18049716330568332923
33824 294 18410577253964896659
474229 33 18337673134462001137
5104073 3 18261115123763615425
5486654 2 18268435800666330156
59755656 520 18336541733451080348
621550 34 18336552625287910029
633830 44 17916881126824209828
6669772 16 18202009820098863638
7364860 26 18195246615810680202
7399639 24 18335140873706146581
7808743 9 18121778593964374504
81228 2 17549801722338539370
9709674 26 18120657925200668883
9925002 15 17686066393102499429
9981440 41 18409444786725823113

>  <PUBCHEM_SHAPE_MULTIPOLES>  (1) 
381.8
9.11
4.98
0.74
2.47
6.58
0.02
-9.19
-0.76
2.19
1.31
-0.37
-0.12
1.08

>  <PUBCHEM_SHAPE_SELFOVERLAP>  (1) 
787.138

>  <PUBCHEM_SHAPE_VOLUME>  (1) 
218.2

>  <PUBCHEM_COORDINATE_TYPE>  (1) 
2
5
10

$$$$
