35033
     RDKit          3D

 23 25  0  0  0  0  0  0  0  0999 V2000
    4.4571    2.0326   -0.0001 Cl  0  0  0  0  0  0  0  0  0  0  0  0
    4.4281   -2.0536   -0.0015 Cl  0  0  0  0  0  0  0  0  0  0  0  0
   -1.4077    2.3138    0.0011 O   0  0  0  0  0  0  0  0  0  0  0  0
   -1.4377   -2.3124    0.0011 O   0  0  0  0  0  0  0  0  0  0  0  0
   -1.3730    0.0002   -0.0009 N   0  0  0  0  0  0  0  0  0  0  0  0
   -3.4587   -1.1861   -0.0003 N   0  0  0  0  0  0  0  0  0  0  0  0
   -3.4432    1.2135   -0.0004 N   0  0  0  0  0  0  0  0  0  0  0  0
   -5.4659    0.0266    0.0002 N   0  0  0  0  0  0  0  0  0  0  0  0
   -0.0482    2.2501    0.0007 C   0  0  0  0  0  0  0  0  0  0  0  0
   -0.0608   -2.2532    0.0007 C   0  0  0  0  0  0  0  0  0  0  0  0
    0.6483    2.2197   -1.2074 C   0  0  0  0  0  0  0  0  0  0  0  0
    0.6485    2.2132    1.2086 C   0  0  0  0  0  0  0  0  0  0  0  0
    0.6193   -2.2220    1.2083 C   0  0  0  0  0  0  0  0  0  0  0  0
    0.6183   -2.2240   -1.2077 C   0  0  0  0  0  0  0  0  0  0  0  0
   -2.1079    1.1190   -0.0008 C   0  0  0  0  0  0  0  0  0  0  0  0
   -2.1177   -1.1171   -0.0008 C   0  0  0  0  0  0  0  0  0  0  0  0
    2.0416    2.1524   -1.2075 C   0  0  0  0  0  0  0  0  0  0  0  0
    2.0417    2.1460    1.2084 C   0  0  0  0  0  0  0  0  0  0  0  0
    2.0128   -2.1599    1.2075 C   0  0  0  0  0  0  0  0  0  0  0  0
    2.0117   -2.1620   -1.2084 C   0  0  0  0  0  0  0  0  0  0  0  0
    2.7383    2.1156    0.0003 C   0  0  0  0  0  0  0  0  0  0  0  0
    2.7090   -2.1300   -0.0008 C   0  0  0  0  0  0  0  0  0  0  0  0
   -4.0540    0.0177   -0.0003 C   0  0  0  0  0  0  0  0  0  0  0  0
  1 21  1  0
  2 22  1  0
  3  9  1  0
  3 15  1  0
  4 10  1  0
  4 16  1  0
  5 15  2  0
  5 16  1  0
  6 16  2  0
  6 23  1  0
  7 15  1  0
  7 23  2  0
  8 23  1  0
  9 11  2  0
  9 12  1  0
 10 13  2  0
 10 14  1  0
 11 17  1  0
 12 18  2  0
 13 19  1  0
 14 20  2  0
 17 21  2  0
 18 21  1  0
 19 22  2  0
 20 22  1  0
M  END
>  <PUBCHEM_COMPOUND_CID>  (1) 
35033

>  <PUBCHEM_CONFORMER_RMSD>  (1) 
0.8

>  <PUBCHEM_CONFORMER_DIVERSEORDER>  (1) 
1
26
9
8
3
5
4
18
15
23
2
6
14
24
7
16
25
11
13
12
22
20
21
19
17
10

>  <PUBCHEM_MMFF94_PARTIAL_CHARGES>  (1) 
33
1 -0.18
10 0.08
11 -0.15
12 -0.15
13 -0.15
14 -0.15
15 0.7
16 0.7
17 -0.15
18 -0.15
19 -0.15
2 -0.18
20 -0.15
21 0.18
22 0.18
23 0.72
24 0.15
25 0.15
26 0.15
27 0.15
28 0.15
29 0.15
3 -0.17
30 0.15
31 0.15
32 0.4
33 0.4
4 -0.17
5 -0.62
6 -0.62
7 -0.62
8 -0.9
9 0.08

>  <PUBCHEM_EFFECTIVE_ROTOR_COUNT>  (1) 
4

>  <PUBCHEM_PHARMACOPHORE_FEATURES>  (1) 
5
1 8 donor
4 6 7 8 23 cation
6 10 13 14 19 20 22 rings
6 5 6 7 15 16 23 rings
6 9 11 12 17 18 21 rings

>  <PUBCHEM_HEAVY_ATOM_COUNT>  (1) 
23

>  <PUBCHEM_ATOM_DEF_STEREO_COUNT>  (1) 
0

>  <PUBCHEM_ATOM_UDEF_STEREO_COUNT>  (1) 
0

>  <PUBCHEM_BOND_DEF_STEREO_COUNT>  (1) 
0

>  <PUBCHEM_BOND_UDEF_STEREO_COUNT>  (1) 
0

>  <PUBCHEM_ISOTOPIC_ATOM_COUNT>  (1) 
0

>  <PUBCHEM_COMPONENT_COUNT>  (1) 
1

>  <PUBCHEM_CACTVS_TAUTO_COUNT>  (1) 
3

>  <PUBCHEM_CONFORMER_ID>  (1) 
000088D900000001

>  <PUBCHEM_MMFF94_ENERGY>  (1) 
73.1627

>  <PUBCHEM_FEATURE_SELFOVERLAP>  (1) 
25.373

>  <PUBCHEM_SHAPE_FINGERPRINT>  (1) 
10498660 4 17762057640270381486
1100329 8 17837500656422623313
12422481 6 18193809675215975704
12592029 89 18191032403048572443
13140716 1 18338527343791798779
14022349 108 18411144632240161665
14931854 50 18337686226118347694
14955137 171 17694535575195127633
15006816 218 18338800129559247316
16752209 62 17761489592517580405
17093844 170 18337391647096741468
17357779 13 18125704700118761215
17492 54 18188793668646707958
18336668 15 18115031788688801766
19591789 44 17041481090423159355
20642791 178 18118140090406473093
20691752 17 17603869975101757497
20715895 44 16021967115137515813
20905425 154 18340774818188392566
21421861 104 18198644149933099409
23419403 2 17824519925255502807
23557571 272 17983018851748517038
350125 39 18265901263857279609
5265222 85 17833561467934633012
5939293 188 18339919299447463930
59755656 215 18194398021200605047
6287921 2 18059852814243585310
6443956 14 18339923710310798881
70251023 43 15388925422240194165
7364860 26 18342457041082864993
81228 2 17691981357917609211
90525 40 17901951064546754641
9925002 15 17771875445888450199

>  <PUBCHEM_SHAPE_MULTIPOLES>  (1) 
445.41
7.31
4.24
1.14
4.9
0.04
0
-0.09
0
-3.45
0
-0.68
0
0

>  <PUBCHEM_SHAPE_SELFOVERLAP>  (1) 
956.056

>  <PUBCHEM_SHAPE_VOLUME>  (1) 
245.7

>  <PUBCHEM_COORDINATE_TYPE>  (1) 
2
5
10

$$$$
