35031
     RDKit          3D

 23 25  0  0  0  0  0  0  0  0999 V2000
    0.2950    2.2513    2.4958 Cl  0  0  0  0  0  0  0  0  0  0  0  0
    0.2631   -2.2483    2.4972 Cl  0  0  0  0  0  0  0  0  0  0  0  0
   -1.0110    2.3150   -0.2114 O   0  0  0  0  0  0  0  0  0  0  0  0
   -1.0429   -2.3110   -0.2099 O   0  0  0  0  0  0  0  0  0  0  0  0
   -0.9773    0.0016   -0.2130 N   0  0  0  0  0  0  0  0  0  0  0  0
   -3.0635   -1.1839   -0.1940 N   0  0  0  0  0  0  0  0  0  0  0  0
   -3.0469    1.2157   -0.1948 N   0  0  0  0  0  0  0  0  0  0  0  0
   -5.0701    0.0297   -0.1763 N   0  0  0  0  0  0  0  0  0  0  0  0
    0.3506    2.2488   -0.2237 C   0  0  0  0  0  0  0  0  0  0  0  0
    0.3340   -2.2525   -0.2224 C   0  0  0  0  0  0  0  0  0  0  0  0
    1.0838    2.2118    0.9623 C   0  0  0  0  0  0  0  0  0  0  0  0
    1.0525   -2.2201    0.9637 C   0  0  0  0  0  0  0  0  0  0  0  0
    1.0098    2.2164   -1.4526 C   0  0  0  0  0  0  0  0  0  0  0  0
    0.9785   -2.2288   -1.4511 C   0  0  0  0  0  0  0  0  0  0  0  0
   -1.7113    1.1215   -0.2070 C   0  0  0  0  0  0  0  0  0  0  0  0
   -1.7224   -1.1154   -0.2062 C   0  0  0  0  0  0  0  0  0  0  0  0
    2.4764    2.1425    0.9193 C   0  0  0  0  0  0  0  0  0  0  0  0
    2.4456   -2.1624    0.9207 C   0  0  0  0  0  0  0  0  0  0  0  0
    2.4023    2.1471   -1.4954 C   0  0  0  0  0  0  0  0  0  0  0  0
    2.3715   -2.1712   -1.4940 C   0  0  0  0  0  0  0  0  0  0  0  0
    3.1356    2.1102   -0.3095 C   0  0  0  0  0  0  0  0  0  0  0  0
    3.1050   -2.1380   -0.3083 C   0  0  0  0  0  0  0  0  0  0  0  0
   -3.6582    0.0201   -0.1891 C   0  0  0  0  0  0  0  0  0  0  0  0
  1 11  1  0
  2 12  1  0
  3  9  1  0
  3 15  1  0
  4 10  1  0
  4 16  1  0
  5 15  2  0
  5 16  1  0
  6 16  2  0
  6 23  1  0
  7 15  1  0
  7 23  2  0
  8 23  1  0
  9 11  2  0
  9 13  1  0
 10 12  2  0
 10 14  1  0
 11 17  1  0
 12 18  1  0
 13 19  2  0
 14 20  2  0
 17 21  2  0
 18 22  2  0
 19 21  1  0
 20 22  1  0
M  END
>  <PUBCHEM_COMPOUND_CID>  (1) 
35031

>  <PUBCHEM_CONFORMER_RMSD>  (1) 
0.8

>  <PUBCHEM_CONFORMER_DIVERSEORDER>  (1) 
1
107
36
88
84
103
33
5
53
80
3
83
41
89
106
4
96
10
77
2
108
86
37
38
75
9
17
78
71
70
47
97
90
111
55
95
76
25
66
91
39
6
93
73
105
101
16
85
14
81
26
42
44
62
72
51
15
19
63
102
69
104
24
82
50
12
46
29
18
92
98
28
59
45
20
94
21
52
64
22
79
34
74
109
100
60
11
65
32
110
57
35
49
68
40
7
13
27
8
31
67
43
99
87
30
56
61
23
54
48
58

>  <PUBCHEM_MMFF94_PARTIAL_CHARGES>  (1) 
33
1 -0.18
10 0.08
11 0.18
12 0.18
13 -0.15
14 -0.15
15 0.7
16 0.7
17 -0.15
18 -0.15
19 -0.15
2 -0.18
20 -0.15
21 -0.15
22 -0.15
23 0.72
24 0.15
25 0.15
26 0.15
27 0.15
28 0.15
29 0.15
3 -0.17
30 0.15
31 0.15
32 0.4
33 0.4
4 -0.17
5 -0.62
6 -0.62
7 -0.62
8 -0.9
9 0.08

>  <PUBCHEM_EFFECTIVE_ROTOR_COUNT>  (1) 
4

>  <PUBCHEM_PHARMACOPHORE_FEATURES>  (1) 
5
1 8 donor
4 6 7 8 23 cation
6 10 12 14 18 20 22 rings
6 5 6 7 15 16 23 rings
6 9 11 13 17 19 21 rings

>  <PUBCHEM_HEAVY_ATOM_COUNT>  (1) 
23

>  <PUBCHEM_ATOM_DEF_STEREO_COUNT>  (1) 
0

>  <PUBCHEM_ATOM_UDEF_STEREO_COUNT>  (1) 
0

>  <PUBCHEM_BOND_DEF_STEREO_COUNT>  (1) 
0

>  <PUBCHEM_BOND_UDEF_STEREO_COUNT>  (1) 
0

>  <PUBCHEM_ISOTOPIC_ATOM_COUNT>  (1) 
0

>  <PUBCHEM_COMPONENT_COUNT>  (1) 
1

>  <PUBCHEM_CACTVS_TAUTO_COUNT>  (1) 
3

>  <PUBCHEM_CONFORMER_ID>  (1) 
000088D700000001

>  <PUBCHEM_MMFF94_ENERGY>  (1) 
74.4282

>  <PUBCHEM_FEATURE_SELFOVERLAP>  (1) 
25.373

>  <PUBCHEM_SHAPE_FINGERPRINT>  (1) 
10498660 4 17618225001028968606
107951 10 17678463193377373642
1100329 8 17839193913256936569
12156800 1 11925257485363308082
12422481 6 18194088929515265736
12592029 89 18190467249729390427
13140716 1 18410580544157362507
133893 2 18262812782548905713
14022349 108 18410860962514057121
14955137 171 17694534475662407249
16752209 62 17688299510161647111
17492 54 18116172016527448694
20600515 1 17691387634201570184
20645476 183 17317881708900974893
20691752 17 17676205779967631455
20715895 44 15229050959056051140
20905425 154 18341335569081628694
21421861 104 18127993939495207897
23419403 2 17684418049184318675
23557571 272 17551500055581837046
23728640 28 17546999089180362786
35225 105 17107042726682034718
5265222 85 17834401494797161236
57527585 103 17396197491876906518
59755656 215 18121778598280291551
70251023 43 15316867823886264981
7364860 26 18343581845693932535
81228 2 17620767080608010851
90525 40 17828765380100084996
9925002 15 17699533069791165782

>  <PUBCHEM_SHAPE_MULTIPOLES>  (1) 
445.41
5.32
4.33
1.82
5.89
0.06
1.07
-0.11
-1.26
-3.19
0.36
-0.97
0.01
0.01

>  <PUBCHEM_SHAPE_SELFOVERLAP>  (1) 
957.714

>  <PUBCHEM_SHAPE_VOLUME>  (1) 
243.8

>  <PUBCHEM_COORDINATE_TYPE>  (1) 
2
5
10

$$$$
