35037
     RDKit          3D

 18 18  0  0  0  0  0  0  0  0999 V2000
   -0.8406   -3.1113   -1.4653 Cl  0  0  0  0  0  0  0  0  0  0  0  0
    1.6343   -3.2519    0.0049 Cl  0  0  0  0  0  0  0  0  0  0  0  0
   -0.8524   -3.1045    1.4613 Cl  0  0  0  0  0  0  0  0  0  0  0  0
   -3.9562   -0.0392   -0.0028 O   0  0  0  0  0  0  0  0  0  0  0  0
    3.9642   -0.0377    0.0005 O   0  0  0  0  0  0  0  0  0  0  0  0
   -2.3336    1.6687   -0.0009 N   0  0  0  0  0  0  0  0  0  0  0  0
    2.3406    1.6695    0.0011 N   0  0  0  0  0  0  0  0  0  0  0  0
    1.2039   -0.3730    0.0012 N   0  0  0  0  0  0  0  0  0  0  0  0
   -1.1957   -0.3735    0.0002 N   0  0  0  0  0  0  0  0  0  0  0  0
    0.0037    1.7048    0.0012 N   0  0  0  0  0  0  0  0  0  0  0  0
    0.0044   -0.9763    0.0005 C   0  0  0  0  0  0  0  0  0  0  0  0
   -1.1183    0.9671    0.0005 C   0  0  0  0  0  0  0  0  0  0  0  0
    1.1259    0.9676    0.0013 C   0  0  0  0  0  0  0  0  0  0  0  0
    0.0049   -2.4670    0.0005 C   0  0  0  0  0  0  0  0  0  0  0  0
   -3.6270    1.1426   -0.0023 C   0  0  0  0  0  0  0  0  0  0  0  0
    3.6346    1.1441    0.0007 C   0  0  0  0  0  0  0  0  0  0  0  0
   -4.6677    2.2341    0.0012 C   0  0  0  0  0  0  0  0  0  0  0  0
    4.6749    2.2359   -0.0041 C   0  0  0  0  0  0  0  0  0  0  0  0
  1 14  1  0
  2 14  1  0
  3 14  1  0
  4 15  2  0
  5 16  2  0
  6 12  1  0
  6 15  1  0
  7 13  1  0
  7 16  1  0
  8 11  2  0
  8 13  1  0
  9 11  1  0
  9 12  2  0
 10 12  1  0
 10 13  2  0
 11 14  1  0
 15 17  1  0
 16 18  1  0
M  END
>  <PUBCHEM_COMPOUND_CID>  (1) 
35037

>  <PUBCHEM_CONFORMER_RMSD>  (1) 
0.6

>  <PUBCHEM_CONFORMER_DIVERSEORDER>  (1) 
1
12
6
21
19
22
20
4
16
14
11
9
10
17
23
18
24
5
25
15
26
13
27
8
28
7
3
2

>  <PUBCHEM_MMFF94_PARTIAL_CHARGES>  (1) 
20
1 -0.29
10 -0.62
11 0.48
12 0.74
13 0.74
14 1.01
15 0.57
16 0.57
17 0.06
18 0.06
19 0.37
2 -0.29
20 0.37
3 -0.29
4 -0.57
5 -0.57
6 -0.55
7 -0.55
8 -0.62
9 -0.62

>  <PUBCHEM_EFFECTIVE_ROTOR_COUNT>  (1) 
5

>  <PUBCHEM_PHARMACOPHORE_FEATURES>  (1) 
6
1 4 acceptor
1 5 acceptor
1 6 donor
1 7 donor
3 8 9 11 cation
6 8 9 10 11 12 13 rings

>  <PUBCHEM_HEAVY_ATOM_COUNT>  (1) 
18

>  <PUBCHEM_ATOM_DEF_STEREO_COUNT>  (1) 
0

>  <PUBCHEM_ATOM_UDEF_STEREO_COUNT>  (1) 
0

>  <PUBCHEM_BOND_DEF_STEREO_COUNT>  (1) 
0

>  <PUBCHEM_BOND_UDEF_STEREO_COUNT>  (1) 
0

>  <PUBCHEM_ISOTOPIC_ATOM_COUNT>  (1) 
0

>  <PUBCHEM_COMPONENT_COUNT>  (1) 
1

>  <PUBCHEM_CACTVS_TAUTO_COUNT>  (1) 
10

>  <PUBCHEM_CONFORMER_ID>  (1) 
000088DD00000001

>  <PUBCHEM_MMFF94_ENERGY>  (1) 
35.4585

>  <PUBCHEM_FEATURE_SELFOVERLAP>  (1) 
30.446

>  <PUBCHEM_SHAPE_FINGERPRINT>  (1) 
10411042 1 17402049998375673831
10922049 32 18411141333161939565
10967382 1 18338797819077715170
1100329 8 18264483997300242018
11680986 33 18337122176258217530
12500047 106 18269271425757111888
12532896 13 18409449215106038998
12553582 1 17257380064250227670
12592029 89 18336548209618210650
12788726 201 18050835921337406146
13140716 1 18263648372704812907
13380535 76 18409168813591531978
14178342 30 18047737485228783096
14790565 3 18411143540844805808
15906896 17 18265895946059831383
16752209 62 18123744516153447634
17539 30 17840859999405169838
19591789 44 18411981381541775319
19784866 9 18340204064485596993
204376 136 18410014346686887065
20602899 9 16271937046637718822
20645476 183 17896339067299503436
20645477 70 18123463887606950541
21524375 3 18410572877060464273
22182313 1 18196680529355314342
2255824 54 18124876751047238191
23402539 116 18272644666811158204
23419403 2 17756751521772265610
23557571 272 17983308307180528668
23558518 356 17682959156563909200
23559900 14 18050843321565706203
2748010 2 18267047044402558686
298252 57 18409166636048420552
3071541 12 18123192303164468785
3071541 37 18264213521391287236
3091708 16 9192969960684654643
352729 6 18265905820073405380
366044 4 18410011052409937377
3759504 43 18261675973124229948
394222 165 18264766571550483019
42630746 31 18269272370290831085
474229 33 18337955700866833115
53917941 68 18196068131485534477
54173680 148 17975698608067253315
6138700 20 18122913032287131726
633830 44 18271525303791675853
69090 78 18410290345791135944
7364860 26 18124595280175421903
81228 2 17832124392533829105
81539 233 18263079937988353685
8272917 22 18196656185965834213
9709674 26 18270686505911714524

>  <PUBCHEM_SHAPE_MULTIPOLES>  (1) 
339.4
7.25
4.26
0.87
0.29
3.8
0
-8.47
0
0.08
0
-0.24
0.89
0

>  <PUBCHEM_SHAPE_SELFOVERLAP>  (1) 
665.242

>  <PUBCHEM_SHAPE_VOLUME>  (1) 
201.5

>  <PUBCHEM_COORDINATE_TYPE>  (1) 
2
5
10

$$$$
