35035
     RDKit          3D

 11 11  0  0  0  0  0  0  0  0999 V2000
    1.9650   -1.9909    0.3271 S   0  0  0  0  0  0  0  0  0  0  0  0
   -0.2369    2.4641   -0.0210 O   0  0  0  0  0  0  0  0  0  0  0  0
    0.7460    0.3756    0.1379 N   0  0  0  0  0  0  0  0  0  0  0  0
   -0.6578   -1.5693    0.0715 N   0  0  0  0  0  0  0  0  0  0  0  0
   -1.6304    0.6184   -0.0894 N   0  0  0  0  0  0  0  0  0  0  0  0
   -2.9765   -1.3007   -0.1506 N   0  0  0  0  0  0  0  0  0  0  0  0
    0.5300   -0.9494    0.1609 C   0  0  0  0  0  0  0  0  0  0  0  0
   -0.3796    1.0966    0.0105 C   0  0  0  0  0  0  0  0  0  0  0  0
   -1.6925   -0.7225   -0.0516 C   0  0  0  0  0  0  0  0  0  0  0  0
    3.2456   -0.9888   -0.4802 C   0  0  0  0  0  0  0  0  0  0  0  0
    1.0872    2.9670    0.0849 C   0  0  0  0  0  0  0  0  0  0  0  0
  1  7  1  0
  1 10  1  0
  2  8  1  0
  2 11  1  0
  3  7  2  0
  3  8  1  0
  4  7  1  0
  4  9  2  0
  5  8  2  0
  5  9  1  0
  6  9  1  0
M  END
>  <PUBCHEM_COMPOUND_CID>  (1) 
35035

>  <PUBCHEM_CONFORMER_RMSD>  (1) 
0.4

>  <PUBCHEM_CONFORMER_DIVERSEORDER>  (1) 
1
3
6
5
9
2
8
7
4

>  <PUBCHEM_MMFF94_PARTIAL_CHARGES>  (1) 
13
1 -0.33
10 0.23
11 0.28
18 0.4
19 0.4
2 -0.36
3 -0.62
4 -0.62
5 -0.62
6 -0.9
7 0.72
8 0.7
9 0.72

>  <PUBCHEM_EFFECTIVE_ROTOR_COUNT>  (1) 
2

>  <PUBCHEM_PHARMACOPHORE_FEATURES>  (1) 
4
1 10 hydrophobe
1 6 donor
4 4 5 6 9 cation
6 3 4 5 7 8 9 rings

>  <PUBCHEM_HEAVY_ATOM_COUNT>  (1) 
11

>  <PUBCHEM_ATOM_DEF_STEREO_COUNT>  (1) 
0

>  <PUBCHEM_ATOM_UDEF_STEREO_COUNT>  (1) 
0

>  <PUBCHEM_BOND_DEF_STEREO_COUNT>  (1) 
0

>  <PUBCHEM_BOND_UDEF_STEREO_COUNT>  (1) 
0

>  <PUBCHEM_ISOTOPIC_ATOM_COUNT>  (1) 
0

>  <PUBCHEM_COMPONENT_COUNT>  (1) 
1

>  <PUBCHEM_CACTVS_TAUTO_COUNT>  (1) 
4

>  <PUBCHEM_CONFORMER_ID>  (1) 
000088DB00000001

>  <PUBCHEM_MMFF94_ENERGY>  (1) 
29.8363

>  <PUBCHEM_FEATURE_SELFOVERLAP>  (1) 
20.297

>  <PUBCHEM_SHAPE_FINGERPRINT>  (1) 
1 1 17834391598347667429
100427 49 18411693288062393152
12716758 59 17549819984850939042
13380535 76 17544748392688190059
16945 1 18266455597530831003
193761 8 18410571812204409209
20645477 70 18050554438335620743
20871998 184 18057038012852475375
21040471 1 17114094470102382802
23552423 10 18194960970647461551
241688 4 18338794507478582355
2748010 2 18339627975904930757
3071541 12 18267024036579239013
3071541 250 18338812202786169566
7364860 26 18197498647599695403
81228 2 18124308303187356259

>  <PUBCHEM_SHAPE_MULTIPOLES>  (1) 
204.43
3.54
3.05
0.63
2.74
2.53
0
-1.8
-0.42
-1.26
0.1
0.16
-0.02
-0.21

>  <PUBCHEM_SHAPE_SELFOVERLAP>  (1) 
399.077

>  <PUBCHEM_SHAPE_VOLUME>  (1) 
126

>  <PUBCHEM_COORDINATE_TYPE>  (1) 
2
5
10

$$$$
