35045
     RDKit          3D

 15 15  0  0  0  0  0  0  0  0999 V2000
    1.1626   -3.2099    1.6269 Br  0  0  0  0  0  0  0  0  0  0  0  0
    1.1693   -3.2138   -1.6217 Br  0  0  0  0  0  0  0  0  0  0  0  0
   -2.6328    1.1457   -0.0064 N   0  0  0  0  0  0  0  0  0  0  0  0
    2.0128    1.7876    0.0053 N   0  0  0  0  0  0  0  0  0  0  0  0
   -0.3142    1.4980   -0.0023 N   0  0  0  0  0  0  0  0  0  0  0  0
    1.1587   -0.3963    0.0010 N   0  0  0  0  0  0  0  0  0  0  0  0
   -1.2183   -0.7247   -0.0051 N   0  0  0  0  0  0  0  0  0  0  0  0
   -3.8270    0.3367   -0.0075 C   0  0  0  0  0  0  0  0  0  0  0  0
    3.3620    1.3154    0.0104 C   0  0  0  0  0  0  0  0  0  0  0  0
   -1.3484    0.6235   -0.0052 C   0  0  0  0  0  0  0  0  0  0  0  0
    0.8982    0.9210    0.0005 C   0  0  0  0  0  0  0  0  0  0  0  0
    0.0527   -1.1578   -0.0020 C   0  0  0  0  0  0  0  0  0  0  0  0
   -5.0579    1.2225    0.0137 C   0  0  0  0  0  0  0  0  0  0  0  0
    4.3254    2.4867   -0.0076 C   0  0  0  0  0  0  0  0  0  0  0  0
    0.2568   -2.6346    0.0001 C   0  0  0  0  0  0  0  0  0  0  0  0
  1 15  1  0
  2 15  1  0
  3  8  1  0
  3 10  1  0
  4  9  1  0
  4 11  1  0
  5 10  2  0
  5 11  1  0
  6 11  2  0
  6 12  1  0
  7 10  1  0
  7 12  2  0
  8 13  1  0
  9 14  1  0
 12 15  1  0
M  END
>  <PUBCHEM_COMPOUND_CID>  (1) 
35045

>  <PUBCHEM_CONFORMER_RMSD>  (1) 
0.6

>  <PUBCHEM_CONFORMER_DIVERSEORDER>  (1) 
1
13
16
46
40
28
9
50
38
6
31
35
7
15
4
23
19
8
21
3
12
27
41
39
42
14
43
48
17
20
30
45
29
2
49
34
37
11
36
47
22
26
24
33
5
32
25
18
44
10

>  <PUBCHEM_MMFF94_PARTIAL_CHARGES>  (1) 
15
1 -0.23
10 0.72
11 0.72
12 0.48
15 0.6
2 -0.23
20 0.4
21 0.4
3 -0.87
4 -0.87
5 -0.62
6 -0.62
7 -0.62
8 0.37
9 0.37

>  <PUBCHEM_EFFECTIVE_ROTOR_COUNT>  (1) 
5

>  <PUBCHEM_PHARMACOPHORE_FEATURES>  (1) 
8
1 1 hydrophobe
1 2 hydrophobe
1 3 donor
1 4 donor
3 1 2 15 hydrophobe
4 3 5 7 10 cation
4 4 5 6 11 cation
6 5 6 7 10 11 12 rings

>  <PUBCHEM_HEAVY_ATOM_COUNT>  (1) 
15

>  <PUBCHEM_ATOM_DEF_STEREO_COUNT>  (1) 
0

>  <PUBCHEM_ATOM_UDEF_STEREO_COUNT>  (1) 
0

>  <PUBCHEM_BOND_DEF_STEREO_COUNT>  (1) 
0

>  <PUBCHEM_BOND_UDEF_STEREO_COUNT>  (1) 
0

>  <PUBCHEM_ISOTOPIC_ATOM_COUNT>  (1) 
0

>  <PUBCHEM_COMPONENT_COUNT>  (1) 
1

>  <PUBCHEM_CACTVS_TAUTO_COUNT>  (1) 
5

>  <PUBCHEM_CONFORMER_ID>  (1) 
000088E500000001

>  <PUBCHEM_MMFF94_ENERGY>  (1) 
30.1881

>  <PUBCHEM_FEATURE_SELFOVERLAP>  (1) 
41.911

>  <PUBCHEM_SHAPE_FINGERPRINT>  (1) 
107951 10 18115039622825694086
11357001 24 17685779420947418842
12500047 106 18126564750773360176
12532896 13 18336547243493285110
12553582 1 17617950127976485587
12592029 89 18334010562656628568
12644460 14 18263086517925613857
12788726 201 17688861356335146194
13083527 12 18045761430356555987
13380535 76 18410857697811397767
15906896 17 17977102684532207998
17539 30 17481417601218408838
204376 136 18336830891518128489
20524608 308 18054510485170991220
20600515 1 17186702932366520520
20645476 183 17824276010194991764
20645477 70 18340483345224077567
20711985 344 17618206743397436186
20871998 184 17837503212413006334
20871998 22 17766275375849826895
21499 59 18411131467986369621
21524375 3 18338794623426972116
23402539 116 18200588219460926532
23419403 2 17689207474569437722
23558518 356 17689141736032106984
23598288 3 17758408752652735332
2748010 2 18266198264454638438
3071541 12 18197224637250005293
3071541 250 17981899539993984703
3071541 37 18334861580208708493
3091708 16 9261933533196806883
3250762 1 17609479545582048933
33824 294 18408605838458981723
366044 4 18338234972019256505
3759504 43 18115309028310923368
474229 33 18266462203528168411
559249 180 18337951316232906852
5902787 121 17830451683503769371
6138700 20 18267592312920004678
7364860 26 18270683043508827183
81228 2 17473526423150070241
81539 233 18335137579223358165
9841814 1 17974853869815642035

>  <PUBCHEM_SHAPE_MULTIPOLES>  (1) 
295.67
6.67
4.13
1.08
7.39
2.88
0
-7
0.01
-4.92
0
-0.64
1.48
0

>  <PUBCHEM_SHAPE_SELFOVERLAP>  (1) 
557.712

>  <PUBCHEM_SHAPE_VOLUME>  (1) 
187.7

>  <PUBCHEM_COORDINATE_TYPE>  (1) 
2
5
10

$$$$
