35041
     RDKit          3D

 16 17  0  0  0  0  0  0  0  0999 V2000
   -2.5729    3.3005   -0.7817 Br  0  0  0  0  0  0  0  0  0  0  0  0
    0.7178   -1.2468   -0.2454 N   0  0  0  0  0  0  0  0  0  0  0  0
   -0.7904    0.4689    0.2841 N   0  0  0  0  0  0  0  0  0  0  0  0
   -1.5761   -1.7335   -0.2540 N   0  0  0  0  0  0  0  0  0  0  0  0
   -3.1440    0.0021    0.2819 N   0  0  0  0  0  0  0  0  0  0  0  0
   -3.8823   -2.1593   -0.2496 N   0  0  0  0  0  0  0  0  0  0  0  0
    1.9588   -0.5856   -0.1364 C   0  0  0  0  0  0  0  0  0  0  0  0
   -0.6110   -0.8174   -0.0628 C   0  0  0  0  0  0  0  0  0  0  0  0
    3.0974   -1.2967    0.2430 C   0  0  0  0  0  0  0  0  0  0  0  0
    2.0476    0.7798   -0.4078 C   0  0  0  0  0  0  0  0  0  0  0  0
   -2.0807    0.8068    0.4389 C   0  0  0  0  0  0  0  0  0  0  0  0
    4.3245   -0.6424    0.3514 C   0  0  0  0  0  0  0  0  0  0  0  0
    3.2748    1.4340   -0.2996 C   0  0  0  0  0  0  0  0  0  0  0  0
    4.4132    0.7228    0.0800 C   0  0  0  0  0  0  0  0  0  0  0  0
   -2.8156   -1.2531   -0.0642 C   0  0  0  0  0  0  0  0  0  0  0  0
   -2.3613    2.2199    0.8223 C   0  0  0  0  0  0  0  0  0  0  0  0
  1 16  1  0
  2  7  1  0
  2  8  1  0
  3  8  2  0
  3 11  1  0
  4  8  1  0
  4 15  2  0
  5 11  2  0
  5 15  1  0
  6 15  1  0
  7  9  2  0
  7 10  1  0
  9 12  1  0
 10 13  2  0
 11 16  1  0
 12 14  2  0
 13 14  1  0
M  END
>  <PUBCHEM_COMPOUND_CID>  (1) 
35041

>  <PUBCHEM_CONFORMER_RMSD>  (1) 
0.6

>  <PUBCHEM_CONFORMER_DIVERSEORDER>  (1) 
1
23
7
27
5
14
16
22
11
6
15
26
12
10
25
18
4
9
2
21
20
17
24
13
19
3
8

>  <PUBCHEM_MMFF94_PARTIAL_CHARGES>  (1) 
24
1 -0.23
10 -0.15
11 0.48
12 -0.15
13 -0.15
14 -0.15
15 0.72
16 0.37
17 0.4
18 0.15
19 0.15
2 -0.6
20 0.15
21 0.15
22 0.15
25 0.4
26 0.4
3 -0.62
4 -0.62
5 -0.62
6 -0.9
7 0.1
8 0.72
9 -0.15

>  <PUBCHEM_EFFECTIVE_ROTOR_COUNT>  (1) 
3

>  <PUBCHEM_PHARMACOPHORE_FEATURES>  (1) 
7
1 1 hydrophobe
1 2 donor
1 6 donor
4 2 3 4 8 cation
4 4 5 6 15 cation
6 3 4 5 8 11 15 rings
6 7 9 10 12 13 14 rings

>  <PUBCHEM_HEAVY_ATOM_COUNT>  (1) 
16

>  <PUBCHEM_ATOM_DEF_STEREO_COUNT>  (1) 
0

>  <PUBCHEM_ATOM_UDEF_STEREO_COUNT>  (1) 
0

>  <PUBCHEM_BOND_DEF_STEREO_COUNT>  (1) 
0

>  <PUBCHEM_BOND_UDEF_STEREO_COUNT>  (1) 
0

>  <PUBCHEM_ISOTOPIC_ATOM_COUNT>  (1) 
0

>  <PUBCHEM_COMPONENT_COUNT>  (1) 
1

>  <PUBCHEM_CACTVS_TAUTO_COUNT>  (1) 
9

>  <PUBCHEM_CONFORMER_ID>  (1) 
000088E100000001

>  <PUBCHEM_MMFF94_ENERGY>  (1) 
50.9661

>  <PUBCHEM_FEATURE_SELFOVERLAP>  (1) 
35.564

>  <PUBCHEM_SHAPE_FINGERPRINT>  (1) 
10608611 8 18412825759533124648
10646746 165 18272370854567332096
10670039 82 18190757504094982684
11045515 52 18189045577121280959
12107183 9 17831009136062348730
12162725 195 18409451405639541186
12403814 3 18408895014365172217
13296909 8 18334576815366404493
14144814 61 18410294713925681482
14614273 12 18342463599693156853
15196674 1 18411983563907219208
15442244 35 18337671889496686610
1741750 31 18129104411736812481
17492 89 18411138013369530514
17802600 8 18342172301920654904
17834072 32 18194120707488275045
18186145 218 18128827343538744612
19050596 39 18411141354789971466
200 152 18338508746351740207
20510252 161 18272375277861381835
20645477 56 18268156366030966353
21267235 1 18339370746530744182
21524375 3 17900266299659455113
21652331 79 18340207504601062696
22182937 141 18199193897236115489
2306618 200 18201444653430322081
23402539 116 18271519896870857783
23557571 272 18059585680025305141
23559900 14 17986673658922730334
4214541 1 18411982425603670760
474 4 17605840450589882188
5104073 3 18411981352004402402
7097593 13 18044648694704181178
7832392 63 18265332816033950408
9709674 26 18412271644370207422

>  <PUBCHEM_SHAPE_MULTIPOLES>  (1) 
310.31
8.23
2.86
0.76
5.28
1.49
0.02
0.61
0.29
-3.65
-0.51
-0.23
0.26
-0.22

>  <PUBCHEM_SHAPE_SELFOVERLAP>  (1) 
643.374

>  <PUBCHEM_SHAPE_VOLUME>  (1) 
181.5

>  <PUBCHEM_COORDINATE_TYPE>  (1) 
2
5
10

$$$$
