35046
     RDKit          3D

 14 14  0  0  0  0  0  0  0  0999 V2000
   -3.6054   -0.4235    0.9363 Br  0  0  0  0  0  0  0  0  0  0  0  0
   -2.4652   -1.5840   -1.8777 Br  0  0  0  0  0  0  0  0  0  0  0  0
   -1.5141   -2.8312    0.8997 Br  0  0  0  0  0  0  0  0  0  0  0  0
    2.6070    0.1061    0.0124 N   0  0  0  0  0  0  0  0  0  0  0  0
    0.3444   -0.5103    0.0050 N   0  0  0  0  0  0  0  0  0  0  0  0
    0.9870    1.8015    0.0034 N   0  0  0  0  0  0  0  0  0  0  0  0
   -1.3365    1.2020   -0.0025 N   0  0  0  0  0  0  0  0  0  0  0  0
   -0.6784    3.4528   -0.0022 N   0  0  0  0  0  0  0  0  0  0  0  0
    3.0580   -1.2640    0.0177 C   0  0  0  0  0  0  0  0  0  0  0  0
    1.2712    0.4774    0.0061 C   0  0  0  0  0  0  0  0  0  0  0  0
   -0.9263   -0.0766    0.0005 C   0  0  0  0  0  0  0  0  0  0  0  0
    4.5738   -1.3148    0.0015 C   0  0  0  0  0  0  0  0  0  0  0  0
   -0.3254    2.0857   -0.0011 C   0  0  0  0  0  0  0  0  0  0  0  0
   -1.9902   -1.1211    0.0009 C   0  0  0  0  0  0  0  0  0  0  0  0
  1 14  1  0
  2 14  1  0
  3 14  1  0
  4  9  1  0
  4 10  1  0
  5 10  2  0
  5 11  1  0
  6 10  1  0
  6 13  2  0
  7 11  2  0
  7 13  1  0
  8 13  1  0
  9 12  1  0
 11 14  1  0
M  END
>  <PUBCHEM_COMPOUND_CID>  (1) 
35046

>  <PUBCHEM_CONFORMER_RMSD>  (1) 
0.6

>  <PUBCHEM_CONFORMER_DIVERSEORDER>  (1) 
1
10
12
7
2
3
6
11
4
5
9
8

>  <PUBCHEM_MMFF94_PARTIAL_CHARGES>  (1) 
16
1 -0.23
10 0.72
11 0.48
13 0.72
14 0.83
17 0.4
2 -0.23
21 0.4
22 0.4
3 -0.23
4 -0.87
5 -0.62
6 -0.62
7 -0.62
8 -0.9
9 0.37

>  <PUBCHEM_EFFECTIVE_ROTOR_COUNT>  (1) 
3

>  <PUBCHEM_PHARMACOPHORE_FEATURES>  (1) 
9
1 1 hydrophobe
1 2 hydrophobe
1 3 hydrophobe
1 4 donor
1 8 donor
4 1 2 3 14 hydrophobe
4 4 5 6 10 cation
4 6 7 8 13 cation
6 5 6 7 10 11 13 rings

>  <PUBCHEM_HEAVY_ATOM_COUNT>  (1) 
14

>  <PUBCHEM_ATOM_DEF_STEREO_COUNT>  (1) 
0

>  <PUBCHEM_ATOM_UDEF_STEREO_COUNT>  (1) 
0

>  <PUBCHEM_BOND_DEF_STEREO_COUNT>  (1) 
0

>  <PUBCHEM_BOND_UDEF_STEREO_COUNT>  (1) 
0

>  <PUBCHEM_ISOTOPIC_ATOM_COUNT>  (1) 
0

>  <PUBCHEM_COMPONENT_COUNT>  (1) 
1

>  <PUBCHEM_CACTVS_TAUTO_COUNT>  (1) 
9

>  <PUBCHEM_CONFORMER_ID>  (1) 
000088E600000001

>  <PUBCHEM_MMFF94_ENERGY>  (1) 
33.9187

>  <PUBCHEM_FEATURE_SELFOVERLAP>  (1) 
46.662

>  <PUBCHEM_SHAPE_FINGERPRINT>  (1) 
11357001 24 18265052435973213584
12553582 1 18409445895196890282
14115302 16 17895486902469383007
14178342 30 17836642298655006531
15279308 51 18201157784032683551
15442244 35 18267594670445216667
16945 1 17834674173015412181
17841504 4 18121226642862619835
20510252 161 18197499532700705376
20524608 308 18054505812125331868
20645476 183 17537754021704739030
20645477 70 17615395300840186447
20711985 344 18265880393972274456
20711985 365 18335987480178926036
20871998 184 18199469865900637572
21339142 126 18270959046644526686
21524375 3 17691399711797637244
22959321 94 18261107457336584498
23402539 116 18341325613458498351
23526113 38 17974263693922223143
23552423 10 17836088149384862869
23557571 272 18200043837536667100
23559900 14 18338791227094265226
23598291 2 17986958637964728183
23598294 1 18190737527562836904
2748010 2 18339633555162673204
57426455 70 18335999605145851187
6338986 31 18199167641921394630
6992083 37 18059583511557385423
7364860 26 17906456876034563128
81228 2 18339072701232439736
8809292 202 18334018315067881378

>  <PUBCHEM_SHAPE_MULTIPOLES>  (1) 
281.04
5.87
3.18
1.11
5.22
1.94
-0.48
-4.26
0.27
-0.25
0.28
-1.28
-0.67
-0.2

>  <PUBCHEM_SHAPE_SELFOVERLAP>  (1) 
522.253

>  <PUBCHEM_SHAPE_VOLUME>  (1) 
181.2

>  <PUBCHEM_COORDINATE_TYPE>  (1) 
2
5
10

$$$$
