35054
     RDKit          3D

 11 11  0  0  1  0  0  0  0  0999 V2000
    2.8839    0.0228   -1.4107 Cl  0  0  0  0  0  0  0  0  0  0  0  0
   -0.2085   -1.3167    0.0199 N   0  0  0  0  0  0  0  0  0  0  0  0
    0.2801    1.0326    0.0378 N   0  0  0  0  0  0  0  0  0  0  0  0
   -1.9980    0.2813   -0.0252 N   0  0  0  0  0  0  0  0  0  0  0  0
   -2.4444   -2.0210   -0.0400 N   0  0  0  0  0  0  0  0  0  0  0  0
   -1.4897    2.5704   -0.0052 N   0  0  0  0  0  0  0  0  0  0  0  0
    2.0850   -0.5685    0.0852 C   0  0  0  0  0  0  0  0  0  0  0  0
    0.6260   -0.2648    0.0445 C   0  0  0  0  0  0  0  0  0  0  0  0
    2.8181    0.0018    1.3061 C   0  0  0  0  0  0  0  0  0  0  0  0
   -1.5047   -0.9675   -0.0145 C   0  0  0  0  0  0  0  0  0  0  0  0
   -1.0477    1.2296    0.0022 C   0  0  0  0  0  0  0  0  0  0  0  0
  1  7  1  0
  2  8  2  0
  2 10  1  0
  3  8  1  0
  3 11  2  0
  4 10  2  0
  4 11  1  0
  5 10  1  0
  6 11  1  0
  7  8  1  0
  7  9  1  0
M  END
>  <PUBCHEM_COMPOUND_CID>  (1) 
35054

>  <PUBCHEM_CONFORMER_RMSD>  (1) 
0.4

>  <PUBCHEM_CONFORMER_DIVERSEORDER>  (1) 
1
3
2

>  <PUBCHEM_MMFF94_PARTIAL_CHARGES>  (1) 
14
1 -0.29
10 0.72
11 0.72
16 0.4
17 0.4
18 0.4
19 0.4
2 -0.62
3 -0.62
4 -0.62
5 -0.9
6 -0.9
7 0.43
8 0.48

>  <PUBCHEM_EFFECTIVE_ROTOR_COUNT>  (1) 
1

>  <PUBCHEM_PHARMACOPHORE_FEATURES>  (1) 
5
1 5 donor
1 6 donor
4 2 4 5 10 cation
4 3 4 6 11 cation
6 2 3 4 8 10 11 rings

>  <PUBCHEM_HEAVY_ATOM_COUNT>  (1) 
11

>  <PUBCHEM_ATOM_DEF_STEREO_COUNT>  (1) 
0

>  <PUBCHEM_ATOM_UDEF_STEREO_COUNT>  (1) 
1

>  <PUBCHEM_BOND_DEF_STEREO_COUNT>  (1) 
0

>  <PUBCHEM_BOND_UDEF_STEREO_COUNT>  (1) 
0

>  <PUBCHEM_ISOTOPIC_ATOM_COUNT>  (1) 
0

>  <PUBCHEM_COMPONENT_COUNT>  (1) 
1

>  <PUBCHEM_CACTVS_TAUTO_COUNT>  (1) 
5

>  <PUBCHEM_CONFORMER_ID>  (1) 
000088EE00000001

>  <PUBCHEM_MMFF94_ENERGY>  (1) 
27.5201

>  <PUBCHEM_FEATURE_SELFOVERLAP>  (1) 
25.415

>  <PUBCHEM_SHAPE_FINGERPRINT>  (1) 
1 1 17329702129120050429
10857977 72 18270389611406507074
12423570 1 12246863485452551510
12716758 59 18198062486774955222
12932741 1 17775283820681558700
12932764 1 17775283859341786158
16945 1 18410573959487181393
18380122 1 17916857045258709042
20645464 45 17917700276156251794
20645477 70 17331678458744259599
20711985 344 18410867559066930415
20871998 184 18273209824308821039
20871998 22 18198348552971842335
21040471 1 18122624955185570392
21930827 45 18199476475887090856
228727 97 17896339075826004374
23552423 10 18115592702210656396
23559900 14 17913210859318722454
241688 4 18338796835614620329
2748010 2 18196082464023126133
29004967 10 16630526237118756522
369184 2 18270385127555504610
5084963 1 18202294588755982462
81228 2 18411981351793320609

>  <PUBCHEM_SHAPE_MULTIPOLES>  (1) 
203.34
4.04
1.91
0.97
1.86
0.63
-0.04
-0.61
-0.19
-1.95
-0.02
1.11
0.02
-0.05

>  <PUBCHEM_SHAPE_SELFOVERLAP>  (1) 
404.584

>  <PUBCHEM_SHAPE_VOLUME>  (1) 
121.1

>  <PUBCHEM_COORDINATE_TYPE>  (1) 
2
5
10

$$$$
