35059
     RDKit          3D

 14 14  0  0  0  0  0  0  0  0999 V2000
    1.6852   -0.8309    2.0519 Cl  0  0  0  0  0  0  0  0  0  0  0  0
    1.8871   -1.9104   -0.6599 Cl  0  0  0  0  0  0  0  0  0  0  0  0
    2.1392    1.2557   -1.8085 Cl  0  0  0  0  0  0  0  0  0  0  0  0
    4.1061    0.3638    0.1230 Cl  0  0  0  0  0  0  0  0  0  0  0  0
   -0.8625   -1.2378   -0.1211 N   0  0  0  0  0  0  0  0  0  0  0  0
   -0.5009    1.0914    0.3284 N   0  0  0  0  0  0  0  0  0  0  0  0
   -2.7214    0.2789   -0.0799 N   0  0  0  0  0  0  0  0  0  0  0  0
   -3.0439   -2.0031   -0.5145 N   0  0  0  0  0  0  0  0  0  0  0  0
   -2.3373    2.5492    0.3637 N   0  0  0  0  0  0  0  0  0  0  0  0
    1.3734   -0.4281    0.2905 C   0  0  0  0  0  0  0  0  0  0  0  0
   -0.0897   -0.1753    0.1569 C   0  0  0  0  0  0  0  0  0  0  0  0
    2.3597    0.7388   -0.1008 C   0  0  0  0  0  0  0  0  0  0  0  0
   -2.1666   -0.9353   -0.2250 C   0  0  0  0  0  0  0  0  0  0  0  0
   -1.8284    1.2431    0.1953 C   0  0  0  0  0  0  0  0  0  0  0  0
  1 10  1  0
  2 10  1  0
  3 12  1  0
  4 12  1  0
  5 11  2  0
  5 13  1  0
  6 11  1  0
  6 14  2  0
  7 13  2  0
  7 14  1  0
  8 13  1  0
  9 14  1  0
 10 11  1  0
 10 12  1  0
M  END
>  <PUBCHEM_COMPOUND_CID>  (1) 
35059

>  <PUBCHEM_CONFORMER_RMSD>  (1) 
0.6

>  <PUBCHEM_CONFORMER_DIVERSEORDER>  (1) 
1
2
6
4
5
3

>  <PUBCHEM_MMFF94_PARTIAL_CHARGES>  (1) 
18
1 -0.29
10 0.72
11 0.48
12 0.58
13 0.72
14 0.72
16 0.4
17 0.4
18 0.4
19 0.4
2 -0.29
3 -0.29
4 -0.29
5 -0.62
6 -0.62
7 -0.62
8 -0.9
9 -0.9

>  <PUBCHEM_EFFECTIVE_ROTOR_COUNT>  (1) 
2

>  <PUBCHEM_PHARMACOPHORE_FEATURES>  (1) 
5
1 8 donor
1 9 donor
4 5 7 8 13 cation
4 6 7 9 14 cation
6 5 6 7 11 13 14 rings

>  <PUBCHEM_HEAVY_ATOM_COUNT>  (1) 
14

>  <PUBCHEM_ATOM_DEF_STEREO_COUNT>  (1) 
0

>  <PUBCHEM_ATOM_UDEF_STEREO_COUNT>  (1) 
0

>  <PUBCHEM_BOND_DEF_STEREO_COUNT>  (1) 
0

>  <PUBCHEM_BOND_UDEF_STEREO_COUNT>  (1) 
0

>  <PUBCHEM_ISOTOPIC_ATOM_COUNT>  (1) 
0

>  <PUBCHEM_COMPONENT_COUNT>  (1) 
1

>  <PUBCHEM_CACTVS_TAUTO_COUNT>  (1) 
5

>  <PUBCHEM_CONFORMER_ID>  (1) 
000088F300000001

>  <PUBCHEM_MMFF94_ENERGY>  (1) 
38.5797

>  <PUBCHEM_FEATURE_SELFOVERLAP>  (1) 
25.415

>  <PUBCHEM_SHAPE_FINGERPRINT>  (1) 
12897270 3 18342460386698903894
12932764 1 16988549208706834407
13380535 21 18200884971588264426
13380536 127 18409439284904209083
13538477 17 18335972104285456393
14648413 74 18196381324937910066
15490181 8 17969523635123215070
15775835 57 18334861567445457192
16945 1 18265912417232602612
20511035 2 17843671175770106815
20525323 117 18409168826476388320
21501502 16 18341610356894791082
21524375 3 17897173626964277348
22802520 49 17773614740281406524
228727 97 18188777287161425073
23402539 116 18340195405725740830
23526113 38 16916790621944712448
23552423 10 18335704901337818871
23557571 272 18060146448272490156
23559900 14 17844249528494330654
23598291 2 18043239163583300386
2748010 2 18270965618139590423
3248919 1 18268696247493332307
353137 74 18115306807696728333
7364860 26 18199469870549376894
77492 1 18113894957742095856
7832392 63 18265623086987859804
81228 2 18342727508485729185

>  <PUBCHEM_SHAPE_MULTIPOLES>  (1) 
270.69
5.36
2.11
1.3
0.71
0.24
0.21
0.4
-0.41
-1.08
-0.26
0.94
-0.09
-1

>  <PUBCHEM_SHAPE_SELFOVERLAP>  (1) 
515.829

>  <PUBCHEM_SHAPE_VOLUME>  (1) 
166.5

>  <PUBCHEM_COORDINATE_TYPE>  (1) 
2
5
10

$$$$
