35057
     RDKit          3D

 12 12  0  0  1  0  0  0  0  0999 V2000
    2.3206   -0.5497   -2.0602 Cl  0  0  0  0  0  0  0  0  0  0  0  0
    2.4899    0.7733    2.0819 Cl  0  0  0  0  0  0  0  0  0  0  0  0
   -0.0016   -1.1014   -0.0136 N   0  0  0  0  0  0  0  0  0  0  0  0
   -0.3559    1.2465   -0.3600 N   0  0  0  0  0  0  0  0  0  0  0  0
   -2.2090   -0.1802    0.1772 N   0  0  0  0  0  0  0  0  0  0  0  0
   -1.8314   -2.4705    0.5120 N   0  0  0  0  0  0  0  0  0  0  0  0
   -2.5242    2.1181   -0.1652 N   0  0  0  0  0  0  0  0  0  0  0  0
    1.8672    0.3277   -0.5518 C   0  0  0  0  0  0  0  0  0  0  0  0
    0.4104    0.1460   -0.2925 C   0  0  0  0  0  0  0  0  0  0  0  0
    2.8109   -0.1286    0.5765 C   0  0  0  0  0  0  0  0  0  0  0  0
   -1.3227   -1.1885    0.2099 C   0  0  0  0  0  0  0  0  0  0  0  0
   -1.6542    1.0073   -0.1141 C   0  0  0  0  0  0  0  0  0  0  0  0
  1  8  1  0
  2 10  1  0
  3  9  2  0
  3 11  1  0
  4  9  1  0
  4 12  2  0
  5 11  2  0
  5 12  1  0
  6 11  1  0
  7 12  1  0
  8  9  1  0
  8 10  1  0
M  END
>  <PUBCHEM_COMPOUND_CID>  (1) 
35057

>  <PUBCHEM_CONFORMER_RMSD>  (1) 
0.6

>  <PUBCHEM_CONFORMER_DIVERSEORDER>  (1) 
1
7
3
4
5
2
6

>  <PUBCHEM_MMFF94_PARTIAL_CHARGES>  (1) 
16
1 -0.29
10 0.29
11 0.72
12 0.72
16 0.4
17 0.4
18 0.4
19 0.4
2 -0.29
3 -0.62
4 -0.62
5 -0.62
6 -0.9
7 -0.9
8 0.43
9 0.48

>  <PUBCHEM_EFFECTIVE_ROTOR_COUNT>  (1) 
2

>  <PUBCHEM_PHARMACOPHORE_FEATURES>  (1) 
5
1 6 donor
1 7 donor
4 3 5 6 11 cation
4 4 5 7 12 cation
6 3 4 5 9 11 12 rings

>  <PUBCHEM_HEAVY_ATOM_COUNT>  (1) 
12

>  <PUBCHEM_ATOM_DEF_STEREO_COUNT>  (1) 
0

>  <PUBCHEM_ATOM_UDEF_STEREO_COUNT>  (1) 
1

>  <PUBCHEM_BOND_DEF_STEREO_COUNT>  (1) 
0

>  <PUBCHEM_BOND_UDEF_STEREO_COUNT>  (1) 
0

>  <PUBCHEM_ISOTOPIC_ATOM_COUNT>  (1) 
0

>  <PUBCHEM_COMPONENT_COUNT>  (1) 
1

>  <PUBCHEM_CACTVS_TAUTO_COUNT>  (1) 
5

>  <PUBCHEM_CONFORMER_ID>  (1) 
000088F100000001

>  <PUBCHEM_MMFF94_ENERGY>  (1) 
29.4797

>  <PUBCHEM_FEATURE_SELFOVERLAP>  (1) 
25.415

>  <PUBCHEM_SHAPE_FINGERPRINT>  (1) 
10857977 72 18268708496729537130
124424 183 17988070090070929298
12716758 59 18339933610088622743
12932741 1 17988932153993928508
12932764 1 17632300111580156678
13538477 17 17894634780952204815
13898156 1 17603307076540140246
14817 1 12736212212083118994
16945 1 18335709355387320191
18380122 1 17916022558698380962
20361792 2 15647875051886999098
20645464 45 18201714037884118464
20645477 70 16681487819457077035
20711985 344 18189917450649642951
20871998 184 18270400619318191287
21040471 1 18263370196072873405
21061003 4 16843916129648990894
21930827 45 18339372880627934236
23211744 41 17916854824671050018
23552423 10 17535197957437834965
23559900 14 18197232352140450014
25610 171 18339919415205904952
2748010 2 18271814535420761415
3071541 236 18187633709432975355
369184 2 18059561512354931426
5084963 1 18200330864982951174
81228 2 18338804510916428267
88987 49 18334859415692884524

>  <PUBCHEM_SHAPE_MULTIPOLES>  (1) 
225.79
4.18
1.85
1.53
0.66
0.19
0
-0.61
-0.45
-1.31
-0.25
1.47
0.07
1.61

>  <PUBCHEM_SHAPE_SELFOVERLAP>  (1) 
440.373

>  <PUBCHEM_SHAPE_VOLUME>  (1) 
136.4

>  <PUBCHEM_COORDINATE_TYPE>  (1) 
2
5
10

$$$$
