35056
     RDKit          3D

 12 12  0  0  0  0  0  0  0  0999 V2000
    2.5717    0.7544    1.4626 Cl  0  0  0  0  0  0  0  0  0  0  0  0
    2.5745    0.7529   -1.4618 Cl  0  0  0  0  0  0  0  0  0  0  0  0
   -0.2178   -1.2243   -0.0011 N   0  0  0  0  0  0  0  0  0  0  0  0
   -0.1310    1.1737   -0.0010 N   0  0  0  0  0  0  0  0  0  0  0  0
   -2.2511    0.0499   -0.0004 N   0  0  0  0  0  0  0  0  0  0  0  0
   -2.3042   -2.2948    0.0014 N   0  0  0  0  0  0  0  0  0  0  0  0
   -2.1348    2.3919    0.0013 N   0  0  0  0  0  0  0  0  0  0  0  0
    1.9181   -0.1008    0.0002 C   0  0  0  0  0  0  0  0  0  0  0  0
    0.4282   -0.0470   -0.0013 C   0  0  0  0  0  0  0  0  0  0  0  0
    2.5746   -1.5024    0.0018 C   0  0  0  0  0  0  0  0  0  0  0  0
   -1.5547   -1.0982   -0.0008 C   0  0  0  0  0  0  0  0  0  0  0  0
   -1.4735    1.1445   -0.0008 C   0  0  0  0  0  0  0  0  0  0  0  0
  1  8  1  0
  2  8  1  0
  3  9  2  0
  3 11  1  0
  4  9  1  0
  4 12  2  0
  5 11  2  0
  5 12  1  0
  6 11  1  0
  7 12  1  0
  8  9  1  0
  8 10  1  0
M  END
>  <PUBCHEM_COMPOUND_CID>  (1) 
35056

>  <PUBCHEM_CONFORMER_RMSD>  (1) 
0.4

>  <PUBCHEM_CONFORMER_DIVERSEORDER>  (1) 
1
2
3

>  <PUBCHEM_MMFF94_PARTIAL_CHARGES>  (1) 
15
1 -0.29
11 0.72
12 0.72
16 0.4
17 0.4
18 0.4
19 0.4
2 -0.29
3 -0.62
4 -0.62
5 -0.62
6 -0.9
7 -0.9
8 0.72
9 0.48

>  <PUBCHEM_EFFECTIVE_ROTOR_COUNT>  (1) 
1

>  <PUBCHEM_PHARMACOPHORE_FEATURES>  (1) 
5
1 6 donor
1 7 donor
4 3 5 6 11 cation
4 4 5 7 12 cation
6 3 4 5 9 11 12 rings

>  <PUBCHEM_HEAVY_ATOM_COUNT>  (1) 
12

>  <PUBCHEM_ATOM_DEF_STEREO_COUNT>  (1) 
0

>  <PUBCHEM_ATOM_UDEF_STEREO_COUNT>  (1) 
0

>  <PUBCHEM_BOND_DEF_STEREO_COUNT>  (1) 
0

>  <PUBCHEM_BOND_UDEF_STEREO_COUNT>  (1) 
0

>  <PUBCHEM_ISOTOPIC_ATOM_COUNT>  (1) 
0

>  <PUBCHEM_COMPONENT_COUNT>  (1) 
1

>  <PUBCHEM_CACTVS_TAUTO_COUNT>  (1) 
5

>  <PUBCHEM_CONFORMER_ID>  (1) 
000088F000000001

>  <PUBCHEM_MMFF94_ENERGY>  (1) 
32.796

>  <PUBCHEM_FEATURE_SELFOVERLAP>  (1) 
25.415

>  <PUBCHEM_SHAPE_FINGERPRINT>  (1) 
1 1 17689992337077263653
10857977 72 18197207255538334186
12326174 3 16559031580476285174
12716758 59 18340763737098896179
12897270 3 18265062494918405262
12932741 1 17847063276816417860
12932764 1 17988927790265068086
13380536 127 18187085100175044712
161256 15 18055922236214957264
16945 1 18410572928700344069
18380122 1 17915451903636752490
19973954 147 18413384345710135080
20082192 1 17749378261463196470
20511035 2 18270392785593145086
20645464 45 17917985083911572040
20871998 184 18273215330636307607
21040471 1 18266741285701666949
21524375 3 17981041917072567413
23552423 10 18187367618844833770
23559900 14 18056763127468829342
2748010 2 18413669101872996326
3248919 1 17967811669464153482
369184 2 18131342003592655218
5084963 1 18262801744292719512
8030462 33 18410854377991751222
81228 2 18409726292231313529

>  <PUBCHEM_SHAPE_MULTIPOLES>  (1) 
225.79
4.28
2.09
1.01
0.68
0.09
0
0.13
0
-1.46
0
1.09
-0.31
0

>  <PUBCHEM_SHAPE_SELFOVERLAP>  (1) 
443.769

>  <PUBCHEM_SHAPE_VOLUME>  (1) 
136.4

>  <PUBCHEM_COORDINATE_TYPE>  (1) 
2
5
10

$$$$
