35052
     RDKit          3D

 15 15  0  0  0  0  0  0  0  0999 V2000
    1.4184   -3.2597    1.7215 I   0  0  0  0  0  0  0  0  0  0  0  0
    1.4256   -3.2631   -1.7160 I   0  0  0  0  0  0  0  0  0  0  0  0
   -2.6924    1.0721   -0.0064 N   0  0  0  0  0  0  0  0  0  0  0  0
    1.9296    1.8667    0.0053 N   0  0  0  0  0  0  0  0  0  0  0  0
   -0.3866    1.5007   -0.0022 N   0  0  0  0  0  0  0  0  0  0  0  0
    1.1480   -0.3440    0.0009 N   0  0  0  0  0  0  0  0  0  0  0  0
   -1.2169   -0.7506   -0.0052 N   0  0  0  0  0  0  0  0  0  0  0  0
   -3.8592    0.2242   -0.0075 C   0  0  0  0  0  0  0  0  0  0  0  0
    3.2936    1.4393    0.0105 C   0  0  0  0  0  0  0  0  0  0  0  0
   -1.3915    0.5925   -0.0052 C   0  0  0  0  0  0  0  0  0  0  0  0
    0.8442    0.9639    0.0005 C   0  0  0  0  0  0  0  0  0  0  0  0
    0.0676   -1.1416   -0.0022 C   0  0  0  0  0  0  0  0  0  0  0  0
   -5.1187    1.0689    0.0138 C   0  0  0  0  0  0  0  0  0  0  0  0
    4.2179    2.6417   -0.0075 C   0  0  0  0  0  0  0  0  0  0  0  0
    0.3203   -2.6109   -0.0002 C   0  0  0  0  0  0  0  0  0  0  0  0
  1 15  1  0
  2 15  1  0
  3  8  1  0
  3 10  1  0
  4  9  1  0
  4 11  1  0
  5 10  2  0
  5 11  1  0
  6 11  2  0
  6 12  1  0
  7 10  1  0
  7 12  2  0
  8 13  1  0
  9 14  1  0
 12 15  1  0
M  END
>  <PUBCHEM_COMPOUND_CID>  (1) 
35052

>  <PUBCHEM_CONFORMER_RMSD>  (1) 
0.6

>  <PUBCHEM_CONFORMER_DIVERSEORDER>  (1) 
1
49
51
16
53
47
22
27
44
2
54
48
34
56
30
42
57
19
46
17
23
8
40
29
20
9
15
24
18
32
36
58
59
26
55
35
43
28
33
11
60
45
10
3
37
50
52
41
39
38
5
21
25
31
4
14
6
12
13
7

>  <PUBCHEM_MMFF94_PARTIAL_CHARGES>  (1) 
15
1 -0.19
10 0.72
11 0.72
12 0.48
15 0.52
2 -0.19
20 0.4
21 0.4
3 -0.87
4 -0.87
5 -0.62
6 -0.62
7 -0.62
8 0.37
9 0.37

>  <PUBCHEM_EFFECTIVE_ROTOR_COUNT>  (1) 
5

>  <PUBCHEM_PHARMACOPHORE_FEATURES>  (1) 
8
1 1 hydrophobe
1 2 hydrophobe
1 3 donor
1 4 donor
3 1 2 15 hydrophobe
4 3 5 7 10 cation
4 4 5 6 11 cation
6 5 6 7 10 11 12 rings

>  <PUBCHEM_HEAVY_ATOM_COUNT>  (1) 
15

>  <PUBCHEM_ATOM_DEF_STEREO_COUNT>  (1) 
0

>  <PUBCHEM_ATOM_UDEF_STEREO_COUNT>  (1) 
0

>  <PUBCHEM_BOND_DEF_STEREO_COUNT>  (1) 
0

>  <PUBCHEM_BOND_UDEF_STEREO_COUNT>  (1) 
0

>  <PUBCHEM_ISOTOPIC_ATOM_COUNT>  (1) 
0

>  <PUBCHEM_COMPONENT_COUNT>  (1) 
1

>  <PUBCHEM_CACTVS_TAUTO_COUNT>  (1) 
5

>  <PUBCHEM_CONFORMER_ID>  (1) 
000088EC00000001

>  <PUBCHEM_MMFF94_ENERGY>  (1) 
31.2872

>  <PUBCHEM_FEATURE_SELFOVERLAP>  (1) 
41.519

>  <PUBCHEM_SHAPE_FINGERPRINT>  (1) 
107951 10 18115320006885953846
12500047 106 18126846238634992192
12532896 13 18264208187379340166
12553582 1 17690007734883517131
12592029 89 18334009471745517368
12644460 14 18263086526473291985
12788726 201 17617084150678832026
13083527 12 18118100507976979379
13380535 76 18410857706401332367
14817 1 8198046511974334654
15906896 17 17905045103431916470
17539 30 17409360015807286774
20369508 70 17972033644192170499
20524608 308 17982452904028540668
20600515 1 17258761634564039576
20645476 183 17679033831359152308
20645477 70 18340484457594285439
20711985 344 17546430637242206810
20871998 184 17765445626975549502
20871998 22 17838614453417489807
21524375 3 18339076111299134172
23366157 5 18043257842200787625
23402539 116 18200589327499204868
23419403 2 17689207487491275858
23558518 356 17617084150621043408
23598288 3 17686350072019769020
2748010 2 18266199372561495046
3071541 12 18197225749651790229
3071541 250 17981900648074448063
3071541 37 18334580113821932429
3091708 16 9261089108219215139
33824 294 18408604747505666011
366044 4 18338234980661951609
3759504 43 18043251442894591528
474229 33 18194404618080188059
5902787 121 17902509286089466355
6138700 20 18339651015085836270
7364860 26 18270965626555464711
81228 2 17401468837686213672
81539 233 18335137587797461997
9841814 1 18047192947383324419

>  <PUBCHEM_SHAPE_MULTIPOLES>  (1) 
307.66
6.65
4.44
1.26
10.39
0.66
0
-4.22
0.01
-6.97
0
-1.17
1.85
0

>  <PUBCHEM_SHAPE_SELFOVERLAP>  (1) 
567.513

>  <PUBCHEM_SHAPE_VOLUME>  (1) 
201.8

>  <PUBCHEM_COORDINATE_TYPE>  (1) 
2
5
10

$$$$
