35058
     RDKit          3D

 13 13  0  0  0  0  0  0  0  0999 V2000
    2.0526    1.2333    1.4658 Cl  0  0  0  0  0  0  0  0  0  0  0  0
    2.0520    1.2348   -1.4711 Cl  0  0  0  0  0  0  0  0  0  0  0  0
    4.1966   -0.8007    0.0103 Cl  0  0  0  0  0  0  0  0  0  0  0  0
   -0.3659   -1.1772   -0.0030 N   0  0  0  0  0  0  0  0  0  0  0  0
   -0.6596    1.2044   -0.0005 N   0  0  0  0  0  0  0  0  0  0  0  0
   -2.5752   -0.2407    0.0013 N   0  0  0  0  0  0  0  0  0  0  0  0
   -2.2567   -2.5642    0.0008 N   0  0  0  0  0  0  0  0  0  0  0  0
   -2.8308    2.0903    0.0053 N   0  0  0  0  0  0  0  0  0  0  0  0
    1.5654    0.2700   -0.0030 C   0  0  0  0  0  0  0  0  0  0  0  0
    0.0858    0.0874   -0.0027 C   0  0  0  0  0  0  0  0  0  0  0  0
    2.4222   -1.0363   -0.0037 C   0  0  0  0  0  0  0  0  0  0  0  0
   -1.7059   -1.2642   -0.0010 C   0  0  0  0  0  0  0  0  0  0  0  0
   -1.9805    0.9632    0.0013 C   0  0  0  0  0  0  0  0  0  0  0  0
  1  9  1  0
  2  9  1  0
  3 11  1  0
  4 10  2  0
  4 12  1  0
  5 10  1  0
  5 13  2  0
  6 12  2  0
  6 13  1  0
  7 12  1  0
  8 13  1  0
  9 10  1  0
  9 11  1  0
M  END
>  <PUBCHEM_COMPOUND_CID>  (1) 
35058

>  <PUBCHEM_CONFORMER_RMSD>  (1) 
0.6

>  <PUBCHEM_CONFORMER_DIVERSEORDER>  (1) 
1
8
9
7
4
6
5
2
3

>  <PUBCHEM_MMFF94_PARTIAL_CHARGES>  (1) 
17
1 -0.29
10 0.48
11 0.29
12 0.72
13 0.72
16 0.4
17 0.4
18 0.4
19 0.4
2 -0.29
3 -0.29
4 -0.62
5 -0.62
6 -0.62
7 -0.9
8 -0.9
9 0.72

>  <PUBCHEM_EFFECTIVE_ROTOR_COUNT>  (1) 
2

>  <PUBCHEM_PHARMACOPHORE_FEATURES>  (1) 
5
1 7 donor
1 8 donor
4 4 6 7 12 cation
4 5 6 8 13 cation
6 4 5 6 10 12 13 rings

>  <PUBCHEM_HEAVY_ATOM_COUNT>  (1) 
13

>  <PUBCHEM_ATOM_DEF_STEREO_COUNT>  (1) 
0

>  <PUBCHEM_ATOM_UDEF_STEREO_COUNT>  (1) 
0

>  <PUBCHEM_BOND_DEF_STEREO_COUNT>  (1) 
0

>  <PUBCHEM_BOND_UDEF_STEREO_COUNT>  (1) 
0

>  <PUBCHEM_ISOTOPIC_ATOM_COUNT>  (1) 
0

>  <PUBCHEM_COMPONENT_COUNT>  (1) 
1

>  <PUBCHEM_CACTVS_TAUTO_COUNT>  (1) 
5

>  <PUBCHEM_CONFORMER_ID>  (1) 
000088F200000001

>  <PUBCHEM_MMFF94_ENERGY>  (1) 
35.6401

>  <PUBCHEM_FEATURE_SELFOVERLAP>  (1) 
25.415

>  <PUBCHEM_SHAPE_FINGERPRINT>  (1) 
10608611 8 18271516572407850096
124424 183 17845928533756477200
12500047 106 18339353063849361904
12716758 59 18412256233873808689
12932764 1 17845377811237305030
13380535 76 18270116786604797759
14115302 16 18339651044491061684
14128692 85 18335989731147815182
14965852 173 18410292514723123258
15219456 202 18131059476829135160
15279308 132 18269269075787151672
15775835 57 18264209110454521568
16945 1 18410576154146878383
17804303 29 18341050722919678034
18511873 20 18262239898277703624
19973954 147 18341045323750310632
20201158 50 17988641844359277590
20511035 2 18343295964101933774
20645464 45 17918275341917080785
20711985 365 18409731785162338015
207724 885 17968381130698661364
20871998 184 18273216434406089895
20871998 22 17979355588273872723
21040471 1 18410856517017365605
21501502 16 18337115660876796780
21524375 3 18197216949875723949
23402539 116 18271233946659206245
23552423 10 18187364371728102274
23559900 14 18200592481102023422
2748010 2 18342170124097747261
3248919 1 17822849913185010978
5084963 1 18334576828129726880
53812653 166 18269832012961172576
7364860 26 18266461082599999292
74978 22 18407758136010061884
8030462 33 18338797934830900862
81228 2 18264763428066905969
9939556 21 18259994777148797908

>  <PUBCHEM_SHAPE_MULTIPOLES>  (1) 
248.24
5.42
2.1
0.98
2.27
0.45
0
0.75
-0.02
-1.42
0
0.8
-0.48
-0.01

>  <PUBCHEM_SHAPE_SELFOVERLAP>  (1) 
479.16

>  <PUBCHEM_SHAPE_VOLUME>  (1) 
151.8

>  <PUBCHEM_COORDINATE_TYPE>  (1) 
2
5
10

$$$$
