35068
     RDKit          3D

 22 24  0  0  0  0  0  0  0  0999 V2000
   -0.6986    2.3430   -0.0901 N   0  0  0  0  0  0  0  0  0  0  0  0
   -0.7028   -2.3430    0.0898 N   0  0  0  0  0  0  0  0  0  0  0  0
   -0.6690    0.0001    0.0009 N   0  0  0  0  0  0  0  0  0  0  0  0
   -2.7481   -1.1970    0.0463 N   0  0  0  0  0  0  0  0  0  0  0  0
   -2.7460    1.2008   -0.0459 N   0  0  0  0  0  0  0  0  0  0  0  0
   -5.9409    0.0047   -0.0005 N   0  0  0  0  0  0  0  0  0  0  0  0
    0.6779    2.6501   -0.1028 C   0  0  0  0  0  0  0  0  0  0  0  0
    0.6705   -2.6510    0.1026 C   0  0  0  0  0  0  0  0  0  0  0  0
   -1.4039    1.1249   -0.0427 C   0  0  0  0  0  0  0  0  0  0  0  0
   -1.4074   -1.1206    0.0435 C   0  0  0  0  0  0  0  0  0  0  0  0
    1.1308    3.8458    0.4543 C   0  0  0  0  0  0  0  0  0  0  0  0
    1.5864    1.7575   -0.6717 C   0  0  0  0  0  0  0  0  0  0  0  0
    1.1249   -3.8473   -0.4559 C   0  0  0  0  0  0  0  0  0  0  0  0
    1.5828   -1.7609    0.6728 C   0  0  0  0  0  0  0  0  0  0  0  0
    2.4923    4.1493    0.4427 C   0  0  0  0  0  0  0  0  0  0  0  0
    2.9479    2.0608   -0.6833 C   0  0  0  0  0  0  0  0  0  0  0  0
    2.4860   -4.1525   -0.4441 C   0  0  0  0  0  0  0  0  0  0  0  0
    2.9438   -2.0659    0.6845 C   0  0  0  0  0  0  0  0  0  0  0  0
    3.4008    3.2568   -0.1261 C   0  0  0  0  0  0  0  0  0  0  0  0
    3.3954   -3.2618    0.1260 C   0  0  0  0  0  0  0  0  0  0  0  0
   -3.3501    0.0024    0.0000 C   0  0  0  0  0  0  0  0  0  0  0  0
   -4.7726    0.0037   -0.0003 C   0  0  0  0  0  0  0  0  0  0  0  0
  1  7  1  0
  1  9  1  0
  2  8  1  0
  2 10  1  0
  3  9  2  0
  3 10  1  0
  4 10  2  0
  4 21  1  0
  5  9  1  0
  5 21  2  0
  6 22  3  0
  7 11  2  0
  7 12  1  0
  8 13  2  0
  8 14  1  0
 11 15  1  0
 12 16  2  0
 13 17  1  0
 14 18  2  0
 15 19  2  0
 16 19  1  0
 17 20  2  0
 18 20  1  0
 21 22  1  0
M  END
>  <PUBCHEM_COMPOUND_CID>  (1) 
35068

>  <PUBCHEM_CONFORMER_RMSD>  (1) 
0.6

>  <PUBCHEM_CONFORMER_DIVERSEORDER>  (1) 
2
34
5
33
35
11
30
3
12
6
44
41
1
29
25
31
22
21
45
28
32
19
40
9
10
24
43
14
8
27
42
38
7
15
13
16
39
17
36
23
20
37
18
26
4

>  <PUBCHEM_MMFF94_PARTIAL_CHARGES>  (1) 
34
1 -0.6
10 0.72
11 -0.15
12 -0.15
13 -0.15
14 -0.15
15 -0.15
16 -0.15
17 -0.15
18 -0.15
19 -0.15
2 -0.6
20 -0.15
21 0.69
22 0.48
23 0.4
24 0.4
25 0.15
26 0.15
27 0.15
28 0.15
29 0.15
3 -0.62
30 0.15
31 0.15
32 0.15
33 0.15
34 0.15
4 -0.62
5 -0.62
6 -0.56
7 0.1
8 0.1
9 0.72

>  <PUBCHEM_EFFECTIVE_ROTOR_COUNT>  (1) 
4

>  <PUBCHEM_PHARMACOPHORE_FEATURES>  (1) 
8
1 1 donor
1 2 donor
1 6 acceptor
4 1 3 5 9 cation
4 2 3 4 10 cation
6 3 4 5 9 10 21 rings
6 7 11 12 15 16 19 rings
6 8 13 14 17 18 20 rings

>  <PUBCHEM_HEAVY_ATOM_COUNT>  (1) 
22

>  <PUBCHEM_ATOM_DEF_STEREO_COUNT>  (1) 
0

>  <PUBCHEM_ATOM_UDEF_STEREO_COUNT>  (1) 
0

>  <PUBCHEM_BOND_DEF_STEREO_COUNT>  (1) 
0

>  <PUBCHEM_BOND_UDEF_STEREO_COUNT>  (1) 
0

>  <PUBCHEM_ISOTOPIC_ATOM_COUNT>  (1) 
0

>  <PUBCHEM_COMPONENT_COUNT>  (1) 
1

>  <PUBCHEM_CACTVS_TAUTO_COUNT>  (1) 
5

>  <PUBCHEM_CONFORMER_ID>  (1) 
000088FC00000002

>  <PUBCHEM_MMFF94_ENERGY>  (1) 
74.0882

>  <PUBCHEM_FEATURE_SELFOVERLAP>  (1) 
40.64

>  <PUBCHEM_SHAPE_FINGERPRINT>  (1) 
10006869 2 16533143265726281209
10411042 1 18122344575674057167
10670039 82 17976273340092576806
1100329 8 18338514252858347138
11014199 57 17907303143901537646
13140716 1 18263639743999405650
138480 1 18338516326841981570
14363568 33 18266201516119460490
14790565 3 17617665801183539011
14866123 147 17547011192208818458
14955137 171 17833855784546313705
15664445 248 18128553577696443855
15927050 60 18196657521178612542
167882 2 18409163338093681589
17859628 97 18265613363239904320
17913733 40 18123209032874490403
19591789 44 17905614654554867059
19611394 137 18187942680712207946
19930381 70 18410291376646285242
23419403 2 17896017889592322431
23559900 14 18410005503823939491
3091708 16 9215998157886248611
46194498 28 17903030609752554031
5265222 85 17900838350838923124
532947 4 18339647835886526646
5385378 56 18338807805478435769
6443956 14 18265050232518015997
6700243 42 17197160464974224726
7364860 26 18409729560221319173
7399639 24 17767945568456988370

>  <PUBCHEM_SHAPE_MULTIPOLES>  (1) 
422.86
7.31
6.78
0.73
11.37
0.04
0
-0.04
0
-9.8
0
-0.31
0
-0.08

>  <PUBCHEM_SHAPE_SELFOVERLAP>  (1) 
918.411

>  <PUBCHEM_SHAPE_VOLUME>  (1) 
217.8

>  <PUBCHEM_COORDINATE_TYPE>  (1) 
2
5
10

$$$$
