35064
     RDKit          3D

 17 17  0  0  0  0  0  0  0  0999 V2000
   -0.1566   -3.0224   -0.9879 S   0  0  0  0  0  0  0  0  0  0  0  0
    2.5962    0.9662    0.2912 N   0  0  0  0  0  0  0  0  0  0  0  0
   -2.0431    1.5354   -0.0985 N   0  0  0  0  0  0  0  0  0  0  0  0
    0.2799    1.2819    0.1034 N   0  0  0  0  0  0  0  0  0  0  0  0
   -1.1101   -0.5770   -0.5049 N   0  0  0  0  0  0  0  0  0  0  0  0
    1.2633   -0.8684   -0.3054 N   0  0  0  0  0  0  0  0  0  0  0  0
   -1.8607   -3.7553    1.1801 N   0  0  0  0  0  0  0  0  0  0  0  0
    1.3403    0.4436    0.0210 C   0  0  0  0  0  0  0  0  0  0  0  0
   -0.9022    0.7067   -0.1702 C   0  0  0  0  0  0  0  0  0  0  0  0
    3.8130    0.1945    0.2428 C   0  0  0  0  0  0  0  0  0  0  0  0
   -3.3646    1.0597   -0.3638 C   0  0  0  0  0  0  0  0  0  0  0  0
    0.0176   -1.3045   -0.5526 C   0  0  0  0  0  0  0  0  0  0  0  0
    4.9625    1.0831    0.5945 C   0  0  0  0  0  0  0  0  0  0  0  0
   -4.3268    2.1923   -0.2030 C   0  0  0  0  0  0  0  0  0  0  0  0
    5.9957    1.3254   -0.2203 C   0  0  0  0  0  0  0  0  0  0  0  0
   -5.3366    2.1956    0.6746 C   0  0  0  0  0  0  0  0  0  0  0  0
   -1.1677   -3.4567    0.2989 C   0  0  0  0  0  0  0  0  0  0  0  0
  1 12  1  0
  1 17  1  0
  2  8  1  0
  2 10  1  0
  3  9  1  0
  3 11  1  0
  4  8  2  0
  4  9  1  0
  5  9  2  0
  5 12  1  0
  6  8  1  0
  6 12  2  0
  7 17  3  0
 10 13  1  0
 11 14  1  0
 13 15  2  0
 14 16  2  0
M  END
>  <PUBCHEM_COMPOUND_CID>  (1) 
35064

>  <PUBCHEM_CONFORMER_RMSD>  (1) 
0.8

>  <PUBCHEM_CONFORMER_DIVERSEORDER>  (1) 
1
7
29
27
41
62
13
58
36
53
8
61
59
49
2
22
55
35
16
68
25
3
65
31
64
12
33
9
32
23
20
46
42
30
67
37
44
48
34
51
60
57
40
5
45
52
17
10
38
24
28
50
43
11
56
39
18
63
47
4
54
15
66
69
26
6
19
21
14

>  <PUBCHEM_MMFF94_PARTIAL_CHARGES>  (1) 
25
1 -0.14
10 0.51
11 0.51
12 0.72
13 -0.29
14 -0.29
15 -0.3
16 -0.3
17 0.59
2 -0.87
22 0.4
23 0.4
24 0.15
25 0.15
26 0.15
27 0.15
28 0.15
29 0.15
3 -0.87
4 -0.62
5 -0.62
6 -0.62
7 -0.56
8 0.72
9 0.72

>  <PUBCHEM_EFFECTIVE_ROTOR_COUNT>  (1) 
7

>  <PUBCHEM_PHARMACOPHORE_FEATURES>  (1) 
8
1 15 hydrophobe
1 16 hydrophobe
1 2 donor
1 3 donor
1 7 acceptor
4 2 4 6 8 cation
4 3 4 5 9 cation
6 4 5 6 8 9 12 rings

>  <PUBCHEM_HEAVY_ATOM_COUNT>  (1) 
17

>  <PUBCHEM_ATOM_DEF_STEREO_COUNT>  (1) 
0

>  <PUBCHEM_ATOM_UDEF_STEREO_COUNT>  (1) 
0

>  <PUBCHEM_BOND_DEF_STEREO_COUNT>  (1) 
0

>  <PUBCHEM_BOND_UDEF_STEREO_COUNT>  (1) 
0

>  <PUBCHEM_ISOTOPIC_ATOM_COUNT>  (1) 
0

>  <PUBCHEM_COMPONENT_COUNT>  (1) 
1

>  <PUBCHEM_CACTVS_TAUTO_COUNT>  (1) 
5

>  <PUBCHEM_CONFORMER_ID>  (1) 
000088F800000001

>  <PUBCHEM_MMFF94_ENERGY>  (1) 
34.9408

>  <PUBCHEM_FEATURE_SELFOVERLAP>  (1) 
40.638

>  <PUBCHEM_SHAPE_FINGERPRINT>  (1) 
10493431 412 18411417297859510141
11357001 24 18192710265918756378
12390115 104 18272381870646873313
12532896 13 18412261718320595294
12788726 201 17828501489115201046
13052359 8 18336263535049366343
15042514 8 18335984276254480058
15806764 133 17558842917151270744
15927050 60 18411417284917261598
17539 30 17913757590378167646
18222031 100 7853561396887157829
204376 136 18412261701272529613
20602899 9 15410891890202958956
20645477 70 17910103617756476637
20681677 155 18411974789542358264
21041028 32 17830737921187858407
22182313 1 18058189343666957334
22224240 67 18411983547049493409
23402539 116 18060127743769524708
23419403 2 17127379044409356671
23558518 356 17972597968387323000
23598288 3 18194406821261163910
293599 30 18342174453778800604
3091708 16 9483732550891204691
33824 294 18193841445078377267
366044 4 18413103944253799644
3759504 43 18410008844875595756
474229 33 18411417332677833639
5104073 3 18263909103707052064
59755656 520 18408880720381305348
621550 34 18044938961695250549
633830 44 18129377094904867045
7364860 26 17983011142265928743
77188 2 17401486447443062991
81228 2 17977639216157161207
81539 233 18266172829916625133

>  <PUBCHEM_SHAPE_MULTIPOLES>  (1) 
323.82
10.17
4.04
0.85
7.07
5.47
-0.05
-12.34
-1.43
-4.06
-0.63
-0.21
0.45
0.41

>  <PUBCHEM_SHAPE_SELFOVERLAP>  (1) 
634.725

>  <PUBCHEM_SHAPE_VOLUME>  (1) 
191.2

>  <PUBCHEM_COORDINATE_TYPE>  (1) 
2
5
10

$$$$
