35066
     RDKit          3D

 15 15  0  0  0  0  0  0  0  0999 V2000
   -4.5260    0.0263   -1.4350 S   0  0  0  0  0  0  0  0  0  0  0  0
    1.0558    2.3337    0.0454 N   0  0  0  0  0  0  0  0  0  0  0  0
    1.0299   -2.3557    0.0295 N   0  0  0  0  0  0  0  0  0  0  0  0
    1.0739   -0.0113    0.0315 N   0  0  0  0  0  0  0  0  0  0  0  0
   -0.9705   -1.2012    0.4346 N   0  0  0  0  0  0  0  0  0  0  0  0
   -0.9572    1.1983    0.4428 N   0  0  0  0  0  0  0  0  0  0  0  0
   -2.9237    0.0081    0.8313 N   0  0  0  0  0  0  0  0  0  0  0  0
    2.4677    2.4215   -0.2365 C   0  0  0  0  0  0  0  0  0  0  0  0
    2.4295   -2.4336   -0.2507 C   0  0  0  0  0  0  0  0  0  0  0  0
    0.3694    1.1363    0.1773 C   0  0  0  0  0  0  0  0  0  0  0  0
    0.3445   -1.1298    0.1720 C   0  0  0  0  0  0  0  0  0  0  0  0
    2.8908    3.8744   -0.3374 C   0  0  0  0  0  0  0  0  0  0  0  0
    2.8679   -3.8837   -0.3220 C   0  0  0  0  0  0  0  0  0  0  0  0
   -1.5551    0.0014    0.5568 C   0  0  0  0  0  0  0  0  0  0  0  0
   -3.5969    0.0155   -0.1396 C   0  0  0  0  0  0  0  0  0  0  0  0
  1 15  2  0
  2  8  1  0
  2 10  1  0
  3  9  1  0
  3 11  1  0
  4 10  2  0
  4 11  1  0
  5 11  2  0
  5 14  1  0
  6 10  1  0
  6 14  2  0
  7 14  1  0
  7 15  2  0
  8 12  1  0
  9 13  1  0
M  END
>  <PUBCHEM_COMPOUND_CID>  (1) 
35066

>  <PUBCHEM_CONFORMER_RMSD>  (1) 
0.6

>  <PUBCHEM_CONFORMER_DIVERSEORDER>  (1) 
1
30
43
17
27
26
9
28
16
18
38
24
41
20
37
32
35
3
19
34
39
44
15
4
23
45
11
40
42
33
31
13
6
25
21
10
8
22
12
2
7
29
14
36
5

>  <PUBCHEM_MMFF94_PARTIAL_CHARGES>  (1) 
15
1 -0.27
10 0.72
11 0.72
14 0.8
15 0.57
2 -0.87
20 0.4
21 0.4
3 -0.87
4 -0.62
5 -0.62
6 -0.62
7 -0.48
8 0.37
9 0.37

>  <PUBCHEM_EFFECTIVE_ROTOR_COUNT>  (1) 
5

>  <PUBCHEM_PHARMACOPHORE_FEATURES>  (1) 
8
1 1 acceptor
1 2 donor
1 3 donor
1 7 acceptor
4 2 4 6 10 cation
4 3 4 5 11 cation
4 5 6 7 14 cation
6 4 5 6 10 11 14 rings

>  <PUBCHEM_HEAVY_ATOM_COUNT>  (1) 
15

>  <PUBCHEM_ATOM_DEF_STEREO_COUNT>  (1) 
0

>  <PUBCHEM_ATOM_UDEF_STEREO_COUNT>  (1) 
0

>  <PUBCHEM_BOND_DEF_STEREO_COUNT>  (1) 
0

>  <PUBCHEM_BOND_UDEF_STEREO_COUNT>  (1) 
0

>  <PUBCHEM_ISOTOPIC_ATOM_COUNT>  (1) 
0

>  <PUBCHEM_COMPONENT_COUNT>  (1) 
1

>  <PUBCHEM_CACTVS_TAUTO_COUNT>  (1) 
5

>  <PUBCHEM_CONFORMER_ID>  (1) 
000088FA00000001

>  <PUBCHEM_MMFF94_ENERGY>  (1) 
33.8019

>  <PUBCHEM_FEATURE_SELFOVERLAP>  (1) 
40.729

>  <PUBCHEM_SHAPE_FINGERPRINT>  (1) 
12138202 78 18335979787992745221
12500047 106 17763182840620404736
14508225 48 17979346465546720678
15042514 8 16896530282205175418
15842332 3 17846225440835441297
167882 2 18336542806744719100
16945 1 18410584980373224195
17539 30 17474380280050021422
20645477 56 17618234243873176400
20645477 70 18408594873613476095
20671657 53 18196932171747474383
21339142 126 17402619549651170082
21339142 36 17832138329597222759
21426921 1 17401774017221219590
21499 59 18193833967134548949
21524375 3 17827917652551183481
21665056 4 17834964444296109212
22112679 90 17837797537525548234
23114952 82 18334003987246594005
23419403 2 17461124765639602684
2748010 2 18048615994317301074
3057174 1 18194970866378433604
3071541 12 18410582759907098897
3071541 250 18266193733300992814
3071541 37 18337674217010212845
3091708 16 8823394446040285802
458136 41 18266755742857101609
532947 4 18340777017876266796
633830 44 17913798216600608773
7364860 26 18411704283178671032
81228 2 17548146527815542427
81539 233 18262513822480595749

>  <PUBCHEM_SHAPE_MULTIPOLES>  (1) 
282.66
6.34
4.59
0.87
7.04
0.04
-0.16
-0.1
-2.32
-9.04
-0.86
0.79
-0.01
0.01

>  <PUBCHEM_SHAPE_SELFOVERLAP>  (1) 
557.637

>  <PUBCHEM_SHAPE_VOLUME>  (1) 
168.8

>  <PUBCHEM_COORDINATE_TYPE>  (1) 
2
5
10

$$$$
