35063
     RDKit          3D

 14 14  0  0  1  0  0  0  0  0999 V2000
   -1.8725   -1.9276    0.6504 Cl  0  0  0  0  0  0  0  0  0  0  0  0
   -1.6607   -0.8638   -2.0578 Cl  0  0  0  0  0  0  0  0  0  0  0  0
   -2.0929    1.2717    1.7760 Cl  0  0  0  0  0  0  0  0  0  0  0  0
    0.8322   -1.2407    0.1254 N   0  0  0  0  0  0  0  0  0  0  0  0
    0.4557    1.0831   -0.3392 N   0  0  0  0  0  0  0  0  0  0  0  0
    2.6801    0.2895    0.0853 N   0  0  0  0  0  0  0  0  0  0  0  0
    3.0171   -1.9875    0.5347 N   0  0  0  0  0  0  0  0  0  0  0  0
    2.2814    2.5544   -0.3733 N   0  0  0  0  0  0  0  0  0  0  0  0
   -1.4074   -0.4501   -0.3024 C   0  0  0  0  0  0  0  0  0  0  0  0
   -2.3737    0.7170    0.0799 C   0  0  0  0  0  0  0  0  0  0  0  0
    0.0969   -0.1777   -0.1584 C   0  0  0  0  0  0  0  0  0  0  0  0
   -3.8711    0.4143   -0.0550 C   0  0  0  0  0  0  0  0  0  0  0  0
    2.1335   -0.9279    0.2345 C   0  0  0  0  0  0  0  0  0  0  0  0
    1.7814    1.2455   -0.2000 C   0  0  0  0  0  0  0  0  0  0  0  0
  1  9  1  0
  2  9  1  0
  3 10  1  0
  4 11  2  0
  4 13  1  0
  5 11  1  0
  5 14  2  0
  6 13  2  0
  6 14  1  0
  7 13  1  0
  8 14  1  0
  9 10  1  0
  9 11  1  0
 10 12  1  0
M  END
>  <PUBCHEM_COMPOUND_CID>  (1) 
35063

>  <PUBCHEM_CONFORMER_RMSD>  (1) 
0.6

>  <PUBCHEM_CONFORMER_DIVERSEORDER>  (1) 
1
10
7
9
6
11
12
5
8
3
4
2

>  <PUBCHEM_MMFF94_PARTIAL_CHARGES>  (1) 
17
1 -0.29
10 0.29
11 0.48
13 0.72
14 0.72
19 0.4
2 -0.29
20 0.4
21 0.4
22 0.4
3 -0.29
4 -0.62
5 -0.62
6 -0.62
7 -0.9
8 -0.9
9 0.72

>  <PUBCHEM_EFFECTIVE_ROTOR_COUNT>  (1) 
2

>  <PUBCHEM_PHARMACOPHORE_FEATURES>  (1) 
5
1 7 donor
1 8 donor
4 4 6 7 13 cation
4 5 6 8 14 cation
6 4 5 6 11 13 14 rings

>  <PUBCHEM_HEAVY_ATOM_COUNT>  (1) 
14

>  <PUBCHEM_ATOM_DEF_STEREO_COUNT>  (1) 
0

>  <PUBCHEM_ATOM_UDEF_STEREO_COUNT>  (1) 
1

>  <PUBCHEM_BOND_DEF_STEREO_COUNT>  (1) 
0

>  <PUBCHEM_BOND_UDEF_STEREO_COUNT>  (1) 
0

>  <PUBCHEM_ISOTOPIC_ATOM_COUNT>  (1) 
0

>  <PUBCHEM_COMPONENT_COUNT>  (1) 
1

>  <PUBCHEM_CACTVS_TAUTO_COUNT>  (1) 
5

>  <PUBCHEM_CONFORMER_ID>  (1) 
000088F700000001

>  <PUBCHEM_MMFF94_ENERGY>  (1) 
40.1935

>  <PUBCHEM_FEATURE_SELFOVERLAP>  (1) 
25.415

>  <PUBCHEM_SHAPE_FINGERPRINT>  (1) 
12202030 40 16515697623195234794
12251169 10 18408886226265771058
12932764 1 16950832661360346290
13380535 21 18188219804506264318
13538477 17 17989197179251111847
13581323 91 17203317884660287487
14144814 61 18411140190748105289
15076042 46 18201447960539282755
15279308 10 18201998871372442693
15490181 8 17986976075806145627
15775835 57 18342181110840855493
16945 1 18267319641818674267
17357990 137 17844833415463793185
18511873 20 18270394984558189747
20510252 161 17474961299063011552
207724 885 18337111146554984410
21501502 16 18335700606444258923
228727 97 17842275049627187957
23402539 116 16486108619105486101
23419403 2 15751667909639472819
23552423 10 18336826506319186830
23557571 272 16270791428319611824
2748010 2 18189335834778818286
3248919 1 18264192763808979806
3286 77 17968097478279137123
45790113 50 18410579487479506031
5084963 1 18271240500589376089
53812654 25 17917138425524612409
63268167 104 18409167696921257496
6992083 37 18057602062343612078
7364860 26 18412826902205356988
74978 22 18409172107852618402
77492 1 18202559583980062837
8030462 33 18199743807378175452

>  <PUBCHEM_SHAPE_MULTIPOLES>  (1) 
268.82
5.06
2.13
1.29
0.17
0.24
0.24
0.36
-0.49
-0.99
-0.26
0.9
-0.11
-1

>  <PUBCHEM_SHAPE_SELFOVERLAP>  (1) 
520.868

>  <PUBCHEM_SHAPE_VOLUME>  (1) 
164.1

>  <PUBCHEM_COORDINATE_TYPE>  (1) 
2
5
10

$$$$
