35074
     RDKit          3D

 16 17  0  0  0  0  0  0  0  0999 V2000
   -0.4361   -1.0330    0.2476 N   0  0  0  0  0  0  0  0  0  0  0  0
    0.8980    0.8833    0.4612 N   0  0  0  0  0  0  0  0  0  0  0  0
    1.8523   -1.2059   -0.2335 N   0  0  0  0  0  0  0  0  0  0  0  0
    3.2432    0.7383   -0.0254 N   0  0  0  0  0  0  0  0  0  0  0  0
    2.2823    2.7663    0.6552 N   0  0  0  0  0  0  0  0  0  0  0  0
    4.1469   -1.3164   -0.7035 N   0  0  0  0  0  0  0  0  0  0  0  0
   -1.6849   -0.4091    0.0461 C   0  0  0  0  0  0  0  0  0  0  0  0
    0.8437   -0.4172    0.1533 C   0  0  0  0  0  0  0  0  0  0  0  0
   -0.4712   -2.5028    0.3135 C   0  0  0  0  0  0  0  0  0  0  0  0
   -1.7938    0.6648   -0.8374 C   0  0  0  0  0  0  0  0  0  0  0  0
   -2.8111   -0.8658    0.7308 C   0  0  0  0  0  0  0  0  0  0  0  0
   -3.0287    1.2822   -1.0361 C   0  0  0  0  0  0  0  0  0  0  0  0
   -4.0461   -0.2485    0.5320 C   0  0  0  0  0  0  0  0  0  0  0  0
   -4.1548    0.8255   -0.3515 C   0  0  0  0  0  0  0  0  0  0  0  0
    2.1339    1.3961    0.3489 C   0  0  0  0  0  0  0  0  0  0  0  0
    3.0265   -0.5578   -0.3011 C   0  0  0  0  0  0  0  0  0  0  0  0
  1  7  1  0
  1  8  1  0
  1  9  1  0
  2  8  2  0
  2 15  1  0
  3  8  1  0
  3 16  2  0
  4 15  2  0
  4 16  1  0
  5 15  1  0
  6 16  1  0
  7 10  2  0
  7 11  1  0
 10 12  1  0
 11 13  2  0
 12 14  2  0
 13 14  1  0
M  END
>  <PUBCHEM_COMPOUND_CID>  (1) 
35074

>  <PUBCHEM_CONFORMER_RMSD>  (1) 
0.6

>  <PUBCHEM_CONFORMER_DIVERSEORDER>  (1) 
1
3
2
4

>  <PUBCHEM_MMFF94_PARTIAL_CHARGES>  (1) 
25
1 -0.57
10 -0.15
11 -0.15
12 -0.15
13 -0.15
14 -0.15
15 0.72
16 0.72
2 -0.62
20 0.15
21 0.15
22 0.15
23 0.15
24 0.15
25 0.4
26 0.4
27 0.4
28 0.4
3 -0.62
4 -0.62
5 -0.9
6 -0.9
7 0.1
8 0.72
9 0.37

>  <PUBCHEM_EFFECTIVE_ROTOR_COUNT>  (1) 
2

>  <PUBCHEM_PHARMACOPHORE_FEATURES>  (1) 
7
1 5 donor
1 6 donor
4 1 2 3 8 cation
4 2 4 5 15 cation
4 3 4 6 16 cation
6 2 3 4 8 15 16 rings
6 7 10 11 12 13 14 rings

>  <PUBCHEM_HEAVY_ATOM_COUNT>  (1) 
16

>  <PUBCHEM_ATOM_DEF_STEREO_COUNT>  (1) 
0

>  <PUBCHEM_ATOM_UDEF_STEREO_COUNT>  (1) 
0

>  <PUBCHEM_BOND_DEF_STEREO_COUNT>  (1) 
0

>  <PUBCHEM_BOND_UDEF_STEREO_COUNT>  (1) 
0

>  <PUBCHEM_ISOTOPIC_ATOM_COUNT>  (1) 
0

>  <PUBCHEM_COMPONENT_COUNT>  (1) 
1

>  <PUBCHEM_CACTVS_TAUTO_COUNT>  (1) 
5

>  <PUBCHEM_CONFORMER_ID>  (1) 
0000890200000001

>  <PUBCHEM_MMFF94_ENERGY>  (1) 
70.2692

>  <PUBCHEM_FEATURE_SELFOVERLAP>  (1) 
35.653

>  <PUBCHEM_SHAPE_FINGERPRINT>  (1) 
10608611 8 18337388343839298065
10922523 26 18336265733835063292
11132069 177 18040432222488510029
11471102 20 18342457036698272420
11615757 297 18273217486894162107
12186901 62 17530685368681297319
12654215 9 18410288078259127460
12916754 54 18272088340176958759
13081056 2 18408604768917296269
13134695 92 17489581247606027520
13380535 21 18194971965779264698
13464514 151 17977665308073129949
14250199 8 18272084998354863813
14648413 74 18267304420765911184
14911166 2 18340493283467436910
15219456 202 18410009970062107617
15490181 7 18262504979248733739
15653759 3 17967816050314854273
15775835 57 18187083936207265427
16945 1 18342732988183704970
17041 50 18412265012897750812
17802600 8 18335697234921039045
17804303 29 18333737896520834335
17844478 74 18187372051366777169
18175812 5 18333453153443237623
18186145 218 18343022181327280059
200 152 17846493721403619023
20233049 118 18261393304542048638
20645477 56 18335418031992798296
20645477 70 18202286879295253654
21249577 43 18334856121505852213
21486144 27 18340199799255705885
21501502 16 18197493145926255630
21524375 3 18334011679411935219
23175994 123 18270972232494656398
23402539 116 17988359248422502494
23402655 69 18272931609275539501
23559900 14 17968095296082374902
25 1 18337107848146792399
2748010 2 18334007324298909093
3524813 1 18334006168847471421
53812653 166 18333729091795620987
6049 1 18334020526870140873
633830 44 18341608196795085021
69090 78 18341046410709508215
7364860 26 18118114767390130619
74978 22 18342455975809864242
81228 2 17756140442679250803

>  <PUBCHEM_SHAPE_MULTIPOLES>  (1) 
299.39
7.4
2.13
0.86
0.72
0.18
0.06
1.01
0.73
-1.07
-0.29
0.23
0.13
1.22

>  <PUBCHEM_SHAPE_SELFOVERLAP>  (1) 
639.848

>  <PUBCHEM_SHAPE_VOLUME>  (1) 
155.3

>  <PUBCHEM_COORDINATE_TYPE>  (1) 
2
5
10

$$$$
