35077
     RDKit          3D

 23 25  0  0  0  0  0  0  0  0999 V2000
   -3.7297    4.2982   -0.1192 Cl  0  0  0  0  0  0  0  0  0  0  0  0
    3.5418    4.4536    0.1192 Cl  0  0  0  0  0  0  0  0  0  0  0  0
   -2.3125   -1.4504   -0.0736 N   0  0  0  0  0  0  0  0  0  0  0  0
    2.3734   -1.3507    0.0731 N   0  0  0  0  0  0  0  0  0  0  0  0
    0.0297   -1.3689    0.0011 N   0  0  0  0  0  0  0  0  0  0  0  0
    1.2729   -3.4208    0.0378 N   0  0  0  0  0  0  0  0  0  0  0  0
   -1.1249   -3.4720   -0.0373 N   0  0  0  0  0  0  0  0  0  0  0  0
    0.1170   -5.4609   -0.0011 N   0  0  0  0  0  0  0  0  0  0  0  0
   -2.6499   -0.0811   -0.0841 C   0  0  0  0  0  0  0  0  0  0  0  0
    2.6510    0.0292    0.0838 C   0  0  0  0  0  0  0  0  0  0  0  0
   -1.0787   -2.1286   -0.0345 C   0  0  0  0  0  0  0  0  0  0  0  0
    1.1667   -2.0822    0.0358 C   0  0  0  0  0  0  0  0  0  0  0  0
   -3.8517    0.3454    0.4812 C   0  0  0  0  0  0  0  0  0  0  0  0
   -1.7820    0.8467   -0.6599 C   0  0  0  0  0  0  0  0  0  0  0  0
    3.8328    0.5099   -0.4833 C   0  0  0  0  0  0  0  0  0  0  0  0
    1.7454    0.9211    0.6616 C   0  0  0  0  0  0  0  0  0  0  0  0
   -4.1854    1.6998    0.4706 C   0  0  0  0  0  0  0  0  0  0  0  0
   -2.1157    2.2010   -0.6704 C   0  0  0  0  0  0  0  0  0  0  0  0
    4.1079    1.8774   -0.4727 C   0  0  0  0  0  0  0  0  0  0  0  0
    2.0205    2.2886    0.6721 C   0  0  0  0  0  0  0  0  0  0  0  0
   -3.3174    2.6275   -0.1052 C   0  0  0  0  0  0  0  0  0  0  0  0
    3.2018    2.7667    0.1051 C   0  0  0  0  0  0  0  0  0  0  0  0
    0.0870   -4.0493    0.0000 C   0  0  0  0  0  0  0  0  0  0  0  0
  1 21  1  0
  2 22  1  0
  3  9  1  0
  3 11  1  0
  4 10  1  0
  4 12  1  0
  5 11  2  0
  5 12  1  0
  6 12  2  0
  6 23  1  0
  7 11  1  0
  7 23  2  0
  8 23  1  0
  9 13  2  0
  9 14  1  0
 10 15  2  0
 10 16  1  0
 13 17  1  0
 14 18  2  0
 15 19  1  0
 16 20  2  0
 17 21  2  0
 18 21  1  0
 19 22  2  0
 20 22  1  0
M  END
>  <PUBCHEM_COMPOUND_CID>  (1) 
35077

>  <PUBCHEM_CONFORMER_RMSD>  (1) 
0.6

>  <PUBCHEM_CONFORMER_DIVERSEORDER>  (1) 
1
38
24
6
29
39
5
37
30
12
45
4
35
22
40
25
41
14
23
47
44
13
33
36
21
20
2
34
17
3
11
46
10
16
42
15
43
19
8
7
26
32
18
31
27
28
9

>  <PUBCHEM_MMFF94_PARTIAL_CHARGES>  (1) 
35
1 -0.18
10 0.1
11 0.72
12 0.72
13 -0.15
14 -0.15
15 -0.15
16 -0.15
17 -0.15
18 -0.15
19 -0.15
2 -0.18
20 -0.15
21 0.18
22 0.18
23 0.72
24 0.4
25 0.4
26 0.15
27 0.15
28 0.15
29 0.15
3 -0.6
30 0.15
31 0.15
32 0.15
33 0.15
34 0.4
35 0.4
4 -0.6
5 -0.62
6 -0.62
7 -0.62
8 -0.9
9 0.1

>  <PUBCHEM_EFFECTIVE_ROTOR_COUNT>  (1) 
4

>  <PUBCHEM_PHARMACOPHORE_FEATURES>  (1) 
9
1 3 donor
1 4 donor
1 8 donor
4 3 5 7 11 cation
4 4 5 6 12 cation
4 6 7 8 23 cation
6 10 15 16 19 20 22 rings
6 5 6 7 11 12 23 rings
6 9 13 14 17 18 21 rings

>  <PUBCHEM_HEAVY_ATOM_COUNT>  (1) 
23

>  <PUBCHEM_ATOM_DEF_STEREO_COUNT>  (1) 
0

>  <PUBCHEM_ATOM_UDEF_STEREO_COUNT>  (1) 
0

>  <PUBCHEM_BOND_DEF_STEREO_COUNT>  (1) 
0

>  <PUBCHEM_BOND_UDEF_STEREO_COUNT>  (1) 
0

>  <PUBCHEM_ISOTOPIC_ATOM_COUNT>  (1) 
0

>  <PUBCHEM_COMPONENT_COUNT>  (1) 
1

>  <PUBCHEM_CACTVS_TAUTO_COUNT>  (1) 
10

>  <PUBCHEM_CONFORMER_ID>  (1) 
0000890500000001

>  <PUBCHEM_MMFF94_ENERGY>  (1) 
81.4579

>  <PUBCHEM_FEATURE_SELFOVERLAP>  (1) 
45.802

>  <PUBCHEM_SHAPE_FINGERPRINT>  (1) 
10006869 2 18263074590997696571
10411042 1 17041760890531007399
10498660 4 17976249467740334548
10670039 82 17325213322015111156
10871710 139 18124312976528661607
11211813 163 18046368563567921884
12107183 9 18336248121203013136
12173636 292 18338513144340307069
12788726 201 17908968139344719119
12925494 130 18050568444176779593
13590594 115 16897375213682608899
138480 1 17762055441241610599
14466204 15 18265889160417322202
151778 21 18337959978269794265
15961568 22 16970271224382532684
18785283 64 18120379757105988465
19591789 44 18410859866764620486
19611394 137 15520665284885668168
19930381 70 18265894657923115953
20621476 13 17904192638254629797
21041028 32 16969419613528554623
21860390 5 17695340383114813039
22440779 20 16740919533053485234
23559900 14 17832983846145133009
238 59 17830414390044113613
23845131 108 18335706048716722467
4015057 19 17759515570347429405
5048184 11 18411982472585145041
58902169 19 17047360742370883045
5939293 188 17905883682658175611
6287921 2 18261965153410141276
6371009 1 18266717190898096193
6443956 14 17544479652284165949
6700243 42 16900789721816319740
7808743 9 18121781905125696808
9981440 41 18409161112926122035

>  <PUBCHEM_SHAPE_MULTIPOLES>  (1) 
447.18
7.77
7.23
0.73
0.05
5.03
0
-10.36
0
-0.04
0
0
-0.23
0.23

>  <PUBCHEM_SHAPE_SELFOVERLAP>  (1) 
950.931

>  <PUBCHEM_SHAPE_VOLUME>  (1) 
247.6

>  <PUBCHEM_COORDINATE_TYPE>  (1) 
2
5
10

$$$$
