35072
     RDKit          3D

 16 17  0  0  0  0  0  0  0  0999 V2000
   -5.5818   -0.8247   -0.0590 Cl  0  0  0  0  0  0  0  0  0  0  0  0
   -0.0134    1.1788    0.1336 N   0  0  0  0  0  0  0  0  0  0  0  0
    2.3274    1.3135    0.1370 N   0  0  0  0  0  0  0  0  0  0  0  0
    1.2199   -0.8020   -0.0991 N   0  0  0  0  0  0  0  0  0  0  0  0
    3.6171   -0.6960   -0.1004 N   0  0  0  0  0  0  0  0  0  0  0  0
    4.6714    1.3857    0.1316 N   0  0  0  0  0  0  0  0  0  0  0  0
    2.5067   -2.7484   -0.3307 N   0  0  0  0  0  0  0  0  0  0  0  0
   -1.3398    0.7014    0.0868 C   0  0  0  0  0  0  0  0  0  0  0  0
   -2.3549    1.5108   -0.4228 C   0  0  0  0  0  0  0  0  0  0  0  0
   -1.6363   -0.5801    0.5513 C   0  0  0  0  0  0  0  0  0  0  0  0
    1.2360    0.5334    0.0536 C   0  0  0  0  0  0  0  0  0  0  0  0
   -3.6667    1.0388   -0.4680 C   0  0  0  0  0  0  0  0  0  0  0  0
   -2.9481   -1.0522    0.5061 C   0  0  0  0  0  0  0  0  0  0  0  0
   -3.9634   -0.2427   -0.0037 C   0  0  0  0  0  0  0  0  0  0  0  0
    3.4808    0.6311    0.0523 C   0  0  0  0  0  0  0  0  0  0  0  0
    2.4450   -1.3474   -0.1686 C   0  0  0  0  0  0  0  0  0  0  0  0
  1 14  1  0
  2  8  1  0
  2 11  1  0
  3 11  2  0
  3 15  1  0
  4 11  1  0
  4 16  2  0
  5 15  2  0
  5 16  1  0
  6 15  1  0
  7 16  1  0
  8  9  2  0
  8 10  1  0
  9 12  1  0
 10 13  2  0
 12 14  2  0
 13 14  1  0
M  END
>  <PUBCHEM_COMPOUND_CID>  (1) 
35072

>  <PUBCHEM_CONFORMER_RMSD>  (1) 
0.6

>  <PUBCHEM_CONFORMER_DIVERSEORDER>  (1) 
1
3
2
4

>  <PUBCHEM_MMFF94_PARTIAL_CHARGES>  (1) 
25
1 -0.18
10 -0.15
11 0.72
12 -0.15
13 -0.15
14 0.18
15 0.72
16 0.72
17 0.4
18 0.15
19 0.15
2 -0.6
20 0.15
21 0.15
22 0.4
23 0.4
24 0.4
25 0.4
3 -0.62
4 -0.62
5 -0.62
6 -0.9
7 -0.9
8 0.1
9 -0.15

>  <PUBCHEM_EFFECTIVE_ROTOR_COUNT>  (1) 
2

>  <PUBCHEM_PHARMACOPHORE_FEATURES>  (1) 
8
1 2 donor
1 6 donor
1 7 donor
4 2 3 4 11 cation
4 3 5 6 15 cation
4 4 5 7 16 cation
6 3 4 5 11 15 16 rings
6 8 9 10 12 13 14 rings

>  <PUBCHEM_HEAVY_ATOM_COUNT>  (1) 
16

>  <PUBCHEM_ATOM_DEF_STEREO_COUNT>  (1) 
0

>  <PUBCHEM_ATOM_UDEF_STEREO_COUNT>  (1) 
0

>  <PUBCHEM_BOND_DEF_STEREO_COUNT>  (1) 
0

>  <PUBCHEM_BOND_UDEF_STEREO_COUNT>  (1) 
0

>  <PUBCHEM_ISOTOPIC_ATOM_COUNT>  (1) 
0

>  <PUBCHEM_COMPONENT_COUNT>  (1) 
1

>  <PUBCHEM_CACTVS_TAUTO_COUNT>  (1) 
10

>  <PUBCHEM_CONFORMER_ID>  (1) 
0000890000000001

>  <PUBCHEM_MMFF94_ENERGY>  (1) 
56.2896

>  <PUBCHEM_FEATURE_SELFOVERLAP>  (1) 
40.727

>  <PUBCHEM_SHAPE_FINGERPRINT>  (1) 
10608611 8 18336262362228083892
10616163 171 18339364187778216119
11471102 20 18412544318942389664
11615757 297 17704075109338457056
12616999 72 18335426768188101292
13296908 3 18411137991814565831
15196674 1 18410011001233962831
15219456 202 18409448063801518013
15375358 24 18260830418543781338
15375462 189 17846491539259487261
15442244 35 18052259492542307760
15536298 74 18412263900237639434
17834074 16 18409731763803416043
18186145 218 17895474705025525557
19141452 34 18341054116513865867
200 152 18131630101931273105
20201158 50 18409169904560685019
20279233 1 18261117382557261539
20281475 54 18341898428867136193
20645477 56 18114461172103322973
20645477 70 18342458101766168814
21267235 1 18411708664029826390
221490 88 18337961090882452146
22485316 2 18342455946024460127
23402539 116 17895184562883984783
23402655 69 18341609291811454165
23557571 272 17676482835249239997
23559900 14 18338229341717720322
2871803 45 18334576832419601315
33824 294 18410573989779202138
3545911 37 18408887351515547396
4214541 1 18410010992734049821
5104073 3 18337671923471310425
58051976 378 18409451418308197908
69090 78 18411134753810404603
77779 3 18411137996347072349
9709674 26 18335707130536621843

>  <PUBCHEM_SHAPE_MULTIPOLES>  (1) 
301.26
9.94
1.88
0.66
3.07
0.73
0.01
0.71
-0.35
-1.19
-0.19
0.2
0.02
0.62

>  <PUBCHEM_SHAPE_SELFOVERLAP>  (1) 
635.472

>  <PUBCHEM_SHAPE_VOLUME>  (1) 
168

>  <PUBCHEM_COORDINATE_TYPE>  (1) 
2
5
10

$$$$
