35080
     RDKit          3D

 18 18  0  0  0  0  0  0  0  0999 V2000
    2.8424   -1.0105   -0.1237 N   0  0  0  0  0  0  0  0  0  0  0  0
   -1.7005   -2.1262    0.2047 N   0  0  0  0  0  0  0  0  0  0  0  0
   -0.4134    2.3631   -0.2170 N   0  0  0  0  0  0  0  0  0  0  0  0
    0.5786   -1.5990    0.0433 N   0  0  0  0  0  0  0  0  0  0  0  0
    1.2372    0.6984   -0.1724 N   0  0  0  0  0  0  0  0  0  0  0  0
   -1.0874    0.1274   -0.0041 N   0  0  0  0  0  0  0  0  0  0  0  0
    1.5108   -0.6248   -0.0828 C   0  0  0  0  0  0  0  0  0  0  0  0
   -0.6872   -1.1520    0.0752 C   0  0  0  0  0  0  0  0  0  0  0  0
   -0.0712    0.9966   -0.1266 C   0  0  0  0  0  0  0  0  0  0  0  0
    3.9410   -0.0864   -0.2548 C   0  0  0  0  0  0  0  0  0  0  0  0
   -3.0908   -1.7974    0.2523 C   0  0  0  0  0  0  0  0  0  0  0  0
   -1.7646    2.8283   -0.1821 C   0  0  0  0  0  0  0  0  0  0  0  0
    5.2217   -0.8574   -0.2674 C   0  0  0  0  0  0  0  0  0  0  0  0
   -3.8805   -3.0584    0.3971 C   0  0  0  0  0  0  0  0  0  0  0  0
   -1.7657    4.3181   -0.3051 C   0  0  0  0  0  0  0  0  0  0  0  0
    6.2009   -0.6936    0.6295 C   0  0  0  0  0  0  0  0  0  0  0  0
   -4.7993   -3.4696   -0.4843 C   0  0  0  0  0  0  0  0  0  0  0  0
   -2.2719    5.1434    0.6182 C   0  0  0  0  0  0  0  0  0  0  0  0
  1  7  1  0
  1 10  1  0
  2  8  1  0
  2 11  1  0
  3  9  1  0
  3 12  1  0
  4  7  2  0
  4  8  1  0
  5  7  1  0
  5  9  2  0
  6  8  2  0
  6  9  1  0
 10 13  1  0
 11 14  1  0
 12 15  1  0
 13 16  2  0
 14 17  2  0
 15 18  2  0
M  END
>  <PUBCHEM_COMPOUND_CID>  (1) 
35080

>  <PUBCHEM_CONFORMER_RMSD>  (1) 
0.8

>  <PUBCHEM_CONFORMER_DIVERSEORDER>  (1) 
1
24
27
10
13
2
22
20
14
18
19
15
11
6
17
7
26
23
5
8
4
21
12
25
16
3
9

>  <PUBCHEM_MMFF94_PARTIAL_CHARGES>  (1) 
30
1 -0.87
10 0.51
11 0.51
12 0.51
13 -0.29
14 -0.29
15 -0.29
16 -0.3
17 -0.3
18 -0.3
19 0.4
2 -0.87
20 0.4
21 0.4
28 0.15
29 0.15
3 -0.87
30 0.15
31 0.15
32 0.15
33 0.15
34 0.15
35 0.15
36 0.15
4 -0.62
5 -0.62
6 -0.62
7 0.72
8 0.72
9 0.72

>  <PUBCHEM_EFFECTIVE_ROTOR_COUNT>  (1) 
9

>  <PUBCHEM_PHARMACOPHORE_FEATURES>  (1) 
10
1 1 donor
1 16 hydrophobe
1 17 hydrophobe
1 18 hydrophobe
1 2 donor
1 3 donor
4 1 4 5 7 cation
4 2 4 6 8 cation
4 3 5 6 9 cation
6 4 5 6 7 8 9 rings

>  <PUBCHEM_HEAVY_ATOM_COUNT>  (1) 
18

>  <PUBCHEM_ATOM_DEF_STEREO_COUNT>  (1) 
0

>  <PUBCHEM_ATOM_UDEF_STEREO_COUNT>  (1) 
0

>  <PUBCHEM_BOND_DEF_STEREO_COUNT>  (1) 
0

>  <PUBCHEM_BOND_UDEF_STEREO_COUNT>  (1) 
0

>  <PUBCHEM_ISOTOPIC_ATOM_COUNT>  (1) 
0

>  <PUBCHEM_COMPONENT_COUNT>  (1) 
1

>  <PUBCHEM_CACTVS_TAUTO_COUNT>  (1) 
5

>  <PUBCHEM_CONFORMER_ID>  (1) 
0000890800000001

>  <PUBCHEM_MMFF94_ENERGY>  (1) 
43.3413

>  <PUBCHEM_FEATURE_SELFOVERLAP>  (1) 
50.875

>  <PUBCHEM_SHAPE_FINGERPRINT>  (1) 
10411042 1 18338517572430496367
11056379 131 18338527365377859790
12390115 104 17982463602650403768
12532896 13 17979356352392650436
12788726 201 18261104154095296939
13134695 92 18121783000188870095
13140716 1 18337678610798738561
13590594 115 18337401551660071929
138480 1 15887995970152762645
13862211 1 18337670935787918482
13955234 65 17401214859644390563
14178000 15 18123192565574159773
15042514 8 18410016528804086321
15927050 60 18050288059472596898
16087824 20 18338517440425895741
17539 30 18411695470111566597
19784866 34 17691967064156334248
20238998 120 18268708484203727633
21426921 1 18410294679655464446
23402539 116 18341330080040331095
23558518 356 18189061893402033266
23929065 36 18266999735680613584
283562 15 18334292072125439786
3091708 16 9132718935448813313
58779409 54 18336257964397409175
5969126 39 18341602746413099158
68521 5 18409732867509881878
7164475 11 18336274491837817670
77188 2 18194683889533103493

>  <PUBCHEM_SHAPE_MULTIPOLES>  (1) 
340.55
9.88
6.17
0.69
14.91
9.41
0.03
-9.8
0.65
-12.44
0.43
0
0.05
-0.34

>  <PUBCHEM_SHAPE_SELFOVERLAP>  (1) 
673.768

>  <PUBCHEM_SHAPE_VOLUME>  (1) 
191.2

>  <PUBCHEM_COORDINATE_TYPE>  (1) 
2
5
10

$$$$
