3508
     RDKit          3D

 12 12  0  0  1  0  0  0  0  0999 V2000
   -2.2204   -0.9958   -0.9485 O   0  0  0  0  0  0  0  0  0  0  0  0
    0.5264   -2.3898    1.0059 O   0  0  0  0  0  0  0  0  0  0  0  0
   -0.3625    0.1364    0.1404 C   0  0  0  0  0  0  0  0  0  0  0  0
   -1.7274   -0.5340    0.3033 C   0  0  0  0  0  0  0  0  0  0  0  0
   -0.7139    1.4903   -0.4800 C   0  0  0  0  0  0  0  0  0  0  0  0
   -2.6020    0.6059    0.8129 C   0  0  0  0  0  0  0  0  0  0  0  0
   -2.0794    1.8581    0.1033 C   0  0  0  0  0  0  0  0  0  0  0  0
    0.6361   -0.6502   -0.6941 C   0  0  0  0  0  0  0  0  0  0  0  0
    1.9294    0.1328   -0.9900 C   0  0  0  0  0  0  0  0  0  0  0  0
    0.9680   -1.9970   -0.0691 C   0  0  0  0  0  0  0  0  0  0  0  0
    2.7014    0.5369    0.2352 C   0  0  0  0  0  0  0  0  0  0  0  0
    2.9442    1.8064    0.5807 C   0  0  0  0  0  0  0  0  0  0  0  0
  1  4  1  0
  2 10  2  0
  3  4  1  0
  3  5  1  0
  3  8  1  0
  4  6  1  0
  5  7  1  0
  6  7  1  0
  8  9  1  0
  8 10  1  0
  9 11  1  0
 11 12  2  0
M  END
>  <PUBCHEM_COMPOUND_CID>  (1) 
3508

>  <PUBCHEM_CONFORMER_RMSD>  (1) 
0.6

>  <PUBCHEM_CONFORMER_DIVERSEORDER>  (1) 
1
161
74
102
125
13
128
147
86
68
60
148
70
121
134
95
157
23
26
64
118
140
159
76
124
142
52
105
41
129
153
24
78
160
69
75
8
55
73
151
111
143
136
72
100
119
158
123
120
77
126
87
106
53
103
37
156
80
90
145
138
89
42
94
92
47
27
71
109
45
88
117
12
101
39
110
115
149
107
104
40
152
113
154
10
99
32
84
18
114
108
44
9
130
155
132
36
91
79
82
54
137
81
21
146
34
58
144
122
31
4
141
112
127
3
35
83
15
93
11
139
135
14
116
65
16
50
17
63
85
51
28
96
25
6
30
97
5
43
62
20
7
150
48
133
22
57
2
61
19
49
66
131
56
67
46
33
29
98
59
38

>  <PUBCHEM_MMFF94_PARTIAL_CHARGES>  (1) 
13
1 -0.68
10 0.45
11 -0.29
12 -0.3
2 -0.57
24 0.06
25 0.4
26 0.15
27 0.15
28 0.15
4 0.28
8 0.06
9 0.14

>  <PUBCHEM_EFFECTIVE_ROTOR_COUNT>  (1) 
5

>  <PUBCHEM_PHARMACOPHORE_FEATURES>  (1) 
5
1 1 acceptor
1 1 donor
1 12 hydrophobe
1 2 acceptor
5 3 4 5 6 7 rings

>  <PUBCHEM_HEAVY_ATOM_COUNT>  (1) 
12

>  <PUBCHEM_ATOM_DEF_STEREO_COUNT>  (1) 
0

>  <PUBCHEM_ATOM_UDEF_STEREO_COUNT>  (1) 
3

>  <PUBCHEM_BOND_DEF_STEREO_COUNT>  (1) 
0

>  <PUBCHEM_BOND_UDEF_STEREO_COUNT>  (1) 
0

>  <PUBCHEM_ISOTOPIC_ATOM_COUNT>  (1) 
0

>  <PUBCHEM_COMPONENT_COUNT>  (1) 
1

>  <PUBCHEM_CACTVS_TAUTO_COUNT>  (1) 
2

>  <PUBCHEM_CONFORMER_ID>  (1) 
00000DB400000001

>  <PUBCHEM_MMFF94_ENERGY>  (1) 
22.7781

>  <PUBCHEM_FEATURE_SELFOVERLAP>  (1) 
25.371

>  <PUBCHEM_SHAPE_FINGERPRINT>  (1) 
10857977 72 18042144148881183257
12524768 44 18196664990437469829
12932764 1 18268441156569299421
13380536 237 17972575732877252284
14614273 12 18261943094510278205
15775835 57 18342182163176167968
15852999 172 17458333144145199931
16945 1 17916025857016837263
17841504 4 17903079927986215555
20082192 1 17773316721154117959
20511035 2 17756441360972605157
20653085 51 17774739639687683204
21028194 46 18130227163754373744
21524375 3 18271802471337713536
23211744 41 18343590658987935966
23236772 104 18202001079359932251
23402539 116 17983845959122228030
23552423 10 18043265543298565647
2748010 2 18117009779736450813
305870 269 18335415730079933034
369184 2 18409729560300693821
5084963 1 18343591758636837116
54338 74 17974839872290214764
7364860 26 18125161537217082166
81228 2 17832994119406653546

>  <PUBCHEM_SHAPE_MULTIPOLES>  (1) 
235.22
4.05
2.27
0.97
0.67
0.54
0.03
-1.96
-0.51
0.44
-0.41
0.04
0.13
0.07

>  <PUBCHEM_SHAPE_SELFOVERLAP>  (1) 
464.92

>  <PUBCHEM_SHAPE_VOLUME>  (1) 
140.5

>  <PUBCHEM_COORDINATE_TYPE>  (1) 
2
5
10

$$$$
