35089
     RDKit          3D

  9  9  0  0  0  0  0  0  0  0999 V2000
    0.1329    0.9286    0.2285 N   0  0  0  0  0  0  0  0  0  0  0  0
   -0.5272   -1.3755    0.1128 N   0  0  0  0  0  0  0  0  0  0  0  0
    1.7721   -0.7685   -0.2084 N   0  0  0  0  0  0  0  0  0  0  0  0
    2.3870    1.4915   -0.0893 N   0  0  0  0  0  0  0  0  0  0  0  0
   -2.1813    0.3259    0.5522 C   0  0  0  0  0  0  0  0  0  0  0  0
   -0.7686   -0.0653    0.2806 C   0  0  0  0  0  0  0  0  0  0  0  0
   -2.9612    0.6136   -0.7285 C   0  0  0  0  0  0  0  0  0  0  0  0
    1.3818    0.5024   -0.0199 C   0  0  0  0  0  0  0  0  0  0  0  0
    0.7646   -1.6526   -0.1280 C   0  0  0  0  0  0  0  0  0  0  0  0
  1  6  2  0
  1  8  1  0
  2  6  1  0
  2  9  2  0
  3  8  2  0
  3  9  1  0
  4  8  1  0
  5  6  1  0
  5  7  1  0
M  END
>  <PUBCHEM_COMPOUND_CID>  (1) 
35089

>  <PUBCHEM_CONFORMER_RMSD>  (1) 
0.4

>  <PUBCHEM_CONFORMER_DIVERSEORDER>  (1) 
1
2
4
3

>  <PUBCHEM_MMFF94_PARTIAL_CHARGES>  (1) 
11
1 -0.62
15 0.15
16 0.4
17 0.4
2 -0.62
3 -0.62
4 -0.9
5 0.14
6 0.48
8 0.72
9 0.47

>  <PUBCHEM_EFFECTIVE_ROTOR_COUNT>  (1) 
1

>  <PUBCHEM_PHARMACOPHORE_FEATURES>  (1) 
4
1 4 donor
1 7 hydrophobe
4 1 3 4 8 cation
6 1 2 3 6 8 9 rings

>  <PUBCHEM_HEAVY_ATOM_COUNT>  (1) 
9

>  <PUBCHEM_ATOM_DEF_STEREO_COUNT>  (1) 
0

>  <PUBCHEM_ATOM_UDEF_STEREO_COUNT>  (1) 
0

>  <PUBCHEM_BOND_DEF_STEREO_COUNT>  (1) 
0

>  <PUBCHEM_BOND_UDEF_STEREO_COUNT>  (1) 
0

>  <PUBCHEM_ISOTOPIC_ATOM_COUNT>  (1) 
0

>  <PUBCHEM_COMPONENT_COUNT>  (1) 
1

>  <PUBCHEM_CACTVS_TAUTO_COUNT>  (1) 
9

>  <PUBCHEM_CONFORMER_ID>  (1) 
0000891100000001

>  <PUBCHEM_MMFF94_ENERGY>  (1) 
17.9926

>  <PUBCHEM_FEATURE_SELFOVERLAP>  (1) 
20.297

>  <PUBCHEM_SHAPE_FINGERPRINT>  (1) 
12897270 3 18410571752222222517
14325111 11 18410012152264183617
14390081 3 18333730200256067917
21040471 1 18339645662780683346
23552423 10 18269558234776859191
2748010 2 18339654454594848334
29004967 10 18264497186933122755
5084963 1 18130503024807629155

>  <PUBCHEM_SHAPE_MULTIPOLES>  (1) 
165.29
3.5
1.53
0.7
1.73
0.29
-0.02
-1.25
-0.56
-0.86
-0.06
0.3
-0.03
0.11

>  <PUBCHEM_SHAPE_SELFOVERLAP>  (1) 
333.369

>  <PUBCHEM_SHAPE_VOLUME>  (1) 
91.4

>  <PUBCHEM_COORDINATE_TYPE>  (1) 
2
5
10

$$$$
