35086
     RDKit          3D

 14 15  0  0  0  0  0  0  0  0999 V2000
    5.0790   -0.8573    0.1415 Cl  0  0  0  0  0  0  0  0  0  0  0  0
   -0.5114    1.0598   -0.2195 N   0  0  0  0  0  0  0  0  0  0  0  0
   -2.8535    1.1691   -0.2269 N   0  0  0  0  0  0  0  0  0  0  0  0
   -1.7225   -0.9028    0.2046 N   0  0  0  0  0  0  0  0  0  0  0  0
   -4.1206   -0.8225    0.2043 N   0  0  0  0  0  0  0  0  0  0  0  0
    0.8202    0.6031   -0.1326 C   0  0  0  0  0  0  0  0  0  0  0  0
    1.8279    1.4680    0.2939 C   0  0  0  0  0  0  0  0  0  0  0  0
    1.1293   -0.7135   -0.4742 C   0  0  0  0  0  0  0  0  0  0  0  0
    3.1448    1.0164    0.3788 C   0  0  0  0  0  0  0  0  0  0  0  0
    2.4463   -1.1653   -0.3893 C   0  0  0  0  0  0  0  0  0  0  0  0
   -1.7534    0.4118   -0.0739 C   0  0  0  0  0  0  0  0  0  0  0  0
    3.4542   -0.3003    0.0373 C   0  0  0  0  0  0  0  0  0  0  0  0
   -3.9991    0.4856   -0.0739 C   0  0  0  0  0  0  0  0  0  0  0  0
   -2.9413   -1.4521    0.3298 C   0  0  0  0  0  0  0  0  0  0  0  0
  1 12  1  0
  2  6  1  0
  2 11  1  0
  3 11  2  0
  3 13  1  0
  4 11  1  0
  4 14  2  0
  5 13  2  0
  5 14  1  0
  6  7  2  0
  6  8  1  0
  7  9  1  0
  8 10  2  0
  9 12  2  0
 10 12  1  0
M  END
>  <PUBCHEM_COMPOUND_CID>  (1) 
35086

>  <PUBCHEM_CONFORMER_RMSD>  (1) 
0.6

>  <PUBCHEM_CONFORMER_DIVERSEORDER>  (1) 
1
3
2

>  <PUBCHEM_MMFF94_PARTIAL_CHARGES>  (1) 
21
1 -0.18
10 -0.15
11 0.72
12 0.18
13 0.47
14 0.47
15 0.4
16 0.15
17 0.15
18 0.15
19 0.15
2 -0.6
20 0.15
21 0.15
3 -0.62
4 -0.62
5 -0.62
6 0.1
7 -0.15
8 -0.15
9 -0.15

>  <PUBCHEM_EFFECTIVE_ROTOR_COUNT>  (1) 
2

>  <PUBCHEM_PHARMACOPHORE_FEATURES>  (1) 
4
1 2 donor
4 2 3 4 11 cation
6 3 4 5 11 13 14 rings
6 6 7 8 9 10 12 rings

>  <PUBCHEM_HEAVY_ATOM_COUNT>  (1) 
14

>  <PUBCHEM_ATOM_DEF_STEREO_COUNT>  (1) 
0

>  <PUBCHEM_ATOM_UDEF_STEREO_COUNT>  (1) 
0

>  <PUBCHEM_BOND_DEF_STEREO_COUNT>  (1) 
0

>  <PUBCHEM_BOND_UDEF_STEREO_COUNT>  (1) 
0

>  <PUBCHEM_ISOTOPIC_ATOM_COUNT>  (1) 
0

>  <PUBCHEM_COMPONENT_COUNT>  (1) 
1

>  <PUBCHEM_CACTVS_TAUTO_COUNT>  (1) 
3

>  <PUBCHEM_CONFORMER_ID>  (1) 
0000890E00000001

>  <PUBCHEM_MMFF94_ENERGY>  (1) 
44.3543

>  <PUBCHEM_FEATURE_SELFOVERLAP>  (1) 
20.297

>  <PUBCHEM_SHAPE_FINGERPRINT>  (1) 
10608611 8 18411415120353405901
11471102 20 18343016705460339868
12032990 46 18342742875910388614
12251169 10 18273494585014478414
124424 183 18411697677524322405
12500047 106 18260822649264441021
12932764 1 17023171730322282868
13296908 3 18408886256420095761
13675066 3 17989199344220629408
14144814 61 18413109450570470377
14252887 29 17560806490109355638
14325111 11 18411136960896002613
14993402 34 14923945652371542138
15196674 1 18410855494493187922
15219456 202 18412542136761549120
15375358 24 18342455924243831063
17804303 29 18410015437544867532
17834074 16 18410857654941079990
18175812 5 18411417327955683060
18186145 218 14490478607478995708
18522853 276 18201719539869152040
200 152 17846773014526341933
20201158 50 18412827966840392139
20279233 1 18413674599510262991
20528008 55 18341609339119059989
20645477 56 18115022996891305429
20645477 70 18272087179997764462
20871998 22 18058457508719014646
21267235 1 18410302414448790659
21501925 9 18412258445956065256
221490 88 18263370350881652138
22485316 2 18260264131664488962
23402539 116 18272925008422534605
23559900 14 18410287025813084312
26918003 58 18272086084780811457
42 15 18410013238521533929
4214541 1 18409729530299323685
5104073 3 18411982485321815632
69090 78 18342734139788886895
7364860 26 18264775548032774212
77779 3 18409450305848403464
8809292 202 18333735740426289314
9709674 26 18336832012499298571

>  <PUBCHEM_SHAPE_MULTIPOLES>  (1) 
270.06
8.97
1.5
0.66
0.33
0.03
0
-2.05
0.72
0.01
0.06
0.1
-0.02
0.44

>  <PUBCHEM_SHAPE_SELFOVERLAP>  (1) 
568.861

>  <PUBCHEM_SHAPE_VOLUME>  (1) 
150.2

>  <PUBCHEM_COORDINATE_TYPE>  (1) 
2
5
10

$$$$
