35085
     RDKit          3D

 27 27  0  0  0  0  0  0  0  0999 V2000
   -0.7005   -4.9745    1.4582 Cl  0  0  0  0  0  0  0  0  0  0  0  0
   -0.7279   -4.9767   -1.4727 Cl  0  0  0  0  0  0  0  0  0  0  0  0
   -3.2148   -5.1010    0.0162 Cl  0  0  0  0  0  0  0  0  0  0  0  0
   -3.3959    4.2088   -1.4572 Cl  0  0  0  0  0  0  0  0  0  0  0  0
   -3.4199    4.1943    1.4736 Cl  0  0  0  0  0  0  0  0  0  0  0  0
   -5.5796    2.9555   -0.0157 Cl  0  0  0  0  0  0  0  0  0  0  0  0
    5.3536    2.0846    1.4586 Cl  0  0  0  0  0  0  0  0  0  0  0  0
    5.3691    2.0629   -1.4723 Cl  0  0  0  0  0  0  0  0  0  0  0  0
    6.7205   -0.0290    0.0158 Cl  0  0  0  0  0  0  0  0  0  0  0  0
   -2.6870   -2.2961   -0.0004 O   0  0  0  0  0  0  0  0  0  0  0  0
   -3.6194    0.8810   -0.0003 O   0  0  0  0  0  0  0  0  0  0  0  0
    4.0276   -0.9746   -0.0010 O   0  0  0  0  0  0  0  0  0  0  0  0
   -0.3477   -2.3199   -0.0004 N   0  0  0  0  0  0  0  0  0  0  0  0
   -1.6641    2.1655    0.0001 N   0  0  0  0  0  0  0  0  0  0  0  0
    2.8783    1.0631   -0.0003 N   0  0  0  0  0  0  0  0  0  0  0  0
   -1.0405   -0.0873   -0.0003 N   0  0  0  0  0  0  0  0  0  0  0  0
    1.2913   -0.6534   -0.0005 N   0  0  0  0  0  0  0  0  0  0  0  0
    0.6157    1.6490   -0.0002 N   0  0  0  0  0  0  0  0  0  0  0  0
   -0.0168   -0.9564   -0.0005 C   0  0  0  0  0  0  0  0  0  0  0  0
   -0.6488    1.1971   -0.0002 C   0  0  0  0  0  0  0  0  0  0  0  0
    1.5321    0.6676   -0.0005 C   0  0  0  0  0  0  0  0  0  0  0  0
   -1.6203   -2.9065   -0.0004 C   0  0  0  0  0  0  0  0  0  0  0  0
   -3.0519    1.9710    0.0001 C   0  0  0  0  0  0  0  0  0  0  0  0
    4.0228    0.2544   -0.0006 C   0  0  0  0  0  0  0  0  0  0  0  0
   -1.5627   -4.4322    0.0003 C   0  0  0  0  0  0  0  0  0  0  0  0
   -3.8282    3.2858    0.0002 C   0  0  0  0  0  0  0  0  0  0  0  0
    5.3152    1.0671    0.0004 C   0  0  0  0  0  0  0  0  0  0  0  0
  1 25  1  0
  2 25  1  0
  3 25  1  0
  4 26  1  0
  5 26  1  0
  6 26  1  0
  7 27  1  0
  8 27  1  0
  9 27  1  0
 10 22  2  0
 11 23  2  0
 12 24  2  0
 13 19  1  0
 13 22  1  0
 14 20  1  0
 14 23  1  0
 15 21  1  0
 15 24  1  0
 16 19  2  0
 16 20  1  0
 17 19  1  0
 17 21  2  0
 18 20  2  0
 18 21  1  0
 22 25  1  0
 23 26  1  0
 24 27  1  0
M  END
>  <PUBCHEM_COMPOUND_CID>  (1) 
35085

>  <PUBCHEM_CONFORMER_RMSD>  (1) 
1

>  <PUBCHEM_CONFORMER_DIVERSEORDER>  (1) 
1
3
2

>  <PUBCHEM_MMFF94_PARTIAL_CHARGES>  (1) 
30
1 -0.29
10 -0.57
11 -0.57
12 -0.57
13 -0.55
14 -0.55
15 -0.55
16 -0.62
17 -0.62
18 -0.62
19 0.74
2 -0.29
20 0.74
21 0.74
22 0.57
23 0.57
24 0.57
25 0.93
26 0.93
27 0.93
28 0.37
29 0.37
3 -0.29
30 0.37
4 -0.29
5 -0.29
6 -0.29
7 -0.29
8 -0.29
9 -0.29

>  <PUBCHEM_EFFECTIVE_ROTOR_COUNT>  (1) 
9

>  <PUBCHEM_PHARMACOPHORE_FEATURES>  (1) 
7
1 10 acceptor
1 11 acceptor
1 12 acceptor
1 13 donor
1 14 donor
1 15 donor
6 16 17 18 19 20 21 rings

>  <PUBCHEM_HEAVY_ATOM_COUNT>  (1) 
27

>  <PUBCHEM_ATOM_DEF_STEREO_COUNT>  (1) 
0

>  <PUBCHEM_ATOM_UDEF_STEREO_COUNT>  (1) 
0

>  <PUBCHEM_BOND_DEF_STEREO_COUNT>  (1) 
0

>  <PUBCHEM_BOND_UDEF_STEREO_COUNT>  (1) 
0

>  <PUBCHEM_ISOTOPIC_ATOM_COUNT>  (1) 
0

>  <PUBCHEM_COMPONENT_COUNT>  (1) 
1

>  <PUBCHEM_CACTVS_TAUTO_COUNT>  (1) 
14

>  <PUBCHEM_CONFORMER_ID>  (1) 
0000890D00000001

>  <PUBCHEM_MMFF94_ENERGY>  (1) 
58.486

>  <PUBCHEM_FEATURE_SELFOVERLAP>  (1) 
35.522

>  <PUBCHEM_SHAPE_FINGERPRINT>  (1) 
10050765 1 18338517560521514540
10411042 1 17834114521502539275
11056379 131 18266751353669453038
11488393 25 17469320335907599056
11991303 11 18334862714090592092
12788726 201 18263915712733493874
13052359 8 18410576201365138385
13540713 4 18059295483078026056
13540713 5 18041840735971231812
13590594 115 17975984481634158171
13690498 29 18053401061085887236
13757389 114 18335436672356975428
138480 1 17113537013791967075
13955234 65 17762626088335842833
14790565 3 18266460897372911137
14866123 147 18410011065342689099
15042514 8 18266180728393345139
15081414 286 17187567144627917587
15230672 131 18263929839957252270
15463212 79 18339068303444566885
15927050 60 18339078185848349390
16087824 20 18338236085645186663
17539 30 18196930182950750143
17980427 26 17908977708494769733
19301679 30 18264775548402448642
19427546 20 18264498463018795612
21033648 29 18339912732680852568
21049683 118 18266433482744315952
21120745 212 17903938972964288148
21478907 32 18050287260539672827
21796203 349 16963819255695864906
23366157 5 17617105706945571493
23558518 356 18116996791866591600
23929065 36 18125417938528010808
255183 313 18340785809642628171
3091708 16 9197751762644864995
3103668 31 18263352755070898271
38695281 34 18265051323434220064
4058900 60 18123762958410980392
4073 2 18411979192221297288
4409770 3 18337668715531737527
59755656 520 18337666430287382980
6058803 2 18187643661457807940
6669772 16 18127131874917925326
6700243 42 17623614051567803084
77188 2 17689999363701873023
79837 15 18410859849779930521
9658208 31 18341890792869309080
9777508 108 18340760537549032776
9981440 41 18336551491390450113

>  <PUBCHEM_SHAPE_MULTIPOLES>  (1) 
524.98
12.24
8.54
1.15
19.12
11.02
0
-13.6
0
-14.58
0
0.23
-0.24
0

>  <PUBCHEM_SHAPE_SELFOVERLAP>  (1) 
998.264

>  <PUBCHEM_SHAPE_VOLUME>  (1) 
321.5

>  <PUBCHEM_COORDINATE_TYPE>  (1) 
2
5
10

$$$$
