3509
     RDKit          3D

 28 29  0  0  1  0  0  0  0  0999 V2000
    1.9958    0.3960    1.2899 O   0  0  0  0  0  0  0  0  0  0  0  0
    1.8596   -2.2199    0.5013 O   0  0  0  0  0  0  0  0  0  0  0  0
    5.4632    0.6115    1.8254 O   0  0  0  0  0  0  0  0  0  0  0  0
    3.6525    1.3332    3.0072 O   0  0  0  0  0  0  0  0  0  0  0  0
    0.0759    1.9618   -3.3195 O   0  0  0  0  0  0  0  0  0  0  0  0
    0.7833    1.9347   -1.1030 N   0  0  0  0  0  0  0  0  0  0  0  0
    3.0701   -0.8290   -2.0137 N   0  0  0  0  0  0  0  0  0  0  0  0
   -0.4203   -1.9992    0.1060 N   0  0  0  0  0  0  0  0  0  0  0  0
    1.2578    0.5624   -1.0676 C   0  0  0  0  0  0  0  0  0  0  0  0
    2.7257    0.5127   -1.5330 C   0  0  0  0  0  0  0  0  0  0  0  0
    1.0252   -0.0138    0.3393 C   0  0  0  0  0  0  0  0  0  0  0  0
    3.6653    0.9394   -0.3991 C   0  0  0  0  0  0  0  0  0  0  0  0
    3.3490    0.2044    0.8966 C   0  0  0  0  0  0  0  0  0  0  0  0
    0.8674   -1.5081    0.3242 C   0  0  0  0  0  0  0  0  0  0  0  0
    4.1339    0.7810    2.0291 C   0  0  0  0  0  0  0  0  0  0  0  0
   -1.5651   -1.1210   -0.0988 C   0  0  0  0  0  0  0  0  0  0  0  0
   -0.7147   -3.4294    0.0667 C   0  0  0  0  0  0  0  0  0  0  0  0
    0.2339    2.5091   -2.2314 C   0  0  0  0  0  0  0  0  0  0  0  0
   -2.2652   -0.7568    1.2082 C   0  0  0  0  0  0  0  0  0  0  0  0
   -0.5920   -4.0090   -1.3374 C   0  0  0  0  0  0  0  0  0  0  0  0
   -0.1975    3.9302   -1.9870 C   0  0  0  0  0  0  0  0  0  0  0  0
   -3.4686    0.1305    1.0038 C   0  0  0  0  0  0  0  0  0  0  0  0
   -0.9185   -5.4947   -1.3911 C   0  0  0  0  0  0  0  0  0  0  0  0
   -3.3220    1.5176    1.0130 C   0  0  0  0  0  0  0  0  0  0  0  0
   -4.7276   -0.4364    0.8053 C   0  0  0  0  0  0  0  0  0  0  0  0
   -4.4342    2.3378    0.8239 C   0  0  0  0  0  0  0  0  0  0  0  0
   -5.8398    0.3839    0.6162 C   0  0  0  0  0  0  0  0  0  0  0  0
   -5.6930    1.7711    0.6254 C   0  0  0  0  0  0  0  0  0  0  0  0
  1 11  1  0
  1 13  1  0
  2 14  2  0
  3 15  1  0
  4 15  2  0
  5 18  2  0
  6  9  1  0
  6 18  1  0
  7 10  1  0
  8 14  1  0
  8 16  1  0
  8 17  1  0
  9 10  1  0
  9 11  1  0
 10 12  1  0
 11 14  1  0
 12 13  1  0
 13 15  1  0
 16 19  1  0
 17 20  1  0
 18 21  1  0
 19 22  1  0
 20 23  1  0
 22 24  2  0
 22 25  1  0
 24 26  1  0
 25 27  2  0
 26 28  2  0
 27 28  1  0
M  END
>  <PUBCHEM_COMPOUND_CID>  (1) 
3509

>  <PUBCHEM_CONFORMER_RMSD>  (1) 
1.4

>  <PUBCHEM_CONFORMER_DIVERSEORDER>  (1) 
1
74
6
25
9
36
112
7
43
18
70
113
95
120
72
86
11
19
55
115
46
102
81
68
15
71
34
100
118
29
57
89
77
24
10
20
90
42
30
48
114
87
21
106
104
22
92
91
5
54
53
78
17
40
88
58
108
45
2
51
32
64
79
94
27
56
16
119
26
76
117
47
116
63
98
85
84
37
75
50
73
93
96
39
8
14
38
107
83
23
110
66
111
69
109
33
31
65
13
105
82
41
99
49
59
35
103
80
28
61
62
60
12
101
67
3
97
52
44
4

>  <PUBCHEM_MMFF94_PARTIAL_CHARGES>  (1) 
34
1 -0.56
10 0.27
11 0.34
13 0.34
14 0.57
15 0.66
16 0.3
17 0.3
18 0.57
19 0.14
2 -0.57
21 0.06
22 -0.14
24 -0.15
25 -0.15
26 -0.15
27 -0.15
28 -0.15
3 -0.65
35 0.37
36 0.36
37 0.36
4 -0.57
49 0.5
5 -0.57
53 0.15
54 0.15
55 0.15
56 0.15
57 0.15
6 -0.73
7 -0.99
8 -0.66
9 0.3

>  <PUBCHEM_EFFECTIVE_ROTOR_COUNT>  (1) 
11.2

>  <PUBCHEM_PHARMACOPHORE_FEATURES>  (1) 
12
1 1 acceptor
1 2 acceptor
1 23 hydrophobe
1 3 acceptor
1 4 acceptor
1 5 acceptor
1 6 donor
1 7 cation
1 7 donor
3 3 4 15 anion
6 1 9 10 11 12 13 rings
6 22 24 25 26 27 28 rings

>  <PUBCHEM_HEAVY_ATOM_COUNT>  (1) 
28

>  <PUBCHEM_ATOM_DEF_STEREO_COUNT>  (1) 
0

>  <PUBCHEM_ATOM_UDEF_STEREO_COUNT>  (1) 
4

>  <PUBCHEM_BOND_DEF_STEREO_COUNT>  (1) 
0

>  <PUBCHEM_BOND_UDEF_STEREO_COUNT>  (1) 
0

>  <PUBCHEM_ISOTOPIC_ATOM_COUNT>  (1) 
0

>  <PUBCHEM_COMPONENT_COUNT>  (1) 
1

>  <PUBCHEM_CACTVS_TAUTO_COUNT>  (1) 
2

>  <PUBCHEM_CONFORMER_ID>  (1) 
00000DB500000001

>  <PUBCHEM_MMFF94_ENERGY>  (1) 
53.1862

>  <PUBCHEM_FEATURE_SELFOVERLAP>  (1) 
60.971

>  <PUBCHEM_SHAPE_FINGERPRINT>  (1) 
10940486 97 18122643883544411654
12422481 6 18042677300087728560
12633257 1 17168148940283815753
12788726 201 17760939836678117635
13009979 54 17832415780527589802
13965767 371 18337096870068011451
14178342 30 18196931287153451514
14863182 85 18340504278546602853
15238133 3 17313111838597146413
15420108 30 18340193116577146491
15775530 1 17613700536418831766
1601671 61 18114197314570439325
17876694 64 17617072038728651714
17980427 23 18126277786237504348
17980427 26 17559937871164169534
18681886 176 18263664989664528477
1979834 28 18337122150989223025
20587220 17 17838316512175003053
20739085 24 18262245395862521767
21033648 29 18272941526376105969
21049683 271 17835267561524263527
21304303 282 17915430957140058423
21315764 371 18131354107517416297
2132832 1 17759789742961579151
21857420 4 17194294438156715911
23559900 14 17844829125629935492
23598288 3 17831598821929172291
238918 7 18045209458513668533
27425 322 17418087729071938425
345986 75 16154248555958715920
474 4 18115040627868640395
513202 73 17170376426409133466
550186 83 17531541905319022924
5895379 119 18195536019465584382
653340 110 17972878064521984149
7064713 232 18409450263236691745
8509985 295 17313108557500699225
9981440 41 18413109451198731851

>  <PUBCHEM_SHAPE_MULTIPOLES>  (1) 
531.94
9.75
4.91
2.49
8
6.9
-0.66
-6.3
6.83
1.96
-3.93
-2.8
-1.78
-0.04

>  <PUBCHEM_SHAPE_SELFOVERLAP>  (1) 
1091.688

>  <PUBCHEM_SHAPE_VOLUME>  (1) 
302.6

>  <PUBCHEM_COORDINATE_TYPE>  (1) 
2
5
10

$$$$
