35091
     RDKit          3D

 11 11  0  0  0  0  0  0  0  0999 V2000
    2.9578   -1.6849   -0.9721 Cl  0  0  0  0  0  0  0  0  0  0  0  0
   -2.9576   -1.6852   -0.9722 Cl  0  0  0  0  0  0  0  0  0  0  0  0
    0.0000   -0.9588    0.5589 N   0  0  0  0  0  0  0  0  0  0  0  0
   -1.1998    1.0538    0.0416 N   0  0  0  0  0  0  0  0  0  0  0  0
    1.1997    1.0539    0.0415 N   0  0  0  0  0  0  0  0  0  0  0  0
   -0.0003    3.0050   -0.4604 N   0  0  0  0  0  0  0  0  0  0  0  0
    1.1222   -0.2444    0.3752 C   0  0  0  0  0  0  0  0  0  0  0  0
   -1.1221   -0.2445    0.3753 C   0  0  0  0  0  0  0  0  0  0  0  0
   -0.0001    1.6378   -0.1087 C   0  0  0  0  0  0  0  0  0  0  0  0
    2.4131   -0.9662    0.5605 C   0  0  0  0  0  0  0  0  0  0  0  0
   -2.4129   -0.9665    0.5605 C   0  0  0  0  0  0  0  0  0  0  0  0
  1 10  1  0
  2 11  1  0
  3  7  2  0
  3  8  1  0
  4  8  2  0
  4  9  1  0
  5  7  1  0
  5  9  2  0
  6  9  1  0
  7 10  1  0
  8 11  1  0
M  END
>  <PUBCHEM_COMPOUND_CID>  (1) 
35091

>  <PUBCHEM_CONFORMER_RMSD>  (1) 
0.4

>  <PUBCHEM_CONFORMER_DIVERSEORDER>  (1) 
1
12
4
10
11
6
5
9
2
8
7
3

>  <PUBCHEM_MMFF94_PARTIAL_CHARGES>  (1) 
13
1 -0.29
10 0.43
11 0.43
16 0.4
17 0.4
2 -0.29
3 -0.62
4 -0.62
5 -0.62
6 -0.9
7 0.48
8 0.48
9 0.72

>  <PUBCHEM_EFFECTIVE_ROTOR_COUNT>  (1) 
2

>  <PUBCHEM_PHARMACOPHORE_FEATURES>  (1) 
3
1 6 donor
4 4 5 6 9 cation
6 3 4 5 7 8 9 rings

>  <PUBCHEM_HEAVY_ATOM_COUNT>  (1) 
11

>  <PUBCHEM_ATOM_DEF_STEREO_COUNT>  (1) 
0

>  <PUBCHEM_ATOM_UDEF_STEREO_COUNT>  (1) 
0

>  <PUBCHEM_BOND_DEF_STEREO_COUNT>  (1) 
0

>  <PUBCHEM_BOND_UDEF_STEREO_COUNT>  (1) 
0

>  <PUBCHEM_ISOTOPIC_ATOM_COUNT>  (1) 
0

>  <PUBCHEM_COMPONENT_COUNT>  (1) 
1

>  <PUBCHEM_CACTVS_TAUTO_COUNT>  (1) 
3

>  <PUBCHEM_CONFORMER_ID>  (1) 
0000891300000001

>  <PUBCHEM_MMFF94_ENERGY>  (1) 
21.1691

>  <PUBCHEM_FEATURE_SELFOVERLAP>  (1) 
15.223

>  <PUBCHEM_SHAPE_FINGERPRINT>  (1) 
1 1 17615405191785196789
11206711 2 18114742633603911271
12138202 97 17762341314555152094
12716758 59 17762902065633062458
14128692 85 18342462564152585226
20645477 70 18049994795485918231
20711985 344 18191866725709358154
20871998 184 18124604084716038319
20871998 22 18412547617229658610
21040471 1 17470441833773461720
23552423 10 18187092715278602538
23559900 14 17477762383025624854
241688 4 18408322155273242169
2748010 2 18408597067571546641
449060 23 18272373057268707766
58734985 102 18268151031386075430
81228 2 18264204703760144696

>  <PUBCHEM_SHAPE_MULTIPOLES>  (1) 
210.19
4.06
2.55
0.92
0
1.86
-0.11
-3.73
-0.85
0
-0.84
0
-0.32
0

>  <PUBCHEM_SHAPE_SELFOVERLAP>  (1) 
408.064

>  <PUBCHEM_SHAPE_VOLUME>  (1) 
128.3

>  <PUBCHEM_COORDINATE_TYPE>  (1) 
2
5
10

$$$$
