35098
     RDKit          3D

 15 15  0  0  0  0  0  0  0  0999 V2000
   -3.3743   -1.2251   -1.4614 Cl  0  0  0  0  0  0  0  0  0  0  0  0
   -3.3733   -1.2207    1.4651 Cl  0  0  0  0  0  0  0  0  0  0  0  0
    3.3738   -1.2212    1.4631 Cl  0  0  0  0  0  0  0  0  0  0  0  0
    3.3735   -1.2253   -1.4633 Cl  0  0  0  0  0  0  0  0  0  0  0  0
    0.0002    2.5293   -0.0042 N   0  0  0  0  0  0  0  0  0  0  0  0
    1.1998    0.5145   -0.0024 N   0  0  0  0  0  0  0  0  0  0  0  0
   -1.1997    0.5147   -0.0015 N   0  0  0  0  0  0  0  0  0  0  0  0
   -0.0001   -1.5635    0.0009 N   0  0  0  0  0  0  0  0  0  0  0  0
    0.0001    1.1344   -0.0026 C   0  0  0  0  0  0  0  0  0  0  0  0
    1.1221   -0.8260   -0.0004 C   0  0  0  0  0  0  0  0  0  0  0  0
   -1.1222   -0.8259    0.0003 C   0  0  0  0  0  0  0  0  0  0  0  0
   -1.2496    3.2788   -0.0046 C   0  0  0  0  0  0  0  0  0  0  0  0
    1.2501    3.2786    0.0086 C   0  0  0  0  0  0  0  0  0  0  0  0
   -2.4131   -1.5712    0.0020 C   0  0  0  0  0  0  0  0  0  0  0  0
    2.4129   -1.5714    0.0005 C   0  0  0  0  0  0  0  0  0  0  0  0
  1 14  1  0
  2 14  1  0
  3 15  1  0
  4 15  1  0
  5  9  1  0
  5 12  1  0
  5 13  1  0
  6  9  2  0
  6 10  1  0
  7  9  1  0
  7 11  2  0
  8 10  2  0
  8 11  1  0
 10 15  1  0
 11 14  1  0
M  END
>  <PUBCHEM_COMPOUND_CID>  (1) 
35098

>  <PUBCHEM_CONFORMER_RMSD>  (1) 
0.6

>  <PUBCHEM_CONFORMER_DIVERSEORDER>  (1) 
1
2
11
12
10
15
18
14
8
7
19
4
16
5
6
17
13
20
3
9

>  <PUBCHEM_MMFF94_PARTIAL_CHARGES>  (1) 
15
1 -0.29
10 0.48
11 0.48
12 0.37
13 0.37
14 0.72
15 0.72
2 -0.29
3 -0.29
4 -0.29
5 -0.84
6 -0.62
7 -0.62
8 -0.62
9 0.72

>  <PUBCHEM_EFFECTIVE_ROTOR_COUNT>  (1) 
3

>  <PUBCHEM_PHARMACOPHORE_FEATURES>  (1) 
2
4 5 6 7 9 cation
6 6 7 8 9 10 11 rings

>  <PUBCHEM_HEAVY_ATOM_COUNT>  (1) 
15

>  <PUBCHEM_ATOM_DEF_STEREO_COUNT>  (1) 
0

>  <PUBCHEM_ATOM_UDEF_STEREO_COUNT>  (1) 
0

>  <PUBCHEM_BOND_DEF_STEREO_COUNT>  (1) 
0

>  <PUBCHEM_BOND_UDEF_STEREO_COUNT>  (1) 
0

>  <PUBCHEM_ISOTOPIC_ATOM_COUNT>  (1) 
0

>  <PUBCHEM_COMPONENT_COUNT>  (1) 
1

>  <PUBCHEM_CACTVS_TAUTO_COUNT>  (1) 
1

>  <PUBCHEM_CONFORMER_ID>  (1) 
0000891A00000001

>  <PUBCHEM_MMFF94_ENERGY>  (1) 
34.4903

>  <PUBCHEM_FEATURE_SELFOVERLAP>  (1) 
10.148

>  <PUBCHEM_SHAPE_FINGERPRINT>  (1) 
1 1 17689148341501462493
12553582 1 18410581686028540423
12759256 9 18268425909409317023
13140716 1 18410010992259270617
13538477 17 17899424086637227158
14022349 108 18122616417244475088
14181834 199 18120920961228449222
15906896 17 17977387131662743135
16945 1 18410855460128674983
193761 8 18410855464423817668
20097449 115 18409169926009108818
20339313 130 18340501061252419611
20361792 2 18341897402428397087
20645476 183 17470182361945824606
20645477 70 18124027099379829903
20671657 53 18340473547929434791
20711985 344 18266742376649883326
20871998 184 18127137372444148743
21041028 32 18337685173724947321
21524375 3 17114098868069610176
22112679 90 18126595407590165721
22620623 9 17915468198595078414
2334 1 18410575119028325913
23419403 2 17683477971396201028
23530152 11 17331677942951622597
23557571 272 18200025124142728878
23559900 14 17409084696358371094
23598291 2 17987810746929144567
23598294 1 18191876625825331442
2748010 2 18412254026134232212
3071541 12 18124045781927910685
3071541 236 17828474774027911528
3071541 250 18266479735236342382
31174 14 17973457778085637763
352729 6 17689719653587449283
4175511 71 18340505429444954827
7364860 26 18053673747762885622
81228 2 18267300919934957289
88987 49 18050283670600900822

>  <PUBCHEM_SHAPE_MULTIPOLES>  (1) 
296.25
5.41
3.57
1.25
0
4.99
0
-4.56
0
0
0
0
-0.78
0.01

>  <PUBCHEM_SHAPE_SELFOVERLAP>  (1) 
560.831

>  <PUBCHEM_SHAPE_VOLUME>  (1) 
181.9

>  <PUBCHEM_COORDINATE_TYPE>  (1) 
2
5
10

$$$$
