35095
     RDKit          3D

 18 19  0  0  0  0  0  0  0  0999 V2000
   -6.0222    0.7151   -0.1418 Cl  0  0  0  0  0  0  0  0  0  0  0  0
    2.1749    3.5548   -0.8017 Cl  0  0  0  0  0  0  0  0  0  0  0  0
    4.9366   -1.6428   -1.3932 Cl  0  0  0  0  0  0  0  0  0  0  0  0
   -0.4537   -1.2948   -0.0409 N   0  0  0  0  0  0  0  0  0  0  0  0
    1.8823   -1.4357    0.1060 N   0  0  0  0  0  0  0  0  0  0  0  0
    0.7620    0.6727    0.3457 N   0  0  0  0  0  0  0  0  0  0  0  0
    3.1538    0.5606    0.5006 N   0  0  0  0  0  0  0  0  0  0  0  0
   -1.7800   -0.8160   -0.0646 C   0  0  0  0  0  0  0  0  0  0  0  0
    0.7878   -0.6563    0.1456 C   0  0  0  0  0  0  0  0  0  0  0  0
   -2.8268   -1.6412    0.3463 C   0  0  0  0  0  0  0  0  0  0  0  0
   -2.0449    0.4827   -0.4991 C   0  0  0  0  0  0  0  0  0  0  0  0
    3.0277   -0.7597    0.2908 C   0  0  0  0  0  0  0  0  0  0  0  0
    1.9798    1.2122    0.5151 C   0  0  0  0  0  0  0  0  0  0  0  0
   -4.1386   -1.1675    0.3227 C   0  0  0  0  0  0  0  0  0  0  0  0
   -3.3568    0.9563   -0.5225 C   0  0  0  0  0  0  0  0  0  0  0  0
   -4.4036    0.1313   -0.1118 C   0  0  0  0  0  0  0  0  0  0  0  0
    2.0341    2.6844    0.7425 C   0  0  0  0  0  0  0  0  0  0  0  0
    4.2874   -1.5560    0.2600 C   0  0  0  0  0  0  0  0  0  0  0  0
  1 16  1  0
  2 17  1  0
  3 18  1  0
  4  8  1  0
  4  9  1  0
  5  9  2  0
  5 12  1  0
  6  9  1  0
  6 13  2  0
  7 12  2  0
  7 13  1  0
  8 10  2  0
  8 11  1  0
 10 14  1  0
 11 15  2  0
 12 18  1  0
 13 17  1  0
 14 16  2  0
 15 16  1  0
M  END
>  <PUBCHEM_COMPOUND_CID>  (1) 
35095

>  <PUBCHEM_CONFORMER_RMSD>  (1) 
0.6

>  <PUBCHEM_CONFORMER_DIVERSEORDER>  (1) 
1
25
19
30
22
11
27
8
18
6
26
28
13
31
24
33
4
10
32
2
9
20
3
7
17
16
15
21
29
23
12
5
14

>  <PUBCHEM_MMFF94_PARTIAL_CHARGES>  (1) 
23
1 -0.18
10 -0.15
11 -0.15
12 0.48
13 0.48
14 -0.15
15 -0.15
16 0.18
17 0.43
18 0.43
19 0.4
2 -0.29
20 0.15
21 0.15
22 0.15
23 0.15
3 -0.29
4 -0.6
5 -0.62
6 -0.62
7 -0.62
8 0.1
9 0.72

>  <PUBCHEM_EFFECTIVE_ROTOR_COUNT>  (1) 
4

>  <PUBCHEM_PHARMACOPHORE_FEATURES>  (1) 
4
1 4 donor
4 4 5 6 9 cation
6 5 6 7 9 12 13 rings
6 8 10 11 14 15 16 rings

>  <PUBCHEM_HEAVY_ATOM_COUNT>  (1) 
18

>  <PUBCHEM_ATOM_DEF_STEREO_COUNT>  (1) 
0

>  <PUBCHEM_ATOM_UDEF_STEREO_COUNT>  (1) 
0

>  <PUBCHEM_BOND_DEF_STEREO_COUNT>  (1) 
0

>  <PUBCHEM_BOND_UDEF_STEREO_COUNT>  (1) 
0

>  <PUBCHEM_ISOTOPIC_ATOM_COUNT>  (1) 
0

>  <PUBCHEM_COMPONENT_COUNT>  (1) 
1

>  <PUBCHEM_CACTVS_TAUTO_COUNT>  (1) 
3

>  <PUBCHEM_CONFORMER_ID>  (1) 
0000891700000001

>  <PUBCHEM_MMFF94_ENERGY>  (1) 
47.0476

>  <PUBCHEM_FEATURE_SELFOVERLAP>  (1) 
20.297

>  <PUBCHEM_SHAPE_FINGERPRINT>  (1) 
10366900 7 17749109972173325707
10608611 8 18336256938079703137
11405975 8 18409447012056893819
11471102 20 18341608222158674170
12236239 1 16271920494097665799
12403259 415 18113890542916850381
12617007 42 18341620300271310036
12916754 54 18342177821307350459
13134695 92 17561073714036620096
14341114 176 18411704283495377057
14866123 147 17261597270794354602
15196674 1 18410290359034376779
15242439 84 18408603634940655991
15536298 74 18340201985446716073
17041 50 18410008819332508714
17804303 29 18335422357040663767
17834072 8 18342176630968263863
1813 80 18059308556509777190
18186145 218 18114451327795128555
200 152 17703782618409032763
20286276 3 18265621072442846259
20645477 70 18272085015376510006
20671657 1 18339927133357295492
21065198 57 18408602591395452563
21267235 1 18411987940568765995
21285901 2 17986681359667113646
21478907 32 17979355253461686890
21503847 285 18333730230078207033
221357 26 18340201899816545037
221490 88 18336551632733837418
2215653 11 18342736274134484159
23175994 123 17989205923841449867
23402539 116 17489295361913804655
23558518 356 17976526540655810698
23559900 14 18411975884168064547
3004659 81 17969788484720178386
312423 11 18272094958536874055
314173 41 18410295779151670670
335352 9 18411417276553297063
351380 180 18412537709225111003
5104073 3 18336543915157427715
5281201 14 18409449223484821149
58051976 100 18411978074886858767
633830 44 18261383499074027235
7364860 26 18340768264511657040
7495541 125 18259707804403152954
77779 3 18410291458424867203
9709674 26 18264488558402237115
9971528 1 18060133228705869074
9981440 41 17689989463771017288
9999458 23 18261108582127242903

>  <PUBCHEM_SHAPE_MULTIPOLES>  (1) 
356.12
11.09
2.84
0.89
7.91
2.85
0.17
-2.54
1.69
-3.37
0.33
-0.7
0.06
0.85

>  <PUBCHEM_SHAPE_SELFOVERLAP>  (1) 
723.303

>  <PUBCHEM_SHAPE_VOLUME>  (1) 
208

>  <PUBCHEM_COORDINATE_TYPE>  (1) 
2
5
10

$$$$
