35090
     RDKit          3D

 15 16  0  0  0  0  0  0  0  0999 V2000
   -0.4487    1.1043    0.1289 N   0  0  0  0  0  0  0  0  0  0  0  0
    0.8868   -0.8092   -0.1011 N   0  0  0  0  0  0  0  0  0  0  0  0
    1.8820    1.3610    0.1386 N   0  0  0  0  0  0  0  0  0  0  0  0
    3.2753   -0.5786   -0.0944 N   0  0  0  0  0  0  0  0  0  0  0  0
   -1.7482    0.5585    0.0783 C   0  0  0  0  0  0  0  0  0  0  0  0
    0.8328    0.5252    0.0519 C   0  0  0  0  0  0  0  0  0  0  0  0
   -2.8030    1.3143   -0.4336 C   0  0  0  0  0  0  0  0  0  0  0  0
   -1.9787   -0.7373    0.5407 C   0  0  0  0  0  0  0  0  0  0  0  0
    2.1388   -1.2903   -0.1663 C   0  0  0  0  0  0  0  0  0  0  0  0
    3.0696    0.7395    0.0580 C   0  0  0  0  0  0  0  0  0  0  0  0
   -4.0883    0.7745   -0.4828 C   0  0  0  0  0  0  0  0  0  0  0  0
   -3.2641   -1.2770    0.4913 C   0  0  0  0  0  0  0  0  0  0  0  0
   -4.3188   -0.5211   -0.0205 C   0  0  0  0  0  0  0  0  0  0  0  0
    2.2816   -2.7644   -0.3358 C   0  0  0  0  0  0  0  0  0  0  0  0
    4.2831    1.6005    0.1467 C   0  0  0  0  0  0  0  0  0  0  0  0
  1  5  1  0
  1  6  1  0
  2  6  2  0
  2  9  1  0
  3  6  1  0
  3 10  2  0
  4  9  2  0
  4 10  1  0
  5  7  2  0
  5  8  1  0
  7 11  1  0
  8 12  2  0
  9 14  1  0
 10 15  1  0
 11 13  2  0
 12 13  1  0
M  END
>  <PUBCHEM_COMPOUND_CID>  (1) 
35090

>  <PUBCHEM_CONFORMER_RMSD>  (1) 
0.6

>  <PUBCHEM_CONFORMER_DIVERSEORDER>  (1) 
1
3
2

>  <PUBCHEM_MMFF94_PARTIAL_CHARGES>  (1) 
21
1 -0.6
10 0.48
11 -0.15
12 -0.15
13 -0.15
14 0.14
15 0.14
16 0.4
17 0.15
18 0.15
19 0.15
2 -0.62
20 0.15
21 0.15
3 -0.62
4 -0.62
5 0.1
6 0.72
7 -0.15
8 -0.15
9 0.48

>  <PUBCHEM_EFFECTIVE_ROTOR_COUNT>  (1) 
2

>  <PUBCHEM_PHARMACOPHORE_FEATURES>  (1) 
4
1 1 donor
4 1 2 3 6 cation
6 2 3 4 6 9 10 rings
6 5 7 8 11 12 13 rings

>  <PUBCHEM_HEAVY_ATOM_COUNT>  (1) 
15

>  <PUBCHEM_ATOM_DEF_STEREO_COUNT>  (1) 
0

>  <PUBCHEM_ATOM_UDEF_STEREO_COUNT>  (1) 
0

>  <PUBCHEM_BOND_DEF_STEREO_COUNT>  (1) 
0

>  <PUBCHEM_BOND_UDEF_STEREO_COUNT>  (1) 
0

>  <PUBCHEM_ISOTOPIC_ATOM_COUNT>  (1) 
0

>  <PUBCHEM_COMPONENT_COUNT>  (1) 
1

>  <PUBCHEM_CACTVS_TAUTO_COUNT>  (1) 
3

>  <PUBCHEM_CONFORMER_ID>  (1) 
0000891200000001

>  <PUBCHEM_MMFF94_ENERGY>  (1) 
46.6363

>  <PUBCHEM_FEATURE_SELFOVERLAP>  (1) 
20.297

>  <PUBCHEM_SHAPE_FINGERPRINT>  (1) 
10608611 8 18408318865534157757
10616163 171 18338801246509655407
11471102 20 18413106164999590660
11615757 297 17632581577766524633
13296908 3 18410294679423492227
13380535 76 18335420209572820618
14144814 61 18411984633042852673
14415576 193 18334580169883542628
15196674 1 18410011031209206043
15219456 202 18409167705695567905
15375358 24 18334011713607682099
15375462 6 18410855447280391284
15442244 35 18052823546101896560
15536298 74 18412826858754628050
17834074 16 18410013234485165935
18186145 218 17895475813237929167
19107657 46 18411139168741340399
200 152 18060415837680598181
20201158 50 18409731755171335547
20279233 1 18334298673257590739
204376 136 18270116967309922176
20645477 56 18114179701505930189
20645477 70 18272087154264909959
21501502 16 18199192784570306961
221490 88 18409738330845783146
22169311 21 18335979796587714159
22485316 2 18342174475342716775
23402539 116 17676757768858636221
23402655 69 18342171150938088885
23557571 272 17603863373515679453
23559900 14 18338510820899831434
2871803 45 18409166605994244054
33824 294 18410855473235064594
3545911 37 18408324384640875701
474229 33 18266740362789925178
5104073 3 18408886213570786961
58051976 378 18410855494551424828
581208 293 18413386549033470114
69090 78 18410569587780374703
7364860 26 18341895143607759110
77779 3 18410857638072336709
81539 233 18408604786176273958
9709674 26 18407764737565005171

>  <PUBCHEM_SHAPE_MULTIPOLES>  (1) 
288.77
8.47
2.08
0.68
1.87
1.08
0
-1.13
-0.26
-1.66
-0.16
0.19
0.03
0.72

>  <PUBCHEM_SHAPE_SELFOVERLAP>  (1) 
612.145

>  <PUBCHEM_SHAPE_VOLUME>  (1) 
155.5

>  <PUBCHEM_COORDINATE_TYPE>  (1) 
2
5
10

$$$$
