3510
     RDKit          3D

 23 26  0  0  1  0  0  0  0  0999 V2000
    0.4113   -1.6839   -0.0538 O   0  0  0  0  0  0  0  0  0  0  0  0
   -4.6527    0.7823    0.5198 N   0  0  0  0  0  0  0  0  0  0  0  0
   -0.5157    0.4196   -0.2317 N   0  0  0  0  0  0  0  0  0  0  0  0
    1.9636    1.4702   -0.1569 N   0  0  0  0  0  0  0  0  0  0  0  0
    3.2900    1.6756   -0.0987 N   0  0  0  0  0  0  0  0  0  0  0  0
   -3.9605   -0.2726    1.2744 C   0  0  0  0  0  0  0  0  0  0  0  0
   -4.2708    0.7228   -0.8986 C   0  0  0  0  0  0  0  0  0  0  0  0
   -2.4261   -0.1646    1.1797 C   0  0  0  0  0  0  0  0  0  0  0  0
   -2.7537    0.8869   -1.1150 C   0  0  0  0  0  0  0  0  0  0  0  0
   -1.8884   -0.0332   -0.2480 C   0  0  0  0  0  0  0  0  0  0  0  0
   -4.5109   -1.6330    0.8028 C   0  0  0  0  0  0  0  0  0  0  0  0
   -4.8382   -0.5833   -1.4888 C   0  0  0  0  0  0  0  0  0  0  0  0
   -4.4691   -1.8448   -0.7098 C   0  0  0  0  0  0  0  0  0  0  0  0
   -4.4936    2.1096    1.1051 C   0  0  0  0  0  0  0  0  0  0  0  0
    0.5526   -0.4641   -0.1333 C   0  0  0  0  0  0  0  0  0  0  0  0
    1.8849    0.1550   -0.0964 C   0  0  0  0  0  0  0  0  0  0  0  0
    3.1048   -0.5074   -0.0014 C   0  0  0  0  0  0  0  0  0  0  0  0
    4.0317    0.5289   -0.0048 C   0  0  0  0  0  0  0  0  0  0  0  0
    3.5567   -1.8346    0.0872 C   0  0  0  0  0  0  0  0  0  0  0  0
    5.4099    0.3183    0.0762 C   0  0  0  0  0  0  0  0  0  0  0  0
    3.7947    3.0287   -0.1404 C   0  0  0  0  0  0  0  0  0  0  0  0
    4.9352   -2.0679    0.1692 C   0  0  0  0  0  0  0  0  0  0  0  0
    5.8443   -1.0084    0.1632 C   0  0  0  0  0  0  0  0  0  0  0  0
  1 15  2  0
  2  6  1  0
  2  7  1  0
  2 14  1  0
  3 10  1  0
  3 15  1  0
  4  5  1  0
  4 16  2  0
  5 18  1  0
  5 21  1  0
  6  8  1  0
  6 11  1  0
  7  9  1  0
  7 12  1  0
  8 10  1  0
  9 10  1  0
 11 13  1  0
 12 13  1  0
 15 16  1  0
 16 17  1  0
 17 18  2  0
 17 19  1  0
 18 20  1  0
 19 22  2  0
 20 23  2  0
 22 23  1  0
M  END
>  <PUBCHEM_COMPOUND_CID>  (1) 
3510

>  <PUBCHEM_CONFORMER_RMSD>  (1) 
0.8

>  <PUBCHEM_CONFORMER_DIVERSEORDER>  (1) 
1
12
22
14
19
26
20
9
13
23
21
25
7
18
24
16
11
10
4
8
17
15
2
6
3
5

>  <PUBCHEM_MMFF94_PARTIAL_CHARGES>  (1) 
22
1 -0.57
10 0.3
14 0.27
15 0.72
16 0.2
18 -0.15
19 -0.15
2 -0.81
20 -0.15
21 0.26
22 -0.15
23 -0.15
3 -0.73
4 -0.71
40 0.37
41 0.15
42 0.15
46 0.15
47 0.15
5 0.31
6 0.27
7 0.27

>  <PUBCHEM_EFFECTIVE_ROTOR_COUNT>  (1) 
4.4

>  <PUBCHEM_PHARMACOPHORE_FEATURES>  (1) 
8
1 1 acceptor
1 2 cation
1 3 donor
1 4 acceptor
5 4 5 16 17 18 rings
6 17 18 19 20 22 23 rings
6 2 6 7 11 12 13 rings
6 2 6 7 8 9 10 rings

>  <PUBCHEM_HEAVY_ATOM_COUNT>  (1) 
23

>  <PUBCHEM_ATOM_DEF_STEREO_COUNT>  (1) 
0

>  <PUBCHEM_ATOM_UDEF_STEREO_COUNT>  (1) 
2

>  <PUBCHEM_BOND_DEF_STEREO_COUNT>  (1) 
0

>  <PUBCHEM_BOND_UDEF_STEREO_COUNT>  (1) 
0

>  <PUBCHEM_ISOTOPIC_ATOM_COUNT>  (1) 
0

>  <PUBCHEM_COMPONENT_COUNT>  (1) 
1

>  <PUBCHEM_CACTVS_TAUTO_COUNT>  (1) 
2

>  <PUBCHEM_CONFORMER_ID>  (1) 
00000DB600000001

>  <PUBCHEM_MMFF94_ENERGY>  (1) 
42.0412

>  <PUBCHEM_FEATURE_SELFOVERLAP>  (1) 
42.156

>  <PUBCHEM_SHAPE_FINGERPRINT>  (1) 
10595046 47 18342456001579629085
10680689 15 17095523981171535293
10912923 1 17989209273805235625
11315181 36 18413386545018051765
11370993 144 18334863762415981185
11405975 8 18409733937019938369
11545043 162 17313109656684967809
12107183 9 17909273481269681619
12166972 35 18202562895495066784
12236239 1 17847058874596063902
12403259 415 17894345579577391765
12507557 5 18413671300927880993
12596602 18 17632855339372491906
12616971 3 18201728361774052593
12916754 54 18409727383168752951
13073987 5 18343302599636703448
13167823 11 18413105078214914591
13583140 156 18187362138376919383
13782708 43 17385998430649626738
13911852 28 18121213187316143914
14341114 176 18335146349372685048
14573314 32 17458343018190539374
15183329 4 18261390023171502466
15196674 1 18409449201962557188
15250474 111 18272642480651881167
15788980 27 18343582936578786739
15961568 22 16588588742206867324
17349148 13 17846785113206803378
17844677 252 18411986866241444549
17857418 61 18412538821068123110
18222031 100 16225763055660453734
19489759 90 16732978734932115463
200 152 18343861117563559659
20028762 73 18272927233000108942
20645477 70 18409445878280550870
21033648 29 17458613519399371085
21033650 10 15768959925183933658
21065198 57 18334861623063332009
21065201 7 16877657972108991281
21682296 61 18269839710007446846
21709351 56 18412260614566370943
22393880 68 17822561764051006291
23402539 116 18131631162302840041
23522609 53 18117870766230152060
23559900 14 17894627067206836996
2838139 119 18268426829434996069
34797466 226 15285941138449976270
4015057 19 18336545027216548113
4073 2 18041003968092017738
4214541 1 18410012122141305809
5104073 3 18408886243440314113
542803 24 17632576041680137438
602551 16 16153717556524556296
67856867 119 18272647987047445448
7495541 125 17632290228712735098
90127 26 17603584140401217973

>  <PUBCHEM_SHAPE_MULTIPOLES>  (1) 
447.54
14.73
2.32
1.06
3.48
0.78
0.01
-1.79
0.38
1.45
0.1
-1.78
0.02
-0.64

>  <PUBCHEM_SHAPE_SELFOVERLAP>  (1) 
968.59

>  <PUBCHEM_SHAPE_VOLUME>  (1) 
246.7

>  <PUBCHEM_COORDINATE_TYPE>  (1) 
2
5
10

$$$$
