35107
     RDKit          3D

 12 12  0  0  0  0  0  0  0  0999 V2000
   -1.7269   -2.1114   -0.0020 O   0  0  0  0  0  0  0  0  0  0  0  0
    1.9599    0.7354    0.0058 N   0  0  0  0  0  0  0  0  0  0  0  0
    0.1290   -0.7299    0.0022 N   0  0  0  0  0  0  0  0  0  0  0  0
   -0.2008    1.6468    0.0018 N   0  0  0  0  0  0  0  0  0  0  0  0
   -2.0943    0.1728   -0.0020 N   0  0  0  0  0  0  0  0  0  0  0  0
   -2.3853    2.4997   -0.0028 N   0  0  0  0  0  0  0  0  0  0  0  0
    2.9186   -0.3423    0.0075 C   0  0  0  0  0  0  0  0  0  0  0  0
    0.5865    0.5449    0.0031 C   0  0  0  0  0  0  0  0  0  0  0  0
    4.3294    0.2138   -0.0119 C   0  0  0  0  0  0  0  0  0  0  0  0
   -1.2095   -0.8373   -0.0005 C   0  0  0  0  0  0  0  0  0  0  0  0
   -1.5180    1.3856   -0.0008 C   0  0  0  0  0  0  0  0  0  0  0  0
   -0.7887   -3.1780   -0.0005 C   0  0  0  0  0  0  0  0  0  0  0  0
  1 10  1  0
  1 12  1  0
  2  7  1  0
  2  8  1  0
  3  8  2  0
  3 10  1  0
  4  8  1  0
  4 11  2  0
  5 10  2  0
  5 11  1  0
  6 11  1  0
  7  9  1  0
M  END
>  <PUBCHEM_COMPOUND_CID>  (1) 
35107

>  <PUBCHEM_CONFORMER_RMSD>  (1) 
0.6

>  <PUBCHEM_CONFORMER_DIVERSEORDER>  (1) 
1
5
7
8
10
9
6
2
4
3
11

>  <PUBCHEM_MMFF94_PARTIAL_CHARGES>  (1) 
14
1 -0.36
10 0.7
11 0.72
12 0.28
15 0.4
19 0.4
2 -0.87
20 0.4
3 -0.62
4 -0.62
5 -0.62
6 -0.9
7 0.37
8 0.72

>  <PUBCHEM_EFFECTIVE_ROTOR_COUNT>  (1) 
3

>  <PUBCHEM_PHARMACOPHORE_FEATURES>  (1) 
5
1 2 donor
1 6 donor
4 2 3 4 8 cation
4 4 5 6 11 cation
6 3 4 5 8 10 11 rings

>  <PUBCHEM_HEAVY_ATOM_COUNT>  (1) 
12

>  <PUBCHEM_ATOM_DEF_STEREO_COUNT>  (1) 
0

>  <PUBCHEM_ATOM_UDEF_STEREO_COUNT>  (1) 
0

>  <PUBCHEM_BOND_DEF_STEREO_COUNT>  (1) 
0

>  <PUBCHEM_BOND_UDEF_STEREO_COUNT>  (1) 
0

>  <PUBCHEM_ISOTOPIC_ATOM_COUNT>  (1) 
0

>  <PUBCHEM_COMPONENT_COUNT>  (1) 
1

>  <PUBCHEM_CACTVS_TAUTO_COUNT>  (1) 
9

>  <PUBCHEM_CONFORMER_ID>  (1) 
0000892300000001

>  <PUBCHEM_MMFF94_ENERGY>  (1) 
34.5757

>  <PUBCHEM_FEATURE_SELFOVERLAP>  (1) 
25.414

>  <PUBCHEM_SHAPE_FINGERPRINT>  (1) 
1 1 17905326225904362749
12500047 106 18339635655955432472
12716758 59 18413101754052314624
13024252 1 14851605474960130349
13380535 76 18269833125442098262
14325111 11 18338516318510867104
15669948 3 18408600383834834362
16945 1 18410574019527111208
19021347 4 18338520716330336651
193761 8 18050286165570984137
20510252 161 18272373031509336944
20524608 308 18412826880472096646
20645476 183 18042990712789327526
20645477 70 16535934474234916535
20711985 365 18337109089286631606
20871998 184 18200598106617722446
20871998 22 17762618790627347899
21040471 1 18338516326805376617
23402539 116 18342447162826876751
23552423 10 18043812206772936732
23559900 14 18271805671800375590
241688 4 15744721895402436259
257057 1 17836076045813945679
2748010 2 18193851335776279831
3071541 12 17330837915904698549
6333449 129 18411697673398283532
7364860 26 17475512781226496231
75552 356 18410575106581027140
81228 2 18265887128502119625

>  <PUBCHEM_SHAPE_MULTIPOLES>  (1) 
216.18
4.82
2.85
0.57
6.92
1.68
0
-0.96
0.01
-2.87
0
0.04
0.02
0

>  <PUBCHEM_SHAPE_SELFOVERLAP>  (1) 
432.686

>  <PUBCHEM_SHAPE_VOLUME>  (1) 
124.4

>  <PUBCHEM_COORDINATE_TYPE>  (1) 
2
5
10

$$$$
