35101
     RDKit          3D

 10 10  0  0  0  0  0  0  0  0999 V2000
   -1.0843    0.7128    0.0549 N   0  0  0  0  0  0  0  0  0  0  0  0
    1.1755    1.2881    0.2986 N   0  0  0  0  0  0  0  0  0  0  0  0
    0.5358   -0.9403   -0.3206 N   0  0  0  0  0  0  0  0  0  0  0  0
    2.8569   -0.3816   -0.0795 N   0  0  0  0  0  0  0  0  0  0  0  0
   -2.1770   -0.1916   -0.2315 C   0  0  0  0  0  0  0  0  0  0  0  0
   -3.4136    0.6167   -0.6012 C   0  0  0  0  0  0  0  0  0  0  0  0
   -2.4349   -1.0777    0.9803 C   0  0  0  0  0  0  0  0  0  0  0  0
    0.2484    0.3424    0.0097 C   0  0  0  0  0  0  0  0  0  0  0  0
    2.4458    0.8577    0.2343 C   0  0  0  0  0  0  0  0  0  0  0  0
    1.8475   -1.2265   -0.3449 C   0  0  0  0  0  0  0  0  0  0  0  0
  1  5  1  0
  1  8  1  0
  2  8  2  0
  2  9  1  0
  3  8  1  0
  3 10  2  0
  4  9  2  0
  4 10  1  0
  5  6  1  0
  5  7  1  0
M  END
>  <PUBCHEM_COMPOUND_CID>  (1) 
35101

>  <PUBCHEM_CONFORMER_RMSD>  (1) 
0.4

>  <PUBCHEM_CONFORMER_DIVERSEORDER>  (1) 
1
10
3
12
11
2
14
7
9
8
13
6
5
4

>  <PUBCHEM_MMFF94_PARTIAL_CHARGES>  (1) 
11
1 -0.87
10 0.47
18 0.4
19 0.15
2 -0.62
20 0.15
3 -0.62
4 -0.62
5 0.37
8 0.72
9 0.47

>  <PUBCHEM_EFFECTIVE_ROTOR_COUNT>  (1) 
2

>  <PUBCHEM_PHARMACOPHORE_FEATURES>  (1) 
4
1 1 donor
3 5 6 7 hydrophobe
4 1 2 3 8 cation
6 2 3 4 8 9 10 rings

>  <PUBCHEM_HEAVY_ATOM_COUNT>  (1) 
10

>  <PUBCHEM_ATOM_DEF_STEREO_COUNT>  (1) 
0

>  <PUBCHEM_ATOM_UDEF_STEREO_COUNT>  (1) 
0

>  <PUBCHEM_BOND_DEF_STEREO_COUNT>  (1) 
0

>  <PUBCHEM_BOND_UDEF_STEREO_COUNT>  (1) 
0

>  <PUBCHEM_ISOTOPIC_ATOM_COUNT>  (1) 
0

>  <PUBCHEM_COMPONENT_COUNT>  (1) 
1

>  <PUBCHEM_CACTVS_TAUTO_COUNT>  (1) 
3

>  <PUBCHEM_CONFORMER_ID>  (1) 
0000891D00000001

>  <PUBCHEM_MMFF94_ENERGY>  (1) 
22.8456

>  <PUBCHEM_FEATURE_SELFOVERLAP>  (1) 
20.297

>  <PUBCHEM_SHAPE_FINGERPRINT>  (1) 
10857977 72 18261390113006846867
11062470 55 18343579616780089581
12897270 3 18410856551107942317
12932741 1 18334016094542915175
12932764 1 17703791457029611369
14325111 11 18411416249739549925
20201158 50 18410572855749378951
20279233 1 18335419079911902179
20645477 70 18272365322296202831
21040471 1 18198620141323792444
23402655 69 18270949160331594061
29004967 10 18413112753368555586
3248919 1 18334010609859239069

>  <PUBCHEM_SHAPE_MULTIPOLES>  (1) 
185.87
5.01
1.29
0.77
1.68
0.1
0.06
-0.13
-0.24
-0.22
0.08
0.32
0.1
0.63

>  <PUBCHEM_SHAPE_SELFOVERLAP>  (1) 
369.607

>  <PUBCHEM_SHAPE_VOLUME>  (1) 
104.2

>  <PUBCHEM_COORDINATE_TYPE>  (1) 
2
5
10

$$$$
