35105
     RDKit          3D

 15 15  0  0  0  0  0  0  0  0999 V2000
   -0.0935    4.4095   -0.0027 Br  0  0  0  0  0  0  0  0  0  0  0  0
    2.3395   -0.0968    0.0820 N   0  0  0  0  0  0  0  0  0  0  0  0
   -2.3465   -0.1894   -0.0823 N   0  0  0  0  0  0  0  0  0  0  0  0
   -0.0030   -0.1749    0.0006 N   0  0  0  0  0  0  0  0  0  0  0  0
   -1.2429    1.8789   -0.0428 N   0  0  0  0  0  0  0  0  0  0  0  0
    1.1548    1.9264    0.0412 N   0  0  0  0  0  0  0  0  0  0  0  0
    2.4592   -1.5388    0.0876 C   0  0  0  0  0  0  0  0  0  0  0  0
   -2.3896   -1.6182   -0.0862 C   0  0  0  0  0  0  0  0  0  0  0  0
    3.8192   -1.9275    0.6519 C   0  0  0  0  0  0  0  0  0  0  0  0
    2.2732   -2.0701   -1.3278 C   0  0  0  0  0  0  0  0  0  0  0  0
   -3.7269   -2.0786   -0.6510 C   0  0  0  0  0  0  0  0  0  0  0  0
   -2.1770   -2.1375    1.3299 C   0  0  0  0  0  0  0  0  0  0  0  0
    1.1281    0.5712    0.0402 C   0  0  0  0  0  0  0  0  0  0  0  0
   -1.1387    0.5402   -0.0393 C   0  0  0  0  0  0  0  0  0  0  0  0
   -0.0559    2.5055   -0.0014 C   0  0  0  0  0  0  0  0  0  0  0  0
  1 15  1  0
  2  7  1  0
  2 13  1  0
  3  8  1  0
  3 14  1  0
  4 13  2  0
  4 14  1  0
  5 14  2  0
  5 15  1  0
  6 13  1  0
  6 15  2  0
  7  9  1  0
  7 10  1  0
  8 11  1  0
  8 12  1  0
M  END
>  <PUBCHEM_COMPOUND_CID>  (1) 
35105

>  <PUBCHEM_CONFORMER_RMSD>  (1) 
0.6

>  <PUBCHEM_CONFORMER_DIVERSEORDER>  (1) 
1
26
34
11
45
12
33
35
42
14
28
41
13
44
20
7
21
46
18
19
32
17
25
4
5
24
36
22
30
16
23
10
39
40
29
6
37
15
38
43
9
27
31
2
3
8

>  <PUBCHEM_MMFF94_PARTIAL_CHARGES>  (1) 
13
1 -0.11
13 0.72
14 0.72
15 0.73
18 0.4
19 0.4
2 -0.87
3 -0.87
4 -0.62
5 -0.62
6 -0.62
7 0.37
8 0.37

>  <PUBCHEM_EFFECTIVE_ROTOR_COUNT>  (1) 
4

>  <PUBCHEM_PHARMACOPHORE_FEATURES>  (1) 
8
1 1 hydrophobe
1 2 donor
1 3 donor
3 7 9 10 hydrophobe
3 8 11 12 hydrophobe
4 2 4 6 13 cation
4 3 4 5 14 cation
6 4 5 6 13 14 15 rings

>  <PUBCHEM_HEAVY_ATOM_COUNT>  (1) 
15

>  <PUBCHEM_ATOM_DEF_STEREO_COUNT>  (1) 
0

>  <PUBCHEM_ATOM_UDEF_STEREO_COUNT>  (1) 
0

>  <PUBCHEM_BOND_DEF_STEREO_COUNT>  (1) 
0

>  <PUBCHEM_BOND_UDEF_STEREO_COUNT>  (1) 
0

>  <PUBCHEM_ISOTOPIC_ATOM_COUNT>  (1) 
0

>  <PUBCHEM_COMPONENT_COUNT>  (1) 
1

>  <PUBCHEM_CACTVS_TAUTO_COUNT>  (1) 
5

>  <PUBCHEM_CONFORMER_ID>  (1) 
0000892100000001

>  <PUBCHEM_MMFF94_ENERGY>  (1) 
33.7667

>  <PUBCHEM_FEATURE_SELFOVERLAP>  (1) 
40.637

>  <PUBCHEM_SHAPE_FINGERPRINT>  (1) 
1 1 17689435305346215557
11322862 65 17618514181087318039
116883 192 18341331076719910253
12363563 72 18410012143310921262
12500047 106 17618784657291307678
12532896 13 17476071324680914364
12553582 1 18338530693365714070
13140716 1 18409735023451394593
15309172 13 17113546368209677937
17990270 104 18266175209207265531
19591789 44 17331687838714573353
20510252 161 17623282780487547760
20645476 183 17398136871167909054
20645477 70 17977656834482904839
20671657 53 18411133671273067127
20711985 344 18192431870370053130
20871998 184 18129654184799121966
20871998 22 18411415145917091722
21452121 199 18336254721850120304
21665056 4 17545324072940488102
2255824 54 17981049931148959661
23402539 116 17981306920665224925
23526113 38 18115858771509194971
23530152 11 17113539770696838565
23557571 272 18056199060501598878
257057 1 18410848867358702157
2748010 2 18412819200901837908
3060560 45 17761209221026186141
3091708 16 9281888591262237177
33824 294 17472983277718703331
576247 118 17978271310478474498
6025842 7 17835513105168001055
6338986 31 18411411821676039351
7364860 26 18123470750321124009
81228 2 18266465295382369272
8272917 22 17980486977412527407
88987 49 17905899076422299606
9709674 26 17911793579575653958

>  <PUBCHEM_SHAPE_MULTIPOLES>  (1) 
289.73
5.09
4.81
0.91
1.18
6.28
0
-6.56
-0.01
-1.11
0
0.04
-0.63
0.14

>  <PUBCHEM_SHAPE_SELFOVERLAP>  (1) 
560.413

>  <PUBCHEM_SHAPE_VOLUME>  (1) 
180

>  <PUBCHEM_COORDINATE_TYPE>  (1) 
2
5
10

$$$$
