35100
     RDKit          3D

 16 17  0  0  0  0  0  0  0  0999 V2000
   -5.5866    0.8189    0.0557 Cl  0  0  0  0  0  0  0  0  0  0  0  0
   -0.0169   -1.1816   -0.1303 N   0  0  0  0  0  0  0  0  0  0  0  0
    1.2149    0.8006    0.0975 N   0  0  0  0  0  0  0  0  0  0  0  0
    2.3241   -1.3147   -0.1326 N   0  0  0  0  0  0  0  0  0  0  0  0
    3.6122    0.6966    0.0983 N   0  0  0  0  0  0  0  0  0  0  0  0
   -1.3436   -0.7049   -0.0850 C   0  0  0  0  0  0  0  0  0  0  0  0
    1.2320   -0.5353   -0.0514 C   0  0  0  0  0  0  0  0  0  0  0  0
   -2.3584   -1.5137    0.4262 C   0  0  0  0  0  0  0  0  0  0  0  0
   -1.6408    0.5752   -0.5526 C   0  0  0  0  0  0  0  0  0  0  0  0
    2.4395    1.3473    0.1648 C   0  0  0  0  0  0  0  0  0  0  0  0
    3.4769   -0.6310   -0.0506 C   0  0  0  0  0  0  0  0  0  0  0  0
   -3.6706   -1.0425    0.4698 C   0  0  0  0  0  0  0  0  0  0  0  0
   -2.9529    1.0467   -0.5089 C   0  0  0  0  0  0  0  0  0  0  0  0
   -3.9679    0.2378    0.0023 C   0  0  0  0  0  0  0  0  0  0  0  0
    2.5036    2.8275    0.3300 C   0  0  0  0  0  0  0  0  0  0  0  0
    4.7346   -1.4270   -0.1331 C   0  0  0  0  0  0  0  0  0  0  0  0
  1 14  1  0
  2  6  1  0
  2  7  1  0
  3  7  2  0
  3 10  1  0
  4  7  1  0
  4 11  2  0
  5 10  2  0
  5 11  1  0
  6  8  2  0
  6  9  1  0
  8 12  1  0
  9 13  2  0
 10 15  1  0
 11 16  1  0
 12 14  2  0
 13 14  1  0
M  END
>  <PUBCHEM_COMPOUND_CID>  (1) 
35100

>  <PUBCHEM_CONFORMER_RMSD>  (1) 
0.6

>  <PUBCHEM_CONFORMER_DIVERSEORDER>  (1) 
1
4
2
3

>  <PUBCHEM_MMFF94_PARTIAL_CHARGES>  (1) 
21
1 -0.18
10 0.48
11 0.48
12 -0.15
13 -0.15
14 0.18
15 0.14
16 0.14
17 0.4
18 0.15
19 0.15
2 -0.6
20 0.15
21 0.15
3 -0.62
4 -0.62
5 -0.62
6 0.1
7 0.72
8 -0.15
9 -0.15

>  <PUBCHEM_EFFECTIVE_ROTOR_COUNT>  (1) 
2

>  <PUBCHEM_PHARMACOPHORE_FEATURES>  (1) 
4
1 2 donor
4 2 3 4 7 cation
6 3 4 5 7 10 11 rings
6 6 8 9 12 13 14 rings

>  <PUBCHEM_HEAVY_ATOM_COUNT>  (1) 
16

>  <PUBCHEM_ATOM_DEF_STEREO_COUNT>  (1) 
0

>  <PUBCHEM_ATOM_UDEF_STEREO_COUNT>  (1) 
0

>  <PUBCHEM_BOND_DEF_STEREO_COUNT>  (1) 
0

>  <PUBCHEM_BOND_UDEF_STEREO_COUNT>  (1) 
0

>  <PUBCHEM_ISOTOPIC_ATOM_COUNT>  (1) 
0

>  <PUBCHEM_COMPONENT_COUNT>  (1) 
1

>  <PUBCHEM_CACTVS_TAUTO_COUNT>  (1) 
3

>  <PUBCHEM_CONFORMER_ID>  (1) 
0000891C00000001

>  <PUBCHEM_MMFF94_ENERGY>  (1) 
47.4273

>  <PUBCHEM_FEATURE_SELFOVERLAP>  (1) 
20.297

>  <PUBCHEM_SHAPE_FINGERPRINT>  (1) 
10608611 8 18408881871269243957
11405975 8 18409449202226431675
11471102 20 18413387640013114150
11615757 297 18130794477004002467
12403259 415 18113611262515551165
12507557 5 18341894099534814272
12507560 40 18335987574889635739
12916754 54 18341333396197805355
13081056 2 18408321086280007253
13134695 92 17561073701336347456
13922767 16 18413387635639129514
14341114 176 18408329882056563793
14866123 147 16899336733953242650
15196674 1 18409730698408758117
15219456 202 18410011078163533595
15242439 84 18334013869707800799
15442244 35 18340488872409358312
15536298 74 18411981398790138284
15653759 3 18113617893311721650
17802600 8 18408881815445186197
17804303 29 18334862705389945830
17834072 33 18201153343384626663
18186145 218 17967524692544613843
18522853 276 18343581819924252240
19433438 15 17561360690982331861
200 152 17917988378410067735
20528008 55 18334855030889880303
20645477 56 18259987050935194367
20645477 70 18343865502514504006
21065198 57 18409168839635720339
21065199 12 18335985388582418763
21267235 1 18410301276277136975
212847 35 18334580131149527228
221490 88 18336553827709986946
22854114 111 18340767143203237992
23402539 116 18273206474877544727
23402655 69 18343582962221977172
23558518 356 17972877248504233978
23559900 14 18411133649565738954
3004659 81 18041848290819108214
335352 9 18410292471588691471
351380 180 18411696582608264311
42 15 18259987063097565527
4214541 1 18410293614424642131
5104073 3 18336547204801663571
58051976 100 18412825806720191247
633830 44 18114176479673517091
69090 78 18411695496213978431
7364860 26 18341612672341034584
77779 3 18409731798157840723
8809292 202 18260552225033075498
9709674 26 18263646328068440107
9971528 1 18131630059118646242

>  <PUBCHEM_SHAPE_MULTIPOLES>  (1) 
311.22
10.19
2.04
0.68
3.91
1.03
0
0.18
-0.28
-1.65
-0.22
0.17
0.02
0.64

>  <PUBCHEM_SHAPE_SELFOVERLAP>  (1) 
651.142

>  <PUBCHEM_SHAPE_VOLUME>  (1) 
175.6

>  <PUBCHEM_COORDINATE_TYPE>  (1) 
2
5
10

$$$$
