35115
     RDKit          3D

 17 17  0  0  0  0  0  0  0  0999 V2000
    1.5241    1.3208   -0.0011 O   0  0  0  0  0  0  0  0  0  0  0  0
   -3.1199    1.6808   -0.0043 N   0  0  0  0  0  0  0  0  0  0  0  0
   -1.0794   -2.5416   -0.0062 N   0  0  0  0  0  0  0  0  0  0  0  0
    0.2649   -0.6202   -0.0039 N   0  0  0  0  0  0  0  0  0  0  0  0
   -0.7791    1.5402   -0.0031 N   0  0  0  0  0  0  0  0  0  0  0  0
   -2.1282   -0.4441   -0.0055 N   0  0  0  0  0  0  0  0  0  0  0  0
    3.9183    1.3040    0.0218 C   0  0  0  0  0  0  0  0  0  0  0  0
    5.1751    0.4386    0.0074 C   0  0  0  0  0  0  0  0  0  0  0  0
    2.6531    0.4581   -0.0007 C   0  0  0  0  0  0  0  0  0  0  0  0
    6.4361    1.2876   -0.0138 C   0  0  0  0  0  0  0  0  0  0  0  0
    0.2899    0.7243   -0.0027 C   0  0  0  0  0  0  0  0  0  0  0  0
   -1.9523    0.8871   -0.0044 C   0  0  0  0  0  0  0  0  0  0  0  0
   -0.9759   -1.1336   -0.0050 C   0  0  0  0  0  0  0  0  0  0  0  0
   -4.4362    1.1236   -0.0053 C   0  0  0  0  0  0  0  0  0  0  0  0
    0.0614   -3.4028   -0.0058 C   0  0  0  0  0  0  0  0  0  0  0  0
   -5.4722    2.2310    0.0175 C   0  0  0  0  0  0  0  0  0  0  0  0
   -0.3796   -4.8538    0.0151 C   0  0  0  0  0  0  0  0  0  0  0  0
  1  9  1  0
  1 11  1  0
  2 12  1  0
  2 14  1  0
  3 13  1  0
  3 15  1  0
  4 11  2  0
  4 13  1  0
  5 11  1  0
  5 12  2  0
  6 12  1  0
  6 13  2  0
  7  8  1  0
  7  9  1  0
  8 10  1  0
 14 16  1  0
 15 17  1  0
M  END
>  <PUBCHEM_COMPOUND_CID>  (1) 
35115

>  <PUBCHEM_CONFORMER_RMSD>  (1) 
0.8

>  <PUBCHEM_CONFORMER_DIVERSEORDER>  (1) 
1
42
37
53
24
18
9
31
14
47
39
6
20
34
21
36
4
10
32
44
35
27
16
25
26
2
12
41
38
28
17
40
5
52
23
22
51
33
8
29
49
11
45
54
3
50
19
7
46
30
15
48
13
43

>  <PUBCHEM_MMFF94_PARTIAL_CHARGES>  (1) 
14
1 -0.36
11 0.7
12 0.72
13 0.72
14 0.37
15 0.37
2 -0.87
3 -0.87
31 0.4
32 0.4
4 -0.62
5 -0.62
6 -0.62
9 0.28

>  <PUBCHEM_EFFECTIVE_ROTOR_COUNT>  (1) 
8

>  <PUBCHEM_PHARMACOPHORE_FEATURES>  (1) 
6
1 10 hydrophobe
1 2 donor
1 3 donor
4 2 5 6 12 cation
4 3 4 6 13 cation
6 4 5 6 11 12 13 rings

>  <PUBCHEM_HEAVY_ATOM_COUNT>  (1) 
17

>  <PUBCHEM_ATOM_DEF_STEREO_COUNT>  (1) 
0

>  <PUBCHEM_ATOM_UDEF_STEREO_COUNT>  (1) 
0

>  <PUBCHEM_BOND_DEF_STEREO_COUNT>  (1) 
0

>  <PUBCHEM_BOND_UDEF_STEREO_COUNT>  (1) 
0

>  <PUBCHEM_ISOTOPIC_ATOM_COUNT>  (1) 
0

>  <PUBCHEM_COMPONENT_COUNT>  (1) 
1

>  <PUBCHEM_CACTVS_TAUTO_COUNT>  (1) 
5

>  <PUBCHEM_CONFORMER_ID>  (1) 
0000892B00000001

>  <PUBCHEM_MMFF94_ENERGY>  (1) 
34.9676

>  <PUBCHEM_FEATURE_SELFOVERLAP>  (1) 
30.489

>  <PUBCHEM_SHAPE_FINGERPRINT>  (1) 
10411042 1 17545884188464277638
10616163 171 18267024045818228054
12500047 106 18340203085496394520
12757275 245 18266178521154519406
13052359 8 18338238274891253095
13257819 101 17168970206929792053
138480 1 17618221702721464322
13968360 50 18335411323675784415
14866123 147 18339079422751386627
15042514 8 18048883188734279987
15927050 60 18412262826602213662
167882 2 18193272992591751051
17539 30 18054221308828023319
187816 3 17918274238042466361
18915476 22 18046048373243320797
19141452 34 18335419102019962396
20286276 3 18050291659340655372
20554085 129 17986934315564885800
20645477 56 18410012152264612372
20645477 70 18046901586119638397
20681677 155 18336543906657286760
21054139 6 18342163493596651197
212916 134 18270944796201527872
21478907 32 17834113426264792779
22224240 67 18341619222382465305
22849339 104 18267325277343742750
23402539 116 18272082812047984669
23558518 356 17900822966049238192
23598288 3 17898586511884533206
293599 30 18410011018124246864
3071541 37 18264494975330835909
3091708 16 9265590530635997467
366044 4 18410011022487513153
3759504 43 18408041835806088647
474229 33 18408888464629333019
532947 4 18268999678622915982
5385378 56 18267310820336046473
54173680 148 18050286169681179214
559249 180 18334571361401250282
59755656 520 18410005537882562484
7364860 26 18123469371974284067
77188 2 17185596256865708935
81539 233 18262518074909461125
9709674 26 18271533104264402222

>  <PUBCHEM_SHAPE_MULTIPOLES>  (1) 
319.08
10.84
4.34
0.59
10.32
8.94
0
-12.44
-0.02
-2.68
-0.02
0.03
0.01
-0.01

>  <PUBCHEM_SHAPE_SELFOVERLAP>  (1) 
622.73

>  <PUBCHEM_SHAPE_VOLUME>  (1) 
189.2

>  <PUBCHEM_COORDINATE_TYPE>  (1) 
2
5
10

$$$$
