35116
     RDKit          3D

 16 16  0  0  0  0  0  0  0  0999 V2000
    1.8224    1.5102   -0.1539 O   0  0  0  0  0  0  0  0  0  0  0  0
   -2.8324    1.4767    0.0111 N   0  0  0  0  0  0  0  0  0  0  0  0
   -0.4409   -2.5575    0.0152 N   0  0  0  0  0  0  0  0  0  0  0  0
   -1.6639   -0.5566    0.0142 N   0  0  0  0  0  0  0  0  0  0  0  0
    0.7340   -0.5299   -0.0711 N   0  0  0  0  0  0  0  0  0  0  0  0
   -0.4896    1.5342   -0.0735 N   0  0  0  0  0  0  0  0  0  0  0  0
   -4.0956    0.8104    0.0710 C   0  0  0  0  0  0  0  0  0  0  0  0
    0.7685   -3.3190   -0.0105 C   0  0  0  0  0  0  0  0  0  0  0  0
   -1.6022    0.7845   -0.0176 C   0  0  0  0  0  0  0  0  0  0  0  0
   -0.4578   -1.1460   -0.0152 C   0  0  0  0  0  0  0  0  0  0  0  0
   -5.2420    1.7986    0.1298 C   0  0  0  0  0  0  0  0  0  0  0  0
    0.4899   -4.8056    0.0714 C   0  0  0  0  0  0  0  0  0  0  0  0
    0.6442    0.8116   -0.0974 C   0  0  0  0  0  0  0  0  0  0  0  0
    3.0201    0.7465   -0.1793 C   0  0  0  0  0  0  0  0  0  0  0  0
    4.1805    1.6779   -0.2980 C   0  0  0  0  0  0  0  0  0  0  0  0
    5.1648    1.7639    0.6036 C   0  0  0  0  0  0  0  0  0  0  0  0
  1 13  1  0
  1 14  1  0
  2  7  1  0
  2  9  1  0
  3  8  1  0
  3 10  1  0
  4  9  2  0
  4 10  1  0
  5 10  2  0
  5 13  1  0
  6  9  1  0
  6 13  2  0
  7 11  1  0
  8 12  1  0
 14 15  1  0
 15 16  2  0
M  END
>  <PUBCHEM_COMPOUND_CID>  (1) 
35116

>  <PUBCHEM_CONFORMER_RMSD>  (1) 
0.8

>  <PUBCHEM_CONFORMER_DIVERSEORDER>  (1) 
1
15
13
12
3
14
17
9
18
2
6
16
19
7
25
10
8
24
22
4
20
23
21
11
5

>  <PUBCHEM_MMFF94_PARTIAL_CHARGES>  (1) 
19
1 -0.36
10 0.72
13 0.7
14 0.42
15 -0.29
16 -0.3
2 -0.87
21 0.4
22 0.4
3 -0.87
31 0.15
32 0.15
33 0.15
4 -0.62
5 -0.62
6 -0.62
7 0.37
8 0.37
9 0.72

>  <PUBCHEM_EFFECTIVE_ROTOR_COUNT>  (1) 
7

>  <PUBCHEM_PHARMACOPHORE_FEATURES>  (1) 
6
1 16 hydrophobe
1 2 donor
1 3 donor
4 2 4 6 9 cation
4 3 4 5 10 cation
6 4 5 6 9 10 13 rings

>  <PUBCHEM_HEAVY_ATOM_COUNT>  (1) 
16

>  <PUBCHEM_ATOM_DEF_STEREO_COUNT>  (1) 
0

>  <PUBCHEM_ATOM_UDEF_STEREO_COUNT>  (1) 
0

>  <PUBCHEM_BOND_DEF_STEREO_COUNT>  (1) 
0

>  <PUBCHEM_BOND_UDEF_STEREO_COUNT>  (1) 
0

>  <PUBCHEM_ISOTOPIC_ATOM_COUNT>  (1) 
0

>  <PUBCHEM_COMPONENT_COUNT>  (1) 
1

>  <PUBCHEM_CACTVS_TAUTO_COUNT>  (1) 
5

>  <PUBCHEM_CONFORMER_ID>  (1) 
0000892C00000001

>  <PUBCHEM_MMFF94_ENERGY>  (1) 
37.7543

>  <PUBCHEM_FEATURE_SELFOVERLAP>  (1) 
30.489

>  <PUBCHEM_SHAPE_FINGERPRINT>  (1) 
10411042 1 17401768523720703591
12500047 106 18340483495374197216
12532896 13 18412829118081525398
13052359 8 18265614470935284682
13955234 65 18194127313453509707
13968360 50 18335406959888849919
15042514 8 17904487650783770954
17539 30 17838611511143346318
18915476 22 18118105992913889469
204376 136 18410015446340874657
20645477 56 18338237167185660972
20645477 70 18190456048908434293
21054139 6 18270388508327639815
212916 134 18270947025442710664
21524375 3 18273216395698584509
22224240 67 18342184414319176329
23366157 5 17899708859737163113
23402539 116 18271801362825292509
23557571 272 17984436393183481524
23598288 3 17753910603164646982
257057 1 17186722161003812510
2748010 2 18264793049860624191
3071541 12 18050853208427499157
3071541 37 18263934249948947389
3091708 16 9191845181616836435
3250762 1 17612301957602512069
366044 4 18410011056857885457
42630746 31 18341331072414367261
43471831 8 18410014290799064515
458136 41 18338804411973957337
474229 33 18336549429869015707
54173680 148 17833831955561443766
7364860 26 18194684765579740295
77188 2 17474107596660791110
81228 2 17763166343354822763
81539 233 18334295323351956941

>  <PUBCHEM_SHAPE_MULTIPOLES>  (1) 
298.5
8.36
4.55
0.62
0.51
9.19
0.02
-10.92
0.89
-1.46
0.17
-0.17
-0.05
0.07

>  <PUBCHEM_SHAPE_SELFOVERLAP>  (1) 
589.127

>  <PUBCHEM_SHAPE_VOLUME>  (1) 
174.4

>  <PUBCHEM_COORDINATE_TYPE>  (1) 
2
5
10

$$$$
