35117
     RDKit          3D

 14 14  0  0  0  0  0  0  0  0999 V2000
   -0.3278    0.9131    0.0022 O   0  0  0  0  0  0  0  0  0  0  0  0
    1.1025   -0.9054    0.0023 N   0  0  0  0  0  0  0  0  0  0  0  0
    1.9460    1.3409   -0.0048 N   0  0  0  0  0  0  0  0  0  0  0  0
    3.4695   -0.5128   -0.0043 N   0  0  0  0  0  0  0  0  0  0  0  0
    2.6157   -2.6969    0.0031 N   0  0  0  0  0  0  0  0  0  0  0  0
    4.2643    1.6935   -0.0112 N   0  0  0  0  0  0  0  0  0  0  0  0
   -3.8843   -0.2982    0.0212 C   0  0  0  0  0  0  0  0  0  0  0  0
   -2.7106    0.6787    0.0304 C   0  0  0  0  0  0  0  0  0  0  0  0
   -5.2224    0.4402    0.0018 C   0  0  0  0  0  0  0  0  0  0  0  0
   -1.3737   -0.0485    0.0072 C   0  0  0  0  0  0  0  0  0  0  0  0
   -6.3930   -0.5290   -0.0416 C   0  0  0  0  0  0  0  0  0  0  0  0
    0.9555    0.4313   -0.0002 C   0  0  0  0  0  0  0  0  0  0  0  0
    2.3847   -1.3040    0.0001 C   0  0  0  0  0  0  0  0  0  0  0  0
    3.1737    0.7970   -0.0064 C   0  0  0  0  0  0  0  0  0  0  0  0
  1 10  1  0
  1 12  1  0
  2 12  2  0
  2 13  1  0
  3 12  1  0
  3 14  2  0
  4 13  2  0
  4 14  1  0
  5 13  1  0
  6 14  1  0
  7  8  1  0
  7  9  1  0
  8 10  1  0
  9 11  1  0
M  END
>  <PUBCHEM_COMPOUND_CID>  (1) 
35117

>  <PUBCHEM_CONFORMER_RMSD>  (1) 
0.6

>  <PUBCHEM_CONFORMER_DIVERSEORDER>  (1) 
1
17
34
10
45
29
21
55
11
13
25
42
60
40
56
15
16
37
20
51
48
4
36
57
49
28
8
47
3
33
46
30
50
2
27
24
38
5
19
12
41
31
23
6
14
7
26
39
35
61
22
58
18
59
9
53
32
54
52
44
43

>  <PUBCHEM_MMFF94_PARTIAL_CHARGES>  (1) 
14
1 -0.36
10 0.28
12 0.7
13 0.72
14 0.72
2 -0.62
26 0.4
27 0.4
28 0.4
29 0.4
3 -0.62
4 -0.62
5 -0.9
6 -0.9

>  <PUBCHEM_EFFECTIVE_ROTOR_COUNT>  (1) 
5

>  <PUBCHEM_PHARMACOPHORE_FEATURES>  (1) 
6
1 11 hydrophobe
1 5 donor
1 6 donor
4 2 4 5 13 cation
4 3 4 6 14 cation
6 2 3 4 12 13 14 rings

>  <PUBCHEM_HEAVY_ATOM_COUNT>  (1) 
14

>  <PUBCHEM_ATOM_DEF_STEREO_COUNT>  (1) 
0

>  <PUBCHEM_ATOM_UDEF_STEREO_COUNT>  (1) 
0

>  <PUBCHEM_BOND_DEF_STEREO_COUNT>  (1) 
0

>  <PUBCHEM_BOND_UDEF_STEREO_COUNT>  (1) 
0

>  <PUBCHEM_ISOTOPIC_ATOM_COUNT>  (1) 
0

>  <PUBCHEM_COMPONENT_COUNT>  (1) 
1

>  <PUBCHEM_CACTVS_TAUTO_COUNT>  (1) 
5

>  <PUBCHEM_CONFORMER_ID>  (1) 
0000892D00000001

>  <PUBCHEM_MMFF94_ENERGY>  (1) 
30.6528

>  <PUBCHEM_FEATURE_SELFOVERLAP>  (1) 
30.489

>  <PUBCHEM_SHAPE_FINGERPRINT>  (1) 
10912923 1 17989490706496885835
11287383 113 18040437728636583569
11471102 20 18410575093448341736
12107183 9 17694511343132068609
12346645 6 18411700984960259892
13167823 11 18343580738157099959
13533116 47 18272932700798664971
13955234 65 18413103957497352762
14123238 8 18342176683256691165
14251717 144 18410573963724392795
14252887 29 18187088342875294785
15242433 33 18342738533587760543
15375358 24 18041000665383232899
15477762 27 18409450241550410166
17834072 33 18343299297423751733
200 152 18273214201603026161
20279233 1 17749115495458920849
20645477 70 18410573946813704935
21267235 1 18341620278216451958
22485316 2 18411698794801290855
23402539 116 12107780844355318611
23402655 69 18341892996018460301
23532345 1 18336270123239113176
23557571 272 17240760649284974037
33824 294 18335420157896231898
3545911 37 18409450314712527741
4214541 1 18410856517560866441
42630746 31 18413670214796929622
42788 4 18410573998685400869
449060 50 18334575771868569565
449060 62 18341896307337992592
5104073 3 18338798914727140105
522135 26 18411418397391892559
77779 3 18410575050984010913

>  <PUBCHEM_SHAPE_MULTIPOLES>  (1) 
257.34
11.8
1.7
0.58
18
0.88
0
0.02
-0.11
-2.54
0
0.09
0
-0.02

>  <PUBCHEM_SHAPE_SELFOVERLAP>  (1) 
509.442

>  <PUBCHEM_SHAPE_VOLUME>  (1) 
149.7

>  <PUBCHEM_COORDINATE_TYPE>  (1) 
2
5
10

$$$$
