35112
     RDKit          3D

 16 16  0  0  0  0  0  0  0  0999 V2000
   -1.7050   -1.6645   -0.0040 O   0  0  0  0  0  0  0  0  0  0  0  0
    2.9426   -1.3553   -0.0065 N   0  0  0  0  0  0  0  0  0  0  0  0
    0.3180    2.5311   -0.0101 N   0  0  0  0  0  0  0  0  0  0  0  0
    1.6565    0.6057   -0.0086 N   0  0  0  0  0  0  0  0  0  0  0  0
   -0.7371    0.4369   -0.0074 N   0  0  0  0  0  0  0  0  0  0  0  0
    0.6058   -1.5517   -0.0059 N   0  0  0  0  0  0  0  0  0  0  0  0
   -4.0763   -1.9902    0.0195 C   0  0  0  0  0  0  0  0  0  0  0  0
   -2.9460   -0.9727   -0.0041 C   0  0  0  0  0  0  0  0  0  0  0  0
    1.6733   -0.7371   -0.0071 C   0  0  0  0  0  0  0  0  0  0  0  0
    0.4173    1.1228   -0.0085 C   0  0  0  0  0  0  0  0  0  0  0  0
    4.1654   -0.6152   -0.0073 C   0  0  0  0  0  0  0  0  0  0  0  0
   -0.9345    3.2199   -0.0102 C   0  0  0  0  0  0  0  0  0  0  0  0
   -0.5690   -0.8972   -0.0059 C   0  0  0  0  0  0  0  0  0  0  0  0
   -5.4390   -1.3213    0.0055 C   0  0  0  0  0  0  0  0  0  0  0  0
    5.3697   -1.5330    0.0332 C   0  0  0  0  0  0  0  0  0  0  0  0
   -0.7417    4.7219    0.0274 C   0  0  0  0  0  0  0  0  0  0  0  0
  1  8  1  0
  1 13  1  0
  2  9  1  0
  2 11  1  0
  3 10  1  0
  3 12  1  0
  4  9  2  0
  4 10  1  0
  5 10  2  0
  5 13  1  0
  6  9  1  0
  6 13  2  0
  7  8  1  0
  7 14  1  0
 11 15  1  0
 12 16  1  0
M  END
>  <PUBCHEM_COMPOUND_CID>  (1) 
35112

>  <PUBCHEM_CONFORMER_RMSD>  (1) 
0.8

>  <PUBCHEM_CONFORMER_DIVERSEORDER>  (1) 
1
31
27
25
21
29
22
20
18
24
13
33
7
2
32
9
5
12
15
34
28
26
8
19
30
3
23
10
16
11
4
17
14
6

>  <PUBCHEM_MMFF94_PARTIAL_CHARGES>  (1) 
14
1 -0.36
10 0.72
11 0.37
12 0.37
13 0.7
2 -0.87
25 0.4
26 0.4
3 -0.87
4 -0.62
5 -0.62
6 -0.62
8 0.28
9 0.72

>  <PUBCHEM_EFFECTIVE_ROTOR_COUNT>  (1) 
7

>  <PUBCHEM_PHARMACOPHORE_FEATURES>  (1) 
6
1 14 hydrophobe
1 2 donor
1 3 donor
4 2 4 6 9 cation
4 3 4 5 10 cation
6 4 5 6 9 10 13 rings

>  <PUBCHEM_HEAVY_ATOM_COUNT>  (1) 
16

>  <PUBCHEM_ATOM_DEF_STEREO_COUNT>  (1) 
0

>  <PUBCHEM_ATOM_UDEF_STEREO_COUNT>  (1) 
0

>  <PUBCHEM_BOND_DEF_STEREO_COUNT>  (1) 
0

>  <PUBCHEM_BOND_UDEF_STEREO_COUNT>  (1) 
0

>  <PUBCHEM_ISOTOPIC_ATOM_COUNT>  (1) 
0

>  <PUBCHEM_COMPONENT_COUNT>  (1) 
1

>  <PUBCHEM_CACTVS_TAUTO_COUNT>  (1) 
5

>  <PUBCHEM_CONFORMER_ID>  (1) 
0000892800000001

>  <PUBCHEM_MMFF94_ENERGY>  (1) 
35.3133

>  <PUBCHEM_FEATURE_SELFOVERLAP>  (1) 
30.489

>  <PUBCHEM_SHAPE_FINGERPRINT>  (1) 
10411042 1 18410856581151887111
10756046 70 17843960571009253751
11265709 11 18410295817341847459
12788726 201 18261107422644510962
12841375 25 18410855485924579727
13052359 8 18048871892737870925
13134695 92 18338515373549139885
13590594 115 18409457985957122809
14178000 15 18340206418143382145
15042514 8 18266742385197490040
17539 30 18268420252873981093
18785283 64 17757551137514312985
20671657 1 18050573142669456263
20671657 53 18341056314877439611
21029758 11 18408884074561093043
21041028 32 18411138052181731925
21426921 1 18266742385840834358
21478907 32 18337953372451590451
221490 88 17975137848827286507
23402539 116 18272364270008317391
23530152 11 17329714219410907477
23557571 272 18338802221593637646
23558518 356 17973735679343693674
23559900 14 18193830673295786987
2748010 2 18268127885870815460
283562 15 18335139739792680082
3071541 12 17978793746252838325
3091708 16 9136087856077002584
3250762 1 17695638350502826038
53777708 50 17839181067442426791
58779409 8 17762067535985665164
68521 5 18410576141409676142
7164475 11 18337117757126766678
7364860 26 18050850214998804677
77188 2 18410856606948311613
81228 2 18263376797463961632
84936 182 17480304904479013761
9971528 1 18270110348554192571

>  <PUBCHEM_SHAPE_MULTIPOLES>  (1) 
298.5
8.67
4.38
0.58
0.73
8.64
0
-10.06
0.08
-2.29
0.04
-0.02
0.01
-0.01

>  <PUBCHEM_SHAPE_SELFOVERLAP>  (1) 
584.663

>  <PUBCHEM_SHAPE_VOLUME>  (1) 
176.2

>  <PUBCHEM_COORDINATE_TYPE>  (1) 
2
5
10

$$$$
