35110
     RDKit          3D

 15 15  0  0  0  0  0  0  0  0999 V2000
   -1.6245    2.1713   -0.0054 O   0  0  0  0  0  0  0  0  0  0  0  0
    2.8333    0.8208    0.0041 N   0  0  0  0  0  0  0  0  0  0  0  0
   -0.6010   -2.3728    0.0067 N   0  0  0  0  0  0  0  0  0  0  0  0
    1.1377   -0.7992    0.0058 N   0  0  0  0  0  0  0  0  0  0  0  0
   -1.1560   -0.0945    0.0009 N   0  0  0  0  0  0  0  0  0  0  0  0
    0.6012    1.5397   -0.0003 N   0  0  0  0  0  0  0  0  0  0  0  0
    3.8827   -0.1688    0.0075 C   0  0  0  0  0  0  0  0  0  0  0  0
   -1.9767   -2.7610    0.0055 C   0  0  0  0  0  0  0  0  0  0  0  0
    1.4819    0.5108    0.0033 C   0  0  0  0  0  0  0  0  0  0  0  0
   -0.1863   -1.0232    0.0042 C   0  0  0  0  0  0  0  0  0  0  0  0
   -0.6881    1.1642   -0.0014 C   0  0  0  0  0  0  0  0  0  0  0  0
    5.2394    0.5086   -0.0148 C   0  0  0  0  0  0  0  0  0  0  0  0
   -2.0925   -4.2731   -0.0134 C   0  0  0  0  0  0  0  0  0  0  0  0
   -2.9875    1.7714   -0.0066 C   0  0  0  0  0  0  0  0  0  0  0  0
   -3.8636    3.0058    0.0040 C   0  0  0  0  0  0  0  0  0  0  0  0
  1 11  1  0
  1 14  1  0
  2  7  1  0
  2  9  1  0
  3  8  1  0
  3 10  1  0
  4  9  2  0
  4 10  1  0
  5 10  2  0
  5 11  1  0
  6  9  1  0
  6 11  2  0
  7 12  1  0
  8 13  1  0
 14 15  1  0
M  END
>  <PUBCHEM_COMPOUND_CID>  (1) 
35110

>  <PUBCHEM_CONFORMER_RMSD>  (1) 
0.8

>  <PUBCHEM_CONFORMER_DIVERSEORDER>  (1) 
1
12
8
7
15
3
17
16
13
5
18
14
9
10
11
2
4
6

>  <PUBCHEM_MMFF94_PARTIAL_CHARGES>  (1) 
14
1 -0.36
10 0.72
11 0.7
14 0.28
2 -0.87
20 0.4
21 0.4
3 -0.87
4 -0.62
5 -0.62
6 -0.62
7 0.37
8 0.37
9 0.72

>  <PUBCHEM_EFFECTIVE_ROTOR_COUNT>  (1) 
6

>  <PUBCHEM_PHARMACOPHORE_FEATURES>  (1) 
5
1 2 donor
1 3 donor
4 2 4 6 9 cation
4 3 4 5 10 cation
6 4 5 6 9 10 11 rings

>  <PUBCHEM_HEAVY_ATOM_COUNT>  (1) 
15

>  <PUBCHEM_ATOM_DEF_STEREO_COUNT>  (1) 
0

>  <PUBCHEM_ATOM_UDEF_STEREO_COUNT>  (1) 
0

>  <PUBCHEM_BOND_DEF_STEREO_COUNT>  (1) 
0

>  <PUBCHEM_BOND_UDEF_STEREO_COUNT>  (1) 
0

>  <PUBCHEM_ISOTOPIC_ATOM_COUNT>  (1) 
0

>  <PUBCHEM_COMPONENT_COUNT>  (1) 
1

>  <PUBCHEM_CACTVS_TAUTO_COUNT>  (1) 
5

>  <PUBCHEM_CONFORMER_ID>  (1) 
0000892600000001

>  <PUBCHEM_MMFF94_ENERGY>  (1) 
34.5115

>  <PUBCHEM_FEATURE_SELFOVERLAP>  (1) 
25.414

>  <PUBCHEM_SHAPE_FINGERPRINT>  (1) 
10411042 1 17906172102581725282
10756046 70 17531546342067933604
12532896 13 18340769226119984599
13052359 8 18409444786941924731
13134695 92 17547003491369464751
13380535 76 18270679758080261948
14178000 15 17547573038471591551
15042514 8 18409169921809210410
15906896 17 18343292687063187551
17539 30 18269547407074875935
193761 8 18122344841666506976
19427546 20 18263088880490195852
204376 136 18265899064163948713
20645477 56 18410013209174713804
20645477 70 17757828923715665501
20671657 53 17691975177391552927
20871998 184 18129947904949100678
20871998 22 17835237131506085650
21426921 1 18338518659425954766
21478907 32 18266175222055737811
21499 59 18265327296880071757
21524375 3 18187650132992698528
22224240 67 18343027649575451113
23402539 116 18271515404140056172
23419403 2 17130417106816366587
23530152 11 18266460910547749063
23557571 272 18272942647911040220
23558518 356 18189334752689945136
23559900 14 18271807892272217380
2748010 2 18121522183883410015
3091708 16 9198875472128884227
3250762 1 18055622065251480024
366044 4 18337671901833189640
474229 33 18409170983241164953
53917941 68 18266436789726955293
54173680 148 18338234997925995879
58779409 54 18338785835971506967
58779409 8 18409737226843626479
6025842 7 17905880380567173949
68521 5 18266461099225857126
7364860 26 17690560780320119673
77188 2 17762056944875991583
81228 2 18117550949583828993
81539 233 18046345223860280093

>  <PUBCHEM_SHAPE_MULTIPOLES>  (1) 
277.92
7.09
4.39
0.58
9.07
4.51
0
-4.01
0.02
-7.5
0.01
-0.01
0.01
-0.01

>  <PUBCHEM_SHAPE_SELFOVERLAP>  (1) 
546.077

>  <PUBCHEM_SHAPE_VOLUME>  (1) 
163.4

>  <PUBCHEM_COORDINATE_TYPE>  (1) 
2
5
10

$$$$
