35124
     RDKit          3D

 18 18  0  0  0  0  0  0  0  0999 V2000
    0.6002   -3.5873   -0.2463 S   0  0  0  0  0  0  0  0  0  0  0  0
   -2.5264    0.3088    0.1650 N   0  0  0  0  0  0  0  0  0  0  0  0
    2.0657    1.2054   -0.1646 N   0  0  0  0  0  0  0  0  0  0  0  0
   -0.2364    0.7885    0.0028 N   0  0  0  0  0  0  0  0  0  0  0  0
    1.3279   -1.0201   -0.1972 N   0  0  0  0  0  0  0  0  0  0  0  0
   -1.0214   -1.4788   -0.0287 N   0  0  0  0  0  0  0  0  0  0  0  0
   -2.8237    1.7330    0.2472 C   0  0  0  0  0  0  0  0  0  0  0  0
   -3.6418   -0.6285    0.2009 C   0  0  0  0  0  0  0  0  0  0  0  0
    1.8039    2.6278   -0.0853 C   0  0  0  0  0  0  0  0  0  0  0  0
    3.4336    0.7423   -0.2792 C   0  0  0  0  0  0  0  0  0  0  0  0
   -1.2127   -0.1438    0.0420 C   0  0  0  0  0  0  0  0  0  0  0  0
    1.0005    0.2797   -0.1173 C   0  0  0  0  0  0  0  0  0  0  0  0
   -2.6259    2.2609    1.6531 C   0  0  0  0  0  0  0  0  0  0  0  0
   -4.0401   -1.0706   -1.1921 C   0  0  0  0  0  0  0  0  0  0  0  0
    1.3906    3.1918   -1.4289 C   0  0  0  0  0  0  0  0  0  0  0  0
    3.9925    0.3250    1.0654 C   0  0  0  0  0  0  0  0  0  0  0  0
    0.2663   -1.8408   -0.1467 C   0  0  0  0  0  0  0  0  0  0  0  0
    2.2471   -3.6934    0.5098 C   0  0  0  0  0  0  0  0  0  0  0  0
  1 17  1  0
  1 18  1  0
  2  7  1  0
  2  8  1  0
  2 11  1  0
  3  9  1  0
  3 10  1  0
  3 12  1  0
  4 11  2  0
  4 12  1  0
  5 12  2  0
  5 17  1  0
  6 11  1  0
  6 17  2  0
  7 13  1  0
  8 14  1  0
  9 15  1  0
 10 16  1  0
M  END
>  <PUBCHEM_COMPOUND_CID>  (1) 
35124

>  <PUBCHEM_CONFORMER_RMSD>  (1) 
0.8

>  <PUBCHEM_CONFORMER_DIVERSEORDER>  (1) 
1
25
19
21
13
15
17
22
9
14
23
26
5
18
16
24
3
10
27
20
12
7
4
11
8
6
2

>  <PUBCHEM_MMFF94_PARTIAL_CHARGES>  (1) 
14
1 -0.33
10 0.37
11 0.72
12 0.72
17 0.72
18 0.23
2 -0.84
3 -0.84
4 -0.62
5 -0.62
6 -0.62
7 0.37
8 0.37
9 0.37

>  <PUBCHEM_EFFECTIVE_ROTOR_COUNT>  (1) 
7

>  <PUBCHEM_PHARMACOPHORE_FEATURES>  (1) 
4
1 18 hydrophobe
4 2 4 6 11 cation
4 3 4 5 12 cation
6 4 5 6 11 12 17 rings

>  <PUBCHEM_HEAVY_ATOM_COUNT>  (1) 
18

>  <PUBCHEM_ATOM_DEF_STEREO_COUNT>  (1) 
0

>  <PUBCHEM_ATOM_UDEF_STEREO_COUNT>  (1) 
0

>  <PUBCHEM_BOND_DEF_STEREO_COUNT>  (1) 
0

>  <PUBCHEM_BOND_UDEF_STEREO_COUNT>  (1) 
0

>  <PUBCHEM_ISOTOPIC_ATOM_COUNT>  (1) 
0

>  <PUBCHEM_COMPONENT_COUNT>  (1) 
1

>  <PUBCHEM_CACTVS_TAUTO_COUNT>  (1) 
1

>  <PUBCHEM_CONFORMER_ID>  (1) 
0000893400000001

>  <PUBCHEM_MMFF94_ENERGY>  (1) 
43.9501

>  <PUBCHEM_FEATURE_SELFOVERLAP>  (1) 
20.34

>  <PUBCHEM_SHAPE_FINGERPRINT>  (1) 
10967382 1 18338238150337039142
12553582 1 17690287006099133655
13140716 1 18123753324835960011
13380535 76 18336543910261566523
14178342 30 18341334383739544985
14790565 3 18336840731995319412
15420108 30 18057315085582471002
15442244 35 18052822446859261619
15490181 8 18338535130082248423
16945 1 18337401525056993183
192875 21 18339071704805528989
19591789 44 17906454677360097219
20510252 161 18054515973638126857
20645476 183 17827647164174292534
21501502 16 18269556040191086747
21524375 3 18200315544818976975
2334 1 17690844883511107263
23402539 116 18201429337476775909
23419403 2 16544349556322599968
23557571 272 17203621401451703369
23558518 356 18341909488756225823
23598291 2 18128817435065257751
2748010 2 18121218684177112756
305870 269 18340209596165590490
3060560 45 18335977661946926390
352729 6 18194688300195646950
43471831 8 18411135822793141746
58051976 378 18342454876483099919
6992083 37 18261951955175690896
7364860 26 18268430139825574507
7832392 63 18125168143056079449
81228 2 17334494294499171267

>  <PUBCHEM_SHAPE_MULTIPOLES>  (1) 
349.38
6.23
4.36
1.07
2.38
2.19
0.07
-0.87
0.64
-2.59
-0.37
0.3
-0.62
-1.49

>  <PUBCHEM_SHAPE_SELFOVERLAP>  (1) 
672.486

>  <PUBCHEM_SHAPE_VOLUME>  (1) 
215.9

>  <PUBCHEM_COORDINATE_TYPE>  (1) 
2
5
10

$$$$
