3512
     RDKit          3D

 24 26  0  0  1  0  0  0  0  0999 V2000
   -2.2587    3.0310   -0.4925 Cl  0  0  0  0  0  0  0  0  0  0  0  0
    0.2641    1.3521   -0.1135 O   0  0  0  0  0  0  0  0  0  0  0  0
    1.6782    0.4246   -2.2560 O   0  0  0  0  0  0  0  0  0  0  0  0
    0.9700   -2.0865    0.3825 O   0  0  0  0  0  0  0  0  0  0  0  0
    5.3822   -0.2701    0.5873 O   0  0  0  0  0  0  0  0  0  0  0  0
   -1.8989   -2.8033    0.3750 O   0  0  0  0  0  0  0  0  0  0  0  0
   -4.5559    1.0944   -0.3373 O   0  0  0  0  0  0  0  0  0  0  0  0
    1.2922    0.3525    0.1528 C   0  0  0  0  0  0  0  0  0  0  0  0
    1.9845    0.6874    1.4961 C   0  0  0  0  0  0  0  0  0  0  0  0
    3.2541   -0.1519    1.6848 C   0  0  0  0  0  0  0  0  0  0  0  0
    0.5259   -0.9630    0.2427 C   0  0  0  0  0  0  0  0  0  0  0  0
    2.2529    0.2753   -1.0061 C   0  0  0  0  0  0  0  0  0  0  0  0
    2.3083    2.1842    1.6391 C   0  0  0  0  0  0  0  0  0  0  0  0
   -0.8741   -0.6537    0.1252 C   0  0  0  0  0  0  0  0  0  0  0  0
   -0.9437    0.7076   -0.0760 C   0  0  0  0  0  0  0  0  0  0  0  0
    4.1684   -0.1011    0.4796 C   0  0  0  0  0  0  0  0  0  0  0  0
    3.5723    0.0876   -0.8652 C   0  0  0  0  0  0  0  0  0  0  0  0
   -1.9877   -1.4663    0.1783 C   0  0  0  0  0  0  0  0  0  0  0  0
   -2.1652    1.3312   -0.2373 C   0  0  0  0  0  0  0  0  0  0  0  0
   -3.2292   -0.8491    0.0200 C   0  0  0  0  0  0  0  0  0  0  0  0
   -3.3178    0.5401   -0.1864 C   0  0  0  0  0  0  0  0  0  0  0  0
    1.9118   -0.7196   -3.0512 C   0  0  0  0  0  0  0  0  0  0  0  0
   -3.1216   -3.5438    0.4116 C   0  0  0  0  0  0  0  0  0  0  0  0
   -5.2121    1.5402    0.8466 C   0  0  0  0  0  0  0  0  0  0  0  0
  1 19  1  0
  2  8  1  0
  2 15  1  0
  3 12  1  0
  3 22  1  0
  4 11  2  0
  5 16  2  0
  6 18  1  0
  6 23  1  0
  7 21  1  0
  7 24  1  0
  8  9  1  0
  8 11  1  0
  8 12  1  0
  9 10  1  0
  9 13  1  0
 10 16  1  0
 11 14  1  0
 12 17  2  0
 14 15  2  0
 14 18  1  0
 15 19  1  0
 16 17  1  0
 18 20  2  0
 19 21  2  0
 20 21  1  0
M  END
>  <PUBCHEM_COMPOUND_CID>  (1) 
3512

>  <PUBCHEM_CONFORMER_RMSD>  (1) 
0.6

>  <PUBCHEM_CONFORMER_DIVERSEORDER>  (1) 
5
8
7
2
6
10
9
1
3
4

>  <PUBCHEM_MMFF94_PARTIAL_CHARGES>  (1) 
24
1 -0.18
10 0.06
11 0.42
12 -0.06
14 0.09
15 0.08
16 0.49
17 -0.14
18 0.08
19 0.18
2 -0.36
20 -0.15
21 0.08
22 0.28
23 0.28
24 0.28
3 -0.36
31 0.15
32 0.15
4 -0.57
5 -0.57
6 -0.36
7 -0.36
8 0.48

>  <PUBCHEM_EFFECTIVE_ROTOR_COUNT>  (1) 
3.6

>  <PUBCHEM_PHARMACOPHORE_FEATURES>  (1) 
9
1 2 acceptor
1 3 acceptor
1 4 acceptor
1 5 acceptor
1 6 acceptor
1 7 acceptor
5 2 8 11 14 15 rings
6 14 15 18 19 20 21 rings
6 8 9 10 12 16 17 rings

>  <PUBCHEM_HEAVY_ATOM_COUNT>  (1) 
24

>  <PUBCHEM_ATOM_DEF_STEREO_COUNT>  (1) 
0

>  <PUBCHEM_ATOM_UDEF_STEREO_COUNT>  (1) 
2

>  <PUBCHEM_BOND_DEF_STEREO_COUNT>  (1) 
0

>  <PUBCHEM_BOND_UDEF_STEREO_COUNT>  (1) 
0

>  <PUBCHEM_ISOTOPIC_ATOM_COUNT>  (1) 
0

>  <PUBCHEM_COMPONENT_COUNT>  (1) 
1

>  <PUBCHEM_CACTVS_TAUTO_COUNT>  (1) 
2

>  <PUBCHEM_CONFORMER_ID>  (1) 
00000DB800000005

>  <PUBCHEM_MMFF94_ENERGY>  (1) 
82.6496

>  <PUBCHEM_FEATURE_SELFOVERLAP>  (1) 
45.787

>  <PUBCHEM_SHAPE_FINGERPRINT>  (1) 
10062212 137 17967813885567291867
10319926 262 18268123488599440648
10906281 52 17774736306746167312
11582403 64 16907153372394381072
11640471 11 17314252062093223980
11796584 16 18412270515257973902
12236239 1 17458345226030439848
12293681 25 17916885546298234718
12293681 4 17917717880990159609
12403814 3 17240480300074841893
12633257 1 18341601603572107401
13009979 54 17822297928399329358
13140716 1 18338516464523950785
13538477 17 18040715895955596285
13583140 156 18059284453058651814
14115302 16 18334301950301878348
14178342 30 18263069058836336147
14955137 171 17313115103141348652
15042514 8 18334298695276129603
15375358 24 17775568628209947941
16752209 62 18188770690266342595
16945 1 18408317787660636849
17349148 13 17967807250195883599
17804303 29 18410849984139948208
17980427 23 18187362190274918404
20600515 1 18411139151382577917
20645477 70 16558472976650024876
21033648 29 18191282928154214689
21781051 124 17970094213239605179
22112679 90 17821732774969215557
22149856 69 17757563959079375445
22182313 1 17987817283674489279
22956985 138 17609502623306721307
23184049 29 18119804970085328227
2334 1 17976538639509572433
23402539 116 18341039762031374133
23526113 38 17845388677704985278
23557571 272 18272656787514406647
23559900 14 18341620304676988766
2748010 2 18196089078362387209
312423 11 17386858385706532659
350125 39 18048037363786571561
474 4 16299244573608151340
495365 180 16845279558158042168
5104073 3 18339633551009956336
77492 1 17458059395851201106
9709674 26 18201719574155206303

>  <PUBCHEM_SHAPE_MULTIPOLES>  (1) 
460.56
8.45
2.78
1.69
0.97
1.14
-1.15
-1.35
1.61
3.6
0.55
-2
-0.03
0.91

>  <PUBCHEM_SHAPE_SELFOVERLAP>  (1) 
996.107

>  <PUBCHEM_SHAPE_VOLUME>  (1) 
256.2

>  <PUBCHEM_COORDINATE_TYPE>  (1) 
2
5
10

$$$$
