35121
     RDKit          3D

 16 17  0  0  0  0  0  0  0  0999 V2000
   -1.5068   -1.4475    2.1700 Cl  0  0  0  0  0  0  0  0  0  0  0  0
   -0.2907   -1.2509   -0.5728 O   0  0  0  0  0  0  0  0  0  0  0  0
    2.0204   -1.2185   -0.4706 N   0  0  0  0  0  0  0  0  0  0  0  0
    0.7228    0.7206    0.0896 N   0  0  0  0  0  0  0  0  0  0  0  0
    3.1178    0.8035    0.2116 N   0  0  0  0  0  0  0  0  0  0  0  0
    4.3593   -1.1076   -0.3416 N   0  0  0  0  0  0  0  0  0  0  0  0
    1.8232    2.6822    0.7530 N   0  0  0  0  0  0  0  0  0  0  0  0
   -1.4750   -0.5949   -0.4129 C   0  0  0  0  0  0  0  0  0  0  0  0
   -2.1488   -0.6053    0.8084 C   0  0  0  0  0  0  0  0  0  0  0  0
   -2.0119    0.0951   -1.4999 C   0  0  0  0  0  0  0  0  0  0  0  0
    0.8721   -0.5500   -0.3054 C   0  0  0  0  0  0  0  0  0  0  0  0
   -3.3595    0.0746    0.9427 C   0  0  0  0  0  0  0  0  0  0  0  0
   -3.2227    0.7747   -1.3655 C   0  0  0  0  0  0  0  0  0  0  0  0
   -3.8964    0.7643   -0.1443 C   0  0  0  0  0  0  0  0  0  0  0  0
    3.1049   -0.4769   -0.1931 C   0  0  0  0  0  0  0  0  0  0  0  0
    1.8913    1.3367    0.3310 C   0  0  0  0  0  0  0  0  0  0  0  0
  1  9  1  0
  2  8  1  0
  2 11  1  0
  3 11  2  0
  3 15  1  0
  4 11  1  0
  4 16  2  0
  5 15  2  0
  5 16  1  0
  6 15  1  0
  7 16  1  0
  8  9  2  0
  8 10  1  0
  9 12  1  0
 10 13  2  0
 12 14  2  0
 13 14  1  0
M  END
>  <PUBCHEM_COMPOUND_CID>  (1) 
35121

>  <PUBCHEM_CONFORMER_RMSD>  (1) 
0.6

>  <PUBCHEM_CONFORMER_DIVERSEORDER>  (1) 
1
7
6
3
4
5
2

>  <PUBCHEM_MMFF94_PARTIAL_CHARGES>  (1) 
24
1 -0.18
10 -0.15
11 0.7
12 -0.15
13 -0.15
14 -0.15
15 0.72
16 0.72
17 0.15
18 0.15
19 0.15
2 -0.17
20 0.15
21 0.4
22 0.4
23 0.4
24 0.4
3 -0.62
4 -0.62
5 -0.62
6 -0.9
7 -0.9
8 0.08
9 0.18

>  <PUBCHEM_EFFECTIVE_ROTOR_COUNT>  (1) 
2

>  <PUBCHEM_PHARMACOPHORE_FEATURES>  (1) 
6
1 6 donor
1 7 donor
4 3 5 6 15 cation
4 4 5 7 16 cation
6 3 4 5 11 15 16 rings
6 8 9 10 12 13 14 rings

>  <PUBCHEM_HEAVY_ATOM_COUNT>  (1) 
16

>  <PUBCHEM_ATOM_DEF_STEREO_COUNT>  (1) 
0

>  <PUBCHEM_ATOM_UDEF_STEREO_COUNT>  (1) 
0

>  <PUBCHEM_BOND_DEF_STEREO_COUNT>  (1) 
0

>  <PUBCHEM_BOND_UDEF_STEREO_COUNT>  (1) 
0

>  <PUBCHEM_ISOTOPIC_ATOM_COUNT>  (1) 
0

>  <PUBCHEM_COMPONENT_COUNT>  (1) 
1

>  <PUBCHEM_CACTVS_TAUTO_COUNT>  (1) 
5

>  <PUBCHEM_CONFORMER_ID>  (1) 
0000893100000001

>  <PUBCHEM_MMFF94_ENERGY>  (1) 
53.63

>  <PUBCHEM_FEATURE_SELFOVERLAP>  (1) 
30.489

>  <PUBCHEM_SHAPE_FINGERPRINT>  (1) 
10366900 7 18113901567512336267
11471102 20 18342735213256209460
11640471 11 16629984130594169883
12236239 1 16988841649067296295
124424 183 18335419041373325438
12500047 106 17603584118884092547
12916754 54 18272085058668970535
12932764 1 18040708182078528507
13581323 91 16298106488514832483
15219456 202 18334295400339543232
15295992 7 18408891741352075441
15653759 3 17894914039762629577
15775835 57 17346602984464965137
16945 1 18339911632825378159
18186145 218 18272084993917198951
19049666 15 18042122059700745563
192875 21 17346596369956899241
200 152 17774714338262326031
20645464 45 18113618984724031719
20645476 183 17203601563377169271
20645477 70 18343022164601429606
20653085 51 18343012320393494373
21618674 57 18114742625166782202
21639500 275 18130496543586279101
23175994 123 18338244756207607254
23402539 116 13686009852754396515
23526113 38 18262237694675183555
23598294 1 15936404529228927317
25 1 18262795147328448007
27216 239 17903065973833033017
3286 77 18411142476040095143
5262128 65 13757520048657221105
6049 1 18115033024927408024
74978 22 18201998884399633070
77492 1 16988844968923996247
81228 2 17980491066189738136
8809292 202 18113904857367458538
9981440 41 17123639803089924936

>  <PUBCHEM_SHAPE_MULTIPOLES>  (1) 
300.37
6.85
1.71
1.39
2.15
0.19
0.21
0.66
-0.46
0.25
0.78
-0.55
-0.06
1.57

>  <PUBCHEM_SHAPE_SELFOVERLAP>  (1) 
638.773

>  <PUBCHEM_SHAPE_VOLUME>  (1) 
166

>  <PUBCHEM_COORDINATE_TYPE>  (1) 
2
5
10

$$$$
