35120
     RDKit          3D

 27 30  0  0  0  0  0  0  0  0999 V2000
   -1.1625   -2.7592   -0.1167 O   0  0  0  0  0  0  0  0  0  0  0  0
   -0.1786    1.7896    0.0750 N   0  0  0  0  0  0  0  0  0  0  0  0
    3.2834   -1.3709   -0.0633 N   0  0  0  0  0  0  0  0  0  0  0  0
    1.5738    0.2327    0.0071 N   0  0  0  0  0  0  0  0  0  0  0  0
    1.0576   -2.1086   -0.0916 N   0  0  0  0  0  0  0  0  0  0  0  0
   -0.7137   -0.4916   -0.0206 N   0  0  0  0  0  0  0  0  0  0  0  0
   -1.4563    2.3861    0.1028 C   0  0  0  0  0  0  0  0  0  0  0  0
    4.4365   -0.5647   -0.0295 C   0  0  0  0  0  0  0  0  0  0  0  0
    0.2469    0.4482    0.0179 C   0  0  0  0  0  0  0  0  0  0  0  0
    1.9046   -1.0675   -0.0487 C   0  0  0  0  0  0  0  0  0  0  0  0
   -1.6466    3.6539   -0.4473 C   0  0  0  0  0  0  0  0  0  0  0  0
   -2.5298    1.7085    0.6808 C   0  0  0  0  0  0  0  0  0  0  0  0
    5.6107   -1.0453    0.5539 C   0  0  0  0  0  0  0  0  0  0  0  0
    4.4098    0.7189   -0.5789 C   0  0  0  0  0  0  0  0  0  0  0  0
   -0.2348   -1.7448   -0.0746 C   0  0  0  0  0  0  0  0  0  0  0  0
   -2.4922   -2.3971   -0.0999 C   0  0  0  0  0  0  0  0  0  0  0  0
   -2.9101    4.2440   -0.4191 C   0  0  0  0  0  0  0  0  0  0  0  0
   -3.7934    2.2986    0.7088 C   0  0  0  0  0  0  0  0  0  0  0  0
    6.7531   -0.2457    0.5879 C   0  0  0  0  0  0  0  0  0  0  0  0
    5.5524    1.5183   -0.5449 C   0  0  0  0  0  0  0  0  0  0  0  0
   -3.9835    3.5663    0.1588 C   0  0  0  0  0  0  0  0  0  0  0  0
    6.7240    1.0359    0.0386 C   0  0  0  0  0  0  0  0  0  0  0  0
   -3.1499   -2.1669   -1.2983 C   0  0  0  0  0  0  0  0  0  0  0  0
   -3.1468   -2.2694    1.1156 C   0  0  0  0  0  0  0  0  0  0  0  0
   -4.4955   -1.7997   -1.2810 C   0  0  0  0  0  0  0  0  0  0  0  0
   -4.4924   -1.9023    1.1328 C   0  0  0  0  0  0  0  0  0  0  0  0
   -5.1667   -1.6675   -0.0655 C   0  0  0  0  0  0  0  0  0  0  0  0
  1 15  1  0
  1 16  1  0
  2  7  1  0
  2  9  1  0
  3  8  1  0
  3 10  1  0
  4  9  2  0
  4 10  1  0
  5 10  2  0
  5 15  1  0
  6  9  1  0
  6 15  2  0
  7 11  2  0
  7 12  1  0
  8 13  2  0
  8 14  1  0
 11 17  1  0
 12 18  2  0
 13 19  1  0
 14 20  2  0
 16 23  2  0
 16 24  1  0
 17 21  2  0
 18 21  1  0
 19 22  2  0
 20 22  1  0
 23 25  1  0
 24 26  2  0
 25 27  2  0
 26 27  1  0
M  END
>  <PUBCHEM_COMPOUND_CID>  (1) 
35120

>  <PUBCHEM_CONFORMER_RMSD>  (1) 
0.8

>  <PUBCHEM_CONFORMER_DIVERSEORDER>  (1) 
1
36
45
98
91
34
47
68
82
65
90
99
8
19
42
79
89
92
50
59
21
83
67
13
69
85
46
14
94
66
12
43
87
70
76
5
38
101
2
64
30
77
23
20
73
9
80
28
32
103
6
106
7
37
18
71
53
3
51
58
63
54
10
44
62
25
11
39
61
55
33
49
41
29
102
88
81
100
104
105
78
74
60
4
96
24
57
27
84
93
97
56
48
52
22
95
75
72
15
35
26
17
86
31
40
16

>  <PUBCHEM_MMFF94_PARTIAL_CHARGES>  (1) 
44
1 -0.17
10 0.72
11 -0.15
12 -0.15
13 -0.15
14 -0.15
15 0.7
16 0.08
17 -0.15
18 -0.15
19 -0.15
2 -0.6
20 -0.15
21 -0.15
22 -0.15
23 -0.15
24 -0.15
25 -0.15
26 -0.15
27 -0.15
28 0.4
29 0.4
3 -0.6
30 0.15
31 0.15
32 0.15
33 0.15
34 0.15
35 0.15
36 0.15
37 0.15
38 0.15
39 0.15
4 -0.62
40 0.15
41 0.15
42 0.15
43 0.15
44 0.15
5 -0.62
6 -0.62
7 0.1
8 0.1
9 0.72

>  <PUBCHEM_EFFECTIVE_ROTOR_COUNT>  (1) 
6

>  <PUBCHEM_PHARMACOPHORE_FEATURES>  (1) 
8
1 2 donor
1 3 donor
4 2 4 6 9 cation
4 3 4 5 10 cation
6 16 23 24 25 26 27 rings
6 4 5 6 9 10 15 rings
6 7 11 12 17 18 21 rings
6 8 13 14 19 20 22 rings

>  <PUBCHEM_HEAVY_ATOM_COUNT>  (1) 
27

>  <PUBCHEM_ATOM_DEF_STEREO_COUNT>  (1) 
0

>  <PUBCHEM_ATOM_UDEF_STEREO_COUNT>  (1) 
0

>  <PUBCHEM_BOND_DEF_STEREO_COUNT>  (1) 
0

>  <PUBCHEM_BOND_UDEF_STEREO_COUNT>  (1) 
0

>  <PUBCHEM_ISOTOPIC_ATOM_COUNT>  (1) 
0

>  <PUBCHEM_COMPONENT_COUNT>  (1) 
1

>  <PUBCHEM_CACTVS_TAUTO_COUNT>  (1) 
5

>  <PUBCHEM_CONFORMER_ID>  (1) 
0000893000000001

>  <PUBCHEM_MMFF94_ENERGY>  (1) 
101.5536

>  <PUBCHEM_FEATURE_SELFOVERLAP>  (1) 
40.641

>  <PUBCHEM_SHAPE_FINGERPRINT>  (1) 
10050765 1 18338797793899463150
10087517 78 18412261756980218062
10411042 1 18122906692609642323
10670039 82 18336844052057144204
10871710 139 18411419501699855427
11101153 10 18337112396865773244
12293681 4 18116163323229461195
12788726 201 18335691754358465443
13947920 24 17750211661608153245
14028597 1 17676480640668554347
140371 6 18189345713346296710
14765038 42 17987249824532863041
14790565 3 18410015437982918802
15131766 46 15360839964785599029
15274700 242 18040712524807281099
15276724 80 18342457092638608900
15338160 23 18410857646340803868
16087824 20 18411136893601235237
19427546 62 17833270814053524373
21236236 1 18412826880229282714
21641784 216 18261969525749678252
21796203 349 17975453314554947761
23227448 37 18339924814423238932
23929065 36 18269814506927922328
283562 15 18408880737561719995
350125 39 18413109493525697536
5104073 3 18335973200330435458
5171179 24 17916288614764040393
550186 72 18409731780942068260
552612 73 18059004107669215312
5969126 39 18342729754210351639
7226269 152 18261670471218805090
7237137 82 18343866623479628584
7808743 9 18338513028571258440

>  <PUBCHEM_SHAPE_MULTIPOLES>  (1) 
524.87
14.37
4.75
0.93
25.13
4.43
-0.04
-0.52
0.82
-8.41
-0.32
-0.76
-0.32
-0.68

>  <PUBCHEM_SHAPE_SELFOVERLAP>  (1) 
1151.997

>  <PUBCHEM_SHAPE_VOLUME>  (1) 
276.6

>  <PUBCHEM_COORDINATE_TYPE>  (1) 
2
5
10

$$$$
