35123
     RDKit          3D

 18 19  0  0  0  0  0  0  0  0999 V2000
    0.7744    1.5733    0.0002 O   0  0  0  0  0  0  0  0  0  0  0  0
   -4.9827   -0.6724    1.0972 O   0  0  0  0  0  0  0  0  0  0  0  0
   -4.9825   -0.6693   -1.0980 O   0  0  0  0  0  0  0  0  0  0  0  0
   -4.4161   -0.4500   -0.0001 N   0  0  0  0  0  0  0  0  0  0  0  0
    1.4798   -0.6301   -0.0008 N   0  0  0  0  0  0  0  0  0  0  0  0
    3.0544    1.1806    0.0002 N   0  0  0  0  0  0  0  0  0  0  0  0
    3.8351   -1.0884   -0.0003 N   0  0  0  0  0  0  0  0  0  0  0  0
    2.2726   -2.8370   -0.0008 N   0  0  0  0  0  0  0  0  0  0  0  0
    5.3500    0.7017    0.0006 N   0  0  0  0  0  0  0  0  0  0  0  0
   -0.4938    1.0790    0.0000 C   0  0  0  0  0  0  0  0  0  0  0  0
   -3.0933    0.0664    0.0008 C   0  0  0  0  0  0  0  0  0  0  0  0
   -1.1433    0.8252    1.2082 C   0  0  0  0  0  0  0  0  0  0  0  0
   -1.1443    0.8265   -1.2079 C   0  0  0  0  0  0  0  0  0  0  0  0
   -2.4430    0.3188    1.2086 C   0  0  0  0  0  0  0  0  0  0  0  0
   -2.4441    0.3202   -1.2074 C   0  0  0  0  0  0  0  0  0  0  0  0
    1.8194    0.6646   -0.0001 C   0  0  0  0  0  0  0  0  0  0  0  0
    2.5423   -1.4512   -0.0007 C   0  0  0  0  0  0  0  0  0  0  0  0
    4.0150    0.2422    0.0003 C   0  0  0  0  0  0  0  0  0  0  0  0
  1 10  1  0
  1 16  1  0
  2  4  1  0
  3  4  2  0
  4 11  1  0
  5 16  2  0
  5 17  1  0
  6 16  1  0
  6 18  2  0
  7 17  2  0
  7 18  1  0
  8 17  1  0
  9 18  1  0
 10 12  2  0
 10 13  1  0
 11 14  2  0
 11 15  1  0
 12 14  1  0
 13 15  2  0
M  CHG  2   2  -1   4   1
M  END
>  <PUBCHEM_COMPOUND_CID>  (1) 
35123

>  <PUBCHEM_CONFORMER_RMSD>  (1) 
0.6

>  <PUBCHEM_CONFORMER_DIVERSEORDER>  (1) 
1
4
6
3
5
2

>  <PUBCHEM_MMFF94_PARTIAL_CHARGES>  (1) 
26
1 -0.17
10 0.08
11 0.13
12 -0.15
13 -0.15
14 -0.15
15 -0.15
16 0.7
17 0.72
18 0.72
19 0.15
2 -0.52
20 0.15
21 0.15
22 0.15
23 0.4
24 0.4
25 0.4
26 0.4
3 -0.52
4 0.91
5 -0.62
6 -0.62
7 -0.62
8 -0.9
9 -0.9

>  <PUBCHEM_EFFECTIVE_ROTOR_COUNT>  (1) 
3

>  <PUBCHEM_PHARMACOPHORE_FEATURES>  (1) 
9
1 2 acceptor
1 2 anion
1 3 acceptor
1 8 donor
1 9 donor
4 5 7 8 17 cation
4 6 7 9 18 cation
6 10 11 12 13 14 15 rings
6 5 6 7 16 17 18 rings

>  <PUBCHEM_HEAVY_ATOM_COUNT>  (1) 
18

>  <PUBCHEM_ATOM_DEF_STEREO_COUNT>  (1) 
0

>  <PUBCHEM_ATOM_UDEF_STEREO_COUNT>  (1) 
0

>  <PUBCHEM_BOND_DEF_STEREO_COUNT>  (1) 
0

>  <PUBCHEM_BOND_UDEF_STEREO_COUNT>  (1) 
0

>  <PUBCHEM_ISOTOPIC_ATOM_COUNT>  (1) 
0

>  <PUBCHEM_COMPONENT_COUNT>  (1) 
1

>  <PUBCHEM_CACTVS_TAUTO_COUNT>  (1) 
5

>  <PUBCHEM_CONFORMER_ID>  (1) 
0000893300000001

>  <PUBCHEM_MMFF94_ENERGY>  (1) 
64.533

>  <PUBCHEM_FEATURE_SELFOVERLAP>  (1) 
45.794

>  <PUBCHEM_SHAPE_FINGERPRINT>  (1) 
11045977 3 11743832591150639341
12236239 1 17704075105259897240
12251169 10 15482670195276214361
12507557 5 8934994880237954116
12596602 18 17131833213505848571
13922767 16 9655574115242219164
14251717 144 18410293614234640634
14386348 63 17894634759572268643
15295992 7 10591750008940479094
15375358 24 17748828514017683832
15375462 189 17989200438909743272
192875 21 12251904784889202510
19433438 38 18040710346821037220
200 152 18412824685648927873
20279233 1 17603309241161492064
20645477 70 18335413513755833318
21119208 17 12684808918002861577
212847 35 10879992475910438514
21618674 57 12751244687976962766
22485316 2 18411698764414785885
23402539 116 15864062195875470343
23557571 272 17240194413497084860
23559900 14 15936411169697032372
26918003 58 18411419527174026465
2871803 45 18261109643131857882
33824 294 18408041801821176122
474 4 17772458239150084752
474229 33 18335421296679516322
4990 188 17240480325686422185
5104073 3 18338513019986482200
83771 10 18342172258886618249
9709674 26 18188214208222081874

>  <PUBCHEM_SHAPE_MULTIPOLES>  (1) 
322.94
9.9
1.63
1.05
1.19
0.98
0
2.17
0
-1.51
0
1.22
-0.12
0

>  <PUBCHEM_SHAPE_SELFOVERLAP>  (1) 
698.259

>  <PUBCHEM_SHAPE_VOLUME>  (1) 
172

>  <PUBCHEM_COORDINATE_TYPE>  (1) 
2
5
10

$$$$
