35135
     RDKit          3D

 17 17  0  0  0  0  0  0  0  0999 V2000
   -3.3709   -1.4267    0.8888 S   0  0  0  0  0  0  0  0  0  0  0  0
    1.5021   -2.0865   -0.0815 N   0  0  0  0  0  0  0  0  0  0  0  0
   -0.0890    2.3115    0.2726 N   0  0  0  0  0  0  0  0  0  0  0  0
    0.7360    0.1236    0.0890 N   0  0  0  0  0  0  0  0  0  0  0  0
   -1.5838    0.5266    0.5517 N   0  0  0  0  0  0  0  0  0  0  0  0
   -0.7698   -1.7234    0.3708 N   0  0  0  0  0  0  0  0  0  0  0  0
   -4.6445   -0.1973   -1.3489 N   0  0  0  0  0  0  0  0  0  0  0  0
    2.8622   -1.6706   -0.3482 C   0  0  0  0  0  0  0  0  0  0  0  0
    1.2011    2.8745    0.0245 C   0  0  0  0  0  0  0  0  0  0  0  0
    3.6096   -2.8074   -1.0326 C   0  0  0  0  0  0  0  0  0  0  0  0
    3.5366   -1.2695    0.9573 C   0  0  0  0  0  0  0  0  0  0  0  0
    1.2374    4.3005    0.5576 C   0  0  0  0  0  0  0  0  0  0  0  0
    1.4957    2.8327   -1.4694 C   0  0  0  0  0  0  0  0  0  0  0  0
    0.4587   -1.2028    0.1322 C   0  0  0  0  0  0  0  0  0  0  0  0
   -0.3235    0.9194    0.3059 C   0  0  0  0  0  0  0  0  0  0  0  0
   -1.7318   -0.8079    0.5693 C   0  0  0  0  0  0  0  0  0  0  0  0
   -4.1261   -0.6968   -0.4392 C   0  0  0  0  0  0  0  0  0  0  0  0
  1 16  1  0
  1 17  1  0
  2  8  1  0
  2 14  1  0
  3  9  1  0
  3 15  1  0
  4 14  2  0
  4 15  1  0
  5 15  2  0
  5 16  1  0
  6 14  1  0
  6 16  2  0
  7 17  3  0
  8 10  1  0
  8 11  1  0
  9 12  1  0
  9 13  1  0
M  END
>  <PUBCHEM_COMPOUND_CID>  (1) 
35135

>  <PUBCHEM_CONFORMER_RMSD>  (1) 
0.6

>  <PUBCHEM_CONFORMER_DIVERSEORDER>  (1) 
1
182
142
75
101
42
24
198
155
165
114
100
171
222
223
137
122
134
147
133
41
151
220
23
149
154
130
68
190
187
162
202
191
138
62
66
209
131
200
177
194
164
188
120
159
153
5
90
195
109
94
136
169
224
50
199
121
31
33
117
207
40
103
172
219
44
213
32
197
227
214
9
205
181
230
176
95
225
163
211
226
116
81
36
158
132
112
146
166
160
217
30
189
53
16
212
180
99
98
144
3
174
185
186
2
79
96
71
228
170
108
97
111
43
168
123
150
78
85
204
56
27
145
58
110
221
55
173
107
183
148
25
87
218
201
184
206
10
60
143
208
54
127
125
216
76
70
135
14
106
77
49
104
193
141
215
57
192
102
48
52
156
113
140
46
73
126
152
178
35
65
161
22
84
59
179
196
105
203
39
17
210
124
80
21
38
119
86
64
157
229
26
72
18
139
74
13
82
167
61
88
128
47
15
45
89
115
51
29
129
91
67
20
92
83
175
118
93
34
37
19
11
63
69
8
4
12
6
7
28

>  <PUBCHEM_MMFF94_PARTIAL_CHARGES>  (1) 
15
1 -0.14
14 0.72
15 0.72
16 0.72
17 0.59
2 -0.87
20 0.4
21 0.4
3 -0.87
4 -0.62
5 -0.62
6 -0.62
7 -0.56
8 0.37
9 0.37

>  <PUBCHEM_EFFECTIVE_ROTOR_COUNT>  (1) 
5

>  <PUBCHEM_PHARMACOPHORE_FEATURES>  (1) 
8
1 2 donor
1 3 donor
1 7 acceptor
3 8 10 11 hydrophobe
3 9 12 13 hydrophobe
4 2 4 6 14 cation
4 3 4 5 15 cation
6 4 5 6 14 15 16 rings

>  <PUBCHEM_HEAVY_ATOM_COUNT>  (1) 
17

>  <PUBCHEM_ATOM_DEF_STEREO_COUNT>  (1) 
0

>  <PUBCHEM_ATOM_UDEF_STEREO_COUNT>  (1) 
0

>  <PUBCHEM_BOND_DEF_STEREO_COUNT>  (1) 
0

>  <PUBCHEM_BOND_UDEF_STEREO_COUNT>  (1) 
0

>  <PUBCHEM_ISOTOPIC_ATOM_COUNT>  (1) 
0

>  <PUBCHEM_COMPONENT_COUNT>  (1) 
1

>  <PUBCHEM_CACTVS_TAUTO_COUNT>  (1) 
5

>  <PUBCHEM_CONFORMER_ID>  (1) 
0000893F00000001

>  <PUBCHEM_MMFF94_ENERGY>  (1) 
36.6272

>  <PUBCHEM_FEATURE_SELFOVERLAP>  (1) 
40.637

>  <PUBCHEM_SHAPE_FINGERPRINT>  (1) 
12553582 1 18264220118503693923
12730499 353 18049730917116241547
14178000 22 17404010921486766817
14181834 199 18264198287210821175
14508225 48 18266741273117504414
15502722 9 18265615579500810911
167882 2 18192988438091847164
17357779 13 18268415863390848863
17539 30 17980477854310906740
18186145 218 17694239050527008449
18785283 64 18117283755726688305
20645476 183 16962680174296896612
20645477 70 18264765631454142179
20671657 1 18268432506811035767
20671657 53 18341614776574439727
21029758 11 18410292475852061859
21524375 3 17471292224339126513
22112679 90 18054539952435408344
23114952 82 18261390109112910445
23175994 123 18336554824311464299
23402539 116 18196370321005260271
23419403 2 17897694717849791028
23557571 272 18123472678993685334
2748010 2 18339634538820733042
3071541 12 18339084903434812369
3071541 158 18333448755185612991
3071541 250 18338535095722626978
3071541 37 18119819268126395651
3091708 16 9068801030322929090
43471831 8 17616538796852942570
458136 41 17832168356135465257
532947 4 18197503029015294884
6049 1 17822864194616110003
6442390 28 16972530140519021760
7364860 26 18267309909454540552
81228 2 18048888394049344482

>  <PUBCHEM_SHAPE_MULTIPOLES>  (1) 
323.82
6.55
4.58
1.09
6.01
5.08
0.26
-4.98
1.53
-5.56
0.22
0.08
0.1
0.5

>  <PUBCHEM_SHAPE_SELFOVERLAP>  (1) 
632.325

>  <PUBCHEM_SHAPE_VOLUME>  (1) 
194.1

>  <PUBCHEM_COORDINATE_TYPE>  (1) 
2
5
10

$$$$
