35130
     RDKit          3D

 15 16  0  0  0  0  0  0  0  0999 V2000
    0.4942   -1.0989   -1.6056 S   0  0  0  0  0  0  0  0  0  0  0  0
   -0.9600    0.9149   -0.6298 N   0  0  0  0  0  0  0  0  0  0  0  0
   -1.8336   -1.2977   -0.3155 N   0  0  0  0  0  0  0  0  0  0  0  0
   -3.0449    0.5996    0.5154 N   0  0  0  0  0  0  0  0  0  0  0  0
   -2.1655    2.7498    0.1936 N   0  0  0  0  0  0  0  0  0  0  0  0
   -3.8729   -1.5753    0.8081 N   0  0  0  0  0  0  0  0  0  0  0  0
    1.8274   -0.5301   -0.5684 C   0  0  0  0  0  0  0  0  0  0  0  0
    1.8761   -0.9064    0.7740 C   0  0  0  0  0  0  0  0  0  0  0  0
    2.8225    0.2910   -1.0990 C   0  0  0  0  0  0  0  0  0  0  0  0
   -0.9232   -0.4188   -0.7564 C   0  0  0  0  0  0  0  0  0  0  0  0
    2.9194   -0.4613    1.5858 C   0  0  0  0  0  0  0  0  0  0  0  0
    3.8659    0.7359   -0.2871 C   0  0  0  0  0  0  0  0  0  0  0  0
    3.9143    0.3596    1.0552 C   0  0  0  0  0  0  0  0  0  0  0  0
   -2.0515    1.3536    0.0177 C   0  0  0  0  0  0  0  0  0  0  0  0
   -2.8684   -0.7158    0.3119 C   0  0  0  0  0  0  0  0  0  0  0  0
  1  7  1  0
  1 10  1  0
  2 10  2  0
  2 14  1  0
  3 10  1  0
  3 15  2  0
  4 14  2  0
  4 15  1  0
  5 14  1  0
  6 15  1  0
  7  8  2  0
  7  9  1  0
  8 11  1  0
  9 12  2  0
 11 13  2  0
 12 13  1  0
M  END
>  <PUBCHEM_COMPOUND_CID>  (1) 
35130

>  <PUBCHEM_CONFORMER_RMSD>  (1) 
0.6

>  <PUBCHEM_CONFORMER_DIVERSEORDER>  (1) 
1
2
3
4

>  <PUBCHEM_MMFF94_PARTIAL_CHARGES>  (1) 
24
1 -0.2
10 0.72
11 -0.15
12 -0.15
13 -0.15
14 0.72
15 0.72
16 0.15
17 0.15
18 0.15
19 0.15
2 -0.62
20 0.15
21 0.4
22 0.4
23 0.4
24 0.4
3 -0.62
4 -0.62
5 -0.9
6 -0.9
7 0.1
8 -0.15
9 -0.15

>  <PUBCHEM_EFFECTIVE_ROTOR_COUNT>  (1) 
2

>  <PUBCHEM_PHARMACOPHORE_FEATURES>  (1) 
6
1 5 donor
1 6 donor
4 2 4 5 14 cation
4 3 4 6 15 cation
6 2 3 4 10 14 15 rings
6 7 8 9 11 12 13 rings

>  <PUBCHEM_HEAVY_ATOM_COUNT>  (1) 
15

>  <PUBCHEM_ATOM_DEF_STEREO_COUNT>  (1) 
0

>  <PUBCHEM_ATOM_UDEF_STEREO_COUNT>  (1) 
0

>  <PUBCHEM_BOND_DEF_STEREO_COUNT>  (1) 
0

>  <PUBCHEM_BOND_UDEF_STEREO_COUNT>  (1) 
0

>  <PUBCHEM_ISOTOPIC_ATOM_COUNT>  (1) 
0

>  <PUBCHEM_COMPONENT_COUNT>  (1) 
1

>  <PUBCHEM_CACTVS_TAUTO_COUNT>  (1) 
5

>  <PUBCHEM_CONFORMER_ID>  (1) 
0000893A00000001

>  <PUBCHEM_MMFF94_ENERGY>  (1) 
42.8545

>  <PUBCHEM_FEATURE_SELFOVERLAP>  (1) 
30.489

>  <PUBCHEM_SHAPE_FINGERPRINT>  (1) 
11132069 177 17989207087767232319
12932764 1 17489866025127641758
13380536 127 18408321077420878414
13693222 15 16515680039978939014
13764800 53 18130507435718209481
14289901 80 18334298656162260722
14787075 74 17104830496328018982
15309172 13 17489870448785687959
15375462 189 17750803340170717523
15775835 57 17704067413094789534
17834072 14 13479126925956623662
18186145 218 16272209695725557006
18219364 16 17275094033496080257
200 152 16588015844512698323
20361792 2 14707213175636645262
20510252 161 18342747299325776921
20645477 56 17632286930757996240
20645477 70 14129062542670153194
20871999 31 9799400140186361251
21119208 17 11671792571733939738
21486144 27 16271923852498080746
23503958 25 18060138734701429680
23557571 272 18271542939343624231
23559900 14 18267879288926752535
25 1 15769782372745514070
5374978 207 18335139799805794219
57812782 119 13551184507130618618
581208 293 16008748039503493726
6049 1 17844829008816414870
7097593 13 17825377484448865698
90316 7 17968377840564458669
9882013 296 18335985349748455674

>  <PUBCHEM_SHAPE_MULTIPOLES>  (1) 
287.64
7.16
1.73
1.35
0.87
0.94
0.03
0.62
2.37
-1.76
-0.07
0.9
-0.35
0.24

>  <PUBCHEM_SHAPE_SELFOVERLAP>  (1) 
599.739

>  <PUBCHEM_SHAPE_VOLUME>  (1) 
162.3

>  <PUBCHEM_COORDINATE_TYPE>  (1) 
2
5
10

$$$$
