35144
     RDKit          3D

 10 10  0  0  0  0  0  0  0  0999 V2000
    2.1069   -0.8566    1.3839 Cl  0  0  0  0  0  0  0  0  0  0  0  0
   -0.6120    1.2110    0.0553 N   0  0  0  0  0  0  0  0  0  0  0  0
   -0.5784   -1.1841   -0.0866 N   0  0  0  0  0  0  0  0  0  0  0  0
   -2.6724   -0.0185    0.0322 N   0  0  0  0  0  0  0  0  0  0  0  0
    1.4980    0.0456   -0.0640 C   0  0  0  0  0  0  0  0  0  0  0  0
    2.1270    1.4486    0.0031 C   0  0  0  0  0  0  0  0  0  0  0  0
    2.0330   -0.6541   -1.3261 C   0  0  0  0  0  0  0  0  0  0  0  0
   -0.0316    0.0222   -0.0285 C   0  0  0  0  0  0  0  0  0  0  0  0
   -1.9509    1.1129    0.0816 C   0  0  0  0  0  0  0  0  0  0  0  0
   -1.9195   -1.1272   -0.0509 C   0  0  0  0  0  0  0  0  0  0  0  0
  1  5  1  0
  2  8  2  0
  2  9  1  0
  3  8  1  0
  3 10  2  0
  4  9  2  0
  4 10  1  0
  5  6  1  0
  5  7  1  0
  5  8  1  0
M  END
>  <PUBCHEM_COMPOUND_CID>  (1) 
35144

>  <PUBCHEM_CONFORMER_RMSD>  (1) 
0.4

>  <PUBCHEM_CONFORMER_DIVERSEORDER>  (1) 
1
2
3

>  <PUBCHEM_MMFF94_PARTIAL_CHARGES>  (1) 
10
1 -0.29
10 0.47
17 0.15
18 0.15
2 -0.62
3 -0.62
4 -0.62
5 0.43
8 0.48
9 0.47

>  <PUBCHEM_EFFECTIVE_ROTOR_COUNT>  (1) 
1

>  <PUBCHEM_PHARMACOPHORE_FEATURES>  (1) 
5
3 2 3 8 cation
3 2 4 9 cation
3 3 4 10 cation
3 5 6 7 hydrophobe
6 2 3 4 8 9 10 rings

>  <PUBCHEM_HEAVY_ATOM_COUNT>  (1) 
10

>  <PUBCHEM_ATOM_DEF_STEREO_COUNT>  (1) 
0

>  <PUBCHEM_ATOM_UDEF_STEREO_COUNT>  (1) 
0

>  <PUBCHEM_BOND_DEF_STEREO_COUNT>  (1) 
0

>  <PUBCHEM_BOND_UDEF_STEREO_COUNT>  (1) 
0

>  <PUBCHEM_ISOTOPIC_ATOM_COUNT>  (1) 
0

>  <PUBCHEM_COMPONENT_COUNT>  (1) 
1

>  <PUBCHEM_CACTVS_TAUTO_COUNT>  (1) 
1

>  <PUBCHEM_CONFORMER_ID>  (1) 
0000894800000001

>  <PUBCHEM_MMFF94_ENERGY>  (1) 
24.9317

>  <PUBCHEM_FEATURE_SELFOVERLAP>  (1) 
28.208

>  <PUBCHEM_SHAPE_FINGERPRINT>  (1) 
10857977 72 18201431527883567067
12423570 1 13001211591225275350
12524768 44 18341899631468548069
12897270 3 18199760287347142260
12932764 1 18041001721813403069
15310529 11 17022911120444148917
15775835 57 18113903723480391396
16945 1 18339361847073209063
19973954 147 18272378563400736020
20645464 45 17846204532312346954
21040471 1 18195529186188375277
23552423 10 18187930632953356014
24536 1 18060135418817533868
2748010 2 18412548734042215085
29004967 10 16630526223938364546
3248919 1 17988921163146276561
369184 2 18186793699486546017
5084963 1 17845942826943330087
8030462 33 17967535674717986975

>  <PUBCHEM_SHAPE_MULTIPOLES>  (1) 
192.72
3.7
1.45
1.01
0.74
0.23
0
-0.01
-0.13
-0.04
-0.08
-0.83
-0.3
-0.17

>  <PUBCHEM_SHAPE_SELFOVERLAP>  (1) 
382.75

>  <PUBCHEM_SHAPE_VOLUME>  (1) 
115.3

>  <PUBCHEM_COORDINATE_TYPE>  (1) 
2
5
10

$$$$
