35141
     RDKit          3D

  9  9  0  0  1  0  0  0  0  0999 V2000
    2.4474   -0.2380    1.3956 Cl  0  0  0  0  0  0  0  0  0  0  0  0
   -0.2023   -1.0843   -0.0729 N   0  0  0  0  0  0  0  0  0  0  0  0
   -0.5933    1.2806    0.0357 N   0  0  0  0  0  0  0  0  0  0  0  0
   -2.4470   -0.2430    0.0347 N   0  0  0  0  0  0  0  0  0  0  0  0
    1.6671    0.4422   -0.0721 C   0  0  0  0  0  0  0  0  0  0  0  0
    0.1968    0.1972   -0.0342 C   0  0  0  0  0  0  0  0  0  0  0  0
    2.3705   -0.1108   -1.3182 C   0  0  0  0  0  0  0  0  0  0  0  0
   -1.5368   -1.2279   -0.0350 C   0  0  0  0  0  0  0  0  0  0  0  0
   -1.9025    0.9840    0.0664 C   0  0  0  0  0  0  0  0  0  0  0  0
  1  5  1  0
  2  6  2  0
  2  8  1  0
  3  6  1  0
  3  9  2  0
  4  8  2  0
  4  9  1  0
  5  6  1  0
  5  7  1  0
M  END
>  <PUBCHEM_COMPOUND_CID>  (1) 
35141

>  <PUBCHEM_CONFORMER_RMSD>  (1) 
0.4

>  <PUBCHEM_CONFORMER_DIVERSEORDER>  (1) 
1
2
3
4

>  <PUBCHEM_MMFF94_PARTIAL_CHARGES>  (1) 
10
1 -0.29
14 0.15
15 0.15
2 -0.62
3 -0.62
4 -0.62
5 0.43
6 0.48
8 0.47
9 0.47

>  <PUBCHEM_EFFECTIVE_ROTOR_COUNT>  (1) 
1

>  <PUBCHEM_PHARMACOPHORE_FEATURES>  (1) 
4
3 2 3 6 cation
3 2 4 8 cation
3 3 4 9 cation
6 2 3 4 6 8 9 rings

>  <PUBCHEM_HEAVY_ATOM_COUNT>  (1) 
9

>  <PUBCHEM_ATOM_DEF_STEREO_COUNT>  (1) 
0

>  <PUBCHEM_ATOM_UDEF_STEREO_COUNT>  (1) 
1

>  <PUBCHEM_BOND_DEF_STEREO_COUNT>  (1) 
0

>  <PUBCHEM_BOND_UDEF_STEREO_COUNT>  (1) 
0

>  <PUBCHEM_ISOTOPIC_ATOM_COUNT>  (1) 
0

>  <PUBCHEM_COMPONENT_COUNT>  (1) 
1

>  <PUBCHEM_CACTVS_TAUTO_COUNT>  (1) 
1

>  <PUBCHEM_CONFORMER_ID>  (1) 
0000894500000001

>  <PUBCHEM_MMFF94_ENERGY>  (1) 
15.5468

>  <PUBCHEM_FEATURE_SELFOVERLAP>  (1) 
23.07

>  <PUBCHEM_SHAPE_FINGERPRINT>  (1) 
10857977 72 18200588206601722659
12932741 1 17561084696062026876
12932764 1 17894633664287224700
15310529 11 16805324405031770333
16714656 1 18339092543933601645
16945 1 18411700980549260861
20645464 45 17846206761526850706
21040471 1 18267305330961419541
23552423 10 17898012570867072061
29004967 10 16559034895684563994
369184 2 18339626910779447848
5084963 1 18059586762430780228

>  <PUBCHEM_SHAPE_MULTIPOLES>  (1) 
172.14
3.66
1.19
1.06
0.49
0.03
-0.02
0.13
-0.19
-0.57
-0.02
1.08
0.08
-0.18

>  <PUBCHEM_SHAPE_SELFOVERLAP>  (1) 
337.999

>  <PUBCHEM_SHAPE_VOLUME>  (1) 
103.3

>  <PUBCHEM_COORDINATE_TYPE>  (1) 
2
5
10

$$$$
