35149
     RDKit          3D

 15 15  0  0  0  0  0  0  0  0999 V2000
   -3.5136   -0.0825   -0.0002 F   0  0  0  0  0  0  0  0  0  0  0  0
   -2.5735    1.5445    1.0830 F   0  0  0  0  0  0  0  0  0  0  0  0
   -2.5537    1.5350   -1.0915 F   0  0  0  0  0  0  0  0  0  0  0  0
    3.5136   -0.0825   -0.0004 F   0  0  0  0  0  0  0  0  0  0  0  0
    2.5731    1.5446   -1.0831 F   0  0  0  0  0  0  0  0  0  0  0  0
    2.5541    1.5350    1.0914 F   0  0  0  0  0  0  0  0  0  0  0  0
    0.0000    0.7193    0.0004 N   0  0  0  0  0  0  0  0  0  0  0  0
    1.1998   -1.3587    0.0001 N   0  0  0  0  0  0  0  0  0  0  0  0
   -1.1998   -1.3587    0.0002 N   0  0  0  0  0  0  0  0  0  0  0  0
   -1.1221   -0.0181    0.0003 C   0  0  0  0  0  0  0  0  0  0  0  0
    1.1221   -0.0182    0.0002 C   0  0  0  0  0  0  0  0  0  0  0  0
    0.0000   -1.9617    0.0001 C   0  0  0  0  0  0  0  0  0  0  0  0
   -2.4131    0.7273    0.0000 C   0  0  0  0  0  0  0  0  0  0  0  0
    2.4132    0.7273   -0.0001 C   0  0  0  0  0  0  0  0  0  0  0  0
    0.0000   -3.4526   -0.0002 C   0  0  0  0  0  0  0  0  0  0  0  0
  1 13  1  0
  2 13  1  0
  3 13  1  0
  4 14  1  0
  5 14  1  0
  6 14  1  0
  7 10  2  0
  7 11  1  0
  8 11  2  0
  8 12  1  0
  9 10  1  0
  9 12  2  0
 10 13  1  0
 11 14  1  0
 12 15  1  0
M  END
>  <PUBCHEM_COMPOUND_CID>  (1) 
35149

>  <PUBCHEM_CONFORMER_RMSD>  (1) 
0.6

>  <PUBCHEM_CONFORMER_DIVERSEORDER>  (1) 
1

>  <PUBCHEM_MMFF94_PARTIAL_CHARGES>  (1) 
15
1 -0.34
10 0.48
11 0.48
12 0.48
13 1.16
14 1.16
15 0.14
2 -0.34
3 -0.34
4 -0.34
5 -0.34
6 -0.34
7 -0.62
8 -0.62
9 -0.62

>  <PUBCHEM_EFFECTIVE_ROTOR_COUNT>  (1) 
2

>  <PUBCHEM_PHARMACOPHORE_FEATURES>  (1) 
4
3 7 8 11 cation
3 7 9 10 cation
3 8 9 12 cation
6 7 8 9 10 11 12 rings

>  <PUBCHEM_HEAVY_ATOM_COUNT>  (1) 
15

>  <PUBCHEM_ATOM_DEF_STEREO_COUNT>  (1) 
0

>  <PUBCHEM_ATOM_UDEF_STEREO_COUNT>  (1) 
0

>  <PUBCHEM_BOND_DEF_STEREO_COUNT>  (1) 
0

>  <PUBCHEM_BOND_UDEF_STEREO_COUNT>  (1) 
0

>  <PUBCHEM_ISOTOPIC_ATOM_COUNT>  (1) 
0

>  <PUBCHEM_COMPONENT_COUNT>  (1) 
1

>  <PUBCHEM_CACTVS_TAUTO_COUNT>  (1) 
1

>  <PUBCHEM_CONFORMER_ID>  (1) 
0000894D00000001

>  <PUBCHEM_MMFF94_ENERGY>  (1) 
16.192

>  <PUBCHEM_FEATURE_SELFOVERLAP>  (1) 
23.07

>  <PUBCHEM_SHAPE_FINGERPRINT>  (1) 
1 1 18338795602706090910
12716758 59 18270119148936900818
13380535 76 18410573985151964323
14325111 11 18410855460133611937
14648413 74 17902511489428456657
15309172 13 18336274500079650753
16945 1 18050285860538427459
18186145 218 18343587313150669292
20510252 161 18126568048674857899
20645476 183 18114757035082961502
20645477 56 18267026235850498880
20871998 184 18120949548736824075
21028194 46 18409165515067178601
21040471 1 18410856607148323330
21524375 3 18410573989446827690
2334 1 18410292540239875358
23402539 116 18126272280263634271
23552423 10 18196373611382355303
23557571 272 17766288952352005140
23559900 14 18272660069755670284
2748010 2 18409456881364420359
305870 269 18338232644136094834
3071541 158 17830176800980000838
3071541 236 18119792849434833754
458136 41 18194427552899593699
7364860 26 18125721180003571983
81228 2 17906167708777057451

>  <PUBCHEM_SHAPE_MULTIPOLES>  (1) 
250.11
4.6
2.68
0.8
0
2.73
0
-2.99
0
0
0
0
-0.38
0

>  <PUBCHEM_SHAPE_SELFOVERLAP>  (1) 
526.973

>  <PUBCHEM_SHAPE_VOLUME>  (1) 
141.1

>  <PUBCHEM_COORDINATE_TYPE>  (1) 
2
5
10

$$$$
