35142
     RDKit          3D

 10 10  0  0  0  0  0  0  0  0999 V2000
    2.1248   -0.7762   -1.4622 Cl  0  0  0  0  0  0  0  0  0  0  0  0
    2.1242   -0.7766    1.4623 Cl  0  0  0  0  0  0  0  0  0  0  0  0
   -0.5823   -1.1800   -0.0001 N   0  0  0  0  0  0  0  0  0  0  0  0
   -0.6541    1.2184    0.0001 N   0  0  0  0  0  0  0  0  0  0  0  0
   -2.6954   -0.0429    0.0000 N   0  0  0  0  0  0  0  0  0  0  0  0
    1.4749    0.0821    0.0001 C   0  0  0  0  0  0  0  0  0  0  0  0
   -0.0155    0.0373   -0.0001 C   0  0  0  0  0  0  0  0  0  0  0  0
    2.1397    1.4797    0.0001 C   0  0  0  0  0  0  0  0  0  0  0  0
   -1.9245   -1.1426   -0.0001 C   0  0  0  0  0  0  0  0  0  0  0  0
   -1.9917    1.1007    0.0000 C   0  0  0  0  0  0  0  0  0  0  0  0
  1  6  1  0
  2  6  1  0
  3  7  2  0
  3  9  1  0
  4  7  1  0
  4 10  2  0
  5  9  2  0
  5 10  1  0
  6  7  1  0
  6  8  1  0
M  END
>  <PUBCHEM_COMPOUND_CID>  (1) 
35142

>  <PUBCHEM_CONFORMER_RMSD>  (1) 
0.4

>  <PUBCHEM_CONFORMER_DIVERSEORDER>  (1) 
1
2
3

>  <PUBCHEM_MMFF94_PARTIAL_CHARGES>  (1) 
11
1 -0.29
10 0.47
14 0.15
15 0.15
2 -0.29
3 -0.62
4 -0.62
5 -0.62
6 0.72
7 0.48
9 0.47

>  <PUBCHEM_EFFECTIVE_ROTOR_COUNT>  (1) 
1

>  <PUBCHEM_PHARMACOPHORE_FEATURES>  (1) 
4
3 3 4 7 cation
3 3 5 9 cation
3 4 5 10 cation
6 3 4 5 7 9 10 rings

>  <PUBCHEM_HEAVY_ATOM_COUNT>  (1) 
10

>  <PUBCHEM_ATOM_DEF_STEREO_COUNT>  (1) 
0

>  <PUBCHEM_ATOM_UDEF_STEREO_COUNT>  (1) 
0

>  <PUBCHEM_BOND_DEF_STEREO_COUNT>  (1) 
0

>  <PUBCHEM_BOND_UDEF_STEREO_COUNT>  (1) 
0

>  <PUBCHEM_ISOTOPIC_ATOM_COUNT>  (1) 
0

>  <PUBCHEM_COMPONENT_COUNT>  (1) 
1

>  <PUBCHEM_CACTVS_TAUTO_COUNT>  (1) 
1

>  <PUBCHEM_CONFORMER_ID>  (1) 
0000894600000001

>  <PUBCHEM_MMFF94_ENERGY>  (1) 
20.8633

>  <PUBCHEM_FEATURE_SELFOVERLAP>  (1) 
23.07

>  <PUBCHEM_SHAPE_FINGERPRINT>  (1) 
10857977 72 18200586007747291667
12423570 1 12832924125333441168
12524768 44 18341617061275183421
12897270 3 18199478816675954908
12932764 1 18040438771865269493
15310529 11 16805612434160197197
15775835 57 18040719130055628596
16945 1 18338517422158901319
19973954 147 18271815613442039964
20645464 45 17988630870490989642
21040471 1 18194683666062694821
23552423 10 18187086208028492278
24536 1 18059853943830286712
2748010 2 18411703209632103837
29004967 10 16845572010918076298
3248919 1 18060415811515213977
369184 2 18113889481489975345
5084963 1 17917436371521490179
8030462 33 17894352180773209895

>  <PUBCHEM_SHAPE_MULTIPOLES>  (1) 
194.59
3.79
1.47
1.09
0.81
0.25
0
-0.04
0
-0.05
0
-1.04
-0.37
0

>  <PUBCHEM_SHAPE_SELFOVERLAP>  (1) 
377.181

>  <PUBCHEM_SHAPE_VOLUME>  (1) 
118.6

>  <PUBCHEM_COORDINATE_TYPE>  (1) 
2
5
10

$$$$
