35150
     RDKit          3D

 13 13  0  0  0  0  0  0  0  0999 V2000
    2.9751    0.3880   -1.7281 Cl  0  0  0  0  0  0  0  0  0  0  0  0
    3.4325    0.6122    1.1538 Cl  0  0  0  0  0  0  0  0  0  0  0  0
   -1.0364   -3.4445   -0.9968 Cl  0  0  0  0  0  0  0  0  0  0  0  0
   -3.1300    2.0871   -1.0960 Cl  0  0  0  0  0  0  0  0  0  0  0  0
   -0.0348    1.4012    0.1566 N   0  0  0  0  0  0  0  0  0  0  0  0
    0.8144   -0.8426    0.1967 N   0  0  0  0  0  0  0  0  0  0  0  0
   -1.5266   -0.4395    0.5362 N   0  0  0  0  0  0  0  0  0  0  0  0
    0.9458    0.4879    0.0722 C   0  0  0  0  0  0  0  0  0  0  0  0
   -1.2436    0.8649    0.3897 C   0  0  0  0  0  0  0  0  0  0  0  0
   -0.4492   -1.2338    0.4273 C   0  0  0  0  0  0  0  0  0  0  0  0
    2.3205    1.0037   -0.1861 C   0  0  0  0  0  0  0  0  0  0  0  0
   -0.6797   -2.6990    0.5778 C   0  0  0  0  0  0  0  0  0  0  0  0
   -2.3880    1.8143    0.4967 C   0  0  0  0  0  0  0  0  0  0  0  0
  1 11  1  0
  2 11  1  0
  3 12  1  0
  4 13  1  0
  5  8  2  0
  5  9  1  0
  6  8  1  0
  6 10  2  0
  7  9  2  0
  7 10  1  0
  8 11  1  0
  9 13  1  0
 10 12  1  0
M  END
>  <PUBCHEM_COMPOUND_CID>  (1) 
35150

>  <PUBCHEM_CONFORMER_RMSD>  (1) 
0.6

>  <PUBCHEM_CONFORMER_DIVERSEORDER>  (1) 
1
4
19
17
9
16
15
12
7
14
2
6
13
18
3
10
11
8
5

>  <PUBCHEM_MMFF94_PARTIAL_CHARGES>  (1) 
13
1 -0.29
10 0.48
11 0.72
12 0.43
13 0.43
2 -0.29
3 -0.29
4 -0.29
5 -0.62
6 -0.62
7 -0.62
8 0.48
9 0.48

>  <PUBCHEM_EFFECTIVE_ROTOR_COUNT>  (1) 
3

>  <PUBCHEM_PHARMACOPHORE_FEATURES>  (1) 
4
3 5 6 8 cation
3 5 7 9 cation
3 6 7 10 cation
6 5 6 7 8 9 10 rings

>  <PUBCHEM_HEAVY_ATOM_COUNT>  (1) 
13

>  <PUBCHEM_ATOM_DEF_STEREO_COUNT>  (1) 
0

>  <PUBCHEM_ATOM_UDEF_STEREO_COUNT>  (1) 
0

>  <PUBCHEM_BOND_DEF_STEREO_COUNT>  (1) 
0

>  <PUBCHEM_BOND_UDEF_STEREO_COUNT>  (1) 
0

>  <PUBCHEM_ISOTOPIC_ATOM_COUNT>  (1) 
0

>  <PUBCHEM_COMPONENT_COUNT>  (1) 
1

>  <PUBCHEM_CACTVS_TAUTO_COUNT>  (1) 
1

>  <PUBCHEM_CONFORMER_ID>  (1) 
0000894E00000001

>  <PUBCHEM_MMFF94_ENERGY>  (1) 
17.5161

>  <PUBCHEM_FEATURE_SELFOVERLAP>  (1) 
23.07

>  <PUBCHEM_SHAPE_FINGERPRINT>  (1) 
1 1 18120932806832543255
12138202 97 18339657697363456196
12500047 106 18411415112264241560
12716758 59 18341908393439130704
13380535 76 18189048703520095985
14181834 199 17758100511059904167
15669948 3 18263371450482943988
15852999 172 18201716232839188644
16945 1 18338242690096216250
18186145 218 18200317615020003064
18380122 1 17485372501889030440
20511035 2 18188213078793454234
20645476 183 17604166877558719362
20645477 70 17905035960063806509
20671657 53 17475505556986814863
20711985 344 18120668073791560518
20871998 184 18196951060712890355
21040471 1 18409175389376444288
21524375 3 18260827055790214273
23559900 14 18270979960100885724
23598291 2 17458349654236518316
257057 1 17620460741907329242
2748010 2 18265629709616245163
3060560 45 18263638472578543853
3071541 236 18336536205079142616
3071541 250 17115528242013075855
6338986 31 17693648629862431122
7364860 26 17765146172864681217
81228 2 18122915484037802371
88987 49 18337393841903956092

>  <PUBCHEM_SHAPE_MULTIPOLES>  (1) 
260.07
4.63
3.34
1.27
2.31
3.64
0.46
-3.53
0.76
-3.12
0.72
0.65
-0.04
0.21

>  <PUBCHEM_SHAPE_SELFOVERLAP>  (1) 
489.542

>  <PUBCHEM_SHAPE_VOLUME>  (1) 
161.7

>  <PUBCHEM_COORDINATE_TYPE>  (1) 
2
5
10

$$$$
