35153
     RDKit          3D

 10 10  0  0  0  0  0  0  0  0999 V2000
    3.3757   -0.0001    0.9495 Br  0  0  0  0  0  0  0  0  0  0  0  0
    0.3016   -1.1998   -0.2536 N   0  0  0  0  0  0  0  0  0  0  0  0
    0.3016    1.1997   -0.2534 N   0  0  0  0  0  0  0  0  0  0  0  0
   -1.7284    0.0001    0.1909 N   0  0  0  0  0  0  0  0  0  0  0  0
    0.8906    0.0000   -0.3826 C   0  0  0  0  0  0  0  0  0  0  0  0
   -1.0079   -1.1222    0.0331 C   0  0  0  0  0  0  0  0  0  0  0  0
   -1.0079    1.1222    0.0332 C   0  0  0  0  0  0  0  0  0  0  0  0
    2.3469    0.0000   -0.7017 C   0  0  0  0  0  0  0  0  0  0  0  0
   -1.7362   -2.4132    0.1923 C   0  0  0  0  0  0  0  0  0  0  0  0
   -1.7361    2.4132    0.1923 C   0  0  0  0  0  0  0  0  0  0  0  0
  1  8  1  0
  2  5  2  0
  2  6  1  0
  3  5  1  0
  3  7  2  0
  4  6  2  0
  4  7  1  0
  5  8  1  0
  6  9  1  0
  7 10  1  0
M  END
>  <PUBCHEM_COMPOUND_CID>  (1) 
35153

>  <PUBCHEM_CONFORMER_RMSD>  (1) 
0.4

>  <PUBCHEM_CONFORMER_DIVERSEORDER>  (1) 
1
2

>  <PUBCHEM_MMFF94_PARTIAL_CHARGES>  (1) 
10
1 -0.23
10 0.14
2 -0.62
3 -0.62
4 -0.62
5 0.48
6 0.48
7 0.48
8 0.37
9 0.14

>  <PUBCHEM_EFFECTIVE_ROTOR_COUNT>  (1) 
1

>  <PUBCHEM_PHARMACOPHORE_FEATURES>  (1) 
5
1 1 hydrophobe
3 2 3 5 cation
3 2 4 6 cation
3 3 4 7 cation
6 2 3 4 5 6 7 rings

>  <PUBCHEM_HEAVY_ATOM_COUNT>  (1) 
10

>  <PUBCHEM_ATOM_DEF_STEREO_COUNT>  (1) 
0

>  <PUBCHEM_ATOM_UDEF_STEREO_COUNT>  (1) 
0

>  <PUBCHEM_BOND_DEF_STEREO_COUNT>  (1) 
0

>  <PUBCHEM_BOND_UDEF_STEREO_COUNT>  (1) 
0

>  <PUBCHEM_ISOTOPIC_ATOM_COUNT>  (1) 
0

>  <PUBCHEM_COMPONENT_COUNT>  (1) 
1

>  <PUBCHEM_CACTVS_TAUTO_COUNT>  (1) 
1

>  <PUBCHEM_CONFORMER_ID>  (1) 
0000895100000001

>  <PUBCHEM_MMFF94_ENERGY>  (1) 
17.0581

>  <PUBCHEM_FEATURE_SELFOVERLAP>  (1) 
28.144

>  <PUBCHEM_SHAPE_FINGERPRINT>  (1) 
10857977 72 18199185264377795250
12716758 59 18269561550496866990
16945 1 18410582781255022967
20645464 45 18059289864653751520
20871998 184 18272652393557206174
21040471 1 18194131723957498532
23211744 41 17914896439547869796
23402539 116 18269536321922222269
23552423 10 17826802730554096412
2748010 2 18049176470569994087
3071541 236 18334286539974953555
369184 2 18341040870227615402
54338 74 18261384602579682088
81228 2 18411427227860490475

>  <PUBCHEM_SHAPE_MULTIPOLES>  (1) 
196.79
3.88
2.32
0.81
3.9
0
-0.05
0
-0.97
-2.47
-0.22
0.49
0
0

>  <PUBCHEM_SHAPE_SELFOVERLAP>  (1) 
382.801

>  <PUBCHEM_SHAPE_VOLUME>  (1) 
123.7

>  <PUBCHEM_COORDINATE_TYPE>  (1) 
2
5
10

$$$$
