35158
     RDKit          3D

 10 10  0  0  0  0  0  0  0  0999 V2000
    0.3284   -1.1998   -0.1966 N   0  0  0  0  0  0  0  0  0  0  0  0
    0.3285    1.1997   -0.1965 N   0  0  0  0  0  0  0  0  0  0  0  0
   -1.7224    0.0001    0.1388 N   0  0  0  0  0  0  0  0  0  0  0  0
    2.3948    0.0000   -0.5349 C   0  0  0  0  0  0  0  0  0  0  0  0
    0.9235    0.0000   -0.2940 C   0  0  0  0  0  0  0  0  0  0  0  0
    3.1965   -0.0001    0.7643 C   0  0  0  0  0  0  0  0  0  0  0  0
   -0.9945   -1.1221    0.0197 C   0  0  0  0  0  0  0  0  0  0  0  0
   -0.9945    1.1222    0.0197 C   0  0  0  0  0  0  0  0  0  0  0  0
   -1.7303   -2.4132    0.1398 C   0  0  0  0  0  0  0  0  0  0  0  0
   -1.7301    2.4132    0.1397 C   0  0  0  0  0  0  0  0  0  0  0  0
  1  5  2  0
  1  7  1  0
  2  5  1  0
  2  8  2  0
  3  7  2  0
  3  8  1  0
  4  5  1  0
  4  6  1  0
  7  9  1  0
  8 10  1  0
M  END
>  <PUBCHEM_COMPOUND_CID>  (1) 
35158

>  <PUBCHEM_CONFORMER_RMSD>  (1) 
0.4

>  <PUBCHEM_CONFORMER_DIVERSEORDER>  (1) 
1
2

>  <PUBCHEM_MMFF94_PARTIAL_CHARGES>  (1) 
9
1 -0.62
10 0.14
2 -0.62
3 -0.62
4 0.14
5 0.48
7 0.48
8 0.48
9 0.14

>  <PUBCHEM_EFFECTIVE_ROTOR_COUNT>  (1) 
1

>  <PUBCHEM_PHARMACOPHORE_FEATURES>  (1) 
5
1 6 hydrophobe
3 1 2 5 cation
3 1 3 7 cation
3 2 3 8 cation
6 1 2 3 5 7 8 rings

>  <PUBCHEM_HEAVY_ATOM_COUNT>  (1) 
10

>  <PUBCHEM_ATOM_DEF_STEREO_COUNT>  (1) 
0

>  <PUBCHEM_ATOM_UDEF_STEREO_COUNT>  (1) 
0

>  <PUBCHEM_BOND_DEF_STEREO_COUNT>  (1) 
0

>  <PUBCHEM_BOND_UDEF_STEREO_COUNT>  (1) 
0

>  <PUBCHEM_ISOTOPIC_ATOM_COUNT>  (1) 
0

>  <PUBCHEM_COMPONENT_COUNT>  (1) 
1

>  <PUBCHEM_CACTVS_TAUTO_COUNT>  (1) 
3

>  <PUBCHEM_CONFORMER_ID>  (1) 
0000895600000001

>  <PUBCHEM_MMFF94_ENERGY>  (1) 
15.1671

>  <PUBCHEM_FEATURE_SELFOVERLAP>  (1) 
28.144

>  <PUBCHEM_SHAPE_FINGERPRINT>  (1) 
1 1 17689435979766746957
10857977 72 18198617920667542482
12423570 1 10755742091087996309
12716758 59 18269560450979970966
16945 1 18410863161015073135
20645464 45 18131067083221321816
20871998 184 18272654592517151726
21040471 1 18266186019502741116
23552423 10 17899139591966074836
23552449 1 18340206396367495084
2748010 2 18049174271541463767
3071541 236 18262225647412698323
369184 2 18412818088768818450
81228 2 18411143558155478587

>  <PUBCHEM_SHAPE_MULTIPOLES>  (1) 
190.85
3.52
2.35
0.71
3.14
0
-0.03
0
-0.58
-2.4
-0.13
0.28
0
0

>  <PUBCHEM_SHAPE_SELFOVERLAP>  (1) 
382.392

>  <PUBCHEM_SHAPE_VOLUME>  (1) 
110.9

>  <PUBCHEM_COORDINATE_TYPE>  (1) 
2
5
10

$$$$
