35159
     RDKit          3D

 12 12  0  0  0  0  0  0  0  0999 V2000
   -3.7328   -1.0380    0.0241 Cl  0  0  0  0  0  0  0  0  0  0  0  0
   -0.0756   -0.8720   -0.4508 N   0  0  0  0  0  0  0  0  0  0  0  0
    0.8572    1.3275   -0.2286 N   0  0  0  0  0  0  0  0  0  0  0  0
    2.2028   -0.6005    0.2510 N   0  0  0  0  0  0  0  0  0  0  0  0
   -1.4351    1.0623   -0.9345 C   0  0  0  0  0  0  0  0  0  0  0  0
   -2.3939    1.3515    0.2282 C   0  0  0  0  0  0  0  0  0  0  0  0
   -0.1201    0.4612   -0.5062 C   0  0  0  0  0  0  0  0  0  0  0  0
   -2.8410    0.1285    1.0268 C   0  0  0  0  0  0  0  0  0  0  0  0
    1.1234   -1.3351   -0.0625 C   0  0  0  0  0  0  0  0  0  0  0  0
    1.9959    0.7220    0.1454 C   0  0  0  0  0  0  0  0  0  0  0  0
    1.2714   -2.8157    0.0299 C   0  0  0  0  0  0  0  0  0  0  0  0
    3.1478    1.6084    0.4772 C   0  0  0  0  0  0  0  0  0  0  0  0
  1  8  1  0
  2  7  2  0
  2  9  1  0
  3  7  1  0
  3 10  2  0
  4  9  2  0
  4 10  1  0
  5  6  1  0
  5  7  1  0
  6  8  1  0
  9 11  1  0
 10 12  1  0
M  END
>  <PUBCHEM_COMPOUND_CID>  (1) 
35159

>  <PUBCHEM_CONFORMER_RMSD>  (1) 
0.6

>  <PUBCHEM_CONFORMER_DIVERSEORDER>  (1) 
1
8
4
2
3
5
7
6

>  <PUBCHEM_MMFF94_PARTIAL_CHARGES>  (1) 
11
1 -0.29
10 0.48
11 0.14
12 0.14
2 -0.62
3 -0.62
4 -0.62
5 0.14
7 0.48
8 0.29
9 0.48

>  <PUBCHEM_EFFECTIVE_ROTOR_COUNT>  (1) 
3

>  <PUBCHEM_PHARMACOPHORE_FEATURES>  (1) 
4
3 2 3 7 cation
3 2 4 9 cation
3 3 4 10 cation
6 2 3 4 7 9 10 rings

>  <PUBCHEM_HEAVY_ATOM_COUNT>  (1) 
12

>  <PUBCHEM_ATOM_DEF_STEREO_COUNT>  (1) 
0

>  <PUBCHEM_ATOM_UDEF_STEREO_COUNT>  (1) 
0

>  <PUBCHEM_BOND_DEF_STEREO_COUNT>  (1) 
0

>  <PUBCHEM_BOND_UDEF_STEREO_COUNT>  (1) 
0

>  <PUBCHEM_ISOTOPIC_ATOM_COUNT>  (1) 
0

>  <PUBCHEM_COMPONENT_COUNT>  (1) 
1

>  <PUBCHEM_CACTVS_TAUTO_COUNT>  (1) 
3

>  <PUBCHEM_CONFORMER_ID>  (1) 
0000895700000001

>  <PUBCHEM_MMFF94_ENERGY>  (1) 
17.6684

>  <PUBCHEM_FEATURE_SELFOVERLAP>  (1) 
23.1

>  <PUBCHEM_SHAPE_FINGERPRINT>  (1) 
10857977 72 17894634742498147629
11471102 22 18337398140596221579
12932764 1 18266755601228513253
14648413 74 18120930612014921948
15207287 21 17822005475601988673
15775835 57 18059580230022997449
16945 1 18195519303558278604
17841504 4 18123190104204432411
17990270 104 18263926535987314515
18380122 1 18187081741373560197
20201158 50 18260267464833482363
20645477 70 18341041914126461711
21501502 16 18336267830000604281
21524375 3 18201154485497793528
2748010 2 18263355902284536516
33824 294 18408321107834211891
581208 293 18408886269436885941
58734987 50 18412545388183849430
81228 2 17689980663567071578

>  <PUBCHEM_SHAPE_MULTIPOLES>  (1) 
233.88
5.17
2.3
0.84
2.78
1.48
0.02
-0.64
1.2
-1.2
0.01
0.32
-0.14
0.21

>  <PUBCHEM_SHAPE_SELFOVERLAP>  (1) 
456.886

>  <PUBCHEM_SHAPE_VOLUME>  (1) 
140

>  <PUBCHEM_COORDINATE_TYPE>  (1) 
2
5
10

$$$$
