35168
     RDKit          3D

 17 18  0  0  0  0  0  0  0  0999 V2000
    1.7755   -3.0260    0.0780 S   0  0  0  0  0  0  0  0  0  0  0  0
    4.2244    1.6803   -0.4166 S   0  0  0  0  0  0  0  0  0  0  0  0
   -0.7626    1.2930   -0.0888 N   0  0  0  0  0  0  0  0  0  0  0  0
    1.5744    1.4202   -0.2384 N   0  0  0  0  0  0  0  0  0  0  0  0
    0.4715   -0.6992   -0.0156 N   0  0  0  0  0  0  0  0  0  0  0  0
    2.8643   -0.6018   -0.1656 N   0  0  0  0  0  0  0  0  0  0  0  0
   -2.0857    0.8184    0.0268 C   0  0  0  0  0  0  0  0  0  0  0  0
    0.4856    0.6414   -0.1157 C   0  0  0  0  0  0  0  0  0  0  0  0
   -3.1332    1.5214   -0.5682 C   0  0  0  0  0  0  0  0  0  0  0  0
   -2.3467   -0.3544    0.7354 C   0  0  0  0  0  0  0  0  0  0  0  0
   -4.4418    1.0517   -0.4547 C   0  0  0  0  0  0  0  0  0  0  0  0
   -3.6552   -0.8242    0.8489 C   0  0  0  0  0  0  0  0  0  0  0  0
   -4.7027   -0.1210    0.2538 C   0  0  0  0  0  0  0  0  0  0  0  0
    1.6951   -1.2513   -0.0476 C   0  0  0  0  0  0  0  0  0  0  0  0
    2.7266    0.7308   -0.2559 C   0  0  0  0  0  0  0  0  0  0  0  0
    0.2049   -3.5229   -0.6850 C   0  0  0  0  0  0  0  0  0  0  0  0
    5.1056    1.2435    1.1093 C   0  0  0  0  0  0  0  0  0  0  0  0
  1 14  1  0
  1 16  1  0
  2 15  1  0
  2 17  1  0
  3  7  1  0
  3  8  1  0
  4  8  2  0
  4 15  1  0
  5  8  1  0
  5 14  2  0
  6 14  1  0
  6 15  2  0
  7  9  2  0
  7 10  1  0
  9 11  1  0
 10 12  2  0
 11 13  2  0
 12 13  1  0
M  END
>  <PUBCHEM_COMPOUND_CID>  (1) 
35168

>  <PUBCHEM_CONFORMER_RMSD>  (1) 
0.6

>  <PUBCHEM_CONFORMER_DIVERSEORDER>  (1) 
1
34
42
4
31
2
30
23
11
40
18
9
39
10
16
22
15
27
7
43
36
3
45
14
20
33
13
38
21
19
6
28
44
5
17
37
26
35
12
32
8
24
41
29
25

>  <PUBCHEM_MMFF94_PARTIAL_CHARGES>  (1) 
23
1 -0.33
10 -0.15
11 -0.15
12 -0.15
13 -0.15
14 0.72
15 0.72
16 0.23
17 0.23
18 0.4
19 0.15
2 -0.33
20 0.15
21 0.15
22 0.15
23 0.15
3 -0.6
4 -0.62
5 -0.62
6 -0.62
7 0.1
8 0.72
9 -0.15

>  <PUBCHEM_EFFECTIVE_ROTOR_COUNT>  (1) 
4

>  <PUBCHEM_PHARMACOPHORE_FEATURES>  (1) 
6
1 16 hydrophobe
1 17 hydrophobe
1 3 donor
4 3 4 5 8 cation
6 4 5 6 8 14 15 rings
6 7 9 10 11 12 13 rings

>  <PUBCHEM_HEAVY_ATOM_COUNT>  (1) 
17

>  <PUBCHEM_ATOM_DEF_STEREO_COUNT>  (1) 
0

>  <PUBCHEM_ATOM_UDEF_STEREO_COUNT>  (1) 
0

>  <PUBCHEM_BOND_DEF_STEREO_COUNT>  (1) 
0

>  <PUBCHEM_BOND_UDEF_STEREO_COUNT>  (1) 
0

>  <PUBCHEM_ISOTOPIC_ATOM_COUNT>  (1) 
0

>  <PUBCHEM_COMPONENT_COUNT>  (1) 
1

>  <PUBCHEM_CACTVS_TAUTO_COUNT>  (1) 
3

>  <PUBCHEM_CONFORMER_ID>  (1) 
0000896000000001

>  <PUBCHEM_MMFF94_ENERGY>  (1) 
48.2061

>  <PUBCHEM_FEATURE_SELFOVERLAP>  (1) 
30.446

>  <PUBCHEM_SHAPE_FINGERPRINT>  (1) 
10608611 8 18261110725701162381
10616163 171 18336553806383090179
12553582 1 17474402270161789959
12839892 36 18335409201661428970
13052359 8 18267019655786619018
15196674 1 18408043996390929307
15219456 202 18334298639130038781
15375358 24 18259987071956376193
15442244 35 17906738003377593489
17980427 23 17458632271205278821
200 152 18201717362748150053
20279233 1 18187370926001124945
204376 136 18340488962561336944
20645477 70 18336826382118771031
21054139 6 18199453536662156735
221490 88 18263374602599029923
23402539 116 17458335377607269709
23557571 272 17313671430091767365
23559900 14 18192988214674095242
33824 294 18410014316600893563
4072396 5 18260535728411753856
474229 33 18337391650979855770
495365 180 18198041630498317889
5104073 3 18262523585405490545
58051976 378 18411702097082684421
6669772 16 18201728345217228550
7364860 26 18339361838504626798
81228 2 17402881718981753442
81539 233 18335704935918856678
8272917 22 18269561542033487727
9709674 26 18261399906033779379
9971528 1 11025799820886850222

>  <PUBCHEM_SHAPE_MULTIPOLES>  (1) 
337.63
9.46
2.99
0.85
1.19
3.61
0.1
-5.3
1.41
-2.01
-0.59
-0.1
-0.01
0.67

>  <PUBCHEM_SHAPE_SELFOVERLAP>  (1) 
678.284

>  <PUBCHEM_SHAPE_VOLUME>  (1) 
199.5

>  <PUBCHEM_COORDINATE_TYPE>  (1) 
2
5
10

$$$$
