35160
     RDKit          3D

 12 12  0  0  0  0  0  0  0  0999 V2000
   -0.5584    1.1941   -0.3159 N   0  0  0  0  0  0  0  0  0  0  0  0
   -0.5806   -1.2052   -0.3059 N   0  0  0  0  0  0  0  0  0  0  0  0
   -2.5464    0.0153    0.3294 N   0  0  0  0  0  0  0  0  0  0  0  0
    2.3986   -0.0308    0.2229 C   0  0  0  0  0  0  0  0  0  0  0  0
    1.4225   -0.0267   -0.9555 C   0  0  0  0  0  0  0  0  0  0  0  0
    3.8490   -0.0096   -0.2592 C   0  0  0  0  0  0  0  0  0  0  0  0
   -0.0115   -0.0115   -0.4915 C   0  0  0  0  0  0  0  0  0  0  0  0
    4.8237    0.0275    0.9070 C   0  0  0  0  0  0  0  0  0  0  0  0
   -1.8344    1.1300    0.0975 C   0  0  0  0  0  0  0  0  0  0  0  0
   -1.8551   -1.1141    0.1070 C   0  0  0  0  0  0  0  0  0  0  0  0
   -2.5315    2.4285    0.3219 C   0  0  0  0  0  0  0  0  0  0  0  0
   -2.5760   -2.3977    0.3423 C   0  0  0  0  0  0  0  0  0  0  0  0
  1  7  2  0
  1  9  1  0
  2  7  1  0
  2 10  2  0
  3  9  2  0
  3 10  1  0
  4  5  1  0
  4  6  1  0
  5  7  1  0
  6  8  1  0
  9 11  1  0
 10 12  1  0
M  END
>  <PUBCHEM_COMPOUND_CID>  (1) 
35160

>  <PUBCHEM_CONFORMER_RMSD>  (1) 
0.6

>  <PUBCHEM_CONFORMER_DIVERSEORDER>  (1) 
1
6
3
4
5
2

>  <PUBCHEM_MMFF94_PARTIAL_CHARGES>  (1) 
9
1 -0.62
10 0.48
11 0.14
12 0.14
2 -0.62
3 -0.62
5 0.14
7 0.48
9 0.48

>  <PUBCHEM_EFFECTIVE_ROTOR_COUNT>  (1) 
3

>  <PUBCHEM_PHARMACOPHORE_FEATURES>  (1) 
5
1 8 hydrophobe
3 1 2 7 cation
3 1 3 9 cation
3 2 3 10 cation
6 1 2 3 7 9 10 rings

>  <PUBCHEM_HEAVY_ATOM_COUNT>  (1) 
12

>  <PUBCHEM_ATOM_DEF_STEREO_COUNT>  (1) 
0

>  <PUBCHEM_ATOM_UDEF_STEREO_COUNT>  (1) 
0

>  <PUBCHEM_BOND_DEF_STEREO_COUNT>  (1) 
0

>  <PUBCHEM_BOND_UDEF_STEREO_COUNT>  (1) 
0

>  <PUBCHEM_ISOTOPIC_ATOM_COUNT>  (1) 
0

>  <PUBCHEM_COMPONENT_COUNT>  (1) 
1

>  <PUBCHEM_CACTVS_TAUTO_COUNT>  (1) 
3

>  <PUBCHEM_CONFORMER_ID>  (1) 
0000895800000001

>  <PUBCHEM_MMFF94_ENERGY>  (1) 
15.0056

>  <PUBCHEM_FEATURE_SELFOVERLAP>  (1) 
28.17

>  <PUBCHEM_SHAPE_FINGERPRINT>  (1) 
11357001 24 18334864939168507307
122479 349 18130222653843709496
12251169 10 18335424547495090140
12500047 106 18338229358744725560
12932764 1 17417810664873543334
13024252 1 14056719028617395533
13296909 8 18410571794839573124
13380535 76 18268993094390013263
15219456 202 17988651735795574142
16945 1 18338536182808100583
19422 9 18114183051595764334
20510252 161 18272376313143737489
20645464 45 18131636655639851804
20645477 56 18340211786594052280
20715346 28 17774731895982981222
20871998 184 18272657878167185263
21040471 1 18193576471028537901
21650355 55 18338515360458671795
22445834 79 17968091989194921074
2306618 200 17967800644140686869
23402539 116 18341040874828518701
23500284 214 18059299738325058233
23559900 14 18198915717163602102
2748010 2 17904507124713285757
3086196 2 18337951289487176594
573450 72 18261381235873948682
6333449 129 18341894069575648445
75552 356 18409450288668384948
81228 2 18338816575537545955
88987 49 18265352658534945228
90316 7 17968372351939119668

>  <PUBCHEM_SHAPE_MULTIPOLES>  (1) 
232.01
6.9
2.05
0.82
9.88
0.05
-0.02
-0.01
2
-3.25
0.3
0.42
0
0.03

>  <PUBCHEM_SHAPE_SELFOVERLAP>  (1) 
458.613

>  <PUBCHEM_SHAPE_VOLUME>  (1) 
136.3

>  <PUBCHEM_COORDINATE_TYPE>  (1) 
2
5
10

$$$$
