35162
     RDKit          3D

 16 17  0  0  0  0  0  0  0  0999 V2000
    2.1181    1.2229   -0.1573 N   0  0  0  0  0  0  0  0  0  0  0  0
    0.8098   -0.4086    1.0193 N   0  0  0  0  0  0  0  0  0  0  0  0
    2.7916   -1.0802   -0.1550 N   0  0  0  0  0  0  0  0  0  0  0  0
   -1.0308    2.1140    0.0236 C   0  0  0  0  0  0  0  0  0  0  0  0
    0.1260    1.9058    1.0211 C   0  0  0  0  0  0  0  0  0  0  0  0
   -1.8882    0.9096   -0.1728 C   0  0  0  0  0  0  0  0  0  0  0  0
    1.0904    0.8256    0.5958 C   0  0  0  0  0  0  0  0  0  0  0  0
   -1.5740   -0.0153   -1.1687 C   0  0  0  0  0  0  0  0  0  0  0  0
   -3.0040    0.7076    0.6396 C   0  0  0  0  0  0  0  0  0  0  0  0
    2.9323    0.2106   -0.4973 C   0  0  0  0  0  0  0  0  0  0  0  0
    1.7085   -1.3153    0.6032 C   0  0  0  0  0  0  0  0  0  0  0  0
   -2.3757   -1.1418   -1.3525 C   0  0  0  0  0  0  0  0  0  0  0  0
   -3.8056   -0.4192    0.4559 C   0  0  0  0  0  0  0  0  0  0  0  0
   -3.4914   -1.3438   -0.5402 C   0  0  0  0  0  0  0  0  0  0  0  0
    4.1124    0.5548   -1.3407 C   0  0  0  0  0  0  0  0  0  0  0  0
    1.4806   -2.7267    1.0258 C   0  0  0  0  0  0  0  0  0  0  0  0
  1  7  2  0
  1 10  1  0
  2  7  1  0
  2 11  2  0
  3 10  2  0
  3 11  1  0
  4  5  1  0
  4  6  1  0
  5  7  1  0
  6  8  2  0
  6  9  1  0
  8 12  1  0
  9 13  2  0
 10 15  1  0
 11 16  1  0
 12 14  2  0
 13 14  1  0
M  END
>  <PUBCHEM_COMPOUND_CID>  (1) 
35162

>  <PUBCHEM_CONFORMER_RMSD>  (1) 
0.6

>  <PUBCHEM_CONFORMER_DIVERSEORDER>  (1) 
1
3
8
6
5
7
4
2
9

>  <PUBCHEM_MMFF94_PARTIAL_CHARGES>  (1) 
21
1 -0.62
10 0.48
11 0.48
12 -0.15
13 -0.15
14 -0.15
15 0.14
16 0.14
2 -0.62
21 0.15
22 0.15
23 0.15
24 0.15
25 0.15
3 -0.62
4 0.14
5 0.14
6 -0.14
7 0.48
8 -0.15
9 -0.15

>  <PUBCHEM_EFFECTIVE_ROTOR_COUNT>  (1) 
3

>  <PUBCHEM_PHARMACOPHORE_FEATURES>  (1) 
5
3 1 2 7 cation
3 1 3 10 cation
3 2 3 11 cation
6 1 2 3 7 10 11 rings
6 6 8 9 12 13 14 rings

>  <PUBCHEM_HEAVY_ATOM_COUNT>  (1) 
16

>  <PUBCHEM_ATOM_DEF_STEREO_COUNT>  (1) 
0

>  <PUBCHEM_ATOM_UDEF_STEREO_COUNT>  (1) 
0

>  <PUBCHEM_BOND_DEF_STEREO_COUNT>  (1) 
0

>  <PUBCHEM_BOND_UDEF_STEREO_COUNT>  (1) 
0

>  <PUBCHEM_ISOTOPIC_ATOM_COUNT>  (1) 
0

>  <PUBCHEM_COMPONENT_COUNT>  (1) 
1

>  <PUBCHEM_CACTVS_TAUTO_COUNT>  (1) 
3

>  <PUBCHEM_CONFORMER_ID>  (1) 
0000895A00000001

>  <PUBCHEM_MMFF94_ENERGY>  (1) 
35.4862

>  <PUBCHEM_FEATURE_SELFOVERLAP>  (1) 
28.174

>  <PUBCHEM_SHAPE_FINGERPRINT>  (1) 
11321824 6 17913745268332909063
124424 183 13254805620066543065
12553582 1 18342168982000462859
12596599 1 17845940735521519539
13221675 6 18343302556786990679
15276787 5 13830138294930607221
15375462 189 18412265017060908051
16752209 62 17844521111665577201
16945 1 18334848441845805672
17349148 13 18114461168092711762
17357779 13 17318179689975523107
17804303 29 17489595592796672381
18522851 12 18342458127694084939
19422 9 18201165428847785805
20291156 8 18342738498663467719
20442098 301 17774994739233312527
20645476 183 17833553388230184845
20645477 70 17914316117089741245
21634736 98 18270965764321582780
21731516 1 18271511040352504183
22445834 79 18271521009393519985
232386 152 17985808359965931474
23402539 116 18409168814330192348
23532345 88 17969780778941622786
23598291 2 18048326539397109384
2871803 45 18410287051461237613
351380 180 13695867081934992124
4175511 71 10735881698792336898
44249140 249 17749937865431313975
449060 23 18059857306736958261
465052 167 18129951199590118631
7364860 26 17487328493966951505
83771 10 18411984671782084185
90525 40 18054788373596867013
94968 8 18341044241655805375

>  <PUBCHEM_SHAPE_MULTIPOLES>  (1) 
314.33
6.49
2.24
1.24
0.09
0.53
0.18
1.15
1.8
0.36
-0.66
0.17
0.18
-0.97

>  <PUBCHEM_SHAPE_SELFOVERLAP>  (1) 
662.359

>  <PUBCHEM_SHAPE_VOLUME>  (1) 
173.3

>  <PUBCHEM_COORDINATE_TYPE>  (1) 
2
5
10

$$$$
