35164
     RDKit          3D

 17 18  0  0  0  0  0  0  0  0999 V2000
   -4.8422   -0.5721    0.2194 O   0  0  0  0  0  0  0  0  0  0  0  0
   -3.3192   -2.1109    0.5824 O   0  0  0  0  0  0  0  0  0  0  0  0
    1.3896   -1.0938   -0.3641 N   0  0  0  0  0  0  0  0  0  0  0  0
    1.9833    1.1336    0.3021 N   0  0  0  0  0  0  0  0  0  0  0  0
    3.6835   -0.5446    0.0769 N   0  0  0  0  0  0  0  0  0  0  0  0
   -3.6431   -0.9339    0.2920 N   0  0  0  0  0  0  0  0  0  0  0  0
   -0.2760    0.5751   -0.1381 C   0  0  0  0  0  0  0  0  0  0  0  0
    1.1139    0.1818   -0.0619 C   0  0  0  0  0  0  0  0  0  0  0  0
   -1.2799   -0.3605    0.1122 C   0  0  0  0  0  0  0  0  0  0  0  0
   -0.6126    1.8892   -0.4633 C   0  0  0  0  0  0  0  0  0  0  0  0
   -2.6204    0.0181    0.0373 C   0  0  0  0  0  0  0  0  0  0  0  0
   -1.9529    2.2678   -0.5381 C   0  0  0  0  0  0  0  0  0  0  0  0
   -2.9569    1.3323   -0.2877 C   0  0  0  0  0  0  0  0  0  0  0  0
    2.6971   -1.3859   -0.2727 C   0  0  0  0  0  0  0  0  0  0  0  0
    3.2523    0.6973    0.3503 C   0  0  0  0  0  0  0  0  0  0  0  0
    3.0947   -2.7866   -0.5930 C   0  0  0  0  0  0  0  0  0  0  0  0
    4.2889    1.6928    0.7463 C   0  0  0  0  0  0  0  0  0  0  0  0
  1  6  1  0
  2  6  2  0
  3  8  2  0
  3 14  1  0
  4  8  1  0
  4 15  2  0
  5 14  2  0
  5 15  1  0
  6 11  1  0
  7  8  1  0
  7  9  2  0
  7 10  1  0
  9 11  1  0
 10 12  2  0
 11 13  2  0
 12 13  1  0
 14 16  1  0
 15 17  1  0
M  CHG  2   1  -1   6   1
M  END
>  <PUBCHEM_COMPOUND_CID>  (1) 
35164

>  <PUBCHEM_CONFORMER_RMSD>  (1) 
0.6

>  <PUBCHEM_CONFORMER_DIVERSEORDER>  (1) 
1
2
3

>  <PUBCHEM_MMFF94_PARTIAL_CHARGES>  (1) 
20
1 -0.52
10 -0.15
11 0.13
12 -0.15
13 -0.15
14 0.48
15 0.48
16 0.14
17 0.14
18 0.15
19 0.15
2 -0.52
20 0.15
21 0.15
3 -0.62
4 -0.62
5 -0.62
6 0.91
8 0.62
9 -0.15

>  <PUBCHEM_EFFECTIVE_ROTOR_COUNT>  (1) 
2

>  <PUBCHEM_PHARMACOPHORE_FEATURES>  (1) 
8
1 1 acceptor
1 1 anion
1 2 acceptor
3 3 4 8 cation
3 3 5 14 cation
3 4 5 15 cation
6 3 4 5 8 14 15 rings
6 7 9 10 11 12 13 rings

>  <PUBCHEM_HEAVY_ATOM_COUNT>  (1) 
17

>  <PUBCHEM_ATOM_DEF_STEREO_COUNT>  (1) 
0

>  <PUBCHEM_ATOM_UDEF_STEREO_COUNT>  (1) 
0

>  <PUBCHEM_BOND_DEF_STEREO_COUNT>  (1) 
0

>  <PUBCHEM_BOND_UDEF_STEREO_COUNT>  (1) 
0

>  <PUBCHEM_ISOTOPIC_ATOM_COUNT>  (1) 
0

>  <PUBCHEM_COMPONENT_COUNT>  (1) 
1

>  <PUBCHEM_CACTVS_TAUTO_COUNT>  (1) 
1

>  <PUBCHEM_CONFORMER_ID>  (1) 
0000895C00000001

>  <PUBCHEM_MMFF94_ENERGY>  (1) 
48.8585

>  <PUBCHEM_FEATURE_SELFOVERLAP>  (1) 
43.46

>  <PUBCHEM_SHAPE_FINGERPRINT>  (1) 
10608611 8 18338791209218498940
10618630 7 18335142003108192759
11132069 177 18333167267382360361
11405975 8 18268147552510077472
12032990 46 18410015403258949701
12507560 40 18412823560209266796
12916754 54 18270403784692991219
13140716 1 18195807375462487136
13214271 11 18410283744331508701
13296908 3 18410293562473396110
14252887 29 18336554896951037579
14289901 80 17988633095210130864
14866123 147 15965968945317389874
15196674 1 18410573955197592781
15219456 202 18340763762995527748
15375358 24 18334572477549441203
15375462 6 18411418410340156588
17804303 29 18194691358185650430
17834074 16 18411699850730372870
1813 80 17385732404453547325
18186145 218 17969502610867924180
19141452 34 18341617044881576963
200 152 17988633117370828181
20281475 54 18338526218230818132
20510252 161 18411697656355818121
20645477 56 18189051997765741469
20645477 70 18130498630929667182
20693207 138 18266186036893652878
20871998 22 18408892849500928261
21065198 57 18267866094718601324
21501925 9 18261109711745846133
221490 88 18339928108800174830
22943178 12 18338509734151812268
23402539 116 18115294700136376667
23557571 272 18040713645271804092
23559900 14 18337948974863593020
2748010 2 18338511937390894492
2871803 45 18333727996806021663
33824 294 18411698807349056898
474229 33 18266174114386191984
5104073 3 18339359669371998456
5902787 121 18120649124775879738
6049 1 18340208466853176132
7364860 26 18271802368543237644
81228 2 18041572351316387017
8809292 202 18192999218385751239
9709674 26 18410293579669420814

>  <PUBCHEM_SHAPE_MULTIPOLES>  (1) 
318.19
8.22
2.52
0.73
1.12
0.63
-0.01
1.64
1.2
-0.8
-0.23
-0.1
-0.03
1.44

>  <PUBCHEM_SHAPE_SELFOVERLAP>  (1) 
686.59

>  <PUBCHEM_SHAPE_VOLUME>  (1) 
172.4

>  <PUBCHEM_COORDINATE_TYPE>  (1) 
2
5
10

$$$$
