3516
     RDKit          2D

 14 14  0  0  1  0  0  0  0  0999 V2000
    0.0000    0.0000    0.0000 O   0  0  0  0  0  0  0  0  0  0  0  0
    0.0000    0.0000    0.0000 O   0  0  0  0  0  0  0  0  0  0  0  0
    0.0000    0.0000    0.0000 O   0  0  0  0  0  0  0  0  0  0  0  0
    0.0000    0.0000    0.0000 O   0  0  0  0  0  0  0  0  0  0  0  0
    0.0000    0.0000    0.0000 C   0  0  0  0  0  0  0  0  0  0  0  0
    0.0000    0.0000    0.0000 C   0  0  0  0  0  0  0  0  0  0  0  0
    0.0000    0.0000    0.0000 C   0  0  0  0  0  0  0  0  0  0  0  0
    0.0000    0.0000    0.0000 C   0  0  0  0  0  0  0  0  0  0  0  0
    0.0000    0.0000    0.0000 C   0  0  0  0  0  0  0  0  0  0  0  0
    0.0000    0.0000    0.0000 C   0  0  0  0  0  0  0  0  0  0  0  0
    0.0000    0.0000    0.0000 C   0  0  0  0  0  0  0  0  0  0  0  0
    0.0000    0.0000    0.0000 C   0  0  0  0  0  0  0  0  0  0  0  0
    0.0000    0.0000    0.0000 C   0  0  0  0  0  0  0  0  0  0  0  0
    0.0000    0.0000    0.0000 C   0  0  0  0  0  0  0  0  0  0  0  0
  1  6  1  0
  1  8  1  0
  2  5  1  0
  3  7  1  0
  4  9  1  0
  4 14  1  0
  5  6  1  0
  5  7  1  0
  8  9  2  0
  8 10  1  0
  9 11  1  0
 10 12  2  0
 11 13  2  0
 12 13  1  0
M  END
>  <PUBCHEM_COMPOUND_CID>  (1) 
3516

>  <PUBCHEM_CONFORMER_RMSD>  (1) 
0.6

>  <PUBCHEM_CONFORMER_DIVERSEORDER>  (1) 
14
226
211
204
170
41
202
206
108
72
184
58
217
122
150
200
205
123
213
8
181
227
194
109
15
101
153
93
158
214
2
183
154
121
196
124
197
145
182
180
132
178
91
228
3
179
54
71
176
220
212
173
171
69
186
83
137
223
117
21
30
92
116
99
224
147
210
90
60
190
165
172
187
45
1
222
135
87
155
218
169
126
120
55
128
67
189
113
17
148
221
62
89
174
34
39
215
219
133
102
191
100
125
52
43
131
139
105
42
4
104
143
185
61
115
29
166
112
24
188
192
140
9
193
96
201
156
20
78
28
216
163
47
159
177
119
81
208
107
203
144
11
138
142
86
149
164
12
68
56
94
51
168
199
64
49
53
76
106
111
157
162
37
19
65
175
6
114
18
80
59
134
88
130
16
66
195
151
167
74
97
225
127
57
152
32
118
141
103
10
46
5
22
48
146
25
27
73
161
79
33
77
85
35
75
136
50
198
44
209
84
63
207
70
23
36
160
98
110
82
31
129
95
7
26
40
13
38

>  <PUBCHEM_MMFF94_PARTIAL_CHARGES>  (1) 
20
1 -0.36
10 -0.15
11 -0.15
12 -0.15
13 -0.15
14 0.28
2 -0.68
20 0.15
21 0.15
22 0.4
23 0.15
24 0.15
25 0.4
3 -0.68
4 -0.36
5 0.28
6 0.28
7 0.28
8 0.08
9 0.08

>  <PUBCHEM_EFFECTIVE_ROTOR_COUNT>  (1) 
5

>  <PUBCHEM_PHARMACOPHORE_FEATURES>  (1) 
7
1 1 acceptor
1 2 acceptor
1 2 donor
1 3 acceptor
1 3 donor
1 4 acceptor
6 8 9 10 11 12 13 rings

>  <PUBCHEM_HEAVY_ATOM_COUNT>  (1) 
14

>  <PUBCHEM_ATOM_DEF_STEREO_COUNT>  (1) 
0

>  <PUBCHEM_ATOM_UDEF_STEREO_COUNT>  (1) 
1

>  <PUBCHEM_BOND_DEF_STEREO_COUNT>  (1) 
0

>  <PUBCHEM_BOND_UDEF_STEREO_COUNT>  (1) 
0

>  <PUBCHEM_ISOTOPIC_ATOM_COUNT>  (1) 
0

>  <PUBCHEM_COMPONENT_COUNT>  (1) 
1

>  <PUBCHEM_CACTVS_TAUTO_COUNT>  (1) 
1

$$$$
