35175
     RDKit          3D

 11 11  0  0  0  0  0  0  0  0999 V2000
   -2.7533    0.0926    1.1278 O   0  0  0  0  0  0  0  0  0  0  0  0
    1.8027   -2.3132   -0.0111 O   0  0  0  0  0  0  0  0  0  0  0  0
    0.0342    1.1453    0.0172 N   0  0  0  0  0  0  0  0  0  0  0  0
   -0.1617   -1.1903    0.0171 N   0  0  0  0  0  0  0  0  0  0  0  0
    2.0336   -0.0616   -0.0122 N   0  0  0  0  0  0  0  0  0  0  0  0
    2.0352    2.3058   -0.0093 N   0  0  0  0  0  0  0  0  0  0  0  0
   -2.7525    0.0940   -1.1986 N   0  0  0  0  0  0  0  0  0  0  0  0
   -0.7029   -0.0081    0.0261 C   0  0  0  0  0  0  0  0  0  0  0  0
    1.4085    1.0898   -0.0020 C   0  0  0  0  0  0  0  0  0  0  0  0
   -2.1842    0.0654    0.0476 C   0  0  0  0  0  0  0  0  0  0  0  0
    1.2406   -1.2197   -0.0026 C   0  0  0  0  0  0  0  0  0  0  0  0
  1 10  2  0
  2 11  2  0
  3  8  1  0
  3  9  1  0
  4  8  2  0
  4 11  1  0
  5  9  2  0
  5 11  1  0
  6  9  1  0
  7 10  1  0
  8 10  1  0
M  END
>  <PUBCHEM_COMPOUND_CID>  (1) 
35175

>  <PUBCHEM_CONFORMER_RMSD>  (1) 
0.4

>  <PUBCHEM_CONFORMER_DIVERSEORDER>  (1) 
1
3
2
4

>  <PUBCHEM_MMFF94_PARTIAL_CHARGES>  (1) 
16
1 -0.57
10 0.63
11 0.99
12 0.4
13 0.4
14 0.4
15 0.37
16 0.37
2 -0.57
3 -0.5
4 -0.66
5 -0.66
6 -0.85
7 -0.8
8 0.5
9 0.55

>  <PUBCHEM_EFFECTIVE_ROTOR_COUNT>  (1) 
1

>  <PUBCHEM_PHARMACOPHORE_FEATURES>  (1) 
8
1 1 acceptor
1 2 acceptor
1 3 donor
1 4 donor
1 5 donor
1 6 donor
1 7 donor
6 3 4 5 8 9 11 rings

>  <PUBCHEM_HEAVY_ATOM_COUNT>  (1) 
11

>  <PUBCHEM_ATOM_DEF_STEREO_COUNT>  (1) 
0

>  <PUBCHEM_ATOM_UDEF_STEREO_COUNT>  (1) 
0

>  <PUBCHEM_BOND_DEF_STEREO_COUNT>  (1) 
0

>  <PUBCHEM_BOND_UDEF_STEREO_COUNT>  (1) 
0

>  <PUBCHEM_ISOTOPIC_ATOM_COUNT>  (1) 
0

>  <PUBCHEM_COMPONENT_COUNT>  (1) 
1

>  <PUBCHEM_CACTVS_TAUTO_COUNT>  (1) 
18

>  <PUBCHEM_CONFORMER_ID>  (1) 
0000896700000001

>  <PUBCHEM_MMFF94_ENERGY>  (1) 
27.6657

>  <PUBCHEM_FEATURE_SELFOVERLAP>  (1) 
40.79

>  <PUBCHEM_SHAPE_FINGERPRINT>  (1) 
1 1 18337673130388599508
12932741 1 17749390339043172807
16945 1 18410856551208123522
20711985 344 17327734003301154034
21040471 1 18050568748738707088
23211744 41 17749946794737088873
23552423 10 18413388739414043639
241688 4 17906453221312722122
2748010 2 18121507014143147742
29004967 10 18334581196111434619
81228 2 17328864292806725186

>  <PUBCHEM_SHAPE_MULTIPOLES>  (1) 
189.73
3.65
1.92
0.77
2.13
0.11
-0.02
-0.39
-0.05
-1.99
-0.01
0.6
-0.03
0

>  <PUBCHEM_SHAPE_SELFOVERLAP>  (1) 
395.861

>  <PUBCHEM_SHAPE_VOLUME>  (1) 
105

>  <PUBCHEM_COORDINATE_TYPE>  (1) 
2
5
10

$$$$
