35173
     RDKit          3D

 16 16  0  0  0  0  0  0  0  0999 V2000
   -1.8007   -2.4604    1.4641 Cl  0  0  0  0  0  0  0  0  0  0  0  0
   -3.9625   -1.2440   -0.0035 Cl  0  0  0  0  0  0  0  0  0  0  0  0
   -1.7895   -2.4591   -1.4625 Cl  0  0  0  0  0  0  0  0  0  0  0  0
    2.5268   -0.5350   -0.0001 O   0  0  0  0  0  0  0  0  0  0  0  0
    2.8293    1.7469   -0.0006 O   0  0  0  0  0  0  0  0  0  0  0  0
   -0.0276   -0.3447   -0.0014 N   0  0  0  0  0  0  0  0  0  0  0  0
   -2.0483    0.9493    0.0011 N   0  0  0  0  0  0  0  0  0  0  0  0
    0.0827    2.0523    0.0005 N   0  0  0  0  0  0  0  0  0  0  0  0
   -1.9085    3.2903    0.0008 N   0  0  0  0  0  0  0  0  0  0  0  0
   -1.3631   -0.2055   -0.0004 C   0  0  0  0  0  0  0  0  0  0  0  0
    0.6300    0.8261   -0.0009 C   0  0  0  0  0  0  0  0  0  0  0  0
    3.9447   -0.7326    0.0012 C   0  0  0  0  0  0  0  0  0  0  0  0
   -2.1670   -1.4610   -0.0007 C   0  0  0  0  0  0  0  0  0  0  0  0
   -1.2600    2.0363    0.0013 C   0  0  0  0  0  0  0  0  0  0  0  0
    2.0779    0.7594   -0.0009 C   0  0  0  0  0  0  0  0  0  0  0  0
    4.2355   -2.2182    0.0019 C   0  0  0  0  0  0  0  0  0  0  0  0
  1 13  1  0
  2 13  1  0
  3 13  1  0
  4 12  1  0
  4 15  1  0
  5 15  2  0
  6 10  2  0
  6 11  1  0
  7 10  1  0
  7 14  2  0
  8 11  2  0
  8 14  1  0
  9 14  1  0
 10 13  1  0
 11 15  1  0
 12 16  1  0
M  END
>  <PUBCHEM_COMPOUND_CID>  (1) 
35173

>  <PUBCHEM_CONFORMER_RMSD>  (1) 
0.6

>  <PUBCHEM_CONFORMER_DIVERSEORDER>  (1) 
1
23
22
3
5
4
10
9
14
13
16
6
21
24
17
15
8
11
19
7
25
20
12
18
2

>  <PUBCHEM_MMFF94_PARTIAL_CHARGES>  (1) 
17
1 -0.29
10 0.48
11 0.71
12 0.28
13 1.01
14 0.72
15 0.63
2 -0.29
22 0.4
23 0.4
3 -0.29
4 -0.43
5 -0.57
6 -0.62
7 -0.62
8 -0.62
9 -0.9

>  <PUBCHEM_EFFECTIVE_ROTOR_COUNT>  (1) 
4

>  <PUBCHEM_PHARMACOPHORE_FEATURES>  (1) 
4
1 5 acceptor
1 9 donor
4 7 8 9 14 cation
6 6 7 8 10 11 14 rings

>  <PUBCHEM_HEAVY_ATOM_COUNT>  (1) 
16

>  <PUBCHEM_ATOM_DEF_STEREO_COUNT>  (1) 
0

>  <PUBCHEM_ATOM_UDEF_STEREO_COUNT>  (1) 
0

>  <PUBCHEM_BOND_DEF_STEREO_COUNT>  (1) 
0

>  <PUBCHEM_BOND_UDEF_STEREO_COUNT>  (1) 
0

>  <PUBCHEM_ISOTOPIC_ATOM_COUNT>  (1) 
0

>  <PUBCHEM_COMPONENT_COUNT>  (1) 
1

>  <PUBCHEM_CACTVS_TAUTO_COUNT>  (1) 
4

>  <PUBCHEM_CONFORMER_ID>  (1) 
0000896500000001

>  <PUBCHEM_MMFF94_ENERGY>  (1) 
32.4847

>  <PUBCHEM_FEATURE_SELFOVERLAP>  (1) 
20.297

>  <PUBCHEM_SHAPE_FINGERPRINT>  (1) 
10616163 171 18339364042213655662
12553582 1 18195809797961334950
13380535 76 17981041920876801069
14115302 16 17676774283124174255
14178342 30 18191849159957684730
14965852 173 18410013196046751096
15042514 8 18265619779762717585
15422964 175 18046071724331896138
16752209 62 18263912272596005875
16945 1 18338517421937628069
20524608 308 18268989791370284300
20645476 183 17535498961926369534
20645477 70 18338513157188396006
20711985 365 18411418388654329964
20871998 184 18271808994923518551
20871998 22 18266180715313004625
21501502 16 18411144627845344076
21524375 3 18049442543847280845
21665056 4 18117841001530945826
23402539 116 18201146681763756685
23526113 38 17973146607504588787
23558518 356 18335424538794470208
23559900 14 18410847777075630872
23598291 2 17968956192649820492
23728640 28 18268422426222670578
2748010 2 18267861855527877509
3084891 72 17765710218367559480
3091708 16 9062627298292773193
34934 24 18196084671504434429
54173680 148 18410294670617351320
559249 180 18047749300625980138
58051976 100 18336267817136814684
6338986 31 18126831922849365063
6992083 37 18057901323281217883
81228 2 18335696174096252873
8809292 202 18336268955261092818
9709674 26 18410577271392640050

>  <PUBCHEM_SHAPE_MULTIPOLES>  (1) 
303.22
6.48
3.44
0.91
5.45
1.25
0
-4.25
0
-1.08
0
-0.61
-0.76
0

>  <PUBCHEM_SHAPE_SELFOVERLAP>  (1) 
592.716

>  <PUBCHEM_SHAPE_VOLUME>  (1) 
181.1

>  <PUBCHEM_COORDINATE_TYPE>  (1) 
2
5
10

$$$$
