35177
     RDKit          3D

 20 21  0  0  0  0  0  0  0  0999 V2000
   -6.3762    0.5922   -0.3234 Cl  0  0  0  0  0  0  0  0  0  0  0  0
    5.0931   -1.7399   -1.9148 S   0  0  0  0  0  0  0  0  0  0  0  0
    1.9476    4.0341   -1.2275 S   0  0  0  0  0  0  0  0  0  0  0  0
   -0.8106   -1.4010    0.0075 N   0  0  0  0  0  0  0  0  0  0  0  0
    1.5149   -1.5389    0.2735 N   0  0  0  0  0  0  0  0  0  0  0  0
    0.3729    0.5567    0.5227 N   0  0  0  0  0  0  0  0  0  0  0  0
    2.7535    0.4471    0.8024 N   0  0  0  0  0  0  0  0  0  0  0  0
    3.8284   -1.6065    0.5521 N   0  0  0  0  0  0  0  0  0  0  0  0
    1.6094    2.4650    1.0367 N   0  0  0  0  0  0  0  0  0  0  0  0
   -2.1363   -0.9262   -0.0710 C   0  0  0  0  0  0  0  0  0  0  0  0
   -3.1991   -1.7679    0.2567 C   0  0  0  0  0  0  0  0  0  0  0  0
   -2.3845    0.3852   -0.4764 C   0  0  0  0  0  0  0  0  0  0  0  0
    0.4160   -0.7648    0.2804 C   0  0  0  0  0  0  0  0  0  0  0  0
   -4.5102   -1.2982    0.1790 C   0  0  0  0  0  0  0  0  0  0  0  0
   -3.6956    0.8548   -0.5540 C   0  0  0  0  0  0  0  0  0  0  0  0
   -4.7585    0.0132   -0.2264 C   0  0  0  0  0  0  0  0  0  0  0  0
    2.6453   -0.8659    0.5423 C   0  0  0  0  0  0  0  0  0  0  0  0
    1.5772    1.0940    0.7756 C   0  0  0  0  0  0  0  0  0  0  0  0
    4.3591   -1.6570   -0.5022 C   0  0  0  0  0  0  0  0  0  0  0  0
    1.7534    3.1239    0.0668 C   0  0  0  0  0  0  0  0  0  0  0  0
  1 16  1  0
  2 19  2  0
  3 20  2  0
  4 10  1  0
  4 13  1  0
  5 13  2  0
  5 17  1  0
  6 13  1  0
  6 18  2  0
  7 17  2  0
  7 18  1  0
  8 17  1  0
  8 19  2  0
  9 18  1  0
  9 20  2  0
 10 11  2  0
 10 12  1  0
 11 14  1  0
 12 15  2  0
 14 16  2  0
 15 16  1  0
M  END
>  <PUBCHEM_COMPOUND_CID>  (1) 
35177

>  <PUBCHEM_CONFORMER_RMSD>  (1) 
0.6

>  <PUBCHEM_CONFORMER_DIVERSEORDER>  (1) 
1
57
63
24
22
51
10
69
31
61
35
20
56
4
67
36
49
2
55
14
47
48
45
17
60
11
59
38
66
25
53
52
3
64
30
68
23
21
15
54
12
27
44
32
62
8
50
5
58
46
29
40
37
65
28
42
7
18
41
6
26
9
13
33
39
16
19
43
34

>  <PUBCHEM_MMFF94_PARTIAL_CHARGES>  (1) 
25
1 -0.18
10 0.1
11 -0.15
12 -0.15
13 0.72
14 -0.15
15 -0.15
16 0.18
17 0.8
18 0.8
19 0.57
2 -0.27
20 0.57
21 0.4
22 0.15
23 0.15
24 0.15
25 0.15
3 -0.27
4 -0.6
5 -0.62
6 -0.62
7 -0.62
8 -0.48
9 -0.48

>  <PUBCHEM_EFFECTIVE_ROTOR_COUNT>  (1) 
4

>  <PUBCHEM_PHARMACOPHORE_FEATURES>  (1) 
10
1 2 acceptor
1 3 acceptor
1 4 donor
1 8 acceptor
1 9 acceptor
4 4 5 6 13 cation
4 5 7 8 17 cation
4 6 7 9 18 cation
6 10 11 12 14 15 16 rings
6 5 6 7 13 17 18 rings

>  <PUBCHEM_HEAVY_ATOM_COUNT>  (1) 
20

>  <PUBCHEM_ATOM_DEF_STEREO_COUNT>  (1) 
0

>  <PUBCHEM_ATOM_UDEF_STEREO_COUNT>  (1) 
0

>  <PUBCHEM_BOND_DEF_STEREO_COUNT>  (1) 
0

>  <PUBCHEM_BOND_UDEF_STEREO_COUNT>  (1) 
0

>  <PUBCHEM_ISOTOPIC_ATOM_COUNT>  (1) 
0

>  <PUBCHEM_COMPONENT_COUNT>  (1) 
1

>  <PUBCHEM_CACTVS_TAUTO_COUNT>  (1) 
3

>  <PUBCHEM_CONFORMER_ID>  (1) 
0000896900000001

>  <PUBCHEM_MMFF94_ENERGY>  (1) 
56.9017

>  <PUBCHEM_FEATURE_SELFOVERLAP>  (1) 
50.888

>  <PUBCHEM_SHAPE_FINGERPRINT>  (1) 
10366900 7 17821728313025878139
10763959 59 18261945255443460589
11405975 8 18409726288189761971
12236239 1 15697991917189217391
12617007 42 18341899580408878044
13134695 92 17489577978824614112
14022347 108 18336826403762692266
14341114 176 18412827988853175633
14508225 48 18268723723248347324
15163728 17 17391652346767073316
15196674 1 18338792420894654947
15475509 8 18056778532466181719
15806764 133 18114730577968471381
17804303 29 18408040702209269439
1813 80 18201168659000718390
18186145 218 18115010979398360899
18785283 64 18116712009627815544
20286276 3 18192999433472245899
21065198 57 18336541703307545179
21267235 1 18413393120940354347
21285901 2 17915465991462332470
21365058 113 18337405867311284124
21478907 32 17979634533551905818
21503847 285 18334289881734037489
22079108 93 12324539648312137062
221357 26 18340200804699968365
221490 88 18337112383600777699
2215653 11 18272647909822456287
23558518 356 17903902697997735466
23559900 14 18341043095057760579
23566358 27 18195245743974524055
3004659 81 18042125350311170658
312423 11 18200319939140245891
314173 41 18410575059220803538
340366 18 18202561799845993798
5081480 168 18408037420569582084
5104073 3 18336541720619102003
5281201 14 18409445929482275359
54076057 255 17676497124584399829
57262259 84 18124320402743394348
59554788 281 14548738417557946183
6287921 2 17971755720715499165
633830 44 18188759665343490155
7364860 26 18340203119661097024
7495541 125 18187366536280940803
9709674 26 18264485264331165203
9971528 1 17988917868980220386

>  <PUBCHEM_SHAPE_MULTIPOLES>  (1) 
391.27
11.63
3.5
1.12
10.32
4.69
0.35
-4.75
3.71
-4.46
0.86
-1.43
0.1
0.99

>  <PUBCHEM_SHAPE_SELFOVERLAP>  (1) 
809.825

>  <PUBCHEM_SHAPE_VOLUME>  (1) 
224.4

>  <PUBCHEM_COORDINATE_TYPE>  (1) 
2
5
10

$$$$
