35170
     RDKit          3D

 17 17  0  0  0  0  0  0  0  0999 V2000
   -0.8459   -2.6650    0.0390 S   0  0  0  0  0  0  0  0  0  0  0  0
   -0.8143    2.6626   -0.0401 S   0  0  0  0  0  0  0  0  0  0  0  0
   -0.9833   -0.0001    0.0004 N   0  0  0  0  0  0  0  0  0  0  0  0
   -3.0541    1.2118   -0.0179 N   0  0  0  0  0  0  0  0  0  0  0  0
   -3.0684   -1.1874    0.0176 N   0  0  0  0  0  0  0  0  0  0  0  0
   -5.0760    0.0236    0.0001 N   0  0  0  0  0  0  0  0  0  0  0  0
    1.8878   -3.2437    0.0477 C   0  0  0  0  0  0  0  0  0  0  0  0
    1.9208    3.2279   -0.0483 C   0  0  0  0  0  0  0  0  0  0  0  0
    3.3467   -2.7822   -0.0052 C   0  0  0  0  0  0  0  0  0  0  0  0
    3.3773    2.7592    0.0061 C   0  0  0  0  0  0  0  0  0  0  0  0
    0.8794   -2.0951    0.0314 C   0  0  0  0  0  0  0  0  0  0  0  0
    0.9066    2.0845   -0.0308 C   0  0  0  0  0  0  0  0  0  0  0  0
    4.2984   -3.9661   -0.0887 C   0  0  0  0  0  0  0  0  0  0  0  0
    4.3349    3.9385    0.0883 C   0  0  0  0  0  0  0  0  0  0  0  0
   -1.7315   -1.1105    0.0169 C   0  0  0  0  0  0  0  0  0  0  0  0
   -1.7141    1.1262   -0.0163 C   0  0  0  0  0  0  0  0  0  0  0  0
   -3.6643    0.0158   -0.0002 C   0  0  0  0  0  0  0  0  0  0  0  0
  1 11  1  0
  1 15  1  0
  2 12  1  0
  2 16  1  0
  3 15  2  0
  3 16  1  0
  4 16  2  0
  4 17  1  0
  5 15  1  0
  5 17  2  0
  6 17  1  0
  7  9  1  0
  7 11  1  0
  8 10  1  0
  8 12  1  0
  9 13  1  0
 10 14  1  0
M  END
>  <PUBCHEM_COMPOUND_CID>  (1) 
35170

>  <PUBCHEM_CONFORMER_RMSD>  (1) 
1

>  <PUBCHEM_CONFORMER_DIVERSEORDER>  (1) 
1
347
121
304
12
370
5
514
125
2
448
138
520
231
103
427
154
488
108
445
513
7
346
20
350
491
175
143
30
48
453
45
475
107
458
4
62
444
225
73
389
416
68
26
131
15
209
76
44
473
380
25
118
447
317
13
429
270
35
415
50
253
310
132
331
148
8
9
516
243
119
412
41
98
276
57
60
86
67
16
17
95

>  <PUBCHEM_MMFF94_PARTIAL_CHARGES>  (1) 
13
1 -0.33
11 0.23
12 0.23
15 0.72
16 0.72
17 0.72
2 -0.33
3 -0.62
36 0.4
37 0.4
4 -0.62
5 -0.62
6 -0.9

>  <PUBCHEM_EFFECTIVE_ROTOR_COUNT>  (1) 
8

>  <PUBCHEM_PHARMACOPHORE_FEATURES>  (1) 
7
1 13 hydrophobe
1 14 hydrophobe
1 6 donor
4 1 7 9 11 hydrophobe
4 2 8 10 12 hydrophobe
4 4 5 6 17 cation
6 3 4 5 15 16 17 rings

>  <PUBCHEM_HEAVY_ATOM_COUNT>  (1) 
17

>  <PUBCHEM_ATOM_DEF_STEREO_COUNT>  (1) 
0

>  <PUBCHEM_ATOM_UDEF_STEREO_COUNT>  (1) 
0

>  <PUBCHEM_BOND_DEF_STEREO_COUNT>  (1) 
0

>  <PUBCHEM_BOND_UDEF_STEREO_COUNT>  (1) 
0

>  <PUBCHEM_ISOTOPIC_ATOM_COUNT>  (1) 
0

>  <PUBCHEM_COMPONENT_COUNT>  (1) 
1

>  <PUBCHEM_CACTVS_TAUTO_COUNT>  (1) 
3

>  <PUBCHEM_CONFORMER_ID>  (1) 
0000896200000001

>  <PUBCHEM_MMFF94_ENERGY>  (1) 
21.036

>  <PUBCHEM_FEATURE_SELFOVERLAP>  (1) 
35.522

>  <PUBCHEM_SHAPE_FINGERPRINT>  (1) 
1100329 8 17979079279990085185
138480 1 18338517422459529702
14022349 108 18411710889302596097
15006816 218 18411136982739980816
15927050 60 18268715098326899471
16719943 64 18049723216313706752
167882 2 18410006650495467133
17859628 97 18193837278348553824
19930381 70 18410009948924777322
21344244 246 18266723848794134183
21665056 4 17761772171126968821
2297311 6 18052547564510443478
23402539 116 18053653677703270591
23419403 2 18042389262717208965
23557571 272 17839182900644349998
23559900 14 18338226051334876163
23728640 28 17688871260307911768
43471831 8 18194402414418898405
532947 4 18410856594041726151
5385378 56 18339369664314939609
7364860 26 18410856559660888577

>  <PUBCHEM_SHAPE_MULTIPOLES>  (1) 
337.63
8.15
6.57
0.61
0.56
0.22
0
-0.19
0
-11.84
0
-0.06
0
0.17

>  <PUBCHEM_SHAPE_SELFOVERLAP>  (1) 
628.628

>  <PUBCHEM_SHAPE_VOLUME>  (1) 
211.8

>  <PUBCHEM_COORDINATE_TYPE>  (1) 
2
5
10

$$$$
