3517
     RDKit          3D

 14 14  0  0  0  0  0  0  0  0999 V2000
   -0.0312   -2.2991   -0.3989 Cl  0  0  0  0  0  0  0  0  0  0  0  0
   -1.8837    2.8160    0.0701 Cl  0  0  0  0  0  0  0  0  0  0  0  0
    1.3412    0.0616    0.0217 N   0  0  0  0  0  0  0  0  0  0  0  0
    2.5037    0.7663   -0.2755 N   0  0  0  0  0  0  0  0  0  0  0  0
    4.8818    0.5427   -0.0715 N   0  0  0  0  0  0  0  0  0  0  0  0
    3.5004   -1.1154    0.6806 N   0  0  0  0  0  0  0  0  0  0  0  0
   -1.0694    0.2164   -0.1482 C   0  0  0  0  0  0  0  0  0  0  0  0
   -1.3065   -1.1581   -0.1583 C   0  0  0  0  0  0  0  0  0  0  0  0
   -2.1262    1.1051    0.0492 C   0  0  0  0  0  0  0  0  0  0  0  0
   -2.6006   -1.6439    0.0290 C   0  0  0  0  0  0  0  0  0  0  0  0
   -3.4202    0.6193    0.2365 C   0  0  0  0  0  0  0  0  0  0  0  0
   -3.6575   -0.7553    0.2265 C   0  0  0  0  0  0  0  0  0  0  0  0
    0.2869    0.7256   -0.3444 C   0  0  0  0  0  0  0  0  0  0  0  0
    3.5812    0.1191    0.0832 C   0  0  0  0  0  0  0  0  0  0  0  0
  1  8  1  0
  2  9  1  0
  3  4  1  0
  3 13  2  0
  4 14  2  0
  5 14  1  0
  6 14  1  0
  7  8  2  0
  7  9  1  0
  7 13  1  0
  8 10  1  0
  9 11  2  0
 10 12  2  0
 11 12  1  0
M  END
>  <PUBCHEM_COMPOUND_CID>  (1) 
3517

>  <PUBCHEM_CONFORMER_RMSD>  (1) 
0.6

>  <PUBCHEM_CONFORMER_DIVERSEORDER>  (1) 
1
2

>  <PUBCHEM_MMFF94_PARTIAL_CHARGES>  (1) 
22
1 -0.18
10 -0.15
11 -0.15
12 -0.15
13 0.3
14 0.55
15 0.15
16 0.15
17 0.15
18 0.06
19 0.4
2 -0.18
20 0.4
21 0.4
22 0.4
3 -0.45
4 -0.45
5 -0.85
6 -0.85
7 0.09
8 0.18
9 0.18

>  <PUBCHEM_EFFECTIVE_ROTOR_COUNT>  (1) 
2

>  <PUBCHEM_PHARMACOPHORE_FEATURES>  (1) 
5
1 3 acceptor
1 5 donor
1 6 donor
4 4 5 6 14 cation
6 7 8 9 10 11 12 rings

>  <PUBCHEM_HEAVY_ATOM_COUNT>  (1) 
14

>  <PUBCHEM_ATOM_DEF_STEREO_COUNT>  (1) 
0

>  <PUBCHEM_ATOM_UDEF_STEREO_COUNT>  (1) 
0

>  <PUBCHEM_BOND_DEF_STEREO_COUNT>  (1) 
0

>  <PUBCHEM_BOND_UDEF_STEREO_COUNT>  (1) 
1

>  <PUBCHEM_ISOTOPIC_ATOM_COUNT>  (1) 
0

>  <PUBCHEM_COMPONENT_COUNT>  (1) 
1

>  <PUBCHEM_CACTVS_TAUTO_COUNT>  (1) 
2

>  <PUBCHEM_CONFORMER_ID>  (1) 
00000DBD00000001

>  <PUBCHEM_MMFF94_ENERGY>  (1) 
45.2249

>  <PUBCHEM_FEATURE_SELFOVERLAP>  (1) 
25.426

>  <PUBCHEM_SHAPE_FINGERPRINT>  (1) 
11132069 177 18342742918374712779
12251169 10 18408604777343726668
13024252 1 13479129095321108061
13140716 1 18267877253608041649
13380535 76 18339642239976909911
14144814 61 18409728452462648256
14325111 11 18410573963935123012
14614273 12 18335984147711754405
15042514 8 18339365296022378607
15219456 202 18059867112099887343
15442244 35 18263923246516989554
15536298 74 18271528585415753950
15669948 3 18341327898486542958
16945 1 18338811039377364581
17804303 29 18341617044005630316
193761 8 18051134683889409127
19422 9 18186519874115660474
20510252 161 18272091578007313240
20871998 184 18343304786038664799
2297311 6 18271260386277582644
2306618 200 18202289078365852241
23402539 116 18272645779739833799
23463225 33 18334575728728966398
23559900 14 18272934895579460252
2748010 2 17905340533036661157
4214541 1 18410010992849990408
43471831 8 18335701602782077019
474 4 17242179178768683916
9709674 26 18412269445388994094

>  <PUBCHEM_SHAPE_MULTIPOLES>  (1) 
271.93
7.31
2.33
0.66
8.56
0.41
0
0.49
0.9
-1.61
-0.1
0.02
-0.05
-0.19

>  <PUBCHEM_SHAPE_SELFOVERLAP>  (1) 
547.466

>  <PUBCHEM_SHAPE_VOLUME>  (1) 
158.9

>  <PUBCHEM_COORDINATE_TYPE>  (1) 
2
5
10

$$$$
