35187
     RDKit          3D

 17 17  0  0  0  0  0  0  0  0999 V2000
   -2.6978    2.0591    1.4646 Cl  0  0  0  0  0  0  0  0  0  0  0  0
   -0.7770    3.6271   -0.0047 Cl  0  0  0  0  0  0  0  0  0  0  0  0
   -2.7018    2.0465   -1.4620 Cl  0  0  0  0  0  0  0  0  0  0  0  0
    3.5022   -0.7054   -1.4651 Cl  0  0  0  0  0  0  0  0  0  0  0  0
    3.3855    1.7711    0.0044 Cl  0  0  0  0  0  0  0  0  0  0  0  0
    3.4966   -0.7171    1.4615 Cl  0  0  0  0  0  0  0  0  0  0  0  0
   -2.1138   -3.0479   -1.4635 Cl  0  0  0  0  0  0  0  0  0  0  0  0
   -2.1149   -3.0480    1.4629 Cl  0  0  0  0  0  0  0  0  0  0  0  0
    0.5665    1.0447    0.0004 N   0  0  0  0  0  0  0  0  0  0  0  0
    0.8160   -1.3419    0.0005 N   0  0  0  0  0  0  0  0  0  0  0  0
   -1.3755   -0.3646    0.0000 N   0  0  0  0  0  0  0  0  0  0  0  0
   -0.7587    0.8281    0.0001 C   0  0  0  0  0  0  0  0  0  0  0  0
    1.2910   -0.0859    0.0005 C   0  0  0  0  0  0  0  0  0  0  0  0
   -0.5253   -1.4040    0.0002 C   0  0  0  0  0  0  0  0  0  0  0  0
   -1.6342    2.0347   -0.0006 C   0  0  0  0  0  0  0  0  0  0  0  0
    2.7738    0.0692    0.0005 C   0  0  0  0  0  0  0  0  0  0  0  0
   -1.1325   -2.7657    0.0000 C   0  0  0  0  0  0  0  0  0  0  0  0
  1 15  1  0
  2 15  1  0
  3 15  1  0
  4 16  1  0
  5 16  1  0
  6 16  1  0
  7 17  1  0
  8 17  1  0
  9 12  2  0
  9 13  1  0
 10 13  2  0
 10 14  1  0
 11 12  1  0
 11 14  2  0
 12 15  1  0
 13 16  1  0
 14 17  1  0
M  END
>  <PUBCHEM_COMPOUND_CID>  (1) 
35187

>  <PUBCHEM_CONFORMER_RMSD>  (1) 
0.6

>  <PUBCHEM_CONFORMER_DIVERSEORDER>  (1) 
1
9
5
2
8
4
3
6
7

>  <PUBCHEM_MMFF94_PARTIAL_CHARGES>  (1) 
17
1 -0.29
10 -0.62
11 -0.62
12 0.48
13 0.48
14 0.48
15 1.01
16 1.01
17 0.72
2 -0.29
3 -0.29
4 -0.29
5 -0.29
6 -0.29
7 -0.29
8 -0.29
9 -0.62

>  <PUBCHEM_EFFECTIVE_ROTOR_COUNT>  (1) 
3

>  <PUBCHEM_PHARMACOPHORE_FEATURES>  (1) 
4
3 10 11 14 cation
3 9 10 13 cation
3 9 11 12 cation
6 9 10 11 12 13 14 rings

>  <PUBCHEM_HEAVY_ATOM_COUNT>  (1) 
17

>  <PUBCHEM_ATOM_DEF_STEREO_COUNT>  (1) 
0

>  <PUBCHEM_ATOM_UDEF_STEREO_COUNT>  (1) 
0

>  <PUBCHEM_BOND_DEF_STEREO_COUNT>  (1) 
0

>  <PUBCHEM_BOND_UDEF_STEREO_COUNT>  (1) 
0

>  <PUBCHEM_ISOTOPIC_ATOM_COUNT>  (1) 
0

>  <PUBCHEM_COMPONENT_COUNT>  (1) 
1

>  <PUBCHEM_CACTVS_TAUTO_COUNT>  (1) 
1

>  <PUBCHEM_CONFORMER_ID>  (1) 
0000897300000001

>  <PUBCHEM_MMFF94_ENERGY>  (1) 
26.027

>  <PUBCHEM_FEATURE_SELFOVERLAP>  (1) 
23.07

>  <PUBCHEM_SHAPE_FINGERPRINT>  (1) 
11322862 65 18268732535640582503
12160290 23 18410573980993854759
12553582 1 17979077411795193426
13140716 1 18410013260392139648
13538477 17 18259702285797211626
13583140 156 17168146693789657384
13681431 1 17618786202967792199
15309172 13 18193844742938579721
15420108 30 16972763275495890730
15490181 7 18337674088060876234
15490181 8 18267583503139889134
16945 1 18266458702866155940
18186145 218 17914613852454327532
19591789 44 17907594531272429398
20510252 161 18340486758963474592
20645476 183 17749967552461755990
20645477 70 17474099905112855541
20711985 344 18410581720651828134
21041028 32 17762357094486589115
21524375 3 18120651331787293263
21731228 192 18194682557760620945
22112679 90 17123699185481708467
23184049 29 18337667633115297098
2334 1 18122062267314766458
23419403 2 16984024856208914259
23557571 272 18341327915940647212
23559900 14 18199476464126127414
23598294 1 18336272326868449266
2748010 2 18269834375367271516
305870 269 17689987943204530488
3060560 45 18048307847704718892
3071541 236 18335406937918069682
3091708 16 9418982285108250603
352729 6 18411134697574649806
458136 41 17764616229777296617
5845 1 11242556391940423911
633830 44 17986392174528176516
7364860 26 17116905925560793587
74978 22 18409165477050743932
81228 2 18339642346992298819
9981440 41 16985989572024179720

>  <PUBCHEM_SHAPE_MULTIPOLES>  (1) 
349.87
5.44
4.45
1.45
5.15
0.3
0
-0.49
0
-4.64
0
-0.36
0.48
0

>  <PUBCHEM_SHAPE_SELFOVERLAP>  (1) 
641.323

>  <PUBCHEM_SHAPE_VOLUME>  (1) 
216.7

>  <PUBCHEM_COORDINATE_TYPE>  (1) 
2
5
10

$$$$
