35188
     RDKit          3D

 20 21  0  0  0  0  0  0  0  0999 V2000
    1.1847   -3.5111   -0.1328 F   0  0  0  0  0  0  0  0  0  0  0  0
    2.8112   -2.5300   -1.1797 F   0  0  0  0  0  0  0  0  0  0  0  0
    2.8014   -2.5916    0.9939 F   0  0  0  0  0  0  0  0  0  0  0  0
    1.1838    3.5110    0.1347 F   0  0  0  0  0  0  0  0  0  0  0  0
    2.8104    2.5289    1.1805 F   0  0  0  0  0  0  0  0  0  0  0  0
    2.8010    2.5936   -0.9931 F   0  0  0  0  0  0  0  0  0  0  0  0
   -0.0933    1.1989    0.0449 N   0  0  0  0  0  0  0  0  0  0  0  0
   -0.0932   -1.1989   -0.0467 N   0  0  0  0  0  0  0  0  0  0  0  0
    1.9848    0.0001   -0.0005 N   0  0  0  0  0  0  0  0  0  0  0  0
   -2.1357   -0.0002   -0.0002 C   0  0  0  0  0  0  0  0  0  0  0  0
   -0.6887    0.0000   -0.0010 C   0  0  0  0  0  0  0  0  0  0  0  0
    1.2472    1.1214    0.0421 C   0  0  0  0  0  0  0  0  0  0  0  0
    1.2473   -1.1212   -0.0437 C   0  0  0  0  0  0  0  0  0  0  0  0
   -2.8334    1.0686   -0.5629 C   0  0  0  0  0  0  0  0  0  0  0  0
   -2.8330   -1.0691    0.5629 C   0  0  0  0  0  0  0  0  0  0  0  0
    1.9937   -2.4108   -0.0917 C   0  0  0  0  0  0  0  0  0  0  0  0
    1.9931    2.4111    0.0921 C   0  0  0  0  0  0  0  0  0  0  0  0
   -4.2282    1.0687   -0.5625 C   0  0  0  0  0  0  0  0  0  0  0  0
   -4.2278   -1.0691    0.5632 C   0  0  0  0  0  0  0  0  0  0  0  0
   -4.9254   -0.0002    0.0005 C   0  0  0  0  0  0  0  0  0  0  0  0
  1 16  1  0
  2 16  1  0
  3 16  1  0
  4 17  1  0
  5 17  1  0
  6 17  1  0
  7 11  2  0
  7 12  1  0
  8 11  1  0
  8 13  2  0
  9 12  2  0
  9 13  1  0
 10 11  1  0
 10 14  2  0
 10 15  1  0
 12 17  1  0
 13 16  1  0
 14 18  1  0
 15 19  2  0
 18 20  2  0
 19 20  1  0
M  END
>  <PUBCHEM_COMPOUND_CID>  (1) 
35188

>  <PUBCHEM_CONFORMER_RMSD>  (1) 
0.6

>  <PUBCHEM_CONFORMER_DIVERSEORDER>  (1) 
1

>  <PUBCHEM_MMFF94_PARTIAL_CHARGES>  (1) 
24
1 -0.34
11 0.62
12 0.48
13 0.48
14 -0.15
15 -0.15
16 1.16
17 1.16
18 -0.15
19 -0.15
2 -0.34
20 -0.15
21 0.15
22 0.15
23 0.15
24 0.15
25 0.15
3 -0.34
4 -0.34
5 -0.34
6 -0.34
7 -0.62
8 -0.62
9 -0.62

>  <PUBCHEM_EFFECTIVE_ROTOR_COUNT>  (1) 
3

>  <PUBCHEM_PHARMACOPHORE_FEATURES>  (1) 
5
3 7 8 11 cation
3 7 9 12 cation
3 8 9 13 cation
6 10 14 15 18 19 20 rings
6 7 8 9 11 12 13 rings

>  <PUBCHEM_HEAVY_ATOM_COUNT>  (1) 
20

>  <PUBCHEM_ATOM_DEF_STEREO_COUNT>  (1) 
0

>  <PUBCHEM_ATOM_UDEF_STEREO_COUNT>  (1) 
0

>  <PUBCHEM_BOND_DEF_STEREO_COUNT>  (1) 
0

>  <PUBCHEM_BOND_UDEF_STEREO_COUNT>  (1) 
0

>  <PUBCHEM_ISOTOPIC_ATOM_COUNT>  (1) 
0

>  <PUBCHEM_COMPONENT_COUNT>  (1) 
1

>  <PUBCHEM_CACTVS_TAUTO_COUNT>  (1) 
1

>  <PUBCHEM_CONFORMER_ID>  (1) 
0000897400000001

>  <PUBCHEM_MMFF94_ENERGY>  (1) 
35.7258

>  <PUBCHEM_FEATURE_SELFOVERLAP>  (1) 
28.155

>  <PUBCHEM_SHAPE_FINGERPRINT>  (1) 
10608611 8 18334853922904693805
10967382 1 18410573998057465037
10980938 120 18339360872210727841
11405975 8 18337674114579721105
11578080 2 16806988975457786894
12173636 292 17761773270670641693
12532896 13 17909548703069739164
12553582 1 18050581637740637083
12592029 89 18337675342070020816
12707595 3 18338522911154051183
12730499 353 18337120080762030891
12788726 201 17542509331811282922
12839892 36 18049989280140742299
13140716 1 18195238039156207058
13533116 47 18341898494235761337
138480 1 18338517421905687239
13955234 65 18412828005932896331
14178000 15 18269552741276505705
14648413 74 18408039598339046139
15219456 202 18335137618321227265
15375462 6 18336829783806657573
15422964 175 18051968117529330006
15442244 35 18268432322196371289
15502722 9 18411139164483081973
17804303 29 18189622644637647543
1813 80 17772205119019616678
18186145 218 17986124117229557177
19591789 44 18050292766692631318
20369508 70 18336824183027073575
20645477 70 18409725171429679887
20671657 1 18342459248690858453
20671657 53 18197501718733777859
20832881 197 18044659685804644147
21524375 3 17983296224698520260
221490 88 18335991917170488075
2255824 54 18411702075587008615
22854114 111 18341331197105913073
22943178 12 18187082858750508371
23366157 5 18113057138102354359
23419403 2 17825357749247993108
23557571 272 17693936298519593006
23558518 356 17760358195464341370
23559900 14 18410566259016995251
2748010 2 18263654020349215583
3071541 37 18335988656926118708
3091708 16 9216838206381856074
312423 11 18202012001841613177
314173 41 18266467494712054039
33824 294 18338236089095725979
352729 6 17760933243638775151
3886686 26 16027856087111614626
458136 41 18193295180466531913
495365 180 18342161289846067025
5104073 3 18408609154585133219
54173680 148 17474387972220280262
5902787 121 18189329074421465595
6049 1 18114185199047802981
6138700 20 18410582782294233828
633830 44 17915189133301372245
7364860 26 18411699885063568517
7615 1 17775015548650568425
7808743 9 17328302957572369688
81228 2 17548421401622652274
81539 233 18263362645393785949
8272917 22 18412832395410376463
84936 182 18202001066338413633
9709674 26 18335140916914483843
9841814 1 18262236608000842315

>  <PUBCHEM_SHAPE_MULTIPOLES>  (1) 
353.01
7.31
3.7
0.82
8.16
0
0
0
0
-5.29
0
-0.24
0
0.74

>  <PUBCHEM_SHAPE_SELFOVERLAP>  (1) 
770.422

>  <PUBCHEM_SHAPE_VOLUME>  (1) 
191.5

>  <PUBCHEM_COORDINATE_TYPE>  (1) 
2
5
10

$$$$
