35195
     RDKit          3D

 20 21  0  0  0  0  0  0  0  0999 V2000
   -0.7634   -3.4818    1.4651 Cl  0  0  0  0  0  0  0  0  0  0  0  0
   -3.1797   -2.9267   -0.0047 Cl  0  0  0  0  0  0  0  0  0  0  0  0
   -0.7506   -3.4783   -1.4616 Cl  0  0  0  0  0  0  0  0  0  0  0  0
   -2.3817    3.1109   -1.4646 Cl  0  0  0  0  0  0  0  0  0  0  0  0
   -4.2663    1.4993    0.0045 Cl  0  0  0  0  0  0  0  0  0  0  0  0
   -2.3689    3.1125    1.4620 Cl  0  0  0  0  0  0  0  0  0  0  0  0
   -0.2317    1.3788    0.0002 N   0  0  0  0  0  0  0  0  0  0  0  0
    0.3405   -0.9515   -0.0003 N   0  0  0  0  0  0  0  0  0  0  0  0
   -1.9638   -0.2818   -0.0004 N   0  0  0  0  0  0  0  0  0  0  0  0
    2.1100    0.7183    0.0004 C   0  0  0  0  0  0  0  0  0  0  0  0
    2.8232    0.2161    1.2681 C   0  0  0  0  0  0  0  0  0  0  0  0
    2.8225    0.2167   -1.2678 C   0  0  0  0  0  0  0  0  0  0  0  0
    4.3036    0.5937    1.2625 C   0  0  0  0  0  0  0  0  0  0  0  0
    4.3029    0.5943   -1.2627 C   0  0  0  0  0  0  0  0  0  0  0  0
    5.0052    0.1027   -0.0005 C   0  0  0  0  0  0  0  0  0  0  0  0
    0.6359    0.3563    0.0001 C   0  0  0  0  0  0  0  0  0  0  0  0
   -1.5150    0.9837    0.0001 C   0  0  0  0  0  0  0  0  0  0  0  0
   -0.9800   -1.1957   -0.0004 C   0  0  0  0  0  0  0  0  0  0  0  0
   -1.3961   -2.6273   -0.0005 C   0  0  0  0  0  0  0  0  0  0  0  0
   -2.5468    2.0599    0.0005 C   0  0  0  0  0  0  0  0  0  0  0  0
  1 19  1  0
  2 19  1  0
  3 19  1  0
  4 20  1  0
  5 20  1  0
  6 20  1  0
  7 16  2  0
  7 17  1  0
  8 16  1  0
  8 18  2  0
  9 17  2  0
  9 18  1  0
 10 11  1  0
 10 12  1  0
 10 16  1  0
 11 13  1  0
 12 14  1  0
 13 15  1  0
 14 15  1  0
 17 20  1  0
 18 19  1  0
M  END
>  <PUBCHEM_COMPOUND_CID>  (1) 
35195

>  <PUBCHEM_CONFORMER_RMSD>  (1) 
0.6

>  <PUBCHEM_CONFORMER_DIVERSEORDER>  (1) 
1
21
14
10
8
18
11
16
3
7
20
2
6
5
22
17
19
12
13
15
4
9
23

>  <PUBCHEM_MMFF94_PARTIAL_CHARGES>  (1) 
15
1 -0.29
10 0.14
16 0.48
17 0.48
18 0.48
19 1.01
2 -0.29
20 1.01
3 -0.29
4 -0.29
5 -0.29
6 -0.29
7 -0.62
8 -0.62
9 -0.62

>  <PUBCHEM_EFFECTIVE_ROTOR_COUNT>  (1) 
4.2

>  <PUBCHEM_PHARMACOPHORE_FEATURES>  (1) 
5
3 7 8 16 cation
3 7 9 17 cation
3 8 9 18 cation
6 10 11 12 13 14 15 rings
6 7 8 9 16 17 18 rings

>  <PUBCHEM_HEAVY_ATOM_COUNT>  (1) 
20

>  <PUBCHEM_ATOM_DEF_STEREO_COUNT>  (1) 
0

>  <PUBCHEM_ATOM_UDEF_STEREO_COUNT>  (1) 
0

>  <PUBCHEM_BOND_DEF_STEREO_COUNT>  (1) 
0

>  <PUBCHEM_BOND_UDEF_STEREO_COUNT>  (1) 
0

>  <PUBCHEM_ISOTOPIC_ATOM_COUNT>  (1) 
0

>  <PUBCHEM_COMPONENT_COUNT>  (1) 
1

>  <PUBCHEM_CACTVS_TAUTO_COUNT>  (1) 
1

>  <PUBCHEM_CONFORMER_ID>  (1) 
0000897B00000001

>  <PUBCHEM_MMFF94_ENERGY>  (1) 
27.9695

>  <PUBCHEM_FEATURE_SELFOVERLAP>  (1) 
28.152

>  <PUBCHEM_SHAPE_FINGERPRINT>  (1) 
10319926 262 18198319897967818280
107951 10 18115609062148002822
11833330 49 18192425483969786285
12160290 23 18410575119181092327
12173636 292 18269837527652143133
12236239 1 17749108894379315424
12363563 72 17907295808029279206
12500047 106 18412821361829336044
12553582 1 17977670036848460070
12714826 92 18199761404312932578
12788726 201 18191874624217720458
13004483 165 18123181574383766159
13052359 8 18335135410607855851
13140716 1 18122911094649713235
133893 2 17617659856579510441
13681431 1 17328863708459122603
13878862 14 17112694787923287401
14022347 108 18118687866018891507
14178342 30 18335686274723701714
14508225 48 18194392527530946597
15042514 8 18336831991272278035
15309172 13 18263651670965720657
15842332 3 17748825254865493288
15885798 251 18122909999428284379
16752209 62 18336536222296344099
16945 1 18410574023837811815
1741750 31 18341614772200091408
1813 80 17765160852947516927
18186145 218 18126853690076229324
18785283 64 17326338727620444521
19591789 44 18193843630631532283
20510252 161 18341894142410725265
20600515 1 17540224958922777219
20645476 183 18261114049805058060
20645477 56 18411984654676256344
21285901 2 18129114466297769263
21524375 3 18337953368314469425
22224240 67 18341337713188642569
2255824 54 17547012927617737691
22907989 373 18339083799248546117
22956985 138 17609499324413044371
23366157 5 17540260847959633025
23402539 116 18341885329596594367
23419403 2 13899335071487986479
23526113 38 17417260818691158302
23557571 272 18197777906927533264
23558518 356 18334575711449520162
23559900 14 18272938177298412996
23598288 3 17824567358948178631
23598291 2 17821733866450013084
2748010 2 18193570964748556527
3091708 16 9055885093022308121
352729 6 18410865377645654173
458136 41 17980217291751811561
474229 33 18409449168293928313
5486654 2 18412265009104398157
559249 180 18408882902805505262
59755656 215 18343584028001926095
59755656 520 18269839726627646332
6049 1 17917155021716256760
633830 44 17772750468244849476
7364860 26 17622159066670981447
7615 1 17822286950942955852
81228 2 18265899231751634235
84936 182 17698161742610189176
9709674 26 18201722855858237326

>  <PUBCHEM_SHAPE_MULTIPOLES>  (1) 
407.87
7.78
4.48
1.41
8.78
2.97
0
-3.87
0
-6.3
0
0.42
-0.05
0

>  <PUBCHEM_SHAPE_SELFOVERLAP>  (1) 
785.007

>  <PUBCHEM_SHAPE_VOLUME>  (1) 
243.7

>  <PUBCHEM_COORDINATE_TYPE>  (1) 
2
5
10

$$$$
