35191
     RDKit          3D

 19 19  0  0  0  0  0  0  0  0999 V2000
    1.0979    3.3939    1.4231 Cl  0  0  0  0  0  0  0  0  0  0  0  0
    3.5947    2.2789    0.5125 Cl  0  0  0  0  0  0  0  0  0  0  0  0
    1.7701    3.3936   -1.4252 Cl  0  0  0  0  0  0  0  0  0  0  0  0
    1.7837   -3.3944   -1.4252 Cl  0  0  0  0  0  0  0  0  0  0  0  0
    3.5927   -2.2787    0.5213 Cl  0  0  0  0  0  0  0  0  0  0  0  0
    1.0862   -3.3930    1.4170 Cl  0  0  0  0  0  0  0  0  0  0  0  0
   -2.9941    0.0002    0.3229 O   0  0  0  0  0  0  0  0  0  0  0  0
   -4.9455   -0.0001   -0.9136 O   0  0  0  0  0  0  0  0  0  0  0  0
   -0.1877   -1.1998   -0.3933 N   0  0  0  0  0  0  0  0  0  0  0  0
   -0.1877    1.1997   -0.3937 N   0  0  0  0  0  0  0  0  0  0  0  0
    1.8326    0.0001    0.0926 N   0  0  0  0  0  0  0  0  0  0  0  0
   -0.7646   -0.0001   -0.5322 C   0  0  0  0  0  0  0  0  0  0  0  0
   -2.2235   -0.0001   -0.8831 C   0  0  0  0  0  0  0  0  0  0  0  0
    1.1155   -1.1221   -0.0796 C   0  0  0  0  0  0  0  0  0  0  0  0
    1.1156    1.1221   -0.0800 C   0  0  0  0  0  0  0  0  0  0  0  0
    1.8403    2.4132    0.0944 C   0  0  0  0  0  0  0  0  0  0  0  0
    1.8402   -2.4132    0.0954 C   0  0  0  0  0  0  0  0  0  0  0  0
   -4.3469    0.0001    0.1537 C   0  0  0  0  0  0  0  0  0  0  0  0
   -5.0195   -0.0002    1.4931 C   0  0  0  0  0  0  0  0  0  0  0  0
  1 16  1  0
  2 16  1  0
  3 16  1  0
  4 17  1  0
  5 17  1  0
  6 17  1  0
  7 13  1  0
  7 18  1  0
  8 18  2  0
  9 12  2  0
  9 14  1  0
 10 12  1  0
 10 15  2  0
 11 14  2  0
 11 15  1  0
 12 13  1  0
 14 17  1  0
 15 16  1  0
 18 19  1  0
M  END
>  <PUBCHEM_COMPOUND_CID>  (1) 
35191

>  <PUBCHEM_CONFORMER_RMSD>  (1) 
0.8

>  <PUBCHEM_CONFORMER_DIVERSEORDER>  (1) 
1
7
12
14
4
11
13
15
6
8
3
9
2
5
10

>  <PUBCHEM_MMFF94_PARTIAL_CHARGES>  (1) 
19
1 -0.29
10 -0.62
11 -0.62
12 0.48
13 0.42
14 0.48
15 0.48
16 1.01
17 1.01
18 0.66
19 0.06
2 -0.29
3 -0.29
4 -0.29
5 -0.29
6 -0.29
7 -0.43
8 -0.57
9 -0.62

>  <PUBCHEM_EFFECTIVE_ROTOR_COUNT>  (1) 
5

>  <PUBCHEM_PHARMACOPHORE_FEATURES>  (1) 
5
1 8 acceptor
3 10 11 15 cation
3 9 10 12 cation
3 9 11 14 cation
6 9 10 11 12 14 15 rings

>  <PUBCHEM_HEAVY_ATOM_COUNT>  (1) 
19

>  <PUBCHEM_ATOM_DEF_STEREO_COUNT>  (1) 
0

>  <PUBCHEM_ATOM_UDEF_STEREO_COUNT>  (1) 
0

>  <PUBCHEM_BOND_DEF_STEREO_COUNT>  (1) 
0

>  <PUBCHEM_BOND_UDEF_STEREO_COUNT>  (1) 
0

>  <PUBCHEM_ISOTOPIC_ATOM_COUNT>  (1) 
0

>  <PUBCHEM_COMPONENT_COUNT>  (1) 
1

>  <PUBCHEM_CACTVS_TAUTO_COUNT>  (1) 
1

>  <PUBCHEM_CONFORMER_ID>  (1) 
0000897700000001

>  <PUBCHEM_MMFF94_ENERGY>  (1) 
29.8024

>  <PUBCHEM_FEATURE_SELFOVERLAP>  (1) 
28.159

>  <PUBCHEM_SHAPE_FINGERPRINT>  (1) 
12160290 23 16972222277157047756
12553582 1 18268986475619303999
12644460 14 18410294717798499954
12707595 3 18263085410009284463
12788726 201 17181661671590344059
13140716 1 18266168624879787746
13533116 47 18411705405251974803
13681431 1 18338808801161385124
13878862 14 18338785721078859725
14252887 29 18127690430983087238
14787075 74 18189343385674664102
14790565 3 18193843858313129300
14955137 171 18272374148554371910
15842332 3 17774999112037605783
15906896 17 17545883088941321190
17868525 174 18192432962041268041
1813 80 18056771922459266215
18785283 64 18260834846881851656
19784866 9 18341333387233428713
20645477 70 18410564068768589751
20671657 1 18271523195204812965
20739085 24 18409453553139299384
20871998 22 18054228730536726974
21041028 32 18270116786478281560
21344244 78 18059287665788759025
21524375 3 18124027094467040837
21731228 192 18121214548007653112
2255824 54 18411702101404070983
22849341 161 17769685034490251539
23419403 2 17897982699754481948
23557571 272 17476344016834789022
23558518 356 17619618520648672724
23559900 14 17603869970933423479
2748010 2 17979614763663805510
3091708 16 9648902282674009978
31174 14 18336265661247971751
352729 6 17327726805067828342
458136 41 18263656228110404221
474 4 18266739263162694549
5104073 3 18338530685909390915
57672749 33 18340195319831448754
58807428 26 18194383705805387448
633830 44 17985837153400856061
6442390 28 17834690661473833539
7364860 26 18413386540327452134
81228 2 17260451588230865716
81539 233 18335420226684040077
8272917 22 18411141342173997397
9841814 1 18262519169757324411

>  <PUBCHEM_SHAPE_MULTIPOLES>  (1) 
375.55
7.32
4.88
1.36
13.65
0
-0.08
0
-1.45
-6.83
-0.29
0.12
0
0

>  <PUBCHEM_SHAPE_SELFOVERLAP>  (1) 
710.662

>  <PUBCHEM_SHAPE_VOLUME>  (1) 
230.8

>  <PUBCHEM_COORDINATE_TYPE>  (1) 
2
5
10

$$$$
