3519
     RDKit          3D

 15 15  0  0  0  0  0  0  0  0999 V2000
    0.3268   -2.5685   -0.3483 Cl  0  0  0  0  0  0  0  0  0  0  0  0
    1.5577    2.7422   -0.4689 Cl  0  0  0  0  0  0  0  0  0  0  0  0
   -0.8331    0.5627    1.6108 O   0  0  0  0  0  0  0  0  0  0  0  0
   -2.5375    0.9415    0.0895 N   0  0  0  0  0  0  0  0  0  0  0  0
   -4.7329    0.1053   -0.4353 N   0  0  0  0  0  0  0  0  0  0  0  0
   -3.0520   -1.3299    0.1316 N   0  0  0  0  0  0  0  0  0  0  0  0
    1.0681    0.0585   -0.3766 C   0  0  0  0  0  0  0  0  0  0  0  0
   -0.3560    0.3802   -0.7468 C   0  0  0  0  0  0  0  0  0  0  0  0
    1.4479   -1.2654   -0.1813 C   0  0  0  0  0  0  0  0  0  0  0  0
    1.9932    1.0878   -0.2335 C   0  0  0  0  0  0  0  0  0  0  0  0
    2.7669   -1.5633    0.1610 C   0  0  0  0  0  0  0  0  0  0  0  0
    3.3121    0.7896    0.1090 C   0  0  0  0  0  0  0  0  0  0  0  0
   -1.2503    0.6137    0.4563 C   0  0  0  0  0  0  0  0  0  0  0  0
    3.6990   -0.5360    0.3061 C   0  0  0  0  0  0  0  0  0  0  0  0
   -3.4099   -0.0184   -0.0737 C   0  0  0  0  0  0  0  0  0  0  0  0
  1  9  1  0
  2 10  1  0
  3 13  2  0
  4 13  1  0
  4 15  2  3
  5 15  1  0
  6 15  1  0
  7  8  1  0
  7  9  2  0
  7 10  1  0
  8 13  1  0
  9 11  1  0
 10 12  2  0
 11 14  2  0
 12 14  1  0
M  END
>  <PUBCHEM_COMPOUND_CID>  (1) 
3519

>  <PUBCHEM_CONFORMER_RMSD>  (1) 
0.6

>  <PUBCHEM_CONFORMER_DIVERSEORDER>  (1) 
1
9
17
25
13
18
20
12
26
15
23
4
19
24
11
2
7
22
5
21
8
10
6
14
16
3

>  <PUBCHEM_MMFF94_PARTIAL_CHARGES>  (1) 
22
1 -0.18
10 0.18
11 -0.15
12 -0.15
13 0.72
14 -0.15
15 0.55
18 0.15
19 0.15
2 -0.18
20 0.15
21 0.4
22 0.4
23 0.4
24 0.4
3 -0.57
4 -0.66
5 -0.85
6 -0.85
7 -0.14
8 0.2
9 0.18

>  <PUBCHEM_EFFECTIVE_ROTOR_COUNT>  (1) 
3

>  <PUBCHEM_PHARMACOPHORE_FEATURES>  (1) 
5
1 3 acceptor
1 4 donor
1 5 donor
1 6 donor
6 7 9 10 11 12 14 rings

>  <PUBCHEM_HEAVY_ATOM_COUNT>  (1) 
15

>  <PUBCHEM_ATOM_DEF_STEREO_COUNT>  (1) 
0

>  <PUBCHEM_ATOM_UDEF_STEREO_COUNT>  (1) 
0

>  <PUBCHEM_BOND_DEF_STEREO_COUNT>  (1) 
0

>  <PUBCHEM_BOND_UDEF_STEREO_COUNT>  (1) 
0

>  <PUBCHEM_ISOTOPIC_ATOM_COUNT>  (1) 
0

>  <PUBCHEM_COMPONENT_COUNT>  (1) 
1

>  <PUBCHEM_CACTVS_TAUTO_COUNT>  (1) 
3

>  <PUBCHEM_CONFORMER_ID>  (1) 
00000DBF00000001

>  <PUBCHEM_MMFF94_ENERGY>  (1) 
45.8999

>  <PUBCHEM_FEATURE_SELFOVERLAP>  (1) 
25.502

>  <PUBCHEM_SHAPE_FINGERPRINT>  (1) 
10219947 1 18408888408446695884
11471102 20 18409443682924281341
14251717 144 18409728447840737326
14993402 34 18410863161553110966
15207287 21 17821730502979229090
15477762 27 18409730655532970732
15775835 57 18335988652868281438
16945 1 18336281110086962824
18186145 218 18342185470221741157
200 152 18273208686469268709
20201158 50 18408605829563397291
20606313 2 18335420157964608644
20645477 70 18408602539813627471
21501925 9 18411132515726027680
21730867 7 18335420170685772438
221490 88 18262809591034763954
22959321 4 18337392742054490767
23419403 2 16328708221041266470
23559900 14 18411414020630294522
2748010 2 18121204395469895484
3060560 45 18412265030067187918
3286 77 18187361021584851556
57005193 9 18340759373834545351
57812782 119 18113899364125327361
58051976 378 18341613745613191573
581208 293 18409729556211246990
69090 78 18334572451964351099
7364860 26 18411702123042586940
9709674 26 18410016524720745775

>  <PUBCHEM_SHAPE_MULTIPOLES>  (1) 
291.62
6.56
2.31
0.85
5.71
0.04
0.16
0.22
0.06
-1.36
-0.36
0.1
-0.1
-0.22

>  <PUBCHEM_SHAPE_SELFOVERLAP>  (1) 
590.468

>  <PUBCHEM_SHAPE_VOLUME>  (1) 
171.1

>  <PUBCHEM_COORDINATE_TYPE>  (1) 
2
5
10

$$$$
