35205
     RDKit          3D

 12 12  0  0  0  0  0  0  0  0999 V2000
   -1.0586   -0.8380    0.4388 N   0  0  0  0  0  0  0  0  0  0  0  0
    1.2699   -0.3412    0.1403 N   0  0  0  0  0  0  0  0  0  0  0  0
   -0.3475    1.4312    0.1181 N   0  0  0  0  0  0  0  0  0  0  0  0
   -2.6912    0.9391    0.4169 C   0  0  0  0  0  0  0  0  0  0  0  0
    0.5620   -2.6259    0.4614 C   0  0  0  0  0  0  0  0  0  0  0  0
   -1.2755    0.4817    0.3188 C   0  0  0  0  0  0  0  0  0  0  0  0
    0.2372   -1.1760    0.3394 C   0  0  0  0  0  0  0  0  0  0  0  0
   -3.3890    0.9651   -0.9408 C   0  0  0  0  0  0  0  0  0  0  0  0
    0.5411   -3.3416   -0.8868 C   0  0  0  0  0  0  0  0  0  0  0  0
    0.9022    0.9463    0.0394 C   0  0  0  0  0  0  0  0  0  0  0  0
    1.9643    1.9129   -0.1781 C   0  0  0  0  0  0  0  0  0  0  0  0
    3.2849    1.6462   -0.2673 C   0  0  0  0  0  0  0  0  0  0  0  0
  1  6  2  0
  1  7  1  0
  2  7  2  0
  2 10  1  0
  3  6  1  0
  3 10  2  0
  4  6  1  0
  4  8  1  0
  5  7  1  0
  5  9  1  0
 10 11  1  0
 11 12  2  0
M  END
>  <PUBCHEM_COMPOUND_CID>  (1) 
35205

>  <PUBCHEM_CONFORMER_RMSD>  (1) 
0.6

>  <PUBCHEM_CONFORMER_DIVERSEORDER>  (1) 
1
3
2

>  <PUBCHEM_MMFF94_PARTIAL_CHARGES>  (1) 
13
1 -0.62
10 0.65
11 -0.18
12 -0.3
2 -0.62
23 0.15
24 0.15
25 0.15
3 -0.62
4 0.14
5 0.14
6 0.48
7 0.48

>  <PUBCHEM_EFFECTIVE_ROTOR_COUNT>  (1) 
3

>  <PUBCHEM_PHARMACOPHORE_FEATURES>  (1) 
7
1 12 hydrophobe
1 8 hydrophobe
1 9 hydrophobe
3 1 2 7 cation
3 1 3 6 cation
3 2 3 10 cation
6 1 2 3 6 7 10 rings

>  <PUBCHEM_HEAVY_ATOM_COUNT>  (1) 
12

>  <PUBCHEM_ATOM_DEF_STEREO_COUNT>  (1) 
0

>  <PUBCHEM_ATOM_UDEF_STEREO_COUNT>  (1) 
0

>  <PUBCHEM_BOND_DEF_STEREO_COUNT>  (1) 
0

>  <PUBCHEM_BOND_UDEF_STEREO_COUNT>  (1) 
0

>  <PUBCHEM_ISOTOPIC_ATOM_COUNT>  (1) 
0

>  <PUBCHEM_COMPONENT_COUNT>  (1) 
1

>  <PUBCHEM_CACTVS_TAUTO_COUNT>  (1) 
4

>  <PUBCHEM_CONFORMER_ID>  (1) 
0000898500000001

>  <PUBCHEM_MMFF94_ENERGY>  (1) 
16.0194

>  <PUBCHEM_FEATURE_SELFOVERLAP>  (1) 
38.293

>  <PUBCHEM_SHAPE_FINGERPRINT>  (1) 
1 1 18408885113842789620
100427 49 17761225314305118850
12138202 78 18046057168866980453
12138202 97 18195257830392127700
12759256 9 18266459793661222843
13380535 76 18334292080530309713
16945 1 18266183824763792945
20524608 308 18123759913579327948
20645476 183 17387147549048859868
20645477 70 18265322929488629797
20711985 344 17616520101028919666
20871998 184 17835258005068132706
21040471 1 18265336286061823968
21499 59 18408598193153886085
21524375 3 18261669384586466641
23530152 11 18411697729185437743
23552423 10 18268711598028286057
241688 4 17257090368125649826
2748010 2 18336842981760954250
3071541 12 18194408783665897104
3071541 250 17834976169140121919
58734987 140 17906446632738002813
7364860 26 18268712701433844073
81228 2 17545319043454488009

>  <PUBCHEM_SHAPE_MULTIPOLES>  (1) 
232.01
4.02
3.34
0.82
1.41
3.62
-0.11
-3.72
-0.88
-1.78
-0.64
0.25
0.19
0.06

>  <PUBCHEM_SHAPE_SELFOVERLAP>  (1) 
464.709

>  <PUBCHEM_SHAPE_VOLUME>  (1) 
134.7

>  <PUBCHEM_COORDINATE_TYPE>  (1) 
2
5
10

$$$$
