35209
     RDKit          3D

 15 15  0  0  1  0  0  0  0  0999 V2000
    1.3569   -3.0542   -1.4042 Cl  0  0  0  0  0  0  0  0  0  0  0  0
   -3.6547    0.3086   -1.4022 Cl  0  0  0  0  0  0  0  0  0  0  0  0
    2.8685    2.0456    1.3629 Cl  0  0  0  0  0  0  0  0  0  0  0  0
   -1.1286   -0.8215    0.0926 N   0  0  0  0  0  0  0  0  0  0  0  0
    1.1980   -0.2422   -0.0041 N   0  0  0  0  0  0  0  0  0  0  0  0
   -0.4699    1.4826   -0.0303 N   0  0  0  0  0  0  0  0  0  0  0  0
    0.1813   -1.1164    0.0659 C   0  0  0  0  0  0  0  0  0  0  0  0
   -1.3788    0.4968    0.0413 C   0  0  0  0  0  0  0  0  0  0  0  0
    0.7971    1.0386   -0.0492 C   0  0  0  0  0  0  0  0  0  0  0  0
    0.5433   -2.5617    0.1193 C   0  0  0  0  0  0  0  0  0  0  0  0
   -2.8116    0.9077    0.0662 C   0  0  0  0  0  0  0  0  0  0  0  0
    1.8679    2.0729   -0.1283 C   0  0  0  0  0  0  0  0  0  0  0  0
    1.4280   -2.9506    1.3107 C   0  0  0  0  0  0  0  0  0  0  0  0
   -3.5820    0.4488    1.3110 C   0  0  0  0  0  0  0  0  0  0  0  0
    2.7847    1.9450   -1.3517 C   0  0  0  0  0  0  0  0  0  0  0  0
  1 10  1  0
  2 11  1  0
  3 12  1  0
  4  7  2  0
  4  8  1  0
  5  7  1  0
  5  9  2  0
  6  8  2  0
  6  9  1  0
  7 10  1  0
  8 11  1  0
  9 12  1  0
 10 13  1  0
 11 14  1  0
 12 15  1  0
M  END
>  <PUBCHEM_COMPOUND_CID>  (1) 
35209

>  <PUBCHEM_CONFORMER_RMSD>  (1) 
0.6

>  <PUBCHEM_CONFORMER_DIVERSEORDER>  (1) 
1
14
4
50
51
29
5
26
47
23
28
45
17
22
3
24
49
48
34
25
20
41
40
11
12
39
2
27
38
43
6
33
9
18
21
19
46
10
32
7
13
37
36
42
8
35
15
44
30
31
16

>  <PUBCHEM_MMFF94_PARTIAL_CHARGES>  (1) 
12
1 -0.29
10 0.43
11 0.43
12 0.43
2 -0.29
3 -0.29
4 -0.62
5 -0.62
6 -0.62
7 0.48
8 0.48
9 0.48

>  <PUBCHEM_EFFECTIVE_ROTOR_COUNT>  (1) 
3

>  <PUBCHEM_PHARMACOPHORE_FEATURES>  (1) 
4
3 4 5 7 cation
3 4 6 8 cation
3 5 6 9 cation
6 4 5 6 7 8 9 rings

>  <PUBCHEM_HEAVY_ATOM_COUNT>  (1) 
15

>  <PUBCHEM_ATOM_DEF_STEREO_COUNT>  (1) 
0

>  <PUBCHEM_ATOM_UDEF_STEREO_COUNT>  (1) 
3

>  <PUBCHEM_BOND_DEF_STEREO_COUNT>  (1) 
0

>  <PUBCHEM_BOND_UDEF_STEREO_COUNT>  (1) 
0

>  <PUBCHEM_ISOTOPIC_ATOM_COUNT>  (1) 
0

>  <PUBCHEM_COMPONENT_COUNT>  (1) 
1

>  <PUBCHEM_CACTVS_TAUTO_COUNT>  (1) 
1

>  <PUBCHEM_CONFORMER_ID>  (1) 
0000898900000001

>  <PUBCHEM_MMFF94_ENERGY>  (1) 
21.7663

>  <PUBCHEM_FEATURE_SELFOVERLAP>  (1) 
23.07

>  <PUBCHEM_SHAPE_FINGERPRINT>  (1) 
1 1 18408882944947641156
12553582 1 17833838170796190243
12759256 9 18267576919113461787
13140716 1 18410293648430829658
13681431 1 18122063104759588142
14022349 108 18337378354119784666
14181834 199 18266159665604486039
14817 1 14831277768531637070
15309172 13 18263368151774377233
15502708 68 18410287021296441032
15906896 17 17832984219401469594
16752209 62 17903904905357178546
16945 1 18336264539939604497
18186145 218 18201164359274744309
20097449 115 17903359203876321643
20361792 2 17907578026108814855
20510252 161 17765719400664571961
20645476 183 17533779566285115588
20645477 70 18339075996110380087
20671657 53 17903624195275010799
20711985 327 17980749450910724891
20711985 344 17472988775270937190
21524375 3 18339076128473618134
22112679 90 17480604653902829736
2334 1 18194122038806167926
23419403 2 17108258520280808346
23557571 272 17116353421316658364
23598291 2 18059017151605666189
25 1 18340786904205517764
257057 1 17615106803185154315
2748010 2 18265345073448633102
305870 269 18411128143359955105
3071541 236 17977089494523852016
3071541 250 17980220602897069422
3071541 37 18334574637960221685
458136 41 18264796357222643577
58807428 26 18337942493647271728
633830 44 18130801108613543973
7364860 26 18271806757282473810
7615 1 17845645933783425049
81228 2 17474106982479915682
81539 233 18260265269894080509
88987 49 17905605858884149796

>  <PUBCHEM_SHAPE_MULTIPOLES>  (1) 
299.36
5.05
3.63
1.41
4.47
3.07
-0.07
-3.25
-0.08
-3.89
-0.06
-0.15
0.17
-0.05

>  <PUBCHEM_SHAPE_SELFOVERLAP>  (1) 
573.354

>  <PUBCHEM_SHAPE_VOLUME>  (1) 
186.1

>  <PUBCHEM_COORDINATE_TYPE>  (1) 
2
5
10

$$$$
