35218
     RDKit          3D

 21 23  0  0  0  0  0  0  0  0999 V2000
   -1.2062   -1.2945   -0.3791 N   0  0  0  0  0  0  0  0  0  0  0  0
    1.1933   -1.3057   -0.3796 N   0  0  0  0  0  0  0  0  0  0  0  0
    0.0032    0.7434   -0.0017 N   0  0  0  0  0  0  0  0  0  0  0  0
   -0.0159   -3.3595   -0.7586 C   0  0  0  0  0  0  0  0  0  0  0  0
   -0.0186   -4.1885    0.5336 C   0  0  0  0  0  0  0  0  0  0  0  0
   -0.0092   -1.8930   -0.4891 C   0  0  0  0  0  0  0  0  0  0  0  0
   -1.1158    0.0196   -0.1363 C   0  0  0  0  0  0  0  0  0  0  0  0
    1.1219    0.0128   -0.1362 C   0  0  0  0  0  0  0  0  0  0  0  0
   -2.3657    0.7365   -0.0034 C   0  0  0  0  0  0  0  0  0  0  0  0
    2.3720    0.7145   -0.0040 C   0  0  0  0  0  0  0  0  0  0  0  0
   -0.0601   -5.6819    0.2512 C   0  0  0  0  0  0  0  0  0  0  0  0
   -2.4410    2.0807   -0.3681 C   0  0  0  0  0  0  0  0  0  0  0  0
   -3.4952    0.0831    0.4893 C   0  0  0  0  0  0  0  0  0  0  0  0
    2.4660    2.0616   -0.3677 C   0  0  0  0  0  0  0  0  0  0  0  0
    3.5018    0.0542    0.4892 C   0  0  0  0  0  0  0  0  0  0  0  0
   -3.6459    2.7717   -0.2401 C   0  0  0  0  0  0  0  0  0  0  0  0
   -4.7002    0.7740    0.6172 C   0  0  0  0  0  0  0  0  0  0  0  0
    3.6773    2.7414   -0.2396 C   0  0  0  0  0  0  0  0  0  0  0  0
    4.7131    0.7339    0.6174 C   0  0  0  0  0  0  0  0  0  0  0  0
   -4.7755    2.1183    0.2525 C   0  0  0  0  0  0  0  0  0  0  0  0
    4.8008    2.0775    0.2530 C   0  0  0  0  0  0  0  0  0  0  0  0
  1  6  2  0
  1  7  1  0
  2  6  1  0
  2  8  2  0
  3  7  2  0
  3  8  1  0
  4  5  1  0
  4  6  1  0
  5 11  1  0
  7  9  1  0
  8 10  1  0
  9 12  2  0
  9 13  1  0
 10 14  2  0
 10 15  1  0
 12 16  1  0
 13 17  2  0
 14 18  1  0
 15 19  2  0
 16 20  2  0
 17 20  1  0
 18 21  2  0
 19 21  1  0
M  END
>  <PUBCHEM_COMPOUND_CID>  (1) 
35218

>  <PUBCHEM_CONFORMER_RMSD>  (1) 
0.6

>  <PUBCHEM_CONFORMER_DIVERSEORDER>  (1) 
1
12
3
14
18
4
8
11
13
5
9
16
7
2
10
6
15
17

>  <PUBCHEM_MMFF94_PARTIAL_CHARGES>  (1) 
27
1 -0.62
12 -0.15
13 -0.15
14 -0.15
15 -0.15
16 -0.15
17 -0.15
18 -0.15
19 -0.15
2 -0.62
20 -0.15
21 -0.15
29 0.15
3 -0.62
30 0.15
31 0.15
32 0.15
33 0.15
34 0.15
35 0.15
36 0.15
37 0.15
38 0.15
4 0.14
6 0.48
7 0.62
8 0.62

>  <PUBCHEM_EFFECTIVE_ROTOR_COUNT>  (1) 
4

>  <PUBCHEM_PHARMACOPHORE_FEATURES>  (1) 
7
1 11 hydrophobe
3 1 2 6 cation
3 1 3 7 cation
3 2 3 8 cation
6 1 2 3 6 7 8 rings
6 10 14 15 18 19 21 rings
6 9 12 13 16 17 20 rings

>  <PUBCHEM_HEAVY_ATOM_COUNT>  (1) 
21

>  <PUBCHEM_ATOM_DEF_STEREO_COUNT>  (1) 
0

>  <PUBCHEM_ATOM_UDEF_STEREO_COUNT>  (1) 
0

>  <PUBCHEM_BOND_DEF_STEREO_COUNT>  (1) 
0

>  <PUBCHEM_BOND_UDEF_STEREO_COUNT>  (1) 
0

>  <PUBCHEM_ISOTOPIC_ATOM_COUNT>  (1) 
0

>  <PUBCHEM_COMPONENT_COUNT>  (1) 
1

>  <PUBCHEM_CACTVS_TAUTO_COUNT>  (1) 
3

>  <PUBCHEM_CONFORMER_ID>  (1) 
0000899200000001

>  <PUBCHEM_MMFF94_ENERGY>  (1) 
53.5149

>  <PUBCHEM_FEATURE_SELFOVERLAP>  (1) 
38.304

>  <PUBCHEM_SHAPE_FINGERPRINT>  (1) 
10074138 170 18122607620703157610
10090160 65 18411976945383897053
10411042 1 17186160315131669686
12160290 23 17840892946231243911
12173636 292 18339918332937651300
12363563 72 8430315770308463729
12390115 104 18199486487356027385
12532896 13 18341334465370310358
12549972 3 17464848691554154377
12553582 1 16972232748963217686
12592029 89 18338801104516771971
12788726 201 18051957410149701546
12839892 36 18408877430616042603
13004483 165 17619904397740677378
13134695 92 17545315281464310399
13140716 1 18411137991667243059
13583140 156 17168407325073646605
138480 1 17690280413107770511
13955234 65 18122633756101152515
14790565 3 18411423920562489096
14955137 171 18048594812019541794
15042514 8 18049727622032520939
15230672 131 18336273375858990494
15842332 3 17751917176068131820
15927050 60 18411981365032650734
16087824 20 18050568745156701927
18222031 100 12035452761102723329
18785283 64 18264488377976589826
19784866 9 18271241595458156537
20101258 96 17544767088860002440
20286276 3 18122629611895457412
204376 136 18413390934163658169
21033648 29 18342448262207571400
21049683 271 17831038830954855070
21120745 212 17543927053186233884
212916 134 18199729432513221144
21524375 3 18273212006278522055
21731228 192 18410577300871491394
22224240 67 18271252720224884363
22950370 63 8862943900582050189
23366157 5 18047762490074277103
23558518 356 17829044652428453320
23559900 14 17905324031793298299
283562 15 18269267023573895583
3091708 16 9264747213501388162
335352 9 18412544289463298436
394222 165 18128256692682952123
474 4 18340768139662310377
474229 33 18410856607506883059
5104073 3 18407760322122484313
532947 4 18197502827104612766
5385378 56 18196939859649309145
58807428 26 18339631261850636434
59755656 520 18411133667062100036
6138700 20 18051981325302981502
621550 34 18262802852869458157
633830 44 18202003183620017013
6442390 28 18410301323595331639
7364860 26 18124033421170294919
77188 2 17329992395715844607
7808743 9 18194402427747840896
79837 15 18337955696155576475
81228 2 17694478735350167987
9981440 41 18409166606468835993
9999458 23 18267027158835853958

>  <PUBCHEM_SHAPE_MULTIPOLES>  (1) 
417.23
8.96
5.66
0.76
0.22
11.41
-0.01
-11.43
-1.87
-0.2
-0.04
0
0.12
-0.01

>  <PUBCHEM_SHAPE_SELFOVERLAP>  (1) 
906.704

>  <PUBCHEM_SHAPE_VOLUME>  (1) 
223.6

>  <PUBCHEM_COORDINATE_TYPE>  (1) 
2
5
10

$$$$
