35217
     RDKit          3D

 18 18  0  0  0  0  0  0  0  0999 V2000
   -1.7422   -3.0533   -1.6260 Br  0  0  0  0  0  0  0  0  0  0  0  0
   -1.7432   -3.0533    1.6253 Br  0  0  0  0  0  0  0  0  0  0  0  0
   -3.0656    1.8016    1.6256 Br  0  0  0  0  0  0  0  0  0  0  0  0
   -3.0654    1.8005   -1.6257 Br  0  0  0  0  0  0  0  0  0  0  0  0
    3.6088    0.0433   -1.6260 Br  0  0  0  0  0  0  0  0  0  0  0  0
    3.6093    0.0426    1.6252 Br  0  0  0  0  0  0  0  0  0  0  0  0
   -1.2973   -0.3245    0.0002 N   0  0  0  0  0  0  0  0  0  0  0  0
    1.0231   -0.9358    0.0004 N   0  0  0  0  0  0  0  0  0  0  0  0
    0.3923    1.3794    0.0004 N   0  0  0  0  0  0  0  0  0  0  0  0
   -0.2906   -1.2133    0.0003 C   0  0  0  0  0  0  0  0  0  0  0  0
   -0.8807    0.9520    0.0002 C   0  0  0  0  0  0  0  0  0  0  0  0
    1.2894    0.3804    0.0003 C   0  0  0  0  0  0  0  0  0  0  0  0
   -0.6704   -2.6550    0.0001 C   0  0  0  0  0  0  0  0  0  0  0  0
   -1.9393    2.0017   -0.0003 C   0  0  0  0  0  0  0  0  0  0  0  0
    2.7278    0.7723    0.0001 C   0  0  0  0  0  0  0  0  0  0  0  0
    0.4679   -3.7020    0.0001 C   0  0  0  0  0  0  0  0  0  0  0  0
   -1.4895    3.4815   -0.0004 C   0  0  0  0  0  0  0  0  0  0  0  0
    3.0654    2.2817    0.0000 C   0  0  0  0  0  0  0  0  0  0  0  0
  1 13  1  0
  2 13  1  0
  3 14  1  0
  4 14  1  0
  5 15  1  0
  6 15  1  0
  7 10  2  0
  7 11  1  0
  8 10  1  0
  8 12  2  0
  9 11  2  0
  9 12  1  0
 10 13  1  0
 11 14  1  0
 12 15  1  0
 13 16  1  0
 14 17  1  0
 15 18  1  0
M  END
>  <PUBCHEM_COMPOUND_CID>  (1) 
35217

>  <PUBCHEM_CONFORMER_RMSD>  (1) 
0.6

>  <PUBCHEM_CONFORMER_DIVERSEORDER>  (1) 
1
25
6
23
5
7
22
2
24
21
13
15
8
14
20
9
4
18
11
16
10
19
3
17
12

>  <PUBCHEM_MMFF94_PARTIAL_CHARGES>  (1) 
15
1 -0.23
10 0.48
11 0.48
12 0.48
13 0.6
14 0.6
15 0.6
2 -0.23
3 -0.23
4 -0.23
5 -0.23
6 -0.23
7 -0.62
8 -0.62
9 -0.62

>  <PUBCHEM_EFFECTIVE_ROTOR_COUNT>  (1) 
3

>  <PUBCHEM_PHARMACOPHORE_FEATURES>  (1) 
13
1 1 hydrophobe
1 2 hydrophobe
1 3 hydrophobe
1 4 hydrophobe
1 5 hydrophobe
1 6 hydrophobe
3 7 8 10 cation
3 7 9 11 cation
3 8 9 12 cation
4 1 2 13 16 hydrophobe
4 3 4 14 17 hydrophobe
4 5 6 15 18 hydrophobe
6 7 8 9 10 11 12 rings

>  <PUBCHEM_HEAVY_ATOM_COUNT>  (1) 
18

>  <PUBCHEM_ATOM_DEF_STEREO_COUNT>  (1) 
0

>  <PUBCHEM_ATOM_UDEF_STEREO_COUNT>  (1) 
0

>  <PUBCHEM_BOND_DEF_STEREO_COUNT>  (1) 
0

>  <PUBCHEM_BOND_UDEF_STEREO_COUNT>  (1) 
0

>  <PUBCHEM_ISOTOPIC_ATOM_COUNT>  (1) 
0

>  <PUBCHEM_COMPONENT_COUNT>  (1) 
1

>  <PUBCHEM_CACTVS_TAUTO_COUNT>  (1) 
1

>  <PUBCHEM_CONFORMER_ID>  (1) 
0000899100000001

>  <PUBCHEM_MMFF94_ENERGY>  (1) 
38.4694

>  <PUBCHEM_FEATURE_SELFOVERLAP>  (1) 
70.953

>  <PUBCHEM_SHAPE_FINGERPRINT>  (1) 
11322862 65 18268734790482361310
116883 192 18055922231967534694
121448 382 18128511847999741821
12160290 23 18410575131960538151
12553582 1 17762341714171921394
12759256 9 17620750583807276087
12788726 201 18196363947283900759
13140716 1 18265334091222480376
13538477 17 18187359965497754144
13583140 156 17240199924093469728
13681431 1 17114388039648872751
14022347 108 17830475108192344882
14955137 171 17122556346144956315
15309172 13 18338525135889088297
15420108 30 17333895709317671938
15490181 7 18340491058220560374
15490181 8 18336824165461803170
16752209 62 18336534032142669318
16945 1 18338797784533743748
18186145 218 18058732381972723564
19591789 44 18267885911650180367
20510252 161 18269555107798035896
20600515 1 17403414921817583827
20645476 183 17894640240187895748
20645477 70 17762046645924523037
20711985 344 18267312108694301294
21041028 32 17545622496200988395
21524375 3 18265048037789467765
21731228 192 18338514123434257440
2255824 54 17835798591195350781
22907989 373 18116165526230568901
23184049 29 18193832872076001056
2334 1 17905890627599038320
23419403 2 16406259894120478695
23557571 272 18054785354572844852
23598288 3 18189043351985680898
23598294 1 18263933305119355072
238 59 18122053213819307397
2748010 2 18338527317547390519
3060560 45 18192143807135232356
3071541 236 18335687360669932352
3091708 16 9559444891288015104
34934 24 17618495927877437602
352729 6 18410007741084850768
4175511 71 17617121520825446363
458136 41 18050595965672226897
5845 1 10398795476531739923
633830 44 18058735693113161453
7364860 26 17549250446074534488
81228 2 18196654214053281203

>  <PUBCHEM_SHAPE_MULTIPOLES>  (1) 
391.14
5.58
4.85
1.73
4.27
3.02
0
-3.47
0
-3.71
0
-0.41
0.41
0

>  <PUBCHEM_SHAPE_SELFOVERLAP>  (1) 
706.801

>  <PUBCHEM_SHAPE_VOLUME>  (1) 
263.2

>  <PUBCHEM_COORDINATE_TYPE>  (1) 
2
5
10

$$$$
