35225
     RDKit          3D

 36 39  0  0  1  0  0  0  0  0999 V2000
    2.9107   -1.0279    2.4200 Cl  0  0  0  0  0  0  0  0  0  0  0  0
   -4.1485    1.8092   -0.1581 Cl  0  0  0  0  0  0  0  0  0  0  0  0
    0.4375    5.9500   -0.2195 Cl  0  0  0  0  0  0  0  0  0  0  0  0
    4.6042   -3.2242   -0.4820 O   0  0  0  0  0  0  0  0  0  0  0  0
   -1.3475   -1.4654    0.4517 O   0  0  0  0  0  0  0  0  0  0  0  0
    3.3690    2.7960    0.4132 O   0  0  0  0  0  0  0  0  0  0  0  0
    0.8377   -1.0394   -1.7105 N   0  0  0  0  0  0  0  0  0  0  0  0
    2.6168    0.5707   -1.7022 N   0  0  0  0  0  0  0  0  0  0  0  0
    0.3329    1.3060   -1.6717 N   0  0  0  0  0  0  0  0  0  0  0  0
    3.1322   -1.7865   -1.7414 C   0  0  0  0  0  0  0  0  0  0  0  0
   -1.4616   -0.3075   -1.6805 C   0  0  0  0  0  0  0  0  0  0  0  0
    2.1167    2.9313   -1.6637 C   0  0  0  0  0  0  0  0  0  0  0  0
    3.5534   -2.2590   -0.3321 C   0  0  0  0  0  0  0  0  0  0  0  0
   -2.0656   -0.4608   -0.2673 C   0  0  0  0  0  0  0  0  0  0  0  0
    2.3220    3.5104   -0.2466 C   0  0  0  0  0  0  0  0  0  0  0  0
    2.1204   -0.6687   -1.7162 C   0  0  0  0  0  0  0  0  0  0  0  0
   -0.0042    0.0064   -1.6880 C   0  0  0  0  0  0  0  0  0  0  0  0
    1.6597    1.5124   -1.6803 C   0  0  0  0  0  0  0  0  0  0  0  0
    2.4429   -2.8659    0.4631 C   0  0  0  0  0  0  0  0  0  0  0  0
   -3.5291   -0.8421   -0.2847 C   0  0  0  0  0  0  0  0  0  0  0  0
    1.0793    3.4348    0.6119 C   0  0  0  0  0  0  0  0  0  0  0  0
    2.0858   -2.3714    1.7175 C   0  0  0  0  0  0  0  0  0  0  0  0
   -4.5198    0.1255   -0.2382 C   0  0  0  0  0  0  0  0  0  0  0  0
    0.1874    4.4937    0.6724 C   0  0  0  0  0  0  0  0  0  0  0  0
    1.7574   -3.9532   -0.0789 C   0  0  0  0  0  0  0  0  0  0  0  0
   -3.8430   -2.1911   -0.3490 C   0  0  0  0  0  0  0  0  0  0  0  0
    0.8647    2.2710    1.3344 C   0  0  0  0  0  0  0  0  0  0  0  0
    1.0431   -2.9642    2.4299 C   0  0  0  0  0  0  0  0  0  0  0  0
   -5.8589   -0.2650   -0.2566 C   0  0  0  0  0  0  0  0  0  0  0  0
   -0.9482    4.3866    1.4753 C   0  0  0  0  0  0  0  0  0  0  0  0
    0.7149   -4.5460    0.6336 C   0  0  0  0  0  0  0  0  0  0  0  0
   -5.1820   -2.5814   -0.3672 C   0  0  0  0  0  0  0  0  0  0  0  0
   -0.2709    2.1642    2.1373 C   0  0  0  0  0  0  0  0  0  0  0  0
    0.3579   -4.0515    1.8878 C   0  0  0  0  0  0  0  0  0  0  0  0
   -6.1899   -1.6185   -0.3209 C   0  0  0  0  0  0  0  0  0  0  0  0
   -1.1772    3.2219    2.2079 C   0  0  0  0  0  0  0  0  0  0  0  0
  1 22  1  0
  2 23  1  0
  3 24  1  0
  4 13  1  0
  5 14  1  0
  6 15  1  0
  7 16  2  0
  7 17  1  0
  8 16  1  0
  8 18  2  0
  9 17  2  0
  9 18  1  0
 10 13  1  0
 10 16  1  0
 11 14  1  0
 11 17  1  0
 12 15  1  0
 12 18  1  0
 13 19  1  0
 14 20  1  0
 15 21  1  0
 19 22  2  0
 19 25  1  0
 20 23  2  0
 20 26  1  0
 21 24  2  0
 21 27  1  0
 22 28  1  0
 23 29  1  0
 24 30  1  0
 25 31  2  0
 26 32  2  0
 27 33  2  0
 28 34  2  0
 29 35  2  0
 30 36  2  0
 31 34  1  0
 32 35  1  0
 33 36  1  0
M  END
>  <PUBCHEM_COMPOUND_CID>  (1) 
35225

>  <PUBCHEM_CONFORMER_RMSD>  (1) 
1.6

>  <PUBCHEM_CONFORMER_DIVERSEORDER>  (1) 
1
110
130
36
105
112
39
79
128
7
24
148
42
131
74
87
124
29
139
155
142
125
126
69
85
150
52
83
156
103
38
111
151
100
30
75
104
80
51
141
92
60
127
68
45
107
21
163
115
93
118
129
63
162
96
98
35
70
32
158
143
132
64
18
164
137
66
61
65
120
82
89
153
25
77
144
160
123
119
12
165
114
76
40
149
136
58
54
159
145
10
47
101
140
90
95
109
146
135
71
27
2
44
147
94
133
134
86
17
48
152
88
72
53
6
57
50
122
84
23
15
99
62
157
31
22
113
20
81
106
116
3
41
33
37
28
67
78
121
91
108
49
166
26
138
161
5
11
56
16
46
73
8
154
97
117
102
59
34
19
14
9
4
55
13
43

>  <PUBCHEM_MMFF94_PARTIAL_CHARGES>  (1) 
51
1 -0.18
10 0.14
11 0.14
12 0.14
13 0.42
14 0.42
15 0.42
16 0.48
17 0.48
18 0.48
19 -0.14
2 -0.18
20 -0.14
21 -0.14
22 0.18
23 0.18
24 0.18
25 -0.15
26 -0.15
27 -0.15
28 -0.15
29 -0.15
3 -0.18
30 -0.15
31 -0.15
32 -0.15
33 -0.15
34 -0.15
35 -0.15
36 -0.15
4 -0.68
46 0.15
47 0.15
48 0.15
49 0.4
5 -0.68
50 0.4
51 0.4
52 0.15
53 0.15
54 0.15
55 0.15
56 0.15
57 0.15
58 0.15
59 0.15
6 -0.68
60 0.15
7 -0.62
8 -0.62
9 -0.62

>  <PUBCHEM_EFFECTIVE_ROTOR_COUNT>  (1) 
9

>  <PUBCHEM_PHARMACOPHORE_FEATURES>  (1) 
13
1 4 acceptor
1 4 donor
1 5 acceptor
1 5 donor
1 6 acceptor
1 6 donor
3 7 8 16 cation
3 7 9 17 cation
3 8 9 18 cation
6 19 22 25 28 31 34 rings
6 20 23 26 29 32 35 rings
6 21 24 27 30 33 36 rings
6 7 8 9 16 17 18 rings

>  <PUBCHEM_HEAVY_ATOM_COUNT>  (1) 
36

>  <PUBCHEM_ATOM_DEF_STEREO_COUNT>  (1) 
0

>  <PUBCHEM_ATOM_UDEF_STEREO_COUNT>  (1) 
3

>  <PUBCHEM_BOND_DEF_STEREO_COUNT>  (1) 
0

>  <PUBCHEM_BOND_UDEF_STEREO_COUNT>  (1) 
0

>  <PUBCHEM_ISOTOPIC_ATOM_COUNT>  (1) 
0

>  <PUBCHEM_COMPONENT_COUNT>  (1) 
1

>  <PUBCHEM_CACTVS_TAUTO_COUNT>  (1) 
3

>  <PUBCHEM_CONFORMER_ID>  (1) 
0000899900000001

>  <PUBCHEM_MMFF94_ENERGY>  (1) 
93.0247

>  <PUBCHEM_FEATURE_SELFOVERLAP>  (1) 
68.774

>  <PUBCHEM_SHAPE_FINGERPRINT>  (1) 
10675989 125 17985277515194650921
11421498 54 18267870475796740034
12156800 1 17984701113075688488
12522641 24 18336836377251630243
12788726 201 18050583845337600391
14068700 675 18337953385711207686
14705955 166 16626576597978095897
15968369 26 18122043558917773531
17818456 19 17761776165942465239
17974551 9 17470431302904120152
18681886 176 18059864990491980439
21857420 4 18120626090718305233
23559900 14 18410004456136749367
4058900 60 17907312292124388677
469060 322 17826514362703404498
57527306 92 18201999954284287908
6086070 43 18341037525265873717

>  <PUBCHEM_SHAPE_MULTIPOLES>  (1) 
713.92
8.42
7.93
2.3
15.1
6.04
-0.59
-6.66
1.97
-4.86
-3.2
-1.75
0
-1.29

>  <PUBCHEM_SHAPE_SELFOVERLAP>  (1) 
1518.839

>  <PUBCHEM_SHAPE_VOLUME>  (1) 
396.7

>  <PUBCHEM_COORDINATE_TYPE>  (1) 
2
5
10

$$$$
