35221
     RDKit          3D

 25 28  0  0  0  0  0  0  0  0999 V2000
   -0.8400    0.8685   -0.1080 N   0  0  0  0  0  0  0  0  0  0  0  0
    0.0281   -1.3663   -0.0091 N   0  0  0  0  0  0  0  0  0  0  0  0
    1.5293    0.5056    0.0037 N   0  0  0  0  0  0  0  0  0  0  0  0
   -5.7348   -0.0172    0.9202 N   0  0  0  0  0  0  0  0  0  0  0  0
   -2.3080   -0.9905   -0.1203 C   0  0  0  0  0  0  0  0  0  0  0  0
   -0.9675   -0.4678   -0.0769 C   0  0  0  0  0  0  0  0  0  0  0  0
    0.4353    1.2755   -0.0645 C   0  0  0  0  0  0  0  0  0  0  0  0
    1.2485   -0.8073    0.0277 C   0  0  0  0  0  0  0  0  0  0  0  0
    0.6557    2.7053   -0.0946 C   0  0  0  0  0  0  0  0  0  0  0  0
    2.3697   -1.7070    0.1002 C   0  0  0  0  0  0  0  0  0  0  0  0
   -3.3691   -0.2556    0.4184 C   0  0  0  0  0  0  0  0  0  0  0  0
   -2.5596   -2.2374   -0.7018 C   0  0  0  0  0  0  0  0  0  0  0  0
   -4.6680   -0.7623    0.3759 C   0  0  0  0  0  0  0  0  0  0  0  0
    1.8209    3.2194   -0.6636 C   0  0  0  0  0  0  0  0  0  0  0  0
   -0.2970    3.5696    0.4450 C   0  0  0  0  0  0  0  0  0  0  0  0
    3.5475   -1.3147    0.7447 C   0  0  0  0  0  0  0  0  0  0  0  0
    2.2902   -2.9805   -0.4726 C   0  0  0  0  0  0  0  0  0  0  0  0
   -3.8583   -2.7441   -0.7442 C   0  0  0  0  0  0  0  0  0  0  0  0
   -4.9125   -2.0066   -0.2055 C   0  0  0  0  0  0  0  0  0  0  0  0
    2.0335    4.5976   -0.6929 C   0  0  0  0  0  0  0  0  0  0  0  0
   -0.0844    4.9478    0.4155 C   0  0  0  0  0  0  0  0  0  0  0  0
    4.6341   -2.1865    0.8154 C   0  0  0  0  0  0  0  0  0  0  0  0
    3.3768   -3.8523   -0.4016 C   0  0  0  0  0  0  0  0  0  0  0  0
    1.0809    5.4618   -0.1534 C   0  0  0  0  0  0  0  0  0  0  0  0
    4.5488   -3.4552    0.2424 C   0  0  0  0  0  0  0  0  0  0  0  0
  1  6  2  0
  1  7  1  0
  2  6  1  0
  2  8  2  0
  3  7  2  0
  3  8  1  0
  4 13  1  0
  5  6  1  0
  5 11  2  0
  5 12  1  0
  7  9  1  0
  8 10  1  0
  9 14  2  0
  9 15  1  0
 10 16  2  0
 10 17  1  0
 11 13  1  0
 12 18  2  0
 13 19  2  0
 14 20  1  0
 15 21  2  0
 16 22  1  0
 17 23  2  0
 18 19  1  0
 20 24  2  0
 21 24  1  0
 22 25  2  0
 23 25  1  0
M  END
>  <PUBCHEM_COMPOUND_CID>  (1) 
35221

>  <PUBCHEM_CONFORMER_RMSD>  (1) 
0.6

>  <PUBCHEM_CONFORMER_DIVERSEORDER>  (1) 
1
11
8
3
4
10
5
7
6
2
9

>  <PUBCHEM_MMFF94_PARTIAL_CHARGES>  (1) 
38
1 -0.62
11 -0.15
12 -0.15
13 0.1
14 -0.15
15 -0.15
16 -0.15
17 -0.15
18 -0.15
19 -0.15
2 -0.62
20 -0.15
21 -0.15
22 -0.15
23 -0.15
24 -0.15
25 -0.15
26 0.15
27 0.15
28 0.15
29 0.15
3 -0.62
30 0.15
31 0.15
32 0.15
33 0.15
34 0.15
35 0.15
36 0.15
37 0.15
38 0.15
39 0.15
4 -0.9
40 0.4
41 0.4
6 0.62
7 0.62
8 0.62

>  <PUBCHEM_EFFECTIVE_ROTOR_COUNT>  (1) 
3

>  <PUBCHEM_PHARMACOPHORE_FEATURES>  (1) 
9
1 4 cation
1 4 donor
3 1 2 6 cation
3 1 3 7 cation
3 2 3 8 cation
6 1 2 3 6 7 8 rings
6 10 16 17 22 23 25 rings
6 5 11 12 13 18 19 rings
6 9 14 15 20 21 24 rings

>  <PUBCHEM_HEAVY_ATOM_COUNT>  (1) 
25

>  <PUBCHEM_ATOM_DEF_STEREO_COUNT>  (1) 
0

>  <PUBCHEM_ATOM_UDEF_STEREO_COUNT>  (1) 
0

>  <PUBCHEM_BOND_DEF_STEREO_COUNT>  (1) 
0

>  <PUBCHEM_BOND_UDEF_STEREO_COUNT>  (1) 
0

>  <PUBCHEM_ISOTOPIC_ATOM_COUNT>  (1) 
0

>  <PUBCHEM_COMPONENT_COUNT>  (1) 
1

>  <PUBCHEM_CACTVS_TAUTO_COUNT>  (1) 
1

>  <PUBCHEM_CONFORMER_ID>  (1) 
0000899500000001

>  <PUBCHEM_MMFF94_ENERGY>  (1) 
87.6406

>  <PUBCHEM_FEATURE_SELFOVERLAP>  (1) 
48.457

>  <PUBCHEM_SHAPE_FINGERPRINT>  (1) 
10050765 1 17834394524339780050
10074138 170 17614817648986078872
10411042 1 18337954489222358099
10937287 8 17545319043491748797
1100329 8 18265334993588352265
11045515 52 18188489073312410078
11056379 131 18051139086321247166
11265709 11 18337675213332044114
11833330 49 18192992621384381104
12107183 9 18341340990221795955
12160290 23 17471819564650183196
12553582 1 18411982433904124390
12788726 201 18118983398776892230
13004483 165 18266733593447141946
13140716 1 18265610992164703896
13540713 5 18057889233402220143
13590594 115 18337397024406105577
13690498 29 17983305824726862054
13757389 114 17328888504017460358
138480 1 18410572920136750796
13955234 65 18193278726599886531
14790565 3 17761775474030867244
14955137 171 18265326399637595192
15042514 8 18050288067961473298
15230672 131 17469325194687625996
15664445 248 18270698557532133118
15705408 1 18266458891775867292
15775530 1 17970879319754063181
15842332 3 17843962779013067559
15927050 60 17474390657350495340
16087824 20 17977947887474322061
17492 89 18267021838073630355
17980427 26 18052813942555211901
1813 80 18271535203628008886
19301679 30 17976262339816467091
19591789 44 16754377111976894783
20101258 96 18266746779418408970
20600515 1 18128826248322019309
20642791 268 18272087248759179201
20739085 24 18341042012773468402
21049683 271 18115319993378157460
21120745 212 18194419809522023700
21796203 349 18047789041293778066
2255824 54 18195808689622330750
22849341 161 18267041500074312739
23366157 5 18190459548557817719
23558518 356 17829617158652823522
23559900 14 18267855250480300947
24771293 8 18128808819819609576
249057 25 17989213660148591163
283562 15 18044937870525721898
3091708 16 9355908809197194992
3103668 31 17902511485455944997
4409770 3 17830448380600033245
6058803 2 18129102406720515911
6442390 28 17400644221451498277
6443956 14 18408601461407473534
653340 110 17906724809370442458
6700243 42 17698753336560500878
7164475 11 18193000318530641790
77188 2 18410291389378271388
7808743 9 17688030813424856914
79837 15 17041762560729668088
84936 182 17910397517562040313
9777508 108 17691398612596862842
9981440 41 17545314641593018915

>  <PUBCHEM_SHAPE_MULTIPOLES>  (1) 
494.56
8.93
7.84
0.81
8.07
12.34
-0.01
-12.35
-1.56
-7.4
0.94
0.03
-0.03
-1.25

>  <PUBCHEM_SHAPE_SELFOVERLAP>  (1) 
1107.472

>  <PUBCHEM_SHAPE_VOLUME>  (1) 
256.5

>  <PUBCHEM_COORDINATE_TYPE>  (1) 
2
5
10

$$$$
