35233
     RDKit          3D

 15 15  0  0  0  0  0  0  0  0999 V2000
    1.9972    0.4746    0.0083 N   0  0  0  0  0  0  0  0  0  0  0  0
   -0.3321    0.7252    0.1104 N   0  0  0  0  0  0  0  0  0  0  0  0
   -2.6678    0.9128    0.2075 N   0  0  0  0  0  0  0  0  0  0  0  0
    0.6569   -1.4361   -0.2188 N   0  0  0  0  0  0  0  0  0  0  0  0
   -1.7299   -1.2118   -0.1169 N   0  0  0  0  0  0  0  0  0  0  0  0
    3.1794   -0.3495   -0.1393 C   0  0  0  0  0  0  0  0  0  0  0  0
    2.1487    1.9042    0.1879 C   0  0  0  0  0  0  0  0  0  0  0  0
    0.7115   -0.1069   -0.0361 C   0  0  0  0  0  0  0  0  0  0  0  0
    3.5148   -1.0221    1.1780 C   0  0  0  0  0  0  0  0  0  0  0  0
    1.9468    2.6209   -1.1333 C   0  0  0  0  0  0  0  0  0  0  0  0
   -1.5348    0.1126    0.0609 C   0  0  0  0  0  0  0  0  0  0  0  0
   -0.5958   -1.9186   -0.2486 C   0  0  0  0  0  0  0  0  0  0  0  0
   -4.0045    0.3336    0.1689 C   0  0  0  0  0  0  0  0  0  0  0  0
   -2.5483    2.3500    0.4176 C   0  0  0  0  0  0  0  0  0  0  0  0
   -0.7422   -3.3890   -0.4465 C   0  0  0  0  0  0  0  0  0  0  0  0
  1  6  1  0
  1  7  1  0
  1  8  1  0
  2  8  2  0
  2 11  1  0
  3 11  1  0
  3 13  1  0
  3 14  1  0
  4  8  1  0
  4 12  2  0
  5 11  2  0
  5 12  1  0
  6  9  1  0
  7 10  1  0
 12 15  1  0
M  END
>  <PUBCHEM_COMPOUND_CID>  (1) 
35233

>  <PUBCHEM_CONFORMER_RMSD>  (1) 
0.6

>  <PUBCHEM_CONFORMER_DIVERSEORDER>  (1) 
1
22
7
17
20
19
13
2
18
11
12
21
6
9
14
16
10
4
3
15
5
8

>  <PUBCHEM_MMFF94_PARTIAL_CHARGES>  (1) 
13
1 -0.84
11 0.72
12 0.48
13 0.37
14 0.37
15 0.14
2 -0.62
3 -0.84
4 -0.62
5 -0.62
6 0.37
7 0.37
8 0.72

>  <PUBCHEM_EFFECTIVE_ROTOR_COUNT>  (1) 
4

>  <PUBCHEM_PHARMACOPHORE_FEATURES>  (1) 
3
4 1 2 4 8 cation
4 2 3 5 11 cation
6 2 4 5 8 11 12 rings

>  <PUBCHEM_HEAVY_ATOM_COUNT>  (1) 
15

>  <PUBCHEM_ATOM_DEF_STEREO_COUNT>  (1) 
0

>  <PUBCHEM_ATOM_UDEF_STEREO_COUNT>  (1) 
0

>  <PUBCHEM_BOND_DEF_STEREO_COUNT>  (1) 
0

>  <PUBCHEM_BOND_UDEF_STEREO_COUNT>  (1) 
0

>  <PUBCHEM_ISOTOPIC_ATOM_COUNT>  (1) 
0

>  <PUBCHEM_COMPONENT_COUNT>  (1) 
1

>  <PUBCHEM_CACTVS_TAUTO_COUNT>  (1) 
1

>  <PUBCHEM_CONFORMER_ID>  (1) 
000089A100000001

>  <PUBCHEM_MMFF94_ENERGY>  (1) 
46.9191

>  <PUBCHEM_FEATURE_SELFOVERLAP>  (1) 
15.266

>  <PUBCHEM_SHAPE_FINGERPRINT>  (1) 
10967382 1 18411702045442713406
12251169 10 18408317796192458416
13140716 1 18338796826750483067
13380535 76 18339360769237293603
13538477 17 18264767834291959782
15279307 12 18190749824043882660
15442244 35 18409725184145542754
15490181 8 18341341032391039023
16945 1 18412267228768806574
193761 8 18195527227604193022
20510252 161 18201722902712429043
20511035 2 18129655430545067094
20645476 183 18262531401771026662
20671657 1 18262526995493855164
20711985 365 18267582592475330406
21501502 16 18267301130588873182
21524375 3 18409730634332570747
22094290 62 18408886243603973544
2334 1 18123189266680547831
23402539 116 18200579350706264541
23419403 2 16113370994407205064
23463225 33 18335701611450515672
23526114 1 17979921501575139919
23552423 10 18045777055706060918
23557571 272 17771351056504469304
23558518 356 18191301791702923482
23559900 14 18130796672782193788
23598291 2 18261951951033340902
2748010 2 18339089288480279511
305870 269 18196370308330932715
3060560 45 18339640014856550007
352729 6 18341334478455782423
58051976 378 18270957943565620173
6992083 37 18334848412071054928
7364860 26 17839463285005004071
74978 22 18337953497385079982
81228 2 17909536595609705347
9939556 21 18336543936320903478

>  <PUBCHEM_SHAPE_MULTIPOLES>  (1) 
283.79
5.54
3.22
0.83
0.75
0.91
0.01
-1.69
1.14
0.27
-0.72
-0.47
-0.11
-1

>  <PUBCHEM_SHAPE_SELFOVERLAP>  (1) 
562.028

>  <PUBCHEM_SHAPE_VOLUME>  (1) 
162.8

>  <PUBCHEM_COORDINATE_TYPE>  (1) 
2
5
10

$$$$
