35231
     RDKit          3D

 11 11  0  0  0  0  0  0  0  0999 V2000
    1.8512    0.6010    0.0052 N   0  0  0  0  0  0  0  0  0  0  0  0
    0.1390   -1.0013    0.0006 N   0  0  0  0  0  0  0  0  0  0  0  0
   -0.3734    1.3428    0.0008 N   0  0  0  0  0  0  0  0  0  0  0  0
   -2.1473   -0.2730   -0.0023 N   0  0  0  0  0  0  0  0  0  0  0  0
   -2.6174    2.0244   -0.0003 N   0  0  0  0  0  0  0  0  0  0  0  0
    2.8903   -0.3995    0.0082 C   0  0  0  0  0  0  0  0  0  0  0  0
    0.4967    0.3050    0.0015 C   0  0  0  0  0  0  0  0  0  0  0  0
    4.2540    0.2640   -0.0104 C   0  0  0  0  0  0  0  0  0  0  0  0
   -1.1872   -1.2117   -0.0014 C   0  0  0  0  0  0  0  0  0  0  0  0
   -1.6664    0.9807   -0.0013 C   0  0  0  0  0  0  0  0  0  0  0  0
   -1.6395   -2.6324   -0.0006 C   0  0  0  0  0  0  0  0  0  0  0  0
  1  6  1  0
  1  7  1  0
  2  7  2  0
  2  9  1  0
  3  7  1  0
  3 10  2  0
  4  9  2  0
  4 10  1  0
  5 10  1  0
  6  8  1  0
  9 11  1  0
M  END
>  <PUBCHEM_COMPOUND_CID>  (1) 
35231

>  <PUBCHEM_CONFORMER_RMSD>  (1) 
0.4

>  <PUBCHEM_CONFORMER_DIVERSEORDER>  (1) 
1
7
6
3
5
4
8
2

>  <PUBCHEM_MMFF94_PARTIAL_CHARGES>  (1) 
13
1 -0.87
10 0.72
11 0.14
14 0.4
2 -0.62
21 0.4
22 0.4
3 -0.62
4 -0.62
5 -0.9
6 0.37
7 0.72
9 0.48

>  <PUBCHEM_EFFECTIVE_ROTOR_COUNT>  (1) 
2

>  <PUBCHEM_PHARMACOPHORE_FEATURES>  (1) 
5
1 1 donor
1 5 donor
4 1 2 3 7 cation
4 3 4 5 10 cation
6 2 3 4 7 9 10 rings

>  <PUBCHEM_HEAVY_ATOM_COUNT>  (1) 
11

>  <PUBCHEM_ATOM_DEF_STEREO_COUNT>  (1) 
0

>  <PUBCHEM_ATOM_UDEF_STEREO_COUNT>  (1) 
0

>  <PUBCHEM_BOND_DEF_STEREO_COUNT>  (1) 
0

>  <PUBCHEM_BOND_UDEF_STEREO_COUNT>  (1) 
0

>  <PUBCHEM_ISOTOPIC_ATOM_COUNT>  (1) 
0

>  <PUBCHEM_COMPONENT_COUNT>  (1) 
1

>  <PUBCHEM_CACTVS_TAUTO_COUNT>  (1) 
9

>  <PUBCHEM_CONFORMER_ID>  (1) 
0000899F00000001

>  <PUBCHEM_MMFF94_ENERGY>  (1) 
26.9042

>  <PUBCHEM_FEATURE_SELFOVERLAP>  (1) 
25.414

>  <PUBCHEM_SHAPE_FINGERPRINT>  (1) 
12716758 59 18413101758236466658
13024252 1 14779545686293959053
13380535 76 18341610352430934495
14325111 11 18338797814930596832
15669948 3 18410006659106649958
16945 1 18410574015342913707
20645464 45 18130794434112325628
20645477 56 18410858741879217584
20871998 184 18200879585757622558
20871998 22 17762337315851181779
21040471 1 18338517435043881153
23402539 116 18343010108559216263
23552423 10 18043811098660701414
23559900 14 18271805680342863410
2748010 2 18193851340213743399
3071541 12 17403741043100758981
366044 4 18337670811306868969
6333449 129 18412823581773598556
75552 356 18410575106486049116

>  <PUBCHEM_SHAPE_MULTIPOLES>  (1) 
201.47
5.17
2.12
0.58
6.68
0.69
0
-0.54
0.01
-2.41
0
0.03
0.03
0

>  <PUBCHEM_SHAPE_SELFOVERLAP>  (1) 
402.765

>  <PUBCHEM_SHAPE_VOLUME>  (1) 
111.3

>  <PUBCHEM_COORDINATE_TYPE>  (1) 
2
5
10

$$$$
