35236
     RDKit          3D

 17 17  0  0  0  0  0  0  0  0999 V2000
   -2.3229   -0.6401   -0.0012 N   0  0  0  0  0  0  0  0  0  0  0  0
    2.3661   -0.5570    0.0013 N   0  0  0  0  0  0  0  0  0  0  0  0
    0.0212   -0.5668   -0.0016 N   0  0  0  0  0  0  0  0  0  0  0  0
    1.2575   -2.6234    0.0002 N   0  0  0  0  0  0  0  0  0  0  0  0
   -1.1416   -2.6658   -0.0011 N   0  0  0  0  0  0  0  0  0  0  0  0
   -4.1713    3.8431   -0.0049 N   0  0  0  0  0  0  0  0  0  0  0  0
    3.9887    3.9968    0.0049 N   0  0  0  0  0  0  0  0  0  0  0  0
   -2.4410    0.8003   -0.0019 C   0  0  0  0  0  0  0  0  0  0  0  0
    2.4119    0.8716    0.0007 C   0  0  0  0  0  0  0  0  0  0  0  0
   -1.1114   -1.3110   -0.0019 C   0  0  0  0  0  0  0  0  0  0  0  0
    1.1561   -1.2844   -0.0007 C   0  0  0  0  0  0  0  0  0  0  0  0
   -3.9054    1.2258    0.0081 C   0  0  0  0  0  0  0  0  0  0  0  0
    3.8534    1.3695   -0.0056 C   0  0  0  0  0  0  0  0  0  0  0  0
    0.0686   -3.2475   -0.0001 C   0  0  0  0  0  0  0  0  0  0  0  0
    0.0951   -4.7381    0.0027 C   0  0  0  0  0  0  0  0  0  0  0  0
   -4.0529    2.6888    0.0008 C   0  0  0  0  0  0  0  0  0  0  0  0
    3.9278    2.8381    0.0003 C   0  0  0  0  0  0  0  0  0  0  0  0
  1  8  1  0
  1 10  1  0
  2  9  1  0
  2 11  1  0
  3 10  2  0
  3 11  1  0
  4 11  2  0
  4 14  1  0
  5 10  1  0
  5 14  2  0
  6 16  3  0
  7 17  3  0
  8 12  1  0
  9 13  1  0
 12 16  1  0
 13 17  1  0
 14 15  1  0
M  END
>  <PUBCHEM_COMPOUND_CID>  (1) 
35236

>  <PUBCHEM_CONFORMER_RMSD>  (1) 
0.8

>  <PUBCHEM_CONFORMER_DIVERSEORDER>  (1) 
1
76
61
48
43
54
42
24
6
56
44
17
59
57
49
94
86
11
64
27
68
72
89
65
26
71
30
10
93
96
55
74
88
20
16
91
9
66
69
23
31
98
51
79
92
62
60
38
53
90
84
50
4
45
87
36
97
28
73
70
18
5
75
95
40
47
78
83
39
7
32
22
35
81
15
33
63
46
2
52
67
19
13
12
82
21
29
3
25
8
77
37
58
41
34
14
80
85

>  <PUBCHEM_MMFF94_PARTIAL_CHARGES>  (1) 
19
1 -0.87
10 0.72
11 0.72
12 0.2
13 0.2
14 0.48
15 0.14
16 0.36
17 0.36
2 -0.87
22 0.4
23 0.4
3 -0.62
4 -0.62
5 -0.62
6 -0.56
7 -0.56
8 0.37
9 0.37

>  <PUBCHEM_EFFECTIVE_ROTOR_COUNT>  (1) 
6

>  <PUBCHEM_PHARMACOPHORE_FEATURES>  (1) 
7
1 1 donor
1 2 donor
1 6 acceptor
1 7 acceptor
4 1 3 5 10 cation
4 2 3 4 11 cation
6 3 4 5 10 11 14 rings

>  <PUBCHEM_HEAVY_ATOM_COUNT>  (1) 
17

>  <PUBCHEM_ATOM_DEF_STEREO_COUNT>  (1) 
0

>  <PUBCHEM_ATOM_UDEF_STEREO_COUNT>  (1) 
0

>  <PUBCHEM_BOND_DEF_STEREO_COUNT>  (1) 
0

>  <PUBCHEM_BOND_UDEF_STEREO_COUNT>  (1) 
0

>  <PUBCHEM_ISOTOPIC_ATOM_COUNT>  (1) 
0

>  <PUBCHEM_COMPONENT_COUNT>  (1) 
1

>  <PUBCHEM_CACTVS_TAUTO_COUNT>  (1) 
5

>  <PUBCHEM_CONFORMER_ID>  (1) 
000089A400000001

>  <PUBCHEM_MMFF94_ENERGY>  (1) 
34.6049

>  <PUBCHEM_FEATURE_SELFOVERLAP>  (1) 
35.563

>  <PUBCHEM_SHAPE_FINGERPRINT>  (1) 
10411042 1 17185877186618936711
10937287 8 18410572898625510797
12107183 9 18335685158359538576
12173636 292 18266458883048807694
12293681 160 17614534344296167159
13134695 92 17616813228410517303
13590594 115 17042053360254445377
138480 1 17762056540758876897
14123255 52 18410575093264017729
14508225 48 17189808481511198415
15961568 22 16611103682243068832
17134986 127 18411421670194025382
17834072 32 18410575119292446800
18785283 64 18191870028613074859
20621476 13 18048026377144989581
21041028 32 17040067642149375071
21304253 13 17330283178351292843
3071541 12 18195247715522800519
474 4 18267298738445089681
59124914 9 18338238154980464992
5939293 188 17905885881707889355
7808743 9 18122344846452221392
84936 182 18271518685373471745
9981440 41 18409724071548586281

>  <PUBCHEM_SHAPE_MULTIPOLES>  (1) 
314.98
7.9
6.53
0.58
0.86
2.03
0
-14.57
0
-0.5
0
0
0
0

>  <PUBCHEM_SHAPE_SELFOVERLAP>  (1) 
626.944

>  <PUBCHEM_SHAPE_VOLUME>  (1) 
173.2

>  <PUBCHEM_COORDINATE_TYPE>  (1) 
2
5
10

$$$$
