35237
     RDKit          3D

 17 17  0  0  0  0  0  0  0  0999 V2000
   -0.8895    0.0346    1.0443 N   0  0  0  0  0  0  0  0  0  0  0  0
   -2.4501   -1.0549   -0.4169 N   0  0  0  0  0  0  0  0  0  0  0  0
   -2.3078    1.3403   -0.3845 N   0  0  0  0  0  0  0  0  0  0  0  0
   -3.8227    0.2475   -1.8019 N   0  0  0  0  0  0  0  0  0  0  0  0
    0.7880    2.3912    1.1828 C   0  0  0  0  0  0  0  0  0  0  0  0
    0.1430   -2.9853    0.2229 C   0  0  0  0  0  0  0  0  0  0  0  0
    1.4731    2.2331   -0.1781 C   0  0  0  0  0  0  0  0  0  0  0  0
    1.4152   -2.1346    0.2907 C   0  0  0  0  0  0  0  0  0  0  0  0
   -0.7407    2.4428    1.0823 C   0  0  0  0  0  0  0  0  0  0  0  0
   -1.0266   -2.3744    1.0167 C   0  0  0  0  0  0  0  0  0  0  0  0
    2.9953    2.2125   -0.0325 C   0  0  0  0  0  0  0  0  0  0  0  0
    2.5591   -2.7865   -0.4870 C   0  0  0  0  0  0  0  0  0  0  0  0
   -1.3587    1.1784    0.5403 C   0  0  0  0  0  0  0  0  0  0  0  0
   -1.4845   -1.0470    0.5162 C   0  0  0  0  0  0  0  0  0  0  0  0
    3.6823    2.0946   -1.3836 C   0  0  0  0  0  0  0  0  0  0  0  0
    3.8358   -1.9662   -0.3916 C   0  0  0  0  0  0  0  0  0  0  0  0
   -2.8112    0.1740   -0.8201 C   0  0  0  0  0  0  0  0  0  0  0  0
  1 13  2  0
  1 14  1  0
  2 14  2  0
  2 17  1  0
  3 13  1  0
  3 17  2  0
  4 17  1  0
  5  7  1  0
  5  9  1  0
  6  8  1  0
  6 10  1  0
  7 11  1  0
  8 12  1  0
  9 13  1  0
 10 14  1  0
 11 15  1  0
 12 16  1  0
M  END
>  <PUBCHEM_COMPOUND_CID>  (1) 
35237

>  <PUBCHEM_CONFORMER_RMSD>  (1) 
0.8

>  <PUBCHEM_CONFORMER_DIVERSEORDER>  (1) 
1
99
243
92
244
77
142
62
264
167
190
245
16
259
3
263
6
203
221
170
224
68
22
251
173
80
267
206
192
120
177
10
119
104
262
189
148
7
46
103
137
17
268
11
198
152
211
56
202
213
90
34
236
260
257
149
210
188
227
58
81
41
172
232
199
240
145
27
9
238
61
193
183
108
265
40
256
176
24
135
212
231
166
4
73
233
143
223
133
156
160
124
144
36
111
129
5
150
175
98
235
64
214
63
266
131
118
78
186
180
209
69
162
105
139
21
48
159
187
163
174
84
19
237
43
228
89
20
250
158
37
2
207
116
141
18
185
241
52
82
253
49
215
15
25
45
123
65
67
136
201
157
47
13
216
239
33
217
121
242
220
107
169
126
70
132
179
50
75
55
246
219
74
184
54
39
225
200
71
102
197
87
178
155
168
147
134
59
53
66
115
252
35
195
14
182
114
234
226
42
122
23
249
151
194
258
154
96
31
28
146
38
29
165
247
30
229
161
94
138
196
8
26
93
255
191
86
218
88
153
76
222
140
57
109
101
60
205
44
51
208
12
164
127
79
32
171
261
181
110
254
97
85
100
230
83
248
91
204
113
128
95
125
106
72
130
112
117

>  <PUBCHEM_MMFF94_PARTIAL_CHARGES>  (1) 
11
1 -0.62
10 0.14
13 0.48
14 0.48
17 0.72
2 -0.62
3 -0.62
4 -0.9
40 0.4
41 0.4
9 0.14

>  <PUBCHEM_EFFECTIVE_ROTOR_COUNT>  (1) 
8

>  <PUBCHEM_PHARMACOPHORE_FEATURES>  (1) 
7
1 15 hydrophobe
1 16 hydrophobe
1 4 donor
4 2 3 4 17 cation
4 5 7 9 11 hydrophobe
4 6 8 10 12 hydrophobe
6 1 2 3 13 14 17 rings

>  <PUBCHEM_HEAVY_ATOM_COUNT>  (1) 
17

>  <PUBCHEM_ATOM_DEF_STEREO_COUNT>  (1) 
0

>  <PUBCHEM_ATOM_UDEF_STEREO_COUNT>  (1) 
0

>  <PUBCHEM_BOND_DEF_STEREO_COUNT>  (1) 
0

>  <PUBCHEM_BOND_UDEF_STEREO_COUNT>  (1) 
0

>  <PUBCHEM_ISOTOPIC_ATOM_COUNT>  (1) 
0

>  <PUBCHEM_COMPONENT_COUNT>  (1) 
1

>  <PUBCHEM_CACTVS_TAUTO_COUNT>  (1) 
8

>  <PUBCHEM_CONFORMER_ID>  (1) 
000089A500000001

>  <PUBCHEM_MMFF94_ENERGY>  (1) 
16.8539

>  <PUBCHEM_FEATURE_SELFOVERLAP>  (1) 
35.522

>  <PUBCHEM_SHAPE_FINGERPRINT>  (1) 
10871710 139 17689730657736650028
11127187 94 18048321333833800225
12403259 327 14821260384257948010
1420 336 18123762958700695370
14251740 79 17544525085345250116
192875 21 18266170639631393246
20645476 183 16880168260398189961
21330990 113 17830762072226469891
21421566 26 17486185856693596615
22889148 1 16674663043181182415
23419403 2 17897476958976420417
2748010 2 17330265590116369467
3071541 250 18271230635233996427
5262128 65 18057615269563577406
57210444 14 18263636437048732301
598444 67 17691414421933642255
81228 2 17763738789296560026

>  <PUBCHEM_SHAPE_MULTIPOLES>  (1) 
329.93
5.72
4.43
1.27
2.22
1.23
0.24
-0.53
3.27
3.56
-0.66
-0.57
-0.46
-0.04

>  <PUBCHEM_SHAPE_SELFOVERLAP>  (1) 
642.252

>  <PUBCHEM_SHAPE_VOLUME>  (1) 
193.7

>  <PUBCHEM_COORDINATE_TYPE>  (1) 
2
5
10

$$$$
