35245
     RDKit          3D

 25 28  0  0  0  0  0  0  0  0999 V2000
   -1.5015   -2.0395   -0.0996 N   0  0  0  0  0  0  0  0  0  0  0  0
    1.5197    0.7180    0.0491 N   0  0  0  0  0  0  0  0  0  0  0  0
    0.7950   -1.5673   -0.0494 N   0  0  0  0  0  0  0  0  0  0  0  0
   -0.8235    0.2035   -0.0030 N   0  0  0  0  0  0  0  0  0  0  0  0
    0.2200    1.0421    0.0438 C   0  0  0  0  0  0  0  0  0  0  0  0
    1.7322   -0.6069    0.0005 C   0  0  0  0  0  0  0  0  0  0  0  0
   -0.0914    2.4542    0.0947 C   0  0  0  0  0  0  0  0  0  0  0  0
    3.1042   -1.0419    0.0020 C   0  0  0  0  0  0  0  0  0  0  0  0
   -0.4593   -1.0882   -0.0481 C   0  0  0  0  0  0  0  0  0  0  0  0
   -2.9033   -1.9164   -0.1150 C   0  0  0  0  0  0  0  0  0  0  0  0
    0.7883    3.3829   -0.4613 C   0  0  0  0  0  0  0  0  0  0  0  0
   -1.2714    2.8867    0.6996 C   0  0  0  0  0  0  0  0  0  0  0  0
    4.1002   -0.2350   -0.5578 C   0  0  0  0  0  0  0  0  0  0  0  0
    3.4524   -2.2746    0.5635 C   0  0  0  0  0  0  0  0  0  0  0  0
   -3.7006   -2.9202    0.4387 C   0  0  0  0  0  0  0  0  0  0  0  0
   -3.5016   -0.7899   -0.6833 C   0  0  0  0  0  0  0  0  0  0  0  0
    0.4881    4.7442   -0.4124 C   0  0  0  0  0  0  0  0  0  0  0  0
   -1.5718    4.2480    0.7485 C   0  0  0  0  0  0  0  0  0  0  0  0
    5.4299   -0.6564   -0.5562 C   0  0  0  0  0  0  0  0  0  0  0  0
    4.7820   -2.6959    0.5653 C   0  0  0  0  0  0  0  0  0  0  0  0
   -0.6920    5.1767    0.1925 C   0  0  0  0  0  0  0  0  0  0  0  0
    5.7707   -1.8868    0.0053 C   0  0  0  0  0  0  0  0  0  0  0  0
   -5.0901   -2.7981    0.4243 C   0  0  0  0  0  0  0  0  0  0  0  0
   -4.8910   -0.6676   -0.6977 C   0  0  0  0  0  0  0  0  0  0  0  0
   -5.6852   -1.6718   -0.1439 C   0  0  0  0  0  0  0  0  0  0  0  0
  1  9  1  0
  1 10  1  0
  2  5  2  0
  2  6  1  0
  3  6  2  0
  3  9  1  0
  4  5  1  0
  4  9  2  0
  5  7  1  0
  6  8  1  0
  7 11  2  0
  7 12  1  0
  8 13  2  0
  8 14  1  0
 10 15  2  0
 10 16  1  0
 11 17  1  0
 12 18  2  0
 13 19  1  0
 14 20  2  0
 15 23  1  0
 16 24  2  0
 17 21  2  0
 18 21  1  0
 19 22  2  0
 20 22  1  0
 23 25  2  0
 24 25  1  0
M  END
>  <PUBCHEM_COMPOUND_CID>  (1) 
35245

>  <PUBCHEM_CONFORMER_RMSD>  (1) 
0.8

>  <PUBCHEM_CONFORMER_DIVERSEORDER>  (1) 
2
5
3
4
1

>  <PUBCHEM_MMFF94_PARTIAL_CHARGES>  (1) 
39
1 -0.6
10 0.1
11 -0.15
12 -0.15
13 -0.15
14 -0.15
15 -0.15
16 -0.15
17 -0.15
18 -0.15
19 -0.15
2 -0.62
20 -0.15
21 -0.15
22 -0.15
23 -0.15
24 -0.15
25 -0.15
26 0.4
27 0.15
28 0.15
29 0.15
3 -0.62
30 0.15
31 0.15
32 0.15
33 0.15
34 0.15
35 0.15
36 0.15
37 0.15
38 0.15
39 0.15
4 -0.62
40 0.15
41 0.15
5 0.62
6 0.62
9 0.72

>  <PUBCHEM_EFFECTIVE_ROTOR_COUNT>  (1) 
4

>  <PUBCHEM_PHARMACOPHORE_FEATURES>  (1) 
6
1 1 donor
4 1 3 4 9 cation
6 10 15 16 23 24 25 rings
6 2 3 4 5 6 9 rings
6 7 11 12 17 18 21 rings
6 8 13 14 19 20 22 rings

>  <PUBCHEM_HEAVY_ATOM_COUNT>  (1) 
25

>  <PUBCHEM_ATOM_DEF_STEREO_COUNT>  (1) 
0

>  <PUBCHEM_ATOM_UDEF_STEREO_COUNT>  (1) 
0

>  <PUBCHEM_BOND_DEF_STEREO_COUNT>  (1) 
0

>  <PUBCHEM_BOND_UDEF_STEREO_COUNT>  (1) 
0

>  <PUBCHEM_ISOTOPIC_ATOM_COUNT>  (1) 
0

>  <PUBCHEM_COMPONENT_COUNT>  (1) 
1

>  <PUBCHEM_CACTVS_TAUTO_COUNT>  (1) 
3

>  <PUBCHEM_CONFORMER_ID>  (1) 
000089AD00000002

>  <PUBCHEM_MMFF94_ENERGY>  (1) 
85.0837

>  <PUBCHEM_FEATURE_SELFOVERLAP>  (1) 
30.448

>  <PUBCHEM_SHAPE_FINGERPRINT>  (1) 
10050765 1 18122626055826839558
10074138 170 17904739121102394056
10411042 1 18411138056102308466
1100329 8 18338802221889406601
11045515 52 18259702293838767229
11056379 131 18195817262777778966
11265709 11 18411421717211844706
12107183 9 17326608108328108890
12160290 23 17836611198807488564
12403259 226 18262793103414885559
12516196 113 18410853295607796978
12788726 201 18262512585620036674
13004483 165 18412254034951123986
13052359 8 18050846615594813960
13134695 92 18339919441276421663
13140716 1 18412544288629932873
13540713 5 17970635087388256626
13590594 115 18409738356963480753
13757389 114 17834416527045119036
138480 1 15096206813167943409
13955234 65 17906459079764320883
14028597 1 17749936779379965578
14251757 5 18262792957127346237
14347329 18 16807543138588661495
14508225 48 18412256229410465164
14866123 147 17978789004535519555
14955137 171 18339365274473565839
15042514 8 18267306434662415688
15081414 286 18268145546707797376
15927050 60 17547858911394632406
16087824 20 18266742381937056149
16992752 21 18410586080824258358
17492 89 17978790439577381183
17980427 26 17621596541808865421
1813 80 18129677381669639374
18681886 176 18269270329997502818
18785283 64 17830448741187310333
19427546 62 17330556445212769536
20101258 96 18338528464530707056
21033648 29 17703774938891801539
21049683 271 18043540618499640716
21120745 212 18340219509283146596
21133410 127 17464802851812219197
21304303 172 18342742871362395521
21478907 32 18410292484558008504
21641784 216 18338252487412705492
21703447 108 18339912750408626994
22223350 30 17909530780650969418
23558518 356 17974297525490662834
23559900 14 18265888250127400435
23929065 36 18124008188574911680
24771293 8 17913758681858601040
24771750 20 17613167681565368708
25147074 1 17969510299809332910
255183 313 17982749471510417433
283562 15 18334857161004229506
3004659 81 18040150717468867754
3091708 16 9352822492995820168
3103668 31 18263642854141700005
335352 9 18410290307880222791
3421961 26 18267583683375508914
3886686 26 17327426166364320946
4409770 3 18118397346484510341
5385378 56 17907586079241138345
5969126 39 18342168943577982998
6058803 2 17971198024382754162
6443956 14 18193275419491080900
7164475 11 18337674092857289422
77188 2 18410855503109905596
79837 15 17764023562908283152
9777508 108 17980191990067608160
9981440 41 17329150165730558760

>  <PUBCHEM_SHAPE_MULTIPOLES>  (1) 
494.56
11.16
6.54
0.77
2.38
11.62
0.01
-15.93
-0.72
-2.91
0.92
-0.06
0.08
-0.65

>  <PUBCHEM_SHAPE_SELFOVERLAP>  (1) 
1098.779

>  <PUBCHEM_SHAPE_VOLUME>  (1) 
255.6

>  <PUBCHEM_COORDINATE_TYPE>  (1) 
2
5
10

$$$$
