35244
     RDKit          3D

 20 21  0  0  0  0  0  0  0  0999 V2000
    2.8458    2.2351    1.8852 Cl  0  0  0  0  0  0  0  0  0  0  0  0
    4.9003    1.4778    0.0111 Cl  0  0  0  0  0  0  0  0  0  0  0  0
    2.5405    2.8209   -0.9659 Cl  0  0  0  0  0  0  0  0  0  0  0  0
   -5.1584    1.3559   -0.2135 O   0  0  0  0  0  0  0  0  0  0  0  0
   -3.3200    2.4318   -0.7444 O   0  0  0  0  0  0  0  0  0  0  0  0
    1.0288    0.3489    0.1801 N   0  0  0  0  0  0  0  0  0  0  0  0
    1.0239   -2.0015   -0.3028 N   0  0  0  0  0  0  0  0  0  0  0  0
    3.0940   -0.7886   -0.2653 N   0  0  0  0  0  0  0  0  0  0  0  0
   -3.9114    1.3998   -0.3448 N   0  0  0  0  0  0  0  0  0  0  0  0
    3.0583   -3.0863   -0.7331 N   0  0  0  0  0  0  0  0  0  0  0  0
   -1.0059   -0.8635    0.1391 C   0  0  0  0  0  0  0  0  0  0  0  0
    0.4334   -0.8371   -0.0029 C   0  0  0  0  0  0  0  0  0  0  0  0
   -1.7576    0.2704   -0.1693 C   0  0  0  0  0  0  0  0  0  0  0  0
   -1.6420   -2.0218    0.5856 C   0  0  0  0  0  0  0  0  0  0  0  0
   -3.1455    0.2458   -0.0312 C   0  0  0  0  0  0  0  0  0  0  0  0
   -3.0297   -2.0465    0.7237 C   0  0  0  0  0  0  0  0  0  0  0  0
   -3.7814   -0.9128    0.4153 C   0  0  0  0  0  0  0  0  0  0  0  0
    2.3624    0.2972    0.0327 C   0  0  0  0  0  0  0  0  0  0  0  0
    2.3579   -1.9010   -0.4189 C   0  0  0  0  0  0  0  0  0  0  0  0
    3.1065    1.5756    0.2192 C   0  0  0  0  0  0  0  0  0  0  0  0
  1 20  1  0
  2 20  1  0
  3 20  1  0
  4  9  1  0
  5  9  2  0
  6 12  2  0
  6 18  1  0
  7 12  1  0
  7 19  2  0
  8 18  2  0
  8 19  1  0
  9 15  1  0
 10 19  1  0
 11 12  1  0
 11 13  2  0
 11 14  1  0
 13 15  1  0
 14 16  2  0
 15 17  2  0
 16 17  1  0
 18 20  1  0
M  CHG  2   4  -1   9   1
M  END
>  <PUBCHEM_COMPOUND_CID>  (1) 
35244

>  <PUBCHEM_CONFORMER_RMSD>  (1) 
0.6

>  <PUBCHEM_CONFORMER_DIVERSEORDER>  (1) 
1
8
12
7
9
2
4
10
5
11
3
6

>  <PUBCHEM_MMFF94_PARTIAL_CHARGES>  (1) 
25
1 -0.29
10 -0.9
12 0.62
13 -0.15
14 -0.15
15 0.13
16 -0.15
17 -0.15
18 0.48
19 0.72
2 -0.29
20 1.01
21 0.15
22 0.15
23 0.15
24 0.15
25 0.4
26 0.4
3 -0.29
4 -0.52
5 -0.52
6 -0.62
7 -0.62
8 -0.62
9 0.91

>  <PUBCHEM_EFFECTIVE_ROTOR_COUNT>  (1) 
3

>  <PUBCHEM_PHARMACOPHORE_FEATURES>  (1) 
7
1 10 donor
1 4 acceptor
1 4 anion
1 5 acceptor
4 7 8 10 19 cation
6 11 13 14 15 16 17 rings
6 6 7 8 12 18 19 rings

>  <PUBCHEM_HEAVY_ATOM_COUNT>  (1) 
20

>  <PUBCHEM_ATOM_DEF_STEREO_COUNT>  (1) 
0

>  <PUBCHEM_ATOM_UDEF_STEREO_COUNT>  (1) 
0

>  <PUBCHEM_BOND_DEF_STEREO_COUNT>  (1) 
0

>  <PUBCHEM_BOND_UDEF_STEREO_COUNT>  (1) 
0

>  <PUBCHEM_ISOTOPIC_ATOM_COUNT>  (1) 
0

>  <PUBCHEM_COMPONENT_COUNT>  (1) 
1

>  <PUBCHEM_CACTVS_TAUTO_COUNT>  (1) 
4

>  <PUBCHEM_CONFORMER_ID>  (1) 
000089AC00000001

>  <PUBCHEM_MMFF94_ENERGY>  (1) 
57.4821

>  <PUBCHEM_FEATURE_SELFOVERLAP>  (1) 
35.602

>  <PUBCHEM_SHAPE_FINGERPRINT>  (1) 
10608611 8 18409731763792912027
10646746 165 18334856147096093576
1100329 8 16247153663568563987
11405975 8 18336829701896492987
11595378 159 16877933928269303085
11615756 256 18408892862196289797
12173636 292 17835238222691386852
12403259 118 18118112796031530376
12403259 415 18128538356838696792
12507560 40 18408891741262501611
12596602 18 16226608623083820817
12633257 1 17677315212759234856
13134695 92 17702372966965673544
14178342 30 18114460183712140754
14289901 80 18116153448782629547
14415576 193 18337114578603034492
14508225 48 17695641654081704614
14866123 147 16179046610425415722
15196674 1 18409450292863099399
15219456 202 18410578391904324707
1601671 61 18333733550689502020
18186145 218 18271822219106801675
20510252 161 18409453613600904379
20645477 56 18334014991126645257
20645477 70 17917999347445520206
21033648 29 17985533684244808576
21065198 57 18408326570679307899
21524375 3 18056204811199401774
21709351 56 18338795727607990628
221490 88 18410584963278361418
22943178 12 18408608062994006915
23227448 37 18335982047488324133
23419403 2 17123349158816648050
23557571 272 18187368791592321875
23558518 356 18115027519112085803
23559900 14 18410575067789359730
2748010 2 18409737274109612143
3545911 37 18410859871265543489
474 4 18334293192879593789
495365 180 18059280002928941618
5104073 3 18335425647207243843
58051976 378 18338236093005681982
59124914 9 17760087316140645865
6049 1 18336000704499424443
633830 44 18267013961039279877
7097593 13 17605247671581824688
7364860 26 18343588430285433782
7808743 9 17331398079031545744
90316 7 16951107569522095925
9709674 26 18409172121049146391

>  <PUBCHEM_SHAPE_MULTIPOLES>  (1) 
380.56
9.16
3.3
0.98
2.82
0.44
0.34
-4.7
0.11
-1.07
-0.59
-0.63
-0.44
1.55

>  <PUBCHEM_SHAPE_SELFOVERLAP>  (1) 
790.603

>  <PUBCHEM_SHAPE_VOLUME>  (1) 
216.6

>  <PUBCHEM_COORDINATE_TYPE>  (1) 
2
5
10

$$$$
