35251
     RDKit          3D

 11 11  0  0  0  0  0  0  0  0999 V2000
    2.3337    2.5041   -0.1955 Cl  0  0  0  0  0  0  0  0  0  0  0  0
    0.0579   -1.2248    0.2336 N   0  0  0  0  0  0  0  0  0  0  0  0
    0.1398    1.1733    0.2505 N   0  0  0  0  0  0  0  0  0  0  0  0
    2.1302   -0.0922   -0.1910 N   0  0  0  0  0  0  0  0  0  0  0  0
    2.0195   -2.4344   -0.2011 N   0  0  0  0  0  0  0  0  0  0  0  0
   -1.9479    0.0412    0.6779 C   0  0  0  0  0  0  0  0  0  0  0  0
   -2.7960    0.0795   -0.5940 C   0  0  0  0  0  0  0  0  0  0  0  0
   -0.4745   -0.0070    0.3643 C   0  0  0  0  0  0  0  0  0  0  0  0
   -4.2814    0.0976   -0.2703 C   0  0  0  0  0  0  0  0  0  0  0  0
    1.3709   -1.1901   -0.0451 C   0  0  0  0  0  0  0  0  0  0  0  0
    1.4476    1.0528   -0.0293 C   0  0  0  0  0  0  0  0  0  0  0  0
  1 11  1  0
  2  8  2  0
  2 10  1  0
  3  8  1  0
  3 11  2  0
  4 10  2  0
  4 11  1  0
  5 10  1  0
  6  7  1  0
  6  8  1  0
  7  9  1  0
M  END
>  <PUBCHEM_COMPOUND_CID>  (1) 
35251

>  <PUBCHEM_CONFORMER_RMSD>  (1) 
0.4

>  <PUBCHEM_CONFORMER_DIVERSEORDER>  (1) 
1
10
11
5
12
7
3
9
4
8
6
2

>  <PUBCHEM_MMFF94_PARTIAL_CHARGES>  (1) 
11
1 -0.18
10 0.72
11 0.8
19 0.4
2 -0.62
20 0.4
3 -0.62
4 -0.62
5 -0.9
6 0.14
8 0.48

>  <PUBCHEM_EFFECTIVE_ROTOR_COUNT>  (1) 
2

>  <PUBCHEM_PHARMACOPHORE_FEATURES>  (1) 
4
1 5 donor
1 9 hydrophobe
4 2 4 5 10 cation
6 2 3 4 8 10 11 rings

>  <PUBCHEM_HEAVY_ATOM_COUNT>  (1) 
11

>  <PUBCHEM_ATOM_DEF_STEREO_COUNT>  (1) 
0

>  <PUBCHEM_ATOM_UDEF_STEREO_COUNT>  (1) 
0

>  <PUBCHEM_BOND_DEF_STEREO_COUNT>  (1) 
0

>  <PUBCHEM_BOND_UDEF_STEREO_COUNT>  (1) 
0

>  <PUBCHEM_ISOTOPIC_ATOM_COUNT>  (1) 
0

>  <PUBCHEM_COMPONENT_COUNT>  (1) 
1

>  <PUBCHEM_CACTVS_TAUTO_COUNT>  (1) 
9

>  <PUBCHEM_CONFORMER_ID>  (1) 
000089B300000001

>  <PUBCHEM_MMFF94_ENERGY>  (1) 
17.911

>  <PUBCHEM_FEATURE_SELFOVERLAP>  (1) 
20.297

>  <PUBCHEM_SHAPE_FINGERPRINT>  (1) 
1 1 18337953501516595028
11031198 65 18337114570007981093
12138202 78 18335136462352734012
12932764 1 17386000633925157619
13380535 76 18263640834736268026
14325111 11 18337107981638847209
15477762 27 18340765957818891567
16945 1 18410866446849670970
170605 34 18187358887271052329
20201158 50 18335139769619892195
20645477 70 18411694366822254535
20671657 53 18196656189738594678
20820808 20 18341048639512607441
20871998 22 17983578507308917998
21040471 1 17979079606591741744
21499 59 18194117640849685109
21524375 3 17973154316633183904
228727 97 17560252430384997745
23402655 69 18412537709415242741
23552423 10 18413112736236172089
241688 4 17905894669490194976
2748010 2 18049741890250942672
3071541 37 18335145323202477588
7364860 26 18341892987328201360
81228 2 17473551244103632122

>  <PUBCHEM_SHAPE_MULTIPOLES>  (1) 
208.32
5.2
2.16
0.71
6.16
0.26
0.01
-1.34
-0.89
-2.8
-0.18
0.21
-0.04
0.05

>  <PUBCHEM_SHAPE_SELFOVERLAP>  (1) 
410.266

>  <PUBCHEM_SHAPE_VOLUME>  (1) 
122.8

>  <PUBCHEM_COORDINATE_TYPE>  (1) 
2
5
10

$$$$
