35250
     RDKit          3D

 12 12  0  0  0  0  0  0  0  0999 V2000
   -2.1769   -2.9095    0.1770 Cl  0  0  0  0  0  0  0  0  0  0  0  0
    2.1373   -0.4878    0.0708 N   0  0  0  0  0  0  0  0  0  0  0  0
    0.1808    0.7715   -0.2229 N   0  0  0  0  0  0  0  0  0  0  0  0
   -1.9453   -0.3402   -0.1815 N   0  0  0  0  0  0  0  0  0  0  0  0
    0.0742   -1.6016    0.1159 N   0  0  0  0  0  0  0  0  0  0  0  0
   -1.8461    2.0466   -0.5223 C   0  0  0  0  0  0  0  0  0  0  0  0
    2.9904    0.6691   -0.0486 C   0  0  0  0  0  0  0  0  0  0  0  0
   -1.1599    0.7430   -0.2945 C   0  0  0  0  0  0  0  0  0  0  0  0
    0.7544   -0.4376   -0.0149 C   0  0  0  0  0  0  0  0  0  0  0  0
   -2.1926    2.7572    0.7839 C   0  0  0  0  0  0  0  0  0  0  0  0
    4.4432    0.2659    0.1149 C   0  0  0  0  0  0  0  0  0  0  0  0
   -1.2595   -1.4765    0.0222 C   0  0  0  0  0  0  0  0  0  0  0  0
  1 12  1  0
  2  7  1  0
  2  9  1  0
  3  8  2  0
  3  9  1  0
  4  8  1  0
  4 12  2  0
  5  9  2  0
  5 12  1  0
  6  8  1  0
  6 10  1  0
  7 11  1  0
M  END
>  <PUBCHEM_COMPOUND_CID>  (1) 
35250

>  <PUBCHEM_CONFORMER_RMSD>  (1) 
0.6

>  <PUBCHEM_CONFORMER_DIVERSEORDER>  (1) 
1
7
10
5
11
9
4
8
12
2
6
3

>  <PUBCHEM_MMFF94_PARTIAL_CHARGES>  (1) 
11
1 -0.18
12 0.8
17 0.4
2 -0.87
3 -0.62
4 -0.62
5 -0.62
6 0.14
7 0.37
8 0.48
9 0.72

>  <PUBCHEM_EFFECTIVE_ROTOR_COUNT>  (1) 
3

>  <PUBCHEM_PHARMACOPHORE_FEATURES>  (1) 
4
1 10 hydrophobe
1 2 donor
4 2 3 5 9 cation
6 3 4 5 8 9 12 rings

>  <PUBCHEM_HEAVY_ATOM_COUNT>  (1) 
12

>  <PUBCHEM_ATOM_DEF_STEREO_COUNT>  (1) 
0

>  <PUBCHEM_ATOM_UDEF_STEREO_COUNT>  (1) 
0

>  <PUBCHEM_BOND_DEF_STEREO_COUNT>  (1) 
0

>  <PUBCHEM_BOND_UDEF_STEREO_COUNT>  (1) 
0

>  <PUBCHEM_ISOTOPIC_ATOM_COUNT>  (1) 
0

>  <PUBCHEM_COMPONENT_COUNT>  (1) 
1

>  <PUBCHEM_CACTVS_TAUTO_COUNT>  (1) 
9

>  <PUBCHEM_CONFORMER_ID>  (1) 
000089B200000001

>  <PUBCHEM_MMFF94_ENERGY>  (1) 
18.9186

>  <PUBCHEM_FEATURE_SELFOVERLAP>  (1) 
20.297

>  <PUBCHEM_SHAPE_FINGERPRINT>  (1) 
1 1 17760931736332088343
13380535 21 18338243643964168654
13380535 76 18268423547134775110
16945 1 18410295825963489047
1741750 31 18270115713042237376
19021347 4 18266462009927404105
20510252 161 18340204210556234816
20645477 56 18411703154045734472
20871998 184 18271528705405631254
21040471 1 18265331694688770631
21524375 3 18055059965711664685
23402539 116 18341602746492136031
23557571 272 18340778155578591118
2748010 2 18047483231311299359
3071541 12 17548418098650324735
6333449 129 18410571769106815932
81228 2 18335148625810788523

>  <PUBCHEM_SHAPE_MULTIPOLES>  (1) 
228.9
5.26
3.03
0.69
8.06
0.01
-0.03
-0.61
-0.36
-4.1
-0.47
-0.18
-0.2
-0.11

>  <PUBCHEM_SHAPE_SELFOVERLAP>  (1) 
446.612

>  <PUBCHEM_SHAPE_VOLUME>  (1) 
136.5

>  <PUBCHEM_COORDINATE_TYPE>  (1) 
2
5
10

$$$$
