35253
     RDKit          3D

 16 17  0  0  0  0  0  0  0  0999 V2000
   -2.2956   -2.3701    0.1992 O   0  0  0  0  0  0  0  0  0  0  0  0
    0.5640    1.2945   -0.1008 N   0  0  0  0  0  0  0  0  0  0  0  0
   -1.7556    1.6387   -0.1055 N   0  0  0  0  0  0  0  0  0  0  0  0
   -0.8432   -0.5751    0.0517 N   0  0  0  0  0  0  0  0  0  0  0  0
   -3.2213   -0.2549    0.0490 N   0  0  0  0  0  0  0  0  0  0  0  0
    1.8420    0.6986   -0.0688 C   0  0  0  0  0  0  0  0  0  0  0  0
   -0.7385    0.7614   -0.0493 C   0  0  0  0  0  0  0  0  0  0  0  0
    2.9225    1.3937    0.4745 C   0  0  0  0  0  0  0  0  0  0  0  0
    2.0255   -0.5859   -0.5808 C   0  0  0  0  0  0  0  0  0  0  0  0
   -2.9659    1.0595   -0.0516 C   0  0  0  0  0  0  0  0  0  0  0  0
    4.1865    0.8044    0.5055 C   0  0  0  0  0  0  0  0  0  0  0  0
    3.2894   -1.1751   -0.5497 C   0  0  0  0  0  0  0  0  0  0  0  0
    4.3699   -0.4798   -0.0066 C   0  0  0  0  0  0  0  0  0  0  0  0
   -2.1125   -1.0109    0.0954 C   0  0  0  0  0  0  0  0  0  0  0  0
   -4.1462    1.9683   -0.1104 C   0  0  0  0  0  0  0  0  0  0  0  0
   -1.1211   -3.1672    0.2481 C   0  0  0  0  0  0  0  0  0  0  0  0
  1 14  1  0
  1 16  1  0
  2  6  1  0
  2  7  1  0
  3  7  2  0
  3 10  1  0
  4  7  1  0
  4 14  2  0
  5 10  2  0
  5 14  1  0
  6  8  2  0
  6  9  1  0
  8 11  1  0
  9 12  2  0
 10 15  1  0
 11 13  2  0
 12 13  1  0
M  END
>  <PUBCHEM_COMPOUND_CID>  (1) 
35253

>  <PUBCHEM_CONFORMER_RMSD>  (1) 
0.6

>  <PUBCHEM_CONFORMER_DIVERSEORDER>  (1) 
1
11
3
14
5
12
2
7
13
6
8
9
4
10

>  <PUBCHEM_MMFF94_PARTIAL_CHARGES>  (1) 
22
1 -0.36
10 0.48
11 -0.15
12 -0.15
13 -0.15
14 0.7
15 0.14
16 0.28
17 0.4
18 0.15
19 0.15
2 -0.6
20 0.15
21 0.15
22 0.15
3 -0.62
4 -0.62
5 -0.62
6 0.1
7 0.72
8 -0.15
9 -0.15

>  <PUBCHEM_EFFECTIVE_ROTOR_COUNT>  (1) 
3

>  <PUBCHEM_PHARMACOPHORE_FEATURES>  (1) 
4
1 2 donor
4 2 3 4 7 cation
6 3 4 5 7 10 14 rings
6 6 8 9 11 12 13 rings

>  <PUBCHEM_HEAVY_ATOM_COUNT>  (1) 
16

>  <PUBCHEM_ATOM_DEF_STEREO_COUNT>  (1) 
0

>  <PUBCHEM_ATOM_UDEF_STEREO_COUNT>  (1) 
0

>  <PUBCHEM_BOND_DEF_STEREO_COUNT>  (1) 
0

>  <PUBCHEM_BOND_UDEF_STEREO_COUNT>  (1) 
0

>  <PUBCHEM_ISOTOPIC_ATOM_COUNT>  (1) 
0

>  <PUBCHEM_COMPONENT_COUNT>  (1) 
1

>  <PUBCHEM_CACTVS_TAUTO_COUNT>  (1) 
4

>  <PUBCHEM_CONFORMER_ID>  (1) 
000089B500000001

>  <PUBCHEM_MMFF94_ENERGY>  (1) 
54.1501

>  <PUBCHEM_FEATURE_SELFOVERLAP>  (1) 
20.297

>  <PUBCHEM_SHAPE_FINGERPRINT>  (1) 
10366900 7 17703787020544815704
10608611 8 18341890822670309768
10616163 171 18266744756489111254
11322862 65 18408323272291871039
12500047 106 18411133641012798892
12553582 1 17616826864615378503
13296908 3 18411702110231154756
13380535 76 18342738481430961607
13544592 145 18270127786121401646
13760787 19 18260270746404598812
14115302 16 18335714805890898620
14178342 30 18262788679250170738
15042514 8 18263369260461567219
15196674 1 18411699872183954390
15219456 202 18343864424619844780
15375358 24 18272086080707390132
15885798 251 17974298913049910443
17804303 29 18411987948805188332
17834074 16 18411702097346259386
18186145 218 18338796697864781029
19107657 46 18411419540117138862
200 152 17275096215450528469
20279233 1 18343586230924230412
20361792 2 16515681178092583788
20510252 161 18343304756179888513
20528008 55 18343016675189931388
20645477 56 18408885135555476993
20645477 70 17703508783925713940
21065198 57 18412261748939117616
21501502 16 18191029095581233148
21665056 4 18335137587998344131
221490 88 18339931532105049730
23402539 116 18342167895827379085
23559900 14 18342457002982092790
23598291 2 17531819063668874364
366044 4 18336546015333189473
4214541 1 18410855464718781576
495365 180 17488724723620997944
5104073 3 18411980273846259296
69090 78 18412259515260529701
7364860 26 18050284760842514683
81228 2 18117556451869393331
8809292 202 18411422812839961826
9709674 26 18343304786001988390

>  <PUBCHEM_SHAPE_MULTIPOLES>  (1) 
303.48
8.07
2.57
0.67
2.85
1.97
0.01
-2.24
-0.21
-2.14
-0.23
0.24
0.02
0.66

>  <PUBCHEM_SHAPE_SELFOVERLAP>  (1) 
642.119

>  <PUBCHEM_SHAPE_VOLUME>  (1) 
166.2

>  <PUBCHEM_COORDINATE_TYPE>  (1) 
2
5
10

$$$$
