35265
     RDKit          3D

 14 14  0  0  0  0  0  0  0  0999 V2000
   -2.7663   -1.5032   -1.4657 Cl  0  0  0  0  0  0  0  0  0  0  0  0
   -0.7599   -2.9580    0.0056 Cl  0  0  0  0  0  0  0  0  0  0  0  0
   -2.7739   -1.4906    1.4609 Cl  0  0  0  0  0  0  0  0  0  0  0  0
    2.8698    0.7845   -0.0004 S   0  0  0  0  0  0  0  0  0  0  0  0
    0.4329   -0.3028    0.0009 N   0  0  0  0  0  0  0  0  0  0  0  0
   -1.5869    0.9928   -0.0002 N   0  0  0  0  0  0  0  0  0  0  0  0
    0.5449    2.0941   -0.0006 N   0  0  0  0  0  0  0  0  0  0  0  0
   -1.4455    3.3337   -0.0013 N   0  0  0  0  0  0  0  0  0  0  0  0
   -0.9026   -0.1626    0.0007 C   0  0  0  0  0  0  0  0  0  0  0  0
    1.0912    0.8676    0.0001 C   0  0  0  0  0  0  0  0  0  0  0  0
    3.1573   -1.0081    0.0004 C   0  0  0  0  0  0  0  0  0  0  0  0
   -1.7073   -1.4174    0.0004 C   0  0  0  0  0  0  0  0  0  0  0  0
   -0.7978    2.0792   -0.0009 C   0  0  0  0  0  0  0  0  0  0  0  0
    4.6440   -1.3092    0.0000 C   0  0  0  0  0  0  0  0  0  0  0  0
  1 12  1  0
  2 12  1  0
  3 12  1  0
  4 10  1  0
  4 11  1  0
  5  9  2  0
  5 10  1  0
  6  9  1  0
  6 13  2  0
  7 10  2  0
  7 13  1  0
  8 13  1  0
  9 12  1  0
 11 14  1  0
M  END
>  <PUBCHEM_COMPOUND_CID>  (1) 
35265

>  <PUBCHEM_CONFORMER_RMSD>  (1) 
0.6

>  <PUBCHEM_CONFORMER_DIVERSEORDER>  (1) 
1
7
19
20
13
16
11
3
4
6
5
8
9
17
18
12
10
14
2
15

>  <PUBCHEM_MMFF94_PARTIAL_CHARGES>  (1) 
15
1 -0.29
10 0.72
11 0.23
12 1.01
13 0.72
2 -0.29
20 0.4
21 0.4
3 -0.29
4 -0.33
5 -0.62
6 -0.62
7 -0.62
8 -0.9
9 0.48

>  <PUBCHEM_EFFECTIVE_ROTOR_COUNT>  (1) 
3

>  <PUBCHEM_PHARMACOPHORE_FEATURES>  (1) 
4
1 14 hydrophobe
1 8 donor
4 6 7 8 13 cation
6 5 6 7 9 10 13 rings

>  <PUBCHEM_HEAVY_ATOM_COUNT>  (1) 
14

>  <PUBCHEM_ATOM_DEF_STEREO_COUNT>  (1) 
0

>  <PUBCHEM_ATOM_UDEF_STEREO_COUNT>  (1) 
0

>  <PUBCHEM_BOND_DEF_STEREO_COUNT>  (1) 
0

>  <PUBCHEM_BOND_UDEF_STEREO_COUNT>  (1) 
0

>  <PUBCHEM_ISOTOPIC_ATOM_COUNT>  (1) 
0

>  <PUBCHEM_COMPONENT_COUNT>  (1) 
1

>  <PUBCHEM_CACTVS_TAUTO_COUNT>  (1) 
4

>  <PUBCHEM_CONFORMER_ID>  (1) 
000089C100000001

>  <PUBCHEM_MMFF94_ENERGY>  (1) 
25.5134

>  <PUBCHEM_FEATURE_SELFOVERLAP>  (1) 
20.297

>  <PUBCHEM_SHAPE_FINGERPRINT>  (1) 
10610426 29 16413480528750947415
11357001 24 18335708191266508424
12553582 1 18267029534253344550
13380535 76 17977665312109608188
13583140 156 13973976384760020558
16752209 62 18337096878900636090
16945 1 17834114525965733477
193761 8 17906171746373135683
20645476 183 17536907414857166262
20645477 70 17039492056640071775
20711985 344 18336814312801558040
20711985 365 18409449172261705132
20871998 184 18341900640859715630
20871998 22 18265338493648335112
21501502 16 18412829088380906804
21524375 3 17905326230268525237
23402539 116 18271232838246407493
23526113 38 17899959810592622635
23552423 10 17403180790423644903
23559900 14 18341320146666705040
23598291 2 17625278767621668871
23598294 1 18335981952919954954
2748010 2 18337944701012755685
57426455 70 18264506111917693371
58051976 100 18188216382039685326
6338986 31 18198610228233500342
7364860 26 17546726418385604633
81228 2 18336253600489668409

>  <PUBCHEM_SHAPE_MULTIPOLES>  (1) 
277.65
5.67
3.36
0.95
6.17
1.73
0
-4.06
0
-1.11
0
-1
-0.43
0

>  <PUBCHEM_SHAPE_SELFOVERLAP>  (1) 
518.886

>  <PUBCHEM_SHAPE_VOLUME>  (1) 
174.7

>  <PUBCHEM_COORDINATE_TYPE>  (1) 
2
5
10

$$$$
