35260
     RDKit          3D

 16 16  0  0  0  0  0  0  0  0999 V2000
   -0.7342   -2.9331    1.5173 Cl  0  0  0  0  0  0  0  0  0  0  0  0
   -3.1132   -2.1558    0.0879 Cl  0  0  0  0  0  0  0  0  0  0  0  0
   -0.7498   -2.8646   -1.4085 Cl  0  0  0  0  0  0  0  0  0  0  0  0
   -2.2705    2.9879    0.2031 S   0  0  0  0  0  0  0  0  0  0  0  0
    2.3478    1.0430    0.1117 N   0  0  0  0  0  0  0  0  0  0  0  0
    0.5522   -0.4654    0.0945 N   0  0  0  0  0  0  0  0  0  0  0  0
    0.1665    1.9022    0.1531 N   0  0  0  0  0  0  0  0  0  0  0  0
   -1.6916    0.3839    0.1360 N   0  0  0  0  0  0  0  0  0  0  0  0
    3.3322   -0.0169    0.0786 C   0  0  0  0  0  0  0  0  0  0  0  0
    4.6619    0.5168    0.5949 C   0  0  0  0  0  0  0  0  0  0  0  0
    3.4614   -0.5470   -1.3435 C   0  0  0  0  0  0  0  0  0  0  0  0
    0.9820    0.8199    0.1202 C   0  0  0  0  0  0  0  0  0  0  0  0
   -0.7833   -0.6045    0.1043 C   0  0  0  0  0  0  0  0  0  0  0  0
   -1.1440    1.6098    0.1593 C   0  0  0  0  0  0  0  0  0  0  0  0
   -1.3115   -1.9983    0.0780 C   0  0  0  0  0  0  0  0  0  0  0  0
   -3.7059    2.3220   -0.6870 C   0  0  0  0  0  0  0  0  0  0  0  0
  1 15  1  0
  2 15  1  0
  3 15  1  0
  4 14  1  0
  4 16  1  0
  5  9  1  0
  5 12  1  0
  6 12  2  0
  6 13  1  0
  7 12  1  0
  7 14  2  0
  8 13  2  0
  8 14  1  0
  9 10  1  0
  9 11  1  0
 13 15  1  0
M  END
>  <PUBCHEM_COMPOUND_CID>  (1) 
35260

>  <PUBCHEM_CONFORMER_RMSD>  (1) 
0.6

>  <PUBCHEM_CONFORMER_DIVERSEORDER>  (1) 
1
46
52
26
56
50
49
19
15
54
30
21
17
45
48
16
34
31
2
32
33
43
25
4
27
39
42
28
47
18
41
14
38
37
11
40
55
6
9
35
22
7
36
10
53
5
44
13
51
8
23
3
29
24
20
12

>  <PUBCHEM_MMFF94_PARTIAL_CHARGES>  (1) 
15
1 -0.29
12 0.72
13 0.48
14 0.72
15 1.01
16 0.23
18 0.4
2 -0.29
3 -0.29
4 -0.33
5 -0.87
6 -0.62
7 -0.62
8 -0.62
9 0.37

>  <PUBCHEM_EFFECTIVE_ROTOR_COUNT>  (1) 
4

>  <PUBCHEM_PHARMACOPHORE_FEATURES>  (1) 
5
1 16 hydrophobe
1 5 donor
3 9 10 11 hydrophobe
4 5 6 7 12 cation
6 6 7 8 12 13 14 rings

>  <PUBCHEM_HEAVY_ATOM_COUNT>  (1) 
16

>  <PUBCHEM_ATOM_DEF_STEREO_COUNT>  (1) 
0

>  <PUBCHEM_ATOM_UDEF_STEREO_COUNT>  (1) 
0

>  <PUBCHEM_BOND_DEF_STEREO_COUNT>  (1) 
0

>  <PUBCHEM_BOND_UDEF_STEREO_COUNT>  (1) 
0

>  <PUBCHEM_ISOTOPIC_ATOM_COUNT>  (1) 
0

>  <PUBCHEM_COMPONENT_COUNT>  (1) 
1

>  <PUBCHEM_CACTVS_TAUTO_COUNT>  (1) 
4

>  <PUBCHEM_CONFORMER_ID>  (1) 
000089BC00000001

>  <PUBCHEM_MMFF94_ENERGY>  (1) 
30.6539

>  <PUBCHEM_FEATURE_SELFOVERLAP>  (1) 
25.371

>  <PUBCHEM_SHAPE_FINGERPRINT>  (1) 
11322862 65 18338521837174272476
11357001 24 18335704987194622874
116883 192 18268713977054923023
12500047 106 18341326713465939696
12532896 13 18336827485629713520
12553582 1 17908430499775939590
12788726 201 18263087771966412674
13052359 8 18334292050755701897
13380535 76 18267864978085042245
14115302 16 17460312385276459966
16752209 62 18335974341826514443
16945 1 18261967322167288288
19591789 44 18121504548773923579
20510252 161 18343022207023458536
20524608 308 18413672400592365908
20600515 1 17248610273032922705
20645476 183 17750536025811503270
20645477 56 18410857633851716192
20711985 344 18264757917080656754
20711985 365 18338234980598485700
20871998 184 18272093833065415150
20871999 31 18336274508785649708
21285901 2 18200890576879620271
21524375 3 18193272996770556893
2255824 54 17329990197325292881
23402539 116 18342728650593576141
23419403 2 14114659009086824791
23526113 38 17560515089136182720
23557571 272 18340774844602151116
23558518 356 18334581204728256042
23559900 14 18271528586122005612
23598291 2 17895206519078666324
257057 1 17838044167342902663
2748010 2 18270136607678350271
298252 57 18262235499946720225
3071541 12 17332810448412989561
3071541 236 18335419045510037384
3071541 37 17829612760284377061
3091708 16 8985513037446295761
352729 6 18339651048638530665
43471831 8 18047472223189073281
559249 180 18336542712835966626
58779409 54 18339630226858255701
633830 44 17914050889336903972
6992083 37 17841449320811436907
7364860 26 17476921251300589613
81228 2 18337394953683216552
81539 233 17899697856305627765
9709674 26 18272933813052516548

>  <PUBCHEM_SHAPE_MULTIPOLES>  (1) 
318.81
6.26
3.93
1.09
6.46
0.93
0.11
-2.73
0.52
-4.61
-0.14
0.19
0.83
0.59

>  <PUBCHEM_SHAPE_SELFOVERLAP>  (1) 
597.08

>  <PUBCHEM_SHAPE_VOLUME>  (1) 
201.1

>  <PUBCHEM_COORDINATE_TYPE>  (1) 
2
5
10

$$$$
