35264
     RDKit          3D

 17 17  0  0  0  0  0  0  0  0999 V2000
    3.2197   -1.5730   -1.0959 Cl  0  0  0  0  0  0  0  0  0  0  0  0
    4.0797    0.9064    0.0957 Cl  0  0  0  0  0  0  0  0  0  0  0  0
    3.0146   -1.1681    1.7954 Cl  0  0  0  0  0  0  0  0  0  0  0  0
   -0.3805    3.5186   -0.5859 S   0  0  0  0  0  0  0  0  0  0  0  0
   -1.8773   -1.2293   -0.0056 N   0  0  0  0  0  0  0  0  0  0  0  0
    0.4293   -0.8162    0.0915 N   0  0  0  0  0  0  0  0  0  0  0  0
   -1.1249    0.9757   -0.2710 N   0  0  0  0  0  0  0  0  0  0  0  0
    1.2292    1.4303   -0.1762 N   0  0  0  0  0  0  0  0  0  0  0  0
   -1.6369   -2.6497    0.2149 C   0  0  0  0  0  0  0  0  0  0  0  0
   -3.2564   -0.7807   -0.1495 C   0  0  0  0  0  0  0  0  0  0  0  0
   -0.8184   -0.3232   -0.0640 C   0  0  0  0  0  0  0  0  0  0  0  0
   -1.2350   -3.3194   -1.0851 C   0  0  0  0  0  0  0  0  0  0  0  0
   -3.7631   -0.2199    1.1654 C   0  0  0  0  0  0  0  0  0  0  0  0
    1.3964    0.1130    0.0240 C   0  0  0  0  0  0  0  0  0  0  0  0
   -0.0573    1.7888   -0.3152 C   0  0  0  0  0  0  0  0  0  0  0  0
    2.7983   -0.3667    0.1871 C   0  0  0  0  0  0  0  0  0  0  0  0
   -2.0173    3.7136    0.1746 C   0  0  0  0  0  0  0  0  0  0  0  0
  1 16  1  0
  2 16  1  0
  3 16  1  0
  4 15  1  0
  4 17  1  0
  5  9  1  0
  5 10  1  0
  5 11  1  0
  6 11  2  0
  6 14  1  0
  7 11  1  0
  7 15  2  0
  8 14  2  0
  8 15  1  0
  9 12  1  0
 10 13  1  0
 14 16  1  0
M  END
>  <PUBCHEM_COMPOUND_CID>  (1) 
35264

>  <PUBCHEM_CONFORMER_RMSD>  (1) 
0.6

>  <PUBCHEM_CONFORMER_DIVERSEORDER>  (1) 
1
80
85
75
71
72
64
63
10
18
69
87
39
68
6
30
51
66
81
55
48
31
46
88
57
45
47
60
74
42
65
78
67
84
52
56
43
27
73
83
82
17
61
44
40
15
62
50
7
38
19
76
28
20
70
12
37
77
11
23
54
59
16
5
41
13
14
86
49
29
58
34
8
22
79
3
25
26
32
35
4
36
9
21
2
24
33
53

>  <PUBCHEM_MMFF94_PARTIAL_CHARGES>  (1) 
15
1 -0.29
10 0.37
11 0.72
14 0.48
15 0.72
16 1.01
17 0.23
2 -0.29
3 -0.29
4 -0.33
5 -0.84
6 -0.62
7 -0.62
8 -0.62
9 0.37

>  <PUBCHEM_EFFECTIVE_ROTOR_COUNT>  (1) 
5

>  <PUBCHEM_PHARMACOPHORE_FEATURES>  (1) 
3
1 17 hydrophobe
4 5 6 7 11 cation
6 6 7 8 11 14 15 rings

>  <PUBCHEM_HEAVY_ATOM_COUNT>  (1) 
17

>  <PUBCHEM_ATOM_DEF_STEREO_COUNT>  (1) 
0

>  <PUBCHEM_ATOM_UDEF_STEREO_COUNT>  (1) 
0

>  <PUBCHEM_BOND_DEF_STEREO_COUNT>  (1) 
0

>  <PUBCHEM_BOND_UDEF_STEREO_COUNT>  (1) 
0

>  <PUBCHEM_ISOTOPIC_ATOM_COUNT>  (1) 
0

>  <PUBCHEM_COMPONENT_COUNT>  (1) 
1

>  <PUBCHEM_CACTVS_TAUTO_COUNT>  (1) 
1

>  <PUBCHEM_CONFORMER_ID>  (1) 
000089C000000001

>  <PUBCHEM_MMFF94_ENERGY>  (1) 
34.551

>  <PUBCHEM_FEATURE_SELFOVERLAP>  (1) 
15.223

>  <PUBCHEM_SHAPE_FINGERPRINT>  (1) 
10967382 1 18337955708923952773
116883 192 18412548682518347556
12507560 14 18340206392747748071
12553582 1 18337104674208204078
12716301 132 18122907521305637402
12788726 201 18407759222826685560
13140716 1 18192993944308141968
14022347 108 18262819409377514202
14178342 30 17909542092808914443
14252887 29 18339654424667253522
15375462 189 18041557052473898538
15490181 8 17543615449114122781
16752209 62 18265045838782211919
16945 1 18411411804548599382
193761 8 17617660960480966335
19591789 44 17690569584855493965
20510252 161 18342456989306335696
20600515 1 18200889472798555556
20645477 70 17401476543159158727
20671657 1 17977958100531498829
20871998 184 18339078177136251092
21501502 16 17905893934966637863
21524375 3 17395016448367719336
2334 1 17904763636691303335
23402539 116 18272362097092001575
23419403 2 16689852727663020027
23526114 1 17834678579525439436
23557571 272 18271535213056408252
23559900 14 17694782927290531694
23598291 2 18052263091740804143
23598294 1 18263078817012536584
2748010 2 18123188991771102999
3250762 1 17618514177298895431
34934 24 18336539538174321450
352729 6 18048590417808717556
4175511 71 18337124461301754913
458136 41 17403754245645980872
6992083 37 18269567181309865971
7364860 26 17762339519053119629
74978 22 18122627412292135071
7832392 63 18195531621519150219
81228 2 18335701611398047512
90316 7 18337090341812446034

>  <PUBCHEM_SHAPE_MULTIPOLES>  (1) 
339.39
5.94
4.22
1.1
2.63
2.31
0.28
-1.18
1.36
-3.18
-1.11
0.5
-0.52
-0.14

>  <PUBCHEM_SHAPE_SELFOVERLAP>  (1) 
636.588

>  <PUBCHEM_SHAPE_VOLUME>  (1) 
214.1

>  <PUBCHEM_COORDINATE_TYPE>  (1) 
2
5
10

$$$$
