35276
     RDKit          3D

 22 23  0  0  0  0  0  0  0  0999 V2000
   -4.5714   -0.2344   -2.0559 Cl  0  0  0  0  0  0  0  0  0  0  0  0
   -4.6488   -2.3711   -0.1232 Cl  0  0  0  0  0  0  0  0  0  0  0  0
   -5.2968    0.3094    0.7268 Cl  0  0  0  0  0  0  0  0  0  0  0  0
    5.8935   -0.1126   -1.0440 Cl  0  0  0  0  0  0  0  0  0  0  0  0
    0.4005   -2.2416    1.1684 S   0  0  0  0  0  0  0  0  0  0  0  0
   -0.6329    2.5192   -0.0089 N   0  0  0  0  0  0  0  0  0  0  0  0
   -2.3880    0.9724   -0.1731 N   0  0  0  0  0  0  0  0  0  0  0  0
   -0.2015    0.2786    0.5311 N   0  0  0  0  0  0  0  0  0  0  0  0
   -1.9771   -1.3277    0.3732 N   0  0  0  0  0  0  0  0  0  0  0  0
    0.7278    2.9235    0.2715 C   0  0  0  0  0  0  0  0  0  0  0  0
    1.6222    2.5487   -0.9031 C   0  0  0  0  0  0  0  0  0  0  0  0
    0.7612    4.4225    0.5381 C   0  0  0  0  0  0  0  0  0  0  0  0
   -1.0876    1.2184    0.1199 C   0  0  0  0  0  0  0  0  0  0  0  0
   -2.7573   -0.3101   -0.0251 C   0  0  0  0  0  0  0  0  0  0  0  0
   -0.7124   -0.9589    0.6334 C   0  0  0  0  0  0  0  0  0  0  0  0
    1.9607   -1.6371    0.5400 C   0  0  0  0  0  0  0  0  0  0  0  0
   -4.1782   -0.6377   -0.3351 C   0  0  0  0  0  0  0  0  0  0  0  0
    2.7517   -0.8091    1.3318 C   0  0  0  0  0  0  0  0  0  0  0  0
    2.3781   -1.9964   -0.7387 C   0  0  0  0  0  0  0  0  0  0  0  0
    3.9692   -0.3369    0.8414 C   0  0  0  0  0  0  0  0  0  0  0  0
    3.5956   -1.5245   -1.2292 C   0  0  0  0  0  0  0  0  0  0  0  0
    4.3913   -0.6947   -0.4391 C   0  0  0  0  0  0  0  0  0  0  0  0
  1 17  1  0
  2 17  1  0
  3 17  1  0
  4 22  1  0
  5 15  1  0
  5 16  1  0
  6 10  1  0
  6 13  1  0
  7 13  2  0
  7 14  1  0
  8 13  1  0
  8 15  2  0
  9 14  2  0
  9 15  1  0
 10 11  1  0
 10 12  1  0
 14 17  1  0
 16 18  2  0
 16 19  1  0
 18 20  1  0
 19 21  2  0
 20 22  2  0
 21 22  1  0
M  END
>  <PUBCHEM_COMPOUND_CID>  (1) 
35276

>  <PUBCHEM_CONFORMER_RMSD>  (1) 
0.8

>  <PUBCHEM_CONFORMER_DIVERSEORDER>  (1) 
1
27
18
51
20
50
34
58
2
13
44
21
15
39
57
47
38
46
40
14
37
7
31
45
24
52
29
56
16
19
28
48
9
54
8
33
5
49
6
32
42
26
53
17
4
35
23
25
10
55
3
22
12
41
36
30
43
11

>  <PUBCHEM_MMFF94_PARTIAL_CHARGES>  (1) 
25
1 -0.29
10 0.37
13 0.72
14 0.48
15 0.72
16 0.1
17 1.01
18 -0.15
19 -0.15
2 -0.29
20 -0.15
21 -0.15
22 0.18
24 0.4
3 -0.29
31 0.15
32 0.15
33 0.15
34 0.15
4 -0.18
5 -0.2
6 -0.87
7 -0.62
8 -0.62
9 -0.62

>  <PUBCHEM_EFFECTIVE_ROTOR_COUNT>  (1) 
5

>  <PUBCHEM_PHARMACOPHORE_FEATURES>  (1) 
5
1 6 donor
3 10 11 12 hydrophobe
4 6 7 8 13 cation
6 16 18 19 20 21 22 rings
6 7 8 9 13 14 15 rings

>  <PUBCHEM_HEAVY_ATOM_COUNT>  (1) 
22

>  <PUBCHEM_ATOM_DEF_STEREO_COUNT>  (1) 
0

>  <PUBCHEM_ATOM_UDEF_STEREO_COUNT>  (1) 
0

>  <PUBCHEM_BOND_DEF_STEREO_COUNT>  (1) 
0

>  <PUBCHEM_BOND_UDEF_STEREO_COUNT>  (1) 
0

>  <PUBCHEM_ISOTOPIC_ATOM_COUNT>  (1) 
0

>  <PUBCHEM_COMPONENT_COUNT>  (1) 
1

>  <PUBCHEM_CACTVS_TAUTO_COUNT>  (1) 
4

>  <PUBCHEM_CONFORMER_ID>  (1) 
000089CC00000001

>  <PUBCHEM_MMFF94_ENERGY>  (1) 
46.8848

>  <PUBCHEM_FEATURE_SELFOVERLAP>  (1) 
25.371

>  <PUBCHEM_SHAPE_FINGERPRINT>  (1) 
10498660 4 18264208007011832260
11646440 116 18336838541065541872
12166972 35 17531250535091336798
12403260 363 18118402848590914954
12553582 1 18337666426139998179
12788726 201 18263083219296057744
13149001 5 18188773979847080203
13402501 40 18339639044874825720
13899415 154 18336839636160902417
14347332 77 18123755249456562270
14787075 74 18259707817346077018
14790565 3 17547010728405721465
14931854 50 18261691354251723284
14955137 171 18267605558292865707
15475509 8 18057618559988274845
15927050 60 17693380353478191068
167882 2 18120658191072156820
17357779 13 18340758269610913524
17492 54 18114760325407776860
1813 80 18342737395147035921
18785283 64 18116723009165615777
20645477 70 18265329693334484237
20715895 44 16738023109543952861
20871999 31 18335983073373467366
20905425 154 17686358859406909214
21029758 11 18410013229989797040
212916 134 8069739655278961790
23352939 185 18271814501098232432
23402539 116 18410853231531239302
23557571 272 18199753548643519006
23558518 356 17613155165766936818
23559900 14 18340482395313988801
3298306 158 17904206176234269860
484989 97 17824840076344811018
532947 4 18195242445629719872
6443956 14 18411136965333817008
7164475 11 18120931699058509314
7364860 26 18267864071783918768

>  <PUBCHEM_SHAPE_MULTIPOLES>  (1) 
444.15
10.72
3.71
1.31
1.98
4.84
0.36
-4.93
3.51
-0.99
-0.54
0.02
-0.31
0

>  <PUBCHEM_SHAPE_SELFOVERLAP>  (1) 
875.094

>  <PUBCHEM_SHAPE_VOLUME>  (1) 
267.2

>  <PUBCHEM_COORDINATE_TYPE>  (1) 
2
5
10

$$$$
