35277
     RDKit          3D

 21 22  0  0  0  0  0  0  0  0999 V2000
    2.1345    0.0630    2.7069 Cl  0  0  0  0  0  0  0  0  0  0  0  0
   -1.9106   -2.8313   -1.6035 Cl  0  0  0  0  0  0  0  0  0  0  0  0
    0.0812   -2.8375    0.4797 Cl  0  0  0  0  0  0  0  0  0  0  0  0
   -2.7085   -2.9448    1.2101 Cl  0  0  0  0  0  0  0  0  0  0  0  0
    5.3680   -1.1680   -1.3944 Cl  0  0  0  0  0  0  0  0  0  0  0  0
    0.6328    2.3339    0.8452 S   0  0  0  0  0  0  0  0  0  0  0  0
   -0.5792   -0.0033    0.4104 N   0  0  0  0  0  0  0  0  0  0  0  0
   -2.8812   -0.1917   -0.2398 N   0  0  0  0  0  0  0  0  0  0  0  0
   -1.9099    1.9724    0.1216 N   0  0  0  0  0  0  0  0  0  0  0  0
   -4.1566    1.7571   -0.5140 N   0  0  0  0  0  0  0  0  0  0  0  0
    1.9821    1.3079    0.2647 C   0  0  0  0  0  0  0  0  0  0  0  0
   -0.7733    1.3233    0.4115 C   0  0  0  0  0  0  0  0  0  0  0  0
   -1.6780   -0.6982    0.0747 C   0  0  0  0  0  0  0  0  0  0  0  0
   -2.9226    1.1496   -0.1955 C   0  0  0  0  0  0  0  0  0  0  0  0
    2.6054    0.3522    1.0673 C   0  0  0  0  0  0  0  0  0  0  0  0
    2.4054    1.4974   -1.0508 C   0  0  0  0  0  0  0  0  0  0  0  0
   -1.5487   -2.1830    0.0480 C   0  0  0  0  0  0  0  0  0  0  0  0
    3.6520   -0.4138    0.5542 C   0  0  0  0  0  0  0  0  0  0  0  0
    3.4521    0.7314   -1.5637 C   0  0  0  0  0  0  0  0  0  0  0  0
    4.0754   -0.2242   -0.7613 C   0  0  0  0  0  0  0  0  0  0  0  0
   -5.3203    1.0076   -0.8712 C   0  0  0  0  0  0  0  0  0  0  0  0
  1 15  1  0
  2 17  1  0
  3 17  1  0
  4 17  1  0
  5 20  1  0
  6 11  1  0
  6 12  1  0
  7 12  2  0
  7 13  1  0
  8 13  2  0
  8 14  1  0
  9 12  1  0
  9 14  2  0
 10 14  1  0
 10 21  1  0
 11 15  2  0
 11 16  1  0
 13 17  1  0
 15 18  1  0
 16 19  2  0
 18 20  2  0
 19 20  1  0
M  END
>  <PUBCHEM_COMPOUND_CID>  (1) 
35277

>  <PUBCHEM_CONFORMER_RMSD>  (1) 
0.6

>  <PUBCHEM_CONFORMER_DIVERSEORDER>  (1) 
1
17
65
72
74
80
69
87
28
57
102
55
89
60
106
83
110
93
94
85
66
29
92
76
24
41
2
70
108
90
5
12
45
71
86
88
39
100
67
82
111
95
64
97
10
81
13
8
84
44
107
103
63
21
26
68
61
42
7
73
31
3
79
35
30
49
56
43
47
51
22
62
23
40
77
54
4
52
6
109
53
34
19
59
11
32
78
14
18
20
105
75
46
48
96
38
104
9
101
99
16
50
33
15
25
98
37
91
27
36
58

>  <PUBCHEM_MMFF94_PARTIAL_CHARGES>  (1) 
25
1 -0.18
10 -0.87
11 0.1
12 0.72
13 0.48
14 0.72
15 0.18
16 -0.15
17 1.01
18 -0.15
19 -0.15
2 -0.29
20 0.18
21 0.37
22 0.15
23 0.4
24 0.15
25 0.15
3 -0.29
4 -0.29
5 -0.18
6 -0.2
7 -0.62
8 -0.62
9 -0.62

>  <PUBCHEM_EFFECTIVE_ROTOR_COUNT>  (1) 
4

>  <PUBCHEM_PHARMACOPHORE_FEATURES>  (1) 
4
1 10 donor
4 8 9 10 14 cation
6 11 15 16 18 19 20 rings
6 7 8 9 12 13 14 rings

>  <PUBCHEM_HEAVY_ATOM_COUNT>  (1) 
21

>  <PUBCHEM_ATOM_DEF_STEREO_COUNT>  (1) 
0

>  <PUBCHEM_ATOM_UDEF_STEREO_COUNT>  (1) 
0

>  <PUBCHEM_BOND_DEF_STEREO_COUNT>  (1) 
0

>  <PUBCHEM_BOND_UDEF_STEREO_COUNT>  (1) 
0

>  <PUBCHEM_ISOTOPIC_ATOM_COUNT>  (1) 
0

>  <PUBCHEM_COMPONENT_COUNT>  (1) 
1

>  <PUBCHEM_CACTVS_TAUTO_COUNT>  (1) 
4

>  <PUBCHEM_CONFORMER_ID>  (1) 
000089CD00000001

>  <PUBCHEM_MMFF94_ENERGY>  (1) 
48.9668

>  <PUBCHEM_FEATURE_SELFOVERLAP>  (1) 
20.297

>  <PUBCHEM_SHAPE_FINGERPRINT>  (1) 
10366900 7 17203614770227790372
107951 10 18113911433026348307
11578080 2 17201066256850951689
11582403 64 15830215809342842112
12202030 40 17488746829764799402
12363563 72 16773524287216401224
12553582 1 17689997155782929187
12555020 224 18341052917225824263
12592029 89 18262516992704335865
12633257 1 16485872339869483022
12788726 201 17897445223337060867
13544592 145 18059850653906521632
14115302 16 18408888429900842724
14251751 93 18187654625512438626
14341114 328 11239704301764660468
15163728 17 17170666680399366805
16752209 62 18337662139620432771
19591789 44 18338514257300988131
20465049 17 18187937152782491138
20600515 1 18270097081464155976
20645476 183 17894632547859264009
20871999 31 18336552728050393244
20905425 154 17769092337340026588
21069387 34 15985105227601292853
21344244 181 17775275085108885671
21524375 3 18337101277400496621
21634736 98 18188781664255573132
21781051 124 18335707152691914419
22713019 99 18060135401479487253
23526113 38 17774994713379464000
23557571 272 18198894997618776528
23558518 356 17608932319487963209
23559900 14 18272369789595083048
2637199 183 17894918403760710394
2748010 2 18124020497756145705
3298306 158 18337381644249232365
58051976 100 18186523219409952389
59755656 215 18338791231399834221
6138700 20 18198625432248897327
81228 2 17903899395526035177
9709674 26 18200586033311633292

>  <PUBCHEM_SHAPE_MULTIPOLES>  (1) 
425.44
8.94
3.24
1.71
1.09
1.93
-0.61
-0.38
4.06
-2.85
-0.01
1.35
0.38
0.88

>  <PUBCHEM_SHAPE_SELFOVERLAP>  (1) 
836.367

>  <PUBCHEM_SHAPE_VOLUME>  (1) 
257.2

>  <PUBCHEM_COORDINATE_TYPE>  (1) 
2
5
10

$$$$
