35284
     RDKit          3D

 15 16  0  0  0  0  0  0  0  0999 V2000
   -2.9847    2.2314    0.6357 O   0  0  0  0  0  0  0  0  0  0  0  0
   -1.3420   -1.1028   -0.4788 N   0  0  0  0  0  0  0  0  0  0  0  0
   -1.2697    1.2343   -0.4503 N   0  0  0  0  0  0  0  0  0  0  0  0
   -3.0896   -0.0280    0.6356 N   0  0  0  0  0  0  0  0  0  0  0  0
   -2.9937   -2.3888    0.5043 N   0  0  0  0  0  0  0  0  0  0  0  0
    0.5286    0.0719   -1.5929 C   0  0  0  0  0  0  0  0  0  0  0  0
    1.7142    0.0216   -0.6770 C   0  0  0  0  0  0  0  0  0  0  0  0
   -0.7517    0.0927   -0.8084 C   0  0  0  0  0  0  0  0  0  0  0  0
    2.2263   -1.2089   -0.2784 C   0  0  0  0  0  0  0  0  0  0  0  0
    2.2939    1.2058   -0.2328 C   0  0  0  0  0  0  0  0  0  0  0  0
   -2.5114   -1.1354    0.2439 C   0  0  0  0  0  0  0  0  0  0  0  0
    3.3296   -1.2558    0.5738 C   0  0  0  0  0  0  0  0  0  0  0  0
    3.3974    1.1587    0.6191 C   0  0  0  0  0  0  0  0  0  0  0  0
    3.9152   -0.0721    1.0224 C   0  0  0  0  0  0  0  0  0  0  0  0
   -2.4624    1.1755    0.2838 C   0  0  0  0  0  0  0  0  0  0  0  0
  1 15  2  0
  2  8  1  0
  2 11  1  0
  3  8  2  0
  3 15  1  0
  4 11  2  0
  4 15  1  0
  5 11  1  0
  6  7  1  0
  6  8  1  0
  7  9  2  0
  7 10  1  0
  9 12  1  0
 10 13  2  0
 12 14  2  0
 13 14  1  0
M  END
>  <PUBCHEM_COMPOUND_CID>  (1) 
35284

>  <PUBCHEM_CONFORMER_RMSD>  (1) 
0.6

>  <PUBCHEM_CONFORMER_DIVERSEORDER>  (1) 
1
5
3
7
6
4
8
2

>  <PUBCHEM_MMFF94_PARTIAL_CHARGES>  (1) 
23
1 -0.57
10 -0.15
11 0.55
12 -0.15
13 -0.15
14 -0.15
15 0.99
18 0.15
19 0.15
2 -0.5
20 0.4
21 0.15
22 0.15
23 0.15
24 0.4
25 0.4
3 -0.66
4 -0.66
5 -0.85
6 0.2
7 -0.14
8 0.44
9 -0.15

>  <PUBCHEM_EFFECTIVE_ROTOR_COUNT>  (1) 
2

>  <PUBCHEM_PHARMACOPHORE_FEATURES>  (1) 
7
1 1 acceptor
1 2 donor
1 3 donor
1 4 donor
1 5 donor
6 2 3 4 8 11 15 rings
6 7 9 10 12 13 14 rings

>  <PUBCHEM_HEAVY_ATOM_COUNT>  (1) 
15

>  <PUBCHEM_ATOM_DEF_STEREO_COUNT>  (1) 
0

>  <PUBCHEM_ATOM_UDEF_STEREO_COUNT>  (1) 
0

>  <PUBCHEM_BOND_DEF_STEREO_COUNT>  (1) 
0

>  <PUBCHEM_BOND_UDEF_STEREO_COUNT>  (1) 
0

>  <PUBCHEM_ISOTOPIC_ATOM_COUNT>  (1) 
0

>  <PUBCHEM_COMPONENT_COUNT>  (1) 
1

>  <PUBCHEM_CACTVS_TAUTO_COUNT>  (1) 
9

>  <PUBCHEM_CONFORMER_ID>  (1) 
000089D400000001

>  <PUBCHEM_MMFF94_ENERGY>  (1) 
43.0881

>  <PUBCHEM_FEATURE_SELFOVERLAP>  (1) 
35.715

>  <PUBCHEM_SHAPE_FINGERPRINT>  (1) 
10366900 7 18270115850264861042
10498660 4 12751246861120067195
10799339 124 18413106134950572530
11127187 94 11963386336680099673
122479 349 17987798497371212217
12251169 10 18409730646985312148
12382932 28 18341612594598937720
12500047 106 18189894223287080229
12507560 40 18130787841611826366
12633257 1 18263917753090307512
12696612 119 18410574011375221700
12707595 3 14634873058792112356
13693222 15 18337391637984138627
13705890 14 12035451619221131842
13764800 53 17632867412166715225
14178342 30 18334011670663530738
14289901 80 18409450331802687544
17804303 29 18193567674714268510
18186145 218 14620802617287294700
200 152 18269537481547821455
20281475 54 18040714736837049118
20361792 2 15936411139067518902
20645476 183 9943266800148757413
20645477 70 14996284751161035330
20653085 51 10807667704520194535
20871999 31 8790881874411633841
21065199 12 18341610417229828026
22169311 14 18340485556631107282
22445834 79 18186801340054277498
23402539 116 18341602708291098021
23532345 11 18407760339317702795
23559900 14 18270982166479686500
25 1 12750974259751082812
3086196 2 18337669814779523747
5374978 207 18412267272140310379
59027123 10 10303815419155508570
6049 1 17630913575629887006
7097593 13 18335135333108521138
90316 7 18041282067209005677
9882013 296 17845937462608565087

>  <PUBCHEM_SHAPE_MULTIPOLES>  (1) 
282.9
6.89
1.93
1.08
1.23
0.14
0.23
0.25
-2.81
-1.41
-0.41
0.27
-0.04
-0.06

>  <PUBCHEM_SHAPE_SELFOVERLAP>  (1) 
605.834

>  <PUBCHEM_SHAPE_VOLUME>  (1) 
153.6

>  <PUBCHEM_COORDINATE_TYPE>  (1) 
2
5
10

$$$$
