35296
     RDKit          3D

 16 17  0  0  0  0  0  0  0  0999 V2000
   -2.7014   -2.7658   -0.7067 Br  0  0  0  0  0  0  0  0  0  0  0  0
    4.4835   -1.8718    0.2932 Cl  0  0  0  0  0  0  0  0  0  0  0  0
    2.6678    2.9157   -0.6276 Cl  0  0  0  0  0  0  0  0  0  0  0  0
   -0.3656   -0.8855    0.2865 N   0  0  0  0  0  0  0  0  0  0  0  0
    1.1020    0.8921   -0.1432 N   0  0  0  0  0  0  0  0  0  0  0  0
    1.9395   -1.3160    0.2814 N   0  0  0  0  0  0  0  0  0  0  0  0
    3.4664    0.4829   -0.1550 N   0  0  0  0  0  0  0  0  0  0  0  0
   -1.6236   -0.2470    0.2045 C   0  0  0  0  0  0  0  0  0  0  0  0
   -2.7625   -0.9324   -0.2187 C   0  0  0  0  0  0  0  0  0  0  0  0
   -1.7104    1.1005    0.5544 C   0  0  0  0  0  0  0  0  0  0  0  0
    0.9514   -0.4153    0.1348 C   0  0  0  0  0  0  0  0  0  0  0  0
   -3.9880   -0.2701   -0.2918 C   0  0  0  0  0  0  0  0  0  0  0  0
   -2.9359    1.7626    0.4811 C   0  0  0  0  0  0  0  0  0  0  0  0
   -4.0747    1.0774    0.0579 C   0  0  0  0  0  0  0  0  0  0  0  0
    3.1675   -0.7963    0.1232 C   0  0  0  0  0  0  0  0  0  0  0  0
    2.3842    1.2689   -0.2739 C   0  0  0  0  0  0  0  0  0  0  0  0
  1  9  1  0
  2 15  1  0
  3 16  1  0
  4  8  1  0
  4 11  1  0
  5 11  2  0
  5 16  1  0
  6 11  1  0
  6 15  2  0
  7 15  1  0
  7 16  2  0
  8  9  2  0
  8 10  1  0
  9 12  1  0
 10 13  2  0
 12 14  2  0
 13 14  1  0
M  END
>  <PUBCHEM_COMPOUND_CID>  (1) 
35296

>  <PUBCHEM_CONFORMER_RMSD>  (1) 
0.6

>  <PUBCHEM_CONFORMER_DIVERSEORDER>  (1) 
1
6
2
7
3
8
4
5

>  <PUBCHEM_MMFF94_PARTIAL_CHARGES>  (1) 
21
1 -0.11
10 -0.15
11 0.72
12 -0.15
13 -0.15
14 -0.15
15 0.8
16 0.8
17 0.4
18 0.15
19 0.15
2 -0.18
20 0.15
21 0.15
3 -0.18
4 -0.6
5 -0.62
6 -0.62
7 -0.62
8 0.1
9 0.11

>  <PUBCHEM_EFFECTIVE_ROTOR_COUNT>  (1) 
2

>  <PUBCHEM_PHARMACOPHORE_FEATURES>  (1) 
5
1 1 hydrophobe
1 4 donor
4 4 5 6 11 cation
6 5 6 7 11 15 16 rings
6 8 9 10 12 13 14 rings

>  <PUBCHEM_HEAVY_ATOM_COUNT>  (1) 
16

>  <PUBCHEM_ATOM_DEF_STEREO_COUNT>  (1) 
0

>  <PUBCHEM_ATOM_UDEF_STEREO_COUNT>  (1) 
0

>  <PUBCHEM_BOND_DEF_STEREO_COUNT>  (1) 
0

>  <PUBCHEM_BOND_UDEF_STEREO_COUNT>  (1) 
0

>  <PUBCHEM_ISOTOPIC_ATOM_COUNT>  (1) 
0

>  <PUBCHEM_COMPONENT_COUNT>  (1) 
1

>  <PUBCHEM_CACTVS_TAUTO_COUNT>  (1) 
3

>  <PUBCHEM_CONFORMER_ID>  (1) 
000089E000000001

>  <PUBCHEM_MMFF94_ENERGY>  (1) 
45.619

>  <PUBCHEM_FEATURE_SELFOVERLAP>  (1) 
25.371

>  <PUBCHEM_SHAPE_FINGERPRINT>  (1) 
10062212 137 18341325630664773731
10608611 8 18335420200861676937
10616163 171 18270684280549579623
11471102 20 18334012774738904204
12162725 195 18411983554911115673
12173636 292 18343860001130668709
12916754 54 18335422383089769475
14115302 16 18202563956040531433
14144814 61 18410294683565355489
14250199 8 18334861644533075533
14289901 80 18267021832960108731
14965852 173 18412542119671448131
15196674 1 18410293601249661377
15442244 35 18410292480458142048
15536298 74 18412825793924550544
15669948 3 18201153360258729119
17492 89 18338236075916087434
17802600 8 18335135354288192197
18186145 218 17530678818629330363
19422 9 18411981394511001847
200 152 18272363162022234207
20279233 1 15698277802537827687
20645476 183 18338228263966083867
20671657 1 18335989735195155028
21267235 1 18410864234984107715
21501502 16 18339081591629814148
21618674 54 18266175213285792645
21634736 98 18410576227456838614
221490 88 18263370333649243322
2255824 54 18260268555792137698
23402539 116 18059000693238240381
23402655 69 18409168809417942556
23557571 272 17418099793075826032
23558518 356 18042973257752527890
23559900 14 18272644654321226122
23598291 2 18408879659287435214
3082319 5 18411702131421193621
312423 11 18336838579451364647
4214541 1 18411698768535770767
474 4 17823420572694834764
5104073 3 18411419518230684195
53777708 50 18339646753560120555
57096353 35 18195527223393537869
58051976 100 18410013238680192551
633830 44 17313105258638430384
67856867 119 18338789147823990632
69090 78 18411697656561143299
7364860 26 18411701019563000472
74978 22 18409732867356719086
7832392 63 18410011000986120992
84936 182 18197781205320362192
93112 12 18411419522562625839
9709674 26 18337114569755117722
9971528 1 18410007698799660248
9981440 41 17759238892427228272

>  <PUBCHEM_SHAPE_MULTIPOLES>  (1) 
319.03
8.54
2.84
0.75
1.72
0.07
-0.05
-1.05
-0.23
0.6
-0.52
-0.07
0.01
-1.39

>  <PUBCHEM_SHAPE_SELFOVERLAP>  (1) 
649.041

>  <PUBCHEM_SHAPE_VOLUME>  (1) 
191.4

>  <PUBCHEM_COORDINATE_TYPE>  (1) 
2
5
10

$$$$
