35295
     RDKit          3D

 16 17  0  0  0  0  0  0  0  0999 V2000
    3.8630    2.6512    0.0063 Cl  0  0  0  0  0  0  0  0  0  0  0  0
    4.3085   -2.5321    0.0315 Cl  0  0  0  0  0  0  0  0  0  0  0  0
   -0.1079   -0.3013   -0.0383 N   0  0  0  0  0  0  0  0  0  0  0  0
    2.0020   -1.3240   -0.0050 N   0  0  0  0  0  0  0  0  0  0  0  0
    1.7965    1.0668   -0.0164 N   0  0  0  0  0  0  0  0  0  0  0  0
    3.9695    0.0495    0.0178 N   0  0  0  0  0  0  0  0  0  0  0  0
   -1.0089    0.8307   -0.0550 C   0  0  0  0  0  0  0  0  0  0  0  0
   -2.4308    0.3818   -0.0210 C   0  0  0  0  0  0  0  0  0  0  0  0
   -3.1141    0.1387   -1.2127 C   0  0  0  0  0  0  0  0  0  0  0  0
   -3.0772    0.2043    1.2022 C   0  0  0  0  0  0  0  0  0  0  0  0
    1.2710   -0.1826   -0.0194 C   0  0  0  0  0  0  0  0  0  0  0  0
   -4.4438   -0.2813   -1.1810 C   0  0  0  0  0  0  0  0  0  0  0  0
   -4.4070   -0.2158    1.2338 C   0  0  0  0  0  0  0  0  0  0  0  0
   -5.0903   -0.4586    0.0421 C   0  0  0  0  0  0  0  0  0  0  0  0
    3.1386    1.1043    0.0021 C   0  0  0  0  0  0  0  0  0  0  0  0
    3.3309   -1.1317    0.0129 C   0  0  0  0  0  0  0  0  0  0  0  0
  1 15  1  0
  2 16  1  0
  3  7  1  0
  3 11  1  0
  4 11  2  0
  4 16  1  0
  5 11  1  0
  5 15  2  0
  6 15  1  0
  6 16  2  0
  7  8  1  0
  8  9  2  0
  8 10  1  0
  9 12  1  0
 10 13  2  0
 12 14  2  0
 13 14  1  0
M  END
>  <PUBCHEM_COMPOUND_CID>  (1) 
35295

>  <PUBCHEM_CONFORMER_RMSD>  (1) 
0.6

>  <PUBCHEM_CONFORMER_DIVERSEORDER>  (1) 
1
13
5
8
6
10
7
12
2
3
4
11
9

>  <PUBCHEM_MMFF94_PARTIAL_CHARGES>  (1) 
22
1 -0.18
10 -0.15
11 0.72
12 -0.15
13 -0.15
14 -0.15
15 0.8
16 0.8
19 0.4
2 -0.18
20 0.15
21 0.15
22 0.15
23 0.15
24 0.15
3 -0.87
4 -0.62
5 -0.62
6 -0.62
7 0.51
8 -0.14
9 -0.15

>  <PUBCHEM_EFFECTIVE_ROTOR_COUNT>  (1) 
3

>  <PUBCHEM_PHARMACOPHORE_FEATURES>  (1) 
4
1 3 donor
4 3 4 5 11 cation
6 4 5 6 11 15 16 rings
6 8 9 10 12 13 14 rings

>  <PUBCHEM_HEAVY_ATOM_COUNT>  (1) 
16

>  <PUBCHEM_ATOM_DEF_STEREO_COUNT>  (1) 
0

>  <PUBCHEM_ATOM_UDEF_STEREO_COUNT>  (1) 
0

>  <PUBCHEM_BOND_DEF_STEREO_COUNT>  (1) 
0

>  <PUBCHEM_BOND_UDEF_STEREO_COUNT>  (1) 
0

>  <PUBCHEM_ISOTOPIC_ATOM_COUNT>  (1) 
0

>  <PUBCHEM_COMPONENT_COUNT>  (1) 
1

>  <PUBCHEM_CACTVS_TAUTO_COUNT>  (1) 
3

>  <PUBCHEM_CONFORMER_ID>  (1) 
000089DF00000001

>  <PUBCHEM_MMFF94_ENERGY>  (1) 
37.9862

>  <PUBCHEM_FEATURE_SELFOVERLAP>  (1) 
20.297

>  <PUBCHEM_SHAPE_FINGERPRINT>  (1) 
10912923 1 17846782927273944307
11405975 8 18264205816457581945
11471102 20 18409448094383247276
11615757 297 18273215300518626417
12107183 9 17767979631593875185
12236239 1 17704074001289589968
12616971 3 18130788945349862655
12916754 54 18411417289511876325
13167823 11 18272651242590353719
13533116 47 18343020004079658379
13631057 29 17768240572422049439
13760787 5 18272087201825801157
13955234 65 18411697712559190560
14252887 29 18113902675598132936
14386348 63 17749111101702115033
15375358 24 17676765461324391945
15375462 189 17988925582651917153
15961568 22 16298955376174826092
17834072 33 18201437025610433021
17844677 252 18409733932851844349
17870717 6 16805611326554883811
1813 80 18057616360970424446
18186145 218 17603305921141346113
19026448 4 17822007610116448805
19026448 5 17918276450197991241
19050596 39 17632577132654734139
19422 9 17989488511177786087
200 152 18342171151143518171
20279233 1 17531247266346540985
20281475 54 18131062749451763631
20369508 70 18114738240548888218
204376 136 18336547243108156724
20645477 70 18335134276393780246
21065198 48 18202570570617286313
21065201 7 16515681126457984961
221490 88 18335420111047061564
22646028 1 18059852848729683775
23532345 1 18336827593162521776
23557571 272 17167857556501328029
23559900 14 17240201006398282690
23596394 208 17749665195116850634
312423 11 18341907246493289896
3268164 11 15936399062200010591
474 4 18197212770614556448
5104073 3 18409167671304552193
5281201 14 18186802452535158068
573450 72 17203326685280391923
77779 3 18411419505688737645
90127 26 18113617867921901437

>  <PUBCHEM_SHAPE_MULTIPOLES>  (1) 
313.09
11.62
1.96
0.98
4.35
0.11
-0.01
-1.81
-0.13
-4.63
-0.01
1.43
-0.01
-0.05

>  <PUBCHEM_SHAPE_SELFOVERLAP>  (1) 
645.281

>  <PUBCHEM_SHAPE_VOLUME>  (1) 
175.3

>  <PUBCHEM_COORDINATE_TYPE>  (1) 
2
5
10

$$$$
