35294
     RDKit          3D

 12 12  0  0  0  0  0  0  0  0999 V2000
   -2.1217    2.8443    0.0654 Cl  0  0  0  0  0  0  0  0  0  0  0  0
   -3.2096   -2.2429    0.1057 Cl  0  0  0  0  0  0  0  0  0  0  0  0
    1.4427   -0.5799   -0.1704 N   0  0  0  0  0  0  0  0  0  0  0  0
   -0.7745   -1.3316   -0.0388 N   0  0  0  0  0  0  0  0  0  0  0  0
   -0.2727    1.0147   -0.0574 N   0  0  0  0  0  0  0  0  0  0  0  0
   -2.5518    0.2763    0.0781 N   0  0  0  0  0  0  0  0  0  0  0  0
    2.4757    0.4240   -0.2284 C   0  0  0  0  0  0  0  0  0  0  0  0
    0.0891   -0.2898   -0.0861 C   0  0  0  0  0  0  0  0  0  0  0  0
    3.8045   -0.2551   -0.3178 C   0  0  0  0  0  0  0  0  0  0  0  0
   -1.5973    1.2193    0.0247 C   0  0  0  0  0  0  0  0  0  0  0  0
   -2.0666   -0.9752    0.0422 C   0  0  0  0  0  0  0  0  0  0  0  0
    4.7824   -0.1042    0.5827 C   0  0  0  0  0  0  0  0  0  0  0  0
  1 10  1  0
  2 11  1  0
  3  7  1  0
  3  8  1  0
  4  8  2  0
  4 11  1  0
  5  8  1  0
  5 10  2  0
  6 10  1  0
  6 11  2  0
  7  9  1  0
  9 12  2  0
M  END
>  <PUBCHEM_COMPOUND_CID>  (1) 
35294

>  <PUBCHEM_CONFORMER_RMSD>  (1) 
0.6

>  <PUBCHEM_CONFORMER_DIVERSEORDER>  (1) 
1
6
2
5
3
4

>  <PUBCHEM_MMFF94_PARTIAL_CHARGES>  (1) 
16
1 -0.18
10 0.8
11 0.8
12 -0.3
15 0.4
16 0.15
17 0.15
18 0.15
2 -0.18
3 -0.87
4 -0.62
5 -0.62
6 -0.62
7 0.51
8 0.72
9 -0.29

>  <PUBCHEM_EFFECTIVE_ROTOR_COUNT>  (1) 
3

>  <PUBCHEM_PHARMACOPHORE_FEATURES>  (1) 
4
1 12 hydrophobe
1 3 donor
4 3 4 5 8 cation
6 4 5 6 8 10 11 rings

>  <PUBCHEM_HEAVY_ATOM_COUNT>  (1) 
12

>  <PUBCHEM_ATOM_DEF_STEREO_COUNT>  (1) 
0

>  <PUBCHEM_ATOM_UDEF_STEREO_COUNT>  (1) 
0

>  <PUBCHEM_BOND_DEF_STEREO_COUNT>  (1) 
0

>  <PUBCHEM_BOND_UDEF_STEREO_COUNT>  (1) 
0

>  <PUBCHEM_ISOTOPIC_ATOM_COUNT>  (1) 
0

>  <PUBCHEM_COMPONENT_COUNT>  (1) 
1

>  <PUBCHEM_CACTVS_TAUTO_COUNT>  (1) 
3

>  <PUBCHEM_CONFORMER_ID>  (1) 
000089DE00000001

>  <PUBCHEM_MMFF94_ENERGY>  (1) 
21.6851

>  <PUBCHEM_FEATURE_SELFOVERLAP>  (1) 
20.297

>  <PUBCHEM_SHAPE_FINGERPRINT>  (1) 
10608611 8 18343299245810641896
11357001 24 18334303062962074361
12032990 46 18265617769744617563
12932764 1 17489861653241239822
13024252 1 12540698111173299957
13380535 76 18196651804771845997
14325111 11 18411139096053645134
14897335 6 18193271901585473556
1741750 31 18198624319921108096
1986462 14 18410860936791882102
20510252 161 18343304773090368520
20645477 56 18339929194968081640
20871998 184 18201723967869814023
21061003 4 17132117978237357082
21426921 1 18410575076263217364
22943178 12 18059860519931645366
2306618 200 18201445752614902273
23380061 127 18409443687620175022
23402539 116 18342450482863405479
23557571 272 18129957701558532316
23559900 14 18127974110300790158
2748010 2 18196642119968876397
3086196 2 18410571812045705434
573450 72 18261099739448768834
6333449 129 18341330011373010645
68521 5 18410012156669855885

>  <PUBCHEM_SHAPE_MULTIPOLES>  (1) 
230.77
7.15
2.34
0.64
9.67
1.11
0.02
-1.62
0.78
-3.64
0.09
0.18
0
0.01

>  <PUBCHEM_SHAPE_SELFOVERLAP>  (1) 
448.066

>  <PUBCHEM_SHAPE_VOLUME>  (1) 
135.7

>  <PUBCHEM_COORDINATE_TYPE>  (1) 
2
5
10

$$$$
