35302
     RDKit          3D

 21 23  0  0  0  0  0  0  0  0999 V2000
   -0.0020    0.0035   -0.0022 N   0  0  0  0  0  0  0  0  0  0  0  0
    1.1959   -2.0691    0.1621 N   0  0  0  0  0  0  0  0  0  0  0  0
   -1.2036   -2.0671    0.1617 N   0  0  0  0  0  0  0  0  0  0  0  0
   -2.3708   -0.0124    0.0001 C   0  0  0  0  0  0  0  0  0  0  0  0
    2.3669   -0.0162    0.0010 C   0  0  0  0  0  0  0  0  0  0  0  0
   -1.1183   -0.7346    0.0562 C   0  0  0  0  0  0  0  0  0  0  0  0
    1.1194   -0.7327    0.0560 C   0  0  0  0  0  0  0  0  0  0  0  0
   -4.7865    1.3789   -0.1073 C   0  0  0  0  0  0  0  0  0  0  0  0
    4.7906    1.3758   -0.1075 C   0  0  0  0  0  0  0  0  0  0  0  0
   -2.4510    1.2856    0.5041 C   0  0  0  0  0  0  0  0  0  0  0  0
   -3.4985   -0.6149   -0.5576 C   0  0  0  0  0  0  0  0  0  0  0  0
    2.4552    1.2852    0.5052 C   0  0  0  0  0  0  0  0  0  0  0  0
    3.4998   -0.6163   -0.5578 C   0  0  0  0  0  0  0  0  0  0  0  0
   -3.6588    1.9813    0.4505 C   0  0  0  0  0  0  0  0  0  0  0  0
   -4.7064    0.0807   -0.6114 C   0  0  0  0  0  0  0  0  0  0  0  0
    3.6638    1.9794    0.4510 C   0  0  0  0  0  0  0  0  0  0  0  0
    4.7086    0.0778   -0.6120 C   0  0  0  0  0  0  0  0  0  0  0  0
   -0.0043   -2.6692    0.2094 C   0  0  0  0  0  0  0  0  0  0  0  0
   -6.0780    2.1225   -0.1651 C   0  0  0  0  0  0  0  0  0  0  0  0
    6.0831    2.1175   -0.1651 C   0  0  0  0  0  0  0  0  0  0  0  0
   -0.0054   -4.1555    0.3286 C   0  0  0  0  0  0  0  0  0  0  0  0
  1  6  2  0
  1  7  1  0
  2  7  2  0
  2 18  1  0
  3  6  1  0
  3 18  2  0
  4  6  1  0
  4 10  2  0
  4 11  1  0
  5  7  1  0
  5 12  2  0
  5 13  1  0
  8 14  2  0
  8 15  1  0
  8 19  1  0
  9 16  2  0
  9 17  1  0
  9 20  1  0
 10 14  1  0
 11 15  2  0
 12 16  1  0
 13 17  2  0
 18 21  1  0
M  END
>  <PUBCHEM_COMPOUND_CID>  (1) 
35302

>  <PUBCHEM_CONFORMER_RMSD>  (1) 
0.6

>  <PUBCHEM_CONFORMER_DIVERSEORDER>  (1) 
1
2

>  <PUBCHEM_MMFF94_PARTIAL_CHARGES>  (1) 
27
1 -0.62
10 -0.15
11 -0.15
12 -0.15
13 -0.15
14 -0.15
15 -0.15
16 -0.15
17 -0.15
18 0.48
19 0.14
2 -0.62
20 0.14
21 0.14
22 0.15
23 0.15
24 0.15
25 0.15
26 0.15
27 0.15
28 0.15
29 0.15
3 -0.62
6 0.62
7 0.62
8 -0.14
9 -0.14

>  <PUBCHEM_EFFECTIVE_ROTOR_COUNT>  (1) 
2

>  <PUBCHEM_PHARMACOPHORE_FEATURES>  (1) 
6
3 1 2 7 cation
3 1 3 6 cation
3 2 3 18 cation
6 1 2 3 6 7 18 rings
6 4 8 10 11 14 15 rings
6 5 9 12 13 16 17 rings

>  <PUBCHEM_HEAVY_ATOM_COUNT>  (1) 
21

>  <PUBCHEM_ATOM_DEF_STEREO_COUNT>  (1) 
0

>  <PUBCHEM_ATOM_UDEF_STEREO_COUNT>  (1) 
0

>  <PUBCHEM_BOND_DEF_STEREO_COUNT>  (1) 
0

>  <PUBCHEM_BOND_UDEF_STEREO_COUNT>  (1) 
0

>  <PUBCHEM_ISOTOPIC_ATOM_COUNT>  (1) 
0

>  <PUBCHEM_COMPONENT_COUNT>  (1) 
1

>  <PUBCHEM_CACTVS_TAUTO_COUNT>  (1) 
1

>  <PUBCHEM_CONFORMER_ID>  (1) 
000089E600000001

>  <PUBCHEM_MMFF94_ENERGY>  (1) 
60.8889

>  <PUBCHEM_FEATURE_SELFOVERLAP>  (1) 
33.23

>  <PUBCHEM_SHAPE_FINGERPRINT>  (1) 
10498660 4 18411698764330844577
12293681 160 17989208144060214465
12390115 104 18340784713851058153
12403259 118 17604159223753087181
12403259 327 15574726802011725705
12403259 415 18337686272719642683
12500047 106 18339361993492539186
12730499 353 18336837390204288419
12769317 202 18339912706715265333
12788726 201 17828474001103532858
13140716 1 18261391105039563955
138480 1 17762055436947357938
13878862 14 17757251710139158925
13955234 65 18118688708312601283
14528608 73 18341325630960101517
14767858 380 18269258214690599367
14790565 3 18409733949731396868
14848178 96 18411697668918940377
14931854 50 18131634447943116433
15183329 4 18271814488988653740
15196674 1 18411981360035127892
15927050 60 18410011061591495186
16087824 20 18195527224502593151
17539 30 17910669096517837382
19784866 34 18410009914591477635
204376 136 18407760335096607859
20554085 129 17987498395458715874
20602899 9 15482398654690657430
20645477 56 18337391655527985168
21033648 144 18113892750060483639
21033648 29 18339919419622620512
21049683 118 18191001547518286963
21279426 13 18342185449221691102
221357 26 17846498123286824305
22182313 1 18265640790532356494
2255824 54 18123748647928323899
22950370 63 9511460043578272306
23402539 116 18343014527605933508
23402655 69 18202844352927807084
23558518 356 17683523206012776632
23559900 14 18343026623367839070
23845131 108 18260268525801778763
283562 15 18192145108880172395
293599 30 18408887347552986980
314194 84 9294990384788081301
335352 9 18410858729611338686
350125 39 18262797338025448092
351380 3 10375874069397292612
3759504 43 18261674869233524787
394222 165 18262230015352877731
474 4 18337954493822702521
5104073 3 18186802461151479747
56616090 46 18410580604492776030
59682541 52 17489319533937402652
59755656 520 18334851745029201358
6327066 14 18335982042734843148
6328613 192 18262525909494948380
633830 44 18342452621408764551
67856867 119 18265322916118853451
7364860 26 18123469380300844871
77188 2 17400357845622346747
7808743 9 18263924509243117024
7970288 3 9799692592842031172
84936 182 18270678654041630035
8863177 126 11958856418063573421
9981440 41 18335419084402419307

>  <PUBCHEM_SHAPE_MULTIPOLES>  (1) 
417.23
12.61
3.4
0.73
0.06
3.39
0.02
-12.76
1.93
-0.01
-0.57
0
-0.04
0

>  <PUBCHEM_SHAPE_SELFOVERLAP>  (1) 
914.436

>  <PUBCHEM_SHAPE_VOLUME>  (1) 
222.4

>  <PUBCHEM_COORDINATE_TYPE>  (1) 
2
5
10

$$$$
