35305
     RDKit          3D

 26 28  0  0  0  0  0  0  0  0999 V2000
   -1.6231   -3.1573    1.2064 Br  0  0  0  0  0  0  0  0  0  0  0  0
   -0.0025   -3.3937   -1.6014 Br  0  0  0  0  0  0  0  0  0  0  0  0
    1.5600   -3.3539    1.1792 Br  0  0  0  0  0  0  0  0  0  0  0  0
   -7.9915   -0.2148    0.0256 Cl  0  0  0  0  0  0  0  0  0  0  0  0
    7.9981   -0.2116    0.0255 Cl  0  0  0  0  0  0  0  0  0  0  0  0
   -2.3420    1.5508   -0.1321 N   0  0  0  0  0  0  0  0  0  0  0  0
    2.3478    1.5520   -0.1279 N   0  0  0  0  0  0  0  0  0  0  0  0
    0.0030    1.5829   -0.1343 N   0  0  0  0  0  0  0  0  0  0  0  0
    1.2032   -0.4876    0.0396 N   0  0  0  0  0  0  0  0  0  0  0  0
   -1.1964   -0.4883    0.0375 N   0  0  0  0  0  0  0  0  0  0  0  0
   -3.6879    1.1309   -0.0951 C   0  0  0  0  0  0  0  0  0  0  0  0
    3.6909    1.1328   -0.0905 C   0  0  0  0  0  0  0  0  0  0  0  0
   -1.1220    0.8494   -0.0743 C   0  0  0  0  0  0  0  0  0  0  0  0
    1.1252    0.8482   -0.0721 C   0  0  0  0  0  0  0  0  0  0  0  0
    0.0036   -1.0889    0.0887 C   0  0  0  0  0  0  0  0  0  0  0  0
   -4.6655    1.9680    0.4423 C   0  0  0  0  0  0  0  0  0  0  0  0
   -4.0411   -0.1225   -0.5955 C   0  0  0  0  0  0  0  0  0  0  0  0
    4.6713    1.9689    0.4471 C   0  0  0  0  0  0  0  0  0  0  0  0
    4.0471   -0.1209   -0.5922 C   0  0  0  0  0  0  0  0  0  0  0  0
   -5.9964    1.5519    0.4796 C   0  0  0  0  0  0  0  0  0  0  0  0
   -5.3720   -0.5385   -0.5584 C   0  0  0  0  0  0  0  0  0  0  0  0
    6.0023    1.5535    0.4832 C   0  0  0  0  0  0  0  0  0  0  0  0
    5.3782   -0.5364   -0.5562 C   0  0  0  0  0  0  0  0  0  0  0  0
   -6.3498    0.2987   -0.0209 C   0  0  0  0  0  0  0  0  0  0  0  0
    6.3558    0.3007   -0.0184 C   0  0  0  0  0  0  0  0  0  0  0  0
    0.0039   -2.5744    0.2147 C   0  0  0  0  0  0  0  0  0  0  0  0
  1 26  1  0
  2 26  1  0
  3 26  1  0
  4 24  1  0
  5 25  1  0
  6 11  1  0
  6 13  1  0
  7 12  1  0
  7 14  1  0
  8 13  2  0
  8 14  1  0
  9 14  2  0
  9 15  1  0
 10 13  1  0
 10 15  2  0
 11 16  2  0
 11 17  1  0
 12 18  2  0
 12 19  1  0
 15 26  1  0
 16 20  1  0
 17 21  2  0
 18 22  1  0
 19 23  2  0
 20 24  2  0
 21 24  1  0
 22 25  2  0
 23 25  1  0
M  END
>  <PUBCHEM_COMPOUND_CID>  (1) 
35305

>  <PUBCHEM_CONFORMER_RMSD>  (1) 
0.8

>  <PUBCHEM_CONFORMER_DIVERSEORDER>  (1) 
1
22
2
19
26
9
11
3
18
6
7
21
5
14
17
24
15
12
25
13
20
10
4
23
8
16

>  <PUBCHEM_MMFF94_PARTIAL_CHARGES>  (1) 
36
1 -0.23
10 -0.62
11 0.1
12 0.1
13 0.72
14 0.72
15 0.48
16 -0.15
17 -0.15
18 -0.15
19 -0.15
2 -0.23
20 -0.15
21 -0.15
22 -0.15
23 -0.15
24 0.18
25 0.18
26 0.83
27 0.4
28 0.4
29 0.15
3 -0.23
30 0.15
31 0.15
32 0.15
33 0.15
34 0.15
35 0.15
36 0.15
4 -0.18
5 -0.18
6 -0.6
7 -0.6
8 -0.62
9 -0.62

>  <PUBCHEM_EFFECTIVE_ROTOR_COUNT>  (1) 
5

>  <PUBCHEM_PHARMACOPHORE_FEATURES>  (1) 
11
1 1 hydrophobe
1 2 hydrophobe
1 3 hydrophobe
1 6 donor
1 7 donor
4 1 2 3 26 hydrophobe
4 6 8 10 13 cation
4 7 8 9 14 cation
6 11 16 17 20 21 24 rings
6 12 18 19 22 23 25 rings
6 8 9 10 13 14 15 rings

>  <PUBCHEM_HEAVY_ATOM_COUNT>  (1) 
26

>  <PUBCHEM_ATOM_DEF_STEREO_COUNT>  (1) 
0

>  <PUBCHEM_ATOM_UDEF_STEREO_COUNT>  (1) 
0

>  <PUBCHEM_BOND_DEF_STEREO_COUNT>  (1) 
0

>  <PUBCHEM_BOND_UDEF_STEREO_COUNT>  (1) 
0

>  <PUBCHEM_ISOTOPIC_ATOM_COUNT>  (1) 
0

>  <PUBCHEM_COMPONENT_COUNT>  (1) 
1

>  <PUBCHEM_CACTVS_TAUTO_COUNT>  (1) 
5

>  <PUBCHEM_CONFORMER_ID>  (1) 
000089E900000001

>  <PUBCHEM_MMFF94_ENERGY>  (1) 
83.7943

>  <PUBCHEM_FEATURE_SELFOVERLAP>  (1) 
56.814

>  <PUBCHEM_SHAPE_FINGERPRINT>  (1) 
10050765 1 18048877399455689085
11135926 11 18409721855936376391
11421498 54 17346042156372919203
11991303 11 17530971340362854819
12236239 1 18060420201256997357
12977781 61 17630913631670983622
13631057 29 18201715207064834271
13692114 37 18270390702566193987
14251764 18 18411136944391548660
14790565 3 18410013251422792780
15131766 46 15576708238651289286
15849732 13 17821729451039276388
15927050 60 18408881853979508211
18608769 82 18338239375415932435
18681886 176 18412538842754099265
20197701 30 18411980269187281350
20567600 254 18333728005432522365
21033648 29 17987785450009361488
21236236 1 18339080509799618187
21344244 181 17775297040449115102
21360443 120 18186522086330318738
21521721 280 18202005455810398457
21781051 124 17896341227362370898
22224240 67 18408040723889678353
22956985 138 17534894187582050466
23536379 177 17561084695909383860
23559900 14 18269833268004655304
23569917 315 18409175423620930491
249057 3 18334860546171649316
3009799 131 11024108746049001509
3178227 256 18337402620774956977
335352 9 18409732872606540308
3411729 13 18337110060155300035
38695281 34 18201720635044050103
4073 2 18262801895260081954
4093350 32 17561087951531582767
4258327 124 17969518176536982140
4325135 7 18412543211115290093
4340502 62 18335423452035765247
5104073 3 18191032210255378193
5385378 56 18262242105569348706
5758199 1 18411422808645390513
59755656 215 18334579018847929999
59755656 520 18410848888891814718
6138700 20 18411420583757099612
6669772 16 18272935981832361614

>  <PUBCHEM_SHAPE_MULTIPOLES>  (1) 
531.73
18.93
3.44
0.98
0.18
3.72
0.07
-9.61
-0.19
0.08
-0.52
-0.01
0.86
0.01

>  <PUBCHEM_SHAPE_SELFOVERLAP>  (1) 
1078.152

>  <PUBCHEM_SHAPE_VOLUME>  (1) 
319.5

>  <PUBCHEM_COORDINATE_TYPE>  (1) 
2
5
10

$$$$
