35309
     RDKit          3D

 11 11  0  0  0  0  0  0  0  0999 V2000
    1.8509    0.6110    0.0059 N   0  0  0  0  0  0  0  0  0  0  0  0
    0.1522   -1.0055    0.0022 N   0  0  0  0  0  0  0  0  0  0  0  0
   -0.3795    1.3344    0.0021 N   0  0  0  0  0  0  0  0  0  0  0  0
   -2.1401   -0.2961   -0.0022 N   0  0  0  0  0  0  0  0  0  0  0  0
    2.8983   -0.3807    0.0074 C   0  0  0  0  0  0  0  0  0  0  0  0
    0.4989    0.3038    0.0033 C   0  0  0  0  0  0  0  0  0  0  0  0
    4.2563    0.2940   -0.0121 C   0  0  0  0  0  0  0  0  0  0  0  0
   -1.1721   -1.2268   -0.0007 C   0  0  0  0  0  0  0  0  0  0  0  0
   -1.6695    0.9616   -0.0008 C   0  0  0  0  0  0  0  0  0  0  0  0
   -1.6128   -2.6509   -0.0023 C   0  0  0  0  0  0  0  0  0  0  0  0
   -2.6825    2.0552   -0.0027 C   0  0  0  0  0  0  0  0  0  0  0  0
  1  5  1  0
  1  6  1  0
  2  6  2  0
  2  8  1  0
  3  6  1  0
  3  9  2  0
  4  8  2  0
  4  9  1  0
  5  7  1  0
  8 10  1  0
  9 11  1  0
M  END
>  <PUBCHEM_COMPOUND_CID>  (1) 
35309

>  <PUBCHEM_CONFORMER_RMSD>  (1) 
0.4

>  <PUBCHEM_CONFORMER_DIVERSEORDER>  (1) 
1
4
3
2

>  <PUBCHEM_MMFF94_PARTIAL_CHARGES>  (1) 
11
1 -0.87
10 0.14
11 0.14
14 0.4
2 -0.62
3 -0.62
4 -0.62
5 0.37
6 0.72
8 0.48
9 0.48

>  <PUBCHEM_EFFECTIVE_ROTOR_COUNT>  (1) 
2

>  <PUBCHEM_PHARMACOPHORE_FEATURES>  (1) 
3
1 1 donor
4 1 2 3 6 cation
6 2 3 4 6 8 9 rings

>  <PUBCHEM_HEAVY_ATOM_COUNT>  (1) 
11

>  <PUBCHEM_ATOM_DEF_STEREO_COUNT>  (1) 
0

>  <PUBCHEM_ATOM_UDEF_STEREO_COUNT>  (1) 
0

>  <PUBCHEM_BOND_DEF_STEREO_COUNT>  (1) 
0

>  <PUBCHEM_BOND_UDEF_STEREO_COUNT>  (1) 
0

>  <PUBCHEM_ISOTOPIC_ATOM_COUNT>  (1) 
0

>  <PUBCHEM_COMPONENT_COUNT>  (1) 
1

>  <PUBCHEM_CACTVS_TAUTO_COUNT>  (1) 
3

>  <PUBCHEM_CONFORMER_ID>  (1) 
000089ED00000001

>  <PUBCHEM_MMFF94_ENERGY>  (1) 
22.5029

>  <PUBCHEM_FEATURE_SELFOVERLAP>  (1) 
15.223

>  <PUBCHEM_SHAPE_FINGERPRINT>  (1) 
12138202 97 18412260606013502606
12716758 59 18413383237487013130
13024252 1 14707206617300438965
13380535 76 18341610352441458007
14325111 11 18338797814898974304
15669948 3 18410006659090799714
16945 1 18410574019674784779
193761 8 18122343751087523265
20524608 308 18341895190446172078
20645464 45 18130512959098724188
20645477 56 18410858741879230568
20871998 184 18200880685237588814
20871998 22 17762337320167228603
21040471 1 18338516335553378369
23402539 116 18342447162921913239
23552423 10 18043811098655413678
23559900 14 18272087159609234130
241688 4 15744722999367377811
2748010 2 18193852439746463679
3071541 12 17403741047411537541
366044 4 18337952286267774865
6333449 129 18412542106738904604
75552 356 18410575106470263836

>  <PUBCHEM_SHAPE_MULTIPOLES>  (1) 
206.45
5.26
2.23
0.59
6.7
0.98
0
-1.34
0.02
-2.49
0
0
0.01
0

>  <PUBCHEM_SHAPE_SELFOVERLAP>  (1) 
410.622

>  <PUBCHEM_SHAPE_VOLUME>  (1) 
117.9

>  <PUBCHEM_COORDINATE_TYPE>  (1) 
2
5
10

$$$$
