35306
     RDKit          3D

 17 17  0  0  0  0  0  0  0  0999 V2000
   -3.1105    1.0890    0.0129 O   0  0  0  0  0  0  0  0  0  0  0  0
    1.4236    2.1533    0.0826 N   0  0  0  0  0  0  0  0  0  0  0  0
    0.0530   -2.3286   -0.0793 N   0  0  0  0  0  0  0  0  0  0  0  0
    0.7686   -0.0969    0.0018 N   0  0  0  0  0  0  0  0  0  0  0  0
   -1.5693   -0.6360   -0.0338 N   0  0  0  0  0  0  0  0  0  0  0  0
   -0.8680    1.6573    0.0493 N   0  0  0  0  0  0  0  0  0  0  0  0
    2.8312    1.8182    0.0830 C   0  0  0  0  0  0  0  0  0  0  0  0
    1.3975   -2.8138   -0.0873 C   0  0  0  0  0  0  0  0  0  0  0  0
    3.6259    2.9891    0.6455 C   0  0  0  0  0  0  0  0  0  0  0  0
    3.2733    1.4770   -1.3342 C   0  0  0  0  0  0  0  0  0  0  0  0
    1.4174   -4.2279   -0.6523 C   0  0  0  0  0  0  0  0  0  0  0  0
    1.9614   -2.7734    1.3272 C   0  0  0  0  0  0  0  0  0  0  0  0
    0.4115    1.2102    0.0435 C   0  0  0  0  0  0  0  0  0  0  0  0
   -0.2647   -0.9537   -0.0351 C   0  0  0  0  0  0  0  0  0  0  0  0
   -1.7953    0.6869    0.0093 C   0  0  0  0  0  0  0  0  0  0  0  0
   -4.0892    0.0605   -0.0294 C   0  0  0  0  0  0  0  0  0  0  0  0
   -5.4662    0.6889   -0.0036 C   0  0  0  0  0  0  0  0  0  0  0  0
  1 15  1  0
  1 16  1  0
  2  7  1  0
  2 13  1  0
  3  8  1  0
  3 14  1  0
  4 13  2  0
  4 14  1  0
  5 14  2  0
  5 15  1  0
  6 13  1  0
  6 15  2  0
  7  9  1  0
  7 10  1  0
  8 11  1  0
  8 12  1  0
 16 17  1  0
M  END
>  <PUBCHEM_COMPOUND_CID>  (1) 
35306

>  <PUBCHEM_CONFORMER_RMSD>  (1) 
0.8

>  <PUBCHEM_CONFORMER_DIVERSEORDER>  (1) 
1
130
147
122
89
125
41
163
109
78
143
105
162
104
121
146
129
118
144
155
150
156
100
166
136
70
153
56
123
106
36
102
111
80
160
159
45
119
138
137
59
37
73
31
47
32
74
108
161
61
16
154
127
63
83
19
91
21
158
115
113
132
152
120
139
101
53
142
95
48
116
71
86
43
27
57
52
50
117
148
94
30
110
85
99
77
103
112
35
33
92
68
10
87
49
66
44
12
75
145
134
64
76
25
72
84
149
126
11
40
67
141
65
60
4
69
79
24
124
38
151
5
26
133
28
114
157
97
39
90
58
42
98
51
6
3
93
88
34
131
54
82
165
17
128
29
96
81
135
9
164
107
23
20
55
46
62
7
14
140
15
22
13
8
18
2

>  <PUBCHEM_MMFF94_PARTIAL_CHARGES>  (1) 
14
1 -0.36
13 0.72
14 0.72
15 0.7
16 0.28
2 -0.87
20 0.4
21 0.4
3 -0.87
4 -0.62
5 -0.62
6 -0.62
7 0.37
8 0.37

>  <PUBCHEM_EFFECTIVE_ROTOR_COUNT>  (1) 
6

>  <PUBCHEM_PHARMACOPHORE_FEATURES>  (1) 
7
1 2 donor
1 3 donor
3 7 9 10 hydrophobe
3 8 11 12 hydrophobe
4 2 4 6 13 cation
4 3 4 5 14 cation
6 4 5 6 13 14 15 rings

>  <PUBCHEM_HEAVY_ATOM_COUNT>  (1) 
17

>  <PUBCHEM_ATOM_DEF_STEREO_COUNT>  (1) 
0

>  <PUBCHEM_ATOM_UDEF_STEREO_COUNT>  (1) 
0

>  <PUBCHEM_BOND_DEF_STEREO_COUNT>  (1) 
0

>  <PUBCHEM_BOND_UDEF_STEREO_COUNT>  (1) 
0

>  <PUBCHEM_ISOTOPIC_ATOM_COUNT>  (1) 
0

>  <PUBCHEM_COMPONENT_COUNT>  (1) 
1

>  <PUBCHEM_CACTVS_TAUTO_COUNT>  (1) 
5

>  <PUBCHEM_CONFORMER_ID>  (1) 
000089EA00000001

>  <PUBCHEM_MMFF94_ENERGY>  (1) 
41.4542

>  <PUBCHEM_FEATURE_SELFOVERLAP>  (1) 
35.563

>  <PUBCHEM_SHAPE_FINGERPRINT>  (1) 
10411042 1 17835241147417084583
10989021 7 18194682553808564003
12500047 106 18124033700744459500
12532896 13 18196933490238994324
12592029 89 18408887347283916569
12644460 14 18337400344331156497
12730499 353 18409459102642922401
13140716 1 18336822086945805386
13955234 65 18411422765695555371
15502722 9 18408603630703418717
17539 30 17406268210510944422
19591789 44 18267027352072568875
20510252 161 17983303917032745417
20600515 1 17253688505161954528
20645476 183 17898865805228984532
20645477 70 18335696097414095103
20671657 1 18341333301449737191
21054139 6 18126551556754711551
212916 134 18127955606806596272
21650355 55 17326884084891735291
23366157 5 18042413438887839005
23419403 2 17392810995450862186
23557571 272 17622740025781815668
23558518 356 17327168257319229008
23559900 14 18267015051734463819
23598288 3 17465392215085684364
2748010 2 18192731126643192486
3071541 250 18123195601736288519
3071541 37 18335143081139891253
3091708 16 9331739348880120195
33824 294 18409730673082105057
42630746 31 18413105052676855557
43471831 8 18336826489112911419
458136 41 18337971042268682681
6025842 7 18411131421147683951
6138700 20 18338806615862035630
633830 44 18201724002319645429
7364860 26 18339360764541113810
77188 2 17907579125314389982
81228 2 17401201669303568754
81539 233 18260828215483995237
9709674 26 17767973400071419724
9841814 1 17971472901614491539

>  <PUBCHEM_SHAPE_MULTIPOLES>  (1) 
319.08
7.1
4.59
0.87
10.06
4.97
0
-5.55
-0.11
-5.91
0.07
-0.74
0.19
-0.11

>  <PUBCHEM_SHAPE_SELFOVERLAP>  (1) 
628.855

>  <PUBCHEM_SHAPE_VOLUME>  (1) 
188.1

>  <PUBCHEM_COORDINATE_TYPE>  (1) 
2
5
10

$$$$
