35317
     RDKit          3D

 17 17  0  0  0  0  0  0  0  0999 V2000
   -2.3094   -0.5892    0.0000 O   0  0  0  0  0  0  0  0  0  0  0  0
    2.3168   -0.5847    0.0005 O   0  0  0  0  0  0  0  0  0  0  0  0
    0.0038   -0.5372   -0.0017 N   0  0  0  0  0  0  0  0  0  0  0  0
    1.2056   -2.6140    0.0003 N   0  0  0  0  0  0  0  0  0  0  0  0
   -1.1940   -2.6165   -0.0001 N   0  0  0  0  0  0  0  0  0  0  0  0
    0.0080   -4.6302    0.0020 N   0  0  0  0  0  0  0  0  0  0  0  0
   -3.6433    1.3992    0.0210 C   0  0  0  0  0  0  0  0  0  0  0  0
    3.6377    1.4119   -0.0193 C   0  0  0  0  0  0  0  0  0  0  0  0
   -3.6354    2.9251    0.0047 C   0  0  0  0  0  0  0  0  0  0  0  0
    3.6199    2.9377   -0.0057 C   0  0  0  0  0  0  0  0  0  0  0  0
   -2.2319    0.8296   -0.0015 C   0  0  0  0  0  0  0  0  0  0  0  0
    2.2301    0.8331   -0.0010 C   0  0  0  0  0  0  0  0  0  0  0  0
   -5.0470    3.4893   -0.0165 C   0  0  0  0  0  0  0  0  0  0  0  0
    5.0276    3.5112    0.0194 C   0  0  0  0  0  0  0  0  0  0  0  0
   -1.1217   -1.2735   -0.0015 C   0  0  0  0  0  0  0  0  0  0  0  0
    1.1266   -1.2736   -0.0011 C   0  0  0  0  0  0  0  0  0  0  0  0
    0.0064   -3.2183    0.0005 C   0  0  0  0  0  0  0  0  0  0  0  0
  1 11  1  0
  1 15  1  0
  2 12  1  0
  2 16  1  0
  3 15  2  0
  3 16  1  0
  4 16  2  0
  4 17  1  0
  5 15  1  0
  5 17  2  0
  6 17  1  0
  7  9  1  0
  7 11  1  0
  8 10  1  0
  8 12  1  0
  9 13  1  0
 10 14  1  0
M  END
>  <PUBCHEM_COMPOUND_CID>  (1) 
35317

>  <PUBCHEM_CONFORMER_RMSD>  (1) 
0.8

>  <PUBCHEM_CONFORMER_DIVERSEORDER>  (1) 
1
126
100
105
182
3
22
159
215
193
32
18
204
187
2
176
57
70
145
5
73
103
202
194
196
188
127
46
214
179
199
137
209
198
75
206
40
9
148
52
43
147
38
106
71
166
108
219
95
39
29
216
149
151
116
210
55
56
61
112
109
131
72
169
50
211
153
142
87
62
42
139
107
23
130
49
8
80
140
138
195
97
64
59
20
25
68
34
11
158
117
181
102
37
111
6
26
19
45
218
135
24
184
161
101
178
201
77
35
162
93
136
190
96
63
207
4
123
60
186
33
118
30
66
114
154
144
125
15
124
17
82
12
217
132
76
65
128
91
69
133
84
85
67
170
10
122
163
203
134
185
36
47
155
21
90
212
171
156
48
120
192
99
53
174
119
143
115
146
58
7
150
27
14
157
16
160
164
168
205
94
141
88
83
104
54
197
165
173
28
74
110
31
191
175
41
189
180
89
86
177
121
92
44
51
13
81
200
113
79
98
172
78
167
208
152
213
129
183

>  <PUBCHEM_MMFF94_PARTIAL_CHARGES>  (1) 
13
1 -0.36
11 0.28
12 0.28
15 0.7
16 0.7
17 0.72
2 -0.36
3 -0.62
36 0.4
37 0.4
4 -0.62
5 -0.62
6 -0.9

>  <PUBCHEM_EFFECTIVE_ROTOR_COUNT>  (1) 
8

>  <PUBCHEM_PHARMACOPHORE_FEATURES>  (1) 
5
1 13 hydrophobe
1 14 hydrophobe
1 6 donor
4 4 5 6 17 cation
6 3 4 5 15 16 17 rings

>  <PUBCHEM_HEAVY_ATOM_COUNT>  (1) 
17

>  <PUBCHEM_ATOM_DEF_STEREO_COUNT>  (1) 
0

>  <PUBCHEM_ATOM_UDEF_STEREO_COUNT>  (1) 
0

>  <PUBCHEM_BOND_DEF_STEREO_COUNT>  (1) 
0

>  <PUBCHEM_BOND_UDEF_STEREO_COUNT>  (1) 
0

>  <PUBCHEM_ISOTOPIC_ATOM_COUNT>  (1) 
0

>  <PUBCHEM_COMPONENT_COUNT>  (1) 
1

>  <PUBCHEM_CACTVS_TAUTO_COUNT>  (1) 
3

>  <PUBCHEM_CONFORMER_ID>  (1) 
000089F500000001

>  <PUBCHEM_MMFF94_ENERGY>  (1) 
31.2896

>  <PUBCHEM_FEATURE_SELFOVERLAP>  (1) 
25.371

>  <PUBCHEM_SHAPE_FINGERPRINT>  (1) 
10411042 1 17113819592570381319
10937287 8 18410855464513410533
12107183 9 18335404778589016800
12173636 292 18266459986982074758
12788726 201 18051958501213325871
13134695 92 17544474159385225279
13590594 115 16970278336415345249
138480 1 17762056536458725792
13955234 65 18120943798213140297
13965767 371 18041272188937121068
14123255 52 18410575084663611585
14178000 15 17547288900308981451
14251764 75 18341623589869249089
14508225 48 17262147546167507735
15422964 175 9078823044265823774
17134986 127 18339364067492192902
17834072 32 18410293622814655788
18785283 64 18192149296039723505
20621476 13 18120366554255922181
21304253 13 17402622234512632611
21426921 1 17906172103124381652
23402539 116 17406555183341771198
3071541 12 18267586792990152215
474 4 18267581308691448713
5939293 188 17977662005037706683
77188 2 17401767419544317326
7808743 9 18194119840226777824
84936 182 18199742566285997649
9981440 41 18409443704620839857

>  <PUBCHEM_SHAPE_MULTIPOLES>  (1) 
318.19
8.73
6.24
0.58
0.11
2.77
0
-17.12
0
-0.05
0
0
-0.07
0.02

>  <PUBCHEM_SHAPE_SELFOVERLAP>  (1) 
623.078

>  <PUBCHEM_SHAPE_VOLUME>  (1) 
187.7

>  <PUBCHEM_COORDINATE_TYPE>  (1) 
2
5
10

$$$$
