35316
     RDKit          3D

 21 22  0  0  0  0  0  0  0  0999 V2000
   -3.7032    0.2534    0.1311 O   0  0  0  0  0  0  0  0  0  0  0  0
    0.0902    2.8780   -0.2195 O   0  0  0  0  0  0  0  0  0  0  0  0
    0.5018   -1.7502    0.1117 N   0  0  0  0  0  0  0  0  0  0  0  0
    0.3354    0.5830   -0.0557 N   0  0  0  0  0  0  0  0  0  0  0  0
   -1.6322   -0.7783    0.1260 N   0  0  0  0  0  0  0  0  0  0  0  0
   -1.8349    1.6066   -0.0441 N   0  0  0  0  0  0  0  0  0  0  0  0
    1.8982   -1.9449    0.0702 C   0  0  0  0  0  0  0  0  0  0  0  0
   -0.3021   -0.5950    0.0583 C   0  0  0  0  0  0  0  0  0  0  0  0
    2.7543   -0.9629    0.5686 C   0  0  0  0  0  0  0  0  0  0  0  0
    2.4230   -3.1196   -0.4689 C   0  0  0  0  0  0  0  0  0  0  0  0
    4.1352   -1.1557    0.5280 C   0  0  0  0  0  0  0  0  0  0  0  0
    3.8039   -3.3123   -0.5094 C   0  0  0  0  0  0  0  0  0  0  0  0
    4.6599   -2.3304   -0.0109 C   0  0  0  0  0  0  0  0  0  0  0  0
   -2.3339    0.3652    0.0692 C   0  0  0  0  0  0  0  0  0  0  0  0
   -0.4936    1.6384   -0.1008 C   0  0  0  0  0  0  0  0  0  0  0  0
   -4.2285   -1.0611    0.2488 C   0  0  0  0  0  0  0  0  0  0  0  0
    1.5089    2.9084   -0.2816 C   0  0  0  0  0  0  0  0  0  0  0  0
   -5.7146   -0.9757    0.3588 C   0  0  0  0  0  0  0  0  0  0  0  0
    1.9509    4.3223   -0.4655 C   0  0  0  0  0  0  0  0  0  0  0  0
   -6.5616   -1.5441   -0.5064 C   0  0  0  0  0  0  0  0  0  0  0  0
    2.7430    4.9749    0.3923 C   0  0  0  0  0  0  0  0  0  0  0  0
  1 14  1  0
  1 16  1  0
  2 15  1  0
  2 17  1  0
  3  7  1  0
  3  8  1  0
  4  8  2  0
  4 15  1  0
  5  8  1  0
  5 14  2  0
  6 14  1  0
  6 15  2  0
  7  9  2  0
  7 10  1  0
  9 11  1  0
 10 12  2  0
 11 13  2  0
 12 13  1  0
 16 18  1  0
 17 19  1  0
 18 20  2  0
 19 21  2  0
M  END
>  <PUBCHEM_COMPOUND_CID>  (1) 
35316

>  <PUBCHEM_CONFORMER_RMSD>  (1) 
0.8

>  <PUBCHEM_CONFORMER_DIVERSEORDER>  (1) 
1
22
39
27
37
23
42
11
25
21
41
18
4
2
43
8
15
7
29
35
44
24
38
28
12
19
32
20
36
3
5
34
40
30
26
14
33
9
13
31
6
17
16
10

>  <PUBCHEM_MMFF94_PARTIAL_CHARGES>  (1) 
33
1 -0.36
10 -0.15
11 -0.15
12 -0.15
13 -0.15
14 0.7
15 0.7
16 0.42
17 0.42
18 -0.29
19 -0.29
2 -0.36
20 -0.3
21 -0.3
22 0.4
23 0.15
24 0.15
25 0.15
26 0.15
27 0.15
3 -0.6
32 0.15
33 0.15
34 0.15
35 0.15
36 0.15
37 0.15
4 -0.62
5 -0.62
6 -0.62
7 0.1
8 0.72
9 -0.15

>  <PUBCHEM_EFFECTIVE_ROTOR_COUNT>  (1) 
8

>  <PUBCHEM_PHARMACOPHORE_FEATURES>  (1) 
6
1 20 hydrophobe
1 21 hydrophobe
1 3 donor
4 3 4 5 8 cation
6 4 5 6 8 14 15 rings
6 7 9 10 11 12 13 rings

>  <PUBCHEM_HEAVY_ATOM_COUNT>  (1) 
21

>  <PUBCHEM_ATOM_DEF_STEREO_COUNT>  (1) 
0

>  <PUBCHEM_ATOM_UDEF_STEREO_COUNT>  (1) 
0

>  <PUBCHEM_BOND_DEF_STEREO_COUNT>  (1) 
0

>  <PUBCHEM_BOND_UDEF_STEREO_COUNT>  (1) 
0

>  <PUBCHEM_ISOTOPIC_ATOM_COUNT>  (1) 
0

>  <PUBCHEM_COMPONENT_COUNT>  (1) 
1

>  <PUBCHEM_CACTVS_TAUTO_COUNT>  (1) 
3

>  <PUBCHEM_CONFORMER_ID>  (1) 
000089F400000001

>  <PUBCHEM_MMFF94_ENERGY>  (1) 
61.6554

>  <PUBCHEM_FEATURE_SELFOVERLAP>  (1) 
30.446

>  <PUBCHEM_SHAPE_FINGERPRINT>  (1) 
10411042 1 18338235951335174902
11045515 52 18116155463154108701
12173636 292 17184747988182096196
12788726 201 17611470731196070904
13540713 4 18113892793785720397
138480 1 18410294705372942892
13955234 65 18338521966297721473
14787075 74 18114471088792250162
14790565 3 17473264756705200193
15927050 60 17908427205588667310
167882 2 18265053711800150277
17913733 40 17906752636563007505
18222031 100 18411131416510299387
18785283 64 18262797500685994804
19611394 137 18115319989690482074
20554085 129 17698715131998461289
20645477 70 18261948674221226723
21049683 271 18188503461453261212
23419403 2 17968916674170582972
23557571 272 17981888536403687006
23559900 14 18409440376580120179
249999 5 18266741470570026713
3421961 26 18410575115170974769
5104073 3 17984413041130061930
5385378 56 18194410107133197953
6025842 7 18266176317672636533
621550 5 17844245125704232266
7364860 26 18337674229700065873
7399639 24 18056462977605089370
77188 2 18338800009558814380

>  <PUBCHEM_SHAPE_MULTIPOLES>  (1) 
400.51
10.76
5.86
0.7
18.27
8.26
0
-9.58
-0.04
-9.73
0.65
-0.11
-0.05
0.18

>  <PUBCHEM_SHAPE_SELFOVERLAP>  (1) 
832.656

>  <PUBCHEM_SHAPE_VOLUME>  (1) 
222.6

>  <PUBCHEM_COORDINATE_TYPE>  (1) 
2
5
10

$$$$
