35325
     RDKit          3D

 13 13  0  0  0  0  0  0  0  0999 V2000
   -2.0804   -3.4562   -0.0024 Cl  0  0  0  0  0  0  0  0  0  0  0  0
    2.5758   -0.9973   -0.0023 S   0  0  0  0  0  0  0  0  0  0  0  0
   -1.7799    1.4828    0.0057 N   0  0  0  0  0  0  0  0  0  0  0  0
    0.2303    0.2755    0.0021 N   0  0  0  0  0  0  0  0  0  0  0  0
   -1.8838   -0.8597    0.0017 N   0  0  0  0  0  0  0  0  0  0  0  0
    0.1563   -2.1229   -0.0021 N   0  0  0  0  0  0  0  0  0  0  0  0
   -1.1025    2.7563    0.0075 C   0  0  0  0  0  0  0  0  0  0  0  0
   -1.1240    0.2613    0.0031 C   0  0  0  0  0  0  0  0  0  0  0  0
   -2.1142    3.8859   -0.0120 C   0  0  0  0  0  0  0  0  0  0  0  0
    3.0011    0.7677    0.0006 C   0  0  0  0  0  0  0  0  0  0  0  0
    0.7960   -0.9423   -0.0006 C   0  0  0  0  0  0  0  0  0  0  0  0
    4.5066    0.9528   -0.0004 C   0  0  0  0  0  0  0  0  0  0  0  0
   -1.1812   -2.0040   -0.0009 C   0  0  0  0  0  0  0  0  0  0  0  0
  1 13  1  0
  2 10  1  0
  2 11  1  0
  3  7  1  0
  3  8  1  0
  4  8  2  0
  4 11  1  0
  5  8  1  0
  5 13  2  0
  6 11  2  0
  6 13  1  0
  7  9  1  0
 10 12  1  0
M  END
>  <PUBCHEM_COMPOUND_CID>  (1) 
35325

>  <PUBCHEM_CONFORMER_RMSD>  (1) 
0.6

>  <PUBCHEM_CONFORMER_DIVERSEORDER>  (1) 
1
27
14
21
17
23
28
22
31
45
42
39
8
36
38
30
44
43
2
34
41
4
18
40
33
32
20
11
37
19
3
16
5
15
35
7
10
12
9
29
13
26
6
24
25

>  <PUBCHEM_MMFF94_PARTIAL_CHARGES>  (1) 
12
1 -0.18
10 0.23
11 0.72
13 0.8
16 0.4
2 -0.33
3 -0.87
4 -0.62
5 -0.62
6 -0.62
7 0.37
8 0.72

>  <PUBCHEM_EFFECTIVE_ROTOR_COUNT>  (1) 
4

>  <PUBCHEM_PHARMACOPHORE_FEATURES>  (1) 
4
1 12 hydrophobe
1 3 donor
4 3 4 5 8 cation
6 4 5 6 8 11 13 rings

>  <PUBCHEM_HEAVY_ATOM_COUNT>  (1) 
13

>  <PUBCHEM_ATOM_DEF_STEREO_COUNT>  (1) 
0

>  <PUBCHEM_ATOM_UDEF_STEREO_COUNT>  (1) 
0

>  <PUBCHEM_BOND_DEF_STEREO_COUNT>  (1) 
0

>  <PUBCHEM_BOND_UDEF_STEREO_COUNT>  (1) 
0

>  <PUBCHEM_ISOTOPIC_ATOM_COUNT>  (1) 
0

>  <PUBCHEM_COMPONENT_COUNT>  (1) 
1

>  <PUBCHEM_CACTVS_TAUTO_COUNT>  (1) 
4

>  <PUBCHEM_CONFORMER_ID>  (1) 
000089FD00000001

>  <PUBCHEM_MMFF94_ENERGY>  (1) 
20.5497

>  <PUBCHEM_FEATURE_SELFOVERLAP>  (1) 
20.297

>  <PUBCHEM_SHAPE_FINGERPRINT>  (1) 
1 1 17617659860573602389
108231 29 17684089467233424914
14648413 74 17400366646357762081
17134986 127 17977947878234949996
20510252 161 18341897367931216416
20671657 1 17475797546085229021
20871998 184 18129387166614011262
21339142 36 18193828473496824759
21524375 3 17972602078227601728
21639500 275 17326882985628215805
2306618 200 18272941548193645450
23402539 116 18127405881110265486
23419403 2 17325456278911727663
23557571 272 18270410506723030646
23558518 356 18261397719832291058
2748010 2 18120668924041909583
3071541 12 17547573673672719980
3071541 250 17688880051942546630
3091708 16 9273463033542220328
7364860 26 17186158661278467245
81228 2 18339093690589850843

>  <PUBCHEM_SHAPE_MULTIPOLES>  (1) 
253.33
5.15
4.58
0.6
7.77
3.08
0
0.37
0
-5.66
-0.01
0.03
-0.01
0

>  <PUBCHEM_SHAPE_SELFOVERLAP>  (1) 
479.042

>  <PUBCHEM_SHAPE_VOLUME>  (1) 
157.7

>  <PUBCHEM_COORDINATE_TYPE>  (1) 
2
5
10

$$$$
