35328
     RDKit          3D

 17 17  0  0  0  0  0  0  0  0999 V2000
   -5.1721   -1.8926    0.8809 Cl  0  0  0  0  0  0  0  0  0  0  0  0
   -1.9619    3.8530   -1.2041 Cl  0  0  0  0  0  0  0  0  0  0  0  0
   -1.7298    0.0803    0.1875 N   0  0  0  0  0  0  0  0  0  0  0  0
   -0.8889   -1.0474   -0.2124 C   0  0  0  0  0  0  0  0  0  0  0  0
    0.5765   -0.7150   -0.1196 C   0  0  0  0  0  0  0  0  0  0  0  0
    1.4449   -1.0628   -1.1458 C   0  0  0  0  0  0  0  0  0  0  0  0
   -3.1446   -0.2757    0.0859 C   0  0  0  0  0  0  0  0  0  0  0  0
   -1.4374    1.2530   -0.6359 C   0  0  0  0  0  0  0  0  0  0  0  0
    1.0384   -0.0555    1.0121 C   0  0  0  0  0  0  0  0  0  0  0  0
    2.3925    0.2616    1.1191 C   0  0  0  0  0  0  0  0  0  0  0  0
    3.2728   -0.0836    0.0936 C   0  0  0  0  0  0  0  0  0  0  0  0
    2.7991   -0.7458   -1.0388 C   0  0  0  0  0  0  0  0  0  0  0  0
   -3.4558   -1.4404    1.0130 C   0  0  0  0  0  0  0  0  0  0  0  0
   -2.2979    2.4266   -0.1941 C   0  0  0  0  0  0  0  0  0  0  0  0
    0.9606   -1.7718   -2.3678 C   0  0  0  0  0  0  0  0  0  0  0  0
    2.8770    0.9705    2.3409 C   0  0  0  0  0  0  0  0  0  0  0  0
    4.7265    0.2456    0.1857 C   0  0  0  0  0  0  0  0  0  0  0  0
  1 13  1  0
  2 14  1  0
  3  4  1  0
  3  7  1  0
  3  8  1  0
  4  5  1  0
  5  6  2  0
  5  9  1  0
  6 12  1  0
  6 15  1  0
  7 13  1  0
  8 14  1  0
  9 10  2  0
 10 11  1  0
 10 16  1  0
 11 12  2  0
 11 17  1  0
M  END
>  <PUBCHEM_COMPOUND_CID>  (1) 
35328

>  <PUBCHEM_CONFORMER_RMSD>  (1) 
0.8

>  <PUBCHEM_CONFORMER_DIVERSEORDER>  (1) 
2
10
3
13
15
12
16
4
17
11
8
9
14
7
1
5
6

>  <PUBCHEM_MMFF94_PARTIAL_CHARGES>  (1) 
19
1 -0.29
10 -0.14
11 -0.14
12 -0.15
13 0.29
14 0.29
15 0.14
16 0.14
17 0.14
2 -0.29
24 0.15
25 0.15
3 -0.81
4 0.41
5 -0.14
6 -0.14
7 0.27
8 0.27
9 -0.15

>  <PUBCHEM_EFFECTIVE_ROTOR_COUNT>  (1) 
6

>  <PUBCHEM_PHARMACOPHORE_FEATURES>  (1) 
2
1 3 cation
6 5 6 9 10 11 12 rings

>  <PUBCHEM_HEAVY_ATOM_COUNT>  (1) 
17

>  <PUBCHEM_ATOM_DEF_STEREO_COUNT>  (1) 
0

>  <PUBCHEM_ATOM_UDEF_STEREO_COUNT>  (1) 
0

>  <PUBCHEM_BOND_DEF_STEREO_COUNT>  (1) 
0

>  <PUBCHEM_BOND_UDEF_STEREO_COUNT>  (1) 
0

>  <PUBCHEM_ISOTOPIC_ATOM_COUNT>  (1) 
0

>  <PUBCHEM_COMPONENT_COUNT>  (1) 
1

>  <PUBCHEM_CACTVS_TAUTO_COUNT>  (1) 
1

>  <PUBCHEM_CONFORMER_ID>  (1) 
00008A0000000002

>  <PUBCHEM_MMFF94_ENERGY>  (1) 
45.0077

>  <PUBCHEM_FEATURE_SELFOVERLAP>  (1) 
10.148

>  <PUBCHEM_SHAPE_FINGERPRINT>  (1) 
10165383 225 17630897195057435376
11471102 20 17131840849852231402
12236239 1 16732980959419473235
12654215 9 17772462396767285428
12892183 10 18189034474636206114
13294875 104 17398942782867756563
13583140 156 18196342923930716386
13764800 53 18264770952602169265
14178342 30 18041841688530578011
14787075 74 17099193235740428960
15219456 202 18059016081594371942
15342168 16 17344622879686842737
16945 1 18338781416676901994
17844478 74 18272092694867381179
18186145 218 16845282865630811562
18219364 16 17703501134298847896
18222031 100 18264487463612773059
18380122 1 18272653441624022343
19049666 15 18056204565906016639
200 152 15574709231379502715
20344682 1 18272660085690645943
20600515 1 18191323739317777715
20645477 70 17274260509462159519
21639500 275 16916769778631812488
22112679 90 17024045782105400885
22802520 49 17842844325956757212
23402539 116 18335979852533520079
23526113 38 17699570247196488311
23557571 272 18408606946497286077
23559900 14 18263082123879066895
238 59 17200764749746326180
25 1 17702659930868585284
2748010 2 18130775725250920392
5902787 121 17825114950605244291
6049 1 18201446813535062357
621550 34 18202286913591564735
621550 5 17770820902736496527
633830 44 15554160463157967392
77492 1 16732988595749655179
7808743 9 18116999888364328724
81228 2 18263380113769661793
8272917 22 15984286053253697855
88987 49 17970636190360999525
9841814 1 17825683398327437411

>  <PUBCHEM_SHAPE_MULTIPOLES>  (1) 
348.61
7.99
2.82
1.78
2.47
3.69
0.07
-2.55
-2.95
4.04
1.26
-1.26
-0.27
2.29

>  <PUBCHEM_SHAPE_SELFOVERLAP>  (1) 
682.49

>  <PUBCHEM_SHAPE_VOLUME>  (1) 
212.7

>  <PUBCHEM_COORDINATE_TYPE>  (1) 
2
5
10

$$$$
