35342
     RDKit          3D

 38 41  0  0  0  0  0  0  0  0999 V2000
   -4.1339   -0.8342   -1.3913 N   0  0  0  0  0  0  0  0  0  0  0  0
    4.1404   -0.8442    1.3888 N   0  0  0  0  0  0  0  0  0  0  0  0
   -3.1614   -0.8033   -0.2725 C   0  0  0  0  0  0  0  0  0  0  0  0
    3.1673   -0.8168    0.2704 C   0  0  0  0  0  0  0  0  0  0  0  0
   -5.5072   -0.3200   -0.9362 C   0  0  0  0  0  0  0  0  0  0  0  0
    5.5098   -0.3186    0.9351 C   0  0  0  0  0  0  0  0  0  0  0  0
   -1.7496   -0.7972   -0.8395 C   0  0  0  0  0  0  0  0  0  0  0  0
    1.7557   -0.8230    0.8378 C   0  0  0  0  0  0  0  0  0  0  0  0
   -0.7082   -0.8121    0.2805 C   0  0  0  0  0  0  0  0  0  0  0  0
    0.7140   -0.8419   -0.2817 C   0  0  0  0  0  0  0  0  0  0  0  0
   -4.3126   -2.2644   -1.9206 C   0  0  0  0  0  0  0  0  0  0  0  0
   -3.6573    0.0477   -2.5543 C   0  0  0  0  0  0  0  0  0  0  0  0
    4.3296   -2.2748    1.9134 C   0  0  0  0  0  0  0  0  0  0  0  0
    3.6576    0.0304    2.5548 C   0  0  0  0  0  0  0  0  0  0  0  0
   -5.5776    1.1944   -0.8487 C   0  0  0  0  0  0  0  0  0  0  0  0
   -6.0096   -0.9986    0.3259 C   0  0  0  0  0  0  0  0  0  0  0  0
    5.5692    1.1965    0.8524 C   0  0  0  0  0  0  0  0  0  0  0  0
    6.0166   -0.9894   -0.3294 C   0  0  0  0  0  0  0  0  0  0  0  0
   -6.7883    1.8504   -1.0722 C   0  0  0  0  0  0  0  0  0  0  0  0
   -6.7794   -2.1582    0.2349 C   0  0  0  0  0  0  0  0  0  0  0  0
    6.7750    1.8607    1.0777 C   0  0  0  0  0  0  0  0  0  0  0  0
    6.7950   -2.1438   -0.2425 C   0  0  0  0  0  0  0  0  0  0  0  0
   -4.4319    1.9296   -0.5442 C   0  0  0  0  0  0  0  0  0  0  0  0
   -5.7008   -0.4628    1.5762 C   0  0  0  0  0  0  0  0  0  0  0  0
    4.4180    1.9245    0.5508 C   0  0  0  0  0  0  0  0  0  0  0  0
    5.7036   -0.4518   -1.5779 C   0  0  0  0  0  0  0  0  0  0  0  0
   -6.8532    3.2414   -0.9916 C   0  0  0  0  0  0  0  0  0  0  0  0
   -7.2408   -2.7820    1.3942 C   0  0  0  0  0  0  0  0  0  0  0  0
    6.8298    3.2523    1.0016 C   0  0  0  0  0  0  0  0  0  0  0  0
    7.2605   -2.7603   -1.4039 C   0  0  0  0  0  0  0  0  0  0  0  0
   -4.4969    3.3207   -0.4636 C   0  0  0  0  0  0  0  0  0  0  0  0
   -6.1620   -1.0866    2.7355 C   0  0  0  0  0  0  0  0  0  0  0  0
    4.4730    3.3162    0.4745 C   0  0  0  0  0  0  0  0  0  0  0  0
    6.1691   -1.0685   -2.7394 C   0  0  0  0  0  0  0  0  0  0  0  0
   -5.7076    3.9765   -0.6872 C   0  0  0  0  0  0  0  0  0  0  0  0
   -6.9321   -2.2462    2.6444 C   0  0  0  0  0  0  0  0  0  0  0  0
    5.6788    3.9800    0.6999 C   0  0  0  0  0  0  0  0  0  0  0  0
    6.9474   -2.2227   -2.6522 C   0  0  0  0  0  0  0  0  0  0  0  0
  1  3  1  0
  1  5  1  0
  1 11  1  0
  1 12  1  0
  2  4  1  0
  2  6  1  0
  2 13  1  0
  2 14  1  0
  3  7  1  0
  4  8  1  0
  5 15  1  0
  5 16  1  0
  6 17  1  0
  6 18  1  0
  7  9  1  0
  8 10  1  0
  9 10  1  0
 15 19  2  0
 15 23  1  0
 16 20  2  0
 16 24  1  0
 17 21  2  0
 17 25  1  0
 18 22  2  0
 18 26  1  0
 19 27  1  0
 20 28  1  0
 21 29  1  0
 22 30  1  0
 23 31  2  0
 24 32  2  0
 25 33  2  0
 26 34  2  0
 27 35  2  0
 28 36  2  0
 29 37  2  0
 30 38  2  0
 31 35  1  0
 32 36  1  0
 33 37  1  0
 34 38  1  0
M  CHG  2   1   1   2   1
M  END
>  <PUBCHEM_COMPOUND_CID>  (1) 
35342

>  <PUBCHEM_CONFORMER_RMSD>  (1) 
1.2

>  <PUBCHEM_CONFORMER_DIVERSEORDER>  (1) 
1
32
13
43
48
18
49
9
46
47
40
42
6
44
7
5
2
26
41
45
33
23
27
50
20
35
51
24
29
37
19
38
11
4
25
28
22
8
39
34
21
36
15
3
31
14
12
17
30
16
10

>  <PUBCHEM_MMFF94_PARTIAL_CHARGES>  (1) 
54
1 -1.01
11 0.5
12 0.5
13 0.5
14 0.5
15 -0.14
16 -0.14
17 -0.14
18 -0.14
19 -0.15
2 -1.01
20 -0.15
21 -0.15
22 -0.15
23 -0.15
24 -0.15
25 -0.15
26 -0.15
27 -0.15
28 -0.15
29 -0.15
3 0.5
30 -0.15
31 -0.15
32 -0.15
33 -0.15
34 -0.15
35 -0.15
36 -0.15
37 -0.15
38 -0.15
4 0.5
5 0.79
6 0.79
65 0.15
66 0.15
67 0.15
68 0.15
69 0.15
70 0.15
71 0.15
72 0.15
73 0.15
74 0.15
75 0.15
76 0.15
77 0.15
78 0.15
79 0.15
80 0.15
81 0.15
82 0.15
83 0.15
84 0.15

>  <PUBCHEM_EFFECTIVE_ROTOR_COUNT>  (1) 
13

>  <PUBCHEM_PHARMACOPHORE_FEATURES>  (1) 
7
1 1 cation
1 2 cation
4 7 8 9 10 hydrophobe
6 15 19 23 27 31 35 rings
6 16 20 24 28 32 36 rings
6 17 21 25 29 33 37 rings
6 18 22 26 30 34 38 rings

>  <PUBCHEM_HEAVY_ATOM_COUNT>  (1) 
38

>  <PUBCHEM_ATOM_DEF_STEREO_COUNT>  (1) 
0

>  <PUBCHEM_ATOM_UDEF_STEREO_COUNT>  (1) 
0

>  <PUBCHEM_BOND_DEF_STEREO_COUNT>  (1) 
0

>  <PUBCHEM_BOND_UDEF_STEREO_COUNT>  (1) 
0

>  <PUBCHEM_ISOTOPIC_ATOM_COUNT>  (1) 
0

>  <PUBCHEM_COMPONENT_COUNT>  (1) 
1

>  <PUBCHEM_CACTVS_TAUTO_COUNT>  (1) 
1

>  <PUBCHEM_CONFORMER_ID>  (1) 
00008A0E00000001

>  <PUBCHEM_MMFF94_ENERGY>  (1) 
180.7787

>  <PUBCHEM_FEATURE_SELFOVERLAP>  (1) 
35.523

>  <PUBCHEM_SHAPE_FINGERPRINT>  (1) 
10554248 39 16988844960655990908
11007060 377 18334012826574586979
11135926 11 16773518763767556015
11411753 29 18338530684764755751
11456790 92 18261375768813371064
11828532 37 18335430071582590718
14118638 360 17458340849353608715
14512766 119 18335133142871262997
14664723 55 17916022361705704305
14904525 67 18338785775758302512
15183329 4 15769771377091139813
17899979 129 17842839099989750816
20721686 56 18409442623033184461
23522609 53 17241625930396850028
2747138 104 18115034116461174315
335507 130 18341043125090772582
394071 54 18337950216383857412
397830 11 18335422421517979243
3986486 107 17459495298815728422
4144715 1 18336548308318334874
44317340 157 18059851792463284120
5109719 28 18340488962624718826
9831232 110 18059575746594736006

>  <PUBCHEM_SHAPE_MULTIPOLES>  (1) 
772.06
29.32
4.53
2.55
0.01
4.71
-0.01
-0.87
-0.06
-0.05
0.03
0.03
-1.65
7.47

>  <PUBCHEM_SHAPE_SELFOVERLAP>  (1) 
1633.883

>  <PUBCHEM_SHAPE_VOLUME>  (1) 
430.6

>  <PUBCHEM_COORDINATE_TYPE>  (1) 
2
5
10

$$$$
