35348
     RDKit          3D

 16 18  0  0  1  0  0  0  0  0999 V2000
    0.6814   -0.0534    0.0085 N   0  0  0  0  0  0  0  0  0  0  0  0
   -3.9356    0.4451    0.2614 C   0  0  0  0  0  0  0  0  0  0  0  0
   -3.8522   -1.0415   -0.1572 C   0  0  0  0  0  0  0  0  0  0  0  0
   -2.7460    1.2550   -0.3072 C   0  0  0  0  0  0  0  0  0  0  0  0
   -2.5789   -1.7210    0.3772 C   0  0  0  0  0  0  0  0  0  0  0  0
   -1.4579    0.5289   -0.1243 C   0  0  0  0  0  0  0  0  0  0  0  0
   -1.3802   -0.8629    0.1732 C   0  0  0  0  0  0  0  0  0  0  0  0
   -5.2605    1.0598   -0.1852 C   0  0  0  0  0  0  0  0  0  0  0  0
   -0.1669    0.9997   -0.2216 C   0  0  0  0  0  0  0  0  0  0  0  0
   -0.0446   -1.1917    0.2510 C   0  0  0  0  0  0  0  0  0  0  0  0
    2.0741    0.0220   -0.0016 C   0  0  0  0  0  0  0  0  0  0  0  0
    2.8179   -1.0894   -0.3764 C   0  0  0  0  0  0  0  0  0  0  0  0
    2.6991    1.2077    0.3623 C   0  0  0  0  0  0  0  0  0  0  0  0
    4.2107   -1.0139   -0.3875 C   0  0  0  0  0  0  0  0  0  0  0  0
    4.0919    1.2833    0.3512 C   0  0  0  0  0  0  0  0  0  0  0  0
    4.8477    0.1724   -0.0237 C   0  0  0  0  0  0  0  0  0  0  0  0
  1  9  1  0
  1 10  1  0
  1 11  1  0
  2  3  1  0
  2  4  1  0
  2  8  1  0
  3  5  1  0
  4  6  1  0
  5  7  1  0
  6  7  1  0
  6  9  2  0
  7 10  2  0
 11 12  2  0
 11 13  1  0
 12 14  1  0
 13 15  2  0
 14 16  2  0
 15 16  1  0
M  END
>  <PUBCHEM_COMPOUND_CID>  (1) 
35348

>  <PUBCHEM_CONFORMER_RMSD>  (1) 
0.6

>  <PUBCHEM_CONFORMER_DIVERSEORDER>  (1) 
1
2

>  <PUBCHEM_MMFF94_PARTIAL_CHARGES>  (1) 
20
1 0.33
10 -0.3
11 -0.02
12 -0.15
13 -0.15
14 -0.15
15 -0.15
16 -0.15
27 0.15
28 0.15
29 0.15
30 0.15
31 0.15
32 0.15
33 0.15
4 0.18
5 0.18
6 -0.18
7 -0.18
9 -0.3

>  <PUBCHEM_EFFECTIVE_ROTOR_COUNT>  (1) 
1.8

>  <PUBCHEM_PHARMACOPHORE_FEATURES>  (1) 
4
1 1 cation
5 1 6 7 9 10 rings
6 11 12 13 14 15 16 rings
6 2 3 4 5 6 7 rings

>  <PUBCHEM_HEAVY_ATOM_COUNT>  (1) 
16

>  <PUBCHEM_ATOM_DEF_STEREO_COUNT>  (1) 
0

>  <PUBCHEM_ATOM_UDEF_STEREO_COUNT>  (1) 
1

>  <PUBCHEM_BOND_DEF_STEREO_COUNT>  (1) 
0

>  <PUBCHEM_BOND_UDEF_STEREO_COUNT>  (1) 
0

>  <PUBCHEM_ISOTOPIC_ATOM_COUNT>  (1) 
0

>  <PUBCHEM_COMPONENT_COUNT>  (1) 
1

>  <PUBCHEM_CACTVS_TAUTO_COUNT>  (1) 
1

>  <PUBCHEM_CONFORMER_ID>  (1) 
00008A1400000001

>  <PUBCHEM_MMFF94_ENERGY>  (1) 
38.4225

>  <PUBCHEM_FEATURE_SELFOVERLAP>  (1) 
20.382

>  <PUBCHEM_SHAPE_FINGERPRINT>  (1) 
10014705 185 18335136505771755877
10608611 8 18411697712184942504
11132069 177 18333449854728999645
11401426 45 18408321086237575349
11471102 20 18272652342339085360
11615757 297 17274827990590039114
12119455 92 17704353268721617615
12236239 1 16805324392384199700
13214271 11 18411698820354959911
13544592 145 18339933614647672166
13675066 3 18260274065934374739
14943859 89 18409730655770380115
15196674 1 18410574010921274411
15219456 202 18342177782314670806
15242439 84 18413110545818642934
15375358 24 18413109467597573118
15536298 74 18413389843378835682
17834072 33 17988638627449716143
18186145 218 18187357731608176156
19141452 34 18412265056011149135
200 152 17632856429961621895
20279233 1 18341900692504948102
20510252 161 18341050727088356921
20645477 56 18334576837030923901
20645477 70 17988927721799039806
21065198 57 18411982481258858602
21267235 1 18409458002371905571
22485316 2 18413388747935588286
23402539 116 18342450444129234197
23402655 69 18272932730472811940
23557571 272 18270409398231207871
23559900 14 18412544306326539130
26918003 58 18272087193188302930
293599 30 18335420111363637597
3004659 81 18188778241557301222
335352 9 18410293566747277710
34934 24 18408880737281904723
351380 180 18342173366829840620
3545911 37 18411420609342403892
42 15 18335139791258096450
4214541 1 18411138038922023529
474 4 16444482384683783804
495365 180 17703777142204106162
4990 188 18272092673466443310
5104073 3 18410574006673865290
542803 24 16877946044345223180
633830 44 18040714800681121406
69090 78 18342453750921937439
7364860 26 18265329504551478986
77779 3 18412265051420574634
8272917 22 17703235005314347110
9709674 26 18411706508193926046

>  <PUBCHEM_SHAPE_MULTIPOLES>  (1) 
324.29
10.39
1.61
0.68
0.36
0.17
0
-1.65
0.32
-0.37
-0.05
0.04
0.01
0.56

>  <PUBCHEM_SHAPE_SELFOVERLAP>  (1) 
704.731

>  <PUBCHEM_SHAPE_VOLUME>  (1) 
179.5

>  <PUBCHEM_COORDINATE_TYPE>  (1) 
2
5
10

$$$$
