35357
     RDKit          3D

 13 13  0  0  0  0  0  0  0  0999 V2000
    0.1220    2.1667    1.2937 O   0  0  0  0  0  0  0  0  0  0  0  0
    2.7573   -1.3120    0.5227 O   0  0  0  0  0  0  0  0  0  0  0  0
    0.1430    2.4241   -0.9647 O   0  0  0  0  0  0  0  0  0  0  0  0
    2.4789    0.6737   -0.5480 O   0  0  0  0  0  0  0  0  0  0  0  0
   -1.7554   -0.0583   -0.0061 C   0  0  0  0  0  0  0  0  0  0  0  0
   -0.4068    0.2983   -0.0146 C   0  0  0  0  0  0  0  0  0  0  0  0
    0.5758   -0.6908   -0.0583 C   0  0  0  0  0  0  0  0  0  0  0  0
   -2.1212   -1.4040   -0.0413 C   0  0  0  0  0  0  0  0  0  0  0  0
    0.2098   -2.0364   -0.0934 C   0  0  0  0  0  0  0  0  0  0  0  0
   -2.8310    0.9781    0.0401 C   0  0  0  0  0  0  0  0  0  0  0  0
   -1.1386   -2.3930   -0.0849 C   0  0  0  0  0  0  0  0  0  0  0  0
   -0.0277    1.7076    0.0231 C   0  0  0  0  0  0  0  0  0  0  0  0
    1.9939   -0.3539   -0.0683 C   0  0  0  0  0  0  0  0  0  0  0  0
  1 12  1  0
  2 13  1  0
  3 12  2  0
  4 13  2  0
  5  6  2  0
  5  8  1  0
  5 10  1  0
  6  7  1  0
  6 12  1  0
  7  9  2  0
  7 13  1  0
  8 11  2  0
  9 11  1  0
M  END
>  <PUBCHEM_COMPOUND_CID>  (1) 
35357

>  <PUBCHEM_CONFORMER_RMSD>  (1) 
0.6

>  <PUBCHEM_CONFORMER_DIVERSEORDER>  (1) 
1
2
3

>  <PUBCHEM_MMFF94_PARTIAL_CHARGES>  (1) 
18
1 -0.65
10 0.14
11 -0.15
12 0.63
13 0.63
14 0.15
15 0.15
19 0.15
2 -0.65
20 0.5
21 0.5
3 -0.57
4 -0.57
5 -0.14
6 0.09
7 0.09
8 -0.15
9 -0.15

>  <PUBCHEM_EFFECTIVE_ROTOR_COUNT>  (1) 
2

>  <PUBCHEM_PHARMACOPHORE_FEATURES>  (1) 
7
1 1 acceptor
1 2 acceptor
1 3 acceptor
1 4 acceptor
3 1 3 12 anion
3 2 4 13 anion
6 5 6 7 8 9 11 rings

>  <PUBCHEM_HEAVY_ATOM_COUNT>  (1) 
13

>  <PUBCHEM_ATOM_DEF_STEREO_COUNT>  (1) 
0

>  <PUBCHEM_ATOM_UDEF_STEREO_COUNT>  (1) 
0

>  <PUBCHEM_BOND_DEF_STEREO_COUNT>  (1) 
0

>  <PUBCHEM_BOND_UDEF_STEREO_COUNT>  (1) 
0

>  <PUBCHEM_ISOTOPIC_ATOM_COUNT>  (1) 
0

>  <PUBCHEM_COMPONENT_COUNT>  (1) 
1

>  <PUBCHEM_CACTVS_TAUTO_COUNT>  (1) 
1

>  <PUBCHEM_CONFORMER_ID>  (1) 
00008A1D00000001

>  <PUBCHEM_MMFF94_ENERGY>  (1) 
44.6358

>  <PUBCHEM_FEATURE_SELFOVERLAP>  (1) 
35.639

>  <PUBCHEM_SHAPE_FINGERPRINT>  (1) 
11206711 2 18266457788127838703
12423570 1 11535486239855748417
12524768 44 18342466927908059806
13380535 220 18264490753072054885
14614273 12 17903635181316057364
161256 15 17764313138219674463
16945 1 18408044017623055877
193761 8 18050567640557900031
20511035 2 18126564759041093263
20588541 1 18339923688977990919
22802520 49 17914363232501637854
2334 1 18410856594000002182
23419403 2 16045544351283381147
23552423 10 17759239987253114783
23559900 14 18271809000331666302
241688 4 16463611236447599203
2748010 2 18411421704374649583
2897 32 18120659298951581980
5084963 1 17912924981029413458
5255222 1 17836089240285606433
528886 8 18338230475357003859
66348 1 18266739275699189999

>  <PUBCHEM_SHAPE_MULTIPOLES>  (1) 
244.06
3.21
2.73
0.78
0.42
0.28
0.07
-0.46
0.02
-0.3
0.02
0.11
0.32
-0.2

>  <PUBCHEM_SHAPE_SELFOVERLAP>  (1) 
520.75

>  <PUBCHEM_SHAPE_VOLUME>  (1) 
135.9

>  <PUBCHEM_COORDINATE_TYPE>  (1) 
2
5
10

$$$$
