35352
     RDKit          3D

 18 18  0  0  0  0  0  0  0  0999 V2000
   -0.2123   -1.8400    1.6297 O   0  0  0  0  0  0  0  0  0  0  0  0
   -0.6749    0.9844   -1.9068 O   0  0  0  0  0  0  0  0  0  0  0  0
    3.5664    0.1239   -0.2231 O   0  0  0  0  0  0  0  0  0  0  0  0
   -1.0988   -2.0451   -1.2000 O   0  0  0  0  0  0  0  0  0  0  0  0
    1.7044   -0.7854    0.8297 N   0  0  0  0  0  0  0  0  0  0  0  0
    1.4616    0.6985   -1.0243 N   0  0  0  0  0  0  0  0  0  0  0  0
   -0.4953    0.1909    0.3624 C   0  0  0  0  0  0  0  0  0  0  0  0
   -1.9554   -0.2626    0.1912 C   0  0  0  0  0  0  0  0  0  0  0  0
   -0.4618    1.3954    1.3211 C   0  0  0  0  0  0  0  0  0  0  0  0
    0.3190   -0.9297    0.9924 C   0  0  0  0  0  0  0  0  0  0  0  0
    0.0608    0.6460   -0.9788 C   0  0  0  0  0  0  0  0  0  0  0  0
    2.3369    0.0357   -0.1328 C   0  0  0  0  0  0  0  0  0  0  0  0
   -2.0667   -1.4862   -0.6863 C   0  0  0  0  0  0  0  0  0  0  0  0
   -1.3042    2.5108    0.7984 C   0  0  0  0  0  0  0  0  0  0  0  0
    2.5737   -1.6364    1.6355 C   0  0  0  0  0  0  0  0  0  0  0  0
    2.0763    1.3928   -2.1508 C   0  0  0  0  0  0  0  0  0  0  0  0
   -3.4661   -2.0000   -0.9046 C   0  0  0  0  0  0  0  0  0  0  0  0
   -2.3636    3.0070    1.4472 C   0  0  0  0  0  0  0  0  0  0  0  0
  1 10  2  0
  2 11  2  0
  3 12  2  0
  4 13  2  0
  5 10  1  0
  5 12  1  0
  5 15  1  0
  6 11  1  0
  6 12  1  0
  6 16  1  0
  7  8  1  0
  7  9  1  0
  7 10  1  0
  7 11  1  0
  8 13  1  0
  9 14  1  0
 13 17  1  0
 14 18  2  0
M  END
>  <PUBCHEM_COMPOUND_CID>  (1) 
35352

>  <PUBCHEM_CONFORMER_RMSD>  (1) 
0.6

>  <PUBCHEM_CONFORMER_DIVERSEORDER>  (1) 
1
12
27
6
8
29
26
18
4
32
3
25
31
22
20
16
14
17
2
7
28
5
30
15
19
24
23
21
13
10
11
9

>  <PUBCHEM_MMFF94_PARTIAL_CHARGES>  (1) 
21
1 -0.57
10 0.57
11 0.57
12 0.69
13 0.45
14 -0.29
15 0.3
16 0.3
17 0.06
18 -0.3
2 -0.57
23 0.15
3 -0.57
33 0.15
34 0.15
4 -0.57
5 -0.42
6 -0.42
7 0.12
8 0.06
9 0.14

>  <PUBCHEM_EFFECTIVE_ROTOR_COUNT>  (1) 
4.6

>  <PUBCHEM_PHARMACOPHORE_FEATURES>  (1) 
6
1 1 acceptor
1 18 hydrophobe
1 2 acceptor
1 3 acceptor
1 4 acceptor
6 5 6 7 10 11 12 rings

>  <PUBCHEM_HEAVY_ATOM_COUNT>  (1) 
18

>  <PUBCHEM_ATOM_DEF_STEREO_COUNT>  (1) 
0

>  <PUBCHEM_ATOM_UDEF_STEREO_COUNT>  (1) 
0

>  <PUBCHEM_BOND_DEF_STEREO_COUNT>  (1) 
0

>  <PUBCHEM_BOND_UDEF_STEREO_COUNT>  (1) 
0

>  <PUBCHEM_ISOTOPIC_ATOM_COUNT>  (1) 
0

>  <PUBCHEM_COMPONENT_COUNT>  (1) 
1

>  <PUBCHEM_CACTVS_TAUTO_COUNT>  (1) 
3

>  <PUBCHEM_CONFORMER_ID>  (1) 
00008A1800000001

>  <PUBCHEM_MMFF94_ENERGY>  (1) 
43.4846

>  <PUBCHEM_FEATURE_SELFOVERLAP>  (1) 
30.449

>  <PUBCHEM_SHAPE_FINGERPRINT>  (1) 
11578080 2 18047435024562108525
12423570 1 14010495185770278632
13380537 58 17987247633213032224
13538477 17 18340762637677160145
13898156 1 18336840709639020953
14004458 79 18059589013342082461
14617773 55 18336260167499367058
14787075 74 17906717460749561240
14817 1 11439738284538550089
15852999 172 17272577105351472501
15881359 60 17387968664643240184
15906896 17 18194711244142570425
16945 1 18201152170172713569
18721546 61 18053981490902126777
20233049 118 18341038710170347615
20511035 2 15516146669520036146
20600515 1 17344354590460073343
21524375 3 17977416882585419009
22112679 90 18200326536088511531
23419403 2 17543855400579195856
2748010 2 17025148519696629948
3052486 1 18131079204030689305
4175511 376 17191789792879283797
427121 178 17128463000235220593
528886 8 17314494006365079863
5845 1 13564608581885598041
6442390 28 16984098270359393753
68419 9 18338248075980086425
6992083 37 17974840675470120298
7364860 26 17408792672265721415
81228 2 17988100961963589105

>  <PUBCHEM_SHAPE_MULTIPOLES>  (1) 
336.99
4.15
2.81
1.93
0.97
1.04
-0.4
-0.95
-0.28
-2.74
0.69
0.69
0.2
-2.13

>  <PUBCHEM_SHAPE_SELFOVERLAP>  (1) 
695.589

>  <PUBCHEM_SHAPE_VOLUME>  (1) 
191

>  <PUBCHEM_COORDINATE_TYPE>  (1) 
2
5
10

$$$$
