35359
     RDKit          3D

 12 12  0  0  0  0  0  0  0  0999 V2000
    0.1704    2.7267   -0.0003 Cl  0  0  0  0  0  0  0  0  0  0  0  0
    0.1682   -2.7259    0.0014 Cl  0  0  0  0  0  0  0  0  0  0  0  0
    2.0833    1.2511   -0.0002 F   0  0  0  0  0  0  0  0  0  0  0  0
    2.0820   -0.6275    1.0836 F   0  0  0  0  0  0  0  0  0  0  0  0
    2.0599   -0.6300   -1.0909 F   0  0  0  0  0  0  0  0  0  0  0  0
    0.0439    0.0004    0.0007 C   0  0  0  0  0  0  0  0  0  0  0  0
   -0.6531    1.2087    0.0004 C   0  0  0  0  0  0  0  0  0  0  0  0
   -0.6540   -1.2073    0.0014 C   0  0  0  0  0  0  0  0  0  0  0  0
    1.5421   -0.0001    0.0004 C   0  0  0  0  0  0  0  0  0  0  0  0
   -2.0480    1.2092    0.0006 C   0  0  0  0  0  0  0  0  0  0  0  0
   -2.0488   -1.2067    0.0017 C   0  0  0  0  0  0  0  0  0  0  0  0
   -2.7459    0.0015    0.0012 C   0  0  0  0  0  0  0  0  0  0  0  0
  1  7  1  0
  2  8  1  0
  3  9  1  0
  4  9  1  0
  5  9  1  0
  6  7  2  0
  6  8  1  0
  6  9  1  0
  7 10  1  0
  8 11  2  0
 10 12  2  0
 11 12  1  0
M  END
>  <PUBCHEM_COMPOUND_CID>  (1) 
35359

>  <PUBCHEM_CONFORMER_RMSD>  (1) 
0.4

>  <PUBCHEM_CONFORMER_DIVERSEORDER>  (1) 
1

>  <PUBCHEM_MMFF94_PARTIAL_CHARGES>  (1) 
15
1 -0.18
10 -0.15
11 -0.15
12 -0.15
13 0.15
14 0.15
15 0.15
2 -0.18
3 -0.34
4 -0.34
5 -0.34
6 -0.14
7 0.18
8 0.18
9 1.16

>  <PUBCHEM_EFFECTIVE_ROTOR_COUNT>  (1) 
1

>  <PUBCHEM_PHARMACOPHORE_FEATURES>  (1) 
1
6 6 7 8 10 11 12 rings

>  <PUBCHEM_HEAVY_ATOM_COUNT>  (1) 
12

>  <PUBCHEM_ATOM_DEF_STEREO_COUNT>  (1) 
0

>  <PUBCHEM_ATOM_UDEF_STEREO_COUNT>  (1) 
0

>  <PUBCHEM_BOND_DEF_STEREO_COUNT>  (1) 
0

>  <PUBCHEM_BOND_UDEF_STEREO_COUNT>  (1) 
0

>  <PUBCHEM_ISOTOPIC_ATOM_COUNT>  (1) 
0

>  <PUBCHEM_COMPONENT_COUNT>  (1) 
1

>  <PUBCHEM_CACTVS_TAUTO_COUNT>  (1) 
1

>  <PUBCHEM_CONFORMER_ID>  (1) 
00008A1F00000001

>  <PUBCHEM_MMFF94_ENERGY>  (1) 
27.4407

>  <PUBCHEM_FEATURE_SELFOVERLAP>  (1) 
5.074

>  <PUBCHEM_SHAPE_FINGERPRINT>  (1) 
12423570 1 11204864562077866581
12524768 44 18342178915969681237
16945 1 18266459793766548741
18185500 45 18263640826135770779
193761 8 17689998929788733281
21040471 1 17906171754646520197
22802520 49 18056785185465774270
2334 1 18410856607011173289
23552423 10 18119254969390044407
23559900 14 18127418848407712726
241688 4 18269002994046978873
2748010 2 18410855477466384077
5084963 1 18059862731217303835
5255222 1 17980205175358802113
66348 1 18410293596975565713

>  <PUBCHEM_SHAPE_MULTIPOLES>  (1) 
228.87
3.04
2.72
0.73
0.31
0.09
0
0
-0.01
-0.18
0
-0.25
-0.09
0

>  <PUBCHEM_SHAPE_SELFOVERLAP>  (1) 
469.276

>  <PUBCHEM_SHAPE_VOLUME>  (1) 
134.8

>  <PUBCHEM_COORDINATE_TYPE>  (1) 
2
5
10

$$$$
