35361
     RDKit          3D

 12 12  0  0  0  0  0  0  0  0999 V2000
    2.3945    2.6986    0.0013 Cl  0  0  0  0  0  0  0  0  0  0  0  0
    2.3955   -2.6989   -0.0006 Cl  0  0  0  0  0  0  0  0  0  0  0  0
   -2.5966   -1.2519   -0.0010 F   0  0  0  0  0  0  0  0  0  0  0  0
   -2.5963    0.6262    1.0837 F   0  0  0  0  0  0  0  0  0  0  0  0
   -2.5731    0.6297   -1.0907 F   0  0  0  0  0  0  0  0  0  0  0  0
   -0.5574   -0.0008    0.0017 C   0  0  0  0  0  0  0  0  0  0  0  0
    0.1402   -1.2086    0.0009 C   0  0  0  0  0  0  0  0  0  0  0  0
    0.1399    1.2073    0.0017 C   0  0  0  0  0  0  0  0  0  0  0  0
   -2.0489   -0.0006    0.0005 C   0  0  0  0  0  0  0  0  0  0  0  0
    1.5347    1.2076    0.0013 C   0  0  0  0  0  0  0  0  0  0  0  0
    1.5351   -1.2084    0.0005 C   0  0  0  0  0  0  0  0  0  0  0  0
    2.2323   -0.0002    0.0007 C   0  0  0  0  0  0  0  0  0  0  0  0
  1 10  1  0
  2 11  1  0
  3  9  1  0
  4  9  1  0
  5  9  1  0
  6  7  2  0
  6  8  1  0
  6  9  1  0
  7 11  1  0
  8 10  2  0
 10 12  1  0
 11 12  2  0
M  END
>  <PUBCHEM_COMPOUND_CID>  (1) 
35361

>  <PUBCHEM_CONFORMER_RMSD>  (1) 
0.4

>  <PUBCHEM_CONFORMER_DIVERSEORDER>  (1) 
1

>  <PUBCHEM_MMFF94_PARTIAL_CHARGES>  (1) 
15
1 -0.18
10 0.18
11 0.18
12 -0.15
13 0.15
14 0.15
15 0.15
2 -0.18
3 -0.34
4 -0.34
5 -0.34
6 -0.14
7 -0.15
8 -0.15
9 1.16

>  <PUBCHEM_EFFECTIVE_ROTOR_COUNT>  (1) 
1

>  <PUBCHEM_PHARMACOPHORE_FEATURES>  (1) 
1
6 6 7 8 10 11 12 rings

>  <PUBCHEM_HEAVY_ATOM_COUNT>  (1) 
12

>  <PUBCHEM_ATOM_DEF_STEREO_COUNT>  (1) 
0

>  <PUBCHEM_ATOM_UDEF_STEREO_COUNT>  (1) 
0

>  <PUBCHEM_BOND_DEF_STEREO_COUNT>  (1) 
0

>  <PUBCHEM_BOND_UDEF_STEREO_COUNT>  (1) 
0

>  <PUBCHEM_ISOTOPIC_ATOM_COUNT>  (1) 
0

>  <PUBCHEM_COMPONENT_COUNT>  (1) 
1

>  <PUBCHEM_CACTVS_TAUTO_COUNT>  (1) 
1

>  <PUBCHEM_CONFORMER_ID>  (1) 
00008A2100000001

>  <PUBCHEM_MMFF94_ENERGY>  (1) 
17.7446

>  <PUBCHEM_FEATURE_SELFOVERLAP>  (1) 
5.074

>  <PUBCHEM_SHAPE_FINGERPRINT>  (1) 
1 1 18338236089084942716
12423570 1 9222668792121698030
12932764 1 17821729403604614635
13380535 76 18120933069152602458
14325111 11 18266458895907673128
14648413 74 18335416846460440385
16945 1 18410855438911872612
17990270 104 18409163290390358770
18380122 1 17969509388547765875
193761 8 18122626050930089328
19973954 147 18409446968764361533
20645477 70 18409439302712234919
20711985 344 17399789402763683578
20871998 22 18054232025188066982
21040471 1 18050568748802023584
21524375 3 18047468121790639552
23552423 10 18412266150731781358
241688 4 17906171755063070114
2748010 2 18120944068605987036
5084963 1 18263643020974932729
63268167 104 18410857629128876944
7364860 26 18413108368507659042
81228 2 17401768523814778826

>  <PUBCHEM_SHAPE_MULTIPOLES>  (1) 
228.87
4.09
2.69
0.73
2.21
0.09
0
0.01
0
-3
0
0.3
-0.09
0

>  <PUBCHEM_SHAPE_SELFOVERLAP>  (1) 
464.135

>  <PUBCHEM_SHAPE_VOLUME>  (1) 
136.8

>  <PUBCHEM_COORDINATE_TYPE>  (1) 
2
5
10

$$$$
