35363
     RDKit          3D

  9  9  0  0  1  0  0  0  0  0999 V2000
    0.6722   -0.5780   -0.0148 C   0  0  0  0  0  0  0  0  0  0  0  0
    0.4093    0.9168   -0.3928 C   0  0  0  0  0  0  0  0  0  0  0  0
   -0.5652   -1.4277   -0.4074 C   0  0  0  0  0  0  0  0  0  0  0  0
   -0.9240    1.4385    0.1763 C   0  0  0  0  0  0  0  0  0  0  0  0
   -1.8776   -0.8975    0.1643 C   0  0  0  0  0  0  0  0  0  0  0  0
   -2.1032    0.5576   -0.2204 C   0  0  0  0  0  0  0  0  0  0  0  0
    0.9707   -0.7602    1.4884 C   0  0  0  0  0  0  0  0  0  0  0  0
    1.8824   -1.1273   -0.8014 C   0  0  0  0  0  0  0  0  0  0  0  0
    1.5353    1.8778    0.0078 C   0  0  0  0  0  0  0  0  0  0  0  0
  1  2  1  0
  1  3  1  0
  1  7  1  0
  1  8  1  0
  2  4  1  0
  2  9  1  0
  3  5  1  0
  4  6  1  0
  5  6  1  0
M  END
>  <PUBCHEM_COMPOUND_CID>  (1) 
35363

>  <PUBCHEM_CONFORMER_RMSD>  (1) 
0.4

>  <PUBCHEM_CONFORMER_DIVERSEORDER>  (1) 
1
3
2
4

>  <PUBCHEM_MMFF94_PARTIAL_CHARGES>  (1) 
0

>  <PUBCHEM_EFFECTIVE_ROTOR_COUNT>  (1) 
1.2

>  <PUBCHEM_PHARMACOPHORE_FEATURES>  (1) 
2
3 1 7 8 hydrophobe
6 1 2 3 4 5 6 rings

>  <PUBCHEM_HEAVY_ATOM_COUNT>  (1) 
9

>  <PUBCHEM_ATOM_DEF_STEREO_COUNT>  (1) 
0

>  <PUBCHEM_ATOM_UDEF_STEREO_COUNT>  (1) 
1

>  <PUBCHEM_BOND_DEF_STEREO_COUNT>  (1) 
0

>  <PUBCHEM_BOND_UDEF_STEREO_COUNT>  (1) 
0

>  <PUBCHEM_ISOTOPIC_ATOM_COUNT>  (1) 
0

>  <PUBCHEM_COMPONENT_COUNT>  (1) 
1

>  <PUBCHEM_CACTVS_TAUTO_COUNT>  (1) 
1

>  <PUBCHEM_CONFORMER_ID>  (1) 
00008A2300000001

>  <PUBCHEM_MMFF94_ENERGY>  (1) 
17.7421

>  <PUBCHEM_FEATURE_SELFOVERLAP>  (1) 
10.148

>  <PUBCHEM_SHAPE_FINGERPRINT>  (1) 
12423570 1 18200307839774326418
137420 1 9399573688780647290
16714656 1 18051421660218183078
16945 1 18411427193337208782
18185500 45 18043808680414882715
21040471 1 18194965368577830661
23552423 10 18261678167778554887
241688 4 17404301798383661131
24536 1 18271795818174805269
2748010 2 18410295843396494493
29004967 10 18200320909386168854
5084963 1 17917427571439527295
68250623 7 18191581072098753066

>  <PUBCHEM_SHAPE_MULTIPOLES>  (1) 
185.22
2.46
1.92
0.98
0.59
0.54
-0.29
-0.04
0.21
-0.41
0.1
-0.35
-0.27
0.05

>  <PUBCHEM_SHAPE_SELFOVERLAP>  (1) 
356.079

>  <PUBCHEM_SHAPE_VOLUME>  (1) 
114.5

>  <PUBCHEM_COORDINATE_TYPE>  (1) 
2
5
10

$$$$
