35374
     RDKit          3D

 11 10  0  0  0  0  0  0  0  0999 V2000
   -0.5812   -0.6159   -1.2897 S   0  0  0  0  0  0  0  0  0  0  0  0
   -2.4281   -2.1130    0.4805 S   0  0  0  0  0  0  0  0  0  0  0  0
    2.9759    0.2578    1.4624 O   0  0  0  0  0  0  0  0  0  0  0  0
   -2.6233    0.6037    0.0307 N   0  0  0  0  0  0  0  0  0  0  0  0
    2.0913   -0.1669   -0.7270 C   0  0  0  0  0  0  0  0  0  0  0  0
    0.7232   -0.3112   -0.0742 C   0  0  0  0  0  0  0  0  0  0  0  0
    3.2064    0.1215    0.2607 C   0  0  0  0  0  0  0  0  0  0  0  0
   -1.9833   -0.6306   -0.1979 C   0  0  0  0  0  0  0  0  0  0  0  0
   -3.7847    0.7335    0.9139 C   0  0  0  0  0  0  0  0  0  0  0  0
   -2.2006    1.8705   -0.5743 C   0  0  0  0  0  0  0  0  0  0  0  0
    4.6044    0.2507   -0.2852 C   0  0  0  0  0  0  0  0  0  0  0  0
  1  6  1  0
  1  8  1  0
  2  8  2  0
  3  7  2  0
  4  8  1  0
  4  9  1  0
  4 10  1  0
  5  6  1  0
  5  7  1  0
  7 11  1  0
M  END
>  <PUBCHEM_COMPOUND_CID>  (1) 
35374

>  <PUBCHEM_CONFORMER_RMSD>  (1) 
0.6

>  <PUBCHEM_CONFORMER_DIVERSEORDER>  (1) 
1
43
89
45
83
9
125
63
26
108
15
41
23
68
117
76
99
127
52
112
60
88
73
100
29
95
85
66
122
82
42
39
90
49
36
31
75
74
103
106
69
33
113
133
93
47
14
126
5
50
77
118
6
121
3
134
56
98
12
84
124
37
20
46
109
62
54
107
59
13
28
131
61
10
119
130
40
104
34
4
57
128
115
16
32
30
120
71
97
132
78
67
24
102
86
27
17
114
116
94
22
44
80
129
64
96
53
105
92
111
110
81
72
55
79
91
38
65
21
87
48
11
101
8
58
7
123
25
51
70
35
18
19
2

>  <PUBCHEM_MMFF94_PARTIAL_CHARGES>  (1) 
11
1 -0.37
10 0.3
11 0.06
2 -0.38
3 -0.57
4 -0.66
5 0.06
6 0.23
7 0.45
8 0.58
9 0.3

>  <PUBCHEM_EFFECTIVE_ROTOR_COUNT>  (1) 
5

>  <PUBCHEM_PHARMACOPHORE_FEATURES>  (1) 
2
1 2 acceptor
1 3 acceptor

>  <PUBCHEM_HEAVY_ATOM_COUNT>  (1) 
11

>  <PUBCHEM_ATOM_DEF_STEREO_COUNT>  (1) 
0

>  <PUBCHEM_ATOM_UDEF_STEREO_COUNT>  (1) 
0

>  <PUBCHEM_BOND_DEF_STEREO_COUNT>  (1) 
0

>  <PUBCHEM_BOND_UDEF_STEREO_COUNT>  (1) 
0

>  <PUBCHEM_ISOTOPIC_ATOM_COUNT>  (1) 
0

>  <PUBCHEM_COMPONENT_COUNT>  (1) 
1

>  <PUBCHEM_CACTVS_TAUTO_COUNT>  (1) 
3

>  <PUBCHEM_CONFORMER_ID>  (1) 
00008A2E00000001

>  <PUBCHEM_MMFF94_ENERGY>  (1) 
25.2725

>  <PUBCHEM_FEATURE_SELFOVERLAP>  (1) 
10.149

>  <PUBCHEM_SHAPE_FINGERPRINT>  (1) 
122479 349 18131356280454402161
12251169 10 18113340812155081349
124424 183 17917425402665691622
12932764 1 17703503389563074622
14445660 50 18113902675666477390
15375462 189 17022618693606872928
15775835 57 17632577128101187231
18186145 218 15984827081756993086
20281407 28 14129059188326828454
20645464 45 18202289091187346295
20645477 70 16988572238912300646
21119208 17 13183019596742383832
22485316 2 14056719049786315705
23402539 116 18342171215879816583
23402655 69 14692574299541715816
23500284 214 18059864926351650801
27216 239 17988920110931984873
3086196 2 18265335186898576571
3248919 1 18334570269862586710

>  <PUBCHEM_SHAPE_MULTIPOLES>  (1) 
223.22
7.85
1.6
1.13
6.54
0.21
-0.03
-1.37
-1.92
-2.21
-0.01
0.12
0.01
0.17

>  <PUBCHEM_SHAPE_SELFOVERLAP>  (1) 
388.888

>  <PUBCHEM_SHAPE_VOLUME>  (1) 
150.1

>  <PUBCHEM_COORDINATE_TYPE>  (1) 
2
5
10

$$$$
