35371
     RDKit          3D

 19 19  0  0  0  0  0  0  0  0999 V2000
    4.8628   -0.3017   -1.0651 Cl  0  0  0  0  0  0  0  0  0  0  0  0
    0.6545    1.9861    0.5746 O   0  0  0  0  0  0  0  0  0  0  0  0
   -1.0944    0.4652    1.8193 O   0  0  0  0  0  0  0  0  0  0  0  0
   -1.4655   -1.5556    0.7421 N   0  0  0  0  0  0  0  0  0  0  0  0
    3.2724   -2.8195   -0.4388 N   0  0  0  0  0  0  0  0  0  0  0  0
   -3.8225   -1.1059    0.1907 C   0  0  0  0  0  0  0  0  0  0  0  0
   -2.8276   -1.7280    1.1650 C   0  0  0  0  0  0  0  0  0  0  0  0
   -3.7481   -1.7302   -1.2045 C   0  0  0  0  0  0  0  0  0  0  0  0
    0.6845   -0.4118    0.5683 C   0  0  0  0  0  0  0  0  0  0  0  0
   -0.6983   -0.4557    1.1097 C   0  0  0  0  0  0  0  0  0  0  0  0
   -4.7907   -1.1328   -2.1364 C   0  0  0  0  0  0  0  0  0  0  0  0
    1.2894    0.8054    0.3293 C   0  0  0  0  0  0  0  0  0  0  0  0
    1.3237   -1.6104    0.3205 C   0  0  0  0  0  0  0  0  0  0  0  0
    2.6226   -1.5899   -0.1876 C   0  0  0  0  0  0  0  0  0  0  0  0
    2.5883    0.8258   -0.1788 C   0  0  0  0  0  0  0  0  0  0  0  0
    3.2550   -0.3719   -0.4373 C   0  0  0  0  0  0  0  0  0  0  0  0
    0.4641    2.8616   -0.5346 C   0  0  0  0  0  0  0  0  0  0  0  0
   -0.7764    3.6222   -0.3806 C   0  0  0  0  0  0  0  0  0  0  0  0
   -1.7937    4.2471   -0.2557 C   0  0  0  0  0  0  0  0  0  0  0  0
  1 16  1  0
  2 12  1  0
  2 17  1  0
  3 10  2  0
  4  7  1  0
  4 10  1  0
  5 14  1  0
  6  7  1  0
  6  8  1  0
  8 11  1  0
  9 10  1  0
  9 12  2  0
  9 13  1  0
 12 15  1  0
 13 14  2  0
 14 16  1  0
 15 16  2  0
 17 18  1  0
 18 19  3  0
M  END
>  <PUBCHEM_COMPOUND_CID>  (1) 
35371

>  <PUBCHEM_CONFORMER_RMSD>  (1) 
0.8

>  <PUBCHEM_CONFORMER_DIVERSEORDER>  (1) 
2
136
142
158
56
62
49
67
144
69
27
116
119
139
122
63
6
146
7
143
105
79
135
70
134
125
22
128
98
9
30
90
126
108
85
26
73
151
38
34
71
124
129
5
16
96
10
113
52
33
123
20
132
51
92
18
39
74
114
60
47
81
77
41
11
35
121
14
101
59
102
68
157
3
87
55
31
75
4
137
148
82
65
111
153
100
159
160
140
29
80
40
15
46
83
32
89
118
24
28
50
37
147
88
138
1
23
91
133
115
152
13
42
58
130
155
154
97
45
106
120
109
66
78
25
53
44
112
117
131
43
12
99
94
141
150
8
72
145
48
156
76
110
17
84
61
36
104
103
127
149
64
93
54
21
19
95
86
107
57

>  <PUBCHEM_MMFF94_PARTIAL_CHARGES>  (1) 
22
1 -0.18
10 0.54
12 0.08
13 -0.15
14 0.1
15 -0.15
16 0.18
17 0.48
18 -0.2
19 -0.18
2 -0.36
26 0.37
3 -0.57
30 0.15
31 0.15
32 0.4
33 0.4
36 0.18
4 -0.73
5 -0.9
7 0.3
9 0.09

>  <PUBCHEM_EFFECTIVE_ROTOR_COUNT>  (1) 
7

>  <PUBCHEM_PHARMACOPHORE_FEATURES>  (1) 
8
1 11 hydrophobe
1 19 hydrophobe
1 2 acceptor
1 3 acceptor
1 4 donor
1 5 cation
1 5 donor
6 9 12 13 14 15 16 rings

>  <PUBCHEM_HEAVY_ATOM_COUNT>  (1) 
19

>  <PUBCHEM_ATOM_DEF_STEREO_COUNT>  (1) 
0

>  <PUBCHEM_ATOM_UDEF_STEREO_COUNT>  (1) 
0

>  <PUBCHEM_BOND_DEF_STEREO_COUNT>  (1) 
0

>  <PUBCHEM_BOND_UDEF_STEREO_COUNT>  (1) 
0

>  <PUBCHEM_ISOTOPIC_ATOM_COUNT>  (1) 
0

>  <PUBCHEM_COMPONENT_COUNT>  (1) 
1

>  <PUBCHEM_CACTVS_TAUTO_COUNT>  (1) 
2

>  <PUBCHEM_CONFORMER_ID>  (1) 
00008A2B00000002

>  <PUBCHEM_MMFF94_ENERGY>  (1) 
52.4249

>  <PUBCHEM_FEATURE_SELFOVERLAP>  (1) 
40.604

>  <PUBCHEM_SHAPE_FINGERPRINT>  (1) 
11578080 2 17702926068195498488
116883 192 18337953385325572549
12553582 1 18409175436436591834
12715332 25 17690562979169458096
12788726 201 18262792973848123571
13134695 92 18337109089286644773
13583140 156 14620232962763551090
13911987 19 18044392732096576294
14508225 48 18408890650551980804
14537116 161 17832942206886080157
15210252 30 17749381572857154213
15806764 133 17896320393288212627
17041 50 18189614019889610515
17357779 13 18335421287377483900
18186145 218 18189049966383198339
18769570 83 15936680579862306220
200 152 18131077060019439666
20567600 299 18051683645345948165
20602899 9 17121135764004463394
20671657 53 18340494460030103915
21344244 181 17123107205997158965
21524375 3 16960151877457713336
221357 26 18335126619131522423
22620623 9 18198641938145839020
23402539 116 18342466940972368106
238 59 17473239442621300911
266924 87 18335146367132588756
2748010 2 17906478849894371026
46194498 28 17975120256888889535
58779409 54 18050569534854891810
59025328 239 17986365941268294663
5969126 39 18412544306432197012
6438718 38 18128540366914863993
7164475 11 18265335010867993686
81228 2 18187654565588930416

>  <PUBCHEM_SHAPE_MULTIPOLES>  (1) 
371.18
7.75
4.24
1.39
1.92
6.22
0.22
-6.07
4.65
1.69
0.6
1.49
-0.5
-0.1

>  <PUBCHEM_SHAPE_SELFOVERLAP>  (1) 
746.846

>  <PUBCHEM_SHAPE_VOLUME>  (1) 
218.2

>  <PUBCHEM_COORDINATE_TYPE>  (1) 
2
5
10

$$$$
