35378
     RDKit          3D

 24 25  0  0  0  0  0  0  0  0999 V2000
    6.6346   -0.6296    0.1707 Cl  0  0  0  0  0  0  0  0  0  0  0  0
    0.3790   -2.0452   -1.3069 O   0  0  0  0  0  0  0  0  0  0  0  0
   -5.6022   -1.0451    0.0766 O   0  0  0  0  0  0  0  0  0  0  0  0
    0.2541    4.3703   -1.4444 O   0  0  0  0  0  0  0  0  0  0  0  0
   -0.8417    4.4585    0.5416 O   0  0  0  0  0  0  0  0  0  0  0  0
   -0.0956   -0.5124    0.4635 N   0  0  0  0  0  0  0  0  0  0  0  0
    0.4459    0.3755    1.4559 C   0  0  0  0  0  0  0  0  0  0  0  0
   -0.0152    1.8208    1.2735 C   0  0  0  0  0  0  0  0  0  0  0  0
   -1.5520   -0.6540    0.3608 C   0  0  0  0  0  0  0  0  0  0  0  0
    0.3394    2.4227   -0.0888 C   0  0  0  0  0  0  0  0  0  0  0  0
    0.7335   -1.2621   -0.4266 C   0  0  0  0  0  0  0  0  0  0  0  0
    2.1930   -1.1048   -0.2782 C   0  0  0  0  0  0  0  0  0  0  0  0
   -2.2783   -0.4852    1.4987 C   0  0  0  0  0  0  0  0  0  0  0  0
   -2.0682   -0.9419   -0.8644 C   0  0  0  0  0  0  0  0  0  0  0  0
   -3.6634   -0.6183    1.4014 C   0  0  0  0  0  0  0  0  0  0  0  0
   -3.4533   -1.0748   -0.9618 C   0  0  0  0  0  0  0  0  0  0  0  0
   -0.1634    3.8386   -0.2656 C   0  0  0  0  0  0  0  0  0  0  0  0
   -4.2510   -0.9132    0.1712 C   0  0  0  0  0  0  0  0  0  0  0  0
    2.8802   -1.9480    0.5780 C   0  0  0  0  0  0  0  0  0  0  0  0
    2.8440   -0.1186   -0.9995 C   0  0  0  0  0  0  0  0  0  0  0  0
    4.2603   -1.8005    0.7174 C   0  0  0  0  0  0  0  0  0  0  0  0
    4.2242    0.0289   -0.8603 C   0  0  0  0  0  0  0  0  0  0  0  0
    4.9324   -0.8122   -0.0019 C   0  0  0  0  0  0  0  0  0  0  0  0
   -6.1365   -1.3492   -1.2110 C   0  0  0  0  0  0  0  0  0  0  0  0
  1 23  1  0
  2 11  2  0
  3 18  1  0
  3 24  1  0
  4 17  1  0
  5 17  2  0
  6  7  1  0
  6  9  1  0
  6 11  1  0
  7  8  1  0
  8 10  1  0
  9 13  2  0
  9 14  1  0
 10 17  1  0
 11 12  1  0
 12 19  2  0
 12 20  1  0
 13 15  1  0
 14 16  2  0
 15 18  2  0
 16 18  1  0
 19 21  1  0
 20 22  2  0
 21 23  2  0
 22 23  1  0
M  END
>  <PUBCHEM_COMPOUND_CID>  (1) 
35378

>  <PUBCHEM_CONFORMER_RMSD>  (1) 
0.8

>  <PUBCHEM_CONFORMER_DIVERSEORDER>  (1) 
1
43
60
66
69
80
48
79
62
89
56
87
28
36
94
41
30
73
31
78
47
99
22
102
77
83
20
29
82
15
74
35
61
95
51
91
40
76
19
33
81
59
84
85
98
90
25
100
57
49
45
53
38
18
55
24
71
12
46
32
39
86
52
50
75
34
96
70
92
42
63
67
3
27
10
64
72
65
7
54
93
14
101
68
11
23
97
26
58
16
8
88
21
2
6
9
4
13
37
5
44
17

>  <PUBCHEM_MMFF94_PARTIAL_CHARGES>  (1) 
32
1 -0.18
10 0.06
11 0.54
12 0.09
13 -0.15
14 -0.15
15 -0.15
16 -0.15
17 0.66
18 0.08
19 -0.15
2 -0.57
20 -0.15
21 -0.15
22 -0.15
23 0.18
24 0.28
3 -0.36
31 0.15
32 0.15
33 0.15
34 0.15
35 0.15
36 0.15
37 0.15
38 0.15
39 0.5
4 -0.65
5 -0.57
6 -0.48
7 0.3
9 0.12

>  <PUBCHEM_EFFECTIVE_ROTOR_COUNT>  (1) 
8

>  <PUBCHEM_PHARMACOPHORE_FEATURES>  (1) 
7
1 2 acceptor
1 3 acceptor
1 4 acceptor
1 5 acceptor
3 4 5 17 anion
6 12 19 20 21 22 23 rings
6 9 13 14 15 16 18 rings

>  <PUBCHEM_HEAVY_ATOM_COUNT>  (1) 
24

>  <PUBCHEM_ATOM_DEF_STEREO_COUNT>  (1) 
0

>  <PUBCHEM_ATOM_UDEF_STEREO_COUNT>  (1) 
0

>  <PUBCHEM_BOND_DEF_STEREO_COUNT>  (1) 
0

>  <PUBCHEM_BOND_UDEF_STEREO_COUNT>  (1) 
0

>  <PUBCHEM_ISOTOPIC_ATOM_COUNT>  (1) 
0

>  <PUBCHEM_COMPONENT_COUNT>  (1) 
1

>  <PUBCHEM_CACTVS_TAUTO_COUNT>  (1) 
1

>  <PUBCHEM_CONFORMER_ID>  (1) 
00008A3200000001

>  <PUBCHEM_MMFF94_ENERGY>  (1) 
89.4846

>  <PUBCHEM_FEATURE_SELFOVERLAP>  (1) 
35.581

>  <PUBCHEM_SHAPE_FINGERPRINT>  (1) 
10670039 82 18264509329850109012
10688039 33 18334857195163306324
10930396 42 18195780030233753138
11045515 52 18334573542553741637
11578080 2 17845073122110625208
12166972 35 18130218372225168795
12236239 1 18343303652410515090
12516196 113 18409164428430299546
12549972 3 12108661557247896236
12788726 201 18261105215284255482
13004483 165 18410002213725723914
13134695 92 18335422412906757413
13590594 115 18408609133016162617
13911987 19 18115608044224533454
14347332 77 18127137377483505990
14556957 393 18115612377988863252
14840074 17 18272658990964433372
15439362 3 18121496027570182769
167882 2 18049162460218473525
17357779 13 18129929101355522645
17492 89 18122623856133801050
17980427 23 17703801323017870521
1813 80 18272381870562159143
18222031 100 18131070441416762051
18336668 15 17988644120792041745
18769570 83 18262523576789389305
18785283 64 17828776366826927265
200 152 18259984851611667650
20238998 120 18342452638647363857
20600515 1 18129400304908179638
20691752 17 18127102330138712490
21049683 271 18188778378104490541
21267235 1 17131836503704394247
21285901 2 17988935426870083782
21304303 282 17393576130900389740
21641784 216 18261972751586667588
23175994 123 18261399957330520883
23402539 116 18412546479026408410
23419403 2 17488154077091795176
23558518 356 17900833651843539754
23559900 14 17023181677994184591
23566358 27 17978510059795666943
249057 3 18271800251515160543
26918003 58 17822016414973946898
283562 15 18337110047418000618
34797466 226 14548462496037187482
3493558 16 17313111860087801957
59554788 62 18056219984907142435
5969126 39 18340480084832482556
59755656 215 12973872698288704282
633830 44 12107796245470479059
7164475 11 18192152599181031118
7495541 125 18189343531645432651

>  <PUBCHEM_SHAPE_MULTIPOLES>  (1) 
467.32
11.44
3.79
1.36
1.4
8.03
0.12
-9.07
-1.36
-0.47
-0.8
-0.69
0.08
-0.81

>  <PUBCHEM_SHAPE_SELFOVERLAP>  (1) 
980.677

>  <PUBCHEM_SHAPE_VOLUME>  (1) 
264.6

>  <PUBCHEM_COORDINATE_TYPE>  (1) 
2
5
10

$$$$
