35381
     RDKit          3D

 26 27  0  0  0  0  0  0  0  0999 V2000
    6.9198    0.7597    0.1111 Cl  0  0  0  0  0  0  0  0  0  0  0  0
   -3.7823    1.2765   -1.9606 O   0  0  0  0  0  0  0  0  0  0  0  0
    0.5947    2.0932   -1.1331 O   0  0  0  0  0  0  0  0  0  0  0  0
   -5.3243    0.8099    0.3043 O   0  0  0  0  0  0  0  0  0  0  0  0
    0.7588   -4.3275   -1.4910 O   0  0  0  0  0  0  0  0  0  0  0  0
   -0.0904   -4.6060    0.5957 O   0  0  0  0  0  0  0  0  0  0  0  0
    0.2058    0.4786    0.5847 N   0  0  0  0  0  0  0  0  0  0  0  0
    0.7957   -0.4233    1.5360 C   0  0  0  0  0  0  0  0  0  0  0  0
    0.3884   -1.8779    1.3058 C   0  0  0  0  0  0  0  0  0  0  0  0
   -1.2563    0.5666    0.5066 C   0  0  0  0  0  0  0  0  0  0  0  0
    0.8208   -2.4407   -0.0508 C   0  0  0  0  0  0  0  0  0  0  0  0
    0.9922    1.2927   -0.2875 C   0  0  0  0  0  0  0  0  0  0  0  0
   -1.8015    0.8803   -0.6998 C   0  0  0  0  0  0  0  0  0  0  0  0
   -1.9590    0.3290    1.6472 C   0  0  0  0  0  0  0  0  0  0  0  0
    2.4584    1.1607   -0.1894 C   0  0  0  0  0  0  0  0  0  0  0  0
   -3.1918    0.9649   -0.7732 C   0  0  0  0  0  0  0  0  0  0  0  0
   -3.3492    0.4136    1.5738 C   0  0  0  0  0  0  0  0  0  0  0  0
   -3.9656    0.7315    0.3636 C   0  0  0  0  0  0  0  0  0  0  0  0
    0.4461   -3.8940   -0.2416 C   0  0  0  0  0  0  0  0  0  0  0  0
    3.1082    0.2276   -0.9791 C   0  0  0  0  0  0  0  0  0  0  0  0
    3.1529    1.9729    0.6910 C   0  0  0  0  0  0  0  0  0  0  0  0
    4.4945    0.1029   -0.8856 C   0  0  0  0  0  0  0  0  0  0  0  0
    4.5390    1.8481    0.7844 C   0  0  0  0  0  0  0  0  0  0  0  0
    5.2098    0.9131   -0.0038 C   0  0  0  0  0  0  0  0  0  0  0  0
   -4.1232    0.1903   -2.8197 C   0  0  0  0  0  0  0  0  0  0  0  0
   -6.0414    0.5572    1.5111 C   0  0  0  0  0  0  0  0  0  0  0  0
  1 24  1  0
  2 16  1  0
  2 25  1  0
  3 12  2  0
  4 18  1  0
  4 26  1  0
  5 19  1  0
  6 19  2  0
  7  8  1  0
  7 10  1  0
  7 12  1  0
  8  9  1  0
  9 11  1  0
 10 13  2  0
 10 14  1  0
 11 19  1  0
 12 15  1  0
 13 16  1  0
 14 17  2  0
 15 20  2  0
 15 21  1  0
 16 18  2  0
 17 18  1  0
 20 22  1  0
 21 23  2  0
 22 24  2  0
 23 24  1  0
M  END
>  <PUBCHEM_COMPOUND_CID>  (1) 
35381

>  <PUBCHEM_CONFORMER_RMSD>  (1) 
1

>  <PUBCHEM_CONFORMER_DIVERSEORDER>  (1) 
3
52
76
89
25
103
54
17
60
77
72
34
85
115
19
106
80
45
42
46
26
112
11
70
97
87
33
38
102
90
39
64
74
82
47
12
65
44
71
91
95
41
101
7
58
57
79
75
37
83
86
32
78
110
59
43
55
116
107
15
9
88
109
5
84
63
96
49
40
108
53
31
81
98
6
48
36
93
13
105
10
35
67
66
94
50
8
92
100
24
20
51
113
21
104
61
16
68
114
23
22
14
99
29
28
18
4
73
27
62
2
111
56
1
69
30
117

>  <PUBCHEM_MMFF94_PARTIAL_CHARGES>  (1) 
33
1 -0.18
10 0.12
11 0.06
12 0.54
13 -0.15
14 -0.15
15 0.09
16 0.08
17 -0.15
18 0.08
19 0.66
2 -0.36
20 -0.15
21 -0.15
22 -0.15
23 -0.15
24 0.18
25 0.28
26 0.28
3 -0.57
33 0.15
34 0.15
35 0.15
36 0.15
37 0.15
38 0.15
39 0.15
4 -0.36
43 0.5
5 -0.65
6 -0.57
7 -0.48
8 0.3

>  <PUBCHEM_EFFECTIVE_ROTOR_COUNT>  (1) 
9

>  <PUBCHEM_PHARMACOPHORE_FEATURES>  (1) 
8
1 2 acceptor
1 3 acceptor
1 4 acceptor
1 5 acceptor
1 6 acceptor
3 5 6 19 anion
6 10 13 14 16 17 18 rings
6 15 20 21 22 23 24 rings

>  <PUBCHEM_HEAVY_ATOM_COUNT>  (1) 
26

>  <PUBCHEM_ATOM_DEF_STEREO_COUNT>  (1) 
0

>  <PUBCHEM_ATOM_UDEF_STEREO_COUNT>  (1) 
0

>  <PUBCHEM_BOND_DEF_STEREO_COUNT>  (1) 
0

>  <PUBCHEM_BOND_UDEF_STEREO_COUNT>  (1) 
0

>  <PUBCHEM_ISOTOPIC_ATOM_COUNT>  (1) 
0

>  <PUBCHEM_COMPONENT_COUNT>  (1) 
1

>  <PUBCHEM_CACTVS_TAUTO_COUNT>  (1) 
1

>  <PUBCHEM_CONFORMER_ID>  (1) 
00008A3500000003

>  <PUBCHEM_MMFF94_ENERGY>  (1) 
106.0242

>  <PUBCHEM_FEATURE_SELFOVERLAP>  (1) 
40.661

>  <PUBCHEM_SHAPE_FINGERPRINT>  (1) 
10764073 3 14782043665148917154
11421498 54 18059581230866526665
11488393 25 18118398445584824402
11524674 6 18341337768110568034
11578080 2 13769582597831908962
11963148 33 16805888510600739483
121448 382 18200019776338811215
12236239 1 17346602962747795273
12403259 415 17822004350020785828
12422481 6 17902832800116679795
12643181 29 18412553124701669006
12788726 201 17616536598230685042
12969540 114 18336258011679225748
14251740 79 18128243683016074575
17138139 8 17555978663053054023
17980427 23 12901545707228185591
18915476 22 18263358101856404943
20197701 30 18412267263276342274
20511986 3 17203039682375257953
21033648 29 18339067268310573656
22182313 1 17676775245613177037
23402539 116 18060420239605923536
23557571 272 17096096779511489645
23559900 14 16734935745248985144
38695281 34 18411135814171409067
4340502 62 18271536354742034427
59755656 215 18113342994441618457
59755656 520 18411701023383006242
633830 44 18130514079932604025
6669772 16 18411986832599579406
7164475 11 17687748654994406226
81228 2 17541943530014894690

>  <PUBCHEM_SHAPE_MULTIPOLES>  (1) 
502.61
12.01
3.6
1.82
3.99
7.8
0.74
-8.14
-0.19
1.29
0.53
-2.52
-0.07
0.54

>  <PUBCHEM_SHAPE_SELFOVERLAP>  (1) 
1052.896

>  <PUBCHEM_SHAPE_VOLUME>  (1) 
285.9

>  <PUBCHEM_COORDINATE_TYPE>  (1) 
2
5
10

$$$$
