35387
     RDKit          3D

 14 16  0  0  0  0  0  0  0  0999 V2000
    1.2097    0.7135   -0.0931 C   0  0  0  0  0  0  0  0  0  0  0  0
   -1.2097   -0.7134   -0.0930 C   0  0  0  0  0  0  0  0  0  0  0  0
    1.2221   -0.6931   -0.0972 C   0  0  0  0  0  0  0  0  0  0  0  0
   -1.2220    0.6931   -0.0970 C   0  0  0  0  0  0  0  0  0  0  0  0
    2.5086    1.4780   -0.1673 C   0  0  0  0  0  0  0  0  0  0  0  0
   -2.5085   -1.4781   -0.1671 C   0  0  0  0  0  0  0  0  0  0  0  0
   -0.0129    1.3983   -0.1067 C   0  0  0  0  0  0  0  0  0  0  0  0
    0.0129   -1.3983   -0.1066 C   0  0  0  0  0  0  0  0  0  0  0  0
    3.6952    0.7079    0.4245 C   0  0  0  0  0  0  0  0  0  0  0  0
   -3.6954   -0.7080    0.4242 C   0  0  0  0  0  0  0  0  0  0  0  0
    2.4993   -1.4137   -0.1060 C   0  0  0  0  0  0  0  0  0  0  0  0
   -2.4994    1.4136   -0.1059 C   0  0  0  0  0  0  0  0  0  0  0  0
    3.6445   -0.7652    0.1457 C   0  0  0  0  0  0  0  0  0  0  0  0
   -3.6445    0.7651    0.1457 C   0  0  0  0  0  0  0  0  0  0  0  0
  1  3  2  0
  1  5  1  0
  1  7  1  0
  2  4  1  0
  2  6  1  0
  2  8  2  0
  3  8  1  0
  3 11  1  0
  4  7  2  0
  4 12  1  0
  5  9  1  0
  6 10  1  0
  9 13  1  0
 10 14  1  0
 11 13  2  0
 12 14  2  0
M  END
>  <PUBCHEM_COMPOUND_CID>  (1) 
35387

>  <PUBCHEM_CONFORMER_RMSD>  (1) 
0.4

>  <PUBCHEM_CONFORMER_DIVERSEORDER>  (1) 
1

>  <PUBCHEM_MMFF94_PARTIAL_CHARGES>  (1) 
20
1 -0.14
10 0.14
11 -0.18
12 -0.18
13 -0.29
14 -0.29
19 0.15
2 -0.14
20 0.15
25 0.15
26 0.15
27 0.15
28 0.15
3 0.03
4 0.03
5 0.14
6 0.14
7 -0.15
8 -0.15
9 0.14

>  <PUBCHEM_EFFECTIVE_ROTOR_COUNT>  (1) 
0.8

>  <PUBCHEM_PHARMACOPHORE_FEATURES>  (1) 
3
6 1 2 3 4 7 8 rings
6 1 3 5 9 11 13 rings
6 2 4 6 10 12 14 rings

>  <PUBCHEM_HEAVY_ATOM_COUNT>  (1) 
14

>  <PUBCHEM_ATOM_DEF_STEREO_COUNT>  (1) 
0

>  <PUBCHEM_ATOM_UDEF_STEREO_COUNT>  (1) 
0

>  <PUBCHEM_BOND_DEF_STEREO_COUNT>  (1) 
0

>  <PUBCHEM_BOND_UDEF_STEREO_COUNT>  (1) 
0

>  <PUBCHEM_ISOTOPIC_ATOM_COUNT>  (1) 
0

>  <PUBCHEM_COMPONENT_COUNT>  (1) 
1

>  <PUBCHEM_CACTVS_TAUTO_COUNT>  (1) 
1

>  <PUBCHEM_CONFORMER_ID>  (1) 
00008A3B00000001

>  <PUBCHEM_MMFF94_ENERGY>  (1) 
29.2333

>  <PUBCHEM_FEATURE_SELFOVERLAP>  (1) 
15.269

>  <PUBCHEM_SHAPE_FINGERPRINT>  (1) 
10411042 1 15744725972170366556
10608611 8 18410852148719322357
10922523 26 18411138008862533990
10967382 1 18410856546765456718
10980938 120 18411420617985047026
11132069 177 18411694391805723768
11471102 20 18410851053560327028
11806522 49 18338230595853705375
12032990 46 18410017615119731742
12251169 10 18410855455833194506
12382932 28 18341894073670071305
12932764 1 17489019465424443116
13140716 1 18410856525280051569
13221675 6 18409166597404250907
13296908 3 18409450271404204102
13380535 76 18411698785668316655
13581323 91 18261111876324759405
14144814 61 18410856555344822387
14325111 11 18410855464423330476
15196674 1 18410573985151451145
15219456 202 18412544297119367654
15309172 13 18272939318894894411
15442244 35 18267304227297236394
15536298 74 18343021090706169678
15775835 57 18343024418868071624
16945 1 18266459793508008046
17804303 29 18339929225190666662
17844478 74 18113059320183299605
18186145 218 18340209596170943180
18522853 276 18412825793876947937
200 152 18131058360432848903
20510252 161 18272653420049102345
20528008 55 18413383229007932521
20645477 70 18340763750237376183
21267235 1 18410583889351726222
21501502 16 18410856602589462647
21501925 9 18408879663555664658
2334 1 18410575127612751973
23402539 116 18342727524969298631
23402655 69 18270104718453675509
23463225 33 18408323289323819548
23559900 14 18269270176005881742
2748010 2 18410856542459920671
335352 9 18122343471560786351
5104073 3 18410856559639790560
528886 8 18411694378978857194
53812653 166 18272083933171235112
69090 78 18343014489325787015
7364860 26 18271245998116275694
84936 31 16270806598313225542
8809292 202 18260835907607249547
9709674 26 18411423929199584718

>  <PUBCHEM_SHAPE_MULTIPOLES>  (1) 
288.11
6.68
1.79
0.65
0
0
0.01
0
0.82
0
-0.08
0
0
0.07

>  <PUBCHEM_SHAPE_SELFOVERLAP>  (1) 
630.86

>  <PUBCHEM_SHAPE_VOLUME>  (1) 
144.9

>  <PUBCHEM_COORDINATE_TYPE>  (1) 
2
5
10

$$$$
