35395
     RDKit          3D

 13 13  0  0  0  0  0  0  0  0999 V2000
   -2.3132    0.4020    0.0053 O   0  0  0  0  0  0  0  0  0  0  0  0
    2.3130    0.4025   -0.0044 O   0  0  0  0  0  0  0  0  0  0  0  0
    0.0000    0.4520   -0.0016 N   0  0  0  0  0  0  0  0  0  0  0  0
    1.2000   -1.6259   -0.0026 N   0  0  0  0  0  0  0  0  0  0  0  0
   -1.1996   -1.6261    0.0023 N   0  0  0  0  0  0  0  0  0  0  0  0
    0.0006   -3.6410    0.0014 N   0  0  0  0  0  0  0  0  0  0  0  0
   -2.2280    1.8197    0.0040 C   0  0  0  0  0  0  0  0  0  0  0  0
    2.2275    1.8203   -0.0053 C   0  0  0  0  0  0  0  0  0  0  0  0
   -1.1221   -0.2856    0.0012 C   0  0  0  0  0  0  0  0  0  0  0  0
    1.1221   -0.2854   -0.0035 C   0  0  0  0  0  0  0  0  0  0  0  0
   -3.6270    2.3979   -0.0060 C   0  0  0  0  0  0  0  0  0  0  0  0
    3.6264    2.3987    0.0089 C   0  0  0  0  0  0  0  0  0  0  0  0
    0.0003   -2.2291    0.0003 C   0  0  0  0  0  0  0  0  0  0  0  0
  1  7  1  0
  1  9  1  0
  2  8  1  0
  2 10  1  0
  3  9  2  0
  3 10  1  0
  4 10  2  0
  4 13  1  0
  5  9  1  0
  5 13  2  0
  6 13  1  0
  7 11  1  0
  8 12  1  0
M  END
>  <PUBCHEM_COMPOUND_CID>  (1) 
35395

>  <PUBCHEM_CONFORMER_RMSD>  (1) 
0.6

>  <PUBCHEM_CONFORMER_DIVERSEORDER>  (1) 
1
2
16
15
7
8
9
6
10
3
11
5
14
13
17
12
4

>  <PUBCHEM_MMFF94_PARTIAL_CHARGES>  (1) 
13
1 -0.36
10 0.7
13 0.72
2 -0.36
24 0.4
25 0.4
3 -0.62
4 -0.62
5 -0.62
6 -0.9
7 0.28
8 0.28
9 0.7

>  <PUBCHEM_EFFECTIVE_ROTOR_COUNT>  (1) 
4

>  <PUBCHEM_PHARMACOPHORE_FEATURES>  (1) 
3
1 6 donor
4 4 5 6 13 cation
6 3 4 5 9 10 13 rings

>  <PUBCHEM_HEAVY_ATOM_COUNT>  (1) 
13

>  <PUBCHEM_ATOM_DEF_STEREO_COUNT>  (1) 
0

>  <PUBCHEM_ATOM_UDEF_STEREO_COUNT>  (1) 
0

>  <PUBCHEM_BOND_DEF_STEREO_COUNT>  (1) 
0

>  <PUBCHEM_BOND_UDEF_STEREO_COUNT>  (1) 
0

>  <PUBCHEM_ISOTOPIC_ATOM_COUNT>  (1) 
0

>  <PUBCHEM_COMPONENT_COUNT>  (1) 
1

>  <PUBCHEM_CACTVS_TAUTO_COUNT>  (1) 
3

>  <PUBCHEM_CONFORMER_ID>  (1) 
00008A4300000001

>  <PUBCHEM_MMFF94_ENERGY>  (1) 
32.4324

>  <PUBCHEM_FEATURE_SELFOVERLAP>  (1) 
15.223

>  <PUBCHEM_SHAPE_FINGERPRINT>  (1) 
1 1 18266178335769266917
13380536 305 18195533592650650326
14648413 74 18120378661862746321
1741750 31 18340768238499507224
19021347 4 18410011082506025640
193761 8 18410856559640315751
20510252 161 18198065982683298617
20671657 1 18196376909706300685
20871998 184 17623863722137787886
21499 59 18409439272415361805
21524375 3 18334006203032986816
21639500 275 18120640337130322109
2306618 200 17912096250141844808
23402539 116 17839458130843919071
2748010 2 18336839640202551487
305870 269 18408319965082630848
3071541 12 18195811764839760292
7364860 26 18123469371589051837
81228 2 17835532887080257050

>  <PUBCHEM_SHAPE_MULTIPOLES>  (1) 
235.87
4.81
3.85
0.57
0
2.27
0
-6.53
0
0
0
0
-0.04
0.01

>  <PUBCHEM_SHAPE_SELFOVERLAP>  (1) 
471.45

>  <PUBCHEM_SHAPE_VOLUME>  (1) 
135.8

>  <PUBCHEM_COORDINATE_TYPE>  (1) 
2
5
10

$$$$
