35390
     RDKit          3D

 14 14  0  0  0  0  0  0  0  0999 V2000
   -2.1342    1.6484    1.1106 O   0  0  0  0  0  0  0  0  0  0  0  0
   -1.1252    2.1377   -0.8817 N   0  0  0  0  0  0  0  0  0  0  0  0
   -0.8738   -0.1530    0.0180 C   0  0  0  0  0  0  0  0  0  0  0  0
   -1.5124   -0.7943   -1.2593 C   0  0  0  0  0  0  0  0  0  0  0  0
   -1.2735   -0.9658    1.2954 C   0  0  0  0  0  0  0  0  0  0  0  0
    0.6699   -0.0570   -0.0453 C   0  0  0  0  0  0  0  0  0  0  0  0
   -1.4456    1.2875    0.1566 C   0  0  0  0  0  0  0  0  0  0  0  0
   -3.0315   -0.9509   -1.2254 C   0  0  0  0  0  0  0  0  0  0  0  0
   -0.6877   -2.3718    1.3893 C   0  0  0  0  0  0  0  0  0  0  0  0
    1.3216    0.5026    1.0188 C   0  0  0  0  0  0  0  0  0  0  0  0
    1.2967   -0.5366   -1.1620 C   0  0  0  0  0  0  0  0  0  0  0  0
    2.7126    0.5896    0.9615 C   0  0  0  0  0  0  0  0  0  0  0  0
    2.6876   -0.4498   -1.2193 C   0  0  0  0  0  0  0  0  0  0  0  0
    3.3956    0.1134   -0.1574 C   0  0  0  0  0  0  0  0  0  0  0  0
  1  7  2  0
  2  7  1  0
  3  4  1  0
  3  5  1  0
  3  6  1  0
  3  7  1  0
  4  8  1  0
  5  9  1  0
  6 10  2  0
  6 11  1  0
 10 12  1  0
 11 13  2  0
 12 14  2  0
 13 14  1  0
M  END
>  <PUBCHEM_COMPOUND_CID>  (1) 
35390

>  <PUBCHEM_CONFORMER_RMSD>  (1) 
0.6

>  <PUBCHEM_CONFORMER_DIVERSEORDER>  (1) 
1
15
14
12
3
7
13
6
16
5
10
11
2
9
4
8

>  <PUBCHEM_MMFF94_PARTIAL_CHARGES>  (1) 
17
1 -0.57
10 -0.15
11 -0.15
12 -0.15
13 -0.15
14 -0.15
2 -0.8
25 0.15
26 0.15
27 0.37
28 0.37
29 0.15
3 0.2
30 0.15
31 0.15
6 -0.14
7 0.57

>  <PUBCHEM_EFFECTIVE_ROTOR_COUNT>  (1) 
4

>  <PUBCHEM_PHARMACOPHORE_FEATURES>  (1) 
5
1 1 acceptor
1 2 donor
1 8 hydrophobe
1 9 hydrophobe
6 6 10 11 12 13 14 rings

>  <PUBCHEM_HEAVY_ATOM_COUNT>  (1) 
14

>  <PUBCHEM_ATOM_DEF_STEREO_COUNT>  (1) 
0

>  <PUBCHEM_ATOM_UDEF_STEREO_COUNT>  (1) 
0

>  <PUBCHEM_BOND_DEF_STEREO_COUNT>  (1) 
0

>  <PUBCHEM_BOND_UDEF_STEREO_COUNT>  (1) 
0

>  <PUBCHEM_ISOTOPIC_ATOM_COUNT>  (1) 
0

>  <PUBCHEM_COMPONENT_COUNT>  (1) 
1

>  <PUBCHEM_CACTVS_TAUTO_COUNT>  (1) 
2

>  <PUBCHEM_CONFORMER_ID>  (1) 
00008A3E00000001

>  <PUBCHEM_MMFF94_ENERGY>  (1) 
44.9934

>  <PUBCHEM_FEATURE_SELFOVERLAP>  (1) 
25.371

>  <PUBCHEM_SHAPE_FINGERPRINT>  (1) 
12138202 97 18129372722464635644
12423570 1 9317330622686520851
12932764 1 17917162636545462446
13024252 1 12396298183760997971
13294875 104 17691101765795296672
13299463 15 17418085550885014646
14713566 1 17531236301084154602
15490181 7 18049720711551227133
15557651 10 18052272695182312593
15775835 57 18265893549431026993
15852999 172 17967798466745774234
16945 1 17130407185310030367
17844478 74 17703505601027899559
187816 3 18187911928650610311
19837323 101 18188501176440689672
200 152 15482664688932689509
20653085 51 17774449278049292361
21501502 16 18059574663729421092
21524375 3 17908153074742619753
21930827 45 18336846211708216882
22344851 12 8390920775606921989
22802520 49 18339379469450768086
23402539 116 18337655512179693190
23557571 272 17973171909235524498
23559900 14 18114731755380139408
25 1 17412762608841991104
2748010 2 17346597461242413628
276578 36 17973460814094473817
305870 269 17752763528831632232
3248919 1 18260552242671620630
369184 2 17132119034846771178
5084963 1 17203324572035084982
68419 9 17979887464180748147
8030462 33 18334573538543532734
81228 2 18410859888492801217

>  <PUBCHEM_SHAPE_MULTIPOLES>  (1) 
277.26
4.36
1.8
1.57
2.12
0.13
-0.01
-0.03
-0.89
-1.31
0.52
-0.27
-0.39
0.16

>  <PUBCHEM_SHAPE_SELFOVERLAP>  (1) 
567.9

>  <PUBCHEM_SHAPE_VOLUME>  (1) 
159.9

>  <PUBCHEM_COORDINATE_TYPE>  (1) 
2
5
10

$$$$
