35399
     RDKit          3D

 15 15  0  0  0  0  0  0  0  0999 V2000
    0.0001    2.7801    0.0003 O   0  0  0  0  0  0  0  0  0  0  0  0
   -2.9462   -0.1138    0.0007 O   0  0  0  0  0  0  0  0  0  0  0  0
    2.9462   -0.1137    0.0002 O   0  0  0  0  0  0  0  0  0  0  0  0
   -1.2517   -1.6580   -0.0016 O   0  0  0  0  0  0  0  0  0  0  0  0
    1.2517   -1.6580   -0.0015 O   0  0  0  0  0  0  0  0  0  0  0  0
   -0.7077    0.6470   -0.0007 C   0  0  0  0  0  0  0  0  0  0  0  0
    0.7076    0.6470   -0.0014 C   0  0  0  0  0  0  0  0  0  0  0  0
   -1.0897    1.9683    0.0004 C   0  0  0  0  0  0  0  0  0  0  0  0
    1.0896    1.9682   -0.0008 C   0  0  0  0  0  0  0  0  0  0  0  0
   -1.6105   -0.4664   -0.0005 C   0  0  0  0  0  0  0  0  0  0  0  0
    1.6104   -0.4664   -0.0009 C   0  0  0  0  0  0  0  0  0  0  0  0
   -3.9037   -1.1787    0.0006 C   0  0  0  0  0  0  0  0  0  0  0  0
    3.9037   -1.1787    0.0010 C   0  0  0  0  0  0  0  0  0  0  0  0
   -5.2977   -0.5884    0.0019 C   0  0  0  0  0  0  0  0  0  0  0  0
    5.2977   -0.5884    0.0023 C   0  0  0  0  0  0  0  0  0  0  0  0
  1  8  1  0
  1  9  1  0
  2 10  1  0
  2 12  1  0
  3 11  1  0
  3 13  1  0
  4 10  2  0
  5 11  2  0
  6  7  1  0
  6  8  2  0
  6 10  1  0
  7  9  2  0
  7 11  1  0
 12 14  1  0
 13 15  1  0
M  END
>  <PUBCHEM_COMPOUND_CID>  (1) 
35399

>  <PUBCHEM_CONFORMER_RMSD>  (1) 
0.8

>  <PUBCHEM_CONFORMER_DIVERSEORDER>  (1) 
1
3
26
4
5
11
25
14
16
15
19
23
10
13
21
17
29
7
27
9
31
28
24
18
20
12
6
2
22
8
30

>  <PUBCHEM_MMFF94_PARTIAL_CHARGES>  (1) 
15
1 -0.28
10 0.81
11 0.81
12 0.28
13 0.28
16 0.15
17 0.15
2 -0.43
3 -0.43
4 -0.57
5 -0.57
6 -0.09
7 -0.09
8 -0.01
9 -0.01

>  <PUBCHEM_EFFECTIVE_ROTOR_COUNT>  (1) 
6

>  <PUBCHEM_PHARMACOPHORE_FEATURES>  (1) 
4
1 1 acceptor
1 4 acceptor
1 5 acceptor
5 1 6 7 8 9 rings

>  <PUBCHEM_HEAVY_ATOM_COUNT>  (1) 
15

>  <PUBCHEM_ATOM_DEF_STEREO_COUNT>  (1) 
0

>  <PUBCHEM_ATOM_UDEF_STEREO_COUNT>  (1) 
0

>  <PUBCHEM_BOND_DEF_STEREO_COUNT>  (1) 
0

>  <PUBCHEM_BOND_UDEF_STEREO_COUNT>  (1) 
0

>  <PUBCHEM_ISOTOPIC_ATOM_COUNT>  (1) 
0

>  <PUBCHEM_COMPONENT_COUNT>  (1) 
1

>  <PUBCHEM_CACTVS_TAUTO_COUNT>  (1) 
1

>  <PUBCHEM_CONFORMER_ID>  (1) 
00008A4700000001

>  <PUBCHEM_MMFF94_ENERGY>  (1) 
15.5904

>  <PUBCHEM_FEATURE_SELFOVERLAP>  (1) 
20.317

>  <PUBCHEM_SHAPE_FINGERPRINT>  (1) 
11471102 20 18337950203319263253
11680986 33 18121501511968314450
11806522 49 18409449197957681812
12032990 46 18410856563934802343
12553582 1 18338783572444951654
12841375 25 18409729573180282021
13690532 89 18411419527168907347
13740256 8 18335144249350189107
13862211 1 18410569591400504966
14115302 16 17749399199144298030
14252887 29 18131360691053824166
15442244 35 18340771537376807529
187816 3 17894352172320581546
200 152 18186518783051633230
20510252 161 18271242699728585464
20645477 70 18337667646169302959
20671657 1 18195813096733452157
20871998 184 18129940062043211212
20871998 22 18272380723832433855
20871999 31 18187922833372160309
21029758 11 18411980269155704257
21029758 27 18334863830697653629
21267235 1 18410864256221554274
21296965 67 18410854352063698112
221490 88 18046913954940148979
2297311 6 18271817778965173166
23402539 116 18342731905841579071
23557571 272 18201447922317016046
2748010 2 18121500425378530974
4463277 17 18410857659151605732
537710 114 18335709372714986572
68521 5 18336829693037493796
7364860 26 18198059381424280361
81228 2 18193856863351833984
8809292 202 18187650253325623131
8863177 126 17752219528865525459

>  <PUBCHEM_SHAPE_MULTIPOLES>  (1) 
279.35
8.67
2.2
0.58
0
1.47
0
-5.37
0.01
0
0
0
0.01
0

>  <PUBCHEM_SHAPE_SELFOVERLAP>  (1) 
572.415

>  <PUBCHEM_SHAPE_VOLUME>  (1) 
163.4

>  <PUBCHEM_COORDINATE_TYPE>  (1) 
2
5
10

$$$$
