35393
     RDKit          3D

 19 19  0  0  0  0  0  0  0  0999 V2000
   -2.1140   -2.9898    1.4259 Cl  0  0  0  0  0  0  0  0  0  0  0  0
   -4.4848   -2.2801   -0.0513 Cl  0  0  0  0  0  0  0  0  0  0  0  0
   -2.0575   -2.8660   -1.4976 Cl  0  0  0  0  0  0  0  0  0  0  0  0
   -3.8521    2.8898    0.1793 S   0  0  0  0  0  0  0  0  0  0  0  0
    0.8413    1.1314    0.1741 N   0  0  0  0  0  0  0  0  0  0  0  0
   -0.8914   -0.4463    0.0824 N   0  0  0  0  0  0  0  0  0  0  0  0
   -1.3731    1.9026    0.1738 N   0  0  0  0  0  0  0  0  0  0  0  0
   -3.1678    0.3126    0.0803 N   0  0  0  0  0  0  0  0  0  0  0  0
    4.3800   -0.2862    0.0521 C   0  0  0  0  0  0  0  0  0  0  0  0
    3.2554    0.7525    0.1293 C   0  0  0  0  0  0  0  0  0  0  0  0
    5.7511    0.3900   -0.0295 C   0  0  0  0  0  0  0  0  0  0  0  0
    1.8675    0.1174    0.1462 C   0  0  0  0  0  0  0  0  0  0  0  0
    6.9112   -0.6016   -0.1397 C   0  0  0  0  0  0  0  0  0  0  0  0
    8.2692    0.0662   -0.2919 C   0  0  0  0  0  0  0  0  0  0  0  0
   -0.5165    0.8538    0.1427 C   0  0  0  0  0  0  0  0  0  0  0  0
   -2.2201   -0.6385    0.0545 C   0  0  0  0  0  0  0  0  0  0  0  0
   -2.6706    1.5585    0.1402 C   0  0  0  0  0  0  0  0  0  0  0  0
   -2.6912   -2.0512   -0.0109 C   0  0  0  0  0  0  0  0  0  0  0  0
   -5.2366    2.1848   -0.7600 C   0  0  0  0  0  0  0  0  0  0  0  0
  1 18  1  0
  2 18  1  0
  3 18  1  0
  4 17  1  0
  4 19  1  0
  5 12  1  0
  5 15  1  0
  6 15  2  0
  6 16  1  0
  7 15  1  0
  7 17  2  0
  8 16  2  0
  8 17  1  0
  9 10  1  0
  9 11  1  0
 10 12  1  0
 11 13  1  0
 13 14  1  0
 16 18  1  0
M  END
>  <PUBCHEM_COMPOUND_CID>  (1) 
35393

>  <PUBCHEM_CONFORMER_RMSD>  (1) 
0.8

>  <PUBCHEM_CONFORMER_DIVERSEORDER>  (1) 
1
278
285
143
156
314
8
302
267
331
195
166
245
11
150
255
323
159
275
16
325
134
91
328
261
270
188
154
249
294
231
297
253
290
306
52
209
251
263
292
31
320
48
123
42
279
217
178
45
181
293
210
140
301
324
173
80
4
247
300
19
310
77
114
206
214
99
269
41
330
283
266
204
111
168
116
250
308
15
238
316
326
260
35
129
305
321
128
106
69
256
97
101
132
227
265
258
137
36
303
73
221
20
162
276
3
272
155
146
37
239
63
312
71
244
280
43
277
34
151
248
104
145
18
167
83
21
165
295
149
60
194
216
202
142
288
243
7
237
286
27
240
98
2
259
246
127
327
153
304
46
274
6
268
12
213
307
180
291
82
273
208
9
207
311
299
141
222
298
44
147
25
76
205
182
309
102
64
53
228
121
241
118
315
56
86
264
67
284
332
317
112
103
136
236
85
22
148
211
174
197
190
296
161
10
262
171
282
68
66
62
84
287
39
184
198
225
87
329
224
234
89
242
40
33
235
201
124
158
74
110
100
226
257
170
130
28
220
14
229
5
271
117
318
57
122
59
139
38
30
81
177
281
183
65
232
289
187
169
212
61
13
72
319
105
47
107
26
313
135
254
23
58
152
79
24
322
215
223
138
96
191
109
54
55
78
17
50
200
29
233
92
230
186
203
131
113
49
163
175
199
119
125
95
108
93
133
189
196
115
219
32
70
157
90
172
120
252
176
160
218
193
144
75
88
51
94
185
192
126
164
179

>  <PUBCHEM_MMFF94_PARTIAL_CHARGES>  (1) 
15
1 -0.29
12 0.37
15 0.72
16 0.48
17 0.72
18 1.01
19 0.23
2 -0.29
3 -0.29
30 0.4
4 -0.33
5 -0.87
6 -0.62
7 -0.62
8 -0.62

>  <PUBCHEM_EFFECTIVE_ROTOR_COUNT>  (1) 
8

>  <PUBCHEM_PHARMACOPHORE_FEATURES>  (1) 
6
1 14 hydrophobe
1 19 hydrophobe
1 5 donor
4 5 6 7 15 cation
4 9 10 11 13 hydrophobe
6 6 7 8 15 16 17 rings

>  <PUBCHEM_HEAVY_ATOM_COUNT>  (1) 
19

>  <PUBCHEM_ATOM_DEF_STEREO_COUNT>  (1) 
0

>  <PUBCHEM_ATOM_UDEF_STEREO_COUNT>  (1) 
0

>  <PUBCHEM_BOND_DEF_STEREO_COUNT>  (1) 
0

>  <PUBCHEM_BOND_UDEF_STEREO_COUNT>  (1) 
0

>  <PUBCHEM_ISOTOPIC_ATOM_COUNT>  (1) 
0

>  <PUBCHEM_COMPONENT_COUNT>  (1) 
1

>  <PUBCHEM_CACTVS_TAUTO_COUNT>  (1) 
4

>  <PUBCHEM_CONFORMER_ID>  (1) 
00008A4100000001

>  <PUBCHEM_MMFF94_ENERGY>  (1) 
26.8033

>  <PUBCHEM_FEATURE_SELFOVERLAP>  (1) 
30.446

>  <PUBCHEM_SHAPE_FINGERPRINT>  (1) 
10411042 1 18122344842605503835
107951 10 18260832557812586731
11315181 36 17918276454857189560
11524674 6 16487259897821276294
11545043 162 18202561800599912864
11809386 21 18334570269984120370
12616971 3 17167871863754659692
12760667 363 18339082712859527851
12788726 201 18335974350907306771
13257819 101 16807279208664390877
13288520 33 18411419548316696218
14508225 48 18265603455056496405
15042514 8 18337957895864114337
167882 2 17979916017049732359
17093844 174 18413385441448957248
17844677 252 18342745165249634000
18927931 339 18341619256399455078
20681677 155 18335138661781996312
21236236 1 18411138047501408618
21267235 1 18336831999561603747
21426921 1 18411138043391337017
220451 1 17967534541869832040
23081809 10 17967254209444177028
23402539 116 18187082863056083740
23419403 2 14043167672828645655
23557571 272 18342463659611851812
23559900 14 18343575249057319448
335352 9 18410852166732557237
4073 2 18334017207804627978
4214541 1 18411138035165464264
5104073 3 18342173397723015056
559249 180 18409446973164732902
59755656 520 18335134242102607341
6327066 14 18117835504517055357
7062679 117 18334860541575670106

>  <PUBCHEM_SHAPE_MULTIPOLES>  (1) 
380.55
16.22
3.42
0.91
44.52
1.03
0.05
-1.89
2.15
-7.78
0.02
-0.66
0.66
0.31

>  <PUBCHEM_SHAPE_SELFOVERLAP>  (1) 
706.645

>  <PUBCHEM_SHAPE_VOLUME>  (1) 
240.1

>  <PUBCHEM_COORDINATE_TYPE>  (1) 
2
5
10

$$$$
