354
     RDKit          3D

 12 11  0  0  0  0  0  0  0  0999 V2000
   -4.7796   -0.3814    1.0363 O   0  0  0  0  0  0  0  0  0  0  0  0
   -4.1432    0.9873   -0.6635 O   0  0  0  0  0  0  0  0  0  0  0  0
    2.4906   -1.5808   -0.2048 O   0  0  0  0  0  0  0  0  0  0  0  0
    4.5441   -0.2521    0.3283 O   0  0  0  0  0  0  0  0  0  0  0  0
    3.3253    1.6974    0.3700 O   0  0  0  0  0  0  0  0  0  0  0  0
   -1.5321    0.0809   -0.6986 C   0  0  0  0  0  0  0  0  0  0  0  0
   -2.5058   -0.4844    0.3292 C   0  0  0  0  0  0  0  0  0  0  0  0
   -0.1648   -0.5187   -0.5386 C   0  0  0  0  0  0  0  0  0  0  0  0
   -3.8724    0.1303    0.1675 C   0  0  0  0  0  0  0  0  0  0  0  0
    0.9243    0.2053   -0.2485 C   0  0  0  0  0  0  0  0  0  0  0  0
    2.2742   -0.3822   -0.0976 C   0  0  0  0  0  0  0  0  0  0  0  0
    3.4395    0.4985    0.2203 C   0  0  0  0  0  0  0  0  0  0  0  0
  1  9  1  0
  2  9  2  0
  3 11  2  0
  4 12  1  0
  5 12  2  0
  6  7  1  0
  6  8  1  0
  7  9  1  0
  8 10  2  0
 10 11  1  0
 11 12  1  0
M  END
>  <PUBCHEM_COMPOUND_CID>  (1) 
354

>  <PUBCHEM_CONFORMER_RMSD>  (1) 
0.6

>  <PUBCHEM_CONFORMER_DIVERSEORDER>  (1) 
1
16
34
26
2
32
19
10
17
3
24
20
6
30
25
29
5
23
33
18
22
7
11
14
4
21
15
8
27
28
13
31
9
12

>  <PUBCHEM_MMFF94_PARTIAL_CHARGES>  (1) 
16
1 -0.65
10 -0.14
11 0.56
12 0.72
17 0.15
18 0.15
19 0.5
2 -0.57
20 0.5
3 -0.57
4 -0.65
5 -0.57
6 0.14
7 0.06
8 -0.29
9 0.66

>  <PUBCHEM_EFFECTIVE_ROTOR_COUNT>  (1) 
5

>  <PUBCHEM_PHARMACOPHORE_FEATURES>  (1) 
7
1 1 acceptor
1 2 acceptor
1 3 acceptor
1 4 acceptor
1 5 acceptor
3 1 2 9 anion
3 4 5 12 anion

>  <PUBCHEM_HEAVY_ATOM_COUNT>  (1) 
12

>  <PUBCHEM_ATOM_DEF_STEREO_COUNT>  (1) 
0

>  <PUBCHEM_ATOM_UDEF_STEREO_COUNT>  (1) 
0

>  <PUBCHEM_BOND_DEF_STEREO_COUNT>  (1) 
0

>  <PUBCHEM_BOND_UDEF_STEREO_COUNT>  (1) 
1

>  <PUBCHEM_ISOTOPIC_ATOM_COUNT>  (1) 
0

>  <PUBCHEM_COMPONENT_COUNT>  (1) 
1

>  <PUBCHEM_CACTVS_TAUTO_COUNT>  (1) 
3

>  <PUBCHEM_CONFORMER_ID>  (1) 
0000016200000001

>  <PUBCHEM_MMFF94_ENERGY>  (1) 
13.7731

>  <PUBCHEM_FEATURE_SELFOVERLAP>  (1) 
35.652

>  <PUBCHEM_SHAPE_FINGERPRINT>  (1) 
11062470 55 18060137639331365743
114248 4 11383829380970512868
11987891 38 8358260353976898497
12346645 6 17917993850182708918
13690532 89 10809333439156660408
14123238 8 17822012029590265063
14252887 29 18041003916431038570
14445660 50 18201441410672023319
15477762 27 8214147365330135802
177051 138 13767916914945864720
17834072 33 18201713007355789711
18186145 218 18059861653185787519
190213 19 17676207961810907415
20279233 1 18187087243363829235
20645477 70 18270111301800036591
20828058 44 17385725798609164451
21119208 17 9583519806743509371
22485316 2 17603863390822012203
23048698 100 18060142020071563155
23402539 116 13767919131091201055
42 15 17967251979227295043
449060 50 18411421738776209149

>  <PUBCHEM_SHAPE_MULTIPOLES>  (1) 
217.61
9.77
1.11
0.79
3.55
0.1
-0.01
1.29
-2.13
-0.83
0
0.51
0
0.53

>  <PUBCHEM_SHAPE_SELFOVERLAP>  (1) 
424.562

>  <PUBCHEM_SHAPE_VOLUME>  (1) 
129.1

>  <PUBCHEM_COORDINATE_TYPE>  (1) 
2
5
10

$$$$
