35405
     RDKit          3D

 21 22  0  0  1  0  0  0  0  0999 V2000
    0.6152    2.9588    1.3300 Cl  0  0  0  0  0  0  0  0  0  0  0  0
   -0.1659    3.1807   -1.4406 Cl  0  0  0  0  0  0  0  0  0  0  0  0
    2.5962    2.6454   -0.7869 Cl  0  0  0  0  0  0  0  0  0  0  0  0
    1.3958   -1.7245   -1.6596 O   0  0  0  0  0  0  0  0  0  0  0  0
   -4.7430   -0.7665    0.7310 O   0  0  0  0  0  0  0  0  0  0  0  0
    0.5809    0.7125   -0.4098 C   0  0  0  0  0  0  0  0  0  0  0  0
    1.6185   -0.2523    0.2181 C   0  0  0  0  0  0  0  0  0  0  0  0
   -0.8262    0.3217   -0.1085 C   0  0  0  0  0  0  0  0  0  0  0  0
    0.9022    2.2618   -0.2968 C   0  0  0  0  0  0  0  0  0  0  0  0
    1.9439   -1.3957   -0.4563 C   0  0  0  0  0  0  0  0  0  0  0  0
    2.1521    0.1037    1.4266 C   0  0  0  0  0  0  0  0  0  0  0  0
   -1.6480   -0.1654   -1.1249 C   0  0  0  0  0  0  0  0  0  0  0  0
   -1.3209    0.4431    1.1901 C   0  0  0  0  0  0  0  0  0  0  0  0
    2.8784   -2.2536    0.1236 C   0  0  0  0  0  0  0  0  0  0  0  0
   -2.9642   -0.5308   -0.8429 C   0  0  0  0  0  0  0  0  0  0  0  0
   -2.6372    0.0777    1.4721 C   0  0  0  0  0  0  0  0  0  0  0  0
    3.0868   -0.7541    2.0064 C   0  0  0  0  0  0  0  0  0  0  0  0
   -3.4589   -0.4092    0.4556 C   0  0  0  0  0  0  0  0  0  0  0  0
    3.4499   -1.9329    1.3550 C   0  0  0  0  0  0  0  0  0  0  0  0
    2.0720   -1.2630   -2.8273 C   0  0  0  0  0  0  0  0  0  0  0  0
   -5.5275   -1.2573   -0.3549 C   0  0  0  0  0  0  0  0  0  0  0  0
  1  9  1  0
  2  9  1  0
  3  9  1  0
  4 10  1  0
  4 20  1  0
  5 18  1  0
  5 21  1  0
  6  7  1  0
  6  8  1  0
  6  9  1  0
  7 10  2  0
  7 11  1  0
  8 12  2  0
  8 13  1  0
 10 14  1  0
 11 17  2  0
 12 15  1  0
 13 16  2  0
 14 19  2  0
 15 18  2  0
 16 18  1  0
 17 19  1  0
M  END
>  <PUBCHEM_COMPOUND_CID>  (1) 
35405

>  <PUBCHEM_CONFORMER_RMSD>  (1) 
0.8

>  <PUBCHEM_CONFORMER_DIVERSEORDER>  (1) 
1
6
4
3
2
5
7
8

>  <PUBCHEM_MMFF94_PARTIAL_CHARGES>  (1) 
29
1 -0.29
10 0.08
11 -0.15
12 -0.15
13 -0.15
14 -0.15
15 -0.15
16 -0.15
17 -0.15
18 0.08
19 -0.15
2 -0.29
20 0.28
21 0.28
23 0.15
24 0.15
25 0.15
26 0.15
27 0.15
28 0.15
29 0.15
3 -0.29
30 0.15
4 -0.36
5 -0.36
6 0.29
7 -0.14
8 -0.14
9 0.87

>  <PUBCHEM_EFFECTIVE_ROTOR_COUNT>  (1) 
5

>  <PUBCHEM_PHARMACOPHORE_FEATURES>  (1) 
4
1 4 acceptor
1 5 acceptor
6 7 10 11 14 17 19 rings
6 8 12 13 15 16 18 rings

>  <PUBCHEM_HEAVY_ATOM_COUNT>  (1) 
21

>  <PUBCHEM_ATOM_DEF_STEREO_COUNT>  (1) 
0

>  <PUBCHEM_ATOM_UDEF_STEREO_COUNT>  (1) 
1

>  <PUBCHEM_BOND_DEF_STEREO_COUNT>  (1) 
0

>  <PUBCHEM_BOND_UDEF_STEREO_COUNT>  (1) 
0

>  <PUBCHEM_ISOTOPIC_ATOM_COUNT>  (1) 
0

>  <PUBCHEM_COMPONENT_COUNT>  (1) 
1

>  <PUBCHEM_CACTVS_TAUTO_COUNT>  (1) 
1

>  <PUBCHEM_CONFORMER_ID>  (1) 
00008A4D00000001

>  <PUBCHEM_MMFF94_ENERGY>  (1) 
90.0385

>  <PUBCHEM_FEATURE_SELFOVERLAP>  (1) 
20.297

>  <PUBCHEM_SHAPE_FINGERPRINT>  (1) 
11578080 2 16950831506494296524
12293681 25 17767108814010724487
12363563 72 18260545585129608955
12553582 1 18190199913548076523
12644460 14 18340219595123801265
12707595 3 18113908147455053091
13083527 12 18335410271229617696
13533116 47 18337672035905519571
13681431 1 18335430070707189632
14004458 79 17898571973262299380
14178342 30 18056482751164697091
14863182 85 17489311926980647727
14955137 171 18271242841573509944
15422964 175 18268427936618199463
16945 1 18129079260292080880
17492 54 18122657034929392476
1813 80 18341057319588602678
18186145 218 11819286541967642083
18222031 100 18342173345323654566
19862831 5 12829491428672992451
20361792 2 18335140843245580619
20369508 70 17967808366829579427
20559304 39 17917720131748071065
20600515 1 18335984173064495504
20645477 70 18187640362474674819
20671657 53 18261111859661777145
21296965 67 18261103028760721113
21524375 3 17763469808469669636
21731516 1 18190195489620653826
21756936 100 15336548472137774954
22112679 90 17682709236706380956
23419403 2 16952778810443486532
23557571 272 17981037519046817740
23559900 14 17703246061019102927
23598288 3 17320725767867625208
2748010 2 17841705210604135878
3060560 45 18197786711193888804
3286 77 17967526879115679055
394222 165 17910951666800210217
5845 1 10957623601505607168
6669772 16 18046360879733473300
7364860 26 18130518542472046861
7808743 9 11598562945530275426
81228 2 17907019469569346600
9841814 1 18408047316263466811

>  <PUBCHEM_SHAPE_MULTIPOLES>  (1) 
426.04
7.13
3.11
2.04
10.33
2.75
0.65
-5.22
-1.35
-2.62
0.54
-1.34
-0.36
-0.3

>  <PUBCHEM_SHAPE_SELFOVERLAP>  (1) 
874.01

>  <PUBCHEM_SHAPE_VOLUME>  (1) 
245.1

>  <PUBCHEM_COORDINATE_TYPE>  (1) 
2
5
10

$$$$
