35406
     RDKit          3D

 16 16  0  0  0  0  0  0  0  0999 V2000
    1.7588   -0.5051    0.8220 S   0  0  0  0  0  0  0  0  0  0  0  0
    4.3633   -1.9137    0.9567 S   0  0  0  0  0  0  0  0  0  0  0  0
   -0.4713    1.2012   -0.9928 O   0  0  0  0  0  0  0  0  0  0  0  0
    4.0879    0.6903    0.0825 N   0  0  0  0  0  0  0  0  0  0  0  0
   -0.2695   -1.2045   -0.9256 C   0  0  0  0  0  0  0  0  0  0  0  0
    1.2493   -1.0967   -0.8097 C   0  0  0  0  0  0  0  0  0  0  0  0
   -0.9951    0.1209   -0.7305 C   0  0  0  0  0  0  0  0  0  0  0  0
   -2.3968    0.0997   -0.2252 C   0  0  0  0  0  0  0  0  0  0  0  0
   -3.1928   -0.9828   -0.5276 C   0  0  0  0  0  0  0  0  0  0  0  0
   -2.8453    1.1636    0.5255 C   0  0  0  0  0  0  0  0  0  0  0  0
    3.5194   -0.4989    0.5803 C   0  0  0  0  0  0  0  0  0  0  0  0
   -4.5050   -1.0024   -0.0548 C   0  0  0  0  0  0  0  0  0  0  0  0
   -4.1574    1.1440    0.9984 C   0  0  0  0  0  0  0  0  0  0  0  0
   -4.9872    0.0610    0.7082 C   0  0  0  0  0  0  0  0  0  0  0  0
    5.5244    0.8276   -0.1696 C   0  0  0  0  0  0  0  0  0  0  0  0
    3.3173    1.8957   -0.2378 C   0  0  0  0  0  0  0  0  0  0  0  0
  1  6  1  0
  1 11  1  0
  2 11  2  0
  3  7  2  0
  4 11  1  0
  4 15  1  0
  4 16  1  0
  5  6  1  0
  5  7  1  0
  7  8  1  0
  8  9  2  0
  8 10  1  0
  9 12  1  0
 10 13  2  0
 12 14  2  0
 13 14  1  0
M  END
>  <PUBCHEM_COMPOUND_CID>  (1) 
35406

>  <PUBCHEM_CONFORMER_RMSD>  (1) 
0.8

>  <PUBCHEM_CONFORMER_DIVERSEORDER>  (1) 
1
73
38
77
35
46
29
120
65
17
110
103
72
90
20
114
89
107
42
85
82
111
122
66
115
14
79
98
51
11
64
69
121
129
134
31
15
55
109
84
80
5
125
6
131
99
36
43
4
67
78
88
34
53
50
76
39
92
104
130
9
63
106
83
24
70
91
133
22
56
126
62
71
118
16
32
61
54
27
97
105
2
59
23
116
75
123
57
21
33
13
117
102
81
108
60
3
86
101
94
45
68
30
40
48
119
96
25
26
87
74
124
12
41
95
8
44
7
28
49
37
93
112
128
100
10
113
19
47
135
132
127
18
52
58

>  <PUBCHEM_MMFF94_PARTIAL_CHARGES>  (1) 
21
1 -0.37
10 -0.15
11 0.58
12 -0.15
13 -0.15
14 -0.15
15 0.3
16 0.3
2 -0.38
21 0.15
22 0.15
23 0.15
24 0.15
3 -0.57
31 0.15
4 -0.66
5 0.06
6 0.23
7 0.42
8 0.09
9 -0.15

>  <PUBCHEM_EFFECTIVE_ROTOR_COUNT>  (1) 
6

>  <PUBCHEM_PHARMACOPHORE_FEATURES>  (1) 
3
1 2 acceptor
1 3 acceptor
6 8 9 10 12 13 14 rings

>  <PUBCHEM_HEAVY_ATOM_COUNT>  (1) 
16

>  <PUBCHEM_ATOM_DEF_STEREO_COUNT>  (1) 
0

>  <PUBCHEM_ATOM_UDEF_STEREO_COUNT>  (1) 
0

>  <PUBCHEM_BOND_DEF_STEREO_COUNT>  (1) 
0

>  <PUBCHEM_BOND_UDEF_STEREO_COUNT>  (1) 
0

>  <PUBCHEM_ISOTOPIC_ATOM_COUNT>  (1) 
0

>  <PUBCHEM_COMPONENT_COUNT>  (1) 
1

>  <PUBCHEM_CACTVS_TAUTO_COUNT>  (1) 
2

>  <PUBCHEM_CONFORMER_ID>  (1) 
00008A4E00000001

>  <PUBCHEM_MMFF94_ENERGY>  (1) 
46.6505

>  <PUBCHEM_FEATURE_SELFOVERLAP>  (1) 
15.223

>  <PUBCHEM_SHAPE_FINGERPRINT>  (1) 
10354089 29 18409168822840836576
10366900 7 17603307055276417472
10912923 1 18412539916263600226
11045977 3 17967536782793156483
11552529 35 18265893746979008587
12107183 9 17834677089108140490
12236239 1 18342740728157806184
12251169 10 18411981347498366183
12596602 18 18260269655256319315
12815109 37 11530476744594201228
13533116 47 18186798058725845283
13897977 58 18272371988180014409
14251752 14 16773805775431104012
14251764 30 17973442106024833234
14252887 29 16877941616524292578
14341114 176 18409172086530613506
14341114 328 18413109446212186907
15880784 105 18113901546069187939
17834072 14 13840265892123118070
17834072 33 18410290341306037291
17834072 8 13614243689527578520
1798214 20 7853577898351624720
19050596 39 18413386518805324699
19784866 170 18130795533887671543
200 152 8142088662948013364
20369508 70 11602826821784398478
20374829 77 12396303668798277395
20645477 56 13973668551421178314
21065198 48 18410855443180440371
21250096 35 11602814709686245748
21652331 79 18410009940192788180
22854114 59 17748824116113616906
231179 274 15554445171770466859
23532345 42 14923947838394020170
23557571 272 15574979663773438230
23559900 14 17630340635709486775
26918003 58 15791731914474792997
2916195 48 16988268885361426464
314173 85 15574715768229783967
347723 3 13038914321640925446
449060 50 18202569445341005983
474 4 18042405914506303628
5104073 3 18411980247649207018
54446538 1 18343864446047462000
58999712 48 9727636107099882843
9882013 296 18409729560474520277

>  <PUBCHEM_SHAPE_MULTIPOLES>  (1) 
326.12
12.11
1.74
1.07
2.56
0.08
0.04
0.84
3.03
1.35
0.04
-0.1
-0.12
-1.26

>  <PUBCHEM_SHAPE_SELFOVERLAP>  (1) 
632.955

>  <PUBCHEM_SHAPE_VOLUME>  (1) 
200.2

>  <PUBCHEM_COORDINATE_TYPE>  (1) 
2
5
10

$$$$
