35404
     RDKit          3D

 19 21  0  0  0  0  0  0  0  0999 V2000
    0.7846   -1.1112    0.4085 O   0  0  0  0  0  0  0  0  0  0  0  0
   -0.2125    0.8712   -0.2752 N   0  0  0  0  0  0  0  0  0  0  0  0
    5.8566   -0.1623    0.3004 N   0  0  0  0  0  0  0  0  0  0  0  0
   -1.5861    0.4379   -0.1408 C   0  0  0  0  0  0  0  0  0  0  0  0
   -3.3369   -0.4328    1.4672 C   0  0  0  0  0  0  0  0  0  0  0  0
   -4.0098    1.1224   -0.3989 C   0  0  0  0  0  0  0  0  0  0  0  0
   -3.3097   -1.2430   -0.9201 C   0  0  0  0  0  0  0  0  0  0  0  0
   -1.8774    0.0313    1.3208 C   0  0  0  0  0  0  0  0  0  0  0  0
   -2.5476    1.5801   -0.5377 C   0  0  0  0  0  0  0  0  0  0  0  0
   -1.8503   -0.7762   -1.0574 C   0  0  0  0  0  0  0  0  0  0  0  0
   -4.2757    0.7154    1.0602 C   0  0  0  0  0  0  0  0  0  0  0  0
   -3.5793   -1.6373    0.5420 C   0  0  0  0  0  0  0  0  0  0  0  0
   -4.2486   -0.0902   -1.3147 C   0  0  0  0  0  0  0  0  0  0  0  0
    0.8656    0.0490    0.0146 C   0  0  0  0  0  0  0  0  0  0  0  0
    2.1875    0.7715   -0.1872 C   0  0  0  0  0  0  0  0  0  0  0  0
    3.4131   -0.0893    0.1186 C   0  0  0  0  0  0  0  0  0  0  0  0
    4.7200    0.6936   -0.0210 C   0  0  0  0  0  0  0  0  0  0  0  0
    7.1088    0.5908    0.2136 C   0  0  0  0  0  0  0  0  0  0  0  0
    5.8977   -1.3210   -0.5930 C   0  0  0  0  0  0  0  0  0  0  0  0
  1 14  2  0
  2  4  1  0
  2 14  1  0
  3 17  1  0
  3 18  1  0
  3 19  1  0
  4  8  1  0
  4  9  1  0
  4 10  1  0
  5  8  1  0
  5 11  1  0
  5 12  1  0
  6  9  1  0
  6 11  1  0
  6 13  1  0
  7 10  1  0
  7 12  1  0
  7 13  1  0
 14 15  1  0
 15 16  1  0
 16 17  1  0
M  END
>  <PUBCHEM_COMPOUND_CID>  (1) 
35404

>  <PUBCHEM_CONFORMER_RMSD>  (1) 
0.8

>  <PUBCHEM_CONFORMER_DIVERSEORDER>  (1) 
2
34
25
32
13
33
1
36
26
7
19
31
21
15
14
22
28
3
16
30
8
20
35
10
6
11
24
9
27
5
12
4
29
23
17
18

>  <PUBCHEM_MMFF94_PARTIAL_CHARGES>  (1) 
10
1 -0.57
14 0.57
15 0.06
17 0.27
18 0.27
19 0.27
2 -0.73
3 -0.81
35 0.37
4 0.3

>  <PUBCHEM_EFFECTIVE_ROTOR_COUNT>  (1) 
7.2

>  <PUBCHEM_PHARMACOPHORE_FEATURES>  (1) 
7
1 1 acceptor
1 2 donor
1 3 cation
6 4 5 6 8 9 11 rings
6 4 5 7 8 10 12 rings
6 4 6 7 9 10 13 rings
6 5 6 7 11 12 13 rings

>  <PUBCHEM_HEAVY_ATOM_COUNT>  (1) 
19

>  <PUBCHEM_ATOM_DEF_STEREO_COUNT>  (1) 
0

>  <PUBCHEM_ATOM_UDEF_STEREO_COUNT>  (1) 
0

>  <PUBCHEM_BOND_DEF_STEREO_COUNT>  (1) 
0

>  <PUBCHEM_BOND_UDEF_STEREO_COUNT>  (1) 
0

>  <PUBCHEM_ISOTOPIC_ATOM_COUNT>  (1) 
0

>  <PUBCHEM_COMPONENT_COUNT>  (1) 
1

>  <PUBCHEM_CACTVS_TAUTO_COUNT>  (1) 
2

>  <PUBCHEM_CONFORMER_ID>  (1) 
00008A4C00000002

>  <PUBCHEM_MMFF94_ENERGY>  (1) 
43.2505

>  <PUBCHEM_FEATURE_SELFOVERLAP>  (1) 
48.053

>  <PUBCHEM_SHAPE_FINGERPRINT>  (1) 
10680689 15 18334858315970279396
11315181 36 17561079232879515608
12091667 2 18334856126175190408
12107183 9 16839686136839992250
12236239 1 17989205940778667088
12507557 5 17846779632823402240
12596602 18 17132112451316333250
12916754 54 18267302213147439613
13024252 1 16587740950412062373
13167823 11 18413386536549676830
13214271 11 18186240628248029853
13288520 33 18202279234543168685
13631057 29 17916575587193563735
15183329 4 17775570810987283814
15788980 27 18410013234796291988
16945 1 15430046422969102697
17093844 174 18413382138234121032
17844677 252 18335425673198787868
18927931 339 18187652404993085191
19489759 90 17530961389028475176
200 152 18131347518330676141
21267235 1 18335142029199918767
220451 1 18202570579555289478
2306618 200 18060702784519750625
23402539 116 18113052744646326724
23559900 14 18187357774716663240
5104073 3 18272086136795153762
542803 24 18059857268636036400

>  <PUBCHEM_SHAPE_MULTIPOLES>  (1) 
375.18
14.56
1.38
1.16
31.04
0.18
-0.13
0.38
-0.06
-0.67
0.14
-1.48
0.11
0.23

>  <PUBCHEM_SHAPE_SELFOVERLAP>  (1) 
780.784

>  <PUBCHEM_SHAPE_VOLUME>  (1) 
208.6

>  <PUBCHEM_COORDINATE_TYPE>  (1) 
2
5
10

$$$$
