35408
     RDKit          3D

 16 15  0  0  0  0  0  0  0  0999 V2000
   -3.5474   -0.3106    0.0389 O   0  0  0  0  0  0  0  0  0  0  0  0
   -2.3767    1.6798    0.0071 O   0  0  0  0  0  0  0  0  0  0  0  0
    2.5977    0.3812    0.0288 C   0  0  0  0  0  0  0  0  0  0  0  0
    3.8493   -0.4992    0.0556 C   0  0  0  0  0  0  0  0  0  0  0  0
    1.3227   -0.4634    0.0572 C   0  0  0  0  0  0  0  0  0  0  0  0
    5.1229    0.3470   -0.0053 C   0  0  0  0  0  0  0  0  0  0  0  0
    0.0726    0.4144   -0.0037 C   0  0  0  0  0  0  0  0  0  0  0  0
    6.4078   -0.4859   -0.0125 C   0  0  0  0  0  0  0  0  0  0  0  0
    7.6796    0.3587   -0.0987 C   0  0  0  0  0  0  0  0  0  0  0  0
   -1.1980   -0.4247    0.0581 C   0  0  0  0  0  0  0  0  0  0  0  0
    8.9269   -0.5094   -0.0297 C   0  0  0  0  0  0  0  0  0  0  0  0
   -2.4201    0.4568    0.0380 C   0  0  0  0  0  0  0  0  0  0  0  0
   -5.9339   -0.5865    0.0059 C   0  0  0  0  0  0  0  0  0  0  0  0
   -4.7832    0.4100   -0.0005 C   0  0  0  0  0  0  0  0  0  0  0  0
   -7.2876    0.1156   -0.0511 C   0  0  0  0  0  0  0  0  0  0  0  0
   -8.4325   -0.8839   -0.0881 C   0  0  0  0  0  0  0  0  0  0  0  0
  1 12  1  0
  1 14  1  0
  2 12  2  0
  3  4  1  0
  3  5  1  0
  4  6  1  0
  5  7  1  0
  6  8  1  0
  7 10  1  0
  8  9  1  0
  9 11  1  0
 10 12  1  0
 13 14  1  0
 13 15  1  0
 15 16  1  0
M  END
>  <PUBCHEM_COMPOUND_CID>  (1) 
35408

>  <PUBCHEM_CONFORMER_RMSD>  (1) 
1

>  <PUBCHEM_CONFORMER_DIVERSEORDER>  (1) 
1
387
286
107
206
354
113
43
297
318
7
260
120
143
380
247
10
329
58
168
51
239
287
402
23
366
96
63
454
300
406
76
278
417
440
83
251
28
232
243
425
15
386
227
93
327
22
439
339
166
347
13
392
215
73
133
421
30
210
193
38
316
86
64
40
25
277
335
200
401
365
156
407
160
6
234
39
35
137
236
438
57
338
88
192
138
11
301
285
346
452
208
221
94
394
34
31
427
261
121
66
115
24
77
90
175
330
151
238
204
153
2
382
303
360
18
451
170
267
373
355
98
263
8
415
182
319
53
116
282
413
144
45
12
444
255
225
101
70
320
374
400
55
201
118
164
424
446
186
44
256
435
447
126
302
324
103
336
254
203
16
269
450
191
140
262
33
309
289
344
325
65
433
194
350
141
211
341
410
437
95
317
158
162
304
67
253
432
92
419
340
397
21
71
223
172
148
91
295
362
114
245
237
323
110
252
134
167
152
26
169
322
334
224
326
393
112
372
214
60
176
78
404
128
290
29
265
414
42
179
311
122
109
383
361
231
376
108
268
61
180
174
131
257
82
41
368
384
230
87
150
442
50
443
412
216
434
199
3
119
313
220
420
445
48
429
195
5
308
343
370
441
198
357
242
312
332
275
147
353
135
75
246
102
4
209
395
219
100
274
280
117
56
159
105
418
375
157
448
124
426
202
293
283
139
212
228
298
54
127
240
47
337
422
378
177
305
342
68
296
249
81
235
123
359
352
205
185
381
411
136
32
165
233
19
20
428
367
396
37
416
89
408
390
321
155
80
310
84
97
217
276
299
226
328
14
163
173
183
430
129
197
145
388
149
189
391
248
271
154
294
264
132
385
74
72
266
270
377
272
250
229
244
288
279
142
187
62
161
69
331
306
399
85
99
125
315
36
46
171
307
213
218
104
284
423
405
453
431
351
59
389
291
314
222
190
130
52
184
27
449
259
241
273
358
9
207
196
49
345
106
364
348
17
403
258
146
379
111
363
181
178
436
409
349
79
356
188
281
333
371
292
398
369

>  <PUBCHEM_MMFF94_PARTIAL_CHARGES>  (1) 
5
1 -0.43
10 0.06
12 0.66
14 0.28
2 -0.57

>  <PUBCHEM_EFFECTIVE_ROTOR_COUNT>  (1) 
12

>  <PUBCHEM_PHARMACOPHORE_FEATURES>  (1) 
3
1 11 hydrophobe
1 16 hydrophobe
1 2 acceptor

>  <PUBCHEM_HEAVY_ATOM_COUNT>  (1) 
16

>  <PUBCHEM_ATOM_DEF_STEREO_COUNT>  (1) 
0

>  <PUBCHEM_ATOM_UDEF_STEREO_COUNT>  (1) 
0

>  <PUBCHEM_BOND_DEF_STEREO_COUNT>  (1) 
0

>  <PUBCHEM_BOND_UDEF_STEREO_COUNT>  (1) 
0

>  <PUBCHEM_ISOTOPIC_ATOM_COUNT>  (1) 
0

>  <PUBCHEM_COMPONENT_COUNT>  (1) 
1

>  <PUBCHEM_CACTVS_TAUTO_COUNT>  (1) 
1

>  <PUBCHEM_CONFORMER_ID>  (1) 
00008A5000000001

>  <PUBCHEM_MMFF94_ENERGY>  (1) 
-0.6231

>  <PUBCHEM_FEATURE_SELFOVERLAP>  (1) 
15.223

>  <PUBCHEM_SHAPE_FINGERPRINT>  (1) 
10968037 39 18334857221439291175
11315181 36 16950290610907788897
12091667 2 17603867797933081537
13533116 47 17240751852970172128
14123256 10 18407477760613472686
14251764 18 18408324367735001482
14251764 46 17458344144020311211
17834076 25 18410293609691649506
18006028 8 18343301474962017521
18335252 98 18272936007227235039
21095086 128 17917711301210979438
21150785 3 16950281810276887870
21267235 1 18413672413219136337
21315763 28 18408885123102948900
22224240 67 18272086110804186430
232437 2 18411700989049927422
23521765 1 18342176669870596874
246663 6 17917713508750114911
33684 2 18187363229556744074
4325135 7 18410292514480374503
59682541 35 18272931652151333666
67123 10 18410575101848242374
8209 1 18410573989446424934

>  <PUBCHEM_SHAPE_MULTIPOLES>  (1) 
317.53
28.59
0.95
0.61
8.78
0.15
0
-5.67
-1
-0.51
0
0.04
-0.01
-0.05

>  <PUBCHEM_SHAPE_SELFOVERLAP>  (1) 
577.135

>  <PUBCHEM_SHAPE_VOLUME>  (1) 
203.3

>  <PUBCHEM_COORDINATE_TYPE>  (1) 
2
5
10

$$$$
