35417
     RDKit          3D

 11 11  0  0  0  0  0  0  0  0999 V2000
    3.8328    0.0025    0.7111 N   0  0  0  0  0  0  0  0  0  0  0  0
    1.4426    0.0116    0.1682 C   0  0  0  0  0  0  0  0  0  0  0  0
    0.4143    0.0083   -0.9659 C   0  0  0  0  0  0  0  0  0  0  0  0
    2.8677   -0.0218   -0.3816 C   0  0  0  0  0  0  0  0  0  0  0  0
   -0.9977    0.0035   -0.4385 C   0  0  0  0  0  0  0  0  0  0  0  0
   -1.6325   -1.2066   -0.2004 C   0  0  0  0  0  0  0  0  0  0  0  0
   -1.6403    1.2093   -0.1998 C   0  0  0  0  0  0  0  0  0  0  0  0
   -2.9393   -1.2110    0.2873 C   0  0  0  0  0  0  0  0  0  0  0  0
   -2.9471    1.2050    0.2881 C   0  0  0  0  0  0  0  0  0  0  0  0
    5.1961    0.0044    0.2000 C   0  0  0  0  0  0  0  0  0  0  0  0
   -3.5965   -0.0053    0.5316 C   0  0  0  0  0  0  0  0  0  0  0  0
  1  4  1  0
  1 10  1  0
  2  3  1  0
  2  4  1  0
  3  5  1  0
  5  6  2  0
  5  7  1  0
  6  8  1  0
  7  9  2  0
  8 11  2  0
  9 11  1  0
M  END
>  <PUBCHEM_COMPOUND_CID>  (1) 
35417

>  <PUBCHEM_CONFORMER_RMSD>  (1) 
0.6

>  <PUBCHEM_CONFORMER_DIVERSEORDER>  (1) 
1
13
8
2
4
9
10
6
3
5
12
11
7

>  <PUBCHEM_MMFF94_PARTIAL_CHARGES>  (1) 
16
1 -0.9
10 0.27
11 -0.15
18 0.36
19 0.15
20 0.15
21 0.15
22 0.15
26 0.15
3 0.14
4 0.27
5 -0.14
6 -0.15
7 -0.15
8 -0.15
9 -0.15

>  <PUBCHEM_EFFECTIVE_ROTOR_COUNT>  (1) 
4

>  <PUBCHEM_PHARMACOPHORE_FEATURES>  (1) 
3
1 1 cation
1 1 donor
6 5 6 7 8 9 11 rings

>  <PUBCHEM_HEAVY_ATOM_COUNT>  (1) 
11

>  <PUBCHEM_ATOM_DEF_STEREO_COUNT>  (1) 
0

>  <PUBCHEM_ATOM_UDEF_STEREO_COUNT>  (1) 
0

>  <PUBCHEM_BOND_DEF_STEREO_COUNT>  (1) 
0

>  <PUBCHEM_BOND_UDEF_STEREO_COUNT>  (1) 
0

>  <PUBCHEM_ISOTOPIC_ATOM_COUNT>  (1) 
0

>  <PUBCHEM_COMPONENT_COUNT>  (1) 
1

>  <PUBCHEM_CACTVS_TAUTO_COUNT>  (1) 
1

>  <PUBCHEM_CONFORMER_ID>  (1) 
00008A5900000001

>  <PUBCHEM_MMFF94_ENERGY>  (1) 
16.3277

>  <PUBCHEM_FEATURE_SELFOVERLAP>  (1) 
15.223

>  <PUBCHEM_SHAPE_FINGERPRINT>  (1) 
12251169 10 18409450292915931508
124424 183 18060134332153845856
13024252 1 14562529570678106261
13214271 11 17989204845873412101
13897977 58 18410017667044636716
15219456 202 17917158195106238454
200 152 15285355136931849251
20279233 1 17775290456200316054
20645464 45 17917998273787760567
20645477 70 13118267158713839312
20711985 327 17167867473744019942
20828058 21 18413392038423583364
20828058 44 18407759235875000530
21119208 17 10447928369242173048
21650355 55 18337392737970422657
22485316 2 16515678940419793008
23402539 116 18272081721848432415
23403322 49 12468630617188561448
42 15 18408322160206415018
449060 50 18273216396046380356

>  <PUBCHEM_SHAPE_MULTIPOLES>  (1) 
221.39
8.52
1.15
0.82
11.43
0
0.06
0
-2.13
-1.22
-0.02
0.09
0
0

>  <PUBCHEM_SHAPE_SELFOVERLAP>  (1) 
438.544

>  <PUBCHEM_SHAPE_VOLUME>  (1) 
131.5

>  <PUBCHEM_COORDINATE_TYPE>  (1) 
2
5
10

$$$$
