35424
     RDKit          3D

 16 16  0  0  0  0  0  0  0  0999 V2000
    3.7326    0.4724   -2.0845 O   0  0  0  0  0  0  0  0  0  0  0  0
    1.4785    1.4863    0.7442 O   0  0  0  0  0  0  0  0  0  0  0  0
    2.1963   -0.6178    0.0708 N   0  0  0  0  0  0  0  0  0  0  0  0
    3.6236   -0.3803    0.2098 C   0  0  0  0  0  0  0  0  0  0  0  0
    4.0419    0.7666   -0.7269 C   0  0  0  0  0  0  0  0  0  0  0  0
    4.3786   -1.6567   -0.1852 C   0  0  0  0  0  0  0  0  0  0  0  0
    3.9348   -0.0375    1.6730 C   0  0  0  0  0  0  0  0  0  0  0  0
    1.2494    0.3462    0.3536 C   0  0  0  0  0  0  0  0  0  0  0  0
   -0.1346   -0.1614    0.1236 C   0  0  0  0  0  0  0  0  0  0  0  0
   -1.1846    0.6471    0.3330 C   0  0  0  0  0  0  0  0  0  0  0  0
   -2.5456    0.2484    0.1224 C   0  0  0  0  0  0  0  0  0  0  0  0
   -2.8981   -1.1115    0.0852 C   0  0  0  0  0  0  0  0  0  0  0  0
   -3.5565    1.2090   -0.0516 C   0  0  0  0  0  0  0  0  0  0  0  0
   -4.2223   -1.4992   -0.1200 C   0  0  0  0  0  0  0  0  0  0  0  0
   -4.8806    0.8212   -0.2567 C   0  0  0  0  0  0  0  0  0  0  0  0
   -5.2136   -0.5329   -0.2907 C   0  0  0  0  0  0  0  0  0  0  0  0
  1  5  1  0
  2  8  2  0
  3  4  1  0
  3  8  1  0
  4  5  1  0
  4  6  1  0
  4  7  1  0
  8  9  1  0
  9 10  2  0
 10 11  1  0
 11 12  2  0
 11 13  1  0
 12 14  1  0
 13 15  2  0
 14 16  2  0
 15 16  1  0
M  END
>  <PUBCHEM_COMPOUND_CID>  (1) 
35424

>  <PUBCHEM_CONFORMER_RMSD>  (1) 
0.6

>  <PUBCHEM_CONFORMER_DIVERSEORDER>  (1) 
1
18
17
22
8
20
14
3
5
16
19
2
21
12
4
15
7
6
9
10
13
11

>  <PUBCHEM_MMFF94_PARTIAL_CHARGES>  (1) 
23
1 -0.68
10 -0.18
11 0.03
12 -0.15
13 -0.15
14 -0.15
15 -0.15
16 -0.15
2 -0.57
25 0.37
26 0.4
27 0.15
28 0.15
29 0.15
3 -0.73
30 0.15
31 0.15
32 0.15
33 0.15
4 0.3
5 0.28
8 0.62
9 -0.14

>  <PUBCHEM_EFFECTIVE_ROTOR_COUNT>  (1) 
5

>  <PUBCHEM_PHARMACOPHORE_FEATURES>  (1) 
6
1 1 acceptor
1 1 donor
1 2 acceptor
1 3 donor
3 4 6 7 hydrophobe
6 11 12 13 14 15 16 rings

>  <PUBCHEM_HEAVY_ATOM_COUNT>  (1) 
16

>  <PUBCHEM_ATOM_DEF_STEREO_COUNT>  (1) 
0

>  <PUBCHEM_ATOM_UDEF_STEREO_COUNT>  (1) 
0

>  <PUBCHEM_BOND_DEF_STEREO_COUNT>  (1) 
0

>  <PUBCHEM_BOND_UDEF_STEREO_COUNT>  (1) 
1

>  <PUBCHEM_ISOTOPIC_ATOM_COUNT>  (1) 
0

>  <PUBCHEM_COMPONENT_COUNT>  (1) 
1

>  <PUBCHEM_CACTVS_TAUTO_COUNT>  (1) 
2

>  <PUBCHEM_CONFORMER_ID>  (1) 
00008A6000000001

>  <PUBCHEM_MMFF94_ENERGY>  (1) 
42.8936

>  <PUBCHEM_FEATURE_SELFOVERLAP>  (1) 
30.448

>  <PUBCHEM_SHAPE_FINGERPRINT>  (1) 
10912923 1 17821728334141914329
11128504 68 17530688727124105111
11543360 7 17894636984275676432
12616999 72 18409737266036402070
13167823 11 18261108565116289195
13533116 47 12967139289174850965
13675066 3 17131828781036093913
13760787 5 17022618667594359177
14251718 22 18335986462129154660
14252887 29 16702023071768290458
17834072 33 18260550056158785621
17844677 252 17989489623606354553
17870717 6 18201449068925649599
18186145 218 16081375154625864432
1986462 14 18412825776881714437
200 152 17489582373103398787
20279233 1 17775567532988181479
20281475 54 18412548673775561864
20432913 95 15626226809975345095
20645477 70 18202003188273693150
22224240 67 15123493802211265734
22485316 2 18342735221561352803
22646028 1 18187359930810805859
23175994 123 17060621114272053977
23402539 116 17676198052983790853
23402655 69 18259988166956862764
23557571 272 18341335474576978580
23559900 14 18343014501941618288
239999 70 17632579370796685182
300161 21 18113333132838068844
3004659 81 18334013852913189834
32948 21 18336543833178690213
34797466 226 18129954480116944901
4047638 21 16153430554125492584
4214541 1 18411980230970522969
474 4 16154284947595786340
4921388 177 16732993067475522219
4990 188 18130793347448611638
5104073 3 18343017787660165651
522135 26 16443062781822155210
5281201 14 17168140109662263062
5374978 207 15913323589807735514
542803 24 17530684303655943149
573450 72 18261381227009616529
633830 44 17385446500853877299
77779 3 18410574002647922433
960060 61 18186807976142480430

>  <PUBCHEM_SHAPE_MULTIPOLES>  (1) 
312.55
12.35
1.39
1.08
2.9
0.24
-0.19
1.87
-1.51
0.29
-0.03
-1.68
-0.17
-0.19

>  <PUBCHEM_SHAPE_SELFOVERLAP>  (1) 
637.779

>  <PUBCHEM_SHAPE_VOLUME>  (1) 
180.9

>  <PUBCHEM_COORDINATE_TYPE>  (1) 
2
5
10

$$$$
