35422
     RDKit          3D

 16 16  0  0  0  0  0  0  0  0999 V2000
    5.1587   -0.8441   -0.0082 O   0  0  0  0  0  0  0  0  0  0  0  0
   -5.4177   -1.5762    1.2130 O   0  0  0  0  0  0  0  0  0  0  0  0
   -2.8453    1.7846   -0.1659 O   0  0  0  0  0  0  0  0  0  0  0  0
   -3.5668   -0.3863   -0.5782 N   0  0  0  0  0  0  0  0  0  0  0  0
    1.2193    0.3979   -0.0981 C   0  0  0  0  0  0  0  0  0  0  0  0
   -4.9856   -0.1122   -0.6285 C   0  0  0  0  0  0  0  0  0  0  0  0
    1.5663   -0.8019   -0.6974 C   0  0  0  0  0  0  0  0  0  0  0  0
    2.1659    1.1901    0.5309 C   0  0  0  0  0  0  0  0  0  0  0  0
   -0.1855    0.8417   -0.1302 C   0  0  0  0  0  0  0  0  0  0  0  0
    3.8612   -0.4347   -0.0375 C   0  0  0  0  0  0  0  0  0  0  0  0
   -5.6071   -0.2447    0.7527 C   0  0  0  0  0  0  0  0  0  0  0  0
    2.8962   -1.2212   -0.6668 C   0  0  0  0  0  0  0  0  0  0  0  0
    3.4960    0.7710    0.5615 C   0  0  0  0  0  0  0  0  0  0  0  0
   -1.2338    0.0344   -0.3493 C   0  0  0  0  0  0  0  0  0  0  0  0
   -2.6157    0.5937   -0.3498 C   0  0  0  0  0  0  0  0  0  0  0  0
    6.0939    0.0079    0.6517 C   0  0  0  0  0  0  0  0  0  0  0  0
  1 10  1  0
  1 16  1  0
  2 11  1  0
  3 15  2  0
  4  6  1  0
  4 15  1  0
  5  7  2  0
  5  8  1  0
  5  9  1  0
  6 11  1  0
  7 12  1  0
  8 13  2  0
  9 14  2  0
 10 12  2  0
 10 13  1  0
 14 15  1  0
M  END
>  <PUBCHEM_COMPOUND_CID>  (1) 
35422

>  <PUBCHEM_CONFORMER_RMSD>  (1) 
0.8

>  <PUBCHEM_CONFORMER_DIVERSEORDER>  (1) 
1
7
2
3
8
4
10
9
6
5
11

>  <PUBCHEM_MMFF94_PARTIAL_CHARGES>  (1) 
24
1 -0.36
10 0.08
11 0.28
12 -0.15
13 -0.15
14 -0.14
15 0.62
16 0.28
19 0.15
2 -0.68
20 0.15
21 0.15
22 0.37
25 0.15
26 0.15
27 0.15
28 0.4
3 -0.57
4 -0.73
5 0.03
6 0.3
7 -0.15
8 -0.15
9 -0.18

>  <PUBCHEM_EFFECTIVE_ROTOR_COUNT>  (1) 
6

>  <PUBCHEM_PHARMACOPHORE_FEATURES>  (1) 
6
1 1 acceptor
1 2 acceptor
1 2 donor
1 3 acceptor
1 4 donor
6 5 7 8 10 12 13 rings

>  <PUBCHEM_HEAVY_ATOM_COUNT>  (1) 
16

>  <PUBCHEM_ATOM_DEF_STEREO_COUNT>  (1) 
0

>  <PUBCHEM_ATOM_UDEF_STEREO_COUNT>  (1) 
0

>  <PUBCHEM_BOND_DEF_STEREO_COUNT>  (1) 
0

>  <PUBCHEM_BOND_UDEF_STEREO_COUNT>  (1) 
1

>  <PUBCHEM_ISOTOPIC_ATOM_COUNT>  (1) 
0

>  <PUBCHEM_COMPONENT_COUNT>  (1) 
1

>  <PUBCHEM_CACTVS_TAUTO_COUNT>  (1) 
2

>  <PUBCHEM_CONFORMER_ID>  (1) 
00008A5E00000001

>  <PUBCHEM_MMFF94_ENERGY>  (1) 
41.7635

>  <PUBCHEM_FEATURE_SELFOVERLAP>  (1) 
30.449

>  <PUBCHEM_SHAPE_FINGERPRINT>  (1) 
10354089 29 17275387607754314082
11089746 13 13973959892190696219
11287383 113 18040999569823869148
12236239 1 15769774658693937502
1420 363 18408044008922461743
14251718 22 17240484719015836468
14251732 16 18187367679069211016
14251764 18 17275105055294673987
14252887 29 17704077257233509838
14341114 176 18202567276092409980
14455015 7 18409452479291726867
15048467 5 12247673890389804810
17834072 33 12973890325039688817
17834076 25 13973962108014058069
17844677 252 18040439893205610213
200 152 17775279452351724013
20281389 69 11527945651389040578
20645477 56 10879992454514651713
20645477 70 18130224840351289806
21054139 6 16226047824861360547
21150785 3 16950574281208887014
21267235 1 18273219673317378366
23402539 116 15430032145659222951
23557571 272 18115019706492663381
23559900 14 18040994094168081437
26918003 58 18413108368639463027
29717793 49 14779545656403501714
33824 294 18342737378241986742
42 15 18343021086295294397
4214541 1 18271523109406181029
465052 167 18407758119473933250
5104073 3 18128533773981582490
7495541 125 18187086182554360476

>  <PUBCHEM_SHAPE_MULTIPOLES>  (1) 
306.68
14.1
1.29
0.89
5.88
0.09
-0.13
-3.34
-3.81
0.11
-0.04
0.63
-0.16
0.98

>  <PUBCHEM_SHAPE_SELFOVERLAP>  (1) 
624.326

>  <PUBCHEM_SHAPE_VOLUME>  (1) 
178.3

>  <PUBCHEM_COORDINATE_TYPE>  (1) 
2
5
10

$$$$
