35438
     RDKit          3D

 18 18  0  0  0  0  0  0  0  0999 V2000
   -3.1268   -1.8643    0.6570 O   0  0  0  0  0  0  0  0  0  0  0  0
   -4.8170    0.0173   -0.4958 O   0  0  0  0  0  0  0  0  0  0  0  0
    5.7616   -1.6083   -1.2377 O   0  0  0  0  0  0  0  0  0  0  0  0
    3.3693    1.8052    0.4009 O   0  0  0  0  0  0  0  0  0  0  0  0
    3.8630   -0.4589    0.5837 N   0  0  0  0  0  0  0  0  0  0  0  0
   -0.7921    0.8398   -0.0455 C   0  0  0  0  0  0  0  0  0  0  0  0
   -2.6408   -0.6637    0.2347 C   0  0  0  0  0  0  0  0  0  0  0  0
   -1.2831   -0.3820    0.3849 C   0  0  0  0  0  0  0  0  0  0  0  0
   -3.4891    0.2803   -0.3440 C   0  0  0  0  0  0  0  0  0  0  0  0
   -1.6217    1.7877   -0.6223 C   0  0  0  0  0  0  0  0  0  0  0  0
   -2.9795    1.5061   -0.7726 C   0  0  0  0  0  0  0  0  0  0  0  0
    0.6424    1.1374    0.1129 C   0  0  0  0  0  0  0  0  0  0  0  0
    5.2948   -0.3325    0.7404 C   0  0  0  0  0  0  0  0  0  0  0  0
    1.5971    0.2116    0.2867 C   0  0  0  0  0  0  0  0  0  0  0  0
    6.0072   -0.3619   -0.5995 C   0  0  0  0  0  0  0  0  0  0  0  0
    3.0213    0.6292    0.4267 C   0  0  0  0  0  0  0  0  0  0  0  0
   -3.1280   -2.9319   -0.2889 C   0  0  0  0  0  0  0  0  0  0  0  0
   -5.6784    0.3888    0.5785 C   0  0  0  0  0  0  0  0  0  0  0  0
  1  7  1  0
  1 17  1  0
  2  9  1  0
  2 18  1  0
  3 15  1  0
  4 16  2  0
  5 13  1  0
  5 16  1  0
  6  8  2  0
  6 10  1  0
  6 12  1  0
  7  8  1  0
  7  9  2  0
  9 11  1  0
 10 11  2  0
 12 14  2  0
 13 15  1  0
 14 16  1  0
M  END
>  <PUBCHEM_COMPOUND_CID>  (1) 
35438

>  <PUBCHEM_CONFORMER_RMSD>  (1) 
0.8

>  <PUBCHEM_CONFORMER_DIVERSEORDER>  (1) 
2
19
15
3
10
20
26
8
23
14
29
5
12
17
7
22
16
1
25
6
13
28
9
24
18
27
11
21
4

>  <PUBCHEM_MMFF94_PARTIAL_CHARGES>  (1) 
25
1 -0.36
10 -0.15
11 -0.15
12 -0.18
13 0.3
14 -0.14
15 0.28
16 0.62
17 0.28
18 0.28
19 0.15
2 -0.36
20 0.15
21 0.15
22 0.15
25 0.37
26 0.15
3 -0.68
35 0.4
4 -0.57
5 -0.73
6 0.03
7 0.08
8 -0.15
9 0.08

>  <PUBCHEM_EFFECTIVE_ROTOR_COUNT>  (1) 
7

>  <PUBCHEM_PHARMACOPHORE_FEATURES>  (1) 
7
1 1 acceptor
1 2 acceptor
1 3 acceptor
1 3 donor
1 4 acceptor
1 5 donor
6 6 7 8 9 10 11 rings

>  <PUBCHEM_HEAVY_ATOM_COUNT>  (1) 
18

>  <PUBCHEM_ATOM_DEF_STEREO_COUNT>  (1) 
0

>  <PUBCHEM_ATOM_UDEF_STEREO_COUNT>  (1) 
0

>  <PUBCHEM_BOND_DEF_STEREO_COUNT>  (1) 
0

>  <PUBCHEM_BOND_UDEF_STEREO_COUNT>  (1) 
1

>  <PUBCHEM_ISOTOPIC_ATOM_COUNT>  (1) 
0

>  <PUBCHEM_COMPONENT_COUNT>  (1) 
1

>  <PUBCHEM_CACTVS_TAUTO_COUNT>  (1) 
2

>  <PUBCHEM_CONFORMER_ID>  (1) 
00008A6E00000002

>  <PUBCHEM_MMFF94_ENERGY>  (1) 
59.7001

>  <PUBCHEM_FEATURE_SELFOVERLAP>  (1) 
35.529

>  <PUBCHEM_SHAPE_FINGERPRINT>  (1) 
10616163 171 18335697260559500402
10912923 1 14045731643707971200
11128504 68 16443069404788371612
11405975 8 18340764931115908416
11524674 6 17561361781566863735
12236239 1 16515402941294516460
12390115 104 18194685869808913177
12555020 224 18337658798594669767
12596602 18 14548441553618630398
13288520 33 18408322177101545077
13533116 47 17132112425540981730
13914758 101 15769503015171654833
14341114 176 18411139151619792344
14386348 63 18272936003306567294
14617045 38 18334861584398525155
15042514 8 18262520416088955459
15196674 1 18336825415291972674
15537594 2 17967530164196052939
17834072 33 17822012021491064540
17844677 252 18409451363033305272
17870717 6 18409172078004040990
18186145 218 15285633356339459608
19141452 34 18411699924314503115
200 152 17704347762494604512
20281475 54 18337672048004405017
20374829 77 18334852831645078786
20645477 70 18272084994613544052
21267235 1 18187931720461167011
221490 88 18336266863907477384
2215653 11 18342170042619975980
2297311 6 18334862692531645037
23035841 295 18335139769899356706
23175994 123 17846495941485408864
23402539 116 18040426724286812419
23557571 272 18341615867469954340
23559900 14 18338508742088531816
26918003 58 17917711313905710944
3004659 81 17822851954265512130
335352 9 18334290977483474061
34797466 226 18408893936586830884
4214541 1 18335697230520946984
5104073 3 18338792441567898864
543368 44 16226062110428787684
559249 180 17969489416865456722
58051976 100 18408036329621208798
59755656 215 18338516344011704278
9709674 26 18412823555982812910

>  <PUBCHEM_SHAPE_MULTIPOLES>  (1) 
341.97
13.7
2.06
0.88
14.68
1.16
0.08
3.8
1.01
-1.58
0.33
0.42
0.08
0.89

>  <PUBCHEM_SHAPE_SELFOVERLAP>  (1) 
695.557

>  <PUBCHEM_SHAPE_VOLUME>  (1) 
199.3

>  <PUBCHEM_COORDINATE_TYPE>  (1) 
2
5
10

$$$$
