35433
     RDKit          3D

 17 17  0  0  0  0  0  0  0  0999 V2000
    3.3576   -2.3469    1.0849 O   0  0  0  0  0  0  0  0  0  0  0  0
    2.2484    3.7404    0.0201 O   0  0  0  0  0  0  0  0  0  0  0  0
    1.4451   -1.8320   -1.0842 O   0  0  0  0  0  0  0  0  0  0  0  0
    2.4319    0.0503   -0.1437 N   0  0  0  0  0  0  0  0  0  0  0  0
    3.7841   -0.4586   -0.3331 C   0  0  0  0  0  0  0  0  0  0  0  0
    2.3379    1.3817    0.4522 C   0  0  0  0  0  0  0  0  0  0  0  0
    4.2507   -1.2624    0.8668 C   0  0  0  0  0  0  0  0  0  0  0  0
    2.3779    2.4700   -0.6049 C   0  0  0  0  0  0  0  0  0  0  0  0
    1.3437   -0.7231   -0.5575 C   0  0  0  0  0  0  0  0  0  0  0  0
   -0.0062   -0.1183   -0.3571 C   0  0  0  0  0  0  0  0  0  0  0  0
   -1.0711   -0.9177   -0.1951 C   0  0  0  0  0  0  0  0  0  0  0  0
   -2.4548   -0.4424   -0.0208 C   0  0  0  0  0  0  0  0  0  0  0  0
   -2.6775    0.8604    0.3950 C   0  0  0  0  0  0  0  0  0  0  0  0
   -3.5067   -1.3072   -0.2764 C   0  0  0  0  0  0  0  0  0  0  0  0
   -3.9874    1.3107    0.5596 C   0  0  0  0  0  0  0  0  0  0  0  0
   -4.8167   -0.8569   -0.1120 C   0  0  0  0  0  0  0  0  0  0  0  0
   -5.0570    0.4521    0.3060 C   0  0  0  0  0  0  0  0  0  0  0  0
  1  7  1  0
  2  8  1  0
  3  9  2  0
  4  5  1  0
  4  6  1  0
  4  9  1  0
  5  7  1  0
  6  8  1  0
  9 10  1  0
 10 11  2  0
 11 12  1  0
 12 13  2  0
 12 14  1  0
 13 15  1  0
 14 16  2  0
 15 17  2  0
 16 17  1  0
M  END
>  <PUBCHEM_COMPOUND_CID>  (1) 
35433

>  <PUBCHEM_CONFORMER_RMSD>  (1) 
0.8

>  <PUBCHEM_CONFORMER_DIVERSEORDER>  (1) 
1
35
25
38
30
15
19
7
37
33
40
17
34
39
13
5
3
32
20
22
4
11
28
23
31
16
29
18
26
12
10
36
6
21
14
9
8
27
2
24

>  <PUBCHEM_MMFF94_PARTIAL_CHARGES>  (1) 
26
1 -0.68
10 -0.14
11 -0.18
12 0.03
13 -0.15
14 -0.15
15 -0.15
16 -0.15
17 -0.15
2 -0.68
26 0.15
27 0.15
28 0.15
29 0.15
3 -0.57
30 0.4
31 0.4
32 0.15
33 0.15
34 0.15
4 -0.66
5 0.3
6 0.3
7 0.28
8 0.28
9 0.62

>  <PUBCHEM_EFFECTIVE_ROTOR_COUNT>  (1) 
7

>  <PUBCHEM_PHARMACOPHORE_FEATURES>  (1) 
6
1 1 acceptor
1 1 donor
1 2 acceptor
1 2 donor
1 3 acceptor
6 12 13 14 15 16 17 rings

>  <PUBCHEM_HEAVY_ATOM_COUNT>  (1) 
17

>  <PUBCHEM_ATOM_DEF_STEREO_COUNT>  (1) 
0

>  <PUBCHEM_ATOM_UDEF_STEREO_COUNT>  (1) 
0

>  <PUBCHEM_BOND_DEF_STEREO_COUNT>  (1) 
0

>  <PUBCHEM_BOND_UDEF_STEREO_COUNT>  (1) 
1

>  <PUBCHEM_ISOTOPIC_ATOM_COUNT>  (1) 
0

>  <PUBCHEM_COMPONENT_COUNT>  (1) 
1

>  <PUBCHEM_CACTVS_TAUTO_COUNT>  (1) 
1

>  <PUBCHEM_CONFORMER_ID>  (1) 
00008A6900000001

>  <PUBCHEM_MMFF94_ENERGY>  (1) 
40.2423

>  <PUBCHEM_FEATURE_SELFOVERLAP>  (1) 
30.449

>  <PUBCHEM_SHAPE_FINGERPRINT>  (1) 
10062212 137 18202277018239979367
10366900 7 17894636954232076018
11405975 8 18409171021790200435
12107183 9 17760928446265885739
12162725 195 18342742927043762173
12251169 10 18411414016551975214
12403260 363 18341607123111153063
12507557 5 18412259519566195929
12633257 1 18339930311917996065
13167823 11 18410009953241408811
13533116 47 18260548961311591691
13583140 156 18186791475010439687
14341114 176 18411985758118575443
14415576 193 18272094928245139453
15196674 1 18341334478640294745
15442244 35 18410856538170552689
17041 49 18410012091992125760
17492 89 18340207500338595007
17802600 8 18411980243723588501
18186145 218 18334573551349216039
18681886 176 18060138777919763870
19050596 39 18272373079265348367
20671657 1 18337955713598975172
21709351 56 18342734122297496015
2255824 54 18336548308782357110
23402539 116 18271798004788114287
23557571 272 16773526473069769153
23558518 356 18051682545660312062
23559900 14 18059583438242534343
31174 14 18260257573333895772
3286 77 18260545619283385206
345986 75 17534885408826549074
351380 180 18410009927529016731
42 15 18113618941426530515
4214541 1 18412546488169944991
4409770 3 17466493513393800436
474 4 18043251451352969349
5104073 3 18340211881694925563
573450 72 18339355276058531299
67856867 119 18341606079133634201
9709674 26 18343029891184603351
9971528 1 18201722808587229630
9981440 41 17688303903776574208

>  <PUBCHEM_SHAPE_MULTIPOLES>  (1) 
327.26
10.27
2.66
0.86
6.45
2.32
-0.04
-1.12
-1.75
-3.16
-0.05
-0.45
-0.21
-1.03

>  <PUBCHEM_SHAPE_SELFOVERLAP>  (1) 
661.4

>  <PUBCHEM_SHAPE_VOLUME>  (1) 
190.5

>  <PUBCHEM_COORDINATE_TYPE>  (1) 
2
5
10

$$$$
