35434
     RDKit          3D

 15 15  0  0  1  0  0  0  0  0999 V2000
   -4.2706    1.5623   -1.4821 O   0  0  0  0  0  0  0  0  0  0  0  0
   -1.6158   -1.8544   -0.3806 O   0  0  0  0  0  0  0  0  0  0  0  0
   -2.4683    0.2140    0.2482 N   0  0  0  0  0  0  0  0  0  0  0  0
   -3.8705   -0.1311    0.1827 C   0  0  0  0  0  0  0  0  0  0  0  0
   -4.7068    1.0833   -0.2150 C   0  0  0  0  0  0  0  0  0  0  0  0
   -4.3275   -0.6979    1.5207 C   0  0  0  0  0  0  0  0  0  0  0  0
   -1.4567   -0.6862   -0.0419 C   0  0  0  0  0  0  0  0  0  0  0  0
   -0.1064   -0.0684    0.1025 C   0  0  0  0  0  0  0  0  0  0  0  0
    2.3247   -0.2797   -0.0586 C   0  0  0  0  0  0  0  0  0  0  0  0
    0.9908   -0.7961   -0.1558 C   0  0  0  0  0  0  0  0  0  0  0  0
    2.5956    0.8725    0.6993 C   0  0  0  0  0  0  0  0  0  0  0  0
    3.3904   -0.9142   -0.7194 C   0  0  0  0  0  0  0  0  0  0  0  0
    3.8933    1.3749    0.7936 C   0  0  0  0  0  0  0  0  0  0  0  0
    4.6882   -0.4118   -0.6251 C   0  0  0  0  0  0  0  0  0  0  0  0
    4.9397    0.7328    0.1315 C   0  0  0  0  0  0  0  0  0  0  0  0
  1  5  1  0
  2  7  2  0
  3  4  1  0
  3  7  1  0
  4  5  1  0
  4  6  1  0
  7  8  1  0
  8 10  2  0
  9 10  1  0
  9 11  2  0
  9 12  1  0
 11 13  1  0
 12 14  2  0
 13 15  2  0
 14 15  1  0
M  END
>  <PUBCHEM_COMPOUND_CID>  (1) 
35434

>  <PUBCHEM_CONFORMER_RMSD>  (1) 
0.6

>  <PUBCHEM_CONFORMER_DIVERSEORDER>  (1) 
1
12
14
17
20
6
18
11
22
4
7
19
15
8
13
21
5
2
10
3
9
16

>  <PUBCHEM_MMFF94_PARTIAL_CHARGES>  (1) 
23
1 -0.68
10 -0.18
11 -0.15
12 -0.15
13 -0.15
14 -0.15
15 -0.15
2 -0.57
22 0.37
23 0.15
24 0.15
25 0.4
26 0.15
27 0.15
28 0.15
29 0.15
3 -0.73
30 0.15
4 0.3
5 0.28
7 0.62
8 -0.14
9 0.03

>  <PUBCHEM_EFFECTIVE_ROTOR_COUNT>  (1) 
5

>  <PUBCHEM_PHARMACOPHORE_FEATURES>  (1) 
5
1 1 acceptor
1 1 donor
1 2 acceptor
1 3 donor
6 9 11 12 13 14 15 rings

>  <PUBCHEM_HEAVY_ATOM_COUNT>  (1) 
15

>  <PUBCHEM_ATOM_DEF_STEREO_COUNT>  (1) 
0

>  <PUBCHEM_ATOM_UDEF_STEREO_COUNT>  (1) 
0

>  <PUBCHEM_BOND_DEF_STEREO_COUNT>  (1) 
0

>  <PUBCHEM_BOND_UDEF_STEREO_COUNT>  (1) 
1

>  <PUBCHEM_ISOTOPIC_ATOM_COUNT>  (1) 
0

>  <PUBCHEM_COMPONENT_COUNT>  (1) 
1

>  <PUBCHEM_CACTVS_TAUTO_COUNT>  (1) 
2

>  <PUBCHEM_CONFORMER_ID>  (1) 
00008A6A00000001

>  <PUBCHEM_MMFF94_ENERGY>  (1) 
31.7687

>  <PUBCHEM_FEATURE_SELFOVERLAP>  (1) 
25.375

>  <PUBCHEM_SHAPE_FINGERPRINT>  (1) 
10014705 185 18341608252386865119
10680689 15 18335142016236006035
10912923 1 15913329082738603779
11471102 20 17917713504977257112
11543360 7 14405178499743744419
12500047 106 18341610460095455518
12596602 18 16153432769806832676
13081056 2 18342177769155579305
13214271 11 18040434399963102143
13675066 3 18333736831284535811
13760787 5 17346884437676494059
14123255 52 18408880733081986939
15239154 128 18342740736267751289
15242439 84 18343869913788457334
17834072 33 17561078146147203943
17834072 8 18131638876639006468
17870717 6 11959734884745795345
18186145 218 18273497879112067034
19433438 28 18261115192319074017
19489759 90 17676204680651007113
200 152 16056882433246998978
20300324 65 15554450691146191195
20432913 95 11674881078353097237
20645477 56 18411699919428646646
20645477 70 17775293742177761054
21033648 29 18412252939819106857
212847 35 18410012135464090072
21503847 285 17530970206881437268
22289505 5 18272930488737714868
231179 274 18410571777786232842
23402539 116 16630529505493813001
23402655 69 17632579387860561740
23557571 272 18041290876581899535
23559900 14 18060139838961575086
2916195 48 18262234529674410200
3545911 37 18201161035196286946
4028521 119 18412540994490178433
449060 50 18343025518427178658
5104073 3 18187647955665449635
522135 26 17989210339489920398
542803 24 17385726906731708868
573450 72 16226044505210180393
633830 44 18040995193901034486
77779 3 18130510824600393178
8272917 22 16988298481749233942
90127 26 18260553337313404713

>  <PUBCHEM_SHAPE_MULTIPOLES>  (1) 
291.97
12.11
1.4
1.03
2.76
0.04
-0.02
3.31
0.27
0.09
0.15
0.98
0.17
1.51

>  <PUBCHEM_SHAPE_SELFOVERLAP>  (1) 
592.01

>  <PUBCHEM_SHAPE_VOLUME>  (1) 
169.9

>  <PUBCHEM_COORDINATE_TYPE>  (1) 
2
5
10

$$$$
