35449
     RDKit          3D

 15 15  0  0  0  0  0  0  0  0999 V2000
   -1.4900    2.7283   -0.5714 Cl  0  0  0  0  0  0  0  0  0  0  0  0
    2.1235   -1.7973    0.4384 O   0  0  0  0  0  0  0  0  0  0  0  0
    3.1315    0.6597   -0.3809 O   0  0  0  0  0  0  0  0  0  0  0  0
   -2.8523   -1.0596   -0.4804 O   0  0  0  0  0  0  0  0  0  0  0  0
   -3.0822    0.5574    1.1418 O   0  0  0  0  0  0  0  0  0  0  0  0
   -0.9556    0.1505    0.1432 C   0  0  0  0  0  0  0  0  0  0  0  0
    1.2859   -0.7487    0.2047 C   0  0  0  0  0  0  0  0  0  0  0  0
    1.7919    0.4845   -0.2064 C   0  0  0  0  0  0  0  0  0  0  0  0
   -0.0878   -0.9157    0.3796 C   0  0  0  0  0  0  0  0  0  0  0  0
   -0.4497    1.3836   -0.2678 C   0  0  0  0  0  0  0  0  0  0  0  0
    0.9239    1.5507   -0.4426 C   0  0  0  0  0  0  0  0  0  0  0  0
   -2.3834   -0.0706    0.3384 C   0  0  0  0  0  0  0  0  0  0  0  0
    2.4109   -2.6553   -0.6640 C   0  0  0  0  0  0  0  0  0  0  0  0
    3.8800    1.1020    0.7496 C   0  0  0  0  0  0  0  0  0  0  0  0
   -4.2466   -1.3696   -0.3823 C   0  0  0  0  0  0  0  0  0  0  0  0
  1 10  1  0
  2  7  1  0
  2 13  1  0
  3  8  1  0
  3 14  1  0
  4 12  1  0
  4 15  1  0
  5 12  2  0
  6  9  2  0
  6 10  1  0
  6 12  1  0
  7  8  2  0
  7  9  1  0
  8 11  1  0
 10 11  2  0
M  END
>  <PUBCHEM_COMPOUND_CID>  (1) 
35449

>  <PUBCHEM_CONFORMER_RMSD>  (1) 
0.6

>  <PUBCHEM_CONFORMER_DIVERSEORDER>  (1) 
1
2
5
8
6
7
3
4

>  <PUBCHEM_MMFF94_PARTIAL_CHARGES>  (1) 
17
1 -0.18
10 0.18
11 -0.15
12 0.63
13 0.28
14 0.28
15 0.28
16 0.15
17 0.15
2 -0.36
3 -0.36
4 -0.43
5 -0.57
6 0.09
7 0.08
8 0.08
9 -0.15

>  <PUBCHEM_EFFECTIVE_ROTOR_COUNT>  (1) 
4

>  <PUBCHEM_PHARMACOPHORE_FEATURES>  (1) 
4
1 2 acceptor
1 3 acceptor
1 5 acceptor
6 6 7 8 9 10 11 rings

>  <PUBCHEM_HEAVY_ATOM_COUNT>  (1) 
15

>  <PUBCHEM_ATOM_DEF_STEREO_COUNT>  (1) 
0

>  <PUBCHEM_ATOM_UDEF_STEREO_COUNT>  (1) 
0

>  <PUBCHEM_BOND_DEF_STEREO_COUNT>  (1) 
0

>  <PUBCHEM_BOND_UDEF_STEREO_COUNT>  (1) 
0

>  <PUBCHEM_ISOTOPIC_ATOM_COUNT>  (1) 
0

>  <PUBCHEM_COMPONENT_COUNT>  (1) 
1

>  <PUBCHEM_CACTVS_TAUTO_COUNT>  (1) 
1

>  <PUBCHEM_CONFORMER_ID>  (1) 
00008A7900000001

>  <PUBCHEM_MMFF94_ENERGY>  (1) 
63.8106

>  <PUBCHEM_FEATURE_SELFOVERLAP>  (1) 
20.302

>  <PUBCHEM_SHAPE_FINGERPRINT>  (1) 
11132069 177 18411417345114615496
116883 192 18267016155514360637
11806522 49 18126844017788298815
12932764 1 18341061704771226292
13083527 12 18116966976071780378
13140716 1 18046915058551247104
13380535 21 18265621970291269852
13380535 76 18335420235421999058
14251717 144 18337670931106945966
14252887 29 18337402611915912459
14576447 43 18198333155988931207
15207287 21 17968651734976009218
15219456 202 18266456512622648096
15536298 74 18343305842569100678
15757776 16 18336821004524284799
161256 15 18337117748341620446
16945 1 18261684756374606740
193761 8 18192428572019766532
200 152 18270675489220425263
20201158 50 18114462357054853923
20525323 117 18333728000800360617
20588541 1 18335425715678468642
20645477 70 18410005521072575359
20871998 22 18409453565865646807
21501502 16 18263645065527117128
22344851 341 18043806481618545824
2334 1 18262239906767651764
23388829 49 18336547208838492037
23402539 116 18260535758117750580
23552423 10 18042693805773413366
2748010 2 18190177876039082764
581208 293 18409731789646968932
7364860 26 18271810064929771506
81228 2 18114186281021365437

>  <PUBCHEM_SHAPE_MULTIPOLES>  (1) 
287.09
6.09
2.59
0.84
1.63
0.03
0.06
1.62
0.4
-0.47
-0.66
0.05
-0.04
0.22

>  <PUBCHEM_SHAPE_SELFOVERLAP>  (1) 
584.86

>  <PUBCHEM_SHAPE_VOLUME>  (1) 
169.4

>  <PUBCHEM_COORDINATE_TYPE>  (1) 
2
5
10

$$$$
