35441
     RDKit          3D

 18 18  0  0  0  0  0  0  0  0999 V2000
    5.3335   -0.5875    0.9703 O   0  0  0  0  0  0  0  0  0  0  0  0
    3.1316   -2.0846   -1.2819 O   0  0  0  0  0  0  0  0  0  0  0  0
    3.0996    2.1050    1.2617 O   0  0  0  0  0  0  0  0  0  0  0  0
    0.8954    0.9222   -1.5046 O   0  0  0  0  0  0  0  0  0  0  0  0
    1.7067   -0.2018    0.3594 N   0  0  0  0  0  0  0  0  0  0  0  0
    3.1271   -0.0324    0.0768 C   0  0  0  0  0  0  0  0  0  0  0  0
    3.9345   -0.7118    1.2033 C   0  0  0  0  0  0  0  0  0  0  0  0
    3.4453   -0.6960   -1.2815 C   0  0  0  0  0  0  0  0  0  0  0  0
    3.4430    1.4775    0.0304 C   0  0  0  0  0  0  0  0  0  0  0  0
    0.7205    0.2955   -0.4647 C   0  0  0  0  0  0  0  0  0  0  0  0
   -0.6378   -0.0211    0.0616 C   0  0  0  0  0  0  0  0  0  0  0  0
   -1.7263    0.3728   -0.6158 C   0  0  0  0  0  0  0  0  0  0  0  0
   -3.1137    0.1080   -0.1959 C   0  0  0  0  0  0  0  0  0  0  0  0
   -3.3667   -0.9142    0.7044 C   0  0  0  0  0  0  0  0  0  0  0  0
   -4.1384    0.8865   -0.7093 C   0  0  0  0  0  0  0  0  0  0  0  0
   -4.6800   -1.1647    1.1024 C   0  0  0  0  0  0  0  0  0  0  0  0
   -5.4516    0.6361   -0.3112 C   0  0  0  0  0  0  0  0  0  0  0  0
   -5.7224   -0.3896    0.5945 C   0  0  0  0  0  0  0  0  0  0  0  0
  1  7  1  0
  2  8  1  0
  3  9  1  0
  4 10  2  0
  5  6  1  0
  5 10  1  0
  6  7  1  0
  6  8  1  0
  6  9  1  0
 10 11  1  0
 11 12  2  0
 12 13  1  0
 13 14  2  0
 13 15  1  0
 14 16  1  0
 15 17  2  0
 16 18  2  0
 17 18  1  0
M  END
>  <PUBCHEM_COMPOUND_CID>  (1) 
35441

>  <PUBCHEM_CONFORMER_RMSD>  (1) 
0.8

>  <PUBCHEM_CONFORMER_DIVERSEORDER>  (1) 
2
6
10
8
3
5
9
7
4
1

>  <PUBCHEM_MMFF94_PARTIAL_CHARGES>  (1) 
29
1 -0.68
10 0.62
11 -0.14
12 -0.18
13 0.03
14 -0.15
15 -0.15
16 -0.15
17 -0.15
18 -0.15
2 -0.68
25 0.37
26 0.4
27 0.4
28 0.4
29 0.15
3 -0.68
30 0.15
31 0.15
32 0.15
33 0.15
34 0.15
35 0.15
4 -0.57
5 -0.73
6 0.3
7 0.28
8 0.28
9 0.28

>  <PUBCHEM_EFFECTIVE_ROTOR_COUNT>  (1) 
7

>  <PUBCHEM_PHARMACOPHORE_FEATURES>  (1) 
9
1 1 acceptor
1 1 donor
1 2 acceptor
1 2 donor
1 3 acceptor
1 3 donor
1 4 acceptor
1 5 donor
6 13 14 15 16 17 18 rings

>  <PUBCHEM_HEAVY_ATOM_COUNT>  (1) 
18

>  <PUBCHEM_ATOM_DEF_STEREO_COUNT>  (1) 
0

>  <PUBCHEM_ATOM_UDEF_STEREO_COUNT>  (1) 
0

>  <PUBCHEM_BOND_DEF_STEREO_COUNT>  (1) 
0

>  <PUBCHEM_BOND_UDEF_STEREO_COUNT>  (1) 
1

>  <PUBCHEM_ISOTOPIC_ATOM_COUNT>  (1) 
0

>  <PUBCHEM_COMPONENT_COUNT>  (1) 
1

>  <PUBCHEM_CACTVS_TAUTO_COUNT>  (1) 
2

>  <PUBCHEM_CONFORMER_ID>  (1) 
00008A7100000002

>  <PUBCHEM_MMFF94_ENERGY>  (1) 
49.7408

>  <PUBCHEM_FEATURE_SELFOVERLAP>  (1) 
45.679

>  <PUBCHEM_SHAPE_FINGERPRINT>  (1) 
10014705 185 13901915479945554411
10354089 29 16845574231569129762
10912923 1 16415480458987305943
11128504 68 14707217620948837063
12236239 1 15791451513165968975
13167823 11 17095524006820091379
13533116 47 18202008702995779223
13675066 3 18408887356332598357
13955234 65 18060138747929040722
14252887 29 18343585110111975806
15788980 27 18343581841620498365
17834072 33 16950289520017445575
17844677 252 18113341907815366597
18222031 100 16153705453359482831
20281389 69 16200161954854257675
20281475 54 16877943841069263287
20369508 70 11818987496517028996
20645477 70 18060140899048312551
21065201 7 17822009792154916417
22224240 67 17988911289771103650
22646028 1 17022623091737656703
23402539 116 16732977614035198815
23503953 91 17774995821333163718
23557571 272 17894908486544249653
23559900 14 18187366532070155100
239999 70 18334582347663940174
26918003 58 18410571782155066353
29717793 49 15719390620646255943
300161 21 15913323576922657767
3004659 81 15647050456361943074
351380 3 15502371223221507113
42 15 18113899364373240629
4214541 1 17748824095082041693
465052 167 18333447617504985522
5104073 3 18113904883570208177
5374978 207 18343301474313171225
542803 24 16845578630000775577
559249 180 17313095325075491603
573450 72 16877937244358329017
5924683 9 18268988864396515247
90127 26 18342182154823655633
960060 61 14996289119053065662
9971528 1 16950562203085526564

>  <PUBCHEM_SHAPE_MULTIPOLES>  (1) 
341.97
13.32
1.46
1.24
7.25
0.03
0.14
-2.24
-2.36
-0.44
-0.12
-1.5
-0.06
1.2

>  <PUBCHEM_SHAPE_SELFOVERLAP>  (1) 
698.951

>  <PUBCHEM_SHAPE_VOLUME>  (1) 
195.1

>  <PUBCHEM_COORDINATE_TYPE>  (1) 
2
5
10

$$$$
