35447
     RDKit          3D

 15 15  0  0  0  0  0  0  0  0999 V2000
   -5.0201    1.6093   -1.1263 O   0  0  0  0  0  0  0  0  0  0  0  0
   -2.4524   -1.7869    0.1639 O   0  0  0  0  0  0  0  0  0  0  0  0
   -3.1421    0.3862    0.6134 N   0  0  0  0  0  0  0  0  0  0  0  0
    1.5787   -0.4302    0.0158 C   0  0  0  0  0  0  0  0  0  0  0  0
    4.2501    0.4351   -0.1023 C   0  0  0  0  0  0  0  0  0  0  0  0
   -4.5614    0.1224    0.6904 C   0  0  0  0  0  0  0  0  0  0  0  0
    1.9691    0.7793    0.6156 C   0  0  0  0  0  0  0  0  0  0  0  0
    2.5537   -1.1974   -0.6443 C   0  0  0  0  0  0  0  0  0  0  0  0
    3.2949    1.2088    0.5570 C   0  0  0  0  0  0  0  0  0  0  0  0
    3.8795   -0.7680   -0.7028 C   0  0  0  0  0  0  0  0  0  0  0  0
    0.2159   -0.8717    0.0757 C   0  0  0  0  0  0  0  0  0  0  0  0
   -5.2104    0.2743   -0.6761 C   0  0  0  0  0  0  0  0  0  0  0  0
   -0.8175   -0.0543    0.3288 C   0  0  0  0  0  0  0  0  0  0  0  0
   -2.2057   -0.6006    0.3549 C   0  0  0  0  0  0  0  0  0  0  0  0
    5.6677    0.8939   -0.1638 C   0  0  0  0  0  0  0  0  0  0  0  0
  1 12  1  0
  2 14  2  0
  3  6  1  0
  3 14  1  0
  4  7  2  0
  4  8  1  0
  4 11  1  0
  5  9  2  0
  5 10  1  0
  5 15  1  0
  6 12  1  0
  7  9  1  0
  8 10  2  0
 11 13  2  0
 13 14  1  0
M  END
>  <PUBCHEM_COMPOUND_CID>  (1) 
35447

>  <PUBCHEM_CONFORMER_RMSD>  (1) 
0.6

>  <PUBCHEM_CONFORMER_DIVERSEORDER>  (1) 
1
8
3
17
9
14
16
6
4
15
13
5
11
2
12
10
7

>  <PUBCHEM_MMFF94_PARTIAL_CHARGES>  (1) 
23
1 -0.68
10 -0.15
11 -0.18
12 0.28
13 -0.14
14 0.62
15 0.14
18 0.15
19 0.15
2 -0.57
20 0.15
21 0.15
22 0.15
23 0.37
26 0.15
3 -0.73
30 0.4
4 0.03
5 -0.14
6 0.3
7 -0.15
8 -0.15
9 -0.15

>  <PUBCHEM_EFFECTIVE_ROTOR_COUNT>  (1) 
5

>  <PUBCHEM_PHARMACOPHORE_FEATURES>  (1) 
5
1 1 acceptor
1 1 donor
1 2 acceptor
1 3 donor
6 4 5 7 8 9 10 rings

>  <PUBCHEM_HEAVY_ATOM_COUNT>  (1) 
15

>  <PUBCHEM_ATOM_DEF_STEREO_COUNT>  (1) 
0

>  <PUBCHEM_ATOM_UDEF_STEREO_COUNT>  (1) 
0

>  <PUBCHEM_BOND_DEF_STEREO_COUNT>  (1) 
0

>  <PUBCHEM_BOND_UDEF_STEREO_COUNT>  (1) 
1

>  <PUBCHEM_ISOTOPIC_ATOM_COUNT>  (1) 
0

>  <PUBCHEM_COMPONENT_COUNT>  (1) 
1

>  <PUBCHEM_CACTVS_TAUTO_COUNT>  (1) 
2

>  <PUBCHEM_CONFORMER_ID>  (1) 
00008A7700000001

>  <PUBCHEM_MMFF94_ENERGY>  (1) 
30.106

>  <PUBCHEM_FEATURE_SELFOVERLAP>  (1) 
25.375

>  <PUBCHEM_SHAPE_FINGERPRINT>  (1) 
10014705 185 18335420188298275103
11089746 13 18260537939897787908
11471102 20 18130792252627628850
12236239 1 15841556262554972752
12500047 106 18409730702725363715
12596602 18 15357705205590374325
14251718 22 18343581871748806775
14350574 20 10303814293636719282
15048467 5 18114466751465962756
15242439 84 18342742927012198146
15375358 24 18410859862485789339
17834072 33 17703787046092806887
17834072 8 18202008728849680460
19489759 90 17168143451658417929
200 152 16702305650261588939
20279233 1 18342185478738056586
20281389 69 18186800296646366664
20300324 65 16773801377031256441
20432913 95 10737286831650330901
20645477 56 18334857234049847515
20645477 70 17988933227794307750
21054139 6 15195558009528087396
21150785 3 13614241529729182968
212847 35 18333448738295894152
21709351 56 18272087266155371812
22289505 5 18341891866458203980
231179 274 18334857207863338450
23402539 116 18187361069145996190
23402655 69 18060139847013134190
23559900 14 18202282528566917434
2916195 48 18114462352691496712
29717793 49 16558757784458183140
300161 21 18410288129746110970
3060560 45 17560808732119084294
3545911 37 18342461464825463443
4028521 119 18409165489824934521
4072396 5 18272079488660773130
42 15 8070029964860975315
465052 167 9439410125364749296
542803 24 16081090389466886646
7495541 125 10447923975744044558

>  <PUBCHEM_SHAPE_MULTIPOLES>  (1) 
291.97
12.7
1.36
0.88
6.41
0.11
-0.1
-4.31
-2.6
-0.09
-0.12
0.56
-0.13
0.96

>  <PUBCHEM_SHAPE_SELFOVERLAP>  (1) 
593.557

>  <PUBCHEM_SHAPE_VOLUME>  (1) 
169.7

>  <PUBCHEM_COORDINATE_TYPE>  (1) 
2
5
10

$$$$
