35444
     RDKit          3D

 20 21  0  0  0  0  0  0  0  0999 V2000
    0.8095   -2.4356   -1.1431 O   0  0  0  0  0  0  0  0  0  0  0  0
    0.6135    1.9593    0.4427 O   0  0  0  0  0  0  0  0  0  0  0  0
    1.4873   -0.2216    0.5217 N   0  0  0  0  0  0  0  0  0  0  0  0
    1.2014   -1.5660    1.0504 C   0  0  0  0  0  0  0  0  0  0  0  0
    2.8501    0.1219    0.1549 C   0  0  0  0  0  0  0  0  0  0  0  0
    1.5790   -2.6334    0.0357 C   0  0  0  0  0  0  0  0  0  0  0  0
    0.4685    0.7393    0.3637 C   0  0  0  0  0  0  0  0  0  0  0  0
    3.0328    1.0303   -0.8504 C   0  0  0  0  0  0  0  0  0  0  0  0
    3.8689   -0.4830    0.8373 C   0  0  0  0  0  0  0  0  0  0  0  0
   -0.8895    0.1923    0.0635 C   0  0  0  0  0  0  0  0  0  0  0  0
    4.3414    1.3606   -1.2027 C   0  0  0  0  0  0  0  0  0  0  0  0
    5.1775   -0.1524    0.4851 C   0  0  0  0  0  0  0  0  0  0  0  0
   -3.3654    0.4663    0.1472 C   0  0  0  0  0  0  0  0  0  0  0  0
   -1.9799    0.8875    0.4187 C   0  0  0  0  0  0  0  0  0  0  0  0
    5.4137    0.7693   -0.5348 C   0  0  0  0  0  0  0  0  0  0  0  0
   -3.6283   -0.8664   -0.1261 C   0  0  0  0  0  0  0  0  0  0  0  0
   -4.3789    1.4109    0.1703 C   0  0  0  0  0  0  0  0  0  0  0  0
   -4.9401   -1.2652   -0.3833 C   0  0  0  0  0  0  0  0  0  0  0  0
   -5.6905    1.0120   -0.0870 C   0  0  0  0  0  0  0  0  0  0  0  0
   -5.9710   -0.3261   -0.3638 C   0  0  0  0  0  0  0  0  0  0  0  0
  1  6  1  0
  2  7  2  0
  3  4  1  0
  3  5  1  0
  3  7  1  0
  4  6  1  0
  5  8  2  0
  5  9  1  0
  7 10  1  0
  8 11  1  0
  9 12  2  0
 10 14  2  0
 11 15  2  0
 12 15  1  0
 13 14  1  0
 13 16  2  0
 13 17  1  0
 16 18  1  0
 17 19  2  0
 18 20  2  0
 19 20  1  0
M  END
>  <PUBCHEM_COMPOUND_CID>  (1) 
35444

>  <PUBCHEM_CONFORMER_RMSD>  (1) 
0.8

>  <PUBCHEM_CONFORMER_DIVERSEORDER>  (1) 
1
12
22
16
24
27
20
29
10
30
14
3
17
31
9
4
13
6
28
19
32
23
25
5
15
21
26
2
7
11
8
18

>  <PUBCHEM_MMFF94_PARTIAL_CHARGES>  (1) 
33
1 -0.68
10 -0.14
11 -0.15
12 -0.15
13 0.03
14 -0.18
15 -0.15
16 -0.15
17 -0.15
18 -0.15
19 -0.15
2 -0.57
20 -0.15
25 0.15
26 0.15
27 0.15
28 0.15
29 0.15
3 -0.48
30 0.15
31 0.15
32 0.15
33 0.15
34 0.4
35 0.15
36 0.15
37 0.15
4 0.3
5 0.12
6 0.28
7 0.62
8 -0.15
9 -0.15

>  <PUBCHEM_EFFECTIVE_ROTOR_COUNT>  (1) 
6

>  <PUBCHEM_PHARMACOPHORE_FEATURES>  (1) 
5
1 1 acceptor
1 1 donor
1 2 acceptor
6 13 16 17 18 19 20 rings
6 5 8 9 11 12 15 rings

>  <PUBCHEM_HEAVY_ATOM_COUNT>  (1) 
20

>  <PUBCHEM_ATOM_DEF_STEREO_COUNT>  (1) 
0

>  <PUBCHEM_ATOM_UDEF_STEREO_COUNT>  (1) 
0

>  <PUBCHEM_BOND_DEF_STEREO_COUNT>  (1) 
0

>  <PUBCHEM_BOND_UDEF_STEREO_COUNT>  (1) 
1

>  <PUBCHEM_ISOTOPIC_ATOM_COUNT>  (1) 
0

>  <PUBCHEM_COMPONENT_COUNT>  (1) 
1

>  <PUBCHEM_CACTVS_TAUTO_COUNT>  (1) 
1

>  <PUBCHEM_CONFORMER_ID>  (1) 
00008A7400000001

>  <PUBCHEM_MMFF94_ENERGY>  (1) 
75.3609

>  <PUBCHEM_FEATURE_SELFOVERLAP>  (1) 
25.371

>  <PUBCHEM_SHAPE_FINGERPRINT>  (1) 
10090160 65 18113897147969902922
10366900 7 18131066039665653771
10595046 47 18260547835713635789
10616163 171 18341893043664455943
10906281 52 18261973876535581297
12107183 9 17616812133272803057
12236239 1 18408885139691837940
12507557 5 8070027775018524095
12616999 72 18412824659821056467
12788726 201 17702667636446311465
13533116 47 15647322006075759576
13631057 29 18341611590246951739
13836976 161 18334297578346879014
14528608 73 18335422395516073340
14617045 38 18343586253021812311
15196674 1 18340767048935847907
15537594 2 18060137652870772431
1601671 61 18413387626854029065
17834072 33 18409447003303480401
18681886 176 18340764940054034904
200 152 18412824690281460001
20645477 70 18334294214965700802
21033648 144 17532089573552127285
21033648 29 14476671950196562979
21054139 6 18340198687091577223
21267235 1 18341053012680481339
21344244 181 17417829339223107318
21521721 280 18200600322841927032
21623969 137 18115041761624209259
21709351 56 18259980470343904677
23402539 116 17676485047151927277
23557571 272 15140955106920523655
23559900 14 17913484632717301671
239999 70 17704071815525912624
29717793 49 18410297995428349924
300161 21 18410285879499758921
3004659 81 18334294232672999754
34797466 226 17274826895252611312
3545911 37 18413106152679158785
4072396 5 18334285449485790418
42630746 31 18410575046599535326
4280585 95 17621609311000486758
4325135 7 18260546719079881967
474229 33 18410575106375623618
4990 188 17917717902554471324
542803 24 17894630353226142017
58051976 378 18408325462592991599
59755656 215 18271250430744013246

>  <PUBCHEM_SHAPE_MULTIPOLES>  (1) 
394.87
13.87
2.03
0.94
8.81
1.08
-0.09
-2.72
-1.87
-0.48
-0.25
-0.65
0.08
-1.01

>  <PUBCHEM_SHAPE_SELFOVERLAP>  (1) 
836.384

>  <PUBCHEM_SHAPE_VOLUME>  (1) 
220

>  <PUBCHEM_COORDINATE_TYPE>  (1) 
2
5
10

$$$$
