35446
     RDKit          3D

 15 15  0  0  0  0  0  0  0  0999 V2000
   -4.4975    1.9844   -0.3758 O   0  0  0  0  0  0  0  0  0  0  0  0
   -2.1339   -1.7803   -0.2652 O   0  0  0  0  0  0  0  0  0  0  0  0
   -2.6912    0.1757    0.8552 N   0  0  0  0  0  0  0  0  0  0  0  0
    0.5993   -0.6206   -0.4176 C   0  0  0  0  0  0  0  0  0  0  0  0
    1.9666   -0.1089   -0.1465 C   0  0  0  0  0  0  0  0  0  0  0  0
   -4.1233   -0.0201    0.8744 C   0  0  0  0  0  0  0  0  0  0  0  0
   -0.3958   -0.2904    0.4283 C   0  0  0  0  0  0  0  0  0  0  0  0
    2.8173   -0.8617    0.6371 C   0  0  0  0  0  0  0  0  0  0  0  0
    2.3442    1.1036   -0.6861 C   0  0  0  0  0  0  0  0  0  0  0  0
    0.4563   -1.4850   -1.6410 C   0  0  0  0  0  0  0  0  0  0  0  0
   -1.8147   -0.7307    0.2815 C   0  0  0  0  0  0  0  0  0  0  0  0
   -4.7649    0.5883   -0.3624 C   0  0  0  0  0  0  0  0  0  0  0  0
    4.1017   -0.3808    0.8918 C   0  0  0  0  0  0  0  0  0  0  0  0
    3.6286    1.5843   -0.4313 C   0  0  0  0  0  0  0  0  0  0  0  0
    4.5073    0.8421    0.3577 C   0  0  0  0  0  0  0  0  0  0  0  0
  1 12  1  0
  2 11  2  0
  3  6  1  0
  3 11  1  0
  4  5  1  0
  4  7  2  0
  4 10  1  0
  5  8  2  0
  5  9  1  0
  6 12  1  0
  7 11  1  0
  8 13  1  0
  9 14  2  0
 13 15  2  0
 14 15  1  0
M  END
>  <PUBCHEM_COMPOUND_CID>  (1) 
35446

>  <PUBCHEM_CONFORMER_RMSD>  (1) 
0.6

>  <PUBCHEM_CONFORMER_DIVERSEORDER>  (1) 
1
22
28
23
15
35
21
6
30
10
34
9
27
31
26
8
32
16
11
12
14
17
3
29
24
4
7
33
13
18
25
5
2
19
20

>  <PUBCHEM_MMFF94_PARTIAL_CHARGES>  (1) 
23
1 -0.68
10 0.14
11 0.62
12 0.28
13 -0.15
14 -0.15
15 -0.15
18 0.15
19 0.37
2 -0.57
23 0.15
24 0.15
27 0.15
28 0.15
29 0.15
3 -0.73
30 0.4
4 -0.17
5 0.03
6 0.3
7 -0.14
8 -0.15
9 -0.15

>  <PUBCHEM_EFFECTIVE_ROTOR_COUNT>  (1) 
5

>  <PUBCHEM_PHARMACOPHORE_FEATURES>  (1) 
6
1 1 acceptor
1 1 donor
1 10 hydrophobe
1 2 acceptor
1 3 donor
6 5 8 9 13 14 15 rings

>  <PUBCHEM_HEAVY_ATOM_COUNT>  (1) 
15

>  <PUBCHEM_ATOM_DEF_STEREO_COUNT>  (1) 
0

>  <PUBCHEM_ATOM_UDEF_STEREO_COUNT>  (1) 
0

>  <PUBCHEM_BOND_DEF_STEREO_COUNT>  (1) 
0

>  <PUBCHEM_BOND_UDEF_STEREO_COUNT>  (1) 
1

>  <PUBCHEM_ISOTOPIC_ATOM_COUNT>  (1) 
0

>  <PUBCHEM_COMPONENT_COUNT>  (1) 
1

>  <PUBCHEM_CACTVS_TAUTO_COUNT>  (1) 
2

>  <PUBCHEM_CONFORMER_ID>  (1) 
00008A7600000001

>  <PUBCHEM_MMFF94_ENERGY>  (1) 
36.6283

>  <PUBCHEM_FEATURE_SELFOVERLAP>  (1) 
30.449

>  <PUBCHEM_SHAPE_FINGERPRINT>  (1) 
11089746 13 18343011216608323032
114248 4 12823294606676262768
11543360 7 12607405489909324051
12119455 92 18272366464461759862
12251169 10 18333450954187847354
12670546 177 14189568654582656513
12670546 56 17603858992870310265
13103583 49 11458999590202548325
13675066 3 17313108544546926771
13705890 14 11384116323635835138
14123255 352 18408601448865580005
14251764 38 18264769861643975173
14252887 29 14201393885323365584
14897335 6 18131354098410822159
15188451 53 15792302626024891305
15239191 94 10665231483721978457
18186145 218 18057060033687716023
193927 3 8141814914512402232
20279233 1 15841558495906493606
20645477 70 16988577766187193774
20767249 442 17704072906331372914
20871999 31 12607406572689274233
21713013 43 12031788037581759241
22950370 63 9151167684332976317
231179 274 18411987957252509684
23402539 116 18411972555911236541
23402655 69 18335139817170416028
23559900 14 18130796603240226086
328317 168 17060335227846789667
351380 180 18186799163022868485
42 15 17022903445205702762
4990 188 14045747010420500176
53428517 58 12319735869088149346
81539 233 18202286870457503118
8272917 22 18334576802719028682

>  <PUBCHEM_SHAPE_MULTIPOLES>  (1) 
291.97
10.05
1.58
1.07
6.11
0.23
0.19
4.64
-1.59
0.31
0.45
-0.12
-0.26
-0.14

>  <PUBCHEM_SHAPE_SELFOVERLAP>  (1) 
594.746

>  <PUBCHEM_SHAPE_VOLUME>  (1) 
169.5

>  <PUBCHEM_COORDINATE_TYPE>  (1) 
2
5
10

$$$$
