35459
     RDKit          3D

 12 12  0  0  0  0  0  0  0  0999 V2000
    1.8374    1.5904   -1.0406 O   0  0  0  0  0  0  0  0  0  0  0  0
    1.8969   -1.2625   -0.6132 O   0  0  0  0  0  0  0  0  0  0  0  0
   -0.1024    0.7372   -0.0050 C   0  0  0  0  0  0  0  0  0  0  0  0
   -0.3091   -0.6415   -0.0548 C   0  0  0  0  0  0  0  0  0  0  0  0
   -1.1939    1.6051    0.0283 C   0  0  0  0  0  0  0  0  0  0  0  0
   -1.6072   -1.1520   -0.0713 C   0  0  0  0  0  0  0  0  0  0  0  0
    1.2410    1.3010    0.0141 C   0  0  0  0  0  0  0  0  0  0  0  0
    0.8101   -1.5740   -0.0901 C   0  0  0  0  0  0  0  0  0  0  0  0
   -2.4919    1.0945    0.0117 C   0  0  0  0  0  0  0  0  0  0  0  0
   -2.6986   -0.2840   -0.0381 C   0  0  0  0  0  0  0  0  0  0  0  0
    1.9487    1.5489    1.3402 C   0  0  0  0  0  0  0  0  0  0  0  0
    0.6689   -2.9632    0.5190 C   0  0  0  0  0  0  0  0  0  0  0  0
  1  7  2  0
  2  8  2  0
  3  4  2  0
  3  5  1  0
  3  7  1  0
  4  6  1  0
  4  8  1  0
  5  9  2  0
  6 10  2  0
  7 11  1  0
  8 12  1  0
  9 10  1  0
M  END
>  <PUBCHEM_COMPOUND_CID>  (1) 
35459

>  <PUBCHEM_CONFORMER_RMSD>  (1) 
0.6

>  <PUBCHEM_CONFORMER_DIVERSEORDER>  (1) 
1
2
3
6
4
5
7
8

>  <PUBCHEM_MMFF94_PARTIAL_CHARGES>  (1) 
16
1 -0.57
10 -0.15
11 0.06
12 0.06
13 0.15
14 0.15
15 0.15
16 0.15
2 -0.57
3 0.09
4 0.09
5 -0.15
6 -0.15
7 0.42
8 0.42
9 -0.15

>  <PUBCHEM_EFFECTIVE_ROTOR_COUNT>  (1) 
2

>  <PUBCHEM_PHARMACOPHORE_FEATURES>  (1) 
3
1 1 acceptor
1 2 acceptor
6 3 4 5 6 9 10 rings

>  <PUBCHEM_HEAVY_ATOM_COUNT>  (1) 
12

>  <PUBCHEM_ATOM_DEF_STEREO_COUNT>  (1) 
0

>  <PUBCHEM_ATOM_UDEF_STEREO_COUNT>  (1) 
0

>  <PUBCHEM_BOND_DEF_STEREO_COUNT>  (1) 
0

>  <PUBCHEM_BOND_UDEF_STEREO_COUNT>  (1) 
0

>  <PUBCHEM_ISOTOPIC_ATOM_COUNT>  (1) 
0

>  <PUBCHEM_COMPONENT_COUNT>  (1) 
1

>  <PUBCHEM_CACTVS_TAUTO_COUNT>  (1) 
3

>  <PUBCHEM_CONFORMER_ID>  (1) 
00008A8300000001

>  <PUBCHEM_MMFF94_ENERGY>  (1) 
39.4087

>  <PUBCHEM_FEATURE_SELFOVERLAP>  (1) 
15.225

>  <PUBCHEM_SHAPE_FINGERPRINT>  (1) 
12423570 1 12096049067496786106
12524768 44 17694784021541314663
14128692 85 18199191689369113415
14817 1 8860740449193669480
161256 15 18411419471260395077
16945 1 18191315874805241231
18185500 45 17904772076402513615
193761 8 18338796715471541199
20511035 2 18269550538285226637
20645476 183 17607243452579296292
20871998 184 17262437808857769372
21040471 1 18194682798342189972
22344851 341 18413386523079180267
2334 1 18266742561565520679
23552423 10 18336267855838973423
241688 4 17615968807431987003
2748010 2 18337677524182549103
5084963 1 18057338381384935637
53812653 166 18268426845680201416
53812654 25 17764013680204514911
7364860 26 18200870677974065459
81228 2 17475230683384790219

>  <PUBCHEM_SHAPE_MULTIPOLES>  (1) 
235.22
3.14
2.74
0.87
1.35
1.44
0.08
-0.79
0.06
-1.3
0.35
-0.47
-0.25
0.12

>  <PUBCHEM_SHAPE_SELFOVERLAP>  (1) 
491.393

>  <PUBCHEM_SHAPE_VOLUME>  (1) 
134.4

>  <PUBCHEM_COORDINATE_TYPE>  (1) 
2
5
10

$$$$
