35457
     RDKit          3D

 24 26  0  0  1  0  0  0  0  0999 V2000
    5.3220    1.9662   -1.4197 O   0  0  0  0  0  0  0  0  0  0  0  0
    4.8188    2.8052    0.6320 O   0  0  0  0  0  0  0  0  0  0  0  0
    1.1605   -2.4873    0.1802 N   0  0  0  0  0  0  0  0  0  0  0  0
   -1.1959   -0.4489    0.8691 N   0  0  0  0  0  0  0  0  0  0  0  0
   -3.1521   -1.7725   -0.6003 N   0  0  0  0  0  0  0  0  0  0  0  0
   -3.4887    2.2966    0.1632 N   0  0  0  0  0  0  0  0  0  0  0  0
   -1.4480    2.2484    1.3582 N   0  0  0  0  0  0  0  0  0  0  0  0
   -5.5406    2.3324   -1.0393 N   0  0  0  0  0  0  0  0  0  0  0  0
    0.0722   -2.4991    1.1352 C   0  0  0  0  0  0  0  0  0  0  0  0
   -1.1108   -1.7657    0.6080 C   0  0  0  0  0  0  0  0  0  0  0  0
    2.0262   -1.3922    0.0784 C   0  0  0  0  0  0  0  0  0  0  0  0
    1.3486   -3.6579   -0.6749 C   0  0  0  0  0  0  0  0  0  0  0  0
   -2.2681    0.2092    0.3909 C   0  0  0  0  0  0  0  0  0  0  0  0
   -3.2562   -0.4552   -0.3504 C   0  0  0  0  0  0  0  0  0  0  0  0
    2.1319   -0.4727    1.1292 C   0  0  0  0  0  0  0  0  0  0  0  0
    2.7955   -1.2029   -1.0761 C   0  0  0  0  0  0  0  0  0  0  0  0
   -2.0747   -2.4177   -0.1160 C   0  0  0  0  0  0  0  0  0  0  0  0
   -2.4427    1.5664    0.6089 C   0  0  0  0  0  0  0  0  0  0  0  0
    2.9937    0.6195    1.0269 C   0  0  0  0  0  0  0  0  0  0  0  0
    3.6573   -0.1108   -1.1783 C   0  0  0  0  0  0  0  0  0  0  0  0
    3.7563    0.8004   -0.1268 C   0  0  0  0  0  0  0  0  0  0  0  0
   -4.3421    0.2719   -0.8203 C   0  0  0  0  0  0  0  0  0  0  0  0
   -4.4168    1.6269   -0.5440 C   0  0  0  0  0  0  0  0  0  0  0  0
    4.6539    1.9397   -0.2340 C   0  0  0  0  0  0  0  0  0  0  0  0
  1 24  1  0
  2 24  2  0
  3  9  1  0
  3 11  1  0
  3 12  1  0
  4 10  2  0
  4 13  1  0
  5 14  1  0
  5 17  2  0
  6 18  2  0
  6 23  1  0
  7 18  1  0
  8 23  1  0
  9 10  1  0
 10 17  1  0
 11 15  2  0
 11 16  1  0
 13 14  2  0
 13 18  1  0
 14 22  1  0
 15 19  1  0
 16 20  2  0
 19 21  2  0
 20 21  1  0
 21 24  1  0
 22 23  2  0
M  END
>  <PUBCHEM_COMPOUND_CID>  (1) 
35457

>  <PUBCHEM_CONFORMER_RMSD>  (1) 
0.8

>  <PUBCHEM_CONFORMER_DIVERSEORDER>  (1) 
8
15
24
25
22
18
13
23
26
17
14
11
9
12
6
20
3
16
5
2
4
21
10
19
1
7

>  <PUBCHEM_MMFF94_PARTIAL_CHARGES>  (1) 
35
1 -0.65
10 0.17
11 0.1
12 0.37
13 0.31
14 0.31
15 -0.15
16 -0.15
17 0.16
18 0.41
19 -0.15
2 -0.57
20 -0.15
21 0.09
22 -0.15
23 0.41
24 0.63
3 -0.84
30 0.15
31 0.15
32 0.15
33 0.15
34 0.15
35 0.15
36 0.4
37 0.4
38 0.4
39 0.4
4 -0.62
40 0.5
5 -0.62
6 -0.62
7 -0.9
8 -0.9
9 0.51

>  <PUBCHEM_EFFECTIVE_ROTOR_COUNT>  (1) 
4

>  <PUBCHEM_PHARMACOPHORE_FEATURES>  (1) 
13
1 1 acceptor
1 2 acceptor
1 3 cation
1 4 acceptor
1 5 acceptor
1 7 cation
1 7 donor
1 8 donor
3 1 2 24 anion
3 6 8 23 cation
6 11 15 16 19 20 21 rings
6 4 5 10 13 14 17 rings
6 6 13 14 18 22 23 rings

>  <PUBCHEM_HEAVY_ATOM_COUNT>  (1) 
24

>  <PUBCHEM_ATOM_DEF_STEREO_COUNT>  (1) 
0

>  <PUBCHEM_ATOM_UDEF_STEREO_COUNT>  (1) 
0

>  <PUBCHEM_BOND_DEF_STEREO_COUNT>  (1) 
0

>  <PUBCHEM_BOND_UDEF_STEREO_COUNT>  (1) 
0

>  <PUBCHEM_ISOTOPIC_ATOM_COUNT>  (1) 
0

>  <PUBCHEM_COMPONENT_COUNT>  (1) 
1

>  <PUBCHEM_CACTVS_TAUTO_COUNT>  (1) 
12

>  <PUBCHEM_CONFORMER_ID>  (1) 
00008A8100000008

>  <PUBCHEM_MMFF94_ENERGY>  (1) 
100.5597

>  <PUBCHEM_FEATURE_SELFOVERLAP>  (1) 
66.07

>  <PUBCHEM_SHAPE_FINGERPRINT>  (1) 
10498660 4 18412828001310874448
10670039 82 18263370338371485324
10764073 3 17192313792450214026
10928967 22 11312060949943694748
11370993 70 18409729590565944508
11640471 11 17821726165152093122
12788726 201 17899126401995883299
13103583 49 11026062530877430838
13617811 41 18337936915066061053
13965767 371 17676477320590099510
14251764 75 18269000799773157489
14347424 109 8718532961775422375
14468879 13 18260836994391919499
14739800 52 18049141557477782016
14767858 380 18267284578470853735
14790565 3 17982735178344708369
14848178 96 18409166571666199660
14931854 50 18343300357801275965
15163728 17 18335432287210826094
15342168 16 18260825952268248133
17980427 23 18050533328165146658
20715895 44 18263350404937855021
21133410 221 16694394896508842512
21864079 5 18335139795315894946
22393880 68 18343026601244533190
22749437 52 18408044009064743772
23227448 37 18409448120058027821
235170 7 17060070275725558684
23559900 14 18200584775023671098
238 59 17775567559169461310
2838139 119 18265891544361840316
345986 75 16379156721980184810
3472631 163 18408601448781125853
4028521 119 18413109480445369778
43658 37 18335983065089611307
469060 322 17824282594369495835
474 4 18187645743741636075
5048184 11 18408888416688756689
526903 126 18411140242403815955
5486654 36 9655586231007663191
56633871 153 8214141867667346537
5895379 119 17769936783935107154
6034566 193 18042989703293190933
6328613 192 18114190778753782740
67856867 119 18337097969743403170
7288768 16 17894911853819753939
7808743 9 18262519315975758912
7970288 3 11384117431638028900
9981440 41 18335416919712723298

>  <PUBCHEM_SHAPE_MULTIPOLES>  (1) 
452.28
10.71
3.76
1.2
0.59
1.07
0
-10.5
3.81
0.68
0.08
0.45
-0.13
0.24

>  <PUBCHEM_SHAPE_SELFOVERLAP>  (1) 
992.716

>  <PUBCHEM_SHAPE_VOLUME>  (1) 
243.9

>  <PUBCHEM_COORDINATE_TYPE>  (1) 
2
5
10

$$$$
