35469
     RDKit          3D

 29 30  0  0  0  0  0  0  0  0999 V2000
    0.9605   -1.5173    1.3332 O   0  0  0  0  0  0  0  0  0  0  0  0
   -4.7262    1.2229   -0.0419 N   0  0  0  0  0  0  0  0  0  0  0  0
   -5.2844   -0.6456    1.3513 N   0  0  0  0  0  0  0  0  0  0  0  0
    5.6729   -0.4798    0.2784 C   0  0  0  0  0  0  0  0  0  0  0  0
    6.7442    0.6108    0.2192 C   0  0  0  0  0  0  0  0  0  0  0  0
    4.3354    0.0831    0.7662 C   0  0  0  0  0  0  0  0  0  0  0  0
    8.0977    0.1092   -0.2936 C   0  0  0  0  0  0  0  0  0  0  0  0
    3.2548   -1.0015    0.7979 C   0  0  0  0  0  0  0  0  0  0  0  0
    9.2053    1.1621   -0.3959 C   0  0  0  0  0  0  0  0  0  0  0  0
    1.9199   -0.4704    1.3057 C   0  0  0  0  0  0  0  0  0  0  0  0
   10.5144    0.6153   -0.9660 C   0  0  0  0  0  0  0  0  0  0  0  0
   -3.7250    2.0115   -0.7558 C   0  0  0  0  0  0  0  0  0  0  0  0
   -6.0884    1.7454   -0.1054 C   0  0  0  0  0  0  0  0  0  0  0  0
   -3.0068   -0.3808    0.8158 C   0  0  0  0  0  0  0  0  0  0  0  0
   -2.4422   -1.2852   -0.0984 C   0  0  0  0  0  0  0  0  0  0  0  0
   -4.3899    0.0758    0.7130 C   0  0  0  0  0  0  0  0  0  0  0  0
   -1.0934   -1.6819    0.0639 C   0  0  0  0  0  0  0  0  0  0  0  0
   -0.3490   -1.1625    1.1355 C   0  0  0  0  0  0  0  0  0  0  0  0
   -3.1274    3.0782    0.1556 C   0  0  0  0  0  0  0  0  0  0  0  0
   -6.8742    1.0699   -1.2245 C   0  0  0  0  0  0  0  0  0  0  0  0
   -2.2524    0.1252    1.8747 C   0  0  0  0  0  0  0  0  0  0  0  0
   -0.9261   -0.2649    2.0342 C   0  0  0  0  0  0  0  0  0  0  0  0
   11.5499    1.7171   -1.1317 C   0  0  0  0  0  0  0  0  0  0  0  0
   -3.1867   -1.8045   -1.1700 C   0  0  0  0  0  0  0  0  0  0  0  0
   -0.5288   -2.5862   -0.8503 C   0  0  0  0  0  0  0  0  0  0  0  0
   -2.0440    3.9001   -0.5287 C   0  0  0  0  0  0  0  0  0  0  0  0
   -8.3173    1.5481   -1.3043 C   0  0  0  0  0  0  0  0  0  0  0  0
   -2.6095   -2.7020   -2.0688 C   0  0  0  0  0  0  0  0  0  0  0  0
   -1.2832   -3.0922   -1.9093 C   0  0  0  0  0  0  0  0  0  0  0  0
  1 10  1  0
  1 18  1  0
  2 12  1  0
  2 13  1  0
  2 16  1  0
  3 16  2  0
  4  5  1  0
  4  6  1  0
  5  7  1  0
  6  8  1  0
  7  9  1  0
  8 10  1  0
  9 11  1  0
 11 23  1  0
 12 19  1  0
 13 20  1  0
 14 15  2  0
 14 16  1  0
 14 21  1  0
 15 17  1  0
 15 24  1  0
 17 18  2  0
 17 25  1  0
 18 22  1  0
 19 26  1  0
 20 27  1  0
 21 22  2  0
 24 28  2  0
 25 29  2  0
 28 29  1  0
M  END
>  <PUBCHEM_COMPOUND_CID>  (1) 
35469

>  <PUBCHEM_CONFORMER_RMSD>  (1) 
1.2

>  <PUBCHEM_CONFORMER_DIVERSEORDER>  (1) 
1
37
64
35
68
40
57
46
19
9
30
42
53
59
4
49
24
5
62
28
58
41
13
43
39
16
14
27
17
21
18
22
56
6
11
47
7
34
61
15
8
52
67
60
36
55
66
38
31
44
12
25
63
32
54
45
20
50
23
3
33
51
26
65
48
29
10
2

>  <PUBCHEM_MMFF94_PARTIAL_CHARGES>  (1) 
22
1 -0.36
10 0.28
12 0.37
13 0.37
14 0.09
16 0.41
18 0.08
2 -0.79
21 -0.15
22 -0.15
24 -0.15
25 -0.15
28 -0.15
29 -0.15
3 -0.85
54 0.15
55 0.15
59 0.15
60 0.15
67 0.15
68 0.15
69 0.4

>  <PUBCHEM_EFFECTIVE_ROTOR_COUNT>  (1) 
15

>  <PUBCHEM_PHARMACOPHORE_FEATURES>  (1) 
8
1 1 acceptor
1 23 hydrophobe
1 26 hydrophobe
1 27 hydrophobe
1 3 donor
3 2 3 16 cation
6 14 15 17 18 21 22 rings
6 15 17 24 25 28 29 rings

>  <PUBCHEM_HEAVY_ATOM_COUNT>  (1) 
29

>  <PUBCHEM_ATOM_DEF_STEREO_COUNT>  (1) 
0

>  <PUBCHEM_ATOM_UDEF_STEREO_COUNT>  (1) 
0

>  <PUBCHEM_BOND_DEF_STEREO_COUNT>  (1) 
0

>  <PUBCHEM_BOND_UDEF_STEREO_COUNT>  (1) 
0

>  <PUBCHEM_ISOTOPIC_ATOM_COUNT>  (1) 
0

>  <PUBCHEM_COMPONENT_COUNT>  (1) 
1

>  <PUBCHEM_CACTVS_TAUTO_COUNT>  (1) 
1

>  <PUBCHEM_CONFORMER_ID>  (1) 
00008A8D00000001

>  <PUBCHEM_MMFF94_ENERGY>  (1) 
64.7202

>  <PUBCHEM_FEATURE_SELFOVERLAP>  (1) 
40.621

>  <PUBCHEM_SHAPE_FINGERPRINT>  (1) 
10165383 225 17918278632663915763
10674148 151 14620789384714822923
11135926 11 16916799487453927254
12082328 90 18261114115079406794
13165054 27 17822846482060907845
13383668 90 15339116819568227849
13911987 19 17917425389960151179
14705955 166 13768197243192630263
15183329 4 17846779586021867058
15347590 135 12251897080055619588
1577012 14 18408880759859522050
15961568 22 18263640672240154557
20721686 146 18188485758188891533
20771845 165 18199759037896625462
21756936 100 18187083979173120370
21792965 326 18268709399623359329
23559900 14 16917057915356475522
23576562 1 18198894984597185249
249057 3 17988923405504216960
44249763 50 18129360723069731456
44802255 64 18413953879738099830
4516262 110 17967805012444426554
57527306 92 17894906305165353021
57527585 21 17837741484710053493
9953998 17 14923946764704755650

>  <PUBCHEM_SHAPE_MULTIPOLES>  (1) 
580.98
28.43
3.36
1.75
100.94
0.92
0.08
22.44
-13.94
-4.64
-1.96
-1.22
-0.79
-0.96

>  <PUBCHEM_SHAPE_SELFOVERLAP>  (1) 
1170.042

>  <PUBCHEM_SHAPE_VOLUME>  (1) 
340.5

>  <PUBCHEM_COORDINATE_TYPE>  (1) 
2
5
10

$$$$
