35462
     RDKit          3D

 20 21  0  0  0  0  0  0  0  0999 V2000
    2.7791   -1.3807    0.1678 N   0  0  0  0  0  0  0  0  0  0  0  0
    1.9012   -0.5324    0.9731 C   0  0  0  0  0  0  0  0  0  0  0  0
    4.1794   -1.0210    0.3873 C   0  0  0  0  0  0  0  0  0  0  0  0
    2.4384   -1.2682   -1.2500 C   0  0  0  0  0  0  0  0  0  0  0  0
    0.4551   -0.8882    0.7601 C   0  0  0  0  0  0  0  0  0  0  0  0
   -0.5457   -0.0852    0.3350 C   0  0  0  0  0  0  0  0  0  0  0  0
   -1.8936   -0.6909    0.1749 C   0  0  0  0  0  0  0  0  0  0  0  0
   -0.2886    1.3437    0.0480 C   0  0  0  0  0  0  0  0  0  0  0  0
    4.5415   -1.1990    1.8492 C   0  0  0  0  0  0  0  0  0  0  0  0
    3.3526   -2.1503   -2.0783 C   0  0  0  0  0  0  0  0  0  0  0  0
   -2.2364   -1.2395   -1.0433 C   0  0  0  0  0  0  0  0  0  0  0  0
   -0.4326    2.2698    1.0640 C   0  0  0  0  0  0  0  0  0  0  0  0
   -2.7579   -0.6856    1.2498 C   0  0  0  0  0  0  0  0  0  0  0  0
    0.0895    1.7154   -1.2287 C   0  0  0  0  0  0  0  0  0  0  0  0
   -3.5012   -1.8086   -1.1934 C   0  0  0  0  0  0  0  0  0  0  0  0
   -0.1897    3.6166    0.7938 C   0  0  0  0  0  0  0  0  0  0  0  0
   -4.0226   -1.2547    1.0996 C   0  0  0  0  0  0  0  0  0  0  0  0
    0.3326    3.0620   -1.4990 C   0  0  0  0  0  0  0  0  0  0  0  0
   -4.3941   -1.8161   -0.1221 C   0  0  0  0  0  0  0  0  0  0  0  0
    0.1929    4.0126   -0.4877 C   0  0  0  0  0  0  0  0  0  0  0  0
  1  2  1  0
  1  3  1  0
  1  4  1  0
  2  5  1  0
  3  9  1  0
  4 10  1  0
  5  6  2  3
  6  7  1  0
  6  8  1  0
  7 11  2  0
  7 13  1  0
  8 12  2  0
  8 14  1  0
 11 15  1  0
 12 16  1  0
 13 17  2  0
 14 18  2  0
 15 19  2  0
 16 20  2  0
 17 19  1  0
 18 20  1  0
M  END
>  <PUBCHEM_COMPOUND_CID>  (1) 
35462

>  <PUBCHEM_CONFORMER_RMSD>  (1) 
0.8

>  <PUBCHEM_CONFORMER_DIVERSEORDER>  (1) 
1
15
5
12
14
2
16
8
7
17
9
11
4
6
10
13
3

>  <PUBCHEM_MMFF94_PARTIAL_CHARGES>  (1) 
29
1 -0.81
11 -0.15
12 -0.15
13 -0.15
14 -0.15
15 -0.15
16 -0.15
17 -0.15
18 -0.15
19 -0.15
2 0.41
20 -0.15
27 0.15
3 0.27
34 0.15
35 0.15
36 0.15
37 0.15
38 0.15
39 0.15
4 0.27
40 0.15
41 0.15
42 0.15
43 0.15
5 -0.29
6 -0.06
7 0.03
8 0.03

>  <PUBCHEM_EFFECTIVE_ROTOR_COUNT>  (1) 
6

>  <PUBCHEM_PHARMACOPHORE_FEATURES>  (1) 
3
1 1 cation
6 7 11 13 15 17 19 rings
6 8 12 14 16 18 20 rings

>  <PUBCHEM_HEAVY_ATOM_COUNT>  (1) 
20

>  <PUBCHEM_ATOM_DEF_STEREO_COUNT>  (1) 
0

>  <PUBCHEM_ATOM_UDEF_STEREO_COUNT>  (1) 
0

>  <PUBCHEM_BOND_DEF_STEREO_COUNT>  (1) 
0

>  <PUBCHEM_BOND_UDEF_STEREO_COUNT>  (1) 
0

>  <PUBCHEM_ISOTOPIC_ATOM_COUNT>  (1) 
0

>  <PUBCHEM_COMPONENT_COUNT>  (1) 
1

>  <PUBCHEM_CACTVS_TAUTO_COUNT>  (1) 
1

>  <PUBCHEM_CONFORMER_ID>  (1) 
00008A8600000001

>  <PUBCHEM_MMFF94_ENERGY>  (1) 
59.0533

>  <PUBCHEM_FEATURE_SELFOVERLAP>  (1) 
15.223

>  <PUBCHEM_SHAPE_FINGERPRINT>  (1) 
10165383 225 17046297514045761936
11101153 10 18333736819565516644
11265709 11 18409169913187477824
12160290 23 17975140833417639304
12363563 72 18333725827689372930
12553582 1 18337123301402635427
12707595 3 18187929525189943107
12788726 201 18116726118268029896
12892183 10 16415481557977357003
13134695 92 18265042703698783013
13149001 5 17898019159389635123
133893 2 18047183339509542047
13583140 156 17839987825657020946
13681431 1 18337961210814118693
14178342 30 18047750400111013514
14181834 199 18193552509068331309
14347332 77 18265615390987129622
14840074 17 18198051689813008356
15309172 13 10735878386935078635
15842332 3 17700427046576454163
17357779 13 18270662200180122573
1813 80 18412270544631343047
18186145 218 11097854103136403355
20097449 115 18408037429138001129
20600515 1 18334859441383736154
20671657 53 18261107508675478291
21041028 32 18408611374619436177
21304303 282 17179075710536264156
21524375 3 17181942042659985888
22112679 90 18123503563808182809
2255824 54 17909273820725429109
23175994 123 18186516618488557411
23402539 116 18335976493906089506
23419403 2 18047717607571621388
23557571 272 18339922606846698998
23559900 14 17387123377252999411
283562 15 18188761743917822914
314173 85 18413392016363665075
458136 41 17539984187825975049
6049 1 17773318924994696966
621550 34 18060410310179365018
6442390 28 17405155027876190777
6786 2 16900487943848750213
6913067 236 17915714575495139010
7364860 26 18124597745581757729
7399639 24 18130775743084917330
7615 1 17314806092196207774
81228 2 18192718847189184128
84936 31 17983004845627529909
9981440 41 16837075952017336586

>  <PUBCHEM_SHAPE_MULTIPOLES>  (1) 
406.61
7.17
4.17
1.74
0.72
6.19
-0.31
-8.95
1.27
0.42
-1.04
1.04
-0.43
-0.13

>  <PUBCHEM_SHAPE_SELFOVERLAP>  (1) 
850.752

>  <PUBCHEM_SHAPE_VOLUME>  (1) 
231.7

>  <PUBCHEM_COORDINATE_TYPE>  (1) 
2
5
10

$$$$
