35460
     RDKit          3D

 24 24  0  0  0  0  0  0  0  0999 V2000
    7.6188    1.7200    0.0971 S   0  0  0  0  0  0  0  0  0  0  0  0
    7.1039    2.7512   -1.0624 O   0  0  0  0  0  0  0  0  0  0  0  0
    7.2101    2.2814    1.3764 O   0  0  0  0  0  0  0  0  0  0  0  0
    9.0154    1.4080   -0.1638 O   0  0  0  0  0  0  0  0  0  0  0  0
   -4.1473   -0.4702    0.5367 C   0  0  0  0  0  0  0  0  0  0  0  0
   -2.8048   -0.1462   -0.1215 C   0  0  0  0  0  0  0  0  0  0  0  0
   -5.3518    0.0773   -0.2349 C   0  0  0  0  0  0  0  0  0  0  0  0
   -1.6393   -0.7217    0.6861 C   0  0  0  0  0  0  0  0  0  0  0  0
   -6.7252   -0.2356    0.3676 C   0  0  0  0  0  0  0  0  0  0  0  0
   -0.2969   -0.4275    0.0127 C   0  0  0  0  0  0  0  0  0  0  0  0
   -7.9261    0.3582   -0.3754 C   0  0  0  0  0  0  0  0  0  0  0  0
    0.8633   -1.0337    0.8048 C   0  0  0  0  0  0  0  0  0  0  0  0
   -9.2951    0.0986    0.2608 C   0  0  0  0  0  0  0  0  0  0  0  0
    2.2335   -0.7963    0.1588 C   0  0  0  0  0  0  0  0  0  0  0  0
  -10.4600    0.6732   -0.5478 C   0  0  0  0  0  0  0  0  0  0  0  0
    3.4361   -1.3089    0.9609 C   0  0  0  0  0  0  0  0  0  0  0  0
  -11.7995    0.3910    0.1340 C   0  0  0  0  0  0  0  0  0  0  0  0
    4.7620   -1.1088    0.2707 C   0  0  0  0  0  0  0  0  0  0  0  0
  -12.9644    0.9262   -0.6837 C   0  0  0  0  0  0  0  0  0  0  0  0
    5.4859    0.0655    0.4773 C   0  0  0  0  0  0  0  0  0  0  0  0
    5.2643   -2.0983   -0.5743 C   0  0  0  0  0  0  0  0  0  0  0  0
    6.7122    0.2501   -0.1610 C   0  0  0  0  0  0  0  0  0  0  0  0
    6.4906   -1.9137   -1.2128 C   0  0  0  0  0  0  0  0  0  0  0  0
    7.2145   -0.7395   -1.0061 C   0  0  0  0  0  0  0  0  0  0  0  0
  1  2  1  0
  1  3  2  0
  1  4  2  0
  1 22  1  0
  5  6  1  0
  5  7  1  0
  6  8  1  0
  7  9  1  0
  8 10  1  0
  9 11  1  0
 10 12  1  0
 11 13  1  0
 12 14  1  0
 13 15  1  0
 14 16  1  0
 15 17  1  0
 16 18  1  0
 17 19  1  0
 18 20  2  0
 18 21  1  0
 20 22  1  0
 21 23  2  0
 22 24  2  0
 23 24  1  0
M  END
>  <PUBCHEM_COMPOUND_CID>  (1) 
35460

>  <PUBCHEM_CONFORMER_RMSD>  (1) 
1.6

>  <PUBCHEM_CONFORMER_DIVERSEORDER>  (1) 
1
32
26
6
67
3
5
51
22
31
70
23
77
71
56
66
64
50
76
69
72
37
44
4
8
27
48
75
53
18
42
57
17
28
74
59
9
38
54
24
16
60
43
49
45
36
40
10
13
25
62
52
30
34
2
73
7
58
35
14
65
11
55
41
39
12
61
21
20
68
33
19
63
46
15
29
47

>  <PUBCHEM_MMFF94_PARTIAL_CHARGES>  (1) 
16
1 1.49
16 0.14
18 -0.14
2 -0.68
20 -0.15
21 -0.15
22 -0.01
23 -0.15
24 -0.15
3 -0.65
4 -0.65
54 0.15
55 0.15
56 0.15
57 0.15
58 0.5

>  <PUBCHEM_EFFECTIVE_ROTOR_COUNT>  (1) 
14

>  <PUBCHEM_PHARMACOPHORE_FEATURES>  (1) 
6
1 19 hydrophobe
1 2 acceptor
1 3 acceptor
1 4 acceptor
4 1 2 3 4 anion
6 18 20 21 22 23 24 rings

>  <PUBCHEM_HEAVY_ATOM_COUNT>  (1) 
24

>  <PUBCHEM_ATOM_DEF_STEREO_COUNT>  (1) 
0

>  <PUBCHEM_ATOM_UDEF_STEREO_COUNT>  (1) 
0

>  <PUBCHEM_BOND_DEF_STEREO_COUNT>  (1) 
0

>  <PUBCHEM_BOND_UDEF_STEREO_COUNT>  (1) 
0

>  <PUBCHEM_ISOTOPIC_ATOM_COUNT>  (1) 
0

>  <PUBCHEM_COMPONENT_COUNT>  (1) 
1

>  <PUBCHEM_CACTVS_TAUTO_COUNT>  (1) 
1

>  <PUBCHEM_CONFORMER_ID>  (1) 
00008A8400000001

>  <PUBCHEM_MMFF94_ENERGY>  (1) 
18.1822

>  <PUBCHEM_FEATURE_SELFOVERLAP>  (1) 
30.503

>  <PUBCHEM_SHAPE_FINGERPRINT>  (1) 
10168742 298 14907907097912118861
10666366 153 12535353371917801787
11061554 47 17822287964787743053
11211813 74 18411981386211418984
11315181 36 18413674609276584667
11638347 137 8718828691073081707
12089408 11 17846500306126651683
12522641 33 17846499210947603511
12559415 86 16558480691445295641
13617811 41 14836412432689619056
14202775 3 11239990184449163453
14216079 64 10807940362371982520
14251764 46 10087636006382456535
14344974 52 18333732447330922891
14428016 248 18272936008350692545
15061470 23 18343300341744818185
155225 1 18333449854428468680
15840311 113 18407763633958591430
1754911 235 18342454851003082583
1818759 1 13830130611898714111
20554085 129 16805320011707521232
20771845 171 16917080945265989558
20812841 46 17822004304104734138
21360442 33 18267024943451387278
21360442 67 18343023281140744886
21362267 2 18261097604877462141
21362267 313 14274003383070207989
232437 2 15841546367968557991
33684 2 18261110747772000339
57676310 78 18339653236317359838
59520647 119 17989202673116827319
59521099 67 17561365077041078496
59521506 201 17485915648456503712
59584819 99 14635449242336859654
67123 10 18411136931817636171
9937071 3 9727631722497735365

>  <PUBCHEM_SHAPE_MULTIPOLES>  (1) 
480.15
47.93
1.88
0.99
133.12
0.85
0.02
21.36
9.49
-7.04
0.2
-1.11
-0.01
1.44

>  <PUBCHEM_SHAPE_SELFOVERLAP>  (1) 
918.355

>  <PUBCHEM_SHAPE_VOLUME>  (1) 
293.7

>  <PUBCHEM_COORDINATE_TYPE>  (1) 
2
5
10

$$$$
