3547
     RDKit          3D

 20 22  0  0  1  0  0  0  0  0999 V2000
    0.4598    1.1937    0.3026 S   0  0  0  0  0  0  0  0  0  0  0  0
    0.1933    1.9256   -0.9183 O   0  0  0  0  0  0  0  0  0  0  0  0
    0.3444    1.8109    1.6072 O   0  0  0  0  0  0  0  0  0  0  0  0
    2.0014    0.4470    0.1666 N   0  0  0  0  0  0  0  0  0  0  0  0
    5.0694    0.0538   -0.3765 N   0  0  0  0  0  0  0  0  0  0  0  0
   -4.8191    0.5385   -0.5735 N   0  0  0  0  0  0  0  0  0  0  0  0
    2.1962   -0.3886   -1.0558 C   0  0  0  0  0  0  0  0  0  0  0  0
    3.1560    1.3309    0.4956 C   0  0  0  0  0  0  0  0  0  0  0  0
    3.1132   -1.5612   -0.7276 C   0  0  0  0  0  0  0  0  0  0  0  0
    4.4149    0.5347    0.8334 C   0  0  0  0  0  0  0  0  0  0  0  0
    4.6074   -1.2478   -0.8492 C   0  0  0  0  0  0  0  0  0  0  0  0
   -0.7672   -0.1083    0.3323 C   0  0  0  0  0  0  0  0  0  0  0  0
   -2.0974    0.1408    0.0277 C   0  0  0  0  0  0  0  0  0  0  0  0
   -0.2980   -1.3615    0.6770 C   0  0  0  0  0  0  0  0  0  0  0  0
   -3.0011   -0.9407    0.0754 C   0  0  0  0  0  0  0  0  0  0  0  0
   -1.1938   -2.4272    0.7230 C   0  0  0  0  0  0  0  0  0  0  0  0
   -2.5763    1.4087   -0.3220 C   0  0  0  0  0  0  0  0  0  0  0  0
   -2.5403   -2.2211    0.4240 C   0  0  0  0  0  0  0  0  0  0  0  0
   -4.3373   -0.6781   -0.2333 C   0  0  0  0  0  0  0  0  0  0  0  0
   -3.9254    1.5499   -0.6088 C   0  0  0  0  0  0  0  0  0  0  0  0
  1  2  2  0
  1  3  2  0
  1  4  1  0
  1 12  1  0
  4  7  1  0
  4  8  1  0
  5 10  1  0
  5 11  1  0
  6 19  2  0
  6 20  1  0
  7  9  1  0
  8 10  1  0
  9 11  1  0
 12 13  1  0
 12 14  2  0
 13 15  2  0
 13 17  1  0
 14 16  1  0
 15 18  1  0
 15 19  1  0
 16 18  2  0
 17 20  2  0
M  END
>  <PUBCHEM_COMPOUND_CID>  (1) 
3547

>  <PUBCHEM_CONFORMER_RMSD>  (1) 
0.6

>  <PUBCHEM_CONFORMER_DIVERSEORDER>  (1) 
1
22
67
23
58
36
54
53
24
52
11
57
38
59
8
15
41
65
63
17
61
66
33
19
31
5
45
56
25
42
64
21
60
2
37
29
3
46
47
62
10
68
6
18
7
39
50
51
26
20
35
13
9
4
49
40
48
55
28
34
30
27
43
14
32
12
44
16

>  <PUBCHEM_MMFF94_PARTIAL_CHARGES>  (1) 
24
1 1.45
10 0.27
11 0.27
12 -0.01
14 -0.15
16 -0.15
17 -0.15
18 -0.15
19 0.16
2 -0.65
20 0.16
3 -0.65
31 0.36
32 0.15
33 0.15
34 0.15
35 0.15
36 0.15
37 0.15
4 -0.85
5 -0.9
6 -0.62
7 0.36
8 0.36

>  <PUBCHEM_EFFECTIVE_ROTOR_COUNT>  (1) 
3.4

>  <PUBCHEM_PHARMACOPHORE_FEATURES>  (1) 
8
1 2 acceptor
1 3 acceptor
1 5 cation
1 5 donor
1 6 acceptor
6 12 13 14 15 16 18 rings
6 6 13 15 17 19 20 rings
7 4 5 7 8 9 10 11 rings

>  <PUBCHEM_HEAVY_ATOM_COUNT>  (1) 
20

>  <PUBCHEM_ATOM_DEF_STEREO_COUNT>  (1) 
0

>  <PUBCHEM_ATOM_UDEF_STEREO_COUNT>  (1) 
0

>  <PUBCHEM_BOND_DEF_STEREO_COUNT>  (1) 
0

>  <PUBCHEM_BOND_UDEF_STEREO_COUNT>  (1) 
0

>  <PUBCHEM_ISOTOPIC_ATOM_COUNT>  (1) 
0

>  <PUBCHEM_COMPONENT_COUNT>  (1) 
1

>  <PUBCHEM_CACTVS_TAUTO_COUNT>  (1) 
1

>  <PUBCHEM_CONFORMER_ID>  (1) 
00000DDB00000001

>  <PUBCHEM_MMFF94_ENERGY>  (1) 
51.9364

>  <PUBCHEM_FEATURE_SELFOVERLAP>  (1) 
40.64

>  <PUBCHEM_SHAPE_FINGERPRINT>  (1) 
10366900 7 17847066567214813594
11112241 14 16986570191209358168
11370993 70 18410290311341869878
11458722 379 18335140856283580215
12236239 1 16660360381352832240
12788726 201 18057604274510492976
13134695 92 17131546227812115633
13140716 1 18045790245745734739
13544592 145 18411420575029956558
13544653 18 18131920364168341812
14115302 16 18260275165482984364
14251757 17 18339923710173064170
14386348 63 18343023306920012798
14573314 32 18412261727052779124
14790565 3 17763469418065606057
14866123 147 17480312166914867562
15042514 8 18116719719585027923
15099037 51 18334294271105990429
15163728 17 16300050322658307415
15196674 1 18410011026661109142
15375358 24 18342174483832606402
15635459 17 18202292381396377022
16945 1 18260837037605401011
17804303 29 18336546118111717817
17834072 14 18342177778141035766
17870717 6 18340220621478748806
18186145 218 18409729517419553633
19141452 34 18272374217479485983
200 152 17131834256939976666
20279233 1 18342181080770458822
20645476 183 17095246934032125291
20645477 56 18334576858437168997
20645477 70 17775570823370948038
20871999 31 18187654621449391558
21029758 11 18272932717377114953
21279426 13 18196089949834579757
21285901 2 18335983060562497196
21521239 73 18130206221747072775
2215653 11 18343863299195826462
23175994 123 17989210364753627649
23402539 116 18409439302057619988
23526113 38 18201995538472423201
23557571 272 18409168848199112264
23558518 356 17842576062584617328
23559900 14 18341611555665576472
26918003 58 18343299262984885584
2838139 119 15720209753205066415
2871803 45 18341055129867490110
3004659 81 18187647952061922130
4921388 177 17096097990223009363
495365 180 17703213105618677792
5283173 99 18340204085865507044
59755656 215 18334569153857041095
69090 78 18343861134479899311
9709674 26 18339361992891308398

>  <PUBCHEM_SHAPE_MULTIPOLES>  (1) 
388.76
9.52
2.27
1.03
4.14
0.51
-0.08
0.17
1.96
-0.83
-0.25
0.45
-0.11
1.28

>  <PUBCHEM_SHAPE_SELFOVERLAP>  (1) 
819.442

>  <PUBCHEM_SHAPE_VOLUME>  (1) 
216.8

>  <PUBCHEM_COORDINATE_TYPE>  (1) 
2
5
10

$$$$
