35486
     RDKit          3D

 22 23  0  0  0  0  0  0  0  0999 V2000
    7.2205   -1.2116   -0.0063 Cl  0  0  0  0  0  0  0  0  0  0  0  0
   -4.9945    1.8704    1.4613 Cl  0  0  0  0  0  0  0  0  0  0  0  0
   -2.7840    2.9964   -0.0059 Cl  0  0  0  0  0  0  0  0  0  0  0  0
   -4.9971    1.8563   -1.4653 Cl  0  0  0  0  0  0  0  0  0  0  0  0
    0.6053    0.9914    0.0037 O   0  0  0  0  0  0  0  0  0  0  0  0
    2.1192   -0.7968    0.0013 N   0  0  0  0  0  0  0  0  0  0  0  0
   -0.1514   -1.2214    0.0015 N   0  0  0  0  0  0  0  0  0  0  0  0
   -2.0159    0.1887    0.0015 N   0  0  0  0  0  0  0  0  0  0  0  0
   -2.2753   -2.1968    0.0019 N   0  0  0  0  0  0  0  0  0  0  0  0
   -4.2115   -0.7793    0.0000 N   0  0  0  0  0  0  0  0  0  0  0  0
    3.3608   -0.1606    0.0017 C   0  0  0  0  0  0  0  0  0  0  0  0
   -1.5579   -1.0679    0.0020 C   0  0  0  0  0  0  0  0  0  0  0  0
   -3.3569    0.2565    0.0002 C   0  0  0  0  0  0  0  0  0  0  0  0
   -3.5997   -1.9745    0.0008 C   0  0  0  0  0  0  0  0  0  0  0  0
    0.8278   -0.2152    0.0024 C   0  0  0  0  0  0  0  0  0  0  0  0
    4.5332   -0.9165   -0.0010 C   0  0  0  0  0  0  0  0  0  0  0  0
    3.4293    1.2326    0.0032 C   0  0  0  0  0  0  0  0  0  0  0  0
    5.7739   -0.2792   -0.0022 C   0  0  0  0  0  0  0  0  0  0  0  0
    4.6699    1.8700    0.0020 C   0  0  0  0  0  0  0  0  0  0  0  0
   -3.9582    1.6209   -0.0023 C   0  0  0  0  0  0  0  0  0  0  0  0
    5.8422    1.1141   -0.0008 C   0  0  0  0  0  0  0  0  0  0  0  0
   -4.4797   -3.1775    0.0001 C   0  0  0  0  0  0  0  0  0  0  0  0
  1 18  1  0
  2 20  1  0
  3 20  1  0
  4 20  1  0
  5 15  2  0
  6 11  1  0
  6 15  1  0
  7 12  1  0
  7 15  1  0
  8 12  2  0
  8 13  1  0
  9 12  1  0
  9 14  2  0
 10 13  2  0
 10 14  1  0
 11 16  2  0
 11 17  1  0
 13 20  1  0
 14 22  1  0
 16 18  1  0
 17 19  2  0
 18 21  2  0
 19 21  1  0
M  END
>  <PUBCHEM_COMPOUND_CID>  (1) 
35486

>  <PUBCHEM_CONFORMER_RMSD>  (1) 
0.8

>  <PUBCHEM_CONFORMER_DIVERSEORDER>  (1) 
1
21
17
10
16
8
22
15
6
11
13
24
12
14
5
19
23
9
20
7
18
2
4
3

>  <PUBCHEM_MMFF94_PARTIAL_CHARGES>  (1) 
28
1 -0.18
10 -0.62
11 0.12
12 0.74
13 0.48
14 0.48
15 0.69
16 -0.15
17 -0.15
18 0.18
19 -0.15
2 -0.29
20 1.01
21 -0.15
22 0.14
23 0.37
24 0.37
25 0.15
26 0.15
27 0.15
28 0.15
3 -0.29
4 -0.29
5 -0.57
6 -0.55
7 -0.55
8 -0.62
9 -0.62

>  <PUBCHEM_EFFECTIVE_ROTOR_COUNT>  (1) 
5

>  <PUBCHEM_PHARMACOPHORE_FEATURES>  (1) 
7
1 5 acceptor
1 6 donor
1 7 donor
3 8 10 13 cation
3 9 10 14 cation
6 11 16 17 18 19 21 rings
6 8 9 10 12 13 14 rings

>  <PUBCHEM_HEAVY_ATOM_COUNT>  (1) 
22

>  <PUBCHEM_ATOM_DEF_STEREO_COUNT>  (1) 
0

>  <PUBCHEM_ATOM_UDEF_STEREO_COUNT>  (1) 
0

>  <PUBCHEM_BOND_DEF_STEREO_COUNT>  (1) 
0

>  <PUBCHEM_BOND_UDEF_STEREO_COUNT>  (1) 
0

>  <PUBCHEM_ISOTOPIC_ATOM_COUNT>  (1) 
0

>  <PUBCHEM_COMPONENT_COUNT>  (1) 
1

>  <PUBCHEM_CACTVS_TAUTO_COUNT>  (1) 
9

>  <PUBCHEM_CONFORMER_ID>  (1) 
00008A9E00000001

>  <PUBCHEM_MMFF94_ENERGY>  (1) 
53.2923

>  <PUBCHEM_FEATURE_SELFOVERLAP>  (1) 
36.493

>  <PUBCHEM_SHAPE_FINGERPRINT>  (1) 
10014705 185 18333446539119774725
10319926 262 18341319042680671514
10411042 1 18122344842668969699
10595046 47 18336827610553205598
10835480 77 18271518776148319424
11089746 13 17632568336814984552
11315181 36 18335702771049565454
11405975 8 18409446973370370586
11545043 162 18272929453418222114
12107183 9 17975406919927494554
12236239 1 18334295383972102786
12596602 18 15502670294727345276
12616971 3 17313392235816459228
13073987 5 18339642347482720866
13167823 11 18409727400407144466
14251764 75 17552930525122532233
14508225 48 18196076967166692199
15183329 4 18409728418451030544
15196674 1 18410575119582077408
15778101 99 18341618088041405561
17093844 174 18408599262690056386
17844677 252 18338242660469249438
20281389 69 18333168358151124720
20645477 56 18335140843620075173
21033648 29 17560788957657169466
21130935 74 18412822491854823362
21236236 1 18412262856950905191
21267235 1 18336552714918123578
21279426 13 18412265013303978358
21315763 129 18411418436505566678
21709351 56 18410289229299826726
21756936 100 17846222099572678161
220451 1 18186524280973925058
23081809 10 17821729455719339022
23402539 116 18409443700172709382
23559900 14 18200312118026204134
283562 15 18336825394741081923
2838139 119 18271239426494708845
3004659 81 18335421262710044610
350125 39 18340209704125361337
3545911 37 18410856538175535093
4073 2 18113904901040195106
4214541 1 18410855464639504352
441001 317 18413106160636123049
5104073 3 18410853287433841096
5283173 99 18411417289480565744
531348 171 18273493468181148143
559249 180 18410007719953301962
5969126 39 18200587133736183503
59755656 215 18267586815277242422
6327066 14 18117551839428523837
77779 3 18410575119518812878
90127 26 18261682553599514786
9965369 4 18410008793721032184
9995097 60 18271528611464827326

>  <PUBCHEM_SHAPE_MULTIPOLES>  (1) 
429.45
16.89
3.01
0.82
20.69
0.45
0
-1.24
0.02
-4.86
0
-1.12
-0.41
0.01

>  <PUBCHEM_SHAPE_SELFOVERLAP>  (1) 
869.437

>  <PUBCHEM_SHAPE_VOLUME>  (1) 
249.1

>  <PUBCHEM_COORDINATE_TYPE>  (1) 
2
5
10

$$$$
