35482
     RDKit          3D

  8  7  0  0  0  0  0  0  0  0999 V2000
    3.1699    1.2080    0.2717 O   0  0  0  0  0  0  0  0  0  0  0  0
   -1.3663   -0.2064   -0.6375 C   0  0  0  0  0  0  0  0  0  0  0  0
   -2.1432    0.4460    0.5077 C   0  0  0  0  0  0  0  0  0  0  0  0
    0.0458   -0.5645   -0.2335 C   0  0  0  0  0  0  0  0  0  0  0  0
   -3.5526    0.8227    0.0779 C   0  0  0  0  0  0  0  0  0  0  0  0
    1.1117    0.2432   -0.3958 C   0  0  0  0  0  0  0  0  0  0  0  0
    0.2067   -1.9170    0.4100 C   0  0  0  0  0  0  0  0  0  0  0  0
    2.5281   -0.0320   -0.0006 C   0  0  0  0  0  0  0  0  0  0  0  0
  1  8  1  0
  2  3  1  0
  2  4  1  0
  3  5  1  0
  4  6  2  0
  4  7  1  0
  6  8  1  0
M  END
>  <PUBCHEM_COMPOUND_CID>  (1) 
35482

>  <PUBCHEM_CONFORMER_RMSD>  (1) 
0.6

>  <PUBCHEM_CONFORMER_DIVERSEORDER>  (1) 
1
10
8
7
12
6
3
9
11
5
2
4

>  <PUBCHEM_MMFF94_PARTIAL_CHARGES>  (1) 
8
1 -0.68
16 0.15
2 0.14
22 0.4
4 -0.28
6 -0.29
7 0.14
8 0.42

>  <PUBCHEM_EFFECTIVE_ROTOR_COUNT>  (1) 
3

>  <PUBCHEM_PHARMACOPHORE_FEATURES>  (1) 
4
1 1 acceptor
1 1 donor
1 5 hydrophobe
1 7 hydrophobe

>  <PUBCHEM_HEAVY_ATOM_COUNT>  (1) 
8

>  <PUBCHEM_ATOM_DEF_STEREO_COUNT>  (1) 
0

>  <PUBCHEM_ATOM_UDEF_STEREO_COUNT>  (1) 
0

>  <PUBCHEM_BOND_DEF_STEREO_COUNT>  (1) 
0

>  <PUBCHEM_BOND_UDEF_STEREO_COUNT>  (1) 
1

>  <PUBCHEM_ISOTOPIC_ATOM_COUNT>  (1) 
0

>  <PUBCHEM_COMPONENT_COUNT>  (1) 
1

>  <PUBCHEM_CACTVS_TAUTO_COUNT>  (1) 
1

>  <PUBCHEM_CONFORMER_ID>  (1) 
00008A9A00000001

>  <PUBCHEM_MMFF94_ENERGY>  (1) 
4.8167

>  <PUBCHEM_FEATURE_SELFOVERLAP>  (1) 
20.297

>  <PUBCHEM_SHAPE_FINGERPRINT>  (1) 
10857977 72 17168155528700337237
12897270 3 15267342924539764841
14128692 85 8430301446734391131
14325111 11 18410856572572248719
14390081 3 18343304734541365377
170605 34 18272091565312100807
20653085 51 17703523167539066000
21040471 1 18335147522083399254
21293036 1 12463564088845034080
23235685 24 18407758140173056301
23552423 10 11095626497173650652
29004967 10 17604440587171222871

>  <PUBCHEM_SHAPE_MULTIPOLES>  (1) 
158.77
5
1.38
0.75
1.12
0.6
-0.03
-2.76
0.56
-0.46
0.23
0.11
0.03
-0.01

>  <PUBCHEM_SHAPE_SELFOVERLAP>  (1) 
283.696

>  <PUBCHEM_SHAPE_VOLUME>  (1) 
104

>  <PUBCHEM_COORDINATE_TYPE>  (1) 
2
5
10

$$$$
