35487
     RDKit          3D

 22 23  0  0  0  0  0  0  0  0999 V2000
   -4.8504   -2.1154   -1.4626 Cl  0  0  0  0  0  0  0  0  0  0  0  0
   -2.5592   -3.0651    0.0055 Cl  0  0  0  0  0  0  0  0  0  0  0  0
   -4.8554   -2.1020    1.4640 Cl  0  0  0  0  0  0  0  0  0  0  0  0
    7.4827   -1.1735   -0.0008 Cl  0  0  0  0  0  0  0  0  0  0  0  0
    0.6629   -0.8010   -0.0025 O   0  0  0  0  0  0  0  0  0  0  0  0
    2.0322    1.1002    0.0008 N   0  0  0  0  0  0  0  0  0  0  0  0
   -0.2647    1.3459   -0.0003 N   0  0  0  0  0  0  0  0  0  0  0  0
   -2.0131   -0.2059   -0.0013 N   0  0  0  0  0  0  0  0  0  0  0  0
   -2.4585    2.1519   -0.0016 N   0  0  0  0  0  0  0  0  0  0  0  0
   -4.2778    0.5873   -0.0008 N   0  0  0  0  0  0  0  0  0  0  0  0
    3.3197    0.5631    0.0009 C   0  0  0  0  0  0  0  0  0  0  0  0
   -1.6549    1.0827   -0.0015 C   0  0  0  0  0  0  0  0  0  0  0  0
   -3.3447   -0.3785   -0.0007 C   0  0  0  0  0  0  0  0  0  0  0  0
   -3.7613    1.8267   -0.0011 C   0  0  0  0  0  0  0  0  0  0  0  0
    0.7903    0.4193   -0.0009 C   0  0  0  0  0  0  0  0  0  0  0  0
    4.4284    1.4094    0.0026 C   0  0  0  0  0  0  0  0  0  0  0  0
    3.4983   -0.8203   -0.0012 C   0  0  0  0  0  0  0  0  0  0  0  0
    5.7157    0.8724    0.0022 C   0  0  0  0  0  0  0  0  0  0  0  0
    4.7857   -1.3574   -0.0015 C   0  0  0  0  0  0  0  0  0  0  0  0
   -3.8374   -1.7857    0.0014 C   0  0  0  0  0  0  0  0  0  0  0  0
    5.8945   -0.5111    0.0003 C   0  0  0  0  0  0  0  0  0  0  0  0
   -4.7330    2.9571   -0.0008 C   0  0  0  0  0  0  0  0  0  0  0  0
  1 20  1  0
  2 20  1  0
  3 20  1  0
  4 21  1  0
  5 15  2  0
  6 11  1  0
  6 15  1  0
  7 12  1  0
  7 15  1  0
  8 12  2  0
  8 13  1  0
  9 12  1  0
  9 14  2  0
 10 13  2  0
 10 14  1  0
 11 16  2  0
 11 17  1  0
 13 20  1  0
 14 22  1  0
 16 18  1  0
 17 19  2  0
 18 21  2  0
 19 21  1  0
M  END
>  <PUBCHEM_COMPOUND_CID>  (1) 
35487

>  <PUBCHEM_CONFORMER_RMSD>  (1) 
0.8

>  <PUBCHEM_CONFORMER_DIVERSEORDER>  (1) 
1
9
6
12
3
11
5
8
10
4
7
2

>  <PUBCHEM_MMFF94_PARTIAL_CHARGES>  (1) 
28
1 -0.29
10 -0.62
11 0.12
12 0.74
13 0.48
14 0.48
15 0.69
16 -0.15
17 -0.15
18 -0.15
19 -0.15
2 -0.29
20 1.01
21 0.18
22 0.14
23 0.37
24 0.37
25 0.15
26 0.15
27 0.15
28 0.15
3 -0.29
4 -0.18
5 -0.57
6 -0.55
7 -0.55
8 -0.62
9 -0.62

>  <PUBCHEM_EFFECTIVE_ROTOR_COUNT>  (1) 
5

>  <PUBCHEM_PHARMACOPHORE_FEATURES>  (1) 
7
1 5 acceptor
1 6 donor
1 7 donor
3 8 10 13 cation
3 9 10 14 cation
6 11 16 17 18 19 21 rings
6 8 9 10 12 13 14 rings

>  <PUBCHEM_HEAVY_ATOM_COUNT>  (1) 
22

>  <PUBCHEM_ATOM_DEF_STEREO_COUNT>  (1) 
0

>  <PUBCHEM_ATOM_UDEF_STEREO_COUNT>  (1) 
0

>  <PUBCHEM_BOND_DEF_STEREO_COUNT>  (1) 
0

>  <PUBCHEM_BOND_UDEF_STEREO_COUNT>  (1) 
0

>  <PUBCHEM_ISOTOPIC_ATOM_COUNT>  (1) 
0

>  <PUBCHEM_COMPONENT_COUNT>  (1) 
1

>  <PUBCHEM_CACTVS_TAUTO_COUNT>  (1) 
9

>  <PUBCHEM_CONFORMER_ID>  (1) 
00008A9F00000001

>  <PUBCHEM_MMFF94_ENERGY>  (1) 
53.2446

>  <PUBCHEM_FEATURE_SELFOVERLAP>  (1) 
36.493

>  <PUBCHEM_SHAPE_FINGERPRINT>  (1) 
10411042 1 18194682799339670263
10595046 47 18408886274064468044
11045977 3 18201995525946535528
11315181 36 18040718086378367828
11524674 6 17060622213224857183
11545043 162 18201996638210949824
11796584 16 18342739568706501238
12107183 9 17903913358116464354
12236239 1 18333452032820802660
12616971 3 17240493493824322988
12760667 363 18340205297563145227
13073987 5 18335701663396259866
13167823 11 18335419075859547522
14461889 52 18271234037328124008
14508225 48 18266164201987204517
15042514 8 18335427885349395473
15183329 4 17822003199554580498
15196674 1 18410855460645204420
15250474 111 18262223465823325386
17093844 174 18341045246583330776
17492 89 18191308384229335131
17844677 252 18411706516883866464
17857418 61 18411978091886989934
18927931 339 18411986879527247383
19141452 34 18335422331102275924
21065198 57 18411698790111210880
21236236 1 18411981364683490539
21267235 1 18335708277213677675
21709351 56 18186517700662002348
220451 1 17895196554791371552
23081809 10 18040157314722503812
23402539 116 18334574642033675324
23522609 53 17982766178648686585
23559900 14 18268419299634224153
3004659 81 18334858286886651240
3545911 37 18339080393508499052
397830 11 17702928354025201034
4073 2 18259710008285670722
4214541 1 18410575072015898148
484985 159 17603875541896611747
5104073 3 18412260632242359640
559249 180 18409164381248592435
5924683 9 18343299297281424479
59755656 520 18336540509422830989
633830 44 17167870759473518376
6431902 208 18337109076460479411
7062679 117 18409449206526523974
7495541 125 17917426566760266656
77779 3 18410856555788265220
7970288 3 18050848024930416023
9709674 26 18412832382198907790

>  <PUBCHEM_SHAPE_MULTIPOLES>  (1) 
429.45
17.07
3.02
0.82
22.74
0.05
0
4.47
-0.01
-5.33
0
-1.09
0.47
0

>  <PUBCHEM_SHAPE_SELFOVERLAP>  (1) 
869.392

>  <PUBCHEM_SHAPE_VOLUME>  (1) 
249.3

>  <PUBCHEM_COORDINATE_TYPE>  (1) 
2
5
10

$$$$
