35493
     RDKit          3D

 27 29  0  0  0  0  0  0  0  0999 V2000
   -1.6419    0.4346   -0.0004 O   0  0  0  0  0  0  0  0  0  0  0  0
    1.6471    0.4452    0.0030 O   0  0  0  0  0  0  0  0  0  0  0  0
   -3.9192   -0.1160   -0.0003 N   0  0  0  0  0  0  0  0  0  0  0  0
    3.9173   -0.1166   -0.0005 N   0  0  0  0  0  0  0  0  0  0  0  0
   -2.3365   -1.7985    0.0005 N   0  0  0  0  0  0  0  0  0  0  0  0
    2.3377   -1.7919   -0.0005 N   0  0  0  0  0  0  0  0  0  0  0  0
    0.0007   -1.7595    0.0011 N   0  0  0  0  0  0  0  0  0  0  0  0
    1.2036   -3.8357   -0.0003 N   0  0  0  0  0  0  0  0  0  0  0  0
   -1.1960   -3.8393    0.0002 N   0  0  0  0  0  0  0  0  0  0  0  0
   -4.5464    1.1303   -0.0009 C   0  0  0  0  0  0  0  0  0  0  0  0
    4.5496    1.1492    0.0001 C   0  0  0  0  0  0  0  0  0  0  0  0
   -1.1103   -2.5044    0.0008 C   0  0  0  0  0  0  0  0  0  0  0  0
    1.1239   -2.4953    0.0003 C   0  0  0  0  0  0  0  0  0  0  0  0
   -5.9389    1.2106   -0.0011 C   0  0  0  0  0  0  0  0  0  0  0  0
   -3.7806    2.2961   -0.0001 C   0  0  0  0  0  0  0  0  0  0  0  0
    5.9331    1.2158   -0.0015 C   0  0  0  0  0  0  0  0  0  0  0  0
    3.7717    2.2951    0.0014 C   0  0  0  0  0  0  0  0  0  0  0  0
   -2.5335   -0.4083    0.0000 C   0  0  0  0  0  0  0  0  0  0  0  0
    2.5411   -0.3951    0.0008 C   0  0  0  0  0  0  0  0  0  0  0  0
    0.0047   -4.4406   -0.0004 C   0  0  0  0  0  0  0  0  0  0  0  0
   -6.5657    2.4569   -0.0006 C   0  0  0  0  0  0  0  0  0  0  0  0
   -4.4072    3.5423    0.0005 C   0  0  0  0  0  0  0  0  0  0  0  0
    6.5563    2.4638   -0.0018 C   0  0  0  0  0  0  0  0  0  0  0  0
    4.3948    3.5430    0.0010 C   0  0  0  0  0  0  0  0  0  0  0  0
   -5.7998    3.6226    0.0001 C   0  0  0  0  0  0  0  0  0  0  0  0
    5.7871    3.6273   -0.0006 C   0  0  0  0  0  0  0  0  0  0  0  0
    0.0072   -5.9313   -0.0009 C   0  0  0  0  0  0  0  0  0  0  0  0
  1 18  2  0
  2 19  2  0
  3 10  1  0
  3 18  1  0
  4 11  1  0
  4 19  1  0
  5 12  1  0
  5 18  1  0
  6 13  1  0
  6 19  1  0
  7 12  2  0
  7 13  1  0
  8 13  2  0
  8 20  1  0
  9 12  1  0
  9 20  2  0
 10 14  2  0
 10 15  1  0
 11 16  2  0
 11 17  1  0
 14 21  1  0
 15 22  2  0
 16 23  1  0
 17 24  2  0
 20 27  1  0
 21 25  2  0
 22 25  1  0
 23 26  2  0
 24 26  1  0
M  END
>  <PUBCHEM_COMPOUND_CID>  (1) 
35493

>  <PUBCHEM_CONFORMER_RMSD>  (1) 
0.8

>  <PUBCHEM_CONFORMER_DIVERSEORDER>  (1) 
1
20
11
21
5
27
23
4
26
3
9
15
14
10
16
6
25
7
19
8
24
13
22
12
18
17
2

>  <PUBCHEM_MMFF94_PARTIAL_CHARGES>  (1) 
41
1 -0.57
10 0.12
11 0.12
12 0.74
13 0.74
14 -0.15
15 -0.15
16 -0.15
17 -0.15
18 0.69
19 0.69
2 -0.57
20 0.48
21 -0.15
22 -0.15
23 -0.15
24 -0.15
25 -0.15
26 -0.15
27 0.14
28 0.37
29 0.37
3 -0.55
30 0.15
31 0.15
32 0.15
33 0.15
34 0.37
35 0.37
36 0.15
37 0.15
38 0.15
39 0.15
4 -0.55
40 0.15
41 0.15
5 -0.55
6 -0.55
7 -0.62
8 -0.62
9 -0.62

>  <PUBCHEM_EFFECTIVE_ROTOR_COUNT>  (1) 
8

>  <PUBCHEM_PHARMACOPHORE_FEATURES>  (1) 
10
1 1 acceptor
1 2 acceptor
1 3 donor
1 4 donor
1 5 donor
1 6 donor
3 8 9 20 cation
6 10 14 15 21 22 25 rings
6 11 16 17 23 24 26 rings
6 7 8 9 12 13 20 rings

>  <PUBCHEM_HEAVY_ATOM_COUNT>  (1) 
27

>  <PUBCHEM_ATOM_DEF_STEREO_COUNT>  (1) 
0

>  <PUBCHEM_ATOM_UDEF_STEREO_COUNT>  (1) 
0

>  <PUBCHEM_BOND_DEF_STEREO_COUNT>  (1) 
0

>  <PUBCHEM_BOND_UDEF_STEREO_COUNT>  (1) 
0

>  <PUBCHEM_ISOTOPIC_ATOM_COUNT>  (1) 
0

>  <PUBCHEM_COMPONENT_COUNT>  (1) 
1

>  <PUBCHEM_CACTVS_TAUTO_COUNT>  (1) 
28

>  <PUBCHEM_CONFORMER_ID>  (1) 
00008AA500000001

>  <PUBCHEM_MMFF94_ENERGY>  (1) 
79.4512

>  <PUBCHEM_FEATURE_SELFOVERLAP>  (1) 
50.846

>  <PUBCHEM_SHAPE_FINGERPRINT>  (1) 
10050765 1 18410575084669393030
10411042 1 17185877195077450727
10675989 125 18195812860083321057
10937287 8 18410855464492045167
11059845 2 18123437671311232016
11386260 185 17547840864353401245
12107183 9 18335406964716632514
12293681 160 17917714599619133008
13248334 5 18122060892783813850
13590594 115 16969714286987329843
138480 1 17762055436947156483
13944108 23 18050571742252200524
13965767 371 18040429963030010942
14223995 32 18342447193298758872
14251764 75 18341621378071185769
14429114 114 18339921494519598617
14790565 3 18410575088958065696
14849402 71 18121782729295005522
14932702 115 17984996040080803336
15142526 21 18260831445684868435
15152005 290 18410292540503788484
15198563 99 17909546508421112183
15320467 1 16465300756139047688
15400415 2 18410573989447659173
15419008 42 17987816202138660102
15439362 3 18412827967689978262
15513586 35 16592540498318051500
15890870 6 18411138038917619277
15979999 66 17550392834636023726
16126227 98 18340209695187747865
16988056 13 17906172845805792142
16992779 147 17981065032671224313
16993438 75 18190748720158056627
17980427 26 18267854012923435807
19053607 189 18267288864374078585
19427546 62 18409730629758190987
20238998 120 17401766818629457583
20715895 44 18411981356426177408
21033648 144 18040988528090491165
21033650 10 17827941825465408470
21133410 127 18042124254361483044
21365058 113 17265828221856353743
21388113 180 18410860936444034065
23559900 14 17833548995328181475
23845131 108 18334296453145328771
245318 6 18041579008357752813
2748736 6 18410845568824474917
2838139 119 18411979174160505518
3627633 1 17690280834025699798
4058900 60 18411707551606748065
5219985 13 18412543219077340774
563151 97 18410565206945732583
5951187 136 18057051211239113941
6327066 14 18409164432899132413
6371380 46 18339090298420483118
6700243 42 17189297153286244470
7288768 16 18113617906497499147
77188 2 17401767423834659478
7808743 9 18338513157208942920
9849439 229 18408609162251992143
9981440 41 18335428984533638171

>  <PUBCHEM_SHAPE_MULTIPOLES>  (1) 
509.04
16.16
7.73
0.59
0.15
9.77
0
-28.7
-0.01
-0.03
0
0
-0.04
0

>  <PUBCHEM_SHAPE_SELFOVERLAP>  (1) 
1093.59

>  <PUBCHEM_SHAPE_VOLUME>  (1) 
273.1

>  <PUBCHEM_COORDINATE_TYPE>  (1) 
2
5
10

$$$$
