35494
     RDKit          3D

 30 32  0  0  0  0  0  0  0  0999 V2000
   -0.8446   -3.9217   -1.4657 Cl  0  0  0  0  0  0  0  0  0  0  0  0
    1.6306   -4.0647    0.0039 Cl  0  0  0  0  0  0  0  0  0  0  0  0
   -0.8558   -3.9164    1.4610 Cl  0  0  0  0  0  0  0  0  0  0  0  0
   -3.9196   -0.8602    0.0010 O   0  0  0  0  0  0  0  0  0  0  0  0
    3.9347   -0.8585   -0.0015 O   0  0  0  0  0  0  0  0  0  0  0  0
   -4.5825    1.3870    0.0003 N   0  0  0  0  0  0  0  0  0  0  0  0
    4.5804    1.3891    0.0009 N   0  0  0  0  0  0  0  0  0  0  0  0
   -2.3339    0.8587    0.0013 N   0  0  0  0  0  0  0  0  0  0  0  0
    2.3403    0.8561    0.0024 N   0  0  0  0  0  0  0  0  0  0  0  0
    0.0035    0.8931    0.0029 N   0  0  0  0  0  0  0  0  0  0  0  0
    1.2022   -1.1855    0.0017 N   0  0  0  0  0  0  0  0  0  0  0  0
   -1.1974   -1.1843    0.0012 N   0  0  0  0  0  0  0  0  0  0  0  0
   -5.9754    1.3062   -0.0003 C   0  0  0  0  0  0  0  0  0  0  0  0
    5.9928    1.3055   -0.0004 C   0  0  0  0  0  0  0  0  0  0  0  0
   -1.1091    0.1504    0.0021 C   0  0  0  0  0  0  0  0  0  0  0  0
    1.1252    0.1551    0.0024 C   0  0  0  0  0  0  0  0  0  0  0  0
    0.0022   -1.7879    0.0010 C   0  0  0  0  0  0  0  0  0  0  0  0
   -6.7416    2.4718   -0.0009 C   0  0  0  0  0  0  0  0  0  0  0  0
   -6.6019    0.0598   -0.0010 C   0  0  0  0  0  0  0  0  0  0  0  0
    6.7407    2.4715    0.0004 C   0  0  0  0  0  0  0  0  0  0  0  0
    6.5983    0.0597   -0.0020 C   0  0  0  0  0  0  0  0  0  0  0  0
   -3.6360    0.3335    0.0009 C   0  0  0  0  0  0  0  0  0  0  0  0
    3.6524    0.3355    0.0004 C   0  0  0  0  0  0  0  0  0  0  0  0
   -8.1342    2.3912   -0.0019 C   0  0  0  0  0  0  0  0  0  0  0  0
   -7.9944   -0.0207   -0.0022 C   0  0  0  0  0  0  0  0  0  0  0  0
    8.1331    2.3893   -0.0005 C   0  0  0  0  0  0  0  0  0  0  0  0
    7.9908   -0.0225   -0.0029 C   0  0  0  0  0  0  0  0  0  0  0  0
   -8.7605    1.1450   -0.0025 C   0  0  0  0  0  0  0  0  0  0  0  0
    8.7581    1.1425   -0.0022 C   0  0  0  0  0  0  0  0  0  0  0  0
    0.0017   -3.2787    0.0002 C   0  0  0  0  0  0  0  0  0  0  0  0
  1 30  1  0
  2 30  1  0
  3 30  1  0
  4 22  2  0
  5 23  2  0
  6 13  1  0
  6 22  1  0
  7 14  1  0
  7 23  1  0
  8 15  1  0
  8 22  1  0
  9 16  1  0
  9 23  1  0
 10 15  2  0
 10 16  1  0
 11 16  2  0
 11 17  1  0
 12 15  1  0
 12 17  2  0
 13 18  2  0
 13 19  1  0
 14 20  2  0
 14 21  1  0
 17 30  1  0
 18 24  1  0
 19 25  2  0
 20 26  1  0
 21 27  2  0
 24 28  2  0
 25 28  1  0
 26 29  2  0
 27 29  1  0
M  END
>  <PUBCHEM_COMPOUND_CID>  (1) 
35494

>  <PUBCHEM_CONFORMER_RMSD>  (1) 
1

>  <PUBCHEM_CONFORMER_DIVERSEORDER>  (1) 
1
17
16
18
21
19
15
11
6
20
10
7
13
12
8
14
9
5
4
2
3

>  <PUBCHEM_MMFF94_PARTIAL_CHARGES>  (1) 
44
1 -0.29
10 -0.62
11 -0.62
12 -0.62
13 0.12
14 0.12
15 0.74
16 0.74
17 0.48
18 -0.15
19 -0.15
2 -0.29
20 -0.15
21 -0.15
22 0.69
23 0.69
24 -0.15
25 -0.15
26 -0.15
27 -0.15
28 -0.15
29 -0.15
3 -0.29
30 1.01
31 0.37
32 0.37
33 0.37
34 0.37
35 0.15
36 0.15
37 0.15
38 0.15
39 0.15
4 -0.57
40 0.15
41 0.15
42 0.15
43 0.15
44 0.15
5 -0.57
6 -0.55
7 -0.55
8 -0.55
9 -0.55

>  <PUBCHEM_EFFECTIVE_ROTOR_COUNT>  (1) 
9

>  <PUBCHEM_PHARMACOPHORE_FEATURES>  (1) 
10
1 4 acceptor
1 5 acceptor
1 6 donor
1 7 donor
1 8 donor
1 9 donor
3 11 12 17 cation
6 10 11 12 15 16 17 rings
6 13 18 19 24 25 28 rings
6 14 20 21 26 27 29 rings

>  <PUBCHEM_HEAVY_ATOM_COUNT>  (1) 
30

>  <PUBCHEM_ATOM_DEF_STEREO_COUNT>  (1) 
0

>  <PUBCHEM_ATOM_UDEF_STEREO_COUNT>  (1) 
0

>  <PUBCHEM_BOND_DEF_STEREO_COUNT>  (1) 
0

>  <PUBCHEM_BOND_UDEF_STEREO_COUNT>  (1) 
0

>  <PUBCHEM_ISOTOPIC_ATOM_COUNT>  (1) 
0

>  <PUBCHEM_COMPONENT_COUNT>  (1) 
1

>  <PUBCHEM_CACTVS_TAUTO_COUNT>  (1) 
28

>  <PUBCHEM_CONFORMER_ID>  (1) 
00008AA600000001

>  <PUBCHEM_MMFF94_ENERGY>  (1) 
83.6074

>  <PUBCHEM_FEATURE_SELFOVERLAP>  (1) 
50.846

>  <PUBCHEM_SHAPE_FINGERPRINT>  (1) 
10 15 18113336405877734513
10050765 1 18050286960393271393
10165383 225 18411135835619962740
10190206 1 18198326528954731255
10369192 42 18334852806091819733
10835480 77 18263077722756394109
10904742 90 18411135839888218478
11135609 187 18413108351064117601
11135926 11 18410002226974564879
11315181 36 18273216383963838657
12522641 33 18409729538979033103
12539765 74 18130795550888316900
13150687 139 18201725028763906590
13248334 5 18122908620591509543
14150023 24 18335136492581269418
14937079 2 18337111275806027692
15064986 266 18262804107374337774
15439362 3 18338517430633480023
15849732 13 18114181956010066548
15927050 60 18411415133239009406
16758388 162 18261382335670874552
16992610 120 18334869337853322356
18006028 8 8935001468680921057
19301679 30 8285939972945610096
19315958 150 18413112767076318980
20505436 4 18409158918066763426
20554085 129 18059562590898482834
22224240 67 18333731308341578597
23559900 14 18128249181581638912
24771293 8 18260832571235572181
249057 3 18409168853016799764
335352 9 18411420639966630308
3411729 13 18336827490130993811
3633792 109 18272094855615739256
395649 100 18335698404070574175
4073 2 18334018268714492547
4169191 19 18339077095622468693
5219985 9 9151173151393924815
5758199 1 18411419501531011449
59755656 520 18411129268752078734
6327066 14 18412263951935593598
6669772 16 18130795529387775854
67123 10 18411418423552495685
99344 41 18410293618344959303
9962374 69 7925332014907736849

>  <PUBCHEM_SHAPE_MULTIPOLES>  (1) 
576.39
27.77
4.28
0.76
0.2
5.91
0
-31.02
0.03
0.03
0
-0.14
0.67
0

>  <PUBCHEM_SHAPE_SELFOVERLAP>  (1) 
1205.521

>  <PUBCHEM_SHAPE_VOLUME>  (1) 
320.8

>  <PUBCHEM_COORDINATE_TYPE>  (1) 
2
5
10

$$$$
