35491
     RDKit          3D

 20 20  0  0  0  0  0  0  0  0999 V2000
    2.3401   -3.0298    1.4561 Cl  0  0  0  0  0  0  0  0  0  0  0  0
   -0.0307   -3.7743   -0.0039 Cl  0  0  0  0  0  0  0  0  0  0  0  0
    2.3352   -3.0139   -1.4705 Cl  0  0  0  0  0  0  0  0  0  0  0  0
    3.7063    1.8813   -1.4719 Cl  0  0  0  0  0  0  0  0  0  0  0  0
    2.0847    3.7496    0.0067 Cl  0  0  0  0  0  0  0  0  0  0  0  0
    3.7216    1.8652    1.4547 Cl  0  0  0  0  0  0  0  0  0  0  0  0
   -3.0009   -1.2461    0.0161 O   0  0  0  0  0  0  0  0  0  0  0  0
   -4.2836    0.6809   -0.0045 N   0  0  0  0  0  0  0  0  0  0  0  0
   -1.9313    0.8201    0.0138 N   0  0  0  0  0  0  0  0  0  0  0  0
    0.3245    1.4315    0.0072 N   0  0  0  0  0  0  0  0  0  0  0  0
   -0.3250   -0.8784    0.0069 N   0  0  0  0  0  0  0  0  0  0  0  0
    2.0002   -0.2860   -0.0016 N   0  0  0  0  0  0  0  0  0  0  0  0
   -0.5673    0.4359    0.0095 C   0  0  0  0  0  0  0  0  0  0  0  0
    1.5940    0.9939    0.0016 C   0  0  0  0  0  0  0  0  0  0  0  0
    0.9864   -1.1665    0.0012 C   0  0  0  0  0  0  0  0  0  0  0  0
   -3.0521   -0.0142    0.0169 C   0  0  0  0  0  0  0  0  0  0  0  0
   -5.5648   -0.0133   -0.0286 C   0  0  0  0  0  0  0  0  0  0  0  0
   -4.3521    2.1407   -0.0038 C   0  0  0  0  0  0  0  0  0  0  0  0
    1.3543   -2.6115   -0.0039 C   0  0  0  0  0  0  0  0  0  0  0  0
    2.6605    2.0351   -0.0017 C   0  0  0  0  0  0  0  0  0  0  0  0
  1 19  1  0
  2 19  1  0
  3 19  1  0
  4 20  1  0
  5 20  1  0
  6 20  1  0
  7 16  2  0
  8 16  1  0
  8 17  1  0
  8 18  1  0
  9 13  1  0
  9 16  1  0
 10 13  2  0
 10 14  1  0
 11 13  1  0
 11 15  2  0
 12 14  2  0
 12 15  1  0
 14 20  1  0
 15 19  1  0
M  END
>  <PUBCHEM_COMPOUND_CID>  (1) 
35491

>  <PUBCHEM_CONFORMER_RMSD>  (1) 
0.8

>  <PUBCHEM_CONFORMER_DIVERSEORDER>  (1) 
1
4
2
3

>  <PUBCHEM_MMFF94_PARTIAL_CHARGES>  (1) 
21
1 -0.29
10 -0.62
11 -0.62
12 -0.62
13 0.74
14 0.48
15 0.48
16 0.69
17 0.3
18 0.3
19 1.01
2 -0.29
20 1.01
21 0.37
3 -0.29
4 -0.29
5 -0.29
6 -0.29
7 -0.57
8 -0.66
9 -0.55

>  <PUBCHEM_EFFECTIVE_ROTOR_COUNT>  (1) 
5

>  <PUBCHEM_PHARMACOPHORE_FEATURES>  (1) 
5
1 7 acceptor
1 9 donor
3 10 12 14 cation
3 11 12 15 cation
6 10 11 12 13 14 15 rings

>  <PUBCHEM_HEAVY_ATOM_COUNT>  (1) 
20

>  <PUBCHEM_ATOM_DEF_STEREO_COUNT>  (1) 
0

>  <PUBCHEM_ATOM_UDEF_STEREO_COUNT>  (1) 
0

>  <PUBCHEM_BOND_DEF_STEREO_COUNT>  (1) 
0

>  <PUBCHEM_BOND_UDEF_STEREO_COUNT>  (1) 
0

>  <PUBCHEM_ISOTOPIC_ATOM_COUNT>  (1) 
0

>  <PUBCHEM_COMPONENT_COUNT>  (1) 
1

>  <PUBCHEM_CACTVS_TAUTO_COUNT>  (1) 
4

>  <PUBCHEM_CONFORMER_ID>  (1) 
00008AA300000001

>  <PUBCHEM_MMFF94_ENERGY>  (1) 
41.2327

>  <PUBCHEM_FEATURE_SELFOVERLAP>  (1) 
26.296

>  <PUBCHEM_SHAPE_FINGERPRINT>  (1) 
10411042 1 17978510823741014123
10693767 8 18059580144076536950
1100329 8 18408880750794905130
12173636 292 17906452478046366948
12532896 13 18122624126684247708
12553582 1 17834405522816601555
12592029 89 18409167752776860265
12730499 353 18335995246017588251
12788726 201 17254004043287374291
13140716 1 18192986234984517280
13533116 47 18341896252226097753
138480 1 18194401082937202379
14790565 3 18336270136641687852
15420108 30 18200289092532171226
15442244 35 18124315995970058177
15502722 9 18411140212434048677
15664445 248 17911252619559577782
16752209 62 17834112322927143970
17134986 127 18266464380929108988
18186145 218 18058745721903774760
19591789 44 18265618869219010262
19784866 9 18413382146486601688
20369508 70 18263641754234224871
20510252 161 17548706626137422032
20600515 1 17401471664339300792
20645477 70 18410575050841638271
21054139 6 18056179505178000959
21524375 3 18263640835015933608
2255824 54 18337675204747436215
23366157 5 18114185185519283691
23419403 2 17535158109148182574
23557571 272 17258789642573868972
23558518 356 17614838943761154608
23559900 14 18196927786801837667
23598291 2 17914632561278959257
2748010 2 18264224636777451994
3060560 45 18337958986406506356
3071541 37 18335144193457195676
3091708 16 9331739348906312082
314173 41 18051139090383904335
33824 294 18409728469632169355
352729 6 18050007993170468292
474 4 18337390538678629081
5104073 3 18338239259340662969
58051976 378 18340483473730256941
58807428 26 18265593537855268544
5939293 188 18339358539722187406
59755656 215 18408882906599072516
6025842 7 18411416207501988303
6138700 20 18339652153304631430
633830 44 18200314462619574757
6443956 14 18266742376961022348
7364860 26 18341894048074412134
7808743 9 17689153830650021632
81228 2 17256244272817229746
81539 233 18334857242201958382
8272917 22 18412549786535990933
84936 182 18272650138662634705
9709674 26 18409733941858477715
9841814 1 18190743016225605579

>  <PUBCHEM_SHAPE_MULTIPOLES>  (1) 
392.03
8.19
4.84
1.09
13.18
2.42
-0.01
-5.19
-0.04
-4.69
0
-1.46
0.3
0

>  <PUBCHEM_SHAPE_SELFOVERLAP>  (1) 
742.61

>  <PUBCHEM_SHAPE_VOLUME>  (1) 
241.8

>  <PUBCHEM_COORDINATE_TYPE>  (1) 
2
5
10

$$$$
