35492
     RDKit          3D

 24 25  0  0  0  0  0  0  0  0999 V2000
    3.5533    3.0400   -1.4622 Cl  0  0  0  0  0  0  0  0  0  0  0  0
    1.1654    3.7113    0.0055 Cl  0  0  0  0  0  0  0  0  0  0  0  0
    3.5593    3.0273    1.4644 Cl  0  0  0  0  0  0  0  0  0  0  0  0
    5.0836   -1.8224    1.4659 Cl  0  0  0  0  0  0  0  0  0  0  0  0
    3.5163   -3.7425   -0.0051 Cl  0  0  0  0  0  0  0  0  0  0  0  0
    5.0881   -1.8092   -1.4608 Cl  0  0  0  0  0  0  0  0  0  0  0  0
   -1.7655    1.0811   -0.0032 O   0  0  0  0  0  0  0  0  0  0  0  0
   -0.5898   -0.9406   -0.0009 N   0  0  0  0  0  0  0  0  0  0  0  0
   -2.8995   -0.9691   -0.0002 N   0  0  0  0  0  0  0  0  0  0  0  0
    1.6841   -1.4808   -0.0017 N   0  0  0  0  0  0  0  0  0  0  0  0
    0.9622    0.8076   -0.0015 N   0  0  0  0  0  0  0  0  0  0  0  0
    3.3050    0.2886   -0.0005 N   0  0  0  0  0  0  0  0  0  0  0  0
    0.7594   -0.5144   -0.0018 C   0  0  0  0  0  0  0  0  0  0  0  0
   -4.2418   -0.5884   -0.0003 C   0  0  0  0  0  0  0  0  0  0  0  0
    2.9392   -1.0035   -0.0010 C   0  0  0  0  0  0  0  0  0  0  0  0
    2.2641    1.1368   -0.0006 C   0  0  0  0  0  0  0  0  0  0  0  0
   -1.7473   -0.1457   -0.0016 C   0  0  0  0  0  0  0  0  0  0  0  0
   -5.2425   -1.5602    0.0012 C   0  0  0  0  0  0  0  0  0  0  0  0
   -4.5829    0.7639   -0.0010 C   0  0  0  0  0  0  0  0  0  0  0  0
    2.5863    2.5926    0.0017 C   0  0  0  0  0  0  0  0  0  0  0  0
    4.0380   -2.0107   -0.0004 C   0  0  0  0  0  0  0  0  0  0  0  0
   -6.5845   -1.1794    0.0021 C   0  0  0  0  0  0  0  0  0  0  0  0
   -5.9248    1.1447    0.0001 C   0  0  0  0  0  0  0  0  0  0  0  0
   -6.9256    0.1730    0.0015 C   0  0  0  0  0  0  0  0  0  0  0  0
  1 20  1  0
  2 20  1  0
  3 20  1  0
  4 21  1  0
  5 21  1  0
  6 21  1  0
  7 17  2  0
  8 13  1  0
  8 17  1  0
  9 14  1  0
  9 17  1  0
 10 13  2  0
 10 15  1  0
 11 13  1  0
 11 16  2  0
 12 15  2  0
 12 16  1  0
 14 18  2  0
 14 19  1  0
 15 21  1  0
 16 20  1  0
 18 22  1  0
 19 23  2  0
 22 24  2  0
 23 24  1  0
M  END
>  <PUBCHEM_COMPOUND_CID>  (1) 
35492

>  <PUBCHEM_CONFORMER_RMSD>  (1) 
0.8

>  <PUBCHEM_CONFORMER_DIVERSEORDER>  (1) 
1
3
10
11
4
12
6
9
7
5
2
8

>  <PUBCHEM_MMFF94_PARTIAL_CHARGES>  (1) 
31
1 -0.29
10 -0.62
11 -0.62
12 -0.62
13 0.74
14 0.12
15 0.48
16 0.48
17 0.69
18 -0.15
19 -0.15
2 -0.29
20 1.01
21 1.01
22 -0.15
23 -0.15
24 -0.15
25 0.37
26 0.37
27 0.15
28 0.15
29 0.15
3 -0.29
30 0.15
31 0.15
4 -0.29
5 -0.29
6 -0.29
7 -0.57
8 -0.55
9 -0.55

>  <PUBCHEM_EFFECTIVE_ROTOR_COUNT>  (1) 
6

>  <PUBCHEM_PHARMACOPHORE_FEATURES>  (1) 
7
1 7 acceptor
1 8 donor
1 9 donor
3 10 12 15 cation
3 11 12 16 cation
6 10 11 12 13 15 16 rings
6 14 18 19 22 23 24 rings

>  <PUBCHEM_HEAVY_ATOM_COUNT>  (1) 
24

>  <PUBCHEM_ATOM_DEF_STEREO_COUNT>  (1) 
0

>  <PUBCHEM_ATOM_UDEF_STEREO_COUNT>  (1) 
0

>  <PUBCHEM_BOND_DEF_STEREO_COUNT>  (1) 
0

>  <PUBCHEM_BOND_UDEF_STEREO_COUNT>  (1) 
0

>  <PUBCHEM_ISOTOPIC_ATOM_COUNT>  (1) 
0

>  <PUBCHEM_COMPONENT_COUNT>  (1) 
1

>  <PUBCHEM_CACTVS_TAUTO_COUNT>  (1) 
7

>  <PUBCHEM_CONFORMER_ID>  (1) 
00008AA400000001

>  <PUBCHEM_MMFF94_ENERGY>  (1) 
56.5584

>  <PUBCHEM_FEATURE_SELFOVERLAP>  (1) 
36.493

>  <PUBCHEM_SHAPE_FINGERPRINT>  (1) 
10411042 1 18266741269186819270
10483366 6 18189354497335451516
10595046 47 18341331206207245327
11405975 8 18410857664084954779
12107183 9 18125729994004470657
12166972 35 18131351877949257569
12403259 415 17894342277259023405
12616971 3 18060133259013428447
12730499 353 18264781036820941769
13073987 5 18341615958307455993
13533116 47 18413110580368350281
13785724 45 18055079757016495134
13878862 14 18263904645040511725
13955234 65 18341893043041379512
14170010 4 18413387653272653456
14341114 176 18410579509328784825
14528608 73 18269558398323337261
14790565 3 17614851038062714492
15183329 4 18337112263811171955
15196674 1 18410575111250690117
15250474 111 18129085879338637167
15420108 30 17841692292059875456
15927050 60 18125720343091688918
16992752 21 18050012087335774070
17844677 252 18412269428598871801
1813 80 18200323100252123774
18222031 100 18270405988570727434
18681886 176 18343579637944177082
20369508 70 18411138022264712198
20612939 158 18409455795001243637
20645477 70 18408603677542052374
20832881 197 18188491272235867746
21033648 29 17458612416346773293
21049683 271 18408047299811617484
21065198 57 18410013264951097523
21267235 1 18411708660388941303
21315763 129 18410571765439355685
21344244 78 18201425974506892704
21452121 103 18339072795563464881
21478907 32 17977384932755973834
21709351 56 18341044143335833647
21859007 373 17823956975808769413
221357 26 18335421231817150733
23559900 14 18412541007517661291
239999 70 18413674599463296966
24771293 8 18057303159354796936
3004659 81 18412266120667205174
3411729 13 18337666542436632568
3421961 26 18411415103262804872
350125 39 18409729543057683637
376196 1 15836749425426320920
4015057 19 18338227267765416131
4073 2 18041847345335089523
4144715 1 18335146406035207905
4214541 1 18410575055537233185
5104073 3 18411422839010524171
513532 50 18059584637013248268
59755656 215 18410295852266465076
67856867 119 18342451569363160395
90127 26 17968100824375275969
9841814 1 18260539005614238682

>  <PUBCHEM_SHAPE_MULTIPOLES>  (1) 
474.35
15.88
4.14
1.01
28.95
2.03
0
-5.92
-0.01
-7.72
0
-1.76
0.25
0

>  <PUBCHEM_SHAPE_SELFOVERLAP>  (1) 
942.445

>  <PUBCHEM_SHAPE_VOLUME>  (1) 
278.8

>  <PUBCHEM_COORDINATE_TYPE>  (1) 
2
5
10

$$$$
