35498
     RDKit          3D

 11 11  0  0  0  0  0  0  0  0999 V2000
   -2.0952   -2.6019    0.2761 Cl  0  0  0  0  0  0  0  0  0  0  0  0
   -2.0966    2.6011    0.2761 Cl  0  0  0  0  0  0  0  0  0  0  0  0
    0.0157    1.1999   -0.3210 N   0  0  0  0  0  0  0  0  0  0  0  0
    0.0159   -1.1997   -0.3215 N   0  0  0  0  0  0  0  0  0  0  0  0
   -1.9836   -0.0002    0.2449 N   0  0  0  0  0  0  0  0  0  0  0  0
    1.9388    0.0006   -0.8667 N   0  0  0  0  0  0  0  0  0  0  0  0
    2.7229    0.0002    0.1088 N   0  0  0  0  0  0  0  0  0  0  0  0
    3.4343    0.0000    1.0012 N   0  0  0  0  0  0  0  0  0  0  0  0
    0.5960    0.0003   -0.4856 C   0  0  0  0  0  0  0  0  0  0  0  0
   -1.2739   -1.1222    0.0437 C   0  0  0  0  0  0  0  0  0  0  0  0
   -1.2742    1.1219    0.0441 C   0  0  0  0  0  0  0  0  0  0  0  0
  1 10  1  0
  2 11  1  0
  3  9  2  0
  3 11  1  0
  4  9  1  0
  4 10  2  0
  5 10  1  0
  5 11  2  0
  6  7  2  0
  6  9  1  0
  7  8  2  0
M  CHG  2   7   1   8  -1
M  END
>  <PUBCHEM_COMPOUND_CID>  (1) 
35498

>  <PUBCHEM_CONFORMER_RMSD>  (1) 
0.4

>  <PUBCHEM_CONFORMER_DIVERSEORDER>  (1) 
1
2

>  <PUBCHEM_MMFF94_PARTIAL_CHARGES>  (1) 
11
1 -0.18
10 0.8
11 0.8
2 -0.18
3 -0.62
4 -0.62
5 -0.62
6 -0.5
7 0.69
8 -0.37
9 0.8

>  <PUBCHEM_EFFECTIVE_ROTOR_COUNT>  (1) 
1

>  <PUBCHEM_PHARMACOPHORE_FEATURES>  (1) 
2
4 3 4 6 9 cation
6 3 4 5 9 10 11 rings

>  <PUBCHEM_HEAVY_ATOM_COUNT>  (1) 
11

>  <PUBCHEM_ATOM_DEF_STEREO_COUNT>  (1) 
0

>  <PUBCHEM_ATOM_UDEF_STEREO_COUNT>  (1) 
0

>  <PUBCHEM_BOND_DEF_STEREO_COUNT>  (1) 
0

>  <PUBCHEM_BOND_UDEF_STEREO_COUNT>  (1) 
1

>  <PUBCHEM_ISOTOPIC_ATOM_COUNT>  (1) 
0

>  <PUBCHEM_COMPONENT_COUNT>  (1) 
1

>  <PUBCHEM_CACTVS_TAUTO_COUNT>  (1) 
1

>  <PUBCHEM_CONFORMER_ID>  (1) 
00008AAA00000001

>  <PUBCHEM_MMFF94_ENERGY>  (1) 
16.9021

>  <PUBCHEM_FEATURE_SELFOVERLAP>  (1) 
10.148

>  <PUBCHEM_SHAPE_FINGERPRINT>  (1) 
1 1 17617381684458855197
10857977 72 18271526527951962474
12716758 59 18269563744993066206
16945 1 18410867559262024895
19021347 4 18266180517929079881
20871998 184 18272655696191904022
21040471 1 18194135022560966701
23211744 41 17914900842026433341
23402539 116 18341316839230404237
23552423 10 17754747348297718925
2748010 2 17976840700274855143
3071541 236 18334852788647867977
3086196 2 18337093674970922282
7364860 26 17187847519929177741
81228 2 18339654403229086747

>  <PUBCHEM_SHAPE_MULTIPOLES>  (1) 
200.23
3.99
2.58
0.78
3.92
0
-0.04
0
-1.08
-3.2
-0.3
0.35
0
0

>  <PUBCHEM_SHAPE_SELFOVERLAP>  (1) 
397.484

>  <PUBCHEM_SHAPE_VOLUME>  (1) 
114.7

>  <PUBCHEM_COORDINATE_TYPE>  (1) 
2
5
10

$$$$
