35507
     RDKit          3D

 27 27  0  0  0  0  0  0  0  0999 V2000
    2.7168   -3.8994    1.2443 Cl  0  0  0  0  0  0  0  0  0  0  0  0
    1.7904   -1.1601    1.6835 Cl  0  0  0  0  0  0  0  0  0  0  0  0
   -4.0530    1.1918   -1.0791 Cl  0  0  0  0  0  0  0  0  0  0  0  0
   -3.0704    0.5693    1.6046 Cl  0  0  0  0  0  0  0  0  0  0  0  0
    2.8873    2.0595    1.3237 Cl  0  0  0  0  0  0  0  0  0  0  0  0
    1.4878    4.5091    0.5516 Cl  0  0  0  0  0  0  0  0  0  0  0  0
    5.1005   -1.5442    1.1517 Cl  0  0  0  0  0  0  0  0  0  0  0  0
   -6.4116    0.3941    1.1656 Cl  0  0  0  0  0  0  0  0  0  0  0  0
    3.3724    3.7273   -1.8391 Cl  0  0  0  0  0  0  0  0  0  0  0  0
    1.4138   -3.5244   -1.1794 O   0  0  0  0  0  0  0  0  0  0  0  0
   -3.2992   -2.2621   -0.5403 O   0  0  0  0  0  0  0  0  0  0  0  0
   -0.3458    2.6030    1.2981 O   0  0  0  0  0  0  0  0  0  0  0  0
    0.6721   -1.3475   -0.8361 N   0  0  0  0  0  0  0  0  0  0  0  0
   -1.6587   -0.6315   -0.7719 N   0  0  0  0  0  0  0  0  0  0  0  0
    0.1169    0.9831   -0.3057 N   0  0  0  0  0  0  0  0  0  0  0  0
   -0.6857   -1.5672   -1.3293 C   0  0  0  0  0  0  0  0  0  0  0  0
    1.1248    0.0483   -0.8211 C   0  0  0  0  0  0  0  0  0  0  0  0
   -1.2513    0.7751   -0.7823 C   0  0  0  0  0  0  0  0  0  0  0  0
    1.4891   -2.4503   -0.5770 C   0  0  0  0  0  0  0  0  0  0  0  0
   -2.9274   -1.0922   -0.4162 C   0  0  0  0  0  0  0  0  0  0  0  0
    0.4076    2.1244    0.4462 C   0  0  0  0  0  0  0  0  0  0  0  0
    2.5147   -2.2897    0.5176 C   0  0  0  0  0  0  0  0  0  0  0  0
   -3.8796   -0.0730    0.1579 C   0  0  0  0  0  0  0  0  0  0  0  0
    1.7361    2.7881    0.1818 C   0  0  0  0  0  0  0  0  0  0  0  0
    3.8176   -1.7558   -0.0693 C   0  0  0  0  0  0  0  0  0  0  0  0
   -5.2111   -0.7391    0.4902 C   0  0  0  0  0  0  0  0  0  0  0  0
    2.1460    2.5638   -1.2702 C   0  0  0  0  0  0  0  0  0  0  0  0
  1 22  1  0
  2 22  1  0
  3 23  1  0
  4 23  1  0
  5 24  1  0
  6 24  1  0
  7 25  1  0
  8 26  1  0
  9 27  1  0
 10 19  2  0
 11 20  2  0
 12 21  2  0
 13 16  1  0
 13 17  1  0
 13 19  1  0
 14 16  1  0
 14 18  1  0
 14 20  1  0
 15 17  1  0
 15 18  1  0
 15 21  1  0
 19 22  1  0
 20 23  1  0
 21 24  1  0
 22 25  1  0
 23 26  1  0
 24 27  1  0
M  END
>  <PUBCHEM_COMPOUND_CID>  (1) 
35507

>  <PUBCHEM_CONFORMER_RMSD>  (1) 
1

>  <PUBCHEM_CONFORMER_DIVERSEORDER>  (1) 
1
83
198
99
134
188
120
195
141
75
219
215
184
27
117
133
172
48
163
202
150
228
167
64
251
197
209
175
77
97
207
90
59
142
55
201
47
137
253
154
239
223
7
240
217
164
221
79
214
138
145
148
26
129
250
74
208
243
118
93
103
54
46
206
230
233
174
246
177
12
226
161
68
69
189
241
196
242
38
245
203
232
156
10
231
92
65
210
178
205
73
70
212
84
61
86
44
30
123
102
3
168
35
179
52
17
132
173
227
216
193
2
122
87
224
192
4
56
89
187
80
247
40
225
21
185
66
41
53
220
199
183
5
57
115
67
6
254
157
249
78
81
182
131
96
222
18
39
51
248
181
49
166
238
143
24
136
121
160
32
101
113
100
37
135
200
72
107
111
140
112
139
45
176
9
191
229
105
152
15
108
94
204
20
8
13
114
171
25
169
158
98
234
82
58
190
116
213
50
11
60
28
119
34
124
236
95
63
62
151
19
244
71
218
22
162
16
14
149
146
128
186
106
33
170
31
165
110
252
23
235
153
144
159
29
36
104
180
126
127
109
130
155
194
237
43
91
88
147
76
42
125
211
85

>  <PUBCHEM_MMFF94_PARTIAL_CHARGES>  (1) 
27
1 -0.29
10 -0.57
11 -0.57
12 -0.57
13 -0.66
14 -0.66
15 -0.66
16 0.6
17 0.6
18 0.6
19 0.57
2 -0.29
20 0.57
21 0.57
22 0.64
23 0.64
24 0.64
25 0.29
26 0.29
27 0.29
3 -0.29
4 -0.29
5 -0.29
6 -0.29
7 -0.29
8 -0.29
9 -0.29

>  <PUBCHEM_EFFECTIVE_ROTOR_COUNT>  (1) 
10.2

>  <PUBCHEM_PHARMACOPHORE_FEATURES>  (1) 
4
1 10 acceptor
1 11 acceptor
1 12 acceptor
6 13 14 15 16 17 18 rings

>  <PUBCHEM_HEAVY_ATOM_COUNT>  (1) 
27

>  <PUBCHEM_ATOM_DEF_STEREO_COUNT>  (1) 
0

>  <PUBCHEM_ATOM_UDEF_STEREO_COUNT>  (1) 
0

>  <PUBCHEM_BOND_DEF_STEREO_COUNT>  (1) 
0

>  <PUBCHEM_BOND_UDEF_STEREO_COUNT>  (1) 
0

>  <PUBCHEM_ISOTOPIC_ATOM_COUNT>  (1) 
0

>  <PUBCHEM_COMPONENT_COUNT>  (1) 
1

>  <PUBCHEM_CACTVS_TAUTO_COUNT>  (1) 
1

>  <PUBCHEM_CONFORMER_ID>  (1) 
00008AB300000001

>  <PUBCHEM_MMFF94_ENERGY>  (1) 
121.5377

>  <PUBCHEM_FEATURE_SELFOVERLAP>  (1) 
20.297

>  <PUBCHEM_SHAPE_FINGERPRINT>  (1) 
10074138 170 17254535120330300480
107951 10 17832161776414542452
1100329 8 18339358681999303742
11578080 2 17676474030745203077
12156800 1 14545683841149044298
12160290 23 17189243899559381838
12422481 6 18051091961976473312
12553582 1 18270121193125315975
12592029 89 18267305515892998369
12633257 1 18341617001831696679
12644460 14 18339656611016324369
12788726 201 17976547109085340738
13004483 165 17903626393807727618
13140716 1 18342172318889715839
133893 2 17901350636798334310
13583140 156 18187917340815974295
13878862 14 18337659855489246021
14022347 108 18124897663143393247
140371 6 18270125591324619311
14466204 15 18051135783770523129
14787075 74 18186804656291535802
14790565 3 18121781904840951124
14955137 171 18341619200480484022
15420108 30 17916858144538501327
15463212 79 17541096906357594716
15475509 35 17530690896752951659
15927050 60 17980201108815842998
17980427 23 17560507431388666687
1813 80 18266746783233607539
18785283 64 18335424594628941413
19591789 44 18051409862027319700
20600515 1 17975974258894159781
20642791 178 18410857702243567190
20739085 24 18412821383156453704
21033648 29 17415540048818905043
21120745 212 17906466433038313006
21421861 104 18410022017656636129
23366157 5 18261390083089944367
23419403 2 18117534280805230044
23558518 356 17403736048059166364
23559900 14 18340194246501139563
25147074 1 18201151165804819295
3187 122 18047170978941869504
3380486 145 17908384066647054526
3411729 13 18336836397655399205
35225 105 17400938881872098858
392239 28 18339062823372356730
394222 165 18129108986077202395
4058900 60 18120675753346495425
469060 322 18189899704577668072
5104073 3 18339656624476577563
633830 44 17771351048036393701
6443956 14 18410566284824248416
81228 2 17691687783722321263
9841814 1 18338809909653753351

>  <PUBCHEM_SHAPE_MULTIPOLES>  (1) 
539.92
9.51
5.28
1.64
12.91
2.47
-0.1
-2.35
-2.86
-7.65
0.2
-0.38
0.31
-1.47

>  <PUBCHEM_SHAPE_SELFOVERLAP>  (1) 
1021.16

>  <PUBCHEM_SHAPE_VOLUME>  (1) 
337.1

>  <PUBCHEM_COORDINATE_TYPE>  (1) 
2
5
10

$$$$
