35502
     RDKit          3D

 13 13  0  0  0  0  0  0  0  0999 V2000
   -2.8003   -1.6446   -0.0019 Cl  0  0  0  0  0  0  0  0  0  0  0  0
   -2.7248    0.8807    1.4552 Cl  0  0  0  0  0  0  0  0  0  0  0  0
   -2.7222    0.8829   -1.4556 Cl  0  0  0  0  0  0  0  0  0  0  0  0
    3.2640   -0.0048   -0.0020 O   0  0  0  0  0  0  0  0  0  0  0  0
    1.8823   -0.0051    0.0023 N   0  0  0  0  0  0  0  0  0  0  0  0
   -0.0950    1.1992    0.0003 N   0  0  0  0  0  0  0  0  0  0  0  0
   -0.1329   -1.2122    0.0005 N   0  0  0  0  0  0  0  0  0  0  0  0
    1.9728    2.3403   -0.0003 N   0  0  0  0  0  0  0  0  0  0  0  0
    1.8247   -2.3865   -0.0009 N   0  0  0  0  0  0  0  0  0  0  0  0
   -0.7181   -0.0447    0.0010 C   0  0  0  0  0  0  0  0  0  0  0  0
    1.2188    1.1978    0.0006 C   0  0  0  0  0  0  0  0  0  0  0  0
    1.2507   -1.2243    0.0012 C   0  0  0  0  0  0  0  0  0  0  0  0
   -2.2199    0.0212   -0.0003 C   0  0  0  0  0  0  0  0  0  0  0  0
  1 13  1  0
  2 13  1  0
  3 13  1  0
  4  5  1  0
  5 11  1  0
  5 12  1  0
  6 10  1  0
  6 11  2  0
  7 10  2  0
  7 12  1  0
  8 11  1  0
  9 12  2  0
 10 13  1  0
M  END
>  <PUBCHEM_COMPOUND_CID>  (1) 
35502

>  <PUBCHEM_CONFORMER_RMSD>  (1) 
0.4

>  <PUBCHEM_CONFORMER_DIVERSEORDER>  (1) 
1

>  <PUBCHEM_MMFF94_PARTIAL_CHARGES>  (1) 
17
1 -0.29
10 0.6
11 0.55
12 0.71
13 0.93
14 0.4
15 0.4
16 0.4
17 0.4
2 -0.29
3 -0.29
4 -0.38
5 -0.12
6 -0.66
7 -0.66
8 -0.85
9 -0.85

>  <PUBCHEM_EFFECTIVE_ROTOR_COUNT>  (1) 
1

>  <PUBCHEM_PHARMACOPHORE_FEATURES>  (1) 
5
1 8 donor
1 9 donor
4 5 6 8 11 cation
4 5 7 9 12 cation
6 5 6 7 10 11 12 rings

>  <PUBCHEM_HEAVY_ATOM_COUNT>  (1) 
13

>  <PUBCHEM_ATOM_DEF_STEREO_COUNT>  (1) 
0

>  <PUBCHEM_ATOM_UDEF_STEREO_COUNT>  (1) 
0

>  <PUBCHEM_BOND_DEF_STEREO_COUNT>  (1) 
0

>  <PUBCHEM_BOND_UDEF_STEREO_COUNT>  (1) 
0

>  <PUBCHEM_ISOTOPIC_ATOM_COUNT>  (1) 
0

>  <PUBCHEM_COMPONENT_COUNT>  (1) 
1

>  <PUBCHEM_CACTVS_TAUTO_COUNT>  (1) 
2

>  <PUBCHEM_CONFORMER_ID>  (1) 
00008AAE00000001

>  <PUBCHEM_MMFF94_ENERGY>  (1) 
37.3385

>  <PUBCHEM_FEATURE_SELFOVERLAP>  (1) 
25.405

>  <PUBCHEM_SHAPE_FINGERPRINT>  (1) 
12138202 97 17677312940953189527
12251169 10 18341345413531708451
124424 183 17532074038776528432
12932764 1 18040436581437132363
14325111 11 18266741457553210241
16945 1 18410575046061263680
17844478 74 17749688306747112665
17990270 104 18409445869052423123
18186145 218 18341339984624954996
200 152 18130496539908347679
20082192 1 18335689529965981595
20201158 50 18335695022965493319
21040471 1 17978510059499929920
21501502 16 18409452526578519715
21524375 3 18048034370231471336
2334 1 18122343746639334836
23402655 69 18267001892197431517
23552423 10 18411140263899803135
25 1 17249757760062697093
2748010 2 18193557989536362708
3248919 1 18060134315090066607
5084963 1 18262798600429419353
63268167 104 18338514145003870089
74978 22 18340488868114183037
8030462 33 17917986174901836801
81228 2 17329426143232713930

>  <PUBCHEM_SHAPE_MULTIPOLES>  (1) 
242.37
4.68
2.14
0.98
0.14
0.35
0
-0.07
0
-0.86
0
1.07
-0.34
0

>  <PUBCHEM_SHAPE_SELFOVERLAP>  (1) 
475.551

>  <PUBCHEM_SHAPE_VOLUME>  (1) 
146.2

>  <PUBCHEM_COORDINATE_TYPE>  (1) 
2
5
10

$$$$
