35508
     RDKit          3D

 18 18  0  0  0  0  0  0  0  0999 V2000
    0.0017    3.8513    0.6673 Cl  0  0  0  0  0  0  0  0  0  0  0  0
    2.6974    2.7441    0.6207 Cl  0  0  0  0  0  0  0  0  0  0  0  0
    1.0160    2.5865   -1.7564 Cl  0  0  0  0  0  0  0  0  0  0  0  0
   -3.3157   -1.9519    0.6180 Cl  0  0  0  0  0  0  0  0  0  0  0  0
   -3.7369    0.9316    0.6713 Cl  0  0  0  0  0  0  0  0  0  0  0  0
   -2.7579   -0.3535   -1.7561 Cl  0  0  0  0  0  0  0  0  0  0  0  0
    3.3338   -1.9276    0.6692 Cl  0  0  0  0  0  0  0  0  0  0  0  0
    1.0272   -3.7085    0.6190 Cl  0  0  0  0  0  0  0  0  0  0  0  0
    1.7339   -2.1719   -1.7563 Cl  0  0  0  0  0  0  0  0  0  0  0  0
    0.5248    1.2975    0.4653 N   0  0  0  0  0  0  0  0  0  0  0  0
   -1.3860   -0.1943    0.4646 N   0  0  0  0  0  0  0  0  0  0  0  0
    0.8611   -1.1035    0.4652 N   0  0  0  0  0  0  0  0  0  0  0  0
   -0.8572    1.0984   -0.0081 C   0  0  0  0  0  0  0  0  0  0  0  0
    1.3801    0.1933   -0.0068 C   0  0  0  0  0  0  0  0  0  0  0  0
   -0.5224   -1.2916   -0.0085 C   0  0  0  0  0  0  0  0  0  0  0  0
    1.0462    2.5858    0.0104 C   0  0  0  0  0  0  0  0  0  0  0  0
   -2.7628   -0.3869    0.0106 C   0  0  0  0  0  0  0  0  0  0  0  0
    1.7165   -2.1988    0.0105 C   0  0  0  0  0  0  0  0  0  0  0  0
  1 16  1  0
  2 16  1  0
  3 16  1  0
  4 17  1  0
  5 17  1  0
  6 17  1  0
  7 18  1  0
  8 18  1  0
  9 18  1  0
 10 13  1  0
 10 14  1  0
 10 16  1  0
 11 13  1  0
 11 15  1  0
 11 17  1  0
 12 14  1  0
 12 15  1  0
 12 18  1  0
M  END
>  <PUBCHEM_COMPOUND_CID>  (1) 
35508

>  <PUBCHEM_CONFORMER_RMSD>  (1) 
0.6

>  <PUBCHEM_CONFORMER_DIVERSEORDER>  (1) 
1
2

>  <PUBCHEM_MMFF94_PARTIAL_CHARGES>  (1) 
18
1 -0.29
10 -0.81
11 -0.81
12 -0.81
13 0.54
14 0.54
15 0.54
16 1.14
17 1.14
18 1.14
2 -0.29
3 -0.29
4 -0.29
5 -0.29
6 -0.29
7 -0.29
8 -0.29
9 -0.29

>  <PUBCHEM_EFFECTIVE_ROTOR_COUNT>  (1) 
4.2

>  <PUBCHEM_PHARMACOPHORE_FEATURES>  (1) 
4
1 10 cation
1 11 cation
1 12 cation
6 10 11 12 13 14 15 rings

>  <PUBCHEM_HEAVY_ATOM_COUNT>  (1) 
18

>  <PUBCHEM_ATOM_DEF_STEREO_COUNT>  (1) 
0

>  <PUBCHEM_ATOM_UDEF_STEREO_COUNT>  (1) 
0

>  <PUBCHEM_BOND_DEF_STEREO_COUNT>  (1) 
0

>  <PUBCHEM_BOND_UDEF_STEREO_COUNT>  (1) 
0

>  <PUBCHEM_ISOTOPIC_ATOM_COUNT>  (1) 
0

>  <PUBCHEM_COMPONENT_COUNT>  (1) 
1

>  <PUBCHEM_CACTVS_TAUTO_COUNT>  (1) 
1

>  <PUBCHEM_CONFORMER_ID>  (1) 
00008AB400000001

>  <PUBCHEM_MMFF94_ENERGY>  (1) 
77.3656

>  <PUBCHEM_FEATURE_SELFOVERLAP>  (1) 
20.382

>  <PUBCHEM_SHAPE_FINGERPRINT>  (1) 
1 1 18121777493687199524
104564 63 17763753083126789407
10967382 1 18194401319191688624
11322862 65 17257949610719398087
11578080 2 17386270009393355734
12173636 292 17618790597120503157
12553582 1 18194683666031494651
12592029 89 18120376720294896754
12788726 201 17690578380864457919
13140716 1 18410856555344842251
13681431 1 18410856538180777823
14022347 108 17907038195932855163
14181834 199 18339913896162243711
14817 1 14474670993104246141
15042514 8 17112980660633863331
15309172 13 17761783166628147785
15490181 7 17690847078281346722
15490181 8 18051976118963081891
16945 1 18339073766241676947
19591789 44 17473548426257341995
19868273 325 18050855420309341399
20097449 115 18264209119033776688
20510252 161 17548130030951660082
20600515 1 18262238798655650378
20645476 183 16886952388954642132
20645477 70 18342453798852542543
20711985 344 17621049663512405655
21041028 32 18339367340421192625
21160774 45 17038105018094069869
21524375 3 17834398195343470414
23184049 29 17688866437239499498
2334 1 18410574036691071834
23419403 2 14356405117376357403
23557571 272 17767688261466532438
23598291 2 18131626786200553759
23598294 1 17544479652331827378
238 59 17979044370711577655
2748010 2 18263081170390818347
305870 269 18267865167079654977
3060560 45 18050834808814256605
3091708 16 9216837085200122259
34934 24 18195521485365079507
352729 6 17545884188136184338
458136 41 17829633968911518955
58051976 378 18051693536365240063
59755656 215 18191870239340739791
7364860 26 18341054107090072297
81228 2 17834113048164440616

>  <PUBCHEM_SHAPE_MULTIPOLES>  (1) 
372.32
4.93
4.93
1.36
3.7
1.15
0.84
-1.18
-0.67
-3.7
-0.66
0
0.02
-0.01

>  <PUBCHEM_SHAPE_SELFOVERLAP>  (1) 
670.49

>  <PUBCHEM_SHAPE_VOLUME>  (1) 
230

>  <PUBCHEM_COORDINATE_TYPE>  (1) 
2
5
10

$$$$
