35505
     RDKit          3D

 24 24  0  0  0  0  0  0  0  0999 V2000
    4.1067    0.0243   -1.1888 Cl  0  0  0  0  0  0  0  0  0  0  0  0
    4.7068    1.8840    0.9764 Cl  0  0  0  0  0  0  0  0  0  0  0  0
    3.1307   -0.5048    1.5083 Cl  0  0  0  0  0  0  0  0  0  0  0  0
   -2.1679    3.4267   -1.2929 Cl  0  0  0  0  0  0  0  0  0  0  0  0
   -4.0730    2.9399    0.8612 Cl  0  0  0  0  0  0  0  0  0  0  0  0
   -1.2159    2.9239    1.4178 Cl  0  0  0  0  0  0  0  0  0  0  0  0
   -1.5735   -1.8285    1.4370 Cl  0  0  0  0  0  0  0  0  0  0  0  0
   -2.3646   -3.7434   -0.6158 Cl  0  0  0  0  0  0  0  0  0  0  0  0
   -0.5262   -4.5502    1.4919 Cl  0  0  0  0  0  0  0  0  0  0  0  0
    2.2341    2.7060    0.2164 O   0  0  0  0  0  0  0  0  0  0  0  0
   -3.4098    0.4102    0.1320 O   0  0  0  0  0  0  0  0  0  0  0  0
    0.9436   -3.5930   -0.6960 O   0  0  0  0  0  0  0  0  0  0  0  0
    1.2246    0.7519   -0.5403 N   0  0  0  0  0  0  0  0  0  0  0  0
   -1.2158    0.6214   -0.6066 N   0  0  0  0  0  0  0  0  0  0  0  0
    0.1069   -1.4238   -0.7358 N   0  0  0  0  0  0  0  0  0  0  0  0
   -0.0270    1.4347   -0.8712 C   0  0  0  0  0  0  0  0  0  0  0  0
    1.3276   -0.6459   -0.9772 C   0  0  0  0  0  0  0  0  0  0  0  0
   -1.1468   -0.7578   -1.0819 C   0  0  0  0  0  0  0  0  0  0  0  0
    2.2807    1.4928   -0.0035 C   0  0  0  0  0  0  0  0  0  0  0  0
   -2.4159    1.1081   -0.0857 C   0  0  0  0  0  0  0  0  0  0  0  0
    0.0833   -2.7713   -0.3689 C   0  0  0  0  0  0  0  0  0  0  0  0
    3.5424    0.7333    0.3230 C   0  0  0  0  0  0  0  0  0  0  0  0
   -2.4684    2.5831    0.2252 C   0  0  0  0  0  0  0  0  0  0  0  0
   -1.0826   -3.2218    0.4755 C   0  0  0  0  0  0  0  0  0  0  0  0
  1 22  1  0
  2 22  1  0
  3 22  1  0
  4 23  1  0
  5 23  1  0
  6 23  1  0
  7 24  1  0
  8 24  1  0
  9 24  1  0
 10 19  2  0
 11 20  2  0
 12 21  2  0
 13 16  1  0
 13 17  1  0
 13 19  1  0
 14 16  1  0
 14 18  1  0
 14 20  1  0
 15 17  1  0
 15 18  1  0
 15 21  1  0
 19 22  1  0
 20 23  1  0
 21 24  1  0
M  END
>  <PUBCHEM_COMPOUND_CID>  (1) 
35505

>  <PUBCHEM_CONFORMER_RMSD>  (1) 
0.8

>  <PUBCHEM_CONFORMER_DIVERSEORDER>  (1) 
2
15
12
18
4
8
16
14
10
5
1
9
13
7
11
17
6
3

>  <PUBCHEM_MMFF94_PARTIAL_CHARGES>  (1) 
24
1 -0.29
10 -0.57
11 -0.57
12 -0.57
13 -0.66
14 -0.66
15 -0.66
16 0.6
17 0.6
18 0.6
19 0.57
2 -0.29
20 0.57
21 0.57
22 0.93
23 0.93
24 0.93
3 -0.29
4 -0.29
5 -0.29
6 -0.29
7 -0.29
8 -0.29
9 -0.29

>  <PUBCHEM_EFFECTIVE_ROTOR_COUNT>  (1) 
7.2

>  <PUBCHEM_PHARMACOPHORE_FEATURES>  (1) 
4
1 10 acceptor
1 11 acceptor
1 12 acceptor
6 13 14 15 16 17 18 rings

>  <PUBCHEM_HEAVY_ATOM_COUNT>  (1) 
24

>  <PUBCHEM_ATOM_DEF_STEREO_COUNT>  (1) 
0

>  <PUBCHEM_ATOM_UDEF_STEREO_COUNT>  (1) 
0

>  <PUBCHEM_BOND_DEF_STEREO_COUNT>  (1) 
0

>  <PUBCHEM_BOND_UDEF_STEREO_COUNT>  (1) 
0

>  <PUBCHEM_ISOTOPIC_ATOM_COUNT>  (1) 
0

>  <PUBCHEM_COMPONENT_COUNT>  (1) 
1

>  <PUBCHEM_CACTVS_TAUTO_COUNT>  (1) 
1

>  <PUBCHEM_CONFORMER_ID>  (1) 
00008AB100000002

>  <PUBCHEM_MMFF94_ENERGY>  (1) 
105.0251

>  <PUBCHEM_FEATURE_SELFOVERLAP>  (1) 
20.297

>  <PUBCHEM_SHAPE_FINGERPRINT>  (1) 
1100329 8 18121500430327606511
12160290 23 18339076102756569052
12553582 1 17402618944461493766
12788726 201 18195233636546131818
13004483 165 17906161107396304346
13134695 92 16968847871824369557
13140716 1 17977666742307175112
138480 1 17402895518463567077
14081887 123 18194389224891038888
14178342 30 18196652891436014777
14787075 74 18131060559171800269
14790565 3 17979081483908993252
14866123 147 18336822018511665362
14955137 171 17405999453043582639
15042514 8 18264768955162444438
15230672 131 18262808346829183022
15420108 30 17625235538738950263
16945 1 18341323405718461133
17980427 23 16330725407971573761
19591789 44 18194407688749793886
20510252 161 18272366529071132224
20600515 1 17903641026861486607
21041028 32 17760928845977366460
21120745 212 17831597722296368660
21524375 3 18342173311127264925
21731228 192 18409726223090025416
23419403 2 16983269353970390654
23557571 272 18124032588452859712
23558518 356 18338233868534187726
23559900 14 17618776960630934753
3091708 16 9269246406454980485
35225 105 18334292076087656400
352729 6 18339363083807506439
474 4 18196368113602826441
58807428 26 18338513019596221376
633830 44 17916862405283741596
7364860 26 17834960771982974677
79837 15 18410856551086824185
81228 2 18193277626755669775
90316 7 17978798139798829362

>  <PUBCHEM_SHAPE_MULTIPOLES>  (1) 
478.19
6.46
6.03
1.46
4.44
5.64
-0.25
-6.33
-1.19
-4.11
-1.16
0.16
0.12
0.22

>  <PUBCHEM_SHAPE_SELFOVERLAP>  (1) 
904.832

>  <PUBCHEM_SHAPE_VOLUME>  (1) 
294.2

>  <PUBCHEM_COORDINATE_TYPE>  (1) 
2
5
10

$$$$
