35514
     RDKit          3D

 11 11  0  0  0  0  0  0  0  0999 V2000
   -0.7130   -2.3359   -0.2186 O   0  0  0  0  0  0  0  0  0  0  0  0
   -0.7055    2.3402   -0.2175 O   0  0  0  0  0  0  0  0  0  0  0  0
    3.2113   -0.0015    0.2829 O   0  0  0  0  0  0  0  0  0  0  0  0
   -0.7896    0.0005   -0.2308 N   0  0  0  0  0  0  0  0  0  0  0  0
    1.2422   -1.1668    0.0301 N   0  0  0  0  0  0  0  0  0  0  0  0
    1.2422    1.1642    0.0296 N   0  0  0  0  0  0  0  0  0  0  0  0
   -2.2355    0.0004   -0.4174 C   0  0  0  0  0  0  0  0  0  0  0  0
   -0.1377   -1.2476   -0.1466 C   0  0  0  0  0  0  0  0  0  0  0  0
   -0.1387    1.2477   -0.1470 C   0  0  0  0  0  0  0  0  0  0  0  0
   -2.9661    0.0004    0.9096 C   0  0  0  0  0  0  0  0  0  0  0  0
    1.9903   -0.0015    0.1257 C   0  0  0  0  0  0  0  0  0  0  0  0
  1  8  2  0
  2  9  2  0
  3 11  2  0
  4  7  1  0
  4  8  1  0
  4  9  1  0
  5  8  1  0
  5 11  1  0
  6  9  1  0
  6 11  1  0
  7 10  1  0
M  END
>  <PUBCHEM_COMPOUND_CID>  (1) 
35514

>  <PUBCHEM_CONFORMER_RMSD>  (1) 
0.4

>  <PUBCHEM_CONFORMER_DIVERSEORDER>  (1) 
1
2

>  <PUBCHEM_MMFF94_PARTIAL_CHARGES>  (1) 
12
1 -0.57
11 0.69
17 0.37
18 0.37
2 -0.57
3 -0.57
4 -0.42
5 -0.49
6 -0.49
7 0.3
8 0.69
9 0.69

>  <PUBCHEM_EFFECTIVE_ROTOR_COUNT>  (1) 
1

>  <PUBCHEM_PHARMACOPHORE_FEATURES>  (1) 
6
1 1 acceptor
1 2 acceptor
1 3 acceptor
1 5 donor
1 6 donor
6 4 5 6 8 9 11 rings

>  <PUBCHEM_HEAVY_ATOM_COUNT>  (1) 
11

>  <PUBCHEM_ATOM_DEF_STEREO_COUNT>  (1) 
0

>  <PUBCHEM_ATOM_UDEF_STEREO_COUNT>  (1) 
0

>  <PUBCHEM_BOND_DEF_STEREO_COUNT>  (1) 
0

>  <PUBCHEM_BOND_UDEF_STEREO_COUNT>  (1) 
0

>  <PUBCHEM_ISOTOPIC_ATOM_COUNT>  (1) 
0

>  <PUBCHEM_COMPONENT_COUNT>  (1) 
1

>  <PUBCHEM_CACTVS_TAUTO_COUNT>  (1) 
5

>  <PUBCHEM_CONFORMER_ID>  (1) 
00008ABA00000001

>  <PUBCHEM_MMFF94_ENERGY>  (1) 
13.7032

>  <PUBCHEM_FEATURE_SELFOVERLAP>  (1) 
30.49

>  <PUBCHEM_SHAPE_FINGERPRINT>  (1) 
10219947 1 18410300207188671233
10857977 72 18334293171467807729
13380535 76 17831285108727179085
15310529 11 16805314500937412492
161256 15 17983029859532905655
16945 1 18410851066603432406
18185500 45 18265327502832312214
193761 8 17690559680513099335
21040471 1 18411699928023836542
23235685 24 18341890796715473874
23552423 10 17973448702408024558
2748010 2 18122620548775822342
29004967 10 18333456430234220161
5084963 1 18059565850198125210
528886 8 18411974750396847131

>  <PUBCHEM_SHAPE_MULTIPOLES>  (1) 
193.82
3.6
1.94
0.69
0.35
0
0.06
0
0.86
-0.26
-0.24
-0.29
0
0

>  <PUBCHEM_SHAPE_SELFOVERLAP>  (1) 
393.692

>  <PUBCHEM_SHAPE_VOLUME>  (1) 
111.3

>  <PUBCHEM_COORDINATE_TYPE>  (1) 
2
5
10

$$$$
