35516
     RDKit          3D

 14 15  0  0  1  0  0  0  0  0999 V2000
    2.8764    2.2827   -0.0947 O   0  0  0  0  0  0  0  0  0  0  0  0
    0.9420    1.1326   -0.5481 N   0  0  0  0  0  0  0  0  0  0  0  0
    0.9184   -1.3126   -0.1800 N   0  0  0  0  0  0  0  0  0  0  0  0
    2.8210    0.0030    0.2118 N   0  0  0  0  0  0  0  0  0  0  0  0
    2.8378   -2.2655    0.7451 N   0  0  0  0  0  0  0  0  0  0  0  0
    0.2628   -0.1356   -0.7672 C   0  0  0  0  0  0  0  0  0  0  0  0
   -1.1810   -0.0408   -0.3201 C   0  0  0  0  0  0  0  0  0  0  0  0
   -2.1823   -0.6599   -1.0665 C   0  0  0  0  0  0  0  0  0  0  0  0
   -1.5059    0.6656    0.8367 C   0  0  0  0  0  0  0  0  0  0  0  0
    2.2607    1.2184   -0.1518 C   0  0  0  0  0  0  0  0  0  0  0  0
    2.1371   -1.2029    0.2387 C   0  0  0  0  0  0  0  0  0  0  0  0
   -3.5123   -0.5723   -0.6549 C   0  0  0  0  0  0  0  0  0  0  0  0
   -2.8358    0.7531    1.2484 C   0  0  0  0  0  0  0  0  0  0  0  0
   -3.8389    0.1342    0.5025 C   0  0  0  0  0  0  0  0  0  0  0  0
  1 10  2  0
  2  6  1  0
  2 10  1  0
  3  6  1  0
  3 11  2  0
  4 10  1  0
  4 11  1  0
  5 11  1  0
  6  7  1  0
  7  8  2  0
  7  9  1  0
  8 12  1  0
  9 13  2  0
 12 14  2  0
 13 14  1  0
M  END
>  <PUBCHEM_COMPOUND_CID>  (1) 
35516

>  <PUBCHEM_CONFORMER_RMSD>  (1) 
0.6

>  <PUBCHEM_CONFORMER_DIVERSEORDER>  (1) 
2
1
3

>  <PUBCHEM_MMFF94_PARTIAL_CHARGES>  (1) 
23
1 -0.57
10 0.69
11 0.56
12 -0.15
13 -0.15
14 -0.15
16 0.37
17 0.15
18 0.15
19 0.37
2 -0.73
20 0.15
21 0.15
22 0.15
23 0.4
24 0.4
3 -0.7
4 -0.49
5 -0.85
6 0.69
7 -0.14
8 -0.15
9 -0.15

>  <PUBCHEM_EFFECTIVE_ROTOR_COUNT>  (1) 
1.6

>  <PUBCHEM_PHARMACOPHORE_FEATURES>  (1) 
6
1 1 acceptor
1 2 donor
1 4 donor
1 5 donor
6 2 3 4 6 10 11 rings
6 7 8 9 12 13 14 rings

>  <PUBCHEM_HEAVY_ATOM_COUNT>  (1) 
14

>  <PUBCHEM_ATOM_DEF_STEREO_COUNT>  (1) 
0

>  <PUBCHEM_ATOM_UDEF_STEREO_COUNT>  (1) 
1

>  <PUBCHEM_BOND_DEF_STEREO_COUNT>  (1) 
0

>  <PUBCHEM_BOND_UDEF_STEREO_COUNT>  (1) 
0

>  <PUBCHEM_ISOTOPIC_ATOM_COUNT>  (1) 
0

>  <PUBCHEM_COMPONENT_COUNT>  (1) 
1

>  <PUBCHEM_CACTVS_TAUTO_COUNT>  (1) 
8

>  <PUBCHEM_CONFORMER_ID>  (1) 
00008ABC00000002

>  <PUBCHEM_MMFF94_ENERGY>  (1) 
36.2694

>  <PUBCHEM_FEATURE_SELFOVERLAP>  (1) 
30.537

>  <PUBCHEM_SHAPE_FINGERPRINT>  (1) 
10980938 120 18411982472700760844
11471102 22 18186802465467278872
12202030 40 17023486182295126595
12251169 10 18342174427665780682
12932764 1 18336272270954649117
13296908 3 17095243605416438355
13538477 17 17917140697641518095
13764800 53 16056616326275255555
14144814 61 18272373061832148199
15279307 12 18269836569905909326
15375462 189 18129945693114698675
15501101 241 18186520982027228004
15669948 3 17489303144146677479
15775835 57 18130232647968791817
16945 1 18333730230162330108
1813 80 18124887763654998758
18186145 218 18411420605105368191
19026448 4 17822008714381823847
19049666 15 17169253867585789725
19422 9 18201720660892714807
201361 129 18341057388540350328
20279233 1 16950278529227776939
204376 136 18044940323089054732
20559304 39 17989208122653708570
20645477 70 18261098652484861431
20715346 28 17313104163627485255
20871998 22 18124313801299948086
21524375 3 18127129903907815412
21730867 7 18186521020444595510
22445834 79 18340488876440587931
2255824 54 18409733954458504070
22854114 111 18411702122757691848
23048698 100 18413109467945440313
23463225 33 18343584014589119861
23557571 272 14548726344383725287
2748010 2 17976801113788199806
3248919 1 17704070664427022935
474 4 18265615579206015912
57096353 35 18058445577036193925
7364860 26 18201442467407947622
7615 1 18130779049681941605
77492 1 18130785668168444623
88987 49 16487247785796794317

>  <PUBCHEM_SHAPE_MULTIPOLES>  (1) 
262.32
6.24
1.74
1.02
1.75
0.03
-0.06
0.02
-0.85
-2.07
-0.18
0.53
-0.05
-1.1

>  <PUBCHEM_SHAPE_SELFOVERLAP>  (1) 
559.22

>  <PUBCHEM_SHAPE_VOLUME>  (1) 
143.4

>  <PUBCHEM_COORDINATE_TYPE>  (1) 
2
5
10

$$$$
