35529
     RDKit          3D

 16 17  0  0  1  0  0  0  0  0999 V2000
   -1.0540   -1.7704   -0.5237 O   0  0  0  0  0  0  0  0  0  0  0  0
    0.9498   -1.9538    0.7224 O   0  0  0  0  0  0  0  0  0  0  0  0
    2.4905    0.3936   -0.1575 O   0  0  0  0  0  0  0  0  0  0  0  0
    1.2141    2.2383    0.2825 O   0  0  0  0  0  0  0  0  0  0  0  0
    0.2294    0.1610   -0.0624 N   0  0  0  0  0  0  0  0  0  0  0  0
    0.2987   -1.2794   -0.3474 C   0  0  0  0  0  0  0  0  0  0  0  0
   -1.1243    0.4764    0.0043 C   0  0  0  0  0  0  0  0  0  0  0  0
   -1.8438   -0.6761   -0.2664 C   0  0  0  0  0  0  0  0  0  0  0  0
   -1.7651    1.6741    0.2657 C   0  0  0  0  0  0  0  0  0  0  0  0
   -3.2249   -0.6889   -0.2850 C   0  0  0  0  0  0  0  0  0  0  0  0
    1.2959    1.0367    0.0433 C   0  0  0  0  0  0  0  0  0  0  0  0
   -3.1636    1.6820    0.2545 C   0  0  0  0  0  0  0  0  0  0  0  0
   -3.8884    0.5095   -0.0183 C   0  0  0  0  0  0  0  0  0  0  0  0
    3.6662    1.2070   -0.0734 C   0  0  0  0  0  0  0  0  0  0  0  0
    1.0360   -3.3510    0.4805 C   0  0  0  0  0  0  0  0  0  0  0  0
    4.8834    0.3409   -0.3191 C   0  0  0  0  0  0  0  0  0  0  0  0
  1  6  1  0
  1  8  1  0
  2  6  1  0
  2 15  1  0
  3 11  1  0
  3 14  1  0
  4 11  2  0
  5  6  1  0
  5  7  1  0
  5 11  1  0
  7  8  2  0
  7  9  1  0
  8 10  1  0
  9 12  2  0
 10 13  2  0
 12 13  1  0
 14 16  1  0
M  END
>  <PUBCHEM_COMPOUND_CID>  (1) 
35529

>  <PUBCHEM_CONFORMER_RMSD>  (1) 
0.6

>  <PUBCHEM_CONFORMER_DIVERSEORDER>  (1) 
2
17
24
10
23
18
6
8
20
16
12
21
19
1
14
11
9
22
15
7
4
13
5
3

>  <PUBCHEM_MMFF94_PARTIAL_CHARGES>  (1) 
19
1 -0.36
10 -0.15
11 0.78
12 -0.15
13 -0.15
14 0.28
15 0.28
18 0.15
19 0.15
2 -0.56
20 0.15
21 0.15
3 -0.43
4 -0.57
5 -0.48
6 0.86
7 0.12
8 0.08
9 -0.15

>  <PUBCHEM_EFFECTIVE_ROTOR_COUNT>  (1) 
4.6

>  <PUBCHEM_PHARMACOPHORE_FEATURES>  (1) 
5
1 1 acceptor
1 2 acceptor
1 4 acceptor
5 1 5 6 7 8 rings
6 7 8 9 10 12 13 rings

>  <PUBCHEM_HEAVY_ATOM_COUNT>  (1) 
16

>  <PUBCHEM_ATOM_DEF_STEREO_COUNT>  (1) 
0

>  <PUBCHEM_ATOM_UDEF_STEREO_COUNT>  (1) 
1

>  <PUBCHEM_BOND_DEF_STEREO_COUNT>  (1) 
0

>  <PUBCHEM_BOND_UDEF_STEREO_COUNT>  (1) 
0

>  <PUBCHEM_ISOTOPIC_ATOM_COUNT>  (1) 
0

>  <PUBCHEM_COMPONENT_COUNT>  (1) 
1

>  <PUBCHEM_CACTVS_TAUTO_COUNT>  (1) 
1

>  <PUBCHEM_CONFORMER_ID>  (1) 
00008AC900000002

>  <PUBCHEM_MMFF94_ENERGY>  (1) 
40.6986

>  <PUBCHEM_FEATURE_SELFOVERLAP>  (1) 
25.517

>  <PUBCHEM_SHAPE_FINGERPRINT>  (1) 
10922049 32 18409736187509026186
10967382 1 18411418375985621325
10980938 120 18337107852420498378
11458722 379 18412268320122828116
11578080 2 17170669974016654199
12346645 44 18410573976582628553
12592029 89 18408889511952695578
12644460 14 18263935332301720921
13140716 1 18196097865992283625
13380535 76 18408041814352546075
14022349 108 18266465295392990331
15279308 132 18340205310104909128
15536298 74 18271807857200569430
15775835 57 18410858750147236389
16945 1 18410844474055479803
19021347 11 18409728439314099683
193761 8 17906170646629568260
19591789 44 18338518645987528706
20510252 161 18125723640966695649
20645476 183 17825405212820863404
21501502 16 18268706109281536889
21524375 3 18341615940183165717
2334 1 17835516403322614541
23366157 5 17897451592652182370
23402539 116 18202277026329059757
23419403 2 17319623060715928306
23463225 33 18335978671395953440
25147074 1 18128809760422617797
2748010 2 18123466077586525789
305870 269 18336546032011859751
3091708 16 9336803669383785770
366044 4 18408604790281291570
43471831 8 18408036303872705570
53812653 166 18342737411978985968
54173680 148 17977386358347512434
6138700 20 18267310829432675550
69090 78 17846497079719878708
7364860 26 18268430131272511271
81228 2 17545308044159501691
81539 233 18187644669783423758
9709674 26 18054794150834341004

>  <PUBCHEM_SHAPE_MULTIPOLES>  (1) 
300.81
6.77
2.72
0.68
4.16
2.05
-0.01
-3
0.56
0.74
-0.52
0
0.11
-0.46

>  <PUBCHEM_SHAPE_SELFOVERLAP>  (1) 
633.941

>  <PUBCHEM_SHAPE_VOLUME>  (1) 
168.6

>  <PUBCHEM_COORDINATE_TYPE>  (1) 
2
5
10

$$$$
