35524
     RDKit          3D

 15 16  0  0  1  0  0  0  0  0999 V2000
   -0.9959   -1.0630   -0.0990 C   0  0  0  0  0  0  0  0  0  0  0  0
   -0.6783    0.4314    0.2225 C   0  0  0  0  0  0  0  0  0  0  0  0
   -1.8113    1.3780   -0.2568 C   0  0  0  0  0  0  0  0  0  0  0  0
    0.7215    0.8301   -0.2833 C   0  0  0  0  0  0  0  0  0  0  0  0
    0.1136   -1.9517    0.5175 C   0  0  0  0  0  0  0  0  0  0  0  0
    1.8161   -0.0823    0.2954 C   0  0  0  0  0  0  0  0  0  0  0  0
   -2.3508   -1.4369    0.5516 C   0  0  0  0  0  0  0  0  0  0  0  0
    1.5196   -1.5662    0.0562 C   0  0  0  0  0  0  0  0  0  0  0  0
   -3.1520    0.9577    0.3742 C   0  0  0  0  0  0  0  0  0  0  0  0
   -3.4915   -0.5097    0.1370 C   0  0  0  0  0  0  0  0  0  0  0  0
   -1.0745   -1.3472   -1.6199 C   0  0  0  0  0  0  0  0  0  0  0  0
    3.1841    0.2909   -0.2749 C   0  0  0  0  0  0  0  0  0  0  0  0
   -1.5447    2.8488    0.0824 C   0  0  0  0  0  0  0  0  0  0  0  0
    3.4636    1.7772   -0.0674 C   0  0  0  0  0  0  0  0  0  0  0  0
    4.2806   -0.5572    0.3646 C   0  0  0  0  0  0  0  0  0  0  0  0
  1  2  1  0
  1  5  1  0
  1  7  1  0
  1 11  1  0
  2  3  1  0
  2  4  1  0
  3  9  1  0
  3 13  1  0
  4  6  1  0
  5  8  1  0
  6  8  1  0
  6 12  1  0
  7 10  1  0
  9 10  1  0
 12 14  1  0
 12 15  1  0
M  END
>  <PUBCHEM_COMPOUND_CID>  (1) 
35524

>  <PUBCHEM_CONFORMER_RMSD>  (1) 
0.6

>  <PUBCHEM_CONFORMER_DIVERSEORDER>  (1) 
1
29
32
35
18
6
41
2
13
17
24
12
16
22
39
25
10
19
15
28
3
21
23
30
40
11
31
34
7
4
26
8
33
14
36
42
20
38
27
9
37
5

>  <PUBCHEM_MMFF94_PARTIAL_CHARGES>  (1) 
0

>  <PUBCHEM_EFFECTIVE_ROTOR_COUNT>  (1) 
2.6

>  <PUBCHEM_PHARMACOPHORE_FEATURES>  (1) 
3
3 12 14 15 hydrophobe
6 1 2 3 7 9 10 rings
6 1 2 4 5 6 8 rings

>  <PUBCHEM_HEAVY_ATOM_COUNT>  (1) 
15

>  <PUBCHEM_ATOM_DEF_STEREO_COUNT>  (1) 
0

>  <PUBCHEM_ATOM_UDEF_STEREO_COUNT>  (1) 
4

>  <PUBCHEM_BOND_DEF_STEREO_COUNT>  (1) 
0

>  <PUBCHEM_BOND_UDEF_STEREO_COUNT>  (1) 
0

>  <PUBCHEM_ISOTOPIC_ATOM_COUNT>  (1) 
0

>  <PUBCHEM_COMPONENT_COUNT>  (1) 
1

>  <PUBCHEM_CACTVS_TAUTO_COUNT>  (1) 
1

>  <PUBCHEM_CONFORMER_ID>  (1) 
00008AC400000001

>  <PUBCHEM_MMFF94_ENERGY>  (1) 
38.0394

>  <PUBCHEM_FEATURE_SELFOVERLAP>  (1) 
15.238

>  <PUBCHEM_SHAPE_FINGERPRINT>  (1) 
10608611 8 18411136909620184664
10922523 26 18201442441685779078
10967382 1 18265336285945655864
11132069 177 18341610434077309776
12251169 10 18333726888936191288
12423570 1 17700118908168431023
12932764 1 17846214527080896794
13024252 1 17895190030456623295
13140716 1 18337676445918794337
13214271 11 18337954605212588991
13221675 6 18411136935263309922
13380535 76 18410011000875604554
13581323 91 18410292510554581172
13675066 3 18272365365673078450
14325111 11 18409168822497964648
14614273 12 18187357684553628613
14648413 74 17836652928825819983
14787075 74 17536322779350396195
15196674 1 18409450314369694913
15219456 202 18129107735835810166
15309172 13 18272097080155662403
15375462 478 18335704974436314887
15442244 35 18120089490362923314
15536298 74 18270118998761056686
15775835 57 18343587317471763601
16945 1 18337114453985763747
17802600 8 18411975862814651224
17804303 29 18410580569869065908
18186145 218 18058458612240753256
193761 8 18049161068617031291
20510252 161 18412830208955862792
20511035 2 17694759857981356811
20525323 117 18410851079277506647
20645477 56 17989200469602209888
20871998 184 18272093820233143959
21267235 1 18408895039517836178
21501502 16 18266456499595276115
21524375 3 18342175510002560704
23236772 104 18333448755159284883
2334 1 17978229683739447961
23402539 116 18340758312513081422
23463225 33 18333730195971448738
23559900 14 18413670210744763352
2748010 2 18122067494316300661
43471831 8 18261391109387122818
5104073 3 18409168830929729080
528886 8 18408881871137401355
53655031 270 18335421257502558307
58051976 378 18340765927521901524
69090 78 18131627885232321870
7364860 26 18196092131947595246
9709674 26 18411987944579130598

>  <PUBCHEM_SHAPE_MULTIPOLES>  (1) 
308.69
6.12
2.41
0.87
4.21
0.98
-0.26
0.99
0.66
-0.71
0.03
-0.21
-0.28
-0.22

>  <PUBCHEM_SHAPE_SELFOVERLAP>  (1) 
618.702

>  <PUBCHEM_SHAPE_VOLUME>  (1) 
182.3

>  <PUBCHEM_COORDINATE_TYPE>  (1) 
2
5
10

$$$$
