3552
     RDKit          3D

 15 15  0  0  0  0  0  0  0  0999 V2000
    2.4351   -0.7348   -2.1221 Cl  0  0  0  0  0  0  0  0  0  0  0  0
    4.5623   -1.1069   -0.2402 Cl  0  0  0  0  0  0  0  0  0  0  0  0
    2.2503    0.5010    0.4984 S   0  0  0  0  0  0  0  0  0  0  0  0
    2.6066    1.7697   -0.1254 O   0  0  0  0  0  0  0  0  0  0  0  0
    2.6063    0.2668    1.8932 O   0  0  0  0  0  0  0  0  0  0  0  0
   -4.0996   -1.3662    0.3112 O   0  0  0  0  0  0  0  0  0  0  0  0
   -4.4473    0.6723   -0.6096 O   0  0  0  0  0  0  0  0  0  0  0  0
    2.8783   -0.7927   -0.4552 N   0  0  0  0  0  0  0  0  0  0  0  0
    0.5250    0.3095    0.3123 C   0  0  0  0  0  0  0  0  0  0  0  0
   -0.2350    1.3393   -0.2426 C   0  0  0  0  0  0  0  0  0  0  0  0
   -0.0938   -0.8725    0.7195 C   0  0  0  0  0  0  0  0  0  0  0  0
   -2.2324    0.0053    0.0169 C   0  0  0  0  0  0  0  0  0  0  0  0
   -1.6136    1.1872   -0.3903 C   0  0  0  0  0  0  0  0  0  0  0  0
   -1.4725   -1.0245    0.5718 C   0  0  0  0  0  0  0  0  0  0  0  0
   -3.6696   -0.1536   -0.1379 C   0  0  0  0  0  0  0  0  0  0  0  0
  1  8  1  0
  2  8  1  0
  3  4  2  0
  3  5  2  0
  3  8  1  0
  3  9  1  0
  6 15  1  0
  7 15  2  0
  9 10  2  0
  9 11  1  0
 10 13  1  0
 11 14  2  0
 12 13  2  0
 12 14  1  0
 12 15  1  0
M  END
>  <PUBCHEM_COMPOUND_CID>  (1) 
3552

>  <PUBCHEM_CONFORMER_RMSD>  (1) 
0.6

>  <PUBCHEM_CONFORMER_DIVERSEORDER>  (1) 
1
4
5
3
2
6

>  <PUBCHEM_MMFF94_PARTIAL_CHARGES>  (1) 
20
1 0.02
10 -0.15
11 -0.15
12 0.09
13 -0.15
14 -0.15
15 0.63
16 0.15
17 0.15
18 0.15
19 0.15
2 0.02
20 0.5
3 1.45
4 -0.65
5 -0.65
6 -0.65
7 -0.57
8 -0.18
9 -0.01

>  <PUBCHEM_EFFECTIVE_ROTOR_COUNT>  (1) 
3

>  <PUBCHEM_PHARMACOPHORE_FEATURES>  (1) 
6
1 4 acceptor
1 5 acceptor
1 6 acceptor
1 7 acceptor
3 6 7 15 anion
6 9 10 11 12 13 14 rings

>  <PUBCHEM_HEAVY_ATOM_COUNT>  (1) 
15

>  <PUBCHEM_ATOM_DEF_STEREO_COUNT>  (1) 
0

>  <PUBCHEM_ATOM_UDEF_STEREO_COUNT>  (1) 
0

>  <PUBCHEM_BOND_DEF_STEREO_COUNT>  (1) 
0

>  <PUBCHEM_BOND_UDEF_STEREO_COUNT>  (1) 
0

>  <PUBCHEM_ISOTOPIC_ATOM_COUNT>  (1) 
0

>  <PUBCHEM_COMPONENT_COUNT>  (1) 
1

>  <PUBCHEM_CACTVS_TAUTO_COUNT>  (1) 
1

>  <PUBCHEM_CONFORMER_ID>  (1) 
00000DE000000001

>  <PUBCHEM_MMFF94_ENERGY>  (1) 
25.5532

>  <PUBCHEM_FEATURE_SELFOVERLAP>  (1) 
30.526

>  <PUBCHEM_SHAPE_FINGERPRINT>  (1) 
10465860 71 18187944875117670517
11132069 177 18336816563765367281
11543360 7 14634870902961343835
12032990 46 18335704974700065379
12932764 1 17240755190281222393
13296908 3 18412265064511263319
13538477 17 16877947173847912138
13705890 14 18060136574121499531
13760787 19 16225765212161213419
14251717 144 17203611462733649278
14325111 11 18187921820155406705
14911166 2 18187645786680525567
14993402 34 16443349762525121422
15219456 202 18342737446544270656
16945 1 18259980449058783593
18186145 218 17895185619451370373
19026448 4 17847056697158453745
19026448 5 16128373800772417417
200 152 17418089897307470039
20201158 50 18272939288940880358
20233049 118 17822009783449086988
20374829 77 18409729530293984046
20645476 183 16515410685115471779
20645477 70 17704068478030187127
21119208 17 16805329872725747670
231179 274 11891339759613237214
23402539 116 18334290946627431598
23557571 272 18044102469199909762
23559900 14 18408040719589267332
2748010 2 17970913499345910009
3286 77 17561360673522764360
474 4 15193851645186783986
4990 188 18411421695995477727
633830 44 18334007307261282887
7364860 26 18339643464206418344
8030462 33 17022902333041489576

>  <PUBCHEM_SHAPE_MULTIPOLES>  (1) 
287.82
7.81
1.44
1.27
1.97
0.21
0.21
-2.17
0.87
-0.33
0.1
-1.05
-0.18
0.86

>  <PUBCHEM_SHAPE_SELFOVERLAP>  (1) 
567.621

>  <PUBCHEM_SHAPE_VOLUME>  (1) 
174.5

>  <PUBCHEM_COORDINATE_TYPE>  (1) 
2
5
10

$$$$
