35549
     RDKit          3D

 17 17  0  0  0  0  0  0  0  0999 V2000
    0.6433   -0.3945   -1.9782 S   0  0  0  0  0  0  0  0  0  0  0  0
    3.8116   -1.3673   -0.8032 S   0  0  0  0  0  0  0  0  0  0  0  0
    2.0454   -0.6170   -0.3840 P   0  0  0  0  0  0  0  0  0  0  0  0
    2.1557    0.8299    0.3705 O   0  0  0  0  0  0  0  0  0  0  0  0
    1.2947   -1.4431    0.8113 O   0  0  0  0  0  0  0  0  0  0  0  0
   -0.6604    1.1913   -0.2727 N   0  0  0  0  0  0  0  0  0  0  0  0
   -1.8504   -0.7268   -1.0867 N   0  0  0  0  0  0  0  0  0  0  0  0
   -2.9113    0.7802    0.4500 N   0  0  0  0  0  0  0  0  0  0  0  0
    2.7598    1.9344   -0.2827 C   0  0  0  0  0  0  0  0  0  0  0  0
    0.9620   -2.8107    0.6382 C   0  0  0  0  0  0  0  0  0  0  0  0
   -0.7756    0.0734   -1.0070 C   0  0  0  0  0  0  0  0  0  0  0  0
    2.7247    3.1331    0.6412 C   0  0  0  0  0  0  0  0  0  0  0  0
    0.2816   -3.3153    1.8928 C   0  0  0  0  0  0  0  0  0  0  0  0
   -1.7672    1.4827    0.4296 C   0  0  0  0  0  0  0  0  0  0  0  0
   -2.8801   -0.3113   -0.3315 C   0  0  0  0  0  0  0  0  0  0  0  0
   -1.7205    2.7097    1.2753 C   0  0  0  0  0  0  0  0  0  0  0  0
   -4.1133   -1.1487   -0.3631 C   0  0  0  0  0  0  0  0  0  0  0  0
  1  3  1  0
  1 11  1  0
  2  3  2  0
  3  4  1  0
  3  5  1  0
  4  9  1  0
  5 10  1  0
  6 11  2  0
  6 14  1  0
  7 11  1  0
  7 15  2  0
  8 14  2  0
  8 15  1  0
  9 12  1  0
 10 13  1  0
 14 16  1  0
 15 17  1  0
M  END
>  <PUBCHEM_COMPOUND_CID>  (1) 
35549

>  <PUBCHEM_CONFORMER_RMSD>  (1) 
0.8

>  <PUBCHEM_CONFORMER_DIVERSEORDER>  (1) 
1
9
10
15
5
11
6
4
8
17
16
3
13
12
2
7
14

>  <PUBCHEM_MMFF94_PARTIAL_CHARGES>  (1) 
15
1 -0.35
10 0.28
11 0.72
14 0.48
15 0.48
16 0.14
17 0.14
2 -0.68
3 1.47
4 -0.55
5 -0.55
6 -0.62
7 -0.62
8 -0.62
9 0.28

>  <PUBCHEM_EFFECTIVE_ROTOR_COUNT>  (1) 
6

>  <PUBCHEM_PHARMACOPHORE_FEATURES>  (1) 
4
3 6 7 11 cation
3 6 8 14 cation
3 7 8 15 cation
6 6 7 8 11 14 15 rings

>  <PUBCHEM_HEAVY_ATOM_COUNT>  (1) 
17

>  <PUBCHEM_ATOM_DEF_STEREO_COUNT>  (1) 
0

>  <PUBCHEM_ATOM_UDEF_STEREO_COUNT>  (1) 
0

>  <PUBCHEM_BOND_DEF_STEREO_COUNT>  (1) 
0

>  <PUBCHEM_BOND_UDEF_STEREO_COUNT>  (1) 
0

>  <PUBCHEM_ISOTOPIC_ATOM_COUNT>  (1) 
0

>  <PUBCHEM_COMPONENT_COUNT>  (1) 
1

>  <PUBCHEM_CACTVS_TAUTO_COUNT>  (1) 
1

>  <PUBCHEM_CONFORMER_ID>  (1) 
00008ADD00000001

>  <PUBCHEM_MMFF94_ENERGY>  (1) 
16.3429

>  <PUBCHEM_FEATURE_SELFOVERLAP>  (1) 
23.07

>  <PUBCHEM_SHAPE_FINGERPRINT>  (1) 
12507560 14 17328575129875900013
13583140 156 18044959878370708969
14178342 30 18195229028241110216
14787075 74 17978502362860571991
15209289 33 18335710386364503170
15375462 189 17974017141387627066
15852999 172 17386004009289482579
16945 1 18264194829640705143
22445834 79 18119252761845244107
23419403 2 16244313208506723686
23558518 356 18341626901098571273
23559900 14 17773038545044418565
3286 77 18334855000725103518
4340502 62 18117272773727615919
7097593 13 18049725113903060371
7832392 63 18055075350463750024
81228 2 17463139281379865466
9981440 41 17697016404388129840

>  <PUBCHEM_SHAPE_MULTIPOLES>  (1) 
334.72
5.8
3.69
1.51
1.39
0.32
0.03
0.28
0.76
-1.86
-2.55
-0.12
-0.73
-0.37

>  <PUBCHEM_SHAPE_SELFOVERLAP>  (1) 
617.989

>  <PUBCHEM_SHAPE_VOLUME>  (1) 
214.3

>  <PUBCHEM_COORDINATE_TYPE>  (1) 
2
5
10

$$$$
