35546
     RDKit          3D

 27 27  0  0  0  0  0  0  0  0999 V2000
    2.9646   -1.8451    0.2413 S   0  0  0  0  0  0  0  0  0  0  0  0
   -0.5206    1.9844   -1.0419 S   0  0  0  0  0  0  0  0  0  0  0  0
    3.6910   -0.1006    2.5284 S   0  0  0  0  0  0  0  0  0  0  0  0
   -0.8616    3.1985    1.6402 S   0  0  0  0  0  0  0  0  0  0  0  0
   -1.9624   -2.7203   -0.0538 N   0  0  0  0  0  0  0  0  0  0  0  0
    4.3000    0.5100   -0.0905 N   0  0  0  0  0  0  0  0  0  0  0  0
   -2.9741    2.3188    0.1019 N   0  0  0  0  0  0  0  0  0  0  0  0
   -1.2353   -0.5376   -0.5063 N   0  0  0  0  0  0  0  0  0  0  0  0
    0.3337   -2.2591    0.0707 N   0  0  0  0  0  0  0  0  0  0  0  0
    1.1080   -0.0346   -0.3877 N   0  0  0  0  0  0  0  0  0  0  0  0
   -3.3288   -2.3040   -0.2953 C   0  0  0  0  0  0  0  0  0  0  0  0
   -1.6939   -4.1011    0.2929 C   0  0  0  0  0  0  0  0  0  0  0  0
   -0.9031   -1.7941   -0.1685 C   0  0  0  0  0  0  0  0  0  0  0  0
    4.3439    0.2412   -1.5305 C   0  0  0  0  0  0  0  0  0  0  0  0
    4.9623    1.7578    0.2959 C   0  0  0  0  0  0  0  0  0  0  0  0
   -3.5777    1.7509   -1.1068 C   0  0  0  0  0  0  0  0  0  0  0  0
   -3.9523    2.7258    1.1130 C   0  0  0  0  0  0  0  0  0  0  0  0
   -3.6725   -2.4658   -1.7635 C   0  0  0  0  0  0  0  0  0  0  0  0
   -1.7065   -4.2732    1.7997 C   0  0  0  0  0  0  0  0  0  0  0  0
    3.7176   -0.3551    0.8568 C   0  0  0  0  0  0  0  0  0  0  0  0
   -1.5888    2.5036    0.2808 C   0  0  0  0  0  0  0  0  0  0  0  0
    5.6193   -0.4989   -1.8851 C   0  0  0  0  0  0  0  0  0  0  0  0
    3.9667    2.9019    0.2867 C   0  0  0  0  0  0  0  0  0  0  0  0
   -3.9145    2.8550   -2.0906 C   0  0  0  0  0  0  0  0  0  0  0  0
   -4.2248    1.5790    2.0674 C   0  0  0  0  0  0  0  0  0  0  0  0
    1.2885   -1.3236   -0.0577 C   0  0  0  0  0  0  0  0  0  0  0  0
   -0.1789    0.2863   -0.5974 C   0  0  0  0  0  0  0  0  0  0  0  0
  1 20  1  0
  1 26  1  0
  2 21  1  0
  2 27  1  0
  3 20  2  0
  4 21  2  0
  5 11  1  0
  5 12  1  0
  5 13  1  0
  6 14  1  0
  6 15  1  0
  6 20  1  0
  7 16  1  0
  7 17  1  0
  7 21  1  0
  8 13  2  0
  8 27  1  0
  9 13  1  0
  9 26  2  0
 10 26  1  0
 10 27  2  0
 11 18  1  0
 12 19  1  0
 14 22  1  0
 15 23  1  0
 16 24  1  0
 17 25  1  0
M  END
>  <PUBCHEM_COMPOUND_CID>  (1) 
35546

>  <PUBCHEM_CONFORMER_RMSD>  (1) 
1.8

>  <PUBCHEM_CONFORMER_DIVERSEORDER>  (1) 
2
3
14
4
5
13
10
7
6
12
11
8
9
1

>  <PUBCHEM_MMFF94_PARTIAL_CHARGES>  (1) 
21
1 -0.24
10 -0.62
11 0.37
12 0.37
13 0.72
14 0.3
15 0.3
16 0.3
17 0.3
2 -0.24
20 0.58
21 0.58
26 0.72
27 0.72
3 -0.38
4 -0.38
5 -0.84
6 -0.66
7 -0.66
8 -0.62
9 -0.62

>  <PUBCHEM_EFFECTIVE_ROTOR_COUNT>  (1) 
13

>  <PUBCHEM_PHARMACOPHORE_FEATURES>  (1) 
4
1 3 acceptor
1 4 acceptor
4 5 8 9 13 cation
6 8 9 10 13 26 27 rings

>  <PUBCHEM_HEAVY_ATOM_COUNT>  (1) 
27

>  <PUBCHEM_ATOM_DEF_STEREO_COUNT>  (1) 
0

>  <PUBCHEM_ATOM_UDEF_STEREO_COUNT>  (1) 
0

>  <PUBCHEM_BOND_DEF_STEREO_COUNT>  (1) 
0

>  <PUBCHEM_BOND_UDEF_STEREO_COUNT>  (1) 
0

>  <PUBCHEM_ISOTOPIC_ATOM_COUNT>  (1) 
0

>  <PUBCHEM_COMPONENT_COUNT>  (1) 
1

>  <PUBCHEM_CACTVS_TAUTO_COUNT>  (1) 
1

>  <PUBCHEM_CONFORMER_ID>  (1) 
00008ADA00000002

>  <PUBCHEM_MMFF94_ENERGY>  (1) 
63.4918

>  <PUBCHEM_FEATURE_SELFOVERLAP>  (1) 
20.297

>  <PUBCHEM_SHAPE_FINGERPRINT>  (1) 
11115154 58 17771325742737906751
11578080 2 16628593308466946501
11582403 64 16157890018505679125
12160290 23 18339344336386392902
12788726 201 18263069058757585019
13140716 1 18264773147430664899
13583140 156 16661201425822260732
13911987 19 18262238790213883829
140371 6 18190466154033318615
14251757 5 18335143149833299719
14787075 74 18130216069848930669
14790565 3 18197216941191389417
15475509 84 17829073218467488643
23557571 272 18341889753634500524
23559900 14 18200872873419746390
392239 28 18127698128123054017
469060 322 17749112235457657757
59755656 520 18267600021689715388
81228 2 18409442592103321399

>  <PUBCHEM_SHAPE_MULTIPOLES>  (1) 
541.16
10.32
5.39
2.03
9.16
3.11
-0.41
-4.67
1.7
-6.23
-1.4
-0.16
-0.46
-0.03

>  <PUBCHEM_SHAPE_SELFOVERLAP>  (1) 
1013.996

>  <PUBCHEM_SHAPE_VOLUME>  (1) 
340

>  <PUBCHEM_COORDINATE_TYPE>  (1) 
2
5
10

$$$$
