35547
     RDKit          3D

 30 30  0  0  0  0  0  0  0  0999 V2000
   -0.2788    3.0162   -0.2532 S   0  0  0  0  0  0  0  0  0  0  0  0
    2.7504   -1.2774    0.6315 S   0  0  0  0  0  0  0  0  0  0  0  0
   -2.5595   -1.7564    0.4408 S   0  0  0  0  0  0  0  0  0  0  0  0
    0.9563    4.0914    2.2206 S   0  0  0  0  0  0  0  0  0  0  0  0
    2.0816   -3.4912    2.4900 S   0  0  0  0  0  0  0  0  0  0  0  0
   -3.6818   -1.3549   -2.2727 S   0  0  0  0  0  0  0  0  0  0  0  0
    2.3387    3.7751   -0.1441 N   0  0  0  0  0  0  0  0  0  0  0  0
    2.2631   -3.8148   -0.2422 N   0  0  0  0  0  0  0  0  0  0  0  0
   -4.4897    0.1006   -0.0746 N   0  0  0  0  0  0  0  0  0  0  0  0
    1.1103    0.7834    0.2028 N   0  0  0  0  0  0  0  0  0  0  0  0
   -1.2781    0.5697    0.1155 N   0  0  0  0  0  0  0  0  0  0  0  0
    0.0857   -1.3640    0.5141 N   0  0  0  0  0  0  0  0  0  0  0  0
    2.4805    3.3601   -1.5424 C   0  0  0  0  0  0  0  0  0  0  0  0
    3.5785    4.2823    0.4481 C   0  0  0  0  0  0  0  0  0  0  0  0
    2.4583   -3.3415   -1.6154 C   0  0  0  0  0  0  0  0  0  0  0  0
    1.9244   -5.2369   -0.1523 C   0  0  0  0  0  0  0  0  0  0  0  0
   -4.4889    0.4473    1.3494 C   0  0  0  0  0  0  0  0  0  0  0  0
   -5.4594    0.8617   -0.8653 C   0  0  0  0  0  0  0  0  0  0  0  0
    2.1203    4.4826   -2.4936 C   0  0  0  0  0  0  0  0  0  0  0  0
    4.3830    3.1701    1.0887 C   0  0  0  0  0  0  0  0  0  0  0  0
    3.9161   -3.4045   -2.0221 C   0  0  0  0  0  0  0  0  0  0  0  0
    0.4266   -5.4551   -0.2074 C   0  0  0  0  0  0  0  0  0  0  0  0
   -5.5221   -0.3523    2.1158 C   0  0  0  0  0  0  0  0  0  0  0  0
   -4.8514    2.1375   -1.4106 C   0  0  0  0  0  0  0  0  0  0  0  0
    1.1434    3.6678    0.5943 C   0  0  0  0  0  0  0  0  0  0  0  0
    2.3476   -2.9900    0.8969 C   0  0  0  0  0  0  0  0  0  0  0  0
   -3.6731   -0.8959   -0.6452 C   0  0  0  0  0  0  0  0  0  0  0  0
   -0.1331    1.2686    0.0562 C   0  0  0  0  0  0  0  0  0  0  0  0
    1.1424   -0.5398    0.4291 C   0  0  0  0  0  0  0  0  0  0  0  0
   -1.0913   -0.7397    0.3474 C   0  0  0  0  0  0  0  0  0  0  0  0
  1 25  1  0
  1 28  1  0
  2 26  1  0
  2 29  1  0
  3 27  1  0
  3 30  1  0
  4 25  2  0
  5 26  2  0
  6 27  2  0
  7 13  1  0
  7 14  1  0
  7 25  1  0
  8 15  1  0
  8 16  1  0
  8 26  1  0
  9 17  1  0
  9 18  1  0
  9 27  1  0
 10 28  2  0
 10 29  1  0
 11 28  1  0
 11 30  2  0
 12 29  2  0
 12 30  1  0
 13 19  1  0
 14 20  1  0
 15 21  1  0
 16 22  1  0
 17 23  1  0
 18 24  1  0
M  END
>  <PUBCHEM_COMPOUND_CID>  (1) 
35547

>  <PUBCHEM_CONFORMER_RMSD>  (1) 
2

>  <PUBCHEM_CONFORMER_DIVERSEORDER>  (1) 
2
3
6
7
1
4
5

>  <PUBCHEM_MMFF94_PARTIAL_CHARGES>  (1) 
24
1 -0.24
10 -0.62
11 -0.62
12 -0.62
13 0.3
14 0.3
15 0.3
16 0.3
17 0.3
18 0.3
2 -0.24
25 0.58
26 0.58
27 0.58
28 0.72
29 0.72
3 -0.24
30 0.72
4 -0.38
5 -0.38
6 -0.38
7 -0.66
8 -0.66
9 -0.66

>  <PUBCHEM_EFFECTIVE_ROTOR_COUNT>  (1) 
15

>  <PUBCHEM_PHARMACOPHORE_FEATURES>  (1) 
7
1 4 acceptor
1 5 acceptor
1 6 acceptor
3 10 11 28 cation
3 10 12 29 cation
3 11 12 30 cation
6 10 11 12 28 29 30 rings

>  <PUBCHEM_HEAVY_ATOM_COUNT>  (1) 
30

>  <PUBCHEM_ATOM_DEF_STEREO_COUNT>  (1) 
0

>  <PUBCHEM_ATOM_UDEF_STEREO_COUNT>  (1) 
0

>  <PUBCHEM_BOND_DEF_STEREO_COUNT>  (1) 
0

>  <PUBCHEM_BOND_UDEF_STEREO_COUNT>  (1) 
0

>  <PUBCHEM_ISOTOPIC_ATOM_COUNT>  (1) 
0

>  <PUBCHEM_COMPONENT_COUNT>  (1) 
1

>  <PUBCHEM_CACTVS_TAUTO_COUNT>  (1) 
1

>  <PUBCHEM_CONFORMER_ID>  (1) 
00008ADB00000002

>  <PUBCHEM_MMFF94_ENERGY>  (1) 
65.5659

>  <PUBCHEM_FEATURE_SELFOVERLAP>  (1) 
38.293

>  <PUBCHEM_SHAPE_FINGERPRINT>  (1) 
12160290 23 17402317179684522473
12553582 1 18267305322567449907
12788726 201 17902798452989003707
13690498 29 17551242765962239990
13692114 37 17694781122517693179
13757389 114 17468772126372180628
14363568 33 18338535053269027755
14790565 3 18193267722772763928
15081414 286 18339648836587786371
15664445 248 18340198592776447874
15775530 1 17970653963052092283
1813 80 18268707204308709099
38695281 34 18266731575028556656
79837 15 17762335121006420587

>  <PUBCHEM_SHAPE_MULTIPOLES>  (1) 
610.6
9.36
8.97
2.24
14.04
3.34
-0.17
-3.36
-0.54
-13.52
-1.02
-0.06
-0.28
0.55

>  <PUBCHEM_SHAPE_SELFOVERLAP>  (1) 
1127.065

>  <PUBCHEM_SHAPE_VOLUME>  (1) 
386.7

>  <PUBCHEM_COORDINATE_TYPE>  (1) 
2
5
10

$$$$
