35545
     RDKit          3D

 21 21  0  0  0  0  0  0  0  0999 V2000
   -2.6476    2.0049   -0.3074 S   0  0  0  0  0  0  0  0  0  0  0  0
    2.6463    2.0024    0.2969 S   0  0  0  0  0  0  0  0  0  0  0  0
   -4.1107    1.0670    2.0935 S   0  0  0  0  0  0  0  0  0  0  0  0
    4.1177    1.0497   -2.0966 S   0  0  0  0  0  0  0  0  0  0  0  0
   -0.0041   -2.2424    0.0040 N   0  0  0  0  0  0  0  0  0  0  0  0
   -4.4239   -0.0629   -0.4021 N   0  0  0  0  0  0  0  0  0  0  0  0
    4.4265   -0.0610    0.4081 N   0  0  0  0  0  0  0  0  0  0  0  0
    1.1899   -0.2281    0.1356 N   0  0  0  0  0  0  0  0  0  0  0  0
   -1.1941   -0.2271   -0.1365 N   0  0  0  0  0  0  0  0  0  0  0  0
   -0.0006    1.8504   -0.0057 N   0  0  0  0  0  0  0  0  0  0  0  0
   -0.0025   -0.8306    0.0011 C   0  0  0  0  0  0  0  0  0  0  0  0
   -1.2466   -2.9738   -0.1365 C   0  0  0  0  0  0  0  0  0  0  0  0
    1.2384   -2.9760    0.1335 C   0  0  0  0  0  0  0  0  0  0  0  0
   -1.1097    1.1097   -0.1305 C   0  0  0  0  0  0  0  0  0  0  0  0
    1.1137    1.1124    0.1232 C   0  0  0  0  0  0  0  0  0  0  0  0
   -3.8119    0.8877    0.4388 C   0  0  0  0  0  0  0  0  0  0  0  0
    3.8163    0.8834   -0.4410 C   0  0  0  0  0  0  0  0  0  0  0  0
   -5.4134   -1.0216    0.0948 C   0  0  0  0  0  0  0  0  0  0  0  0
   -4.1750   -0.1665   -1.8426 C   0  0  0  0  0  0  0  0  0  0  0  0
    5.4160   -1.0242   -0.0798 C   0  0  0  0  0  0  0  0  0  0  0  0
    4.1753   -0.1533    1.8491 C   0  0  0  0  0  0  0  0  0  0  0  0
  1 14  1  0
  1 16  1  0
  2 15  1  0
  2 17  1  0
  3 16  2  0
  4 17  2  0
  5 11  1  0
  5 12  1  0
  5 13  1  0
  6 16  1  0
  6 18  1  0
  6 19  1  0
  7 17  1  0
  7 20  1  0
  7 21  1  0
  8 11  2  0
  8 15  1  0
  9 11  1  0
  9 14  2  0
 10 14  1  0
 10 15  2  0
M  END
>  <PUBCHEM_COMPOUND_CID>  (1) 
35545

>  <PUBCHEM_CONFORMER_RMSD>  (1) 
0.8

>  <PUBCHEM_CONFORMER_DIVERSEORDER>  (1) 
10
291
293
245
272
31
187
74
228
274
198
201
227
122
213
29
238
69
218
248
129
281
233
76
125
255
219
47
78
287
87
273
70
288
278
96
12
9
153
138
297
244
237
120
108
259
13
147
298
296
239
234
252
41
247
116
15
231
269
90
81
265
220
205
2
206
169
106
203
8
136
71
56
5
103
270
194
52
290
61
221
179
192
197
249
182
105
199
144
184
223
50
1
132
202
271
267
276
193
283
212
155
91
134
190
280
236
131
142
159
217
168
286
101
240
172
268
191
215
254
284
295
83
73
243
102
266
141
130
33
109
226
163
211
208
26
176
44
282
149
167
294
285
119
77
200
222
279
133
51
143
260
210
107
146
261
110
113
95
263
253
79
207
111
126
18
216
160
114
251
97
68
195
289
98
166
99
250
175
262
177
57
21
152
196
45
164
185
232
94
16
140
135
241
183
292
115
22
128
65
121
20
72
88
55
104
188
204
46
225
156
170
93
39
75
161
180
60
257
48
154
38
85
235
246
63
67
66
139
162
117
82
40
186
277
148
157
84
112
209
137
80
214
189
32
123
92
224
299
53
127
174
256
64
35
37
25
275
124
17
178
229
145
11
258
28
171
173
150
54
264
58
242
230
59
158
30
118
181
100
165
14
34
89
3
49
6
42
19
36
4
86
7
62
23
151
27
24
43

>  <PUBCHEM_MMFF94_PARTIAL_CHARGES>  (1) 
21
1 -0.24
10 -0.62
11 0.72
12 0.37
13 0.37
14 0.72
15 0.72
16 0.58
17 0.58
18 0.3
19 0.3
2 -0.24
20 0.3
21 0.3
3 -0.38
4 -0.38
5 -0.84
6 -0.66
7 -0.66
8 -0.62
9 -0.62

>  <PUBCHEM_EFFECTIVE_ROTOR_COUNT>  (1) 
7

>  <PUBCHEM_PHARMACOPHORE_FEATURES>  (1) 
4
1 3 acceptor
1 4 acceptor
4 5 8 9 11 cation
6 8 9 10 11 14 15 rings

>  <PUBCHEM_HEAVY_ATOM_COUNT>  (1) 
21

>  <PUBCHEM_ATOM_DEF_STEREO_COUNT>  (1) 
0

>  <PUBCHEM_ATOM_UDEF_STEREO_COUNT>  (1) 
0

>  <PUBCHEM_BOND_DEF_STEREO_COUNT>  (1) 
0

>  <PUBCHEM_BOND_UDEF_STEREO_COUNT>  (1) 
0

>  <PUBCHEM_ISOTOPIC_ATOM_COUNT>  (1) 
0

>  <PUBCHEM_COMPONENT_COUNT>  (1) 
1

>  <PUBCHEM_CACTVS_TAUTO_COUNT>  (1) 
1

>  <PUBCHEM_CONFORMER_ID>  (1) 
00008AD90000000A

>  <PUBCHEM_MMFF94_ENERGY>  (1) 
72.8668

>  <PUBCHEM_FEATURE_SELFOVERLAP>  (1) 
20.297

>  <PUBCHEM_SHAPE_FINGERPRINT>  (1) 
12592029 89 18408605825194473434
12715332 25 18272646878655492374
12839892 36 18337376163196184363
13140716 1 18267017447787859145
13583140 156 16732701649037311584
13675066 3 15770061613796372749
13862211 1 18410567392387441647
14251751 93 17704070690334145893
14790565 3 18410581681733391237
15209289 33 18201440294128303849
16752209 62 18410292489243508856
17349148 13 18341894103724461605
19591789 44 18410855464423161575
20028762 73 18130220575164240191
21524375 3 18408884035795663026
23402539 116 18272083877099517221
23559900 14 18049434846980835402
338550 245 18335703815127759734
34797466 226 15502664831517934077
352729 6 18338805631396399270
465052 167 17894638053817544168
474229 33 18409446994655491075
59755656 215 18337386042137559421
633830 44 18130514101550014733
81228 2 17831289867424154264

>  <PUBCHEM_SHAPE_MULTIPOLES>  (1) 
417.68
11.3
2.74
1.5
0.04
1.97
0
-0.69
-0.02
-0.01
0
0.01
-0.45
-1.13

>  <PUBCHEM_SHAPE_SELFOVERLAP>  (1) 
781.917

>  <PUBCHEM_SHAPE_VOLUME>  (1) 
264.9

>  <PUBCHEM_COORDINATE_TYPE>  (1) 
2
5
10

$$$$
