35551
     RDKit          3D

 21 21  0  0  1  0  0  0  0  0999 V2000
   -5.1579    0.6326    0.7713 Cl  0  0  0  0  0  0  0  0  0  0  0  0
   -3.9785    3.1760   -0.0069 Cl  0  0  0  0  0  0  0  0  0  0  0  0
   -4.1131    1.0029   -1.9247 Cl  0  0  0  0  0  0  0  0  0  0  0  0
    5.1493    0.6692   -0.7620 Cl  0  0  0  0  0  0  0  0  0  0  0  0
    3.9385    3.1992    0.0123 Cl  0  0  0  0  0  0  0  0  0  0  0  0
    4.0841    1.0250    1.9281 Cl  0  0  0  0  0  0  0  0  0  0  0  0
   -2.2375    1.2932    1.6246 O   0  0  0  0  0  0  0  0  0  0  0  0
    2.2293    1.2967   -1.6337 O   0  0  0  0  0  0  0  0  0  0  0  0
   -2.3316   -0.5308    0.1195 N   0  0  0  0  0  0  0  0  0  0  0  0
    2.3518   -0.5106   -0.1230 N   0  0  0  0  0  0  0  0  0  0  0  0
    0.0100   -0.4890   -0.0035 N   0  0  0  0  0  0  0  0  0  0  0  0
    1.2173   -2.5619   -0.0621 N   0  0  0  0  0  0  0  0  0  0  0  0
   -1.1790   -2.5722    0.0620 N   0  0  0  0  0  0  0  0  0  0  0  0
   -2.4566    0.9123    0.2661 C   0  0  0  0  0  0  0  0  0  0  0  0
    2.4421    0.9201   -0.2729 C   0  0  0  0  0  0  0  0  0  0  0  0
   -1.1299   -1.2185    0.0568 C   0  0  0  0  0  0  0  0  0  0  0  0
    1.1338   -1.2217   -0.0604 C   0  0  0  0  0  0  0  0  0  0  0  0
   -3.8504    1.3934   -0.1919 C   0  0  0  0  0  0  0  0  0  0  0  0
    3.8280    1.4151    0.1941 C   0  0  0  0  0  0  0  0  0  0  0  0
    0.0218   -3.1700    0.0009 C   0  0  0  0  0  0  0  0  0  0  0  0
    0.0285   -4.6609    0.0054 C   0  0  0  0  0  0  0  0  0  0  0  0
  1 18  1  0
  2 18  1  0
  3 18  1  0
  4 19  1  0
  5 19  1  0
  6 19  1  0
  7 14  1  0
  8 15  1  0
  9 14  1  0
  9 16  1  0
 10 15  1  0
 10 17  1  0
 11 16  2  0
 11 17  1  0
 12 17  2  0
 12 20  1  0
 13 16  1  0
 13 20  2  0
 14 18  1  0
 15 19  1  0
 20 21  1  0
M  END
>  <PUBCHEM_COMPOUND_CID>  (1) 
35551

>  <PUBCHEM_CONFORMER_RMSD>  (1) 
0.8

>  <PUBCHEM_CONFORMER_DIVERSEORDER>  (1) 
1
37
80
3
106
72
18
79
31
109
33
86
57
11
104
23
64
26
41
107
62
111
71
94
105
82
88
52
46
34
63
66
97
99
17
69
43
12
20
77
5
59
38
83
9
49
36
60
45
95
90
85
92
91
112
30
67
42
28
76
102
87
14
58
27
8
84
54
100
113
81
93
61
50
40
101
51
73
48
103
13
74
39
108
22
53
15
47
78
29
24
68
70
10
65
55
89
56
35
19
75
6
4
98
7
44
32
16
110
21
96
25
2

>  <PUBCHEM_MMFF94_PARTIAL_CHARGES>  (1) 
25
1 -0.29
10 -0.87
11 -0.62
12 -0.62
13 -0.62
14 0.65
15 0.65
16 0.72
17 0.72
18 0.87
19 0.87
2 -0.29
20 0.48
21 0.14
24 0.4
25 0.4
29 0.4
3 -0.29
30 0.4
4 -0.29
5 -0.29
6 -0.29
7 -0.68
8 -0.68
9 -0.87

>  <PUBCHEM_EFFECTIVE_ROTOR_COUNT>  (1) 
6

>  <PUBCHEM_PHARMACOPHORE_FEATURES>  (1) 
9
1 10 donor
1 7 acceptor
1 7 donor
1 8 acceptor
1 8 donor
1 9 donor
4 10 11 12 17 cation
4 9 11 13 16 cation
6 11 12 13 16 17 20 rings

>  <PUBCHEM_HEAVY_ATOM_COUNT>  (1) 
21

>  <PUBCHEM_ATOM_DEF_STEREO_COUNT>  (1) 
0

>  <PUBCHEM_ATOM_UDEF_STEREO_COUNT>  (1) 
2

>  <PUBCHEM_BOND_DEF_STEREO_COUNT>  (1) 
0

>  <PUBCHEM_BOND_UDEF_STEREO_COUNT>  (1) 
0

>  <PUBCHEM_ISOTOPIC_ATOM_COUNT>  (1) 
0

>  <PUBCHEM_COMPONENT_COUNT>  (1) 
1

>  <PUBCHEM_CACTVS_TAUTO_COUNT>  (1) 
5

>  <PUBCHEM_CONFORMER_ID>  (1) 
00008ADF00000001

>  <PUBCHEM_MMFF94_ENERGY>  (1) 
47.2739

>  <PUBCHEM_FEATURE_SELFOVERLAP>  (1) 
45.79

>  <PUBCHEM_SHAPE_FINGERPRINT>  (1) 
10411042 1 17185316439878503067
11370993 70 18410570690917303561
11725454 13 17458889458558589917
12107183 9 18335968823748230808
12173636 292 18338799042922180182
12500047 106 18340208600360990142
12769317 202 18269547260940758945
12788726 201 17758108590178816130
13134695 92 17615968807722786983
13583140 156 17167854300900344985
13590594 115 17114109863296729617
138480 1 17762057631674957538
13955234 65 18193845834377192539
13965767 371 18114170926644995228
14123255 52 18410575088958273568
14508225 48 17333643277005535711
14957384 54 18261103132352009416
15042514 8 17904210569543020227
1741750 31 18339922713920207546
17834072 32 18338237167021955224
1798214 55 18411140233645387840
1813 80 7997688743967410369
19784866 34 18342736300004358625
204376 136 18410013243106606161
20510252 161 17981049927139095482
20645477 56 18267316485128598350
21033648 29 18412823594875480336
212916 134 18341597236001531568
21524375 3 18260270771441458923
2255824 54 18053382102636629047
23557571 272 17913783978915306862
23558518 356 17900825156693549194
23559900 14 17977381630210979523
23598288 3 17754472457537839578
3091708 16 9120912383700482434
314173 85 8430319051662958101
474 4 18339078173136514019
57124632 79 18266454317482780074
59755656 520 18411140259515340926
633830 44 18130232566643819381
7808743 9 18194123155999435608
84936 182 18199743644280422041
9981440 41 18410005529440516203

>  <PUBCHEM_SHAPE_MULTIPOLES>  (1) 
406.75
10.24
4.57
1.28
0.23
4.95
0
-10.95
0
-0.09
0.01
0
-0.68
0.17

>  <PUBCHEM_SHAPE_SELFOVERLAP>  (1) 
764.51

>  <PUBCHEM_SHAPE_VOLUME>  (1) 
253.3

>  <PUBCHEM_COORDINATE_TYPE>  (1) 
2
5
10

$$$$
