35558
     RDKit          3D

 17 17  0  0  0  0  0  0  0  0999 V2000
    2.5460   -2.5875   -1.0549 Cl  0  0  0  0  0  0  0  0  0  0  0  0
    3.9077   -0.2100   -0.1603 Cl  0  0  0  0  0  0  0  0  0  0  0  0
    2.5341   -1.8492    1.7770 Cl  0  0  0  0  0  0  0  0  0  0  0  0
   -2.5498   -1.8390    1.7776 Cl  0  0  0  0  0  0  0  0  0  0  0  0
   -3.9082   -0.2063   -0.1706 Cl  0  0  0  0  0  0  0  0  0  0  0  0
   -2.5379   -2.5882   -1.0515 Cl  0  0  0  0  0  0  0  0  0  0  0  0
    0.0037    4.4920    1.2218 S   0  0  0  0  0  0  0  0  0  0  0  0
   -0.0012   -1.1852    0.0912 N   0  0  0  0  0  0  0  0  0  0  0  0
   -1.1991    0.8257   -0.4368 N   0  0  0  0  0  0  0  0  0  0  0  0
    1.2004    0.8237   -0.4363 N   0  0  0  0  0  0  0  0  0  0  0  0
    0.0027    2.7578   -0.9452 N   0  0  0  0  0  0  0  0  0  0  0  0
    1.1217   -0.4728   -0.0959 C   0  0  0  0  0  0  0  0  0  0  0  0
   -1.1226   -0.4709   -0.0964 C   0  0  0  0  0  0  0  0  0  0  0  0
    2.4120   -1.1945    0.0941 C   0  0  0  0  0  0  0  0  0  0  0  0
   -2.4142   -1.1911    0.0923 C   0  0  0  0  0  0  0  0  0  0  0  0
    0.0011    1.4079   -0.5898 C   0  0  0  0  0  0  0  0  0  0  0  0
    0.0035    3.4876   -0.0161 C   0  0  0  0  0  0  0  0  0  0  0  0
  1 14  1  0
  2 14  1  0
  3 14  1  0
  4 15  1  0
  5 15  1  0
  6 15  1  0
  7 17  2  0
  8 12  2  0
  8 13  1  0
  9 13  2  0
  9 16  1  0
 10 12  1  0
 10 16  2  0
 11 16  1  0
 11 17  2  0
 12 14  1  0
 13 15  1  0
M  END
>  <PUBCHEM_COMPOUND_CID>  (1) 
35558

>  <PUBCHEM_CONFORMER_RMSD>  (1) 
0.6

>  <PUBCHEM_CONFORMER_DIVERSEORDER>  (1) 
1
8
4
6
7
5
3
2

>  <PUBCHEM_MMFF94_PARTIAL_CHARGES>  (1) 
17
1 -0.29
10 -0.62
11 -0.48
12 0.48
13 0.48
14 1.01
15 1.01
16 0.8
17 0.57
2 -0.29
3 -0.29
4 -0.29
5 -0.29
6 -0.29
7 -0.27
8 -0.62
9 -0.62

>  <PUBCHEM_EFFECTIVE_ROTOR_COUNT>  (1) 
3

>  <PUBCHEM_PHARMACOPHORE_FEATURES>  (1) 
4
1 11 acceptor
1 7 acceptor
4 9 10 11 16 cation
6 8 9 10 12 13 16 rings

>  <PUBCHEM_HEAVY_ATOM_COUNT>  (1) 
17

>  <PUBCHEM_ATOM_DEF_STEREO_COUNT>  (1) 
0

>  <PUBCHEM_ATOM_UDEF_STEREO_COUNT>  (1) 
0

>  <PUBCHEM_BOND_DEF_STEREO_COUNT>  (1) 
0

>  <PUBCHEM_BOND_UDEF_STEREO_COUNT>  (1) 
0

>  <PUBCHEM_ISOTOPIC_ATOM_COUNT>  (1) 
0

>  <PUBCHEM_COMPONENT_COUNT>  (1) 
1

>  <PUBCHEM_CACTVS_TAUTO_COUNT>  (1) 
1

>  <PUBCHEM_CONFORMER_ID>  (1) 
00008AE600000001

>  <PUBCHEM_MMFF94_ENERGY>  (1) 
30.1977

>  <PUBCHEM_FEATURE_SELFOVERLAP>  (1) 
20.302

>  <PUBCHEM_SHAPE_FINGERPRINT>  (1) 
108231 29 18043261321509452138
116883 192 18196374714809272630
12160290 23 17974846168553917852
12553582 1 18409442596282315759
12759256 9 18122348140211732094
12788726 201 18264204708134057816
13140716 1 18336546023332280706
136203 1 18122907529621447360
14022347 108 18189915122803982519
14955137 171 18052852361206517754
15852999 172 16886923780361982591
16945 1 17989209247845872026
19591789 44 16897938155067077375
20510252 161 18195240010282769888
20645477 70 17976533142110326127
20711985 344 18120384150514880966
21029758 11 18410567367076645461
21041028 32 18264794175347621881
21524375 3 17183061341133464285
21731228 192 17327737293267156536
2255824 54 17979078502421091543
2334 1 18335421295946215406
23419403 2 16403302353765433255
23557571 272 18337391531185053854
23558518 356 17976264530275147974
2748010 2 18408879642059722902
305870 269 17690277531527671217
3091708 16 9571240477763910177
34934 24 18408036320931235886
352729 6 17832696877335857101
58807428 26 16749858127998307618
6992083 37 18200889408722355107
7364860 26 18123752220997560245
81228 2 18118689815991572264
84936 182 17695913611173328193
9981440 41 16836227150573513618

>  <PUBCHEM_SHAPE_MULTIPOLES>  (1) 
345
5.26
4.88
1.36
0.01
7.39
-0.65
-4.72
-0.23
-0.01
-0.78
0
-0.53
0

>  <PUBCHEM_SHAPE_SELFOVERLAP>  (1) 
647

>  <PUBCHEM_SHAPE_VOLUME>  (1) 
216.6

>  <PUBCHEM_COORDINATE_TYPE>  (1) 
2
5
10

$$$$
