35556
     RDKit          3D

 19 19  0  0  0  0  0  0  0  0999 V2000
   -0.4438    3.3852    1.4643 Cl  0  0  0  0  0  0  0  0  0  0  0  0
    2.0323    3.5215   -0.0042 Cl  0  0  0  0  0  0  0  0  0  0  0  0
   -0.4538    3.3776   -1.4622 Cl  0  0  0  0  0  0  0  0  0  0  0  0
    2.9398   -2.5000   -1.4648 Cl  0  0  0  0  0  0  0  0  0  0  0  0
    4.3035   -0.4298    0.0052 Cl  0  0  0  0  0  0  0  0  0  0  0  0
    2.9276   -2.5063    1.4618 Cl  0  0  0  0  0  0  0  0  0  0  0  0
   -3.0582   -0.5654   -0.0003 O   0  0  0  0  0  0  0  0  0  0  0  0
   -2.0861   -2.6520   -0.0010 O   0  0  0  0  0  0  0  0  0  0  0  0
    1.5974    0.6431    0.0005 N   0  0  0  0  0  0  0  0  0  0  0  0
    0.3936   -1.4326    0.0002 N   0  0  0  0  0  0  0  0  0  0  0  0
   -0.8021    0.6478   -0.0005 N   0  0  0  0  0  0  0  0  0  0  0  0
    0.3988    1.2485   -0.0001 C   0  0  0  0  0  0  0  0  0  0  0  0
    1.5171   -0.6972    0.0005 C   0  0  0  0  0  0  0  0  0  0  0  0
   -0.7271   -0.6930   -0.0004 C   0  0  0  0  0  0  0  0  0  0  0  0
    0.4016    2.7395   -0.0006 C   0  0  0  0  0  0  0  0  0  0  0  0
    2.8071   -1.4453    0.0008 C   0  0  0  0  0  0  0  0  0  0  0  0
   -1.9837   -1.4153   -0.0010 C   0  0  0  0  0  0  0  0  0  0  0  0
   -4.3599   -1.1613    0.0005 C   0  0  0  0  0  0  0  0  0  0  0  0
   -5.4040   -0.0652    0.0013 C   0  0  0  0  0  0  0  0  0  0  0  0
  1 15  1  0
  2 15  1  0
  3 15  1  0
  4 16  1  0
  5 16  1  0
  6 16  1  0
  7 17  1  0
  7 18  1  0
  8 17  2  0
  9 12  2  0
  9 13  1  0
 10 13  2  0
 10 14  1  0
 11 12  1  0
 11 14  2  0
 12 15  1  0
 13 16  1  0
 14 17  1  0
 18 19  1  0
M  END
>  <PUBCHEM_COMPOUND_CID>  (1) 
35556

>  <PUBCHEM_CONFORMER_RMSD>  (1) 
0.8

>  <PUBCHEM_CONFORMER_DIVERSEORDER>  (1) 
1
6
2
7
3
5
4

>  <PUBCHEM_MMFF94_PARTIAL_CHARGES>  (1) 
18
1 -0.29
10 -0.62
11 -0.62
12 0.48
13 0.48
14 0.71
15 1.01
16 1.01
17 0.63
18 0.28
2 -0.29
3 -0.29
4 -0.29
5 -0.29
6 -0.29
7 -0.43
8 -0.57
9 -0.62

>  <PUBCHEM_EFFECTIVE_ROTOR_COUNT>  (1) 
5

>  <PUBCHEM_PHARMACOPHORE_FEATURES>  (1) 
5
1 8 acceptor
3 10 11 14 cation
3 9 10 13 cation
3 9 11 12 cation
6 9 10 11 12 13 14 rings

>  <PUBCHEM_HEAVY_ATOM_COUNT>  (1) 
19

>  <PUBCHEM_ATOM_DEF_STEREO_COUNT>  (1) 
0

>  <PUBCHEM_ATOM_UDEF_STEREO_COUNT>  (1) 
0

>  <PUBCHEM_BOND_DEF_STEREO_COUNT>  (1) 
0

>  <PUBCHEM_BOND_UDEF_STEREO_COUNT>  (1) 
0

>  <PUBCHEM_ISOTOPIC_ATOM_COUNT>  (1) 
0

>  <PUBCHEM_COMPONENT_COUNT>  (1) 
1

>  <PUBCHEM_CACTVS_TAUTO_COUNT>  (1) 
1

>  <PUBCHEM_CONFORMER_ID>  (1) 
00008AE400000001

>  <PUBCHEM_MMFF94_ENERGY>  (1) 
32.0816

>  <PUBCHEM_FEATURE_SELFOVERLAP>  (1) 
28.144

>  <PUBCHEM_SHAPE_FINGERPRINT>  (1) 
10967382 1 18338797926235606758
116883 192 18199194996478406038
12553582 1 18411408501814214086
12788726 201 18190184486131187346
13004483 165 18338505331763127594
13052359 8 17613706025487412277
13134695 92 18130781291903121237
13140716 1 18122334942246457304
14022347 108 18337403638165669706
14178000 15 18343024397625486665
14178342 30 17834100228014304675
14648413 74 18120094133122408419
15042514 8 17904758873662450906
15420108 30 17842257448998758984
15442244 35 18412265056105899673
15475509 8 17842307828785851709
15848700 24 18343299236835735111
15885798 251 18337389331819140603
16945 1 13363169590907946354
17357779 13 18268698446775181133
18785283 64 18044662137824865797
19591789 44 16684022661529707991
20510252 161 18196649605796121714
20600515 1 18130518465125673211
20645477 70 18268147733236671199
20671657 1 18196655314113515533
21029758 11 18413387627186234531
21041028 32 18342739607192811097
21160774 45 17832708972090713837
21285901 2 18200036114463328431
21478907 32 18050286964413938607
21524375 3 17259630764003522478
23366157 5 17970904698673252599
23402539 116 18271516508083612839
23419403 2 17971161890279496716
23557571 272 18341615854953973222
23558518 356 17975425615994031914
23559900 14 18272367632698256050
23598291 2 17984972945798234671
2748010 2 18197202668924725012
3071541 12 18194403526646811389
3091708 16 9644980311833826328
314173 41 18408891753889219987
34934 24 18411414046754130150
352729 6 17689707563533904038
58779409 8 17472990492899198988
621550 34 17988634161053460914
6443956 14 18339927133573670644
68521 5 18263927644020155838
7164475 11 18046343029195490022
7364860 26 18196936792820717036
81228 2 18266751172890423482
84936 182 17839744004136094737
9841814 1 18334008397745516227
9981440 41 17404009818207459289

>  <PUBCHEM_SHAPE_MULTIPOLES>  (1) 
375.55
7.15
4.71
1.12
6.19
4.8
0
-6.18
0
-0.92
0
-0.6
0.26
0

>  <PUBCHEM_SHAPE_SELFOVERLAP>  (1) 
712.559

>  <PUBCHEM_SHAPE_VOLUME>  (1) 
230.8

>  <PUBCHEM_COORDINATE_TYPE>  (1) 
2
5
10

$$$$
