35552
     RDKit          3D

 24 24  0  0  1  0  0  0  0  0999 V2000
   -4.7707    2.9133   -0.6414 Cl  0  0  0  0  0  0  0  0  0  0  0  0
   -6.3675    0.5736    0.0238 Cl  0  0  0  0  0  0  0  0  0  0  0  0
   -4.5679    1.6999    2.0015 Cl  0  0  0  0  0  0  0  0  0  0  0  0
    4.7567    2.9244    0.6404 Cl  0  0  0  0  0  0  0  0  0  0  0  0
    6.3603    0.5900   -0.0270 Cl  0  0  0  0  0  0  0  0  0  0  0  0
    4.5518    1.7083   -2.0011 Cl  0  0  0  0  0  0  0  0  0  0  0  0
   -0.7834   -3.7442   -1.4875 Cl  0  0  0  0  0  0  0  0  0  0  0  0
    1.6484   -3.8768    0.0537 Cl  0  0  0  0  0  0  0  0  0  0  0  0
   -0.8796   -3.7333    1.4376 Cl  0  0  0  0  0  0  0  0  0  0  0  0
   -3.8575    0.1039   -1.6245 O   0  0  0  0  0  0  0  0  0  0  0  0
    3.8535    0.1160    1.6291 O   0  0  0  0  0  0  0  0  0  0  0  0
   -2.3370    1.0380   -0.0698 N   0  0  0  0  0  0  0  0  0  0  0  0
    2.3506    1.0506    0.0698 N   0  0  0  0  0  0  0  0  0  0  0  0
    0.0069    1.0760   -0.0017 N   0  0  0  0  0  0  0  0  0  0  0  0
    1.2116   -0.9989    0.0344 N   0  0  0  0  0  0  0  0  0  0  0  0
   -1.1868   -1.0052   -0.0370 N   0  0  0  0  0  0  0  0  0  0  0  0
   -3.6440    0.4219   -0.2490 C   0  0  0  0  0  0  0  0  0  0  0  0
    3.6380    0.4287    0.2526 C   0  0  0  0  0  0  0  0  0  0  0  0
   -1.1353    0.3484   -0.0357 C   0  0  0  0  0  0  0  0  0  0  0  0
    1.1304    0.3415    0.0317 C   0  0  0  0  0  0  0  0  0  0  0  0
   -4.7665    1.3571    0.2501 C   0  0  0  0  0  0  0  0  0  0  0  0
    4.7559    1.3676   -0.2500 C   0  0  0  0  0  0  0  0  0  0  0  0
    0.0140   -1.6050   -0.0012 C   0  0  0  0  0  0  0  0  0  0  0  0
    0.0180   -3.0959    0.0011 C   0  0  0  0  0  0  0  0  0  0  0  0
  1 21  1  0
  2 21  1  0
  3 21  1  0
  4 22  1  0
  5 22  1  0
  6 22  1  0
  7 24  1  0
  8 24  1  0
  9 24  1  0
 10 17  1  0
 11 18  1  0
 12 17  1  0
 12 19  1  0
 13 18  1  0
 13 20  1  0
 14 19  2  0
 14 20  1  0
 15 20  2  0
 15 23  1  0
 16 19  1  0
 16 23  2  0
 17 21  1  0
 18 22  1  0
 23 24  1  0
M  END
>  <PUBCHEM_COMPOUND_CID>  (1) 
35552

>  <PUBCHEM_CONFORMER_RMSD>  (1) 
0.8

>  <PUBCHEM_CONFORMER_DIVERSEORDER>  (1) 
1
117
55
24
62
109
161
100
66
123
128
130
94
35
48
142
137
122
84
26
151
106
80
46
111
158
75
50
175
156
132
133
74
110
93
172
37
150
60
139
169
49
85
3
166
136
163
157
41
96
131
27
167
143
129
120
115
98
174
76
114
79
18
162
107
90
36
121
176
153
70
168
135
126
144
39
134
119
148
58
38
63
99
147
61
54
20
57
149
138
22
78
102
77
89
64
53
125
13
118
97
112
23
95
146
173
155
154
105
91
104
29
83
159
14
16
164
45
171
71
8
21
67
86
87
69
43
9
140
65
160
33
127
116
30
31
68
108
12
47
7
165
56
15
88
73
92
51
141
40
72
10
34
103
25
28
6
32
124
5
44
152
4
81
59
145
82
19
11
170
17
52
2
101
42
113

>  <PUBCHEM_MMFF94_PARTIAL_CHARGES>  (1) 
28
1 -0.29
10 -0.68
11 -0.68
12 -0.87
13 -0.87
14 -0.62
15 -0.62
16 -0.62
17 0.65
18 0.65
19 0.72
2 -0.29
20 0.72
21 0.87
22 0.87
23 0.48
24 1.01
27 0.4
28 0.4
29 0.4
3 -0.29
30 0.4
4 -0.29
5 -0.29
6 -0.29
7 -0.29
8 -0.29
9 -0.29

>  <PUBCHEM_EFFECTIVE_ROTOR_COUNT>  (1) 
7

>  <PUBCHEM_PHARMACOPHORE_FEATURES>  (1) 
9
1 10 acceptor
1 10 donor
1 11 acceptor
1 11 donor
1 12 donor
1 13 donor
4 12 14 16 19 cation
4 13 14 15 20 cation
6 14 15 16 19 20 23 rings

>  <PUBCHEM_HEAVY_ATOM_COUNT>  (1) 
24

>  <PUBCHEM_ATOM_DEF_STEREO_COUNT>  (1) 
0

>  <PUBCHEM_ATOM_UDEF_STEREO_COUNT>  (1) 
2

>  <PUBCHEM_BOND_DEF_STEREO_COUNT>  (1) 
0

>  <PUBCHEM_BOND_UDEF_STEREO_COUNT>  (1) 
0

>  <PUBCHEM_ISOTOPIC_ATOM_COUNT>  (1) 
0

>  <PUBCHEM_COMPONENT_COUNT>  (1) 
1

>  <PUBCHEM_CACTVS_TAUTO_COUNT>  (1) 
5

>  <PUBCHEM_CONFORMER_ID>  (1) 
00008AE000000001

>  <PUBCHEM_MMFF94_ENERGY>  (1) 
51.4307

>  <PUBCHEM_FEATURE_SELFOVERLAP>  (1) 
45.79

>  <PUBCHEM_SHAPE_FINGERPRINT>  (1) 
10411042 1 17474105402091277986
12390115 104 18341065097937763113
12516196 113 9151172043271568877
12788726 201 17979340186294614234
13583140 156 16588016935471314761
13631057 29 18272645805963538799
14790565 3 18411140242288485688
15664445 248 17483409516539982751
15927050 60 18411698790053747382
16752209 62 18122897892395576706
17913733 40 18340222820707577075
17980427 23 17458636669826711711
18222031 100 7997965756520871769
18785283 64 18189335667333492690
204376 136 18408604760084606241
20645477 70 18123181304554992807
21236236 1 18339080514089304291
22182313 1 18196679421222330854
22224240 67 18408605885983294449
23558518 356 17538285429428933076
23559900 14 17978782416435001745
23598288 3 17972047100145367294
249057 3 18408606977163599764
283562 15 18123180479341776571
314173 85 7997973500367933993
335352 9 18411419514906348612
3411729 13 18263643970352745811
3759504 43 18334295408993015254
38695281 34 18342454799031120967
4058900 60 18262247598837944353
458136 41 18338802212708082651
474 4 18412545379678064177
5104073 3 18190169282574610048
5385378 56 18339369547754392339
59755656 520 18342173384078327495
633830 44 18273215266053393341
6669772 16 18202006490998348222
9841814 1 17758118094804357067

>  <PUBCHEM_SHAPE_MULTIPOLES>  (1) 
474.09
13.37
4.65
1.4
0
5.85
0.02
-14.96
-0.03
0.12
0
-0.17
-0.02
-0.44

>  <PUBCHEM_SHAPE_SELFOVERLAP>  (1) 
876.441

>  <PUBCHEM_SHAPE_VOLUME>  (1) 
299

>  <PUBCHEM_COORDINATE_TYPE>  (1) 
2
5
10

$$$$
