35554
     RDKit          3D

 18 18  0  0  0  0  0  0  0  0999 V2000
    0.3164   -3.4159    0.0060 O   0  0  0  0  0  0  0  0  0  0  0  0
   -1.5388    3.2593   -0.0090 O   0  0  0  0  0  0  0  0  0  0  0  0
    3.0942    2.0639    0.0168 O   0  0  0  0  0  0  0  0  0  0  0  0
   -1.2113   -0.2450   -0.0017 N   0  0  0  0  0  0  0  0  0  0  0  0
    1.1121   -0.8448   -0.0091 N   0  0  0  0  0  0  0  0  0  0  0  0
    0.4699    1.4672   -0.0005 N   0  0  0  0  0  0  0  0  0  0  0  0
   -1.9298   -2.8408   -0.0063 N   0  0  0  0  0  0  0  0  0  0  0  0
   -3.1660    1.6074    0.0117 N   0  0  0  0  0  0  0  0  0  0  0  0
    3.7196   -0.1688   -0.0106 N   0  0  0  0  0  0  0  0  0  0  0  0
   -0.2002   -1.1288   -0.0069 C   0  0  0  0  0  0  0  0  0  0  0  0
   -0.8010    1.0336    0.0012 C   0  0  0  0  0  0  0  0  0  0  0  0
    1.3720    0.4727   -0.0058 C   0  0  0  0  0  0  0  0  0  0  0  0
   -0.5623   -2.5324   -0.0095 C   0  0  0  0  0  0  0  0  0  0  0  0
   -1.8354    2.0490    0.0083 C   0  0  0  0  0  0  0  0  0  0  0  0
    2.7682    0.8611   -0.0066 C   0  0  0  0  0  0  0  0  0  0  0  0
   -2.4483   -4.1897    0.0149 C   0  0  0  0  0  0  0  0  0  0  0  0
   -4.3063    2.4952   -0.0043 C   0  0  0  0  0  0  0  0  0  0  0  0
    5.1470    0.0567    0.0114 C   0  0  0  0  0  0  0  0  0  0  0  0
  1 13  2  0
  2 14  2  0
  3 15  2  0
  4 10  2  0
  4 11  1  0
  5 10  1  0
  5 12  2  0
  6 11  2  0
  6 12  1  0
  7 13  1  0
  7 16  1  0
  8 14  1  0
  8 17  1  0
  9 15  1  0
  9 18  1  0
 10 13  1  0
 11 14  1  0
 12 15  1  0
M  END
>  <PUBCHEM_COMPOUND_CID>  (1) 
35554

>  <PUBCHEM_CONFORMER_RMSD>  (1) 
0.8

>  <PUBCHEM_CONFORMER_DIVERSEORDER>  (1) 
1
3
2
4
6
5

>  <PUBCHEM_MMFF94_PARTIAL_CHARGES>  (1) 
21
1 -0.57
10 0.71
11 0.71
12 0.71
13 0.54
14 0.54
15 0.54
16 0.3
17 0.3
18 0.3
19 0.37
2 -0.57
20 0.37
21 0.37
3 -0.57
4 -0.62
5 -0.62
6 -0.62
7 -0.73
8 -0.73
9 -0.73

>  <PUBCHEM_EFFECTIVE_ROTOR_COUNT>  (1) 
6

>  <PUBCHEM_PHARMACOPHORE_FEATURES>  (1) 
10
1 1 acceptor
1 2 acceptor
1 3 acceptor
1 7 donor
1 8 donor
1 9 donor
3 4 5 10 cation
3 4 6 11 cation
3 5 6 12 cation
6 4 5 6 10 11 12 rings

>  <PUBCHEM_HEAVY_ATOM_COUNT>  (1) 
18

>  <PUBCHEM_ATOM_DEF_STEREO_COUNT>  (1) 
0

>  <PUBCHEM_ATOM_UDEF_STEREO_COUNT>  (1) 
0

>  <PUBCHEM_BOND_DEF_STEREO_COUNT>  (1) 
0

>  <PUBCHEM_BOND_UDEF_STEREO_COUNT>  (1) 
0

>  <PUBCHEM_ISOTOPIC_ATOM_COUNT>  (1) 
0

>  <PUBCHEM_COMPONENT_COUNT>  (1) 
1

>  <PUBCHEM_CACTVS_TAUTO_COUNT>  (1) 
4

>  <PUBCHEM_CONFORMER_ID>  (1) 
00008AE200000001

>  <PUBCHEM_MMFF94_ENERGY>  (1) 
25.6976

>  <PUBCHEM_FEATURE_SELFOVERLAP>  (1) 
53.518

>  <PUBCHEM_SHAPE_FINGERPRINT>  (1) 
10319926 262 18198318802930564384
10411042 1 17978229692330019150
10756046 70 17531545246940878948
10967382 1 18122626054676034205
116883 192 18196378232651309958
12553582 1 17691403440172089670
12592029 89 18193559960905207504
12788726 201 17974000945271585098
13052359 8 18409444791194752475
13380535 76 18341894035226407676
138480 1 17185595711325221251
14178000 15 17547571938912458535
14178342 30 18264747992286857850
14866123 147 18409445873711848858
15042514 8 18409451418144739003
15442244 35 17619637225284572331
17539 30 18269829990132075951
19591789 44 18122347869781792670
20510252 161 18198061576342063672
20645477 70 17829886539186199397
20711985 365 18338236102012081430
21478907 32 18266457792059224363
21524375 3 18187931603800945024
2255824 54 17835521514455042079
23402539 116 18342729694012731388
23419403 2 16840840816969023991
23530152 11 18338518521765520199
23557571 272 18054804029249046620
23558518 356 18189335847974878552
23559900 14 18272087172578687976
2748010 2 18193015732693214407
3071541 12 17547293298429436456
3071541 37 18047760303656530636
3091708 16 9199718792978095067
33824 294 18192997007100144513
352729 6 18411703183688252580
366044 4 18337671910459995528
43471831 8 18049724022902505600
474229 33 18408888412937030481
54173680 148 18338516468422941034
58051976 378 18268708308015084101
58779409 54 18339068406117405319
58779409 8 18409455764751772247
6025842 7 18050558544397870957
6138700 20 17763750893290262694
68521 5 18050009088371298190
7164475 11 18192433197957909980
7364860 26 17834395614258211465
81228 2 18046058525981596680
81539 233 18117559513843679565
9709674 26 18272091604410015910

>  <PUBCHEM_SHAPE_MULTIPOLES>  (1) 
322.94
6.73
4.84
0.57
5.83
4.58
0
-3.82
-0.02
-6.03
-0.01
-0.01
0.01
0.01

>  <PUBCHEM_SHAPE_SELFOVERLAP>  (1) 
664.479

>  <PUBCHEM_SHAPE_VOLUME>  (1) 
182.1

>  <PUBCHEM_COORDINATE_TYPE>  (1) 
2
5
10

$$$$
