35550
     RDKit          3D

 18 18  0  0  1  0  0  0  0  0999 V2000
   -4.4988    1.0225   -0.6996 Cl  0  0  0  0  0  0  0  0  0  0  0  0
   -4.5905   -1.7822    0.0697 Cl  0  0  0  0  0  0  0  0  0  0  0  0
   -3.6955    0.2083    1.9818 Cl  0  0  0  0  0  0  0  0  0  0  0  0
    3.7797   -1.4876    1.5866 Cl  0  0  0  0  0  0  0  0  0  0  0  0
    1.8213   -2.9787    0.0874 Cl  0  0  0  0  0  0  0  0  0  0  0  0
    3.8771   -1.5402   -1.3379 Cl  0  0  0  0  0  0  0  0  0  0  0  0
   -2.2094   -0.8883   -1.5943 O   0  0  0  0  0  0  0  0  0  0  0  0
   -1.4430    0.7742   -0.0943 N   0  0  0  0  0  0  0  0  0  0  0  0
    0.6257   -0.3261   -0.0044 N   0  0  0  0  0  0  0  0  0  0  0  0
    0.5110    2.0700   -0.0613 N   0  0  0  0  0  0  0  0  0  0  0  0
    2.6430    0.9728    0.0302 N   0  0  0  0  0  0  0  0  0  0  0  0
   -2.2114   -0.4545   -0.2341 C   0  0  0  0  0  0  0  0  0  0  0  0
   -0.0593    0.8415   -0.0520 C   0  0  0  0  0  0  0  0  0  0  0  0
   -3.6647   -0.2525    0.2465 C   0  0  0  0  0  0  0  0  0  0  0  0
    1.9603   -0.1834    0.0342 C   0  0  0  0  0  0  0  0  0  0  0  0
    1.8530    2.0576   -0.0188 C   0  0  0  0  0  0  0  0  0  0  0  0
    2.7661   -1.4365    0.0871 C   0  0  0  0  0  0  0  0  0  0  0  0
    2.5355    3.3829   -0.0268 C   0  0  0  0  0  0  0  0  0  0  0  0
  1 14  1  0
  2 14  1  0
  3 14  1  0
  4 17  1  0
  5 17  1  0
  6 17  1  0
  7 12  1  0
  8 12  1  0
  8 13  1  0
  9 13  2  0
  9 15  1  0
 10 13  1  0
 10 16  2  0
 11 15  2  0
 11 16  1  0
 12 14  1  0
 15 17  1  0
 16 18  1  0
M  END
>  <PUBCHEM_COMPOUND_CID>  (1) 
35550

>  <PUBCHEM_CONFORMER_RMSD>  (1) 
0.6

>  <PUBCHEM_CONFORMER_DIVERSEORDER>  (1) 
1
49
15
61
25
10
59
44
52
26
51
45
21
18
50
56
14
53
5
29
13
58
35
11
33
28
41
4
57
54
60
24
9
7
16
47
12
48
39
23
19
43
31
38
55
32
2
17
46
20
42
30
37
22
3
36
8
40
27
6
34

>  <PUBCHEM_MMFF94_PARTIAL_CHARGES>  (1) 
20
1 -0.29
10 -0.62
11 -0.62
12 0.65
13 0.72
14 0.87
15 0.48
16 0.48
17 1.01
18 0.14
2 -0.29
20 0.4
21 0.4
3 -0.29
4 -0.29
5 -0.29
6 -0.29
7 -0.68
8 -0.87
9 -0.62

>  <PUBCHEM_EFFECTIVE_ROTOR_COUNT>  (1) 
4

>  <PUBCHEM_PHARMACOPHORE_FEATURES>  (1) 
5
1 7 acceptor
1 7 donor
1 8 donor
4 8 9 10 13 cation
6 9 10 11 13 15 16 rings

>  <PUBCHEM_HEAVY_ATOM_COUNT>  (1) 
18

>  <PUBCHEM_ATOM_DEF_STEREO_COUNT>  (1) 
0

>  <PUBCHEM_ATOM_UDEF_STEREO_COUNT>  (1) 
1

>  <PUBCHEM_BOND_DEF_STEREO_COUNT>  (1) 
0

>  <PUBCHEM_BOND_UDEF_STEREO_COUNT>  (1) 
0

>  <PUBCHEM_ISOTOPIC_ATOM_COUNT>  (1) 
0

>  <PUBCHEM_COMPONENT_COUNT>  (1) 
1

>  <PUBCHEM_CACTVS_TAUTO_COUNT>  (1) 
4

>  <PUBCHEM_CONFORMER_ID>  (1) 
00008ADE00000001

>  <PUBCHEM_MMFF94_ENERGY>  (1) 
35.9106

>  <PUBCHEM_FEATURE_SELFOVERLAP>  (1) 
25.409

>  <PUBCHEM_SHAPE_FINGERPRINT>  (1) 
10366900 7 18040443182965838427
10980938 120 18339926033819306833
11405975 8 18334574629739649745
11543360 7 15502672485033591226
12553582 1 18338804390351655114
12596599 1 18343026575311452307
12633257 1 18335146371222425699
12644460 14 18336551602922209032
12707595 3 18334576798196941626
12841375 25 18339927000624447788
12916754 54 18341336673600392763
13296908 3 18187079568431156213
13533116 47 18271811289296209467
13675066 3 17703786998911690835
14252887 29 18130223757871798658
15279307 12 18057042625778973335
15422964 175 18123460593008539598
15442244 35 18340770325885215953
1813 80 18199762357790313478
18186145 218 18410580586901274627
18222031 100 18201153252573271414
19422 9 18202292432845904251
20339313 130 18342461421912668100
20645477 70 18335977644798529959
20871998 22 18269835311949716886
221490 88 18336271227172224267
2255824 54 18410576223219750582
23557571 272 14201983261835993101
23559900 14 18410847755231451337
23598291 2 18202292406833507453
312423 11 18200888360855414085
314173 41 18339366257904668366
3286 77 18040426694238118859
33824 294 18264206000834850234
5104073 3 18410293636189603801
58051976 100 18410573964404621783
6049 1 17822001008778283981
7364860 26 18342459283277696980
7615 1 17775568658697043481
81228 2 17761767374007500720
9709674 26 18261675995058132411
9841814 1 18334856091731030488

>  <PUBCHEM_SHAPE_MULTIPOLES>  (1) 
355.86
9.06
3.09
1.27
7.3
1.29
-0.34
-3.22
-0.51
-3.26
0.06
0.25
-0.42
-0.07

>  <PUBCHEM_SHAPE_SELFOVERLAP>  (1) 
665.585

>  <PUBCHEM_SHAPE_VOLUME>  (1) 
222.5

>  <PUBCHEM_COORDINATE_TYPE>  (1) 
2
5
10

$$$$
