35565
     RDKit          3D

 15 15  0  0  0  0  0  0  0  0999 V2000
    3.3243   -1.0962    0.3919 S   0  0  0  0  0  0  0  0  0  0  0  0
   -1.7939   -2.5140   -0.0374 S   0  0  0  0  0  0  0  0  0  0  0  0
   -0.4612    2.6432    0.1112 S   0  0  0  0  0  0  0  0  0  0  0  0
    0.7250   -1.6577    0.1707 N   0  0  0  0  0  0  0  0  0  0  0  0
    1.3250    0.6647    0.2378 N   0  0  0  0  0  0  0  0  0  0  0  0
   -0.9798    0.0260    0.0433 N   0  0  0  0  0  0  0  0  0  0  0  0
    4.1412    0.3057   -0.4226 C   0  0  0  0  0  0  0  0  0  0  0  0
   -3.3154   -1.5309   -0.1570 C   0  0  0  0  0  0  0  0  0  0  0  0
   -2.2666    2.5279   -0.0400 C   0  0  0  0  0  0  0  0  0  0  0  0
    1.6068   -0.6481    0.2510 C   0  0  0  0  0  0  0  0  0  0  0  0
   -0.5489   -1.2455    0.0689 C   0  0  0  0  0  0  0  0  0  0  0  0
    0.0122    0.9265    0.1317 C   0  0  0  0  0  0  0  0  0  0  0  0
    5.6470    0.1234   -0.4139 C   0  0  0  0  0  0  0  0  0  0  0  0
   -4.5281   -2.4362   -0.2592 C   0  0  0  0  0  0  0  0  0  0  0  0
   -2.8876    3.9113   -0.0764 C   0  0  0  0  0  0  0  0  0  0  0  0
  1  7  1  0
  1 10  1  0
  2  8  1  0
  2 11  1  0
  3  9  1  0
  3 12  1  0
  4 10  2  0
  4 11  1  0
  5 10  1  0
  5 12  2  0
  6 11  2  0
  6 12  1  0
  7 13  1  0
  8 14  1  0
  9 15  1  0
M  END
>  <PUBCHEM_COMPOUND_CID>  (1) 
35565

>  <PUBCHEM_CONFORMER_RMSD>  (1) 
0.8

>  <PUBCHEM_CONFORMER_DIVERSEORDER>  (1) 
1
28
22
2
31
3
19
30
16
32
7
21
27
34
6
24
23
13
17
12
25
10
20
5
15
33
14
29
8
26
11
4
9
18

>  <PUBCHEM_MMFF94_PARTIAL_CHARGES>  (1) 
12
1 -0.33
10 0.72
11 0.72
12 0.72
2 -0.33
3 -0.33
4 -0.62
5 -0.62
6 -0.62
7 0.23
8 0.23
9 0.23

>  <PUBCHEM_EFFECTIVE_ROTOR_COUNT>  (1) 
6

>  <PUBCHEM_PHARMACOPHORE_FEATURES>  (1) 
7
1 13 hydrophobe
1 14 hydrophobe
1 15 hydrophobe
3 4 5 10 cation
3 4 6 11 cation
3 5 6 12 cation
6 4 5 6 10 11 12 rings

>  <PUBCHEM_HEAVY_ATOM_COUNT>  (1) 
15

>  <PUBCHEM_ATOM_DEF_STEREO_COUNT>  (1) 
0

>  <PUBCHEM_ATOM_UDEF_STEREO_COUNT>  (1) 
0

>  <PUBCHEM_BOND_DEF_STEREO_COUNT>  (1) 
0

>  <PUBCHEM_BOND_UDEF_STEREO_COUNT>  (1) 
0

>  <PUBCHEM_ISOTOPIC_ATOM_COUNT>  (1) 
0

>  <PUBCHEM_COMPONENT_COUNT>  (1) 
1

>  <PUBCHEM_CACTVS_TAUTO_COUNT>  (1) 
1

>  <PUBCHEM_CONFORMER_ID>  (1) 
00008AED00000001

>  <PUBCHEM_MMFF94_ENERGY>  (1) 
16.3924

>  <PUBCHEM_FEATURE_SELFOVERLAP>  (1) 
38.293

>  <PUBCHEM_SHAPE_FINGERPRINT>  (1) 
12553582 1 18267853055161467678
12788726 201 18334851736143991402
12954195 1 18342183224185843676
19427546 62 17760930641401147665
20671657 1 17763185035469453735
20871999 31 18411415098788424668
21029758 11 18265894842163416091
21029758 27 18265901430875473651
21041028 32 18338237192991686631
21426921 1 18411139121591535196
21524375 3 17756434759750250376
221490 88 17687185700567475267
23352939 185 18057052504404324792
23402539 116 18343300404892824774
23530152 11 17834956369768064237
23557571 272 18271535243004809958
23558518 356 18261118409213174978
25147074 1 18040713611835147242
266924 1 18113890525578862106
2748010 2 18124296457630675856
3071541 12 17690279730392184043
352729 6 17981036423345139826
68521 5 18410857689221580158
7164475 11 18409446960517454798
7364860 26 17763180641348508251
81228 2 18408328782412892114

>  <PUBCHEM_SHAPE_MULTIPOLES>  (1) 
305.3
8.47
4.16
0.67
8.72
3.66
0
-2.54
-1.5
-6.97
-0.08
0.14
-0.02
-0.37

>  <PUBCHEM_SHAPE_SELFOVERLAP>  (1) 
556.529

>  <PUBCHEM_SHAPE_VOLUME>  (1) 
195.9

>  <PUBCHEM_COORDINATE_TYPE>  (1) 
2
5
10

$$$$
