35562
     RDKit          3D

 18 18  0  0  0  0  0  0  0  0999 V2000
    3.8518   -1.6614    1.4955 Cl  0  0  0  0  0  0  0  0  0  0  0  0
    1.7021   -2.9928    0.1123 Cl  0  0  0  0  0  0  0  0  0  0  0  0
    3.8040   -1.7549   -1.4294 Cl  0  0  0  0  0  0  0  0  0  0  0  0
   -1.8366   -1.2363    0.1174 O   0  0  0  0  0  0  0  0  0  0  0  0
   -3.4386    0.4303    0.0812 N   0  0  0  0  0  0  0  0  0  0  0  0
   -1.2220    1.0273    0.0214 N   0  0  0  0  0  0  0  0  0  0  0  0
    0.7373   -0.2477    0.0352 N   0  0  0  0  0  0  0  0  0  0  0  0
    0.8273    2.1486   -0.0542 N   0  0  0  0  0  0  0  0  0  0  0  0
    2.8586    0.8713   -0.0434 N   0  0  0  0  0  0  0  0  0  0  0  0
   -4.5879   -0.4403    0.1334 C   0  0  0  0  0  0  0  0  0  0  0  0
   -5.0081   -0.8473   -1.2730 C   0  0  0  0  0  0  0  0  0  0  0  0
   -5.7342    0.2315    0.8793 C   0  0  0  0  0  0  0  0  0  0  0  0
   -2.1208   -0.0416    0.0768 C   0  0  0  0  0  0  0  0  0  0  0  0
    0.1912    0.9730    0.0000 C   0  0  0  0  0  0  0  0  0  0  0  0
    2.0797   -0.2211    0.0102 C   0  0  0  0  0  0  0  0  0  0  0  0
    2.1638    2.0200   -0.0732 C   0  0  0  0  0  0  0  0  0  0  0  0
    2.7759   -1.5392    0.0444 C   0  0  0  0  0  0  0  0  0  0  0  0
    2.9565    3.2807   -0.1337 C   0  0  0  0  0  0  0  0  0  0  0  0
  1 17  1  0
  2 17  1  0
  3 17  1  0
  4 13  2  0
  5 10  1  0
  5 13  1  0
  6 13  1  0
  6 14  1  0
  7 14  2  0
  7 15  1  0
  8 14  1  0
  8 16  2  0
  9 15  2  0
  9 16  1  0
 10 11  1  0
 10 12  1  0
 15 17  1  0
 16 18  1  0
M  END
>  <PUBCHEM_COMPOUND_CID>  (1) 
35562

>  <PUBCHEM_CONFORMER_RMSD>  (1) 
0.6

>  <PUBCHEM_CONFORMER_DIVERSEORDER>  (1) 
1
15
29
17
37
13
27
31
38
23
3
22
25
21
33
26
14
7
16
30
34
18
9
28
6
10
36
11
19
35
32
8
12
20
4
5
24
2

>  <PUBCHEM_MMFF94_PARTIAL_CHARGES>  (1) 
18
1 -0.29
10 0.3
13 0.69
14 0.74
15 0.48
16 0.48
17 1.01
18 0.14
2 -0.29
20 0.37
27 0.37
3 -0.29
4 -0.57
5 -0.73
6 -0.55
7 -0.62
8 -0.62
9 -0.62

>  <PUBCHEM_EFFECTIVE_ROTOR_COUNT>  (1) 
5

>  <PUBCHEM_PHARMACOPHORE_FEATURES>  (1) 
7
1 4 acceptor
1 5 donor
1 6 donor
3 10 11 12 hydrophobe
3 7 9 15 cation
3 8 9 16 cation
6 7 8 9 14 15 16 rings

>  <PUBCHEM_HEAVY_ATOM_COUNT>  (1) 
18

>  <PUBCHEM_ATOM_DEF_STEREO_COUNT>  (1) 
0

>  <PUBCHEM_ATOM_UDEF_STEREO_COUNT>  (1) 
0

>  <PUBCHEM_BOND_DEF_STEREO_COUNT>  (1) 
0

>  <PUBCHEM_BOND_UDEF_STEREO_COUNT>  (1) 
0

>  <PUBCHEM_ISOTOPIC_ATOM_COUNT>  (1) 
0

>  <PUBCHEM_COMPONENT_COUNT>  (1) 
1

>  <PUBCHEM_CACTVS_TAUTO_COUNT>  (1) 
9

>  <PUBCHEM_CONFORMER_ID>  (1) 
00008AEA00000001

>  <PUBCHEM_MMFF94_ENERGY>  (1) 
29.7358

>  <PUBCHEM_FEATURE_SELFOVERLAP>  (1) 
36.496

>  <PUBCHEM_SHAPE_FINGERPRINT>  (1) 
10912923 1 18059859506556603777
11471102 20 18409165536568382389
12107183 9 17982462494996838657
12553582 1 18338516322510565382
12616971 3 18272371971527691899
12617007 42 18058747818401411390
12644460 14 18336271218534869256
12730499 353 18190191254877962673
13140716 1 18336543927499386850
13167823 11 18273215322600163439
13464513 79 18272370833082225558
13533116 47 18272368720253312139
13955234 65 18410012182144533864
14251717 144 18411133649608151215
14252887 29 18059292055034786146
15442244 35 18340491049936931761
15848700 24 18341048519459205910
17818456 19 17559124168499363065
18186145 218 17822008722887362427
18222031 100 18271804571286869926
20281475 54 18272083937961756063
20369508 70 18334009476019515010
20388580 30 18272098154045036742
20645477 70 18409167744408419287
20832881 197 18115870707170173403
20871998 22 18269554927847272094
21054139 6 17911508015383460645
221490 88 18336556017900896603
2255824 54 18410013256028502750
23559900 14 18410571807671610563
23598291 2 18200893780561180112
239999 70 18342184374989574918
3060560 45 18411986879680124358
3071541 37 18261679284997988276
312423 11 18270417030778658353
314173 41 18338525148747492910
33824 294 18336826502092862736
3421961 26 18409446960116171048
42630746 31 18412543249548455896
5104073 3 18410578418385844139
5281201 14 17967529078149595189
573450 72 17489870436781519971
59682541 52 18121184690492381671
6025842 7 18339077202410790157
633830 44 18333445444361835675
7364860 26 18413110584753222188
81228 2 17619342114029160120
81539 233 18189897702590593028
8272917 22 18412833507469458501
8863177 126 17896620521123631667
9709674 26 18337113466280585147
9841814 1 18334290946901543426

>  <PUBCHEM_SHAPE_MULTIPOLES>  (1) 
345.27
10.35
3.06
1.02
16.79
1.21
0.05
-3
-0.17
-4.72
0.13
-0.33
-0.54
-0.52

>  <PUBCHEM_SHAPE_SELFOVERLAP>  (1) 
669.491

>  <PUBCHEM_SHAPE_VOLUME>  (1) 
207.8

>  <PUBCHEM_COORDINATE_TYPE>  (1) 
2
5
10

$$$$
