35563
     RDKit          3D

 18 18  0  0  0  0  0  0  0  0999 V2000
   -1.9129   -2.7032    0.0011 O   0  0  0  0  0  0  0  0  0  0  0  0
   -3.0856    1.4988    0.0008 O   0  0  0  0  0  0  0  0  0  0  0  0
    3.6043   -0.2191    0.0015 O   0  0  0  0  0  0  0  0  0  0  0  0
    0.2595   -3.4645   -0.0015 O   0  0  0  0  0  0  0  0  0  0  0  0
   -1.6217    3.2752    0.0010 O   0  0  0  0  0  0  0  0  0  0  0  0
    3.1771    2.0428   -0.0003 O   0  0  0  0  0  0  0  0  0  0  0  0
   -1.2057   -0.2410   -0.0015 N   0  0  0  0  0  0  0  0  0  0  0  0
    1.1184   -0.8382   -0.0020 N   0  0  0  0  0  0  0  0  0  0  0  0
    0.4735    1.4731   -0.0014 N   0  0  0  0  0  0  0  0  0  0  0  0
   -0.1937   -1.1237   -0.0019 C   0  0  0  0  0  0  0  0  0  0  0  0
   -0.7969    1.0381   -0.0013 C   0  0  0  0  0  0  0  0  0  0  0  0
    1.3767    0.4795   -0.0019 C   0  0  0  0  0  0  0  0  0  0  0  0
   -0.5543   -2.5276   -0.0013 C   0  0  0  0  0  0  0  0  0  0  0  0
   -1.8324    2.0523    0.0006 C   0  0  0  0  0  0  0  0  0  0  0  0
    2.7725    0.8695   -0.0007 C   0  0  0  0  0  0  0  0  0  0  0  0
   -2.3953   -4.0511    0.0032 C   0  0  0  0  0  0  0  0  0  0  0  0
   -4.1964    2.4019    0.0015 C   0  0  0  0  0  0  0  0  0  0  0  0
    5.0129    0.0373    0.0042 C   0  0  0  0  0  0  0  0  0  0  0  0
  1 13  1  0
  1 16  1  0
  2 14  1  0
  2 17  1  0
  3 15  1  0
  3 18  1  0
  4 13  2  0
  5 14  2  0
  6 15  2  0
  7 10  2  0
  7 11  1  0
  8 10  1  0
  8 12  2  0
  9 11  2  0
  9 12  1  0
 10 13  1  0
 11 14  1  0
 12 15  1  0
M  END
>  <PUBCHEM_COMPOUND_CID>  (1) 
35563

>  <PUBCHEM_CONFORMER_RMSD>  (1) 
0.8

>  <PUBCHEM_CONFORMER_DIVERSEORDER>  (1) 
1
5
6
2
3
4

>  <PUBCHEM_MMFF94_PARTIAL_CHARGES>  (1) 
18
1 -0.43
10 0.71
11 0.71
12 0.71
13 0.63
14 0.63
15 0.63
16 0.28
17 0.28
18 0.28
2 -0.43
3 -0.43
4 -0.57
5 -0.57
6 -0.57
7 -0.62
8 -0.62
9 -0.62

>  <PUBCHEM_EFFECTIVE_ROTOR_COUNT>  (1) 
6

>  <PUBCHEM_PHARMACOPHORE_FEATURES>  (1) 
7
1 4 acceptor
1 5 acceptor
1 6 acceptor
3 7 8 10 cation
3 7 9 11 cation
3 8 9 12 cation
6 7 8 9 10 11 12 rings

>  <PUBCHEM_HEAVY_ATOM_COUNT>  (1) 
18

>  <PUBCHEM_ATOM_DEF_STEREO_COUNT>  (1) 
0

>  <PUBCHEM_ATOM_UDEF_STEREO_COUNT>  (1) 
0

>  <PUBCHEM_BOND_DEF_STEREO_COUNT>  (1) 
0

>  <PUBCHEM_BOND_UDEF_STEREO_COUNT>  (1) 
0

>  <PUBCHEM_ISOTOPIC_ATOM_COUNT>  (1) 
0

>  <PUBCHEM_COMPONENT_COUNT>  (1) 
1

>  <PUBCHEM_CACTVS_TAUTO_COUNT>  (1) 
1

>  <PUBCHEM_CONFORMER_ID>  (1) 
00008AEB00000001

>  <PUBCHEM_MMFF94_ENERGY>  (1) 
44.3231

>  <PUBCHEM_FEATURE_SELFOVERLAP>  (1) 
38.293

>  <PUBCHEM_SHAPE_FINGERPRINT>  (1) 
10319926 262 18198318802920021376
10411042 1 17978229692330019142
10756046 70 17531826721901752356
10967382 1 18194401078626079520
116883 192 18196378232630210950
12553582 1 17691123060385678710
12592029 89 18193559960878807760
12788726 201 18046059634520918242
13052359 8 18409163316223329571
13380535 76 18341894035231656444
138480 1 17113818492736525955
14178000 15 17547853418199973751
14178342 30 18264466517299597690
14866123 147 18409445869427450562
15042514 8 18409451418171119275
15442244 35 17619637225300390091
17539 30 18269828890630978191
18915476 22 17756973520585362093
19591789 44 18122347869771236662
20510252 161 18270119166058644056
20645477 70 17829885439669290381
20711985 365 18338236097696041102
21029758 11 17762329615085674271
21478907 32 18266456688268479523
21524375 3 18187931603790382528
2255824 54 17763463920411832903
23402539 116 18342728594474710364
23419403 2 16840560437224817527
23530152 11 18338518521754977191
23557571 272 18054804029227941124
23558518 356 18189335843679885256
23559900 14 18272087176863092784
2748010 2 18193014628902443591
3071541 12 17547011827700200840
3071541 37 18047760299345732588
3091708 16 9199718792999194075
33824 294 18192997007121230529
352729 6 18411421708685129204
366044 4 18337671910444151784
43471831 8 18121780517397118272
474229 33 18409169887945357177
54173680 148 18338516468422947531
58051976 378 18268707208508705093
58779409 54 18339067306621601807
58779409 8 18409455764751785239
6025842 7 18050277069426441565
6138700 20 17763750893285013926
68521 5 18050009084102704654
7164475 11 18192714668655451612
7364860 26 17762338015930584481
81228 2 18045777051010167240
81539 233 18117840988841469749
9709674 26 18272091604388923398

>  <PUBCHEM_SHAPE_MULTIPOLES>  (1) 
320.27
6.51
4.71
0.57
5.53
4.22
0
-3.65
-0.01
-5.57
0
-0.01
0.01
0

>  <PUBCHEM_SHAPE_SELFOVERLAP>  (1) 
664.97

>  <PUBCHEM_SHAPE_VOLUME>  (1) 
179.2

>  <PUBCHEM_COORDINATE_TYPE>  (1) 
2
5
10

$$$$
