35575
     RDKit          3D

 15 15  0  0  0  0  0  0  0  0999 V2000
    2.9397   -1.2456    1.6258 Cl  0  0  0  0  0  0  0  0  0  0  0  0
    1.2363   -2.8910   -0.0167 Cl  0  0  0  0  0  0  0  0  0  0  0  0
    3.2068   -1.2099   -1.2885 Cl  0  0  0  0  0  0  0  0  0  0  0  0
   -2.3531    0.5125   -0.3067 O   0  0  0  0  0  0  0  0  0  0  0  0
   -0.2241   -0.3753   -0.1232 N   0  0  0  0  0  0  0  0  0  0  0  0
   -0.5867    1.9966   -0.1365 N   0  0  0  0  0  0  0  0  0  0  0  0
    1.6403    1.1244    0.0563 N   0  0  0  0  0  0  0  0  0  0  0  0
   -2.8737   -0.6785    0.2757 C   0  0  0  0  0  0  0  0  0  0  0  0
   -4.2972   -0.4243    0.7478 C   0  0  0  0  0  0  0  0  0  0  0  0
   -2.8076   -1.8051   -0.7442 C   0  0  0  0  0  0  0  0  0  0  0  0
   -1.0051    0.7186   -0.1846 C   0  0  0  0  0  0  0  0  0  0  0  0
    1.0839   -0.0961   -0.0038 C   0  0  0  0  0  0  0  0  0  0  0  0
    0.7447    2.1223   -0.0161 C   0  0  0  0  0  0  0  0  0  0  0  0
    2.0127   -1.2599    0.0705 C   0  0  0  0  0  0  0  0  0  0  0  0
    1.2831    3.5113    0.0440 C   0  0  0  0  0  0  0  0  0  0  0  0
  1 14  1  0
  2 14  1  0
  3 14  1  0
  4  8  1  0
  4 11  1  0
  5 11  2  0
  5 12  1  0
  6 11  1  0
  6 13  2  0
  7 12  2  0
  7 13  1  0
  8  9  1  0
  8 10  1  0
 12 14  1  0
 13 15  1  0
M  END
>  <PUBCHEM_COMPOUND_CID>  (1) 
35575

>  <PUBCHEM_CONFORMER_RMSD>  (1) 
0.6

>  <PUBCHEM_CONFORMER_DIVERSEORDER>  (1) 
1
14
4
17
9
18
10
3
15
6
20
13
2
12
19
16
5
8
11
7

>  <PUBCHEM_MMFF94_PARTIAL_CHARGES>  (1) 
13
1 -0.29
11 0.7
12 0.48
13 0.48
14 1.01
15 0.14
2 -0.29
3 -0.29
4 -0.36
5 -0.62
6 -0.62
7 -0.62
8 0.28

>  <PUBCHEM_EFFECTIVE_ROTOR_COUNT>  (1) 
3

>  <PUBCHEM_PHARMACOPHORE_FEATURES>  (1) 
5
3 5 6 11 cation
3 5 7 12 cation
3 6 7 13 cation
3 8 9 10 hydrophobe
6 5 6 7 11 12 13 rings

>  <PUBCHEM_HEAVY_ATOM_COUNT>  (1) 
15

>  <PUBCHEM_ATOM_DEF_STEREO_COUNT>  (1) 
0

>  <PUBCHEM_ATOM_UDEF_STEREO_COUNT>  (1) 
0

>  <PUBCHEM_BOND_DEF_STEREO_COUNT>  (1) 
0

>  <PUBCHEM_BOND_UDEF_STEREO_COUNT>  (1) 
0

>  <PUBCHEM_ISOTOPIC_ATOM_COUNT>  (1) 
0

>  <PUBCHEM_COMPONENT_COUNT>  (1) 
1

>  <PUBCHEM_CACTVS_TAUTO_COUNT>  (1) 
1

>  <PUBCHEM_CONFORMER_ID>  (1) 
00008AF700000001

>  <PUBCHEM_MMFF94_ENERGY>  (1) 
31.8688

>  <PUBCHEM_FEATURE_SELFOVERLAP>  (1) 
28.133

>  <PUBCHEM_SHAPE_FINGERPRINT>  (1) 
12553582 1 18410855421716601543
13380535 76 17763178442267340924
13538477 17 17756711832385242214
14252887 29 18272656722889573610
15375462 189 18261116253086663091
15490181 8 17763461016634126252
16945 1 18267860592796644148
17990270 104 18411698824365025407
20645477 70 18265326382426356695
20871998 22 18341333284227708950
21524375 3 17618777398327338708
21665056 4 16751844936787868974
2255824 54 18337675337864652423
23419403 2 17535426510133641972
23530152 11 17833836344922879996
23557571 272 18053372207300296258
23598291 2 18202007676635512063
23598294 1 18122068593696105179
2748010 2 18268132198192099500
3071541 250 18339658783937772188
33824 294 17975974585855285035
352729 6 17257652218699597581
5902787 121 18334287669440849131
7364860 26 18270123542366847108
81228 2 17906724804769253456
81539 233 17972873945410307997

>  <PUBCHEM_SHAPE_MULTIPOLES>  (1) 
293.49
5.62
3.36
1.02
4.73
2.3
-0.17
-3.31
-0.65
-1.8
0.14
-0.71
-0.47
-0.15

>  <PUBCHEM_SHAPE_SELFOVERLAP>  (1) 
564.675

>  <PUBCHEM_SHAPE_VOLUME>  (1) 
179.2

>  <PUBCHEM_COORDINATE_TYPE>  (1) 
2
5
10

$$$$
