35574
     RDKit          3D

 14 14  0  0  0  0  0  0  0  0999 V2000
   -3.0025    0.9897    1.4671 Cl  0  0  0  0  0  0  0  0  0  0  0  0
   -1.3587    2.8423   -0.0069 Cl  0  0  0  0  0  0  0  0  0  0  0  0
   -3.0098    0.9739   -1.4595 Cl  0  0  0  0  0  0  0  0  0  0  0  0
    2.6021   -0.1350   -0.0037 O   0  0  0  0  0  0  0  0  0  0  0  0
    0.3790    0.5069   -0.0023 N   0  0  0  0  0  0  0  0  0  0  0  0
   -1.3136   -1.1939    0.0013 N   0  0  0  0  0  0  0  0  0  0  0  0
    1.0058   -1.8093   -0.0005 N   0  0  0  0  0  0  0  0  0  0  0  0
   -0.8948    0.0819   -0.0006 C   0  0  0  0  0  0  0  0  0  0  0  0
    1.2744   -0.4936   -0.0023 C   0  0  0  0  0  0  0  0  0  0  0  0
   -0.3085   -2.0845    0.0012 C   0  0  0  0  0  0  0  0  0  0  0  0
    2.8840    1.2572   -0.0056 C   0  0  0  0  0  0  0  0  0  0  0  0
   -1.9514    1.1336   -0.0002 C   0  0  0  0  0  0  0  0  0  0  0  0
   -0.6905   -3.5256    0.0037 C   0  0  0  0  0  0  0  0  0  0  0  0
    4.3846    1.4565    0.0082 C   0  0  0  0  0  0  0  0  0  0  0  0
  1 12  1  0
  2 12  1  0
  3 12  1  0
  4  9  1  0
  4 11  1  0
  5  8  2  0
  5  9  1  0
  6  8  1  0
  6 10  2  0
  7  9  2  0
  7 10  1  0
  8 12  1  0
 10 13  1  0
 11 14  1  0
M  END
>  <PUBCHEM_COMPOUND_CID>  (1) 
35574

>  <PUBCHEM_CONFORMER_RMSD>  (1) 
0.6

>  <PUBCHEM_CONFORMER_DIVERSEORDER>  (1) 
1
4
8
9
6
7
5
2
11
10
12
3

>  <PUBCHEM_MMFF94_PARTIAL_CHARGES>  (1) 
13
1 -0.29
10 0.48
11 0.28
12 1.01
13 0.14
2 -0.29
3 -0.29
4 -0.36
5 -0.62
6 -0.62
7 -0.62
8 0.48
9 0.7

>  <PUBCHEM_EFFECTIVE_ROTOR_COUNT>  (1) 
3

>  <PUBCHEM_PHARMACOPHORE_FEATURES>  (1) 
4
3 5 6 8 cation
3 5 7 9 cation
3 6 7 10 cation
6 5 6 7 8 9 10 rings

>  <PUBCHEM_HEAVY_ATOM_COUNT>  (1) 
14

>  <PUBCHEM_ATOM_DEF_STEREO_COUNT>  (1) 
0

>  <PUBCHEM_ATOM_UDEF_STEREO_COUNT>  (1) 
0

>  <PUBCHEM_BOND_DEF_STEREO_COUNT>  (1) 
0

>  <PUBCHEM_BOND_UDEF_STEREO_COUNT>  (1) 
0

>  <PUBCHEM_ISOTOPIC_ATOM_COUNT>  (1) 
0

>  <PUBCHEM_COMPONENT_COUNT>  (1) 
1

>  <PUBCHEM_CACTVS_TAUTO_COUNT>  (1) 
1

>  <PUBCHEM_CONFORMER_ID>  (1) 
00008AF600000001

>  <PUBCHEM_MMFF94_ENERGY>  (1) 
26.7947

>  <PUBCHEM_FEATURE_SELFOVERLAP>  (1) 
23.07

>  <PUBCHEM_SHAPE_FINGERPRINT>  (1) 
1 1 18194122910663677038
13380535 76 18413383237782607022
13583140 156 17022894666498778240
14648413 74 17688030808222768849
15309172 13 18410018710494751905
15490181 7 18266747878592725335
15490181 8 18194395598253409483
15775835 57 18130508526740363273
16945 1 18050286964418947015
1741750 31 18343303703960055296
17841504 4 17472150475038113603
18186145 218 18271250421937527524
18380122 1 18042705913623993545
20510252 161 18268711782553605034
20645477 56 18338523036114083124
21160774 45 18337388361404250207
21499 59 18337664235442920213
21524375 3 18272080565916757838
228727 97 17845637176112960869
23402539 116 18199743824732423439
23419403 2 11121060503247861379
23552423 10 17908695138475289277
23557571 272 17984438579184438308
23598294 1 18263921219134333202
2748010 2 18336559234731051079
3071541 12 17979637827569749398
3071541 236 18263907986102820930
31174 14 17689177625052619617
6333449 129 18339923826343039368
7364860 26 17835240051909552654
81228 2 18122350343609134754

>  <PUBCHEM_SHAPE_MULTIPOLES>  (1) 
272.91
5.35
3.36
0.95
4.97
2.52
0
-4.45
-0.01
-0.62
0
-1.07
-0.32
0

>  <PUBCHEM_SHAPE_SELFOVERLAP>  (1) 
523.469

>  <PUBCHEM_SHAPE_VOLUME>  (1) 
167

>  <PUBCHEM_COORDINATE_TYPE>  (1) 
2
5
10

$$$$
