35582
     RDKit          3D

 18 18  0  0  0  0  0  0  0  0999 V2000
    0.4273   -3.2733    1.6252 Cl  0  0  0  0  0  0  0  0  0  0  0  0
   -1.9486   -3.1603   -0.0026 Cl  0  0  0  0  0  0  0  0  0  0  0  0
    0.6171   -3.4568   -1.2896 Cl  0  0  0  0  0  0  0  0  0  0  0  0
    3.7584    0.5416   -1.3603 Cl  0  0  0  0  0  0  0  0  0  0  0  0
    2.8861    2.9800   -0.0954 Cl  0  0  0  0  0  0  0  0  0  0  0  0
    3.5779    0.7167    1.5555 Cl  0  0  0  0  0  0  0  0  0  0  0  0
   -1.9165    1.7848   -0.3145 O   0  0  0  0  0  0  0  0  0  0  0  0
    0.3750    1.5091   -0.1578 N   0  0  0  0  0  0  0  0  0  0  0  0
   -1.1095   -0.3758   -0.1267 N   0  0  0  0  0  0  0  0  0  0  0  0
    1.2605   -0.7123    0.0390 N   0  0  0  0  0  0  0  0  0  0  0  0
   -3.1382    1.3541    0.2777 C   0  0  0  0  0  0  0  0  0  0  0  0
   -3.9218    2.5694    0.7495 C   0  0  0  0  0  0  0  0  0  0  0  0
   -3.9223    0.5318   -0.7337 C   0  0  0  0  0  0  0  0  0  0  0  0
   -0.8443    0.9416   -0.1956 C   0  0  0  0  0  0  0  0  0  0  0  0
    1.3770    0.6231   -0.0400 C   0  0  0  0  0  0  0  0  0  0  0  0
   -0.0113   -1.1398   -0.0110 C   0  0  0  0  0  0  0  0  0  0  0  0
   -0.2264   -2.6128    0.0712 C   0  0  0  0  0  0  0  0  0  0  0  0
    2.7597    1.1789    0.0089 C   0  0  0  0  0  0  0  0  0  0  0  0
  1 17  1  0
  2 17  1  0
  3 17  1  0
  4 18  1  0
  5 18  1  0
  6 18  1  0
  7 11  1  0
  7 14  1  0
  8 14  2  0
  8 15  1  0
  9 14  1  0
  9 16  2  0
 10 15  2  0
 10 16  1  0
 11 12  1  0
 11 13  1  0
 15 18  1  0
 16 17  1  0
M  END
>  <PUBCHEM_COMPOUND_CID>  (1) 
35582

>  <PUBCHEM_CONFORMER_RMSD>  (1) 
0.6

>  <PUBCHEM_CONFORMER_DIVERSEORDER>  (1) 
1
16
17
8
12
5
14
15
2
10
9
3
6
13
7
4
11

>  <PUBCHEM_MMFF94_PARTIAL_CHARGES>  (1) 
16
1 -0.29
10 -0.62
11 0.28
14 0.7
15 0.48
16 0.48
17 1.01
18 1.01
2 -0.29
3 -0.29
4 -0.29
5 -0.29
6 -0.29
7 -0.36
8 -0.62
9 -0.62

>  <PUBCHEM_EFFECTIVE_ROTOR_COUNT>  (1) 
4

>  <PUBCHEM_PHARMACOPHORE_FEATURES>  (1) 
5
3 11 12 13 hydrophobe
3 8 10 15 cation
3 8 9 14 cation
3 9 10 16 cation
6 8 9 10 14 15 16 rings

>  <PUBCHEM_HEAVY_ATOM_COUNT>  (1) 
18

>  <PUBCHEM_ATOM_DEF_STEREO_COUNT>  (1) 
0

>  <PUBCHEM_ATOM_UDEF_STEREO_COUNT>  (1) 
0

>  <PUBCHEM_BOND_DEF_STEREO_COUNT>  (1) 
0

>  <PUBCHEM_BOND_UDEF_STEREO_COUNT>  (1) 
0

>  <PUBCHEM_ISOTOPIC_ATOM_COUNT>  (1) 
0

>  <PUBCHEM_COMPONENT_COUNT>  (1) 
1

>  <PUBCHEM_CACTVS_TAUTO_COUNT>  (1) 
1

>  <PUBCHEM_CONFORMER_ID>  (1) 
00008AFE00000001

>  <PUBCHEM_MMFF94_ENERGY>  (1) 
35.9695

>  <PUBCHEM_FEATURE_SELFOVERLAP>  (1) 
28.133

>  <PUBCHEM_SHAPE_FINGERPRINT>  (1) 
116883 192 17980488085054998150
12532896 13 18409449227985594620
12553582 1 17258776443869972614
12788726 201 17904197379776705090
13140716 1 18408882914872242832
13380535 76 18411412912623807519
13583140 156 17168418376177662153
14022347 108 17685508928170707938
14022349 108 18048019792917258066
15309172 13 18335139786937229633
15502708 68 18265608797315089817
15906896 17 18193274315494503762
16752209 62 18265048227021645602
16945 1 18267583696550554550
18186145 218 18271806782994963548
19591789 44 18409455751835370807
20510252 161 18124599944404501505
20645476 183 17604157037830758006
20645477 70 18120651323978308053
20671657 1 18337668598992497210
20711985 344 18048042058185981950
21285901 2 17840885279683225847
21524375 3 18409722963172684052
21731228 192 18409726266055451464
2255824 54 18050008783908849831
2334 1 18337952401793866590
23419403 2 17180872376839337730
23526113 38 17632301211107699568
23557571 272 17906176505424071604
23558518 356 18191588760068925428
23559900 14 18343309184871419380
23598291 2 17697874779261256133
25147074 1 17897150546074019344
2748010 2 18339655519625516046
3060560 45 18336266751969542948
3071541 236 18263352762689777680
3071541 250 17620768184245677734
3091708 16 9194095890745724665
33824 294 18336546002632793505
34934 24 17402046098845406342
352729 6 18338800121132849517
458136 41 18193293917725060737
58807428 26 18264473036442664176
6138700 20 18124323697168420526
633830 44 18272653424328726069
7364860 26 17982449300134332359
81228 2 17975413834423621560
81539 233 18188491255293037301
84936 182 17986950748094325657
9841814 1 17614287663154632339

>  <PUBCHEM_SHAPE_MULTIPOLES>  (1) 
360.84
6.26
4.6
1.22
0.09
3.4
-0.21
-6.14
0.04
-2.25
-0.37
0.77
0.66
-0.26

>  <PUBCHEM_SHAPE_SELFOVERLAP>  (1) 
676.596

>  <PUBCHEM_SHAPE_VOLUME>  (1) 
224.9

>  <PUBCHEM_COORDINATE_TYPE>  (1) 
2
5
10

$$$$
