35583
     RDKit          3D

 19 19  0  0  0  0  0  0  0  0999 V2000
   -1.8962   -3.1733   -1.4652 Cl  0  0  0  0  0  0  0  0  0  0  0  0
    0.5418   -3.6204    0.0055 Cl  0  0  0  0  0  0  0  0  0  0  0  0
   -1.9076   -3.1647    1.4614 Cl  0  0  0  0  0  0  0  0  0  0  0  0
   -3.8778    1.5235    1.4635 Cl  0  0  0  0  0  0  0  0  0  0  0  0
   -2.4950    3.5812   -0.0063 Cl  0  0  0  0  0  0  0  0  0  0  0  0
   -3.8775    1.5091   -1.4631 Cl  0  0  0  0  0  0  0  0  0  0  0  0
    1.8294    1.1644   -0.0007 O   0  0  0  0  0  0  0  0  0  0  0  0
   -0.4594    1.5006   -0.0007 N   0  0  0  0  0  0  0  0  0  0  0  0
    0.4730   -0.7103    0.0003 N   0  0  0  0  0  0  0  0  0  0  0  0
   -1.9080   -0.4124   -0.0001 N   0  0  0  0  0  0  0  0  0  0  0  0
    4.2197    1.0264    0.0197 C   0  0  0  0  0  0  0  0  0  0  0  0
    5.4311    0.0985    0.0054 C   0  0  0  0  0  0  0  0  0  0  0  0
    2.9134    0.2457    0.0001 C   0  0  0  0  0  0  0  0  0  0  0  0
    6.7334    0.8827   -0.0184 C   0  0  0  0  0  0  0  0  0  0  0  0
    0.5666    0.6311   -0.0001 C   0  0  0  0  0  0  0  0  0  0  0  0
   -1.6645    0.9082   -0.0006 C   0  0  0  0  0  0  0  0  0  0  0  0
   -0.7924   -1.1597    0.0005 C   0  0  0  0  0  0  0  0  0  0  0  0
   -0.9773   -2.6391    0.0007 C   0  0  0  0  0  0  0  0  0  0  0  0
   -2.8529    1.8084   -0.0017 C   0  0  0  0  0  0  0  0  0  0  0  0
  1 18  1  0
  2 18  1  0
  3 18  1  0
  4 19  1  0
  5 19  1  0
  6 19  1  0
  7 13  1  0
  7 15  1  0
  8 15  2  0
  8 16  1  0
  9 15  1  0
  9 17  2  0
 10 16  2  0
 10 17  1  0
 11 12  1  0
 11 13  1  0
 12 14  1  0
 16 19  1  0
 17 18  1  0
M  END
>  <PUBCHEM_COMPOUND_CID>  (1) 
35583

>  <PUBCHEM_CONFORMER_RMSD>  (1) 
0.8

>  <PUBCHEM_CONFORMER_DIVERSEORDER>  (1) 
1
15
13
7
10
18
14
3
11
8
6
16
4
5
2
12
17
9

>  <PUBCHEM_MMFF94_PARTIAL_CHARGES>  (1) 
16
1 -0.29
10 -0.62
13 0.28
15 0.7
16 0.48
17 0.48
18 1.01
19 1.01
2 -0.29
3 -0.29
4 -0.29
5 -0.29
6 -0.29
7 -0.36
8 -0.62
9 -0.62

>  <PUBCHEM_EFFECTIVE_ROTOR_COUNT>  (1) 
6

>  <PUBCHEM_PHARMACOPHORE_FEATURES>  (1) 
5
1 14 hydrophobe
3 8 10 16 cation
3 8 9 15 cation
3 9 10 17 cation
6 8 9 10 15 16 17 rings

>  <PUBCHEM_HEAVY_ATOM_COUNT>  (1) 
19

>  <PUBCHEM_ATOM_DEF_STEREO_COUNT>  (1) 
0

>  <PUBCHEM_ATOM_UDEF_STEREO_COUNT>  (1) 
0

>  <PUBCHEM_BOND_DEF_STEREO_COUNT>  (1) 
0

>  <PUBCHEM_BOND_UDEF_STEREO_COUNT>  (1) 
0

>  <PUBCHEM_ISOTOPIC_ATOM_COUNT>  (1) 
0

>  <PUBCHEM_COMPONENT_COUNT>  (1) 
1

>  <PUBCHEM_CACTVS_TAUTO_COUNT>  (1) 
1

>  <PUBCHEM_CONFORMER_ID>  (1) 
00008AFF00000001

>  <PUBCHEM_MMFF94_ENERGY>  (1) 
30.3221

>  <PUBCHEM_FEATURE_SELFOVERLAP>  (1) 
28.137

>  <PUBCHEM_SHAPE_FINGERPRINT>  (1) 
10411042 1 17906172111161220814
11357001 24 18263932205275736058
12500047 106 18412541016423905368
12553582 1 17690289630476794518
12788726 201 18264474238770457723
13052359 8 18335420192213531715
13140716 1 18193849355844056665
13257819 101 16806709695562799141
13583140 156 17095241410403787865
14251740 79 18265880518690240071
14508225 48 18053650658213985621
14790565 3 18123755249387704656
15042514 8 18263934387351010131
16752209 62 18266162006652234746
167882 2 18120367649387530462
16945 1 17906171755242502235
17539 30 18199175377152233167
20101258 96 18120385512357124192
20602899 9 16271920540888522278
20645477 56 18410858750590588392
21426921 1 18339360876721791100
21524375 3 18340768152626041129
22182313 1 18200616742808101502
22224240 67 18340781360157262545
23402539 116 18271801371810255445
23419403 2 17053639163680070223
23559900 14 18273217483337789892
23598288 3 18190189072818259502
23728640 28 18410013277445661498
2748010 2 18265631900366200639
3071541 12 17690561888253084845
3091708 16 9198032120845630795
352729 6 18410016558710803245
3759504 43 18260546714484221255
474229 33 18409452479602950345
532947 4 18052822447086446398
559249 180 18335132086635653602
58779409 54 18341039834729190102
59755656 520 18202569449461977793
633830 44 17983859982095614397
7364860 26 17764024666925770509
77188 2 17689718983878519263
81228 2 18051402161467410641
9709674 26 18272656753481625334

>  <PUBCHEM_SHAPE_MULTIPOLES>  (1) 
381.42
9.63
4.55
1.12
21.73
3.67
0
-7.71
0.02
-4.62
0
-1.44
0.44
0

>  <PUBCHEM_SHAPE_SELFOVERLAP>  (1) 
711.16

>  <PUBCHEM_SHAPE_VOLUME>  (1) 
238.2

>  <PUBCHEM_COORDINATE_TYPE>  (1) 
2
5
10

$$$$
