35589
     RDKit          3D

 19 20  0  0  0  0  0  0  0  0999 V2000
   -2.4952   -2.6265    1.6232 Cl  0  0  0  0  0  0  0  0  0  0  0  0
   -4.5419   -1.3079    0.0808 Cl  0  0  0  0  0  0  0  0  0  0  0  0
   -2.4898   -2.7955   -1.2986 Cl  0  0  0  0  0  0  0  0  0  0  0  0
    6.1132   -0.4671    0.0154 Cl  0  0  0  0  0  0  0  0  0  0  0  0
   -2.0756    2.9826   -0.1660 O   0  0  0  0  0  0  0  0  0  0  0  0
   -0.5421   -0.7670    0.0436 N   0  0  0  0  0  0  0  0  0  0  0  0
   -0.2170    1.6067   -0.0914 N   0  0  0  0  0  0  0  0  0  0  0  0
   -2.4384    0.7013   -0.0346 N   0  0  0  0  0  0  0  0  0  0  0  0
    1.6442    0.1434   -0.0125 C   0  0  0  0  0  0  0  0  0  0  0  0
    0.2106    0.3392   -0.0208 C   0  0  0  0  0  0  0  0  0  0  0  0
    2.1922   -1.0201   -0.5524 C   0  0  0  0  0  0  0  0  0  0  0  0
    2.4781    1.1179    0.5359 C   0  0  0  0  0  0  0  0  0  0  0  0
   -1.8598   -0.5085    0.0322 C   0  0  0  0  0  0  0  0  0  0  0  0
    3.5742   -1.2093   -0.5436 C   0  0  0  0  0  0  0  0  0  0  0  0
    3.8601    0.9288    0.5447 C   0  0  0  0  0  0  0  0  0  0  0  0
   -1.5557    1.7113   -0.0941 C   0  0  0  0  0  0  0  0  0  0  0  0
    4.4082   -0.2348    0.0047 C   0  0  0  0  0  0  0  0  0  0  0  0
   -2.7733   -1.6849    0.1020 C   0  0  0  0  0  0  0  0  0  0  0  0
   -3.4918    3.0903   -0.1686 C   0  0  0  0  0  0  0  0  0  0  0  0
  1 18  1  0
  2 18  1  0
  3 18  1  0
  4 17  1  0
  5 16  1  0
  5 19  1  0
  6 10  2  0
  6 13  1  0
  7 10  1  0
  7 16  2  0
  8 13  2  0
  8 16  1  0
  9 10  1  0
  9 11  2  0
  9 12  1  0
 11 14  1  0
 12 15  2  0
 13 18  1  0
 14 17  2  0
 15 17  1  0
M  END
>  <PUBCHEM_COMPOUND_CID>  (1) 
35589

>  <PUBCHEM_CONFORMER_RMSD>  (1) 
0.6

>  <PUBCHEM_CONFORMER_DIVERSEORDER>  (1) 
1
6
4
7
2
5
3
8

>  <PUBCHEM_MMFF94_PARTIAL_CHARGES>  (1) 
22
1 -0.29
10 0.62
11 -0.15
12 -0.15
13 0.48
14 -0.15
15 -0.15
16 0.7
17 0.18
18 1.01
19 0.28
2 -0.29
20 0.15
21 0.15
22 0.15
23 0.15
3 -0.29
4 -0.18
5 -0.36
6 -0.62
7 -0.62
8 -0.62

>  <PUBCHEM_EFFECTIVE_ROTOR_COUNT>  (1) 
3

>  <PUBCHEM_PHARMACOPHORE_FEATURES>  (1) 
5
3 6 7 10 cation
3 6 8 13 cation
3 7 8 16 cation
6 6 7 8 10 13 16 rings
6 9 11 12 14 15 17 rings

>  <PUBCHEM_HEAVY_ATOM_COUNT>  (1) 
19

>  <PUBCHEM_ATOM_DEF_STEREO_COUNT>  (1) 
0

>  <PUBCHEM_ATOM_UDEF_STEREO_COUNT>  (1) 
0

>  <PUBCHEM_BOND_DEF_STEREO_COUNT>  (1) 
0

>  <PUBCHEM_BOND_UDEF_STEREO_COUNT>  (1) 
0

>  <PUBCHEM_ISOTOPIC_ATOM_COUNT>  (1) 
0

>  <PUBCHEM_COMPONENT_COUNT>  (1) 
1

>  <PUBCHEM_CACTVS_TAUTO_COUNT>  (1) 
1

>  <PUBCHEM_CONFORMER_ID>  (1) 
00008B0500000001

>  <PUBCHEM_MMFF94_ENERGY>  (1) 
49.1622

>  <PUBCHEM_FEATURE_SELFOVERLAP>  (1) 
28.155

>  <PUBCHEM_SHAPE_FINGERPRINT>  (1) 
10319926 262 18267847442656544754
10608611 8 18342171155396794240
10616163 171 18410856547082442086
11578080 2 17130686457448683633
12363563 72 18118692247043814923
12403259 415 17988635320847404208
12500047 106 18339075969818609460
12507560 40 18272363196741026112
12532896 13 18191588545341718053
12553582 1 18050861201414638135
12788726 201 18335412461652194635
13140716 1 18193003827407691713
13760787 19 18188773834630146450
14115302 16 17531813583602217263
14178342 30 18261663788718606440
14508225 48 18336816598178282333
15042514 8 18408328770082098825
15196674 1 18412262814338809804
15885798 251 18263652921323060163
18927931 339 18411142458934495046
19141452 34 18059015102748458599
200 152 17775564260159876231
20510252 161 18341895173561708817
20600515 1 17389922771847202985
20602899 9 16128076880856161605
20645477 56 18337674092198068684
21065198 57 18341047428954127064
21236236 1 18341894061444805545
21267235 1 18410581716198501218
21339142 126 18341891935130019615
21524375 3 17976259037159779853
221490 88 18411985797553885840
22182313 1 17988656142500604894
2306618 200 18131637780968672083
23402539 116 18336539507930481814
23557571 272 18413395319530924444
23559900 14 18411410744013762064
2871803 45 18409162238287011878
350125 39 18341897428567426824
4214541 1 18411418371928284208
5104073 3 18341045247216158688
559249 180 18264202513902063842
573450 72 18188198811444574130
59755656 520 18189894206423910637
6992083 37 17985279697105978403
81228 2 18334576862932771937
9709674 26 18342741771687289726

>  <PUBCHEM_SHAPE_MULTIPOLES>  (1) 
377.68
9.94
3.19
0.93
11.36
1.42
0.13
-2.48
0.26
-5.03
-0.16
-0.48
-0.67
0.69

>  <PUBCHEM_SHAPE_SELFOVERLAP>  (1) 
768.057

>  <PUBCHEM_SHAPE_VOLUME>  (1) 
220.7

>  <PUBCHEM_COORDINATE_TYPE>  (1) 
2
5
10

$$$$
