35586
     RDKit          3D

 27 27  0  0  0  0  0  0  0  0999 V2000
    5.6047   -3.1833    1.4605 Cl  0  0  0  0  0  0  0  0  0  0  0  0
    3.1664   -3.6303   -0.0099 Cl  0  0  0  0  0  0  0  0  0  0  0  0
    5.6141   -3.1662   -1.4661 Cl  0  0  0  0  0  0  0  0  0  0  0  0
    7.5757    1.5246   -1.4575 Cl  0  0  0  0  0  0  0  0  0  0  0  0
    6.1909    3.5765    0.0186 Cl  0  0  0  0  0  0  0  0  0  0  0  0
    7.5784    1.5034    1.4691 Cl  0  0  0  0  0  0  0  0  0  0  0  0
    1.8741    1.1493    0.0075 O   0  0  0  0  0  0  0  0  0  0  0  0
    4.1588    1.4923    0.0088 N   0  0  0  0  0  0  0  0  0  0  0  0
    3.2303   -0.7203    0.0027 N   0  0  0  0  0  0  0  0  0  0  0  0
    5.6108   -0.4180    0.0035 N   0  0  0  0  0  0  0  0  0  0  0  0
   -5.6084    0.6995   -0.0230 C   0  0  0  0  0  0  0  0  0  0  0  0
   -6.8494   -0.1997   -0.0064 C   0  0  0  0  0  0  0  0  0  0  0  0
   -4.2931   -0.0831   -0.0281 C   0  0  0  0  0  0  0  0  0  0  0  0
   -8.2001    0.5201   -0.0901 C   0  0  0  0  0  0  0  0  0  0  0  0
   -3.0530    0.8166   -0.0321 C   0  0  0  0  0  0  0  0  0  0  0  0
   -9.4003   -0.4266   -0.0092 C   0  0  0  0  0  0  0  0  0  0  0  0
   -1.7368    0.0353   -0.0126 C   0  0  0  0  0  0  0  0  0  0  0  0
  -10.7487    0.3012   -0.0042 C   0  0  0  0  0  0  0  0  0  0  0  0
   -0.5319    0.9817    0.0110 C   0  0  0  0  0  0  0  0  0  0  0  0
  -11.9494   -0.6396    0.1035 C   0  0  0  0  0  0  0  0  0  0  0  0
    0.7928    0.2284    0.0044 C   0  0  0  0  0  0  0  0  0  0  0  0
  -13.2617    0.1264    0.0277 C   0  0  0  0  0  0  0  0  0  0  0  0
    3.1386    0.6194    0.0065 C   0  0  0  0  0  0  0  0  0  0  0  0
    5.3649    0.9020    0.0074 C   0  0  0  0  0  0  0  0  0  0  0  0
    4.4965   -1.1674    0.0015 C   0  0  0  0  0  0  0  0  0  0  0  0
    4.6839   -2.6464   -0.0032 C   0  0  0  0  0  0  0  0  0  0  0  0
    6.5517    1.8043    0.0094 C   0  0  0  0  0  0  0  0  0  0  0  0
  1 26  1  0
  2 26  1  0
  3 26  1  0
  4 27  1  0
  5 27  1  0
  6 27  1  0
  7 21  1  0
  7 23  1  0
  8 23  2  0
  8 24  1  0
  9 23  1  0
  9 25  2  0
 10 24  2  0
 10 25  1  0
 11 12  1  0
 11 13  1  0
 12 14  1  0
 13 15  1  0
 14 16  1  0
 15 17  1  0
 16 18  1  0
 17 19  1  0
 18 20  1  0
 19 21  1  0
 20 22  1  0
 24 27  1  0
 25 26  1  0
M  END
>  <PUBCHEM_COMPOUND_CID>  (1) 
35586

>  <PUBCHEM_CONFORMER_RMSD>  (1) 
1.4

>  <PUBCHEM_CONFORMER_DIVERSEORDER>  (1) 
1
31
37
13
33
50
15
57
16
7
32
48
55
53
17
44
49
4
38
39
43
10
45
21
25
46
22
24
28
8
23
42
9
51
27
18
2
30
3
6
11
47
35
20
41
56
29
40
54
26
14
5
36
52
34
12
19

>  <PUBCHEM_MMFF94_PARTIAL_CHARGES>  (1) 
16
1 -0.29
10 -0.62
2 -0.29
21 0.28
23 0.7
24 0.48
25 0.48
26 1.01
27 1.01
3 -0.29
4 -0.29
5 -0.29
6 -0.29
7 -0.36
8 -0.62
9 -0.62

>  <PUBCHEM_EFFECTIVE_ROTOR_COUNT>  (1) 
14

>  <PUBCHEM_PHARMACOPHORE_FEATURES>  (1) 
5
1 22 hydrophobe
3 8 10 24 cation
3 8 9 23 cation
3 9 10 25 cation
6 8 9 10 23 24 25 rings

>  <PUBCHEM_HEAVY_ATOM_COUNT>  (1) 
27

>  <PUBCHEM_ATOM_DEF_STEREO_COUNT>  (1) 
0

>  <PUBCHEM_ATOM_UDEF_STEREO_COUNT>  (1) 
0

>  <PUBCHEM_BOND_DEF_STEREO_COUNT>  (1) 
0

>  <PUBCHEM_BOND_UDEF_STEREO_COUNT>  (1) 
0

>  <PUBCHEM_ISOTOPIC_ATOM_COUNT>  (1) 
0

>  <PUBCHEM_COMPONENT_COUNT>  (1) 
1

>  <PUBCHEM_CACTVS_TAUTO_COUNT>  (1) 
1

>  <PUBCHEM_CONFORMER_ID>  (1) 
00008B0200000001

>  <PUBCHEM_MMFF94_ENERGY>  (1) 
30.1886

>  <PUBCHEM_FEATURE_SELFOVERLAP>  (1) 
28.144

>  <PUBCHEM_SHAPE_FINGERPRINT>  (1) 
10411042 1 18050567336686847622
12089408 11 18202284681263449929
12144603 126 18131351934480372173
13533116 47 18272931596770205482
13617811 41 15864355714220482895
14118638 360 18412831252838942664
14202775 3 18261116301845807115
14251764 46 14995996658689598481
15065858 18 18260265245237294879
15328684 2 17203058365926095371
15510794 2 17967535684209976139
1577012 14 17989198266168222407
16120349 18 18410854403704149573
18335252 98 18408039607019158205
19315958 150 18409171034638354023
19427546 62 18336828714860889096
20157964 124 18410012135374380344
20578428 11 18260832605679199334
21057603 199 17131562665712385014
21360442 67 18333735732179739674
21362267 2 18266444564505004125
21362267 313 17702954622298228257
232437 2 18342739629590203087
23378982 100 16154287147299615867
33684 2 11241964885799257077
4073 2 18261115230884446826
59520647 119 18336267946292860291
59520647 33 18058437880324041623
59520757 100 15936705847092015043
67123 10 18411138057278519701
9937071 3 17967537870580360499

>  <PUBCHEM_SHAPE_MULTIPOLES>  (1) 
546.05
42.73
3.42
0.97
177.55
2.5
0
-4.61
0.47
-13.42
0.01
-2.33
0.29
0.07

>  <PUBCHEM_SHAPE_SELFOVERLAP>  (1) 
1012.318

>  <PUBCHEM_SHAPE_VOLUME>  (1) 
341.5

>  <PUBCHEM_COORDINATE_TYPE>  (1) 
2
5
10

$$$$
