35580
     RDKit          3D

 18 18  0  0  0  0  0  0  0  0999 V2000
    1.1195    3.2918   -1.4629 Cl  0  0  0  0  0  0  0  0  0  0  0  0
   -1.3573    3.4286    0.0047 Cl  0  0  0  0  0  0  0  0  0  0  0  0
    1.1281    3.2829    1.4638 Cl  0  0  0  0  0  0  0  0  0  0  0  0
    3.6710   -1.1209    1.4664 Cl  0  0  0  0  0  0  0  0  0  0  0  0
    2.5594   -3.3350   -0.0062 Cl  0  0  0  0  0  0  0  0  0  0  0  0
    3.6729   -1.1050   -1.4602 Cl  0  0  0  0  0  0  0  0  0  0  0  0
   -2.0341   -1.4801   -0.0054 O   0  0  0  0  0  0  0  0  0  0  0  0
    0.2789   -1.5263   -0.0025 N   0  0  0  0  0  0  0  0  0  0  0  0
   -0.9237    0.5501   -0.0017 N   0  0  0  0  0  0  0  0  0  0  0  0
    1.4759    0.5534    0.0009 N   0  0  0  0  0  0  0  0  0  0  0  0
   -4.4221   -1.6425    0.0127 C   0  0  0  0  0  0  0  0  0  0  0  0
   -3.2247   -0.7047   -0.0058 C   0  0  0  0  0  0  0  0  0  0  0  0
   -0.8482   -0.7925   -0.0029 C   0  0  0  0  0  0  0  0  0  0  0  0
    1.4000   -0.7873   -0.0004 C   0  0  0  0  0  0  0  0  0  0  0  0
    0.2752    1.1548    0.0004 C   0  0  0  0  0  0  0  0  0  0  0  0
   -5.7357   -0.8816   -0.0019 C   0  0  0  0  0  0  0  0  0  0  0  0
    0.2731    2.6456    0.0014 C   0  0  0  0  0  0  0  0  0  0  0  0
    2.6919   -1.5313   -0.0002 C   0  0  0  0  0  0  0  0  0  0  0  0
  1 17  1  0
  2 17  1  0
  3 17  1  0
  4 18  1  0
  5 18  1  0
  6 18  1  0
  7 12  1  0
  7 13  1  0
  8 13  2  0
  8 14  1  0
  9 13  1  0
  9 15  2  0
 10 14  2  0
 10 15  1  0
 11 12  1  0
 11 16  1  0
 14 18  1  0
 15 17  1  0
M  END
>  <PUBCHEM_COMPOUND_CID>  (1) 
35580

>  <PUBCHEM_CONFORMER_RMSD>  (1) 
0.6

>  <PUBCHEM_CONFORMER_DIVERSEORDER>  (1) 
1
18
20
5
15
14
2
21
19
8
11
7
3
13
12
4
10
6
16
17
9

>  <PUBCHEM_MMFF94_PARTIAL_CHARGES>  (1) 
16
1 -0.29
10 -0.62
12 0.28
13 0.7
14 0.48
15 0.48
17 1.01
18 1.01
2 -0.29
3 -0.29
4 -0.29
5 -0.29
6 -0.29
7 -0.36
8 -0.62
9 -0.62

>  <PUBCHEM_EFFECTIVE_ROTOR_COUNT>  (1) 
5

>  <PUBCHEM_PHARMACOPHORE_FEATURES>  (1) 
5
1 16 hydrophobe
3 8 10 14 cation
3 8 9 13 cation
3 9 10 15 cation
6 8 9 10 13 14 15 rings

>  <PUBCHEM_HEAVY_ATOM_COUNT>  (1) 
18

>  <PUBCHEM_ATOM_DEF_STEREO_COUNT>  (1) 
0

>  <PUBCHEM_ATOM_UDEF_STEREO_COUNT>  (1) 
0

>  <PUBCHEM_BOND_DEF_STEREO_COUNT>  (1) 
0

>  <PUBCHEM_BOND_UDEF_STEREO_COUNT>  (1) 
0

>  <PUBCHEM_ISOTOPIC_ATOM_COUNT>  (1) 
0

>  <PUBCHEM_COMPONENT_COUNT>  (1) 
1

>  <PUBCHEM_CACTVS_TAUTO_COUNT>  (1) 
1

>  <PUBCHEM_CONFORMER_ID>  (1) 
00008AFC00000001

>  <PUBCHEM_MMFF94_ENERGY>  (1) 
30.5523

>  <PUBCHEM_FEATURE_SELFOVERLAP>  (1) 
28.137

>  <PUBCHEM_SHAPE_FINGERPRINT>  (1) 
11265709 11 18408602535059672234
12553582 1 18411978061611644767
12617007 42 18271260381602872470
12788726 201 18262240997673859066
13052359 8 17759797048985721237
13140716 1 18051402169751552538
13294875 104 17769937110083875545
14022347 108 18336272270902635442
14178000 15 18412263956488932657
14178342 30 17756974620070908146
14790565 3 17904768034960445357
15042514 8 17906171754868209323
15420108 30 17626930217049189352
15848700 24 18412824676964223239
15885798 251 18409728418108594011
16945 1 18122344571526146308
1813 80 18272381849293479951
18222031 100 18272090495955428191
18785283 64 18116718623924664203
19591789 44 16681759858189255887
20097449 115 18408877438778377657
20369508 70 18410854403941195223
20510252 161 18196085552231355746
20645477 70 18264486368375123871
20671657 1 18126571343426379039
20871998 22 18340765957586880306
21041028 32 18411412908671900533
21296965 67 18410290285513744843
21478907 32 18121499047058565035
21524375 3 17252852257791421033
221490 88 18191595357440022155
2255824 54 18264771145638242839
23419403 2 17900503970064182692
23526113 38 17822014220018565091
23557571 272 18270400461063777750
23558518 356 17829334583884962338
23559900 14 18339920545447344699
2748010 2 18339908342986034836
3091708 16 9068239209777075499
314173 41 18409738378032622119
352729 6 17619345407625322423
54173680 148 18050848810438945379
58779409 8 17544764421548187775
621550 34 17989196020069416818
6443956 14 18340487884335018416
68521 5 18338240349481477727
7164475 11 18118970191720847718
7364860 26 18198625629801470809
81228 2 18192437368133686666
84936 182 17841716506637403185
9841814 1 18335136526835311467
9971528 1 18130788970993371111

>  <PUBCHEM_SHAPE_MULTIPOLES>  (1) 
360.84
7.43
4.65
1.14
9.83
4.36
0
-8.06
-0.01
-1.04
0
-1.24
0.63
0

>  <PUBCHEM_SHAPE_SELFOVERLAP>  (1) 
673.286

>  <PUBCHEM_SHAPE_VOLUME>  (1) 
225.4

>  <PUBCHEM_COORDINATE_TYPE>  (1) 
2
5
10

$$$$
