35593
     RDKit          3D

 18 18  0  0  0  0  0  0  0  0999 V2000
   -0.8388   -3.1567   -1.4618 Cl  0  0  0  0  0  0  0  0  0  0  0  0
    1.6400   -3.2908    0.0025 Cl  0  0  0  0  0  0  0  0  0  0  0  0
   -0.8435   -3.1448    1.4649 Cl  0  0  0  0  0  0  0  0  0  0  0  0
   -2.3112    1.6097    0.0019 O   0  0  0  0  0  0  0  0  0  0  0  0
    2.3148    1.6178   -0.0063 O   0  0  0  0  0  0  0  0  0  0  0  0
    0.0018    1.6633   -0.0043 N   0  0  0  0  0  0  0  0  0  0  0  0
    1.2052   -0.4127   -0.0045 N   0  0  0  0  0  0  0  0  0  0  0  0
   -1.1943   -0.4168   -0.0003 N   0  0  0  0  0  0  0  0  0  0  0  0
   -4.6999    1.7638   -0.0106 C   0  0  0  0  0  0  0  0  0  0  0  0
    4.7031    1.7700    0.0150 C   0  0  0  0  0  0  0  0  0  0  0  0
   -3.4993    0.8302    0.0071 C   0  0  0  0  0  0  0  0  0  0  0  0
    3.5017    0.8376   -0.0055 C   0  0  0  0  0  0  0  0  0  0  0  0
   -6.0108    0.9985    0.0088 C   0  0  0  0  0  0  0  0  0  0  0  0
    6.0134    1.0034    0.0018 C   0  0  0  0  0  0  0  0  0  0  0  0
   -1.1229    0.9262   -0.0018 C   0  0  0  0  0  0  0  0  0  0  0  0
    1.1251    0.9278   -0.0057 C   0  0  0  0  0  0  0  0  0  0  0  0
    0.0065   -1.0178   -0.0019 C   0  0  0  0  0  0  0  0  0  0  0  0
    0.0093   -2.5089    0.0007 C   0  0  0  0  0  0  0  0  0  0  0  0
  1 18  1  0
  2 18  1  0
  3 18  1  0
  4 11  1  0
  4 15  1  0
  5 12  1  0
  5 16  1  0
  6 15  2  0
  6 16  1  0
  7 16  2  0
  7 17  1  0
  8 15  1  0
  8 17  2  0
  9 11  1  0
  9 13  1  0
 10 12  1  0
 10 14  1  0
 17 18  1  0
M  END
>  <PUBCHEM_COMPOUND_CID>  (1) 
35593

>  <PUBCHEM_CONFORMER_RMSD>  (1) 
0.8

>  <PUBCHEM_CONFORMER_DIVERSEORDER>  (1) 
1
51
17
42
28
48
31
8
3
50
2
36
24
29
52
43
19
23
6
47
30
40
38
46
44
34
22
27
9
13
39
7
14
4
49
10
26
5
35
12
15
41
25
33
37
32
45
11
16
21
18
20

>  <PUBCHEM_MMFF94_PARTIAL_CHARGES>  (1) 
14
1 -0.29
11 0.28
12 0.28
15 0.7
16 0.7
17 0.48
18 1.01
2 -0.29
3 -0.29
4 -0.36
5 -0.36
6 -0.62
7 -0.62
8 -0.62

>  <PUBCHEM_EFFECTIVE_ROTOR_COUNT>  (1) 
7

>  <PUBCHEM_PHARMACOPHORE_FEATURES>  (1) 
6
1 13 hydrophobe
1 14 hydrophobe
3 6 7 16 cation
3 6 8 15 cation
3 7 8 17 cation
6 6 7 8 15 16 17 rings

>  <PUBCHEM_HEAVY_ATOM_COUNT>  (1) 
18

>  <PUBCHEM_ATOM_DEF_STEREO_COUNT>  (1) 
0

>  <PUBCHEM_ATOM_UDEF_STEREO_COUNT>  (1) 
0

>  <PUBCHEM_BOND_DEF_STEREO_COUNT>  (1) 
0

>  <PUBCHEM_BOND_UDEF_STEREO_COUNT>  (1) 
0

>  <PUBCHEM_ISOTOPIC_ATOM_COUNT>  (1) 
0

>  <PUBCHEM_COMPONENT_COUNT>  (1) 
1

>  <PUBCHEM_CACTVS_TAUTO_COUNT>  (1) 
1

>  <PUBCHEM_CONFORMER_ID>  (1) 
00008B0900000001

>  <PUBCHEM_MMFF94_ENERGY>  (1) 
31.4983

>  <PUBCHEM_FEATURE_SELFOVERLAP>  (1) 
33.211

>  <PUBCHEM_SHAPE_FINGERPRINT>  (1) 
12532896 13 18409450314533400694
12553582 1 17401776714597266398
12592029 89 18336546010689933096
13052359 8 18263648518517325507
14790565 3 18411425015763494208
15042514 8 18263086685213021272
15664445 248 17410788959726749239
15927050 60 18410573989679501426
16752209 62 18195518427738663882
17539 30 17841422945079643038
20554085 129 18130486583884122720
20602899 9 16272214119178011990
20645477 70 18195241123512541621
20681677 155 18336261349459775696
21054139 6 18341602768336062357
21524375 3 18410573980935871481
22182313 1 18196963090906022846
22224240 67 18409449207006961857
23352939 185 12967127246218305080
23402539 116 18272646887198396044
23558518 356 17682961351276217160
23598288 3 17973173008615491502
2748010 2 18266764465608722942
293599 30 18411419518320860692
3071541 37 18336552607548813293
33824 294 18336266735126796289
366044 4 18410292518775620929
3759504 43 18261393389972025924
42630746 31 18341329981260558983
474229 33 18409731781204974305
5104073 3 18118131277808809049
53917941 68 18268408291395421021
559249 180 18409726292679699746
59755656 520 18412820304639725236
6669772 16 18202006491087798126
7364860 26 18196652891482941743
81228 2 17760066807101666513
81539 233 18334574590799892957

>  <PUBCHEM_SHAPE_MULTIPOLES>  (1) 
349.36
9.9
4.02
0.87
0.25
4.75
0
-11.07
-0.03
0.09
0
-0.23
0.88
0.01

>  <PUBCHEM_SHAPE_SELFOVERLAP>  (1) 
667.097

>  <PUBCHEM_SHAPE_VOLUME>  (1) 
213.8

>  <PUBCHEM_COORDINATE_TYPE>  (1) 
2
5
10

$$$$
