35595
     RDKit          3D

 18 19  0  0  1  0  0  0  0  0999 V2000
   -1.5961    0.4931   -1.0125 O   0  0  0  0  0  0  0  0  0  0  0  0
   -1.9177   -2.4410    1.0316 O   0  0  0  0  0  0  0  0  0  0  0  0
   -4.0121   -1.2822   -0.2798 O   0  0  0  0  0  0  0  0  0  0  0  0
   -2.2340    3.1273   -0.3009 O   0  0  0  0  0  0  0  0  0  0  0  0
    0.8508    1.5928    0.2588 O   0  0  0  0  0  0  0  0  0  0  0  0
    3.8533    1.6325    0.5545 O   0  0  0  0  0  0  0  0  0  0  0  0
    1.2079   -1.7670   -0.6011 N   0  0  0  0  0  0  0  0  0  0  0  0
    2.5138   -1.5070   -0.4185 N   0  0  0  0  0  0  0  0  0  0  0  0
    4.9336   -0.3241    0.1068 N   0  0  0  0  0  0  0  0  0  0  0  0
   -1.8337   -1.0562    0.7612 C   0  0  0  0  0  0  0  0  0  0  0  0
   -3.1873   -0.4209    0.5048 C   0  0  0  0  0  0  0  0  0  0  0  0
   -1.0995   -0.7761   -0.5415 C   0  0  0  0  0  0  0  0  0  0  0  0
   -2.8217    0.8122   -0.3147 C   0  0  0  0  0  0  0  0  0  0  0  0
    0.3997   -0.6914   -0.3867 C   0  0  0  0  0  0  0  0  0  0  0  0
   -2.5755    2.0436    0.5455 C   0  0  0  0  0  0  0  0  0  0  0  0
    1.2297    0.3437   -0.0395 C   0  0  0  0  0  0  0  0  0  0  0  0
    2.5209   -0.2161   -0.0755 C   0  0  0  0  0  0  0  0  0  0  0  0
    3.7681    0.4368    0.2074 C   0  0  0  0  0  0  0  0  0  0  0  0
  1 12  1  0
  1 13  1  0
  2 10  1  0
  3 11  1  0
  4 15  1  0
  5 16  1  0
  6 18  2  0
  7  8  1  0
  7 14  1  0
  8 17  2  0
  9 18  1  0
 10 11  1  0
 10 12  1  0
 11 13  1  0
 12 14  1  0
 13 15  1  0
 14 16  2  0
 16 17  1  0
 17 18  1  0
M  END
>  <PUBCHEM_COMPOUND_CID>  (1) 
35595

>  <PUBCHEM_CONFORMER_RMSD>  (1) 
0.6

>  <PUBCHEM_CONFORMER_DIVERSEORDER>  (1) 
1
59
21
40
25
31
12
55
43
6
52
15
37
41
10
24
54
27
30
35
4
50
9
19
44
53
23
48
58
17
51
18
42
2
36
56
7
49
28
11
39
26
5
13
46
60
47
57
14
38
34
20
8
45
22
33
3
32
16
29

>  <PUBCHEM_MMFF94_PARTIAL_CHARGES>  (1) 
25
1 -0.56
10 0.28
11 0.28
12 0.46
13 0.28
14 -0.33
15 0.28
16 0.06
17 0.2
18 0.72
2 -0.68
25 0.4
26 0.4
27 0.27
28 0.4
29 0.45
3 -0.68
30 0.37
31 0.37
4 -0.68
5 -0.51
6 -0.57
7 0.3
8 -0.71
9 -0.8

>  <PUBCHEM_EFFECTIVE_ROTOR_COUNT>  (1) 
4

>  <PUBCHEM_PHARMACOPHORE_FEATURES>  (1) 
14
1 1 acceptor
1 2 acceptor
1 2 donor
1 3 acceptor
1 3 donor
1 4 acceptor
1 4 donor
1 5 donor
1 6 acceptor
1 7 donor
1 8 acceptor
1 9 donor
5 1 10 11 12 13 rings
5 7 8 14 16 17 rings

>  <PUBCHEM_HEAVY_ATOM_COUNT>  (1) 
18

>  <PUBCHEM_ATOM_DEF_STEREO_COUNT>  (1) 
4

>  <PUBCHEM_ATOM_UDEF_STEREO_COUNT>  (1) 
0

>  <PUBCHEM_BOND_DEF_STEREO_COUNT>  (1) 
0

>  <PUBCHEM_BOND_UDEF_STEREO_COUNT>  (1) 
0

>  <PUBCHEM_ISOTOPIC_ATOM_COUNT>  (1) 
0

>  <PUBCHEM_COMPONENT_COUNT>  (1) 
1

>  <PUBCHEM_CACTVS_TAUTO_COUNT>  (1) 
17

>  <PUBCHEM_CONFORMER_ID>  (1) 
00008B0B00000001

>  <PUBCHEM_MMFF94_ENERGY>  (1) 
34.157

>  <PUBCHEM_FEATURE_SELFOVERLAP>  (1) 
71.068

>  <PUBCHEM_SHAPE_FINGERPRINT>  (1) 
10366900 7 18339080492266081034
10608611 8 18340487772628666116
12251169 10 18187650236008317742
13140716 1 18120946258886528803
13296908 3 18201443532343669646
13675066 3 18130783465340864610
15196674 1 18413670210275420824
15219456 202 18341335491978179230
15279308 16 18341896255534660574
15309172 13 18060142063010894614
15442244 35 18194119621008781098
16945 1 18263661665570506431
17802600 8 18343579672250784521
18186145 218 18189901902825658198
19049666 15 18338804390161712075
200 152 18131060576477971431
20510252 161 18410857638198879089
20645477 56 18336271128636000197
20645477 70 17274549715870710990
21501502 16 18337671906149009023
22182937 141 18128262190241376809
22854114 59 18272090538741180930
2306618 200 18131637781126973097
23402539 116 18411131472603116215
23419403 2 16962641670084016567
23493267 7 18335699404180191274
23557571 272 18412554214304368951
23559900 14 18054225428434837414
2748010 2 18270691843902059158
5104073 3 18411700950321155258
81228 2 18187097147842977595
8809292 202 18261396697239476818
90316 7 17240755168912121980
9709674 26 18412831261238843230

>  <PUBCHEM_SHAPE_MULTIPOLES>  (1) 
320.27
7.41
2.37
0.82
5.63
1.01
0.03
0.78
0.75
-1.66
0.21
-0.29
-0.12
0.63

>  <PUBCHEM_SHAPE_SELFOVERLAP>  (1) 
681.294

>  <PUBCHEM_SHAPE_VOLUME>  (1) 
179.4

>  <PUBCHEM_COORDINATE_TYPE>  (1) 
2
5
10

$$$$
