35597
     RDKit          3D

 11 11  0  0  0  0  0  0  0  0999 V2000
    1.4732   -2.5210   -0.0012 O   0  0  0  0  0  0  0  0  0  0  0  0
    2.3524    1.9831    0.0014 O   0  0  0  0  0  0  0  0  0  0  0  0
   -0.2586   -0.9995   -0.0008 N   0  0  0  0  0  0  0  0  0  0  0  0
    0.1639    1.3197    0.0030 N   0  0  0  0  0  0  0  0  0  0  0  0
    1.9395   -0.2597    0.0003 N   0  0  0  0  0  0  0  0  0  0  0  0
   -2.1377    0.5507    0.0029 C   0  0  0  0  0  0  0  0  0  0  0  0
   -0.6554    0.3166    0.0012 C   0  0  0  0  0  0  0  0  0  0  0  0
   -2.7336   -0.0473   -1.2623 C   0  0  0  0  0  0  0  0  0  0  0  0
   -2.7482   -0.0599    1.2547 C   0  0  0  0  0  0  0  0  0  0  0  0
    1.0813   -1.3551   -0.0009 C   0  0  0  0  0  0  0  0  0  0  0  0
    1.5232    1.0726    0.0017 C   0  0  0  0  0  0  0  0  0  0  0  0
  1 10  2  0
  2 11  2  0
  3  7  1  0
  3 10  1  0
  4  7  2  0
  4 11  1  0
  5 10  1  0
  5 11  1  0
  6  7  1  0
  6  8  1  0
  6  9  1  0
M  END
>  <PUBCHEM_COMPOUND_CID>  (1) 
35597

>  <PUBCHEM_CONFORMER_RMSD>  (1) 
0.4

>  <PUBCHEM_CONFORMER_DIVERSEORDER>  (1) 
1
2
3

>  <PUBCHEM_MMFF94_PARTIAL_CHARGES>  (1) 
11
1 -0.57
10 0.69
11 0.84
19 0.37
2 -0.57
20 0.37
3 -0.49
4 -0.66
5 -0.49
6 0.06
7 0.45

>  <PUBCHEM_EFFECTIVE_ROTOR_COUNT>  (1) 
1

>  <PUBCHEM_PHARMACOPHORE_FEATURES>  (1) 
7
1 1 acceptor
1 2 acceptor
1 3 donor
1 4 donor
1 5 donor
3 6 8 9 hydrophobe
6 3 4 5 7 10 11 rings

>  <PUBCHEM_HEAVY_ATOM_COUNT>  (1) 
11

>  <PUBCHEM_ATOM_DEF_STEREO_COUNT>  (1) 
0

>  <PUBCHEM_ATOM_UDEF_STEREO_COUNT>  (1) 
0

>  <PUBCHEM_BOND_DEF_STEREO_COUNT>  (1) 
0

>  <PUBCHEM_BOND_UDEF_STEREO_COUNT>  (1) 
0

>  <PUBCHEM_ISOTOPIC_ATOM_COUNT>  (1) 
0

>  <PUBCHEM_COMPONENT_COUNT>  (1) 
1

>  <PUBCHEM_CACTVS_TAUTO_COUNT>  (1) 
10

>  <PUBCHEM_CONFORMER_ID>  (1) 
00008B0D00000001

>  <PUBCHEM_MMFF94_ENERGY>  (1) 
21.1146

>  <PUBCHEM_FEATURE_SELFOVERLAP>  (1) 
35.642

>  <PUBCHEM_SHAPE_FINGERPRINT>  (1) 
1 1 18409729599113427900
12932741 1 17749391425659310231
12932764 1 17775846817916797073
16945 1 18410855438700811078
18380122 1 17968106381756780945
21040471 1 18122344842019590560
23211744 41 17677045862427442337
23552423 10 18341046337520542709
241688 4 17689996735086767226
2748010 2 18193283107408252446
29004967 10 18334863762109967795
5084963 1 18130777967081170593
81228 2 17112971864667434978

>  <PUBCHEM_SHAPE_MULTIPOLES>  (1) 
199.69
3.84
1.9
0.9
1.66
0.58
0
-0.49
0.01
-1.87
0
0.9
0.03
0.01

>  <PUBCHEM_SHAPE_SELFOVERLAP>  (1) 
406.215

>  <PUBCHEM_SHAPE_VOLUME>  (1) 
115.5

>  <PUBCHEM_COORDINATE_TYPE>  (1) 
2
5
10

$$$$
