35602
     RDKit          3D

  5  4  0  0  0  0  0  0  0  0999 V2000
    2.0258   -0.0248   -0.4881 Cl  0  0  0  0  0  0  0  0  0  0  0  0
   -1.1206   -1.1958   -0.1708 N   0  0  0  0  0  0  0  0  0  0  0  0
   -1.1279    1.1556   -0.2146 N   0  0  0  0  0  0  0  0  0  0  0  0
    0.7860    0.0372    0.7762 C   0  0  0  0  0  0  0  0  0  0  0  0
   -0.5633    0.0278    0.0973 C   0  0  0  0  0  0  0  0  0  0  0  0
  1  4  1  0
  2  5  1  0
  3  5  2  0
  4  5  1  0
M  END
>  <PUBCHEM_COMPOUND_CID>  (1) 
35602

>  <PUBCHEM_CONFORMER_RMSD>  (1) 
0.4

>  <PUBCHEM_CONFORMER_DIVERSEORDER>  (1) 
1
2
3

>  <PUBCHEM_MMFF94_PARTIAL_CHARGES>  (1) 
8
1 -0.29
10 0.4
2 -0.85
3 -0.85
4 0.35
5 0.44
8 0.4
9 0.4

>  <PUBCHEM_EFFECTIVE_ROTOR_COUNT>  (1) 
1

>  <PUBCHEM_PHARMACOPHORE_FEATURES>  (1) 
3
1 2 donor
1 3 donor
3 2 3 5 cation

>  <PUBCHEM_HEAVY_ATOM_COUNT>  (1) 
5

>  <PUBCHEM_ATOM_DEF_STEREO_COUNT>  (1) 
0

>  <PUBCHEM_ATOM_UDEF_STEREO_COUNT>  (1) 
0

>  <PUBCHEM_BOND_DEF_STEREO_COUNT>  (1) 
0

>  <PUBCHEM_BOND_UDEF_STEREO_COUNT>  (1) 
0

>  <PUBCHEM_ISOTOPIC_ATOM_COUNT>  (1) 
0

>  <PUBCHEM_COMPONENT_COUNT>  (1) 
1

>  <PUBCHEM_CACTVS_TAUTO_COUNT>  (1) 
1

>  <PUBCHEM_CONFORMER_ID>  (1) 
00008B1200000001

>  <PUBCHEM_MMFF94_ENERGY>  (1) 
8.1767

>  <PUBCHEM_FEATURE_SELFOVERLAP>  (1) 
15.263

>  <PUBCHEM_SHAPE_FINGERPRINT>  (1) 
139733 1 8429781381866019963
16714656 1 18410301306404912797
20096714 4 17750239114590637292
21015797 1 10519711158292655523
21040471 1 18194671571276631281
24536 1 17418372489265795768
5943 1 10837254939537149289

>  <PUBCHEM_SHAPE_MULTIPOLES>  (1) 
94.81
2.16
1.05
0.79
1.04
0.04
-0.09
0.02
0.42
-0.52
0.11
0.2
-0.01
0.02

>  <PUBCHEM_SHAPE_SELFOVERLAP>  (1) 
158.776

>  <PUBCHEM_SHAPE_VOLUME>  (1) 
65.6

>  <PUBCHEM_COORDINATE_TYPE>  (1) 
2
5
10

$$$$
