35608
     RDKit          3D

  7  6  0  0  0  0  0  0  0  0999 V2000
   -1.1802   -1.4553   -0.8313 Cl  0  0  0  0  0  0  0  0  0  0  0  0
   -1.2280    1.4439   -0.8171 Cl  0  0  0  0  0  0  0  0  0  0  0  0
   -1.1145    0.0009    1.7025 Cl  0  0  0  0  0  0  0  0  0  0  0  0
    1.5979    1.1856   -0.0373 N   0  0  0  0  0  0  0  0  0  0  0  0
    1.5735   -1.1555   -0.0108 N   0  0  0  0  0  0  0  0  0  0  0  0
   -0.5861    0.0008    0.0031 C   0  0  0  0  0  0  0  0  0  0  0  0
    0.9374   -0.0204   -0.0091 C   0  0  0  0  0  0  0  0  0  0  0  0
  1  6  1  0
  2  6  1  0
  3  6  1  0
  4  7  1  0
  5  7  2  0
  6  7  1  0
M  END
>  <PUBCHEM_COMPOUND_CID>  (1) 
35608

>  <PUBCHEM_CONFORMER_RMSD>  (1) 
0.4

>  <PUBCHEM_CONFORMER_DIVERSEORDER>  (1) 
1

>  <PUBCHEM_MMFF94_PARTIAL_CHARGES>  (1) 
10
1 -0.29
10 0.4
2 -0.29
3 -0.29
4 -0.85
5 -0.85
6 0.93
7 0.44
8 0.4
9 0.4

>  <PUBCHEM_EFFECTIVE_ROTOR_COUNT>  (1) 
1

>  <PUBCHEM_PHARMACOPHORE_FEATURES>  (1) 
3
1 4 donor
1 5 donor
3 4 5 7 cation

>  <PUBCHEM_HEAVY_ATOM_COUNT>  (1) 
7

>  <PUBCHEM_ATOM_DEF_STEREO_COUNT>  (1) 
0

>  <PUBCHEM_ATOM_UDEF_STEREO_COUNT>  (1) 
0

>  <PUBCHEM_BOND_DEF_STEREO_COUNT>  (1) 
0

>  <PUBCHEM_BOND_UDEF_STEREO_COUNT>  (1) 
0

>  <PUBCHEM_ISOTOPIC_ATOM_COUNT>  (1) 
0

>  <PUBCHEM_COMPONENT_COUNT>  (1) 
1

>  <PUBCHEM_CACTVS_TAUTO_COUNT>  (1) 
1

>  <PUBCHEM_CONFORMER_ID>  (1) 
00008B1800000001

>  <PUBCHEM_MMFF94_ENERGY>  (1) 
13.1479

>  <PUBCHEM_FEATURE_SELFOVERLAP>  (1) 
15.265

>  <PUBCHEM_SHAPE_FINGERPRINT>  (1) 
137420 1 14749200599860005827
20096714 4 18044924684648679061
21040471 1 18123170338717515508
23552333 60 18270954777552698323
24536 1 17167866382674613700
29004967 10 17899693750169069771
5943 1 13441528902569612891

>  <PUBCHEM_SHAPE_MULTIPOLES>  (1) 
139.7
1.99
1.59
1.3
0.69
0.01
-0.62
-0.05
0.07
-0.23
0.56
-0.73
0
0

>  <PUBCHEM_SHAPE_SELFOVERLAP>  (1) 
235.86

>  <PUBCHEM_SHAPE_VOLUME>  (1) 
95.3

>  <PUBCHEM_COORDINATE_TYPE>  (1) 
2
5
10

$$$$
