35614
     RDKit          3D

 17 17  0  0  0  0  0  0  0  0999 V2000
   -2.4407    1.6442   -1.4578 Cl  0  0  0  0  0  0  0  0  0  0  0  0
   -2.4136    1.6345    1.4670 Cl  0  0  0  0  0  0  0  0  0  0  0  0
    2.4358    1.6465    1.4552 Cl  0  0  0  0  0  0  0  0  0  0  0  0
    2.4183    1.6321   -1.4697 Cl  0  0  0  0  0  0  0  0  0  0  0  0
   -5.2407    0.5182   -0.0007 Cl  0  0  0  0  0  0  0  0  0  0  0  0
    5.2407    0.5184    0.0091 Cl  0  0  0  0  0  0  0  0  0  0  0  0
    0.0001   -3.3579    0.0011 O   0  0  0  0  0  0  0  0  0  0  0  0
    0.0000    0.5257   -0.0018 N   0  0  0  0  0  0  0  0  0  0  0  0
   -1.2339   -1.4615   -0.0003 N   0  0  0  0  0  0  0  0  0  0  0  0
    1.2339   -1.4615   -0.0013 N   0  0  0  0  0  0  0  0  0  0  0  0
   -1.1918   -0.1577   -0.0028 C   0  0  0  0  0  0  0  0  0  0  0  0
    1.1919   -0.1578   -0.0010 C   0  0  0  0  0  0  0  0  0  0  0  0
   -2.4724    0.6266    0.0017 C   0  0  0  0  0  0  0  0  0  0  0  0
    2.4723    0.6265   -0.0026 C   0  0  0  0  0  0  0  0  0  0  0  0
   -3.6685   -0.3240    0.0089 C   0  0  0  0  0  0  0  0  0  0  0  0
    3.6686   -0.3239   -0.0044 C   0  0  0  0  0  0  0  0  0  0  0  0
    0.0001   -2.1284   -0.0007 C   0  0  0  0  0  0  0  0  0  0  0  0
  1 13  1  0
  2 13  1  0
  3 14  1  0
  4 14  1  0
  5 15  1  0
  6 16  1  0
  7 17  2  0
  8 11  1  0
  8 12  1  0
  9 11  2  0
  9 17  1  0
 10 12  2  0
 10 17  1  0
 11 13  1  0
 12 14  1  0
 13 15  1  0
 14 16  1  0
M  END
>  <PUBCHEM_COMPOUND_CID>  (1) 
35614

>  <PUBCHEM_CONFORMER_RMSD>  (1) 
0.6

>  <PUBCHEM_CONFORMER_DIVERSEORDER>  (1) 
1
124
95
117
16
76
26
44
82
108
56
83
87
62
97
2
79
32
88
47
105
85
42
125
65
70
48
9
53
122
24
100
96
3
121
57
40
61
58
69
43
36
111
63
98
45
15
18
75
107
126
50
110
35
49
113
22
60
116
23
67
128
6
91
34
38
102
31
51
73
103
130
37
19
55
13
64
20
101
81
4
104
5
10
84
120
94
118
27
17
29
14
123
39
59
114
12
54
106
68
92
112
33
25
127
28
7
119
109
8
77
115
129
46
90
71
41
99
21
52
89
93
80
72
66
86
11
78
30
74

>  <PUBCHEM_MMFF94_PARTIAL_CHARGES>  (1) 
18
1 -0.29
10 -0.66
11 0.44
12 0.44
13 0.64
14 0.64
15 0.29
16 0.29
17 0.99
18 0.4
2 -0.29
3 -0.29
4 -0.29
5 -0.29
6 -0.29
7 -0.57
8 -0.5
9 -0.66

>  <PUBCHEM_EFFECTIVE_ROTOR_COUNT>  (1) 
4

>  <PUBCHEM_PHARMACOPHORE_FEATURES>  (1) 
5
1 10 donor
1 7 acceptor
1 8 donor
1 9 donor
6 8 9 10 11 12 17 rings

>  <PUBCHEM_HEAVY_ATOM_COUNT>  (1) 
17

>  <PUBCHEM_ATOM_DEF_STEREO_COUNT>  (1) 
0

>  <PUBCHEM_ATOM_UDEF_STEREO_COUNT>  (1) 
0

>  <PUBCHEM_BOND_DEF_STEREO_COUNT>  (1) 
0

>  <PUBCHEM_BOND_UDEF_STEREO_COUNT>  (1) 
0

>  <PUBCHEM_ISOTOPIC_ATOM_COUNT>  (1) 
0

>  <PUBCHEM_COMPONENT_COUNT>  (1) 
1

>  <PUBCHEM_CACTVS_TAUTO_COUNT>  (1) 
3

>  <PUBCHEM_CONFORMER_ID>  (1) 
00008B1E00000001

>  <PUBCHEM_MMFF94_ENERGY>  (1) 
42.0464

>  <PUBCHEM_FEATURE_SELFOVERLAP>  (1) 
25.48

>  <PUBCHEM_SHAPE_FINGERPRINT>  (1) 
11132069 177 18335699481515937033
12251169 10 17822009826272061756
12403259 415 18410564093847692812
12500047 106 18339917221179080386
12592029 89 18113897122131540690
13380535 76 18410578387493449219
13583140 156 16226592074832843719
14115302 16 18339087089789586676
15295992 7 18129944597475883056
15309172 13 18335148591487927913
15775835 57 18410575084663104896
16945 1 17704359874254685575
17802600 8 18410571786128643809
18186145 218 18201707475016048960
200 152 18272927216056687133
20510252 161 18126284374643327634
20645477 56 18338233881603822576
21296965 67 9151178649131574147
21524375 3 18410577287981711010
23402539 116 18202277034981946965
23419403 2 16035141527853699840
23557571 272 17841154664679886260
23559900 14 18273218621651926732
25 1 18272368638021153478
2748010 2 18409454682341151831
350125 39 18409731772129509128
366044 4 18410011048130755387
474 4 18335146371179752937
474229 33 18336548304487753539
4990 188 17560806541242664373
58051976 100 18188214307422892166
58051976 378 18410292489185240071
59755656 215 18340491075358498159
633830 44 17988916791012318833
69090 78 18411695525782760302
7364860 26 18198905799224629327
81228 2 17833257997543701867
9999458 23 17676491661591363406

>  <PUBCHEM_SHAPE_MULTIPOLES>  (1) 
340.26
8.47
2.37
1.18
0
1.86
0
-3.12
0.01
0
0
0
-0.9
0.01

>  <PUBCHEM_SHAPE_SELFOVERLAP>  (1) 
643.07

>  <PUBCHEM_SHAPE_VOLUME>  (1) 
213

>  <PUBCHEM_COORDINATE_TYPE>  (1) 
2
5
10

$$$$
