35618
     RDKit          3D

 25 27  0  0  0  0  0  0  0  0999 V2000
    0.0045    4.5874    0.8525 O   0  0  0  0  0  0  0  0  0  0  0  0
   -4.9593   -3.2545    0.0463 O   0  0  0  0  0  0  0  0  0  0  0  0
    4.9525   -3.2598    0.0440 O   0  0  0  0  0  0  0  0  0  0  0  0
   -2.8355   -3.2731    0.6010 O   0  0  0  0  0  0  0  0  0  0  0  0
    2.8295   -3.2744    0.6025 O   0  0  0  0  0  0  0  0  0  0  0  0
    0.0019    0.8396   -0.1373 N   0  0  0  0  0  0  0  0  0  0  0  0
   -1.2262    2.7534    0.3800 N   0  0  0  0  0  0  0  0  0  0  0  0
    1.2327    2.7521    0.3793 N   0  0  0  0  0  0  0  0  0  0  0  0
   -3.8624   -2.6676    0.2095 N   0  0  0  0  0  0  0  0  0  0  0  0
    3.8571   -2.6709    0.2095 N   0  0  0  0  0  0  0  0  0  0  0  0
   -2.4936    0.7676   -0.1427 C   0  0  0  0  0  0  0  0  0  0  0  0
    2.4965    0.7645   -0.1438 C   0  0  0  0  0  0  0  0  0  0  0  0
   -1.2025    1.4895    0.0441 C   0  0  0  0  0  0  0  0  0  0  0  0
    1.2070    1.4884    0.0435 C   0  0  0  0  0  0  0  0  0  0  0  0
   -2.5726   -0.6004    0.1181 C   0  0  0  0  0  0  0  0  0  0  0  0
    2.5706   -0.6014    0.1191 C   0  0  0  0  0  0  0  0  0  0  0  0
   -3.6227    1.4606   -0.5794 C   0  0  0  0  0  0  0  0  0  0  0  0
    3.6233    1.4575   -0.5806 C   0  0  0  0  0  0  0  0  0  0  0  0
   -3.7805   -1.2753   -0.0575 C   0  0  0  0  0  0  0  0  0  0  0  0
    3.7778   -1.2780   -0.0557 C   0  0  0  0  0  0  0  0  0  0  0  0
   -4.8306    0.7858   -0.7551 C   0  0  0  0  0  0  0  0  0  0  0  0
    4.8305    0.7810   -0.7555 C   0  0  0  0  0  0  0  0  0  0  0  0
   -4.9095   -0.5823   -0.4941 C   0  0  0  0  0  0  0  0  0  0  0  0
    4.9076   -0.5869   -0.4930 C   0  0  0  0  0  0  0  0  0  0  0  0
    0.0036    3.3970    0.5452 C   0  0  0  0  0  0  0  0  0  0  0  0
  1 25  2  0
  2  9  1  0
  3 10  1  0
  4  9  2  0
  5 10  2  0
  6 13  1  0
  6 14  1  0
  7 13  2  0
  7 25  1  0
  8 14  2  0
  8 25  1  0
  9 19  1  0
 10 20  1  0
 11 13  1  0
 11 15  2  0
 11 17  1  0
 12 14  1  0
 12 16  2  0
 12 18  1  0
 15 19  1  0
 16 20  1  0
 17 21  2  0
 18 22  2  0
 19 23  2  0
 20 24  2  0
 21 23  1  0
 22 24  1  0
M  CHG  4   2  -1   3  -1   9   1  10   1
M  END
>  <PUBCHEM_COMPOUND_CID>  (1) 
35618

>  <PUBCHEM_CONFORMER_RMSD>  (1) 
0.8

>  <PUBCHEM_CONFORMER_DIVERSEORDER>  (1) 
1
19
6
18
5
7
4
8
17
15
12
2
10
16
3
13
14
9
11

>  <PUBCHEM_MMFF94_PARTIAL_CHARGES>  (1) 
34
1 -0.57
10 0.91
11 0.09
12 0.09
13 0.41
14 0.41
15 -0.15
16 -0.15
17 -0.15
18 -0.15
19 0.13
2 -0.52
20 0.13
21 -0.15
22 -0.15
23 -0.15
24 -0.15
25 0.99
26 0.4
27 0.15
28 0.15
29 0.15
3 -0.52
30 0.15
31 0.15
32 0.15
33 0.15
34 0.15
4 -0.52
5 -0.52
6 -0.5
7 -0.66
8 -0.66
9 0.91

>  <PUBCHEM_EFFECTIVE_ROTOR_COUNT>  (1) 
4

>  <PUBCHEM_PHARMACOPHORE_FEATURES>  (1) 
13
1 1 acceptor
1 2 acceptor
1 2 anion
1 3 acceptor
1 3 anion
1 4 acceptor
1 5 acceptor
1 6 donor
1 7 donor
1 8 donor
6 11 15 17 19 21 23 rings
6 12 16 18 20 22 24 rings
6 6 7 8 13 14 25 rings

>  <PUBCHEM_HEAVY_ATOM_COUNT>  (1) 
25

>  <PUBCHEM_ATOM_DEF_STEREO_COUNT>  (1) 
0

>  <PUBCHEM_ATOM_UDEF_STEREO_COUNT>  (1) 
0

>  <PUBCHEM_BOND_DEF_STEREO_COUNT>  (1) 
0

>  <PUBCHEM_BOND_UDEF_STEREO_COUNT>  (1) 
0

>  <PUBCHEM_ISOTOPIC_ATOM_COUNT>  (1) 
0

>  <PUBCHEM_COMPONENT_COUNT>  (1) 
1

>  <PUBCHEM_CACTVS_TAUTO_COUNT>  (1) 
3

>  <PUBCHEM_CONFORMER_ID>  (1) 
00008B2200000001

>  <PUBCHEM_MMFF94_ENERGY>  (1) 
86.1633

>  <PUBCHEM_FEATURE_SELFOVERLAP>  (1) 
66.247

>  <PUBCHEM_SHAPE_FINGERPRINT>  (1) 
10616163 171 18412548673944529358
10940486 97 17758693148576576612
11045515 52 18260832583239928149
11186622 123 18334009476009478882
114674 6 18049438446157927746
12553582 1 18271233997813717812
12760667 363 18270114596060518629
12788726 201 18128819638067151208
12969540 37 18193552496136430989
13631057 29 18412269437162692500
138480 1 14880600270794371656
13955234 65 17840024379664747665
14251757 5 18335981961404582421
14790565 3 17907020569609014841
14866123 147 17981889644943567017
15250474 111 18264209098102739810
15352361 1 18411699889363862623
15537594 2 18338533991947719370
15927050 60 17261594488199106004
17492 89 18196372512050394118
19958102 18 18044646499923275653
21054139 6 18334303080753892854
21250096 35 18413386531616477573
221357 26 18264488558692309323
221490 88 18193840564067178417
22950370 63 18412549807705229421
23379529 103 18270689641106757862
23559900 14 18267013037474195977
23845131 108 16326522598179241041
25222932 49 18199185272873018982
3004659 81 18187080603560479086
314173 41 18340492252184818317
314194 84 18339645641369163373
325973 47 18338238167481017926
3421961 26 18198341951644122777
46194498 28 17531526606719601773
463206 1 18408326587721955827
474144 1 17388239165999986107
5104073 3 18202002114088680008
5309563 4 18341898553452998687
5486654 36 18338812212009204689
6433294 58 18194120939294916923
6669772 16 17479182311502622252
6823239 73 18340477984356196056
7970288 3 18412823581658164854
9709674 26 18121214552946088025

>  <PUBCHEM_SHAPE_MULTIPOLES>  (1) 
460.24
11.74
4.85
0.76
0.04
0.18
-0.04
9.54
-2.35
-0.01
1.57
0
-0.18
0

>  <PUBCHEM_SHAPE_SELFOVERLAP>  (1) 
1012.583

>  <PUBCHEM_SHAPE_VOLUME>  (1) 
245

>  <PUBCHEM_COORDINATE_TYPE>  (1) 
2
5
10

$$$$
