35617
     RDKit          3D

 21 23  0  0  0  0  0  0  0  0999 V2000
    0.0025    3.9517    0.3138 O   0  0  0  0  0  0  0  0  0  0  0  0
    0.0013    0.0887   -0.0067 N   0  0  0  0  0  0  0  0  0  0  0  0
   -1.2275    2.0631    0.1687 N   0  0  0  0  0  0  0  0  0  0  0  0
    1.2314    2.0625    0.1682 N   0  0  0  0  0  0  0  0  0  0  0  0
   -2.4942    0.0161    0.0005 C   0  0  0  0  0  0  0  0  0  0  0  0
    2.4959    0.0145    0.0000 C   0  0  0  0  0  0  0  0  0  0  0  0
   -1.2033    0.7599    0.0585 C   0  0  0  0  0  0  0  0  0  0  0  0
    1.2061    0.7596    0.0581 C   0  0  0  0  0  0  0  0  0  0  0  0
   -3.6238    0.6212   -0.5502 C   0  0  0  0  0  0  0  0  0  0  0  0
    3.6228    0.6203   -0.5508 C   0  0  0  0  0  0  0  0  0  0  0  0
   -2.5720   -1.2853    0.4967 C   0  0  0  0  0  0  0  0  0  0  0  0
    2.5694   -1.2847    0.4972 C   0  0  0  0  0  0  0  0  0  0  0  0
   -4.9092   -1.3764   -0.1085 C   0  0  0  0  0  0  0  0  0  0  0  0
    4.9067   -1.3780   -0.1079 C   0  0  0  0  0  0  0  0  0  0  0  0
   -4.8313   -0.0750   -0.6046 C   0  0  0  0  0  0  0  0  0  0  0  0
    4.8298   -0.0769   -0.6049 C   0  0  0  0  0  0  0  0  0  0  0  0
   -3.7795   -1.9816    0.4423 C   0  0  0  0  0  0  0  0  0  0  0  0
    3.7764   -1.9820    0.4431 C   0  0  0  0  0  0  0  0  0  0  0  0
   -6.2007   -2.1203   -0.1661 C   0  0  0  0  0  0  0  0  0  0  0  0
    6.1971   -2.1236   -0.1665 C   0  0  0  0  0  0  0  0  0  0  0  0
    0.0021    2.7260    0.2190 C   0  0  0  0  0  0  0  0  0  0  0  0
  1 21  2  0
  2  7  1  0
  2  8  1  0
  3  7  2  0
  3 21  1  0
  4  8  2  0
  4 21  1  0
  5  7  1  0
  5  9  2  0
  5 11  1  0
  6  8  1  0
  6 10  2  0
  6 12  1  0
  9 15  1  0
 10 16  1  0
 11 17  2  0
 12 18  2  0
 13 15  2  0
 13 17  1  0
 13 19  1  0
 14 16  2  0
 14 18  1  0
 14 20  1  0
M  END
>  <PUBCHEM_COMPOUND_CID>  (1) 
35617

>  <PUBCHEM_CONFORMER_RMSD>  (1) 
0.6

>  <PUBCHEM_CONFORMER_DIVERSEORDER>  (1) 
1
2

>  <PUBCHEM_MMFF94_PARTIAL_CHARGES>  (1) 
30
1 -0.57
10 -0.15
11 -0.15
12 -0.15
13 -0.14
14 -0.14
15 -0.15
16 -0.15
17 -0.15
18 -0.15
19 0.14
2 -0.5
20 0.14
21 0.99
22 0.4
23 0.15
24 0.15
25 0.15
26 0.15
27 0.15
28 0.15
29 0.15
3 -0.66
30 0.15
4 -0.66
5 0.09
6 0.09
7 0.41
8 0.41
9 -0.15

>  <PUBCHEM_EFFECTIVE_ROTOR_COUNT>  (1) 
2

>  <PUBCHEM_PHARMACOPHORE_FEATURES>  (1) 
7
1 1 acceptor
1 2 donor
1 3 donor
1 4 donor
6 2 3 4 7 8 21 rings
6 5 9 11 13 15 17 rings
6 6 10 12 14 16 18 rings

>  <PUBCHEM_HEAVY_ATOM_COUNT>  (1) 
21

>  <PUBCHEM_ATOM_DEF_STEREO_COUNT>  (1) 
0

>  <PUBCHEM_ATOM_UDEF_STEREO_COUNT>  (1) 
0

>  <PUBCHEM_BOND_DEF_STEREO_COUNT>  (1) 
0

>  <PUBCHEM_BOND_UDEF_STEREO_COUNT>  (1) 
0

>  <PUBCHEM_ISOTOPIC_ATOM_COUNT>  (1) 
0

>  <PUBCHEM_COMPONENT_COUNT>  (1) 
1

>  <PUBCHEM_CACTVS_TAUTO_COUNT>  (1) 
3

>  <PUBCHEM_CONFORMER_ID>  (1) 
00008B2100000001

>  <PUBCHEM_MMFF94_ENERGY>  (1) 
66.8502

>  <PUBCHEM_FEATURE_SELFOVERLAP>  (1) 
35.632

>  <PUBCHEM_SHAPE_FINGERPRINT>  (1) 
10411042 1 18411419509593308409
10616163 171 18267586801986327102
11045515 52 18113901524463002260
11265709 11 18411421695863686889
12166972 35 17967256403223088550
12363563 72 18412554205624802295
12403259 118 11671766200534606443
12516196 113 18412824706970660114
12553582 1 18341880913980317486
12592606 108 18341612655704932639
12760667 363 18411140203670261619
12788726 201 18190736432003421520
13288520 33 18411419488445584559
13533116 47 18197217169203684939
13544653 18 18335146400896305864
13631057 29 18338518539462490562
13685833 64 18408888468777068531
13862211 1 18412825789265911278
13955234 65 17910676793552626881
14576447 43 18260830359221607386
14767858 380 18262532502074101524
14790565 3 17618504277342113361
14866123 147 18196937674059666129
14931854 50 17968093088396046242
15042514 8 18268997483583352161
15183329 4 18260822671214109031
15188451 53 16128359528844312255
15196674 1 18409448085244764439
15352361 1 18410573985167522259
15927050 60 17693940000606874188
1813 80 18130803272997103341
18222031 100 18202279229752459079
18681886 176 18407757037342524370
19427546 20 18191591856851772100
19784866 240 18412268345982387003
200 152 18335138674503302542
20028762 73 17846213431854733703
20261772 1 17917706916144523902
20281475 54 18410016528509103017
20374829 77 18409727344150264675
20388580 30 18334862761472720012
20403669 9 18341619217349175439
20645477 70 18191862530000901113
20832881 197 18408604782028870001
21033650 10 16878217554808539885
21250096 35 18410573993794256699
21267235 1 18410300202466890607
21279426 13 18335129883090434725
221357 26 18334289899124903015
221490 88 18118971523097035667
2215653 11 18336254722298753751
22950370 63 18411423903481950225
2297311 6 18341901744935505110
23402539 116 18341328894644428109
23403322 49 18409448085624585583
23522609 53 18122941791372535569
23557571 272 18129381488994059380
23559900 14 18338227297582429753
270888 7 8934999265452836774
2871803 45 18187364324741957522
2916195 48 11242265068719910846
3004659 81 18113335302102716250
314173 41 18338802315729223583
314194 84 18339365274473318795
329604 57 18407763638216543990
335352 9 18410290282110353981
3421961 26 18341329014930243545
351380 3 18342737429301559343
4214541 1 18335138648649148317
46194498 28 17386565911376379197
463206 1 18336828696653112475
465052 167 18272375307889541543
5104073 3 18202845439570487840
5283173 99 18114736023749755573
5486654 36 18336559269755194369
559249 180 18411417272580160799
59682541 35 18272356604451420162
77188 2 18412544340106938272
7970288 3 18413106164731468487
8863177 126 17970922287219010395
9709674 26 18046907353833670083

>  <PUBCHEM_SHAPE_MULTIPOLES>  (1) 
411.36
13.48
3.14
0.72
0.04
2.44
0.02
-12.79
2.08
-0.01
-0.5
0
-0.05
0

>  <PUBCHEM_SHAPE_SELFOVERLAP>  (1) 
898.011

>  <PUBCHEM_SHAPE_VOLUME>  (1) 
222.4

>  <PUBCHEM_COORDINATE_TYPE>  (1) 
2
5
10

$$$$
