35627
     RDKit          3D

 16 17  0  0  0  0  0  0  0  0999 V2000
    1.5206    1.3353   -2.2493 Cl  0  0  0  0  0  0  0  0  0  0  0  0
   -1.7745   -3.0110   -0.6535 Cl  0  0  0  0  0  0  0  0  0  0  0  0
   -4.6143    1.2443    0.2948 Cl  0  0  0  0  0  0  0  0  0  0  0  0
    0.2987    1.2956    0.4976 O   0  0  0  0  0  0  0  0  0  0  0  0
   -2.0125    1.2439    0.3952 N   0  0  0  0  0  0  0  0  0  0  0  0
   -0.7030   -0.7186   -0.0422 N   0  0  0  0  0  0  0  0  0  0  0  0
   -3.0972   -0.8227   -0.1616 N   0  0  0  0  0  0  0  0  0  0  0  0
    1.4866    0.6373    0.3796 C   0  0  0  0  0  0  0  0  0  0  0  0
    2.1618    0.5756   -0.8395 C   0  0  0  0  0  0  0  0  0  0  0  0
    2.0252    0.0174    1.5073 C   0  0  0  0  0  0  0  0  0  0  0  0
    3.3755   -0.1058   -0.9308 C   0  0  0  0  0  0  0  0  0  0  0  0
    3.2389   -0.6640    1.4157 C   0  0  0  0  0  0  0  0  0  0  0  0
    3.9140   -0.7257    0.1968 C   0  0  0  0  0  0  0  0  0  0  0  0
   -0.8600    0.5733    0.2732 C   0  0  0  0  0  0  0  0  0  0  0  0
   -1.8675   -1.3552   -0.2463 C   0  0  0  0  0  0  0  0  0  0  0  0
   -3.0923    0.4803    0.1629 C   0  0  0  0  0  0  0  0  0  0  0  0
  1  9  1  0
  2 15  1  0
  3 16  1  0
  4  8  1  0
  4 14  1  0
  5 14  2  0
  5 16  1  0
  6 14  1  0
  6 15  2  0
  7 15  1  0
  7 16  2  0
  8  9  2  0
  8 10  1  0
  9 11  1  0
 10 12  2  0
 11 13  2  0
 12 13  1  0
M  END
>  <PUBCHEM_COMPOUND_CID>  (1) 
35627

>  <PUBCHEM_CONFORMER_RMSD>  (1) 
0.6

>  <PUBCHEM_CONFORMER_DIVERSEORDER>  (1) 
1
7
6
5
2
3
4

>  <PUBCHEM_MMFF94_PARTIAL_CHARGES>  (1) 
20
1 -0.18
10 -0.15
11 -0.15
12 -0.15
13 -0.15
14 0.7
15 0.8
16 0.8
17 0.15
18 0.15
19 0.15
2 -0.18
20 0.15
3 -0.18
4 -0.17
5 -0.62
6 -0.62
7 -0.62
8 0.08
9 0.18

>  <PUBCHEM_EFFECTIVE_ROTOR_COUNT>  (1) 
2

>  <PUBCHEM_PHARMACOPHORE_FEATURES>  (1) 
5
3 5 6 14 cation
3 5 7 16 cation
3 6 7 15 cation
6 5 6 7 14 15 16 rings
6 8 9 10 11 12 13 rings

>  <PUBCHEM_HEAVY_ATOM_COUNT>  (1) 
16

>  <PUBCHEM_ATOM_DEF_STEREO_COUNT>  (1) 
0

>  <PUBCHEM_ATOM_UDEF_STEREO_COUNT>  (1) 
0

>  <PUBCHEM_BOND_DEF_STEREO_COUNT>  (1) 
0

>  <PUBCHEM_BOND_UDEF_STEREO_COUNT>  (1) 
0

>  <PUBCHEM_ISOTOPIC_ATOM_COUNT>  (1) 
0

>  <PUBCHEM_COMPONENT_COUNT>  (1) 
1

>  <PUBCHEM_CACTVS_TAUTO_COUNT>  (1) 
1

>  <PUBCHEM_CONFORMER_ID>  (1) 
00008B2B00000001

>  <PUBCHEM_MMFF94_ENERGY>  (1) 
41.2559

>  <PUBCHEM_FEATURE_SELFOVERLAP>  (1) 
28.159

>  <PUBCHEM_SHAPE_FINGERPRINT>  (1) 
10366900 7 16487259863382013152
11471102 22 15626225706559016528
11578080 2 17826196779552417628
12236239 1 18113903736628966016
12346177 29 17988633130023699511
12403259 327 17773854464155736026
124424 183 17346598552011041466
12500047 106 18273209794222885790
13538477 17 18335985354011638027
14115302 16 18412552006722924516
15207287 21 17346880009554708156
15375358 24 17418091014041197576
15852999 172 17988931028622988919
16752209 62 18340480166721990039
16945 1 18339347587634177840
17804303 29 18272931630639359435
1813 80 17605272870672414594
18186145 218 16877941663236059553
18522853 266 18341051907972092230
19049666 15 16772689697333907944
19422 9 17968101962129983787
20233049 118 18410857629171568544
20279233 1 17131834265477163764
20361792 2 17458892791347521478
20600515 1 18131630075666182392
20645476 183 18041007271027388835
20681677 155 18409452488002993962
21639500 275 16588589841469996036
2255824 54 17531252802781048468
23184049 29 18054779848018440083
232386 152 18341890839802355406
23402539 116 17846205619303335813
23557571 272 17987516086027944520
23559900 14 18131355202871181132
23598291 2 17968100866681195583
25 1 16298681572114888076
465052 167 18041295326384335139
474 4 17242745426924698692
57426455 114 18060414703223656851
58051976 100 18259708904114948567
69090 78 16702009864659615405
74978 22 18340767151729901641
77492 1 18113900463716095904
81228 2 16915406332257519288
8272917 22 17241610507580661969
88987 49 18271527610209692757

>  <PUBCHEM_SHAPE_MULTIPOLES>  (1) 
314.07
7.28
1.97
1.43
2.49
1.49
-0.4
-0.42
0.85
1.64
-0.69
-1.34
-0.32
-1.23

>  <PUBCHEM_SHAPE_SELFOVERLAP>  (1) 
649.284

>  <PUBCHEM_SHAPE_VOLUME>  (1) 
180.5

>  <PUBCHEM_COORDINATE_TYPE>  (1) 
2
5
10

$$$$
