35634
     RDKit          3D

 13 13  0  0  0  0  0  0  0  0999 V2000
    2.8238   -2.1403   -0.0034 Cl  0  0  0  0  0  0  0  0  0  0  0  0
   -1.0868    2.2479    0.0093 O   0  0  0  0  0  0  0  0  0  0  0  0
   -2.0640   -0.4362    0.0007 C   0  0  0  0  0  0  0  0  0  0  0  0
   -0.5656   -0.0910    0.0025 C   0  0  0  0  0  0  0  0  0  0  0  0
   -2.2436   -1.9698   -0.0041 C   0  0  0  0  0  0  0  0  0  0  0  0
   -2.7324    0.1572   -1.2583 C   0  0  0  0  0  0  0  0  0  0  0  0
   -2.8328    0.1094    1.2254 C   0  0  0  0  0  0  0  0  0  0  0  0
   -0.1840    1.2276    0.0066 C   0  0  0  0  0  0  0  0  0  0  0  0
    0.3291   -1.1333   -0.0001 C   0  0  0  0  0  0  0  0  0  0  0  0
    1.1790    1.5239    0.0079 C   0  0  0  0  0  0  0  0  0  0  0  0
    2.1171    0.4915    0.0050 C   0  0  0  0  0  0  0  0  0  0  0  0
    1.6921   -0.8370    0.0011 C   0  0  0  0  0  0  0  0  0  0  0  0
    3.5681    0.8502    0.0073 C   0  0  0  0  0  0  0  0  0  0  0  0
  1 12  1  0
  2  8  1  0
  3  4  1  0
  3  5  1  0
  3  6  1  0
  3  7  1  0
  4  8  2  0
  4  9  1  0
  8 10  1  0
  9 12  2  0
 10 11  2  0
 11 12  1  0
 11 13  1  0
M  END
>  <PUBCHEM_COMPOUND_CID>  (1) 
35634

>  <PUBCHEM_CONFORMER_RMSD>  (1) 
0.4

>  <PUBCHEM_CONFORMER_DIVERSEORDER>  (1) 
1
2

>  <PUBCHEM_MMFF94_PARTIAL_CHARGES>  (1) 
13
1 -0.18
10 -0.15
11 -0.14
12 0.18
13 0.14
2 -0.53
23 0.15
24 0.15
28 0.45
3 0.14
4 -0.14
8 0.08
9 -0.15

>  <PUBCHEM_EFFECTIVE_ROTOR_COUNT>  (1) 
1

>  <PUBCHEM_PHARMACOPHORE_FEATURES>  (1) 
3
1 2 donor
4 3 5 6 7 hydrophobe
6 4 8 9 10 11 12 rings

>  <PUBCHEM_HEAVY_ATOM_COUNT>  (1) 
13

>  <PUBCHEM_ATOM_DEF_STEREO_COUNT>  (1) 
0

>  <PUBCHEM_ATOM_UDEF_STEREO_COUNT>  (1) 
0

>  <PUBCHEM_BOND_DEF_STEREO_COUNT>  (1) 
0

>  <PUBCHEM_BOND_UDEF_STEREO_COUNT>  (1) 
0

>  <PUBCHEM_ISOTOPIC_ATOM_COUNT>  (1) 
0

>  <PUBCHEM_COMPONENT_COUNT>  (1) 
1

>  <PUBCHEM_CACTVS_TAUTO_COUNT>  (1) 
6

>  <PUBCHEM_CONFORMER_ID>  (1) 
00008B3200000001

>  <PUBCHEM_MMFF94_ENERGY>  (1) 
48.0601

>  <PUBCHEM_FEATURE_SELFOVERLAP>  (1) 
15.223

>  <PUBCHEM_SHAPE_FINGERPRINT>  (1) 
10967382 1 18410293635556470282
11132069 177 18339354270993687088
12138202 97 17822831153021070015
12382932 28 18341052998814456323
12524768 44 18412830161595171231
12897270 3 18410853295670444532
12932764 1 17894349960201537746
13140716 1 18122907800562972920
13296908 3 18186803556225714691
13571099 22 18409158896570048479
14617773 55 17988364749906350273
15219456 202 18260828180871055759
15775835 57 18202009836423806568
16945 1 18410855486093332772
17844478 74 17821739350912317985
18619055 16 18336817628500629175
193761 8 18266741268875206152
200 152 17986947647549820335
20201158 50 18335414707471709974
20645477 70 18338791230519301399
20711985 365 18266175024307218524
21501502 16 18268991994883815844
2334 1 18338516459902162862
23402655 69 18339623582987077877
23463225 33 18409166615064038098
23552423 10 18261114037020467326
23559900 14 17837489649497902374
2748010 2 18265892454441064084
3312278 4 18409729603181548136
5084963 1 18047186633707156065
528886 8 18340766030653630307
63268167 104 18411980282093217315
7364860 26 18343301436402133922
8030462 33 17989201577176381315

>  <PUBCHEM_SHAPE_MULTIPOLES>  (1) 
263.53
5
2.13
0.85
1.15
0.26
0.01
0.81
-0.04
0.59
0
-0.66
-0.03
0.01

>  <PUBCHEM_SHAPE_SELFOVERLAP>  (1) 
538.267

>  <PUBCHEM_SHAPE_VOLUME>  (1) 
156.8

>  <PUBCHEM_COORDINATE_TYPE>  (1) 
2
5
10

$$$$
