35631
     RDKit          3D

 19 21  0  0  0  0  0  0  0  0999 V2000
    2.2880    0.3921    3.0675 Cl  0  0  0  0  0  0  0  0  0  0  0  0
    5.1484   -0.8466   -1.0985 Cl  0  0  0  0  0  0  0  0  0  0  0  0
    0.3976    0.3670   -1.4708 O   0  0  0  0  0  0  0  0  0  0  0  0
    2.6318   -0.2003   -1.2674 N   0  0  0  0  0  0  0  0  0  0  0  0
    1.3128    0.3709    0.6538 N   0  0  0  0  0  0  0  0  0  0  0  0
    3.6261   -0.2098    0.9164 N   0  0  0  0  0  0  0  0  0  0  0  0
   -1.6999   -0.2042   -0.4177 C   0  0  0  0  0  0  0  0  0  0  0  0
   -2.8962    0.2373    0.1960 C   0  0  0  0  0  0  0  0  0  0  0  0
   -0.7701    0.7455   -0.8718 C   0  0  0  0  0  0  0  0  0  0  0  0
   -3.1275    1.6153    0.3379 C   0  0  0  0  0  0  0  0  0  0  0  0
   -1.4686   -1.5821   -0.5592 C   0  0  0  0  0  0  0  0  0  0  0  0
   -3.8260   -0.7121    0.6503 C   0  0  0  0  0  0  0  0  0  0  0  0
   -1.0164    2.1108   -0.7231 C   0  0  0  0  0  0  0  0  0  0  0  0
   -2.1928    2.5449   -0.1192 C   0  0  0  0  0  0  0  0  0  0  0  0
   -2.4035   -2.5115   -0.1023 C   0  0  0  0  0  0  0  0  0  0  0  0
   -3.5801   -2.0773    0.5012 C   0  0  0  0  0  0  0  0  0  0  0  0
    1.4981    0.1700   -0.6575 C   0  0  0  0  0  0  0  0  0  0  0  0
    2.4224    0.1623    1.3807 C   0  0  0  0  0  0  0  0  0  0  0  0
    3.6560   -0.3721   -0.4162 C   0  0  0  0  0  0  0  0  0  0  0  0
  1 18  1  0
  2 19  1  0
  3  9  1  0
  3 17  1  0
  4 17  2  0
  4 19  1  0
  5 17  1  0
  5 18  2  0
  6 18  1  0
  6 19  2  0
  7  8  1  0
  7  9  2  0
  7 11  1  0
  8 10  2  0
  8 12  1  0
  9 13  1  0
 10 14  1  0
 11 15  2  0
 12 16  2  0
 13 14  2  0
 15 16  1  0
M  END
>  <PUBCHEM_COMPOUND_CID>  (1) 
35631

>  <PUBCHEM_CONFORMER_RMSD>  (1) 
0.6

>  <PUBCHEM_CONFORMER_DIVERSEORDER>  (1) 
1
6
7
5
2
3
4

>  <PUBCHEM_MMFF94_PARTIAL_CHARGES>  (1) 
24
1 -0.18
10 -0.15
11 -0.15
12 -0.15
13 -0.15
14 -0.15
15 -0.15
16 -0.15
17 0.7
18 0.8
19 0.8
2 -0.18
20 0.15
21 0.15
22 0.15
23 0.15
24 0.15
25 0.15
26 0.15
3 -0.17
4 -0.62
5 -0.62
6 -0.62
9 0.08

>  <PUBCHEM_EFFECTIVE_ROTOR_COUNT>  (1) 
2

>  <PUBCHEM_PHARMACOPHORE_FEATURES>  (1) 
6
3 4 5 17 cation
3 4 6 19 cation
3 5 6 18 cation
6 4 5 6 17 18 19 rings
6 7 8 11 12 15 16 rings
6 7 8 9 10 13 14 rings

>  <PUBCHEM_HEAVY_ATOM_COUNT>  (1) 
19

>  <PUBCHEM_ATOM_DEF_STEREO_COUNT>  (1) 
0

>  <PUBCHEM_ATOM_UDEF_STEREO_COUNT>  (1) 
0

>  <PUBCHEM_BOND_DEF_STEREO_COUNT>  (1) 
0

>  <PUBCHEM_BOND_UDEF_STEREO_COUNT>  (1) 
0

>  <PUBCHEM_ISOTOPIC_ATOM_COUNT>  (1) 
0

>  <PUBCHEM_COMPONENT_COUNT>  (1) 
1

>  <PUBCHEM_CACTVS_TAUTO_COUNT>  (1) 
1

>  <PUBCHEM_CONFORMER_ID>  (1) 
00008B2F00000001

>  <PUBCHEM_MMFF94_ENERGY>  (1) 
56.2857

>  <PUBCHEM_FEATURE_SELFOVERLAP>  (1) 
33.256

>  <PUBCHEM_SHAPE_FINGERPRINT>  (1) 
10366900 7 18060413582210805838
10369192 42 17699557350291413840
10616163 171 18335709320938476278
11046707 91 18187085074246952975
11370993 144 17632584846141678498
12236239 1 17530974565650523005
12500047 106 18340485539140144845
12553582 1 18187361086268168043
12633257 1 16916801724345937211
12670545 47 17846773044169275637
12824470 246 17313940948085318851
13083527 12 17122239060068379663
13140716 1 18267036127391926513
14420673 8 17976543802261592798
14787075 74 17608373772229454772
15238133 3 16557933163521909776
15295992 7 17346312665934346985
15375462 189 17603303786531920601
15653759 3 18131349708927482008
16752209 62 18188475922565739223
16945 1 18409446973359924893
17804303 29 18342184379247268079
18219364 16 16845568716641211028
19049666 15 17845100553765478894
19422 9 17967540055784965710
200 152 16008746913815834892
20291156 8 18042125513002157547
21421861 104 16897083336649392435
21475661 188 16629703734033994361
21650355 55 18410011052879383829
21731516 1 17821997744402470601
22112679 90 18041011643156436213
2297311 6 18340504308447844094
23175994 123 16988573359724560740
23419403 2 17114887665158454565
23503958 8 18335419045642146658
23559900 14 18412543232057519500
23598288 3 17024581196881400364
23598291 2 17603884302696082276
23598294 1 18261671489120441673
2838139 119 15266508301532112113
3286 77 17060060397184752223
474 4 14189580736415129596
602551 16 18410575089427843530
603831 33 17022899043159681780
6049 1 17988636424073665968
77492 1 17530970167646248780
7970288 3 18190189077304222307
81228 2 18411688903344064653
84936 182 17191221929890179033
90316 7 18261110755813536157
9981440 41 12891070750097834202

>  <PUBCHEM_SHAPE_MULTIPOLES>  (1) 
373.94
8.06
2.21
1.73
6.43
0.04
1.47
-2.75
0.21
-3.08
-0.21
2.09
0.29
0.91

>  <PUBCHEM_SHAPE_SELFOVERLAP>  (1) 
811.19

>  <PUBCHEM_SHAPE_VOLUME>  (1) 
204.2

>  <PUBCHEM_COORDINATE_TYPE>  (1) 
2
5
10

$$$$
