35635
     RDKit          3D

 12 12  0  0  0  0  0  0  0  0999 V2000
    1.5331    3.0047    0.0725 Cl  0  0  0  0  0  0  0  0  0  0  0  0
    3.7210   -1.6894   -0.4174 Cl  0  0  0  0  0  0  0  0  0  0  0  0
   -1.4396   -1.3141    0.5591 S   0  0  0  0  0  0  0  0  0  0  0  0
    1.1816   -1.3701    0.0619 N   0  0  0  0  0  0  0  0  0  0  0  0
    0.1724    0.7952    0.2877 N   0  0  0  0  0  0  0  0  0  0  0  0
    2.5228    0.6074   -0.1583 N   0  0  0  0  0  0  0  0  0  0  0  0
   -4.0200   -0.5230    0.0346 C   0  0  0  0  0  0  0  0  0  0  0  0
   -2.5733   -0.0644   -0.1104 C   0  0  0  0  0  0  0  0  0  0  0  0
   -4.9826    0.5172   -0.5193 C   0  0  0  0  0  0  0  0  0  0  0  0
    0.1493   -0.5433    0.2700 C   0  0  0  0  0  0  0  0  0  0  0  0
    1.3957    1.3025    0.0653 C   0  0  0  0  0  0  0  0  0  0  0  0
    2.3396   -0.7226   -0.1457 C   0  0  0  0  0  0  0  0  0  0  0  0
  1 11  1  0
  2 12  1  0
  3  8  1  0
  3 10  1  0
  4 10  2  0
  4 12  1  0
  5 10  1  0
  5 11  2  0
  6 11  1  0
  6 12  2  0
  7  8  1  0
  7  9  1  0
M  END
>  <PUBCHEM_COMPOUND_CID>  (1) 
35635

>  <PUBCHEM_CONFORMER_RMSD>  (1) 
0.6

>  <PUBCHEM_CONFORMER_DIVERSEORDER>  (1) 
1
14
13
2
3
4
8
5
12
11
15
7
10
6
9

>  <PUBCHEM_MMFF94_PARTIAL_CHARGES>  (1) 
10
1 -0.18
10 0.72
11 0.8
12 0.8
2 -0.18
3 -0.33
4 -0.62
5 -0.62
6 -0.62
8 0.23

>  <PUBCHEM_EFFECTIVE_ROTOR_COUNT>  (1) 
3

>  <PUBCHEM_PHARMACOPHORE_FEATURES>  (1) 
5
1 9 hydrophobe
3 4 5 10 cation
3 4 6 12 cation
3 5 6 11 cation
6 4 5 6 10 11 12 rings

>  <PUBCHEM_HEAVY_ATOM_COUNT>  (1) 
12

>  <PUBCHEM_ATOM_DEF_STEREO_COUNT>  (1) 
0

>  <PUBCHEM_ATOM_UDEF_STEREO_COUNT>  (1) 
0

>  <PUBCHEM_BOND_DEF_STEREO_COUNT>  (1) 
0

>  <PUBCHEM_BOND_UDEF_STEREO_COUNT>  (1) 
0

>  <PUBCHEM_ISOTOPIC_ATOM_COUNT>  (1) 
0

>  <PUBCHEM_COMPONENT_COUNT>  (1) 
1

>  <PUBCHEM_CACTVS_TAUTO_COUNT>  (1) 
1

>  <PUBCHEM_CONFORMER_ID>  (1) 
00008B3300000001

>  <PUBCHEM_MMFF94_ENERGY>  (1) 
13.428

>  <PUBCHEM_FEATURE_SELFOVERLAP>  (1) 
28.159

>  <PUBCHEM_SHAPE_FINGERPRINT>  (1) 
10130415 120 18334012765985660426
10608611 8 18263080080001751761
11471102 20 18410572890140558039
13922767 16 18408880763072528345
14325111 11 18337109072702952235
14648413 74 18191590954427961768
14911166 2 18335988588159377022
15477762 27 18343021094547800735
15848700 24 18343019939570759326
17041 50 18409166593299083815
18186145 218 18187639207217947903
18410436 195 18272371949567721368
20201158 50 18410296886942042203
20233049 118 18114462262433626743
20606313 2 18410855468718096398
20645477 70 18341896290142669711
20671657 1 18339646753697355205
20671657 53 18342464690219334582
21119208 17 18130784538919327247
221490 88 18265059204989793819
23402539 116 18200027313848186143
23402655 69 18413105061488355893
2748010 2 18049173459708294194
58734987 36 18411420587930825510
7364860 26 18342177825354203000
81228 2 18051148999057507504
93112 12 18411418440668853543

>  <PUBCHEM_SHAPE_MULTIPOLES>  (1) 
239.6
7.57
2.35
0.7
9.07
1.9
0
-1.34
1.69
-2.45
-0.07
0.11
-0.06
0.52

>  <PUBCHEM_SHAPE_SELFOVERLAP>  (1) 
447.482

>  <PUBCHEM_SHAPE_VOLUME>  (1) 
151.5

>  <PUBCHEM_COORDINATE_TYPE>  (1) 
2
5
10

$$$$
