35644
     RDKit          3D

 11 11  0  0  0  0  0  0  0  0999 V2000
   -3.0819   -0.0436   -1.7187 I   0  0  0  0  0  0  0  0  0  0  0  0
   -3.0817   -0.0441    1.7188 I   0  0  0  0  0  0  0  0  0  0  0  0
    1.3975    2.9154    0.0000 Cl  0  0  0  0  0  0  0  0  0  0  0  0
    2.8160   -2.0899    0.0002 Cl  0  0  0  0  0  0  0  0  0  0  0  0
    0.3222   -1.3400   -0.0003 N   0  0  0  0  0  0  0  0  0  0  0  0
   -0.3320    0.9687    0.0003 N   0  0  0  0  0  0  0  0  0  0  0  0
    1.9944    0.3809    0.0000 N   0  0  0  0  0  0  0  0  0  0  0  0
   -0.5851   -0.3502    0.0000 C   0  0  0  0  0  0  0  0  0  0  0  0
   -2.0193   -0.7567   -0.0001 C   0  0  0  0  0  0  0  0  0  0  0  0
    0.9789    1.2594    0.0002 C   0  0  0  0  0  0  0  0  0  0  0  0
    1.5908   -0.8998   -0.0004 C   0  0  0  0  0  0  0  0  0  0  0  0
  1  9  1  0
  2  9  1  0
  3 10  1  0
  4 11  1  0
  5  8  2  0
  5 11  1  0
  6  8  1  0
  6 10  2  0
  7 10  1  0
  7 11  2  0
  8  9  1  0
M  END
>  <PUBCHEM_COMPOUND_CID>  (1) 
35644

>  <PUBCHEM_CONFORMER_RMSD>  (1) 
0.4

>  <PUBCHEM_CONFORMER_DIVERSEORDER>  (1) 
1
2
3

>  <PUBCHEM_MMFF94_PARTIAL_CHARGES>  (1) 
11
1 -0.19
10 0.8
11 0.8
2 -0.19
3 -0.18
4 -0.18
5 -0.62
6 -0.62
7 -0.62
8 0.48
9 0.52

>  <PUBCHEM_EFFECTIVE_ROTOR_COUNT>  (1) 
1

>  <PUBCHEM_PHARMACOPHORE_FEATURES>  (1) 
7
1 1 hydrophobe
1 2 hydrophobe
3 1 2 9 hydrophobe
3 5 6 8 cation
3 5 7 11 cation
3 6 7 10 cation
6 5 6 7 8 10 11 rings

>  <PUBCHEM_HEAVY_ATOM_COUNT>  (1) 
11

>  <PUBCHEM_ATOM_DEF_STEREO_COUNT>  (1) 
0

>  <PUBCHEM_ATOM_UDEF_STEREO_COUNT>  (1) 
0

>  <PUBCHEM_BOND_DEF_STEREO_COUNT>  (1) 
0

>  <PUBCHEM_BOND_UDEF_STEREO_COUNT>  (1) 
0

>  <PUBCHEM_ISOTOPIC_ATOM_COUNT>  (1) 
0

>  <PUBCHEM_COMPONENT_COUNT>  (1) 
1

>  <PUBCHEM_CACTVS_TAUTO_COUNT>  (1) 
1

>  <PUBCHEM_CONFORMER_ID>  (1) 
00008B3C00000001

>  <PUBCHEM_MMFF94_ENERGY>  (1) 
16.019

>  <PUBCHEM_FEATURE_SELFOVERLAP>  (1) 
39.175

>  <PUBCHEM_SHAPE_FINGERPRINT>  (1) 
12759256 9 18412260653316203710
12932741 1 17748821925896619287
12932764 1 17749389286744790339
13294875 104 16739124893441724805
16945 1 18410855503183401252
17357990 137 17415874386089343513
18380122 1 17606968562114367963
20653085 51 18335686240406174309
20711985 344 17759512279689772018
20715346 28 17822008761352189933
20871998 184 17767408972221662174
21040471 1 17617940678710713696
21061003 4 18189349999707665107
21524375 3 17687180207198230368
21930827 45 16515395249556455743
22112679 90 17418097632934044921
228727 97 17343786169092752709
23211744 41 17606389114949054097
23526113 38 17968926505493115171
23552423 10 18269276927029514583
23557571 272 16588312725774262709
23598291 2 17917437501235175911
2748010 2 18266452114486420868
6049 1 17749113309415492997
63268167 104 18412539946549585859
6992083 37 17845375440647479135
77492 1 17703793643510700455
81228 2 17760080723033049896

>  <PUBCHEM_SHAPE_MULTIPOLES>  (1) 
239.04
5.03
2.33
1.47
1.72
1.44
0
-1.42
0
-2.8
0
2.39
-0.04
0

>  <PUBCHEM_SHAPE_SELFOVERLAP>  (1) 
427.794

>  <PUBCHEM_SHAPE_VOLUME>  (1) 
162.9

>  <PUBCHEM_COORDINATE_TYPE>  (1) 
2
5
10

$$$$
