35646
     RDKit          3D

 13 13  0  0  0  0  0  0  0  0999 V2000
    2.2615   -1.7538   -0.6604 Cl  0  0  0  0  0  0  0  0  0  0  0  0
    2.1038   -0.7092    2.0799 Cl  0  0  0  0  0  0  0  0  0  0  0  0
    2.4658    1.4211   -1.7749 Cl  0  0  0  0  0  0  0  0  0  0  0  0
   -2.7788   -2.3519   -0.5429 Cl  0  0  0  0  0  0  0  0  0  0  0  0
   -2.2386    2.7478    0.3324 Cl  0  0  0  0  0  0  0  0  0  0  0  0
   -0.2176    1.1056    0.3234 N   0  0  0  0  0  0  0  0  0  0  0  0
   -0.4669   -1.2467   -0.0797 N   0  0  0  0  0  0  0  0  0  0  0  0
   -2.3934    0.1837   -0.0933 N   0  0  0  0  0  0  0  0  0  0  0  0
    1.7245   -0.3266    0.3385 C   0  0  0  0  0  0  0  0  0  0  0  0
    0.2530   -0.1442    0.1843 C   0  0  0  0  0  0  0  0  0  0  0  0
    2.6177    0.8872   -0.0732 C   0  0  0  0  0  0  0  0  0  0  0  0
   -1.7820   -1.0065   -0.2055 C   0  0  0  0  0  0  0  0  0  0  0  0
   -1.5489    1.1935    0.1714 C   0  0  0  0  0  0  0  0  0  0  0  0
  1  9  1  0
  2  9  1  0
  3 11  1  0
  4 12  1  0
  5 13  1  0
  6 10  2  0
  6 13  1  0
  7 10  1  0
  7 12  2  0
  8 12  1  0
  8 13  2  0
  9 10  1  0
  9 11  1  0
M  END
>  <PUBCHEM_COMPOUND_CID>  (1) 
35646

>  <PUBCHEM_CONFORMER_RMSD>  (1) 
0.6

>  <PUBCHEM_CONFORMER_DIVERSEORDER>  (1) 
1
7
6
2
9
8
4
5
3

>  <PUBCHEM_MMFF94_PARTIAL_CHARGES>  (1) 
13
1 -0.29
10 0.48
11 0.29
12 0.8
13 0.8
2 -0.29
3 -0.29
4 -0.18
5 -0.18
6 -0.62
7 -0.62
8 -0.62
9 0.72

>  <PUBCHEM_EFFECTIVE_ROTOR_COUNT>  (1) 
2

>  <PUBCHEM_PHARMACOPHORE_FEATURES>  (1) 
4
3 6 7 10 cation
3 6 8 13 cation
3 7 8 12 cation
6 6 7 8 10 12 13 rings

>  <PUBCHEM_HEAVY_ATOM_COUNT>  (1) 
13

>  <PUBCHEM_ATOM_DEF_STEREO_COUNT>  (1) 
0

>  <PUBCHEM_ATOM_UDEF_STEREO_COUNT>  (1) 
0

>  <PUBCHEM_BOND_DEF_STEREO_COUNT>  (1) 
0

>  <PUBCHEM_BOND_UDEF_STEREO_COUNT>  (1) 
0

>  <PUBCHEM_ISOTOPIC_ATOM_COUNT>  (1) 
0

>  <PUBCHEM_COMPONENT_COUNT>  (1) 
1

>  <PUBCHEM_CACTVS_TAUTO_COUNT>  (1) 
1

>  <PUBCHEM_CONFORMER_ID>  (1) 
00008B3E00000001

>  <PUBCHEM_MMFF94_ENERGY>  (1) 
23.256

>  <PUBCHEM_FEATURE_SELFOVERLAP>  (1) 
23.07

>  <PUBCHEM_SHAPE_FINGERPRINT>  (1) 
1 1 17549258130187790973
12202030 40 16558480758903853398
12423570 1 9003107667100068027
12716758 59 18129091221918373243
12897270 3 18269281321002552668
12932764 1 17060333050087627415
13380536 127 18408879654965704322
13538477 17 18335692836821728529
14648413 74 18267315243999029346
15279308 10 18187364307314155352
15852999 172 17841122499311025951
16945 1 18343295985582044777
20511035 2 17987508209047724958
20645476 183 18119824520702743143
21040471 1 18126277550145866449
21501502 16 18412832365029347678
22802520 49 17988659462167244550
228727 97 18116439338959183941
23419403 2 17181869797163039604
23552423 10 18335140869063168990
23557571 272 18202001066216587020
23559900 14 17843685453323067230
23598291 2 18114740434923559778
2748010 2 16967164519326993789
3060560 45 17688870835190792541
353137 74 18042971067244944420
5084963 1 18057322786332024434
6992083 37 17899397710894708216
81228 2 18342444946782013865
88987 49 18341885251928720536
9939556 21 18336274435660344694

>  <PUBCHEM_SHAPE_MULTIPOLES>  (1) 
261.94
4.61
2.65
1.35
0.25
0.5
-0.28
-0.2
0.63
1.95
0.42
-1.39
0.02
-1.18

>  <PUBCHEM_SHAPE_SELFOVERLAP>  (1) 
489.737

>  <PUBCHEM_SHAPE_VOLUME>  (1) 
161.9

>  <PUBCHEM_COORDINATE_TYPE>  (1) 
2
5
10

$$$$
