35640
     RDKit          3D

 11 11  0  0  0  0  0  0  0  0999 V2000
   -2.9087   -0.0400   -1.4632 Cl  0  0  0  0  0  0  0  0  0  0  0  0
   -2.9088   -0.0404    1.4632 Cl  0  0  0  0  0  0  0  0  0  0  0  0
    1.4765    2.8832    0.0000 Cl  0  0  0  0  0  0  0  0  0  0  0  0
    2.6905   -2.1756    0.0003 Cl  0  0  0  0  0  0  0  0  0  0  0  0
    0.2292   -1.3250   -0.0002 N   0  0  0  0  0  0  0  0  0  0  0  0
   -0.3306    1.0083    0.0003 N   0  0  0  0  0  0  0  0  0  0  0  0
    1.9700    0.3265    0.0000 N   0  0  0  0  0  0  0  0  0  0  0  0
   -0.6371   -0.2991    0.0000 C   0  0  0  0  0  0  0  0  0  0  0  0
   -2.0867   -0.6470   -0.0001 C   0  0  0  0  0  0  0  0  0  0  0  0
    0.9910    1.2456    0.0001 C   0  0  0  0  0  0  0  0  0  0  0  0
    1.5147   -0.9366   -0.0004 C   0  0  0  0  0  0  0  0  0  0  0  0
  1  9  1  0
  2  9  1  0
  3 10  1  0
  4 11  1  0
  5  8  2  0
  5 11  1  0
  6  8  1  0
  6 10  2  0
  7 10  1  0
  7 11  2  0
  8  9  1  0
M  END
>  <PUBCHEM_COMPOUND_CID>  (1) 
35640

>  <PUBCHEM_CONFORMER_RMSD>  (1) 
0.4

>  <PUBCHEM_CONFORMER_DIVERSEORDER>  (1) 
1
2
3

>  <PUBCHEM_MMFF94_PARTIAL_CHARGES>  (1) 
11
1 -0.29
10 0.8
11 0.8
2 -0.29
3 -0.18
4 -0.18
5 -0.62
6 -0.62
7 -0.62
8 0.48
9 0.72

>  <PUBCHEM_EFFECTIVE_ROTOR_COUNT>  (1) 
1

>  <PUBCHEM_PHARMACOPHORE_FEATURES>  (1) 
4
3 5 6 8 cation
3 5 7 11 cation
3 6 7 10 cation
6 5 6 7 8 10 11 rings

>  <PUBCHEM_HEAVY_ATOM_COUNT>  (1) 
11

>  <PUBCHEM_ATOM_DEF_STEREO_COUNT>  (1) 
0

>  <PUBCHEM_ATOM_UDEF_STEREO_COUNT>  (1) 
0

>  <PUBCHEM_BOND_DEF_STEREO_COUNT>  (1) 
0

>  <PUBCHEM_BOND_UDEF_STEREO_COUNT>  (1) 
0

>  <PUBCHEM_ISOTOPIC_ATOM_COUNT>  (1) 
0

>  <PUBCHEM_COMPONENT_COUNT>  (1) 
1

>  <PUBCHEM_CACTVS_TAUTO_COUNT>  (1) 
1

>  <PUBCHEM_CONFORMER_ID>  (1) 
00008B3800000001

>  <PUBCHEM_MMFF94_ENERGY>  (1) 
14.371

>  <PUBCHEM_FEATURE_SELFOVERLAP>  (1) 
23.07

>  <PUBCHEM_SHAPE_FINGERPRINT>  (1) 
1 1 18193837274085079316
12759256 9 18411979178386952806
12932741 1 17748823025376637511
12932764 1 17749106703661210091
16945 1 18410574023964470820
17357990 137 17344099357918164473
18380122 1 17679590205601566235
20711985 344 17759512275410654978
20715346 28 17822290240608030629
20871998 184 17695349174876112894
21040471 1 17690280834330985668
21061003 4 18261969435534154963
21524375 3 17759237792677872224
228727 97 17415563387639197989
23211744 41 17606390205844393025
23552423 10 18341332313507058391
241688 4 18194962933552764296
2748010 2 18266732481372105676
63268167 104 18412259562436539651
81228 2 17760364388448323792

>  <PUBCHEM_SHAPE_MULTIPOLES>  (1) 
218.91
4.35
2.43
1.05
2.04
1.42
0
-1.37
0
-2.82
0
1.27
-0.03
0

>  <PUBCHEM_SHAPE_SELFOVERLAP>  (1) 
412.236

>  <PUBCHEM_SHAPE_VOLUME>  (1) 
132

>  <PUBCHEM_COORDINATE_TYPE>  (1) 
2
5
10

$$$$
