35659
     RDKit          3D

 12 12  0  0  0  0  0  0  0  0999 V2000
   -2.5955   -0.7798    1.4648 Cl  0  0  0  0  0  0  0  0  0  0  0  0
   -2.6635    1.6981   -0.0056 Cl  0  0  0  0  0  0  0  0  0  0  0  0
   -2.5873   -0.7919   -1.4618 Cl  0  0  0  0  0  0  0  0  0  0  0  0
    2.4362    2.5222   -0.0005 Cl  0  0  0  0  0  0  0  0  0  0  0  0
    0.1318   -1.2138    0.0010 N   0  0  0  0  0  0  0  0  0  0  0  0
    0.2016    1.1847    0.0000 N   0  0  0  0  0  0  0  0  0  0  0  0
    2.2439   -0.0749    0.0006 N   0  0  0  0  0  0  0  0  0  0  0  0
   -0.4361    0.0030    0.0004 C   0  0  0  0  0  0  0  0  0  0  0  0
   -1.9262    0.0466   -0.0006 C   0  0  0  0  0  0  0  0  0  0  0  0
    1.4742   -1.1752    0.0010 C   0  0  0  0  0  0  0  0  0  0  0  0
    2.1818   -2.4869    0.0008 C   0  0  0  0  0  0  0  0  0  0  0  0
    1.5392    1.0681    0.0000 C   0  0  0  0  0  0  0  0  0  0  0  0
  1  9  1  0
  2  9  1  0
  3  9  1  0
  4 12  1  0
  5  8  2  0
  5 10  1  0
  6  8  1  0
  6 12  2  0
  7 10  2  0
  7 12  1  0
  8  9  1  0
 10 11  1  0
M  END
>  <PUBCHEM_COMPOUND_CID>  (1) 
35659

>  <PUBCHEM_CONFORMER_RMSD>  (1) 
0.4

>  <PUBCHEM_CONFORMER_DIVERSEORDER>  (1) 
1
2

>  <PUBCHEM_MMFF94_PARTIAL_CHARGES>  (1) 
12
1 -0.29
10 0.48
11 0.14
12 0.8
2 -0.29
3 -0.29
4 -0.18
5 -0.62
6 -0.62
7 -0.62
8 0.48
9 1.01

>  <PUBCHEM_EFFECTIVE_ROTOR_COUNT>  (1) 
1

>  <PUBCHEM_PHARMACOPHORE_FEATURES>  (1) 
4
3 5 6 8 cation
3 5 7 10 cation
3 6 7 12 cation
6 5 6 7 8 10 12 rings

>  <PUBCHEM_HEAVY_ATOM_COUNT>  (1) 
12

>  <PUBCHEM_ATOM_DEF_STEREO_COUNT>  (1) 
0

>  <PUBCHEM_ATOM_UDEF_STEREO_COUNT>  (1) 
0

>  <PUBCHEM_BOND_DEF_STEREO_COUNT>  (1) 
0

>  <PUBCHEM_BOND_UDEF_STEREO_COUNT>  (1) 
0

>  <PUBCHEM_ISOTOPIC_ATOM_COUNT>  (1) 
0

>  <PUBCHEM_COMPONENT_COUNT>  (1) 
1

>  <PUBCHEM_CACTVS_TAUTO_COUNT>  (1) 
1

>  <PUBCHEM_CONFORMER_ID>  (1) 
00008B4B00000001

>  <PUBCHEM_MMFF94_ENERGY>  (1) 
19.6497

>  <PUBCHEM_FEATURE_SELFOVERLAP>  (1) 
23.07

>  <PUBCHEM_SHAPE_FINGERPRINT>  (1) 
10130415 120 17972882449455889250
12423570 1 11923651713023820735
12932741 1 17821445755385092559
12932764 1 17988646315283043689
14648413 74 18335986371977240945
15775835 57 18059019509178890001
15852999 172 17678996408924090451
16945 1 18410855503236213734
17841504 4 18336274435491734627
17990270 104 18337107873863822762
18380122 1 17897174721843009267
19973954 147 18408326562173464025
20082192 1 17489317368930668565
20711985 344 17116088997286006686
21040471 1 18050286165760686816
21160774 45 17616531096013692263
21501502 16 18411695470180281061
21524375 3 17984982863078128504
228727 97 17630041800659256621
23552423 10 18412821386987203759
2748010 2 18407762533940521949
3248919 1 18040994050954307109
5084963 1 17988637549154448753
7364860 26 18413670193111180980
8030462 33 18410013251628112149
81228 2 17402618446297852938
9939556 21 18200866284575884837

>  <PUBCHEM_SHAPE_MULTIPOLES>  (1) 
239.49
4.55
2.53
1.01
1.02
0.26
0
0.57
0
-2.08
0
1.05
-0.29
0

>  <PUBCHEM_SHAPE_SELFOVERLAP>  (1) 
453.135

>  <PUBCHEM_SHAPE_VOLUME>  (1) 
144.7

>  <PUBCHEM_COORDINATE_TYPE>  (1) 
2
5
10

$$$$
