35655
     RDKit          3D

 13 13  0  0  0  0  0  0  0  0999 V2000
    2.9718    2.7318   -0.0020 Cl  0  0  0  0  0  0  0  0  0  0  0  0
   -2.1774    1.6328   -0.0015 S   0  0  0  0  0  0  0  0  0  0  0  0
    1.3314   -1.9039    0.0039 O   0  0  0  0  0  0  0  0  0  0  0  0
   -0.2666   -0.2307    0.0017 N   0  0  0  0  0  0  0  0  0  0  0  0
    0.4573    2.0571   -0.0014 N   0  0  0  0  0  0  0  0  0  0  0  0
    2.0767    0.2864    0.0012 N   0  0  0  0  0  0  0  0  0  0  0  0
   -3.0670    0.0503    0.0005 C   0  0  0  0  0  0  0  0  0  0  0  0
    0.2275   -2.7979    0.0050 C   0  0  0  0  0  0  0  0  0  0  0  0
   -0.4796    1.0951   -0.0002 C   0  0  0  0  0  0  0  0  0  0  0  0
    1.0351   -0.5610    0.0022 C   0  0  0  0  0  0  0  0  0  0  0  0
   -4.5661    0.2817   -0.0003 C   0  0  0  0  0  0  0  0  0  0  0  0
    0.7451   -4.2205   -0.0083 C   0  0  0  0  0  0  0  0  0  0  0  0
    1.7119    1.5787   -0.0007 C   0  0  0  0  0  0  0  0  0  0  0  0
  1 13  1  0
  2  7  1  0
  2  9  1  0
  3  8  1  0
  3 10  1  0
  4  9  2  0
  4 10  1  0
  5  9  1  0
  5 13  2  0
  6 10  2  0
  6 13  1  0
  7 11  1  0
  8 12  1  0
M  END
>  <PUBCHEM_COMPOUND_CID>  (1) 
35655

>  <PUBCHEM_CONFORMER_RMSD>  (1) 
0.6

>  <PUBCHEM_CONFORMER_DIVERSEORDER>  (1) 
1
41
29
10
43
50
25
4
39
54
22
13
5
33
8
30
44
51
52
27
34
37
49
20
7
31
28
55
26
46
12
23
42
21
36
14
2
15
11
40
6
17
3
53
32
9
47
38
45
19
35
16
24
48
18

>  <PUBCHEM_MMFF94_PARTIAL_CHARGES>  (1) 
11
1 -0.18
10 0.7
13 0.8
2 -0.33
3 -0.36
4 -0.62
5 -0.62
6 -0.62
7 0.23
8 0.28
9 0.72

>  <PUBCHEM_EFFECTIVE_ROTOR_COUNT>  (1) 
4

>  <PUBCHEM_PHARMACOPHORE_FEATURES>  (1) 
5
1 11 hydrophobe
3 4 5 9 cation
3 4 6 10 cation
3 5 6 13 cation
6 4 5 6 9 10 13 rings

>  <PUBCHEM_HEAVY_ATOM_COUNT>  (1) 
13

>  <PUBCHEM_ATOM_DEF_STEREO_COUNT>  (1) 
0

>  <PUBCHEM_ATOM_UDEF_STEREO_COUNT>  (1) 
0

>  <PUBCHEM_BOND_DEF_STEREO_COUNT>  (1) 
0

>  <PUBCHEM_BOND_UDEF_STEREO_COUNT>  (1) 
0

>  <PUBCHEM_ISOTOPIC_ATOM_COUNT>  (1) 
0

>  <PUBCHEM_COMPONENT_COUNT>  (1) 
1

>  <PUBCHEM_CACTVS_TAUTO_COUNT>  (1) 
1

>  <PUBCHEM_CONFORMER_ID>  (1) 
00008B4700000001

>  <PUBCHEM_MMFF94_ENERGY>  (1) 
20.5732

>  <PUBCHEM_FEATURE_SELFOVERLAP>  (1) 
28.144

>  <PUBCHEM_SHAPE_FINGERPRINT>  (1) 
1 1 18410292510195963133
12553582 1 17547016230268720959
13052359 8 17977376462642252432
14251717 144 18411414016868109549
15442244 35 17908707224777537041
16945 1 18194402190885920352
17990270 104 18193274088008527443
193761 8 18122343738413325634
20645477 70 18335130961338027493
20871998 22 17979071579023565427
23530152 11 18338238296302467887
23552423 10 18267589013725601581
23557571 272 16472329286010182854
23558518 356 17253141437992884040
257057 1 17760925139114719347
2748010 2 18192169271790250658
33824 294 18409166632423287899
54173680 148 17689997164599353176
58779409 8 18120664788104448468
7364860 26 18339642226759451697
81228 2 17327169356714266624
81539 233 18334290993998789205
8199 65 18410854382439549607

>  <PUBCHEM_SHAPE_MULTIPOLES>  (1) 
252.44
5.09
4.42
0.6
5.86
6.17
0
-4
0
-2.9
-0.01
0.03
-0.02
0

>  <PUBCHEM_SHAPE_SELFOVERLAP>  (1) 
479.946

>  <PUBCHEM_SHAPE_VOLUME>  (1) 
158.5

>  <PUBCHEM_COORDINATE_TYPE>  (1) 
2
5
10

$$$$
