35652
     RDKit          3D

 23 25  0  0  0  0  0  0  0  0999 V2000
    4.4694   -2.0337   -0.0021 Cl  0  0  0  0  0  0  0  0  0  0  0  0
    4.4416    2.0524    0.0016 Cl  0  0  0  0  0  0  0  0  0  0  0  0
   -5.7493   -0.0271   -0.0010 Cl  0  0  0  0  0  0  0  0  0  0  0  0
   -1.3955   -2.3133    0.0012 O   0  0  0  0  0  0  0  0  0  0  0  0
   -1.4241    2.3129   -0.0008 O   0  0  0  0  0  0  0  0  0  0  0  0
   -1.3601    0.0001    0.0002 N   0  0  0  0  0  0  0  0  0  0  0  0
   -3.4455    1.1870   -0.0008 N   0  0  0  0  0  0  0  0  0  0  0  0
   -3.4307   -1.2124    0.0010 N   0  0  0  0  0  0  0  0  0  0  0  0
   -0.0360   -2.2500    0.0006 C   0  0  0  0  0  0  0  0  0  0  0  0
   -0.0473    2.2534   -0.0005 C   0  0  0  0  0  0  0  0  0  0  0  0
    0.6614   -2.2171    1.2082 C   0  0  0  0  0  0  0  0  0  0  0  0
    0.6599   -2.2160   -1.2078 C   0  0  0  0  0  0  0  0  0  0  0  0
    0.6328    2.2234   -1.2081 C   0  0  0  0  0  0  0  0  0  0  0  0
    0.6318    2.2224    1.2079 C   0  0  0  0  0  0  0  0  0  0  0  0
    2.0547   -2.1501    1.2073 C   0  0  0  0  0  0  0  0  0  0  0  0
    2.0532   -2.1492   -1.2086 C   0  0  0  0  0  0  0  0  0  0  0  0
    2.0263    2.1610   -1.2073 C   0  0  0  0  0  0  0  0  0  0  0  0
    2.0252    2.1601    1.2085 C   0  0  0  0  0  0  0  0  0  0  0  0
    2.7505   -2.1162   -0.0011 C   0  0  0  0  0  0  0  0  0  0  0  0
    2.7225    2.1294    0.0009 C   0  0  0  0  0  0  0  0  0  0  0  0
   -2.0955   -1.1184    0.0011 C   0  0  0  0  0  0  0  0  0  0  0  0
   -2.1045    1.1176   -0.0005 C   0  0  0  0  0  0  0  0  0  0  0  0
   -4.0410   -0.0164    0.0002 C   0  0  0  0  0  0  0  0  0  0  0  0
  1 19  1  0
  2 20  1  0
  3 23  1  0
  4  9  1  0
  4 21  1  0
  5 10  1  0
  5 22  1  0
  6 21  2  0
  6 22  1  0
  7 22  2  0
  7 23  1  0
  8 21  1  0
  8 23  2  0
  9 11  2  0
  9 12  1  0
 10 13  2  0
 10 14  1  0
 11 15  1  0
 12 16  2  0
 13 17  1  0
 14 18  2  0
 15 19  2  0
 16 19  1  0
 17 20  2  0
 18 20  1  0
M  END
>  <PUBCHEM_COMPOUND_CID>  (1) 
35652

>  <PUBCHEM_CONFORMER_RMSD>  (1) 
0.8

>  <PUBCHEM_CONFORMER_DIVERSEORDER>  (1) 
1
13
3
18
8
30
12
7
2
29
24
31
17
15
26
20
14
19
4
23
25
28
21
27
16
11
22
5
10
6
9

>  <PUBCHEM_MMFF94_PARTIAL_CHARGES>  (1) 
31
1 -0.18
10 0.08
11 -0.15
12 -0.15
13 -0.15
14 -0.15
15 -0.15
16 -0.15
17 -0.15
18 -0.15
19 0.18
2 -0.18
20 0.18
21 0.7
22 0.7
23 0.8
24 0.15
25 0.15
26 0.15
27 0.15
28 0.15
29 0.15
3 -0.18
30 0.15
31 0.15
4 -0.17
5 -0.17
6 -0.62
7 -0.62
8 -0.62
9 0.08

>  <PUBCHEM_EFFECTIVE_ROTOR_COUNT>  (1) 
4

>  <PUBCHEM_PHARMACOPHORE_FEATURES>  (1) 
6
3 6 7 22 cation
3 6 8 21 cation
3 7 8 23 cation
6 10 13 14 17 18 20 rings
6 6 7 8 21 22 23 rings
6 9 11 12 15 16 19 rings

>  <PUBCHEM_HEAVY_ATOM_COUNT>  (1) 
23

>  <PUBCHEM_ATOM_DEF_STEREO_COUNT>  (1) 
0

>  <PUBCHEM_ATOM_UDEF_STEREO_COUNT>  (1) 
0

>  <PUBCHEM_BOND_DEF_STEREO_COUNT>  (1) 
0

>  <PUBCHEM_BOND_UDEF_STEREO_COUNT>  (1) 
0

>  <PUBCHEM_ISOTOPIC_ATOM_COUNT>  (1) 
0

>  <PUBCHEM_COMPONENT_COUNT>  (1) 
1

>  <PUBCHEM_CACTVS_TAUTO_COUNT>  (1) 
1

>  <PUBCHEM_CONFORMER_ID>  (1) 
00008B4400000001

>  <PUBCHEM_MMFF94_ENERGY>  (1) 
67.0167

>  <PUBCHEM_FEATURE_SELFOVERLAP>  (1) 
33.234

>  <PUBCHEM_SHAPE_FINGERPRINT>  (1) 
10498660 4 17834115238624388719
1100329 8 17837500656422629809
11963148 33 17975690916467635435
12166972 35 17677904426532779534
12422481 6 18194091150182104376
12592029 89 18190468340693359681
13140716 1 18338527343791792283
14022349 108 18411144636550946721
14931854 50 18337687329919668022
15006816 218 18338800133864764116
16752209 62 17761489592554497173
17093844 170 18337392746523973236
17357779 13 18125704704408453759
17492 54 18188512197954415094
18336668 15 18115313263639125670
19591789 44 17041199611183103979
20642791 178 18118140090438121613
20691752 17 17603589586762426185
20715895 44 16094024713480947557
20905425 154 18340774818198935574
21421861 104 18198644158554676009
23419403 2 17824519929603211119
23557571 272 18055075350559234926
3298306 158 18339077210879626229
350125 39 18337957766941800881
5265222 85 17761503882449722892
59755656 215 18410858801771162389
6287921 2 18059852814233035806
6443956 14 18339923714732340697
70251023 43 15388925426535148461
7364860 26 18342458144915827331
81228 2 17691981357901784955
90525 40 17901949965024577361
9925002 15 17771875450178142743

>  <PUBCHEM_SHAPE_MULTIPOLES>  (1) 
452.26
7.86
4.19
1.13
7.03
0.04
0
-0.1
0
-3.73
0
-0.69
0
0

>  <PUBCHEM_SHAPE_SELFOVERLAP>  (1) 
961.381

>  <PUBCHEM_SHAPE_VOLUME>  (1) 
252.9

>  <PUBCHEM_COORDINATE_TYPE>  (1) 
2
5
10

$$$$
