35650
     RDKit          3D

 15 15  0  0  0  0  0  0  0  0999 V2000
   -0.9618   -3.6797    0.2548 Cl  0  0  0  0  0  0  0  0  0  0  0  0
    2.6085   -0.3055    0.0330 O   0  0  0  0  0  0  0  0  0  0  0  0
   -1.7591    1.1070   -0.5418 O   0  0  0  0  0  0  0  0  0  0  0  0
    0.4406    0.4476   -0.2603 N   0  0  0  0  0  0  0  0  0  0  0  0
   -1.3561   -1.1400   -0.1654 N   0  0  0  0  0  0  0  0  0  0  0  0
    0.9093   -1.8725    0.1334 N   0  0  0  0  0  0  0  0  0  0  0  0
    2.9853    1.0566   -0.1450 C   0  0  0  0  0  0  0  0  0  0  0  0
   -3.0522    0.9412    0.0219 C   0  0  0  0  0  0  0  0  0  0  0  0
    2.9698    1.7606    1.2032 C   0  0  0  0  0  0  0  0  0  0  0  0
    4.3572    1.1153   -0.7993 C   0  0  0  0  0  0  0  0  0  0  0  0
   -3.0619    1.5156    1.4303 C   0  0  0  0  0  0  0  0  0  0  0  0
   -4.0793    1.6177   -0.8731 C   0  0  0  0  0  0  0  0  0  0  0  0
    1.2703   -0.5872   -0.0335 C   0  0  0  0  0  0  0  0  0  0  0  0
   -0.8544    0.0967   -0.3132 C   0  0  0  0  0  0  0  0  0  0  0  0
   -0.4162   -2.0733    0.0549 C   0  0  0  0  0  0  0  0  0  0  0  0
  1 15  1  0
  2  7  1  0
  2 13  1  0
  3  8  1  0
  3 14  1  0
  4 13  2  0
  4 14  1  0
  5 14  2  0
  5 15  1  0
  6 13  1  0
  6 15  2  0
  7  9  1  0
  7 10  1  0
  8 11  1  0
  8 12  1  0
M  END
>  <PUBCHEM_COMPOUND_CID>  (1) 
35650

>  <PUBCHEM_CONFORMER_RMSD>  (1) 
0.6

>  <PUBCHEM_CONFORMER_DIVERSEORDER>  (1) 
8
55
50
52
39
38
59
32
9
16
56
47
25
11
46
19
5
45
40
57
23
4
33
42
36
35
14
53
17
41
12
43
20
22
28
1
44
37
31
27
58
49
30
21
15
3
6
10
48
7
51
18
26
34
13
2
54
24
29

>  <PUBCHEM_MMFF94_PARTIAL_CHARGES>  (1) 
11
1 -0.18
13 0.7
14 0.7
15 0.8
2 -0.36
3 -0.36
4 -0.62
5 -0.62
6 -0.62
7 0.28
8 0.28

>  <PUBCHEM_EFFECTIVE_ROTOR_COUNT>  (1) 
4

>  <PUBCHEM_PHARMACOPHORE_FEATURES>  (1) 
6
3 4 5 14 cation
3 4 6 13 cation
3 5 6 15 cation
3 7 9 10 hydrophobe
3 8 11 12 hydrophobe
6 4 5 6 13 14 15 rings

>  <PUBCHEM_HEAVY_ATOM_COUNT>  (1) 
15

>  <PUBCHEM_ATOM_DEF_STEREO_COUNT>  (1) 
0

>  <PUBCHEM_ATOM_UDEF_STEREO_COUNT>  (1) 
0

>  <PUBCHEM_BOND_DEF_STEREO_COUNT>  (1) 
0

>  <PUBCHEM_BOND_UDEF_STEREO_COUNT>  (1) 
0

>  <PUBCHEM_ISOTOPIC_ATOM_COUNT>  (1) 
0

>  <PUBCHEM_COMPONENT_COUNT>  (1) 
1

>  <PUBCHEM_CACTVS_TAUTO_COUNT>  (1) 
1

>  <PUBCHEM_CONFORMER_ID>  (1) 
00008B4200000008

>  <PUBCHEM_MMFF94_ENERGY>  (1) 
36.5237

>  <PUBCHEM_FEATURE_SELFOVERLAP>  (1) 
33.208

>  <PUBCHEM_SHAPE_FINGERPRINT>  (1) 
11543360 7 16128645388244334989
12500047 106 18410854404093799252
12532896 13 18410291414963816263
13380535 21 18410019844619286502
13380535 76 18413386527511362430
13583140 156 16370716075986847413
136203 1 18120374516977121859
13764800 53 18339364174771495016
14123255 52 18408882932089483292
14897335 6 18411130329503206646
15309172 13 18335989683607951113
15775835 57 18335140895075461924
16945 1 18120931960824550446
1741750 31 18341893030399115832
18186145 218 18271530805570753164
201361 129 17983588407303227681
204376 136 18408326566557991653
20510252 161 17980198909233450770
20602899 9 15913332424223232447
20645477 56 18337112362627107396
20645477 70 17973436612539141207
20671657 1 18270956830705210922
21499 59 18337103480470858357
21501502 16 18409442618310903606
21524375 3 18342451504590621174
22182937 141 18199194055965068320
2255824 54 17980761541507439775
23419403 2 17196067700681735807
23557571 272 18126575754109931030
23558518 356 17899976333516368120
25 1 18200881690502340456
2748010 2 18335435534053296287
3091708 16 9194377348532510275
458136 41 18266476312126418715
474229 33 18335986454288501139
6049 1 17770792500582147416
633830 44 18057897848431168525
68521 5 18048598419469979103
7364860 26 18050845516199347743
81228 2 18046626977746133802
81539 233 18188768332296992487
84936 182 18126838301129267113

>  <PUBCHEM_SHAPE_MULTIPOLES>  (1) 
283.88
6.74
3.16
0.98
2.18
3.7
-0.23
-6.34
0.69
-1.64
-0.49
-0.19
-0.55
0.23

>  <PUBCHEM_SHAPE_SELFOVERLAP>  (1) 
558.781

>  <PUBCHEM_SHAPE_VOLUME>  (1) 
170.8

>  <PUBCHEM_COORDINATE_TYPE>  (1) 
2
5
10

$$$$
