35667
     RDKit          3D

 20 22  0  0  0  0  0  0  0  0999 V2000
    6.1664    1.7580    0.1594 Cl  0  0  0  0  0  0  0  0  0  0  0  0
   -0.7283   -4.2084   -0.3552 Cl  0  0  0  0  0  0  0  0  0  0  0  0
   -0.3037    0.1443    0.0127 N   0  0  0  0  0  0  0  0  0  0  0  0
    0.6895   -2.0325   -0.1687 N   0  0  0  0  0  0  0  0  0  0  0  0
   -1.6989   -1.8008   -0.1540 N   0  0  0  0  0  0  0  0  0  0  0  0
    2.0523   -0.1023   -0.0037 C   0  0  0  0  0  0  0  0  0  0  0  0
   -2.6630    0.3555    0.0249 C   0  0  0  0  0  0  0  0  0  0  0  0
    0.7418   -0.6955   -0.0561 C   0  0  0  0  0  0  0  0  0  0  0  0
   -1.4858   -0.4832   -0.0426 C   0  0  0  0  0  0  0  0  0  0  0  0
    2.2623    1.1879   -0.5007 C   0  0  0  0  0  0  0  0  0  0  0  0
    3.1260   -0.8120    0.5441 C   0  0  0  0  0  0  0  0  0  0  0  0
   -2.6204    1.6583   -0.4720 C   0  0  0  0  0  0  0  0  0  0  0  0
   -3.8404   -0.1386    0.5863 C   0  0  0  0  0  0  0  0  0  0  0  0
    3.5324    1.7624   -0.4507 C   0  0  0  0  0  0  0  0  0  0  0  0
    4.3961   -0.2376    0.5941 C   0  0  0  0  0  0  0  0  0  0  0  0
   -3.7552    2.4668   -0.4074 C   0  0  0  0  0  0  0  0  0  0  0  0
   -4.9751    0.6700    0.6509 C   0  0  0  0  0  0  0  0  0  0  0  0
    4.5994    1.0498    0.0968 C   0  0  0  0  0  0  0  0  0  0  0  0
   -4.9325    1.9727    0.1540 C   0  0  0  0  0  0  0  0  0  0  0  0
   -0.5630   -2.5146   -0.2121 C   0  0  0  0  0  0  0  0  0  0  0  0
  1 18  1  0
  2 20  1  0
  3  8  2  0
  3  9  1  0
  4  8  1  0
  4 20  2  0
  5  9  2  0
  5 20  1  0
  6  8  1  0
  6 10  2  0
  6 11  1  0
  7  9  1  0
  7 12  2  0
  7 13  1  0
 10 14  1  0
 11 15  2  0
 12 16  1  0
 13 17  2  0
 14 18  2  0
 15 18  1  0
 16 19  2  0
 17 19  1  0
M  END
>  <PUBCHEM_COMPOUND_CID>  (1) 
35667

>  <PUBCHEM_CONFORMER_RMSD>  (1) 
0.6

>  <PUBCHEM_CONFORMER_DIVERSEORDER>  (1) 
2
5
1
3
4

>  <PUBCHEM_MMFF94_PARTIAL_CHARGES>  (1) 
27
1 -0.18
10 -0.15
11 -0.15
12 -0.15
13 -0.15
14 -0.15
15 -0.15
16 -0.15
17 -0.15
18 0.18
19 -0.15
2 -0.18
20 0.8
21 0.15
22 0.15
23 0.15
24 0.15
25 0.15
26 0.15
27 0.15
28 0.15
29 0.15
3 -0.62
4 -0.62
5 -0.62
8 0.62
9 0.62

>  <PUBCHEM_EFFECTIVE_ROTOR_COUNT>  (1) 
2

>  <PUBCHEM_PHARMACOPHORE_FEATURES>  (1) 
6
3 3 4 8 cation
3 3 5 9 cation
3 4 5 20 cation
6 3 4 5 8 9 20 rings
6 6 10 11 14 15 18 rings
6 7 12 13 16 17 19 rings

>  <PUBCHEM_HEAVY_ATOM_COUNT>  (1) 
20

>  <PUBCHEM_ATOM_DEF_STEREO_COUNT>  (1) 
0

>  <PUBCHEM_ATOM_UDEF_STEREO_COUNT>  (1) 
0

>  <PUBCHEM_BOND_DEF_STEREO_COUNT>  (1) 
0

>  <PUBCHEM_BOND_UDEF_STEREO_COUNT>  (1) 
0

>  <PUBCHEM_ISOTOPIC_ATOM_COUNT>  (1) 
0

>  <PUBCHEM_COMPONENT_COUNT>  (1) 
1

>  <PUBCHEM_CACTVS_TAUTO_COUNT>  (1) 
1

>  <PUBCHEM_CONFORMER_ID>  (1) 
00008B5300000002

>  <PUBCHEM_MMFF94_ENERGY>  (1) 
54.7342

>  <PUBCHEM_FEATURE_SELFOVERLAP>  (1) 
33.23

>  <PUBCHEM_SHAPE_FINGERPRINT>  (1) 
10411042 1 17546727517977380135
10493431 412 18410293626871538205
12173636 292 18339356465336931679
12293681 160 17775568610998690824
12363563 72 8718540649086230681
12390115 104 18270977798651037121
12403259 118 17894917347220263789
12403259 415 18336835177895256237
12500047 106 18342171215525901162
12596602 18 17167860876448088544
12788726 201 17756725382659661494
12892183 10 17603868862420248659
13544653 18 10159690322115418153
13583140 156 16877927343957467477
13785724 45 17760925139690596826
138480 1 17546446678750320055
14123255 52 18411136922225245317
14178342 30 18121199134119153154
14341114 176 18041286482224038409
14508225 48 17695051593925432751
14767858 380 18270944826967691757
14790565 3 18411705352694898528
15042514 8 18120661485449385291
15188451 53 15285934618953346305
15196674 1 18408885109558650984
15778101 99 18339644564013230800
15927050 60 18411700985088114126
16087824 20 18268145548027317135
17539 30 17912918680328721743
17834072 32 18411419509699056724
18222031 100 11602831215308906929
18785283 64 18192993712269917386
193927 3 7925634444528477848
19784866 34 18271246019601421425
200 152 10159699088228182328
204376 136 18412826859086956971
20645477 56 18341334482629060144
21033648 29 18342447154010836128
21236236 1 18342175626510470895
212916 134 18271225163097645194
21426921 1 18195807603391399654
21524375 3 18335421261860894051
21756936 100 18342169012086333156
22224240 67 18342465859341898683
23227448 37 18340769350663545133
23402539 116 18272645761911416812
23557571 272 17986961941079304638
23558518 356 17829892384182677236
23559900 14 17905605506707056211
2916195 48 18130500920458803368
293599 30 18412265043084094552
3091708 16 9266434959755809451
314173 85 11025795366647152457
335352 9 18410855422386345950
350125 39 18340205301725795673
3545911 37 18413393150804574360
474 4 18340205168365525131
474229 33 18410013260735199515
5104073 3 18044667404108996753
59755656 520 18410852174652572454
6327066 14 18408880737377155997
633830 44 18129662976596917221
636775 72 17617941779146780812
7226269 152 18060134341245304696
7364860 26 18051694339450420815
77188 2 17186719962070812543
7808743 9 18338515365149485856
7832392 63 18337106878032757724
7970288 3 8502364525325289465
9981440 41 18408888404331103363

>  <PUBCHEM_SHAPE_MULTIPOLES>  (1) 
400.39
11.49
3.43
0.74
5.87
3.69
-0.02
-10.49
-1.82
-1.74
0.68
-0.04
-0.04
-0.17

>  <PUBCHEM_SHAPE_SELFOVERLAP>  (1) 
866.665

>  <PUBCHEM_SHAPE_VOLUME>  (1) 
217.8

>  <PUBCHEM_COORDINATE_TYPE>  (1) 
2
5
10

$$$$
