35660
     RDKit          3D

 11 11  0  0  0  0  0  0  0  0999 V2000
   -1.0882    2.9641    0.0003 Cl  0  0  0  0  0  0  0  0  0  0  0  0
   -0.5760   -1.3952    0.0002 N   0  0  0  0  0  0  0  0  0  0  0  0
   -2.0100    0.5287   -0.0001 N   0  0  0  0  0  0  0  0  0  0  0  0
    0.3732    0.8087    0.0002 N   0  0  0  0  0  0  0  0  0  0  0  0
    2.8806   -0.3522   -0.0001 N   0  0  0  0  0  0  0  0  0  0  0  0
    3.8213    0.2931   -0.0008 N   0  0  0  0  0  0  0  0  0  0  0  0
   -1.7765   -0.7936   -0.0001 C   0  0  0  0  0  0  0  0  0  0  0  0
    0.4525   -0.5317    0.0003 C   0  0  0  0  0  0  0  0  0  0  0  0
   -2.9718   -1.6845   -0.0005 C   0  0  0  0  0  0  0  0  0  0  0  0
   -0.8888    1.2675   -0.0002 C   0  0  0  0  0  0  0  0  0  0  0  0
    1.7838   -1.1049    0.0008 C   0  0  0  0  0  0  0  0  0  0  0  0
  1 10  1  0
  2  7  2  0
  2  8  1  0
  3  7  1  0
  3 10  2  0
  4  8  2  0
  4 10  1  0
  5  6  2  0
  5 11  2  0
  7  9  1  0
  8 11  1  0
M  CHG  2   5   1   6  -1
M  END
>  <PUBCHEM_COMPOUND_CID>  (1) 
35660

>  <PUBCHEM_CONFORMER_RMSD>  (1) 
0.4

>  <PUBCHEM_CONFORMER_DIVERSEORDER>  (1) 
1
3
2
4

>  <PUBCHEM_MMFF94_PARTIAL_CHARGES>  (1) 
12
1 -0.18
10 0.8
11 -0.13
15 0.06
2 -0.62
3 -0.62
4 -0.62
5 0.36
6 -0.37
7 0.48
8 0.71
9 0.14

>  <PUBCHEM_EFFECTIVE_ROTOR_COUNT>  (1) 
1

>  <PUBCHEM_PHARMACOPHORE_FEATURES>  (1) 
5
1 5 acceptor
3 2 3 7 cation
3 2 4 8 cation
3 3 4 10 cation
6 2 3 4 7 8 10 rings

>  <PUBCHEM_HEAVY_ATOM_COUNT>  (1) 
11

>  <PUBCHEM_ATOM_DEF_STEREO_COUNT>  (1) 
0

>  <PUBCHEM_ATOM_UDEF_STEREO_COUNT>  (1) 
0

>  <PUBCHEM_BOND_DEF_STEREO_COUNT>  (1) 
0

>  <PUBCHEM_BOND_UDEF_STEREO_COUNT>  (1) 
0

>  <PUBCHEM_ISOTOPIC_ATOM_COUNT>  (1) 
0

>  <PUBCHEM_COMPONENT_COUNT>  (1) 
1

>  <PUBCHEM_CACTVS_TAUTO_COUNT>  (1) 
1

>  <PUBCHEM_CONFORMER_ID>  (1) 
00008B4C00000001

>  <PUBCHEM_MMFF94_ENERGY>  (1) 
17.1451

>  <PUBCHEM_FEATURE_SELFOVERLAP>  (1) 
28.144

>  <PUBCHEM_SHAPE_FINGERPRINT>  (1) 
1 1 17040354614868730405
10857977 72 18340476854848225634
14325111 11 18410575042251619054
16945 1 18338798892719305891
193761 8 17978510832493985319
19973954 147 18339645516999721614
20871998 184 18273497862148462959
20871998 22 18270417073628247455
21040471 1 17834114143560481441
23552423 10 18189056391401143050
241688 4 18410854391055942833
2748010 2 18268135625628580221
369184 2 16443346446926322458
6333449 129 18341046328772469348
81228 2 18337121063882410137

>  <PUBCHEM_SHAPE_MULTIPOLES>  (1) 
203.34
4.44
2.45
0.58
3.95
2.03
0
-1.39
0
-1.88
0
-0.04
0.01
0

>  <PUBCHEM_SHAPE_SELFOVERLAP>  (1) 
409.299

>  <PUBCHEM_SHAPE_VOLUME>  (1) 
116.4

>  <PUBCHEM_COORDINATE_TYPE>  (1) 
2
5
10

$$$$
