35664
     RDKit          3D

 15 15  0  0  0  0  0  0  0  0999 V2000
    2.5147   -1.7478   -1.4626 Cl  0  0  0  0  0  0  0  0  0  0  0  0
    2.5153   -1.7489    1.4618 Cl  0  0  0  0  0  0  0  0  0  0  0  0
   -2.5159   -1.7483    1.4620 Cl  0  0  0  0  0  0  0  0  0  0  0  0
   -2.5143   -1.7482   -1.4624 Cl  0  0  0  0  0  0  0  0  0  0  0  0
    0.0002    3.7207   -0.0003 Cl  0  0  0  0  0  0  0  0  0  0  0  0
    0.0000   -0.6689    0.0008 N   0  0  0  0  0  0  0  0  0  0  0  0
   -1.1997    1.4092    0.0003 N   0  0  0  0  0  0  0  0  0  0  0  0
    1.1998    1.4092    0.0003 N   0  0  0  0  0  0  0  0  0  0  0  0
    2.4131   -0.6763    0.0000 C   0  0  0  0  0  0  0  0  0  0  0  0
   -2.4134   -0.6764   -0.0003 C   0  0  0  0  0  0  0  0  0  0  0  0
    1.1222    0.0687    0.0006 C   0  0  0  0  0  0  0  0  0  0  0  0
   -1.1221    0.0687    0.0005 C   0  0  0  0  0  0  0  0  0  0  0  0
    3.7137    0.1630   -0.0002 C   0  0  0  0  0  0  0  0  0  0  0  0
   -3.7136    0.1632   -0.0006 C   0  0  0  0  0  0  0  0  0  0  0  0
    0.0000    2.0122    0.0000 C   0  0  0  0  0  0  0  0  0  0  0  0
  1  9  1  0
  2  9  1  0
  3 10  1  0
  4 10  1  0
  5 15  1  0
  6 11  2  0
  6 12  1  0
  7 12  2  0
  7 15  1  0
  8 11  1  0
  8 15  2  0
  9 11  1  0
  9 13  1  0
 10 12  1  0
 10 14  1  0
M  END
>  <PUBCHEM_COMPOUND_CID>  (1) 
35664

>  <PUBCHEM_CONFORMER_RMSD>  (1) 
0.6

>  <PUBCHEM_CONFORMER_DIVERSEORDER>  (1) 
1
3
2
12
19
13
20
14
21
6
8
7
9
4
10
5
11
15
16
17
18

>  <PUBCHEM_MMFF94_PARTIAL_CHARGES>  (1) 
13
1 -0.29
10 0.72
11 0.48
12 0.48
15 0.8
2 -0.29
3 -0.29
4 -0.29
5 -0.18
6 -0.62
7 -0.62
8 -0.62
9 0.72

>  <PUBCHEM_EFFECTIVE_ROTOR_COUNT>  (1) 
2

>  <PUBCHEM_PHARMACOPHORE_FEATURES>  (1) 
4
3 6 7 12 cation
3 6 8 11 cation
3 7 8 15 cation
6 6 7 8 11 12 15 rings

>  <PUBCHEM_HEAVY_ATOM_COUNT>  (1) 
15

>  <PUBCHEM_ATOM_DEF_STEREO_COUNT>  (1) 
0

>  <PUBCHEM_ATOM_UDEF_STEREO_COUNT>  (1) 
0

>  <PUBCHEM_BOND_DEF_STEREO_COUNT>  (1) 
0

>  <PUBCHEM_BOND_UDEF_STEREO_COUNT>  (1) 
0

>  <PUBCHEM_ISOTOPIC_ATOM_COUNT>  (1) 
0

>  <PUBCHEM_COMPONENT_COUNT>  (1) 
1

>  <PUBCHEM_CACTVS_TAUTO_COUNT>  (1) 
1

>  <PUBCHEM_CONFORMER_ID>  (1) 
00008B5000000001

>  <PUBCHEM_MMFF94_ENERGY>  (1) 
28.7812

>  <PUBCHEM_FEATURE_SELFOVERLAP>  (1) 
23.07

>  <PUBCHEM_SHAPE_FINGERPRINT>  (1) 
10130415 120 18334575728887020705
108231 29 18116725190887481778
11132069 177 18131343137944218618
12553582 1 18410568487593695523
12759256 9 18124879211678299036
13538477 17 17899416385607754784
14022347 108 18192733175384751619
14115302 16 17530973466255264235
14252887 29 18270975603912433242
14648413 74 18192149515384047705
15375462 189 18333730234225435899
16752209 62 17975409118686654521
16945 1 18411136930809924653
17841504 4 18191593145278040155
17990270 104 18268149927779953151
20361792 2 18412539933543598719
20510252 161 18126001568379963328
20645476 183 17317915458869700068
20645477 70 18051686935137766935
20711985 344 18122075203740437814
20871998 184 18199466562933773316
20871998 22 18341906176940756326
21524375 3 17255682993258407597
2255824 54 18052539069016938037
232386 152 18188763921439945722
2334 1 18410293644046418457
23388829 49 18270956963717308812
23402539 116 18411693305843928494
23419403 2 17542729470512909548
23552423 10 18123746727998061357
23557571 272 18338519625846571516
23559900 14 18267298721697912438
23598291 2 18129386075950254741
23598294 1 18193839245364253040
2748010 2 18412258437002491148
31174 14 17974870659022143667
3312278 4 18186806880651649786
34934 24 18410849966865016192
352729 6 17690277105993774916
5902787 121 18188207709899594514
6338986 31 18267279024192026423
6992083 37 18059586784295980803
7364860 26 18125722541502969001
8030462 33 17823430296737929210
81228 2 18266465291103525056

>  <PUBCHEM_SHAPE_MULTIPOLES>  (1) 
303.1
5.47
3.11
1.25
0
3.37
0
-3.04
0
0
0
0
-1.09
0

>  <PUBCHEM_SHAPE_SELFOVERLAP>  (1) 
572.622

>  <PUBCHEM_SHAPE_VOLUME>  (1) 
189.7

>  <PUBCHEM_COORDINATE_TYPE>  (1) 
2
5
10

$$$$
