35668
     RDKit          3D

 21 23  0  0  0  0  0  0  0  0999 V2000
   -6.2761    2.2375    0.1667 Cl  0  0  0  0  0  0  0  0  0  0  0  0
    6.2817    2.2321    0.1663 Cl  0  0  0  0  0  0  0  0  0  0  0  0
   -0.0047   -4.3739   -0.3271 Cl  0  0  0  0  0  0  0  0  0  0  0  0
   -0.0025    0.0027    0.0010 N   0  0  0  0  0  0  0  0  0  0  0  0
    1.1963   -2.0702   -0.1542 N   0  0  0  0  0  0  0  0  0  0  0  0
   -1.2032   -2.0690   -0.1544 N   0  0  0  0  0  0  0  0  0  0  0  0
   -2.3711   -0.0138   -0.0012 C   0  0  0  0  0  0  0  0  0  0  0  0
    2.3663   -0.0166   -0.0006 C   0  0  0  0  0  0  0  0  0  0  0  0
   -1.1184   -0.7360   -0.0544 C   0  0  0  0  0  0  0  0  0  0  0  0
    1.1193   -0.7333   -0.0541 C   0  0  0  0  0  0  0  0  0  0  0  0
   -2.4510    1.2822   -0.5104 C   0  0  0  0  0  0  0  0  0  0  0  0
   -3.4986   -0.6135    0.5599 C   0  0  0  0  0  0  0  0  0  0  0  0
    2.4545    1.2833   -0.5089 C   0  0  0  0  0  0  0  0  0  0  0  0
    3.4998   -0.6147    0.5596 C   0  0  0  0  0  0  0  0  0  0  0  0
   -3.6584    1.9788   -0.4584 C   0  0  0  0  0  0  0  0  0  0  0  0
   -4.7061    0.0830    0.6119 C   0  0  0  0  0  0  0  0  0  0  0  0
    3.6632    1.9777   -0.4578 C   0  0  0  0  0  0  0  0  0  0  0  0
    4.7086    0.0796    0.6108 C   0  0  0  0  0  0  0  0  0  0  0  0
   -4.7861    1.3792    0.1026 C   0  0  0  0  0  0  0  0  0  0  0  0
    4.7903    1.3759    0.1021 C   0  0  0  0  0  0  0  0  0  0  0  0
   -0.0038   -2.6709   -0.1995 C   0  0  0  0  0  0  0  0  0  0  0  0
  1 19  1  0
  2 20  1  0
  3 21  1  0
  4  9  2  0
  4 10  1  0
  5 10  2  0
  5 21  1  0
  6  9  1  0
  6 21  2  0
  7  9  1  0
  7 11  2  0
  7 12  1  0
  8 10  1  0
  8 13  2  0
  8 14  1  0
 11 15  1  0
 12 16  2  0
 13 17  1  0
 14 18  2  0
 15 19  2  0
 16 19  1  0
 17 20  2  0
 18 20  1  0
M  END
>  <PUBCHEM_COMPOUND_CID>  (1) 
35668

>  <PUBCHEM_CONFORMER_RMSD>  (1) 
0.6

>  <PUBCHEM_CONFORMER_DIVERSEORDER>  (1) 
1
2

>  <PUBCHEM_MMFF94_PARTIAL_CHARGES>  (1) 
27
1 -0.18
10 0.62
11 -0.15
12 -0.15
13 -0.15
14 -0.15
15 -0.15
16 -0.15
17 -0.15
18 -0.15
19 0.18
2 -0.18
20 0.18
21 0.8
22 0.15
23 0.15
24 0.15
25 0.15
26 0.15
27 0.15
28 0.15
29 0.15
3 -0.18
4 -0.62
5 -0.62
6 -0.62
9 0.62

>  <PUBCHEM_EFFECTIVE_ROTOR_COUNT>  (1) 
2

>  <PUBCHEM_PHARMACOPHORE_FEATURES>  (1) 
6
3 4 5 10 cation
3 4 6 9 cation
3 5 6 21 cation
6 4 5 6 9 10 21 rings
6 7 11 12 15 16 19 rings
6 8 13 14 17 18 20 rings

>  <PUBCHEM_HEAVY_ATOM_COUNT>  (1) 
21

>  <PUBCHEM_ATOM_DEF_STEREO_COUNT>  (1) 
0

>  <PUBCHEM_ATOM_UDEF_STEREO_COUNT>  (1) 
0

>  <PUBCHEM_BOND_DEF_STEREO_COUNT>  (1) 
0

>  <PUBCHEM_BOND_UDEF_STEREO_COUNT>  (1) 
0

>  <PUBCHEM_ISOTOPIC_ATOM_COUNT>  (1) 
0

>  <PUBCHEM_COMPONENT_COUNT>  (1) 
1

>  <PUBCHEM_CACTVS_TAUTO_COUNT>  (1) 
1

>  <PUBCHEM_CONFORMER_ID>  (1) 
00008B5400000001

>  <PUBCHEM_MMFF94_ENERGY>  (1) 
55.5155

>  <PUBCHEM_FEATURE_SELFOVERLAP>  (1) 
33.23

>  <PUBCHEM_SHAPE_FINGERPRINT>  (1) 
10 15 18113340812303326649
10493431 412 18410293644062002453
12107183 9 18335972087823298234
12173636 292 18339356491133219646
12293681 160 17775006786448000856
12363563 72 8790886314985915649
12390115 104 18270414870014086257
12403259 118 18041284377874640429
12403259 415 18339655472285683278
12596602 18 17240760709356857608
12633257 1 15719397269245009152
12730499 353 18338808801736605963
12788726 201 17612046166794046606
13288520 33 9079123258385378505
13544653 18 10159695823942111594
13583140 156 16733527390822782727
13631057 29 18129934702863451439
13685833 64 9727625116653521589
13785724 45 17904758874317319554
138480 1 17762338011435709366
13955234 65 18121506752398725499
14341114 176 18040720238125666008
14508225 48 17551219005838810671
14790565 3 18411422821166685025
15042514 8 18048602817379606443
15188451 53 15213592259972549529
15196674 1 18409166610268138209
15475509 35 16154547546191225154
15778101 99 18266741462766218248
15927050 60 18411699907214820662
16087824 20 18196089079181318855
17539 30 17768803509232339951
17834072 32 18410855481766801460
17980427 23 17676776456672616519
18222031 100 11386373642329541121
18785283 64 18192428576357457978
19784866 34 18342175544657795673
20157964 124 18266455409290936853
204376 136 18412545405405845147
20645477 56 18340771554319228368
21033648 144 18113890546905654797
21033648 29 18342166813079499952
21049683 271 17902810560749763686
21524375 3 18334857237912558090
21756936 100 18341888658169907324
22149856 69 18193023473358529809
22950370 63 9079117777901425271
23227448 37 18340769359195275605
23402539 116 18272364299845910380
23558518 356 17757269658453456164
23559900 14 18049441448899684691
2916195 48 18130502041471589384
293599 30 18411983585329438088
335352 9 18411136905984600734
350125 39 18268429208355403795
351380 3 8286198344755087313
474 4 18340206289294019107
474229 33 18337673113536225955
4921388 177 15482381054078228109
5104073 3 18187367614481094217
5385378 56 18268150859645444899
59682541 52 16558199202650227676
6058803 2 17972590268027782966
621550 34 18116714019888450517
6327066 14 18410007762454562845
633830 44 18272368624930686319
636775 72 17835519698334047808
7364860 26 18123751954820838391
77188 2 17402614043503642271
7808743 9 18266456684526952112
8272917 22 18269275651746234503
9981440 41 18408326592459892275

>  <PUBCHEM_SHAPE_MULTIPOLES>  (1) 
422.84
13.04
3.63
0.74
0.06
4.08
-0.02
-14.29
-1.94
-0.01
0.59
0
-0.04
0

>  <PUBCHEM_SHAPE_SELFOVERLAP>  (1) 
905.656

>  <PUBCHEM_SHAPE_VOLUME>  (1) 
234

>  <PUBCHEM_COORDINATE_TYPE>  (1) 
2
5
10

$$$$
