35661
     RDKit          3D

 11 11  0  0  0  0  0  0  0  0999 V2000
    2.9575   -1.6935   -0.9962 Cl  0  0  0  0  0  0  0  0  0  0  0  0
   -2.9576   -1.6930   -0.9963 Cl  0  0  0  0  0  0  0  0  0  0  0  0
    0.0003    3.2751   -0.4692 Cl  0  0  0  0  0  0  0  0  0  0  0  0
   -0.0001   -0.9949    0.5484 N   0  0  0  0  0  0  0  0  0  0  0  0
   -1.1997    1.0266    0.0667 N   0  0  0  0  0  0  0  0  0  0  0  0
    1.1999    1.0265    0.0666 N   0  0  0  0  0  0  0  0  0  0  0  0
    1.1222   -0.2775    0.3774 C   0  0  0  0  0  0  0  0  0  0  0  0
   -1.1221   -0.2774    0.3774 C   0  0  0  0  0  0  0  0  0  0  0  0
    2.4131   -1.0025    0.5493 C   0  0  0  0  0  0  0  0  0  0  0  0
   -2.4134   -1.0023    0.5492 C   0  0  0  0  0  0  0  0  0  0  0  0
    0.0001    1.6131   -0.0732 C   0  0  0  0  0  0  0  0  0  0  0  0
  1  9  1  0
  2 10  1  0
  3 11  1  0
  4  7  2  0
  4  8  1  0
  5  8  2  0
  5 11  1  0
  6  7  1  0
  6 11  2  0
  7  9  1  0
  8 10  1  0
M  END
>  <PUBCHEM_COMPOUND_CID>  (1) 
35661

>  <PUBCHEM_CONFORMER_RMSD>  (1) 
0.4

>  <PUBCHEM_CONFORMER_DIVERSEORDER>  (1) 
1
12
5
11
3
6
10
2
4
7
8
9

>  <PUBCHEM_MMFF94_PARTIAL_CHARGES>  (1) 
11
1 -0.29
10 0.43
11 0.8
2 -0.29
3 -0.18
4 -0.62
5 -0.62
6 -0.62
7 0.48
8 0.48
9 0.43

>  <PUBCHEM_EFFECTIVE_ROTOR_COUNT>  (1) 
2

>  <PUBCHEM_PHARMACOPHORE_FEATURES>  (1) 
4
3 4 5 8 cation
3 4 6 7 cation
3 5 6 11 cation
6 4 5 6 7 8 11 rings

>  <PUBCHEM_HEAVY_ATOM_COUNT>  (1) 
11

>  <PUBCHEM_ATOM_DEF_STEREO_COUNT>  (1) 
0

>  <PUBCHEM_ATOM_UDEF_STEREO_COUNT>  (1) 
0

>  <PUBCHEM_BOND_DEF_STEREO_COUNT>  (1) 
0

>  <PUBCHEM_BOND_UDEF_STEREO_COUNT>  (1) 
0

>  <PUBCHEM_ISOTOPIC_ATOM_COUNT>  (1) 
0

>  <PUBCHEM_COMPONENT_COUNT>  (1) 
1

>  <PUBCHEM_CACTVS_TAUTO_COUNT>  (1) 
1

>  <PUBCHEM_CONFORMER_ID>  (1) 
00008B4D00000001

>  <PUBCHEM_MMFF94_ENERGY>  (1) 
15.0056

>  <PUBCHEM_FEATURE_SELFOVERLAP>  (1) 
23.07

>  <PUBCHEM_SHAPE_FINGERPRINT>  (1) 
1 1 17687181310835897053
11206711 2 18187363177605835999
12138202 97 17763187934245227318
12423570 1 15522944567272225665
12716758 59 17763183540615008882
14128692 85 18342744039139871370
20645477 70 18049993695968996231
20711985 344 18191585246453504442
20871998 184 18124605179932659807
20871998 22 18412829092211644018
21040471 1 17470723308739642368
21524375 3 17107345680721653024
23552423 10 18187374181681261346
23559900 14 17478043858002322510
241688 4 18408603630249972313
2748010 2 18409160013224745401
53812653 217 18049159960452002927
58734985 102 18268151035665211991
7364860 26 18125161794777833497
81228 2 18264486178726331841

>  <PUBCHEM_SHAPE_MULTIPOLES>  (1) 
217.04
3.97
2.98
0.94
0
3.04
0.16
-3.96
0.94
0
0.94
0
-0.34
0

>  <PUBCHEM_SHAPE_SELFOVERLAP>  (1) 
413.285

>  <PUBCHEM_SHAPE_VOLUME>  (1) 
133.4

>  <PUBCHEM_COORDINATE_TYPE>  (1) 
2
5
10

$$$$
