35669
     RDKit          3D

 25 27  0  0  0  0  0  0  0  0999 V2000
    0.0084   -4.9900    0.9346 Cl  0  0  0  0  0  0  0  0  0  0  0  0
    4.8374    3.2675    0.0644 O   0  0  0  0  0  0  0  0  0  0  0  0
   -4.8473    3.2593    0.0637 O   0  0  0  0  0  0  0  0  0  0  0  0
    2.7157    3.2801    0.6274 O   0  0  0  0  0  0  0  0  0  0  0  0
   -2.7257    3.2773    0.6268 O   0  0  0  0  0  0  0  0  0  0  0  0
    0.0034   -0.7390   -0.1565 N   0  0  0  0  0  0  0  0  0  0  0  0
   -1.1941   -2.7531    0.3604 N   0  0  0  0  0  0  0  0  0  0  0  0
    1.2055   -2.7506    0.3597 N   0  0  0  0  0  0  0  0  0  0  0  0
    3.7415    2.6787    0.2269 N   0  0  0  0  0  0  0  0  0  0  0  0
   -3.7498    2.6733    0.2261 N   0  0  0  0  0  0  0  0  0  0  0  0
    2.3720   -0.7534   -0.1520 C   0  0  0  0  0  0  0  0  0  0  0  0
   -2.3654   -0.7591   -0.1509 C   0  0  0  0  0  0  0  0  0  0  0  0
    1.1199   -1.4557    0.0275 C   0  0  0  0  0  0  0  0  0  0  0  0
   -1.1179   -1.4546    0.0273 C   0  0  0  0  0  0  0  0  0  0  0  0
    2.4519    0.6120    0.1216 C   0  0  0  0  0  0  0  0  0  0  0  0
   -2.4551    0.6098    0.1213 C   0  0  0  0  0  0  0  0  0  0  0  0
    3.4996   -1.4423   -0.5988 C   0  0  0  0  0  0  0  0  0  0  0  0
   -3.4980   -1.4474   -0.5979 C   0  0  0  0  0  0  0  0  0  0  0  0
    3.6593    1.2886   -0.0515 C   0  0  0  0  0  0  0  0  0  0  0  0
   -3.6643    1.2833   -0.0517 C   0  0  0  0  0  0  0  0  0  0  0  0
    4.7071   -0.7658   -0.7719 C   0  0  0  0  0  0  0  0  0  0  0  0
   -4.7071   -0.7741   -0.7708 C   0  0  0  0  0  0  0  0  0  0  0  0
    4.7870    0.5997   -0.4983 C   0  0  0  0  0  0  0  0  0  0  0  0
   -4.7904    0.5913   -0.4977 C   0  0  0  0  0  0  0  0  0  0  0  0
    0.0064   -3.3359    0.5101 C   0  0  0  0  0  0  0  0  0  0  0  0
  1 25  1  0
  2  9  1  0
  3 10  1  0
  4  9  2  0
  5 10  2  0
  6 13  2  0
  6 14  1  0
  7 14  2  0
  7 25  1  0
  8 13  1  0
  8 25  2  0
  9 19  1  0
 10 20  1  0
 11 13  1  0
 11 15  2  0
 11 17  1  0
 12 14  1  0
 12 16  2  0
 12 18  1  0
 15 19  1  0
 16 20  1  0
 17 21  2  0
 18 22  2  0
 19 23  2  0
 20 24  2  0
 21 23  1  0
 22 24  1  0
M  CHG  4   2  -1   3  -1   9   1  10   1
M  END
>  <PUBCHEM_COMPOUND_CID>  (1) 
35669

>  <PUBCHEM_CONFORMER_RMSD>  (1) 
0.8

>  <PUBCHEM_CONFORMER_DIVERSEORDER>  (1) 
1
17
8
7
18
4
5
19
6
13
14
11
12
3
2
15
16
9
10

>  <PUBCHEM_MMFF94_PARTIAL_CHARGES>  (1) 
31
1 -0.18
10 0.91
13 0.62
14 0.62
15 -0.15
16 -0.15
17 -0.15
18 -0.15
19 0.13
2 -0.52
20 0.13
21 -0.15
22 -0.15
23 -0.15
24 -0.15
25 0.8
26 0.15
27 0.15
28 0.15
29 0.15
3 -0.52
30 0.15
31 0.15
32 0.15
33 0.15
4 -0.52
5 -0.52
6 -0.62
7 -0.62
8 -0.62
9 0.91

>  <PUBCHEM_EFFECTIVE_ROTOR_COUNT>  (1) 
4

>  <PUBCHEM_PHARMACOPHORE_FEATURES>  (1) 
12
1 2 acceptor
1 2 anion
1 3 acceptor
1 3 anion
1 4 acceptor
1 5 acceptor
3 6 7 14 cation
3 6 8 13 cation
3 7 8 25 cation
6 11 15 17 19 21 23 rings
6 12 16 18 20 22 24 rings
6 6 7 8 13 14 25 rings

>  <PUBCHEM_HEAVY_ATOM_COUNT>  (1) 
25

>  <PUBCHEM_ATOM_DEF_STEREO_COUNT>  (1) 
0

>  <PUBCHEM_ATOM_UDEF_STEREO_COUNT>  (1) 
0

>  <PUBCHEM_BOND_DEF_STEREO_COUNT>  (1) 
0

>  <PUBCHEM_BOND_UDEF_STEREO_COUNT>  (1) 
0

>  <PUBCHEM_ISOTOPIC_ATOM_COUNT>  (1) 
0

>  <PUBCHEM_COMPONENT_COUNT>  (1) 
1

>  <PUBCHEM_CACTVS_TAUTO_COUNT>  (1) 
1

>  <PUBCHEM_CONFORMER_ID>  (1) 
00008B5500000001

>  <PUBCHEM_MMFF94_ENERGY>  (1) 
78.4543

>  <PUBCHEM_FEATURE_SELFOVERLAP>  (1) 
63.843

>  <PUBCHEM_SHAPE_FINGERPRINT>  (1) 
12173636 292 18336827614310557814
12403260 363 18338784672104149122
12769317 202 18265605490185055669
12788726 201 17684357739343933594
133893 2 16125883363944180406
13583140 156 17902250931285285171
13590594 115 17040925256945490563
138480 1 17760928437528562786
13878862 14 17610604329498949997
14117953 113 16396339816684278693
14251764 38 18413107285944175260
14466204 15 18192986029084452546
14739800 52 18195507394089110984
14790565 3 18409170986860717093
14848178 96 18410006619977379189
16994733 274 16517065369739550461
18681886 176 18196923375560279842
21033648 144 18056210295872352894
21734292 116 18413105082631447945
21864079 5 18410570682374361185
221357 26 18201719569738783205
23558518 356 17826513563750446578
23559900 14 18342739641927154350
23845131 108 18187932729631152611
245318 6 17750811036678584588
283562 15 18336542828679063107
3380486 145 17760384574716208787
3472631 163 18199750241983340973
46194498 28 17917724508177354038
474 4 18262519178605578635
50150288 127 16123361212707949753
5104073 3 18259703389108221035
59124914 9 18336830771364195018
6328613 192 18115315596218201020
633830 44 18341325626222204799
6371009 1 18337370695855524048
7808743 9 18120088648649618488
84936 182 18339638932456563715
9709674 26 18196941187232248246
9981440 41 18335134306627428619

>  <PUBCHEM_SHAPE_MULTIPOLES>  (1) 
467.98
10.91
5.27
0.78
0.06
1.53
-0.03
-9.8
-2.18
-0.02
2.01
0
0.22
0

>  <PUBCHEM_SHAPE_SELFOVERLAP>  (1) 
1026.359

>  <PUBCHEM_SHAPE_VOLUME>  (1) 
253.3

>  <PUBCHEM_COORDINATE_TYPE>  (1) 
2
5
10

$$$$
