35678
     RDKit          3D

 22 24  0  0  0  0  0  0  0  0999 V2000
   -0.2685    5.2313   -0.8118 Cl  0  0  0  0  0  0  0  0  0  0  0  0
    5.3066   -0.2099   -0.9916 Cl  0  0  0  0  0  0  0  0  0  0  0  0
   -1.7587   -0.2139    0.8122 O   0  0  0  0  0  0  0  0  0  0  0  0
   -0.0450   -1.8862    0.7577 O   0  0  0  0  0  0  0  0  0  0  0  0
   -3.2097   -1.7484   -0.7614 O   0  0  0  0  0  0  0  0  0  0  0  0
   -2.0170   -3.4135    0.3071 O   0  0  0  0  0  0  0  0  0  0  0  0
    0.8824    0.7512    1.5992 C   0  0  0  0  0  0  0  0  0  0  0  0
   -0.1099    1.5612    0.8044 C   0  0  0  0  0  0  0  0  0  0  0  0
    1.6893   -0.1947    0.7468 C   0  0  0  0  0  0  0  0  0  0  0  0
   -1.3625    1.0449    0.4402 C   0  0  0  0  0  0  0  0  0  0  0  0
    1.1914   -1.4475    0.3585 C   0  0  0  0  0  0  0  0  0  0  0  0
   -1.0854   -1.2150    0.0449 C   0  0  0  0  0  0  0  0  0  0  0  0
    0.2194    2.8626    0.3973 C   0  0  0  0  0  0  0  0  0  0  0  0
    2.9682    0.1798    0.3089 C   0  0  0  0  0  0  0  0  0  0  0  0
   -2.2839    1.8240   -0.2644 C   0  0  0  0  0  0  0  0  0  0  0  0
    1.9686   -2.3263   -0.4005 C   0  0  0  0  0  0  0  0  0  0  0  0
   -0.6912    3.6347   -0.3269 C   0  0  0  0  0  0  0  0  0  0  0  0
    3.7376   -0.6876   -0.4693 C   0  0  0  0  0  0  0  0  0  0  0  0
   -1.9434    3.1177   -0.6524 C   0  0  0  0  0  0  0  0  0  0  0  0
    3.2403   -1.9415   -0.8187 C   0  0  0  0  0  0  0  0  0  0  0  0
   -2.1330   -2.2672   -0.1051 C   0  0  0  0  0  0  0  0  0  0  0  0
   -4.2955   -2.6557   -0.9751 C   0  0  0  0  0  0  0  0  0  0  0  0
  1 17  1  0
  2 18  1  0
  3 10  1  0
  3 12  1  0
  4 11  1  0
  4 12  1  0
  5 21  1  0
  5 22  1  0
  6 21  2  0
  7  8  1  0
  7  9  1  0
  8 10  2  0
  8 13  1  0
  9 11  2  0
  9 14  1  0
 10 15  1  0
 11 16  1  0
 12 21  1  0
 13 17  2  0
 14 18  2  0
 15 19  2  0
 16 20  2  0
 17 19  1  0
 18 20  1  0
M  END
>  <PUBCHEM_COMPOUND_CID>  (1) 
35678

>  <PUBCHEM_CONFORMER_RMSD>  (1) 
0.6

>  <PUBCHEM_CONFORMER_DIVERSEORDER>  (1) 
1
3
6
4
5
7
2

>  <PUBCHEM_MMFF94_PARTIAL_CHARGES>  (1) 
28
1 -0.18
10 0.08
11 0.08
12 0.62
13 -0.15
14 -0.15
15 -0.15
16 -0.15
17 0.18
18 0.18
19 -0.15
2 -0.18
20 -0.15
21 0.66
22 0.28
26 0.15
27 0.15
28 0.15
29 0.15
3 -0.36
30 0.15
31 0.15
4 -0.36
5 -0.43
6 -0.57
7 0.29
8 -0.14
9 -0.14

>  <PUBCHEM_EFFECTIVE_ROTOR_COUNT>  (1) 
2.8

>  <PUBCHEM_PHARMACOPHORE_FEATURES>  (1) 
5
1 3 acceptor
1 4 acceptor
1 6 acceptor
6 8 10 13 15 17 19 rings
6 9 11 14 16 18 20 rings

>  <PUBCHEM_HEAVY_ATOM_COUNT>  (1) 
22

>  <PUBCHEM_ATOM_DEF_STEREO_COUNT>  (1) 
0

>  <PUBCHEM_ATOM_UDEF_STEREO_COUNT>  (1) 
0

>  <PUBCHEM_BOND_DEF_STEREO_COUNT>  (1) 
0

>  <PUBCHEM_BOND_UDEF_STEREO_COUNT>  (1) 
0

>  <PUBCHEM_ISOTOPIC_ATOM_COUNT>  (1) 
0

>  <PUBCHEM_COMPONENT_COUNT>  (1) 
1

>  <PUBCHEM_CACTVS_TAUTO_COUNT>  (1) 
1

>  <PUBCHEM_CONFORMER_ID>  (1) 
00008B5E00000001

>  <PUBCHEM_MMFF94_ENERGY>  (1) 
72.7112

>  <PUBCHEM_FEATURE_SELFOVERLAP>  (1) 
25.421

>  <PUBCHEM_SHAPE_FINGERPRINT>  (1) 
11370993 70 17760928446624737276
11488393 25 17181388417444762986
11582403 64 15898609800656294552
116883 192 18268415997078056225
12173636 292 17976539408103373732
12553582 1 18337389439151151291
12730499 353 17257378440558151681
12788726 201 18334290950880519202
138480 1 15672385025215926021
14508225 48 18339921622972030380
14537116 161 17549485905805787949
14790565 3 17981333291854573737
15210252 30 18114169865587412293
15463212 79 18116438029542830610
16087824 20 18338519626395587125
167882 2 17544752786476631229
16945 1 18196933267011432426
17134986 127 17399521126216133772
17357779 13 18200299035149424519
18785283 64 17758681440095034459
19591789 44 18052819144372263441
20775438 99 17766511972813080213
20871999 31 18412261714115045223
21344244 246 17404579369219659174
21524375 3 17468203240704558866
21641784 216 18265072347884749068
22182313 1 18127388228567351336
23352939 185 18128266768543885410
23419403 2 17345734391774782802
23557571 272 18201167585237905798
23559900 14 17981034534055745875
238 59 16599539525251708460
26353 1 18269264823843356079
2748010 2 18197762487562164296
3060560 45 17112131837836542206
4280585 95 18267011942104242890
46194498 28 17617343588537479063
7164475 11 18337951186835742622
81228 2 18411696604041065771
9981440 41 17687180890003072608

>  <PUBCHEM_SHAPE_MULTIPOLES>  (1) 
433.01
6.4
5.62
1.08
7.59
1.65
0.11
-0.4
-2.93
-7.32
-1.75
0.14
0.15
-0.19

>  <PUBCHEM_SHAPE_SELFOVERLAP>  (1) 
927.183

>  <PUBCHEM_SHAPE_VOLUME>  (1) 
239.8

>  <PUBCHEM_COORDINATE_TYPE>  (1) 
2
5
10

$$$$
