3567
     RDKit          3D

 38 42  0  0  1  0  0  0  0  0999 V2000
   -1.0172    0.8245    0.6004 O   0  0  0  0  0  0  0  0  0  0  0  0
   -0.4456    3.7216    0.9786 O   0  0  0  0  0  0  0  0  0  0  0  0
    2.7175   -3.9007    0.5465 O   0  0  0  0  0  0  0  0  0  0  0  0
    4.6964   -3.1670    1.7073 O   0  0  0  0  0  0  0  0  0  0  0  0
   -0.4128   -1.0866    1.7349 O   0  0  0  0  0  0  0  0  0  0  0  0
   -2.7532   -2.2228    1.0009 O   0  0  0  0  0  0  0  0  0  0  0  0
   -6.2695    0.6824    0.3982 O   0  0  0  0  0  0  0  0  0  0  0  0
   -2.9453   -3.7004   -1.6238 O   0  0  0  0  0  0  0  0  0  0  0  0
   -3.4616   -1.8191   -2.8574 O   0  0  0  0  0  0  0  0  0  0  0  0
    3.2257    1.9430   -1.4252 N   0  0  0  0  0  0  0  0  0  0  0  0
    1.7681    1.8702   -1.3031 C   0  0  0  0  0  0  0  0  0  0  0  0
    1.1802    0.7088   -0.4264 C   0  0  0  0  0  0  0  0  0  0  0  0
    1.3986    1.6556   -2.7831 C   0  0  0  0  0  0  0  0  0  0  0  0
    0.2945    1.3697    0.6617 C   0  0  0  0  0  0  0  0  0  0  0  0
    3.5508    2.7336   -2.6144 C   0  0  0  0  0  0  0  0  0  0  0  0
    2.3830    2.5147   -3.5645 C   0  0  0  0  0  0  0  0  0  0  0  0
    1.0791    3.0968   -0.7595 C   0  0  0  0  0  0  0  0  0  0  0  0
    2.1834   -0.2688    0.1750 C   0  0  0  0  0  0  0  0  0  0  0  0
    4.0074    2.3402   -0.2601 C   0  0  0  0  0  0  0  0  0  0  0  0
    0.2860    2.8081    0.2739 C   0  0  0  0  0  0  0  0  0  0  0  0
    3.6564    1.6253    1.0471 C   0  0  0  0  0  0  0  0  0  0  0  0
    3.3501    0.1588    0.8707 C   0  0  0  0  0  0  0  0  0  0  0  0
    1.9244   -1.6477    0.0459 C   0  0  0  0  0  0  0  0  0  0  0  0
    4.2396   -0.7890    1.4085 C   0  0  0  0  0  0  0  0  0  0  0  0
    2.8210   -2.5443    0.5888 C   0  0  0  0  0  0  0  0  0  0  0  0
    3.9477   -2.1267    1.2503 C   0  0  0  0  0  0  0  0  0  0  0  0
   -1.1329   -0.4980    0.9374 C   0  0  0  0  0  0  0  0  0  0  0  0
   -2.2919   -1.1493    0.1823 C   0  0  0  0  0  0  0  0  0  0  0  0
   -0.0742    3.7340    2.3485 C   0  0  0  0  0  0  0  0  0  0  0  0
   -3.4573   -0.1579   -0.0214 C   0  0  0  0  0  0  0  0  0  0  0  0
    3.9109   -4.2893    1.2567 C   0  0  0  0  0  0  0  0  0  0  0  0
   -1.7605   -1.7179   -1.1447 C   0  0  0  0  0  0  0  0  0  0  0  0
   -4.0510    0.3802    1.2960 C   0  0  0  0  0  0  0  0  0  0  0  0
   -5.2307    1.3582    1.1100 C   0  0  0  0  0  0  0  0  0  0  0  0
   -2.8241   -2.3906   -1.9821 C   0  0  0  0  0  0  0  0  0  0  0  0
   -5.7973    1.8518    2.4431 C   0  0  0  0  0  0  0  0  0  0  0  0
   -4.7789    2.5511    0.2606 C   0  0  0  0  0  0  0  0  0  0  0  0
   -3.9169   -4.4522   -2.3574 C   0  0  0  0  0  0  0  0  0  0  0  0
  1 14  1  0
  1 27  1  0
  2 20  1  0
  2 29  1  0
  3 25  1  0
  3 31  1  0
  4 26  1  0
  4 31  1  0
  5 27  2  0
  6 28  1  0
  7 34  1  0
  8 35  1  0
  8 38  1  0
  9 35  2  0
 10 11  1  0
 10 15  1  0
 10 19  1  0
 11 12  1  0
 11 13  1  0
 11 17  1  0
 12 14  1  0
 12 18  1  0
 13 16  1  0
 14 20  1  0
 15 16  1  0
 17 20  2  0
 18 22  2  0
 18 23  1  0
 19 21  1  0
 21 22  1  0
 22 24  1  0
 23 25  2  0
 24 26  2  0
 25 26  1  0
 27 28  1  0
 28 30  1  0
 28 32  1  0
 30 33  1  0
 32 35  1  0
 33 34  1  0
 34 36  1  0
 34 37  1  0
M  END
>  <PUBCHEM_COMPOUND_CID>  (1) 
3567

>  <PUBCHEM_CONFORMER_RMSD>  (1) 
1.4

>  <PUBCHEM_CONFORMER_DIVERSEORDER>  (1) 
3
701
350
308
707
590
227
522
295
28
215
643
443
737
724
217
551
811
690
808
548
27
601
414
140
153
286
174
191
592
113
99
154
105
5
766
93
507
460
34
228
336
195
479
799
96
24
725
481
813
186
665
39
730
625
91
478
76
564
81
630
123
381
29
207
418
13
353
746
75
750
383
219
546
202
263
677
619
699
2
141
434
25
4
232
125
584
609
466
562
467
588
452
800
83
354
318
391
55
139
756
108
417
7
741
8
419
587
88
360
30
457
373
58
165
498
361
279
68
216
126
420
582
282
57
504
332
52
150
130
143
19
218
146
18
284
95
220
306
717
439
172
197
559
157
102
132
20
63
698
359
115
51
405
378
266
330
574
33
511
327
222
778
265
277
254
79
134
78
90
142
509
89
223
300
508
36
297
572
760
48
775
12
190
128
160
230
241
394
788
17
54
515
365
116
702
152
229
477
10
136
208
473
463
524
151
206
500
274
311
278
606
613
120
171
591
732
409
74
44
147
225
114
362
176
181
162
748
169
252
784
137
755
203
287
545
309
22
569
16
684
358
427
344
15
742
210
60
37
464
785
319
323
342
235
654
672
480
61
653
386
704
168
283
525
451
401
570
696
313
6
200
512
247
395
189
56
633
258
1
407
389
505
234
82
322
355
270
23
104
425
397
617
474
396

>  <PUBCHEM_MMFF94_PARTIAL_CHARGES>  (1) 
37
1 -0.43
10 -0.81
11 0.41
12 0.14
14 0.42
15 0.27
17 -0.29
18 -0.14
19 0.27
2 -0.36
20 -0.06
21 0.14
22 -0.14
23 -0.15
24 -0.15
25 0.08
26 0.08
27 0.66
28 0.34
29 0.28
3 -0.36
31 0.56
32 0.06
34 0.28
35 0.66
38 0.28
4 -0.36
47 0.15
5 -0.57
52 0.15
53 0.15
6 -0.68
65 0.4
7 -0.68
72 0.4
8 -0.43
9 -0.57

>  <PUBCHEM_EFFECTIVE_ROTOR_COUNT>  (1) 
11.8

>  <PUBCHEM_PHARMACOPHORE_FEATURES>  (1) 
16
1 10 cation
1 2 acceptor
1 3 acceptor
1 4 acceptor
1 5 acceptor
1 6 acceptor
1 6 donor
1 7 acceptor
1 7 donor
1 9 acceptor
3 34 36 37 hydrophobe
5 10 11 13 15 16 rings
5 11 12 14 17 20 rings
5 3 4 25 26 31 rings
6 18 22 23 24 25 26 rings
7 10 11 12 18 19 21 22 rings

>  <PUBCHEM_HEAVY_ATOM_COUNT>  (1) 
38

>  <PUBCHEM_ATOM_DEF_STEREO_COUNT>  (1) 
0

>  <PUBCHEM_ATOM_UDEF_STEREO_COUNT>  (1) 
4

>  <PUBCHEM_BOND_DEF_STEREO_COUNT>  (1) 
0

>  <PUBCHEM_BOND_UDEF_STEREO_COUNT>  (1) 
0

>  <PUBCHEM_ISOTOPIC_ATOM_COUNT>  (1) 
0

>  <PUBCHEM_COMPONENT_COUNT>  (1) 
1

>  <PUBCHEM_CACTVS_TAUTO_COUNT>  (1) 
1

>  <PUBCHEM_CONFORMER_ID>  (1) 
00000DEF00000003

>  <PUBCHEM_MMFF94_ENERGY>  (1) 
112.6315

>  <PUBCHEM_FEATURE_SELFOVERLAP>  (1) 
81.606

>  <PUBCHEM_SHAPE_FINGERPRINT>  (1) 
10190108 129 17613750388875000779
10369192 42 16301796582597538804
11135926 11 18040999583521180572
12160290 23 17251706115793299250
12422481 6 17909274572587208705
12788726 201 17986414229459801833
13004483 165 18266449906714917138
133893 2 17750498749500431331
14790565 3 17974298913039600824
15219462 58 18048599519318957051
15324884 4 15958679200178576017
15448158 6 17984973800661035746
17809404 112 14836123295211638469
17818456 19 18271528572345898225
1813 80 17677618557920010768
19315092 285 17409047707039143935
19319366 153 18190765182804923469
20775530 9 18044081372895844154
21033648 144 16591119916288594036
21703447 108 17412167034912796225
22393880 68 17985555682507862517
46194498 28 17388229463637287231
463206 1 18340196483652177914
5081480 168 17167865240081626710
513532 50 17489599938887189005
563151 97 18192711374162821444

>  <PUBCHEM_SHAPE_MULTIPOLES>  (1) 
724.22
10.69
5.84
2.84
11.08
3.74
-2.26
1.6
3.1
-1.68
-0.81
0.09
-0.61
-7.02

>  <PUBCHEM_SHAPE_SELFOVERLAP>  (1) 
1560.239

>  <PUBCHEM_SHAPE_VOLUME>  (1) 
399.5

>  <PUBCHEM_COORDINATE_TYPE>  (1) 
2
5
10

$$$$
