35680
     RDKit          3D

 22 23  0  0  1  0  0  0  0  0999 V2000
   -1.9097    2.9831    1.2093 Cl  0  0  0  0  0  0  0  0  0  0  0  0
   -1.3561   -2.0938   -1.5519 O   0  0  0  0  0  0  0  0  0  0  0  0
   -1.9675   -2.8995    0.4837 O   0  0  0  0  0  0  0  0  0  0  0  0
    1.7786    0.4372    0.1339 N   0  0  0  0  0  0  0  0  0  0  0  0
    2.7855    1.1017   -0.7379 C   0  0  0  0  0  0  0  0  0  0  0  0
    2.1169   -0.9343    0.6168 C   0  0  0  0  0  0  0  0  0  0  0  0
    4.1687    1.0763   -0.0289 C   0  0  0  0  0  0  0  0  0  0  0  0
    0.3910    0.5969   -0.3062 C   0  0  0  0  0  0  0  0  0  0  0  0
    3.6099   -1.1882    0.7629 C   0  0  0  0  0  0  0  0  0  0  0  0
    2.9144    0.4582   -2.1384 C   0  0  0  0  0  0  0  0  0  0  0  0
    2.4403    2.5971   -0.9492 C   0  0  0  0  0  0  0  0  0  0  0  0
    4.5428   -0.2716    0.4879 C   0  0  0  0  0  0  0  0  0  0  0  0
    1.5249   -2.0729   -0.2450 C   0  0  0  0  0  0  0  0  0  0  0  0
    1.5403   -1.0709    2.0486 C   0  0  0  0  0  0  0  0  0  0  0  0
   -0.5840    0.2500    0.8196 C   0  0  0  0  0  0  0  0  0  0  0  0
   -2.0174    0.3887    0.3725 C   0  0  0  0  0  0  0  0  0  0  0  0
   -2.6603   -0.7097   -0.1860 C   0  0  0  0  0  0  0  0  0  0  0  0
   -2.6808    1.6008    0.5195 C   0  0  0  0  0  0  0  0  0  0  0  0
   -3.9861   -0.5940   -0.6034 C   0  0  0  0  0  0  0  0  0  0  0  0
   -4.0067    1.7165    0.1021 C   0  0  0  0  0  0  0  0  0  0  0  0
   -4.6594    0.6191   -0.4595 C   0  0  0  0  0  0  0  0  0  0  0  0
   -1.9854   -1.9905   -0.3504 C   0  0  0  0  0  0  0  0  0  0  0  0
  1 18  1  0
  2 22  1  0
  3 22  2  0
  4  5  1  0
  4  6  1  0
  4  8  1  0
  5  7  1  0
  5 10  1  0
  5 11  1  0
  6  9  1  0
  6 13  1  0
  6 14  1  0
  7 12  1  0
  8 15  1  0
  9 12  2  0
 15 16  1  0
 16 17  2  0
 16 18  1  0
 17 19  1  0
 17 22  1  0
 18 20  2  0
 19 21  2  0
 20 21  1  0
M  END
>  <PUBCHEM_COMPOUND_CID>  (1) 
35680

>  <PUBCHEM_CONFORMER_RMSD>  (1) 
0.8

>  <PUBCHEM_CONFORMER_DIVERSEORDER>  (1) 
1
2

>  <PUBCHEM_MMFF94_PARTIAL_CHARGES>  (1) 
24
1 -0.18
12 -0.29
15 0.14
16 -0.14
17 0.09
18 0.18
19 -0.15
2 -0.65
20 -0.15
21 -0.15
22 0.63
27 0.15
3 -0.57
34 0.15
4 -0.81
43 0.15
44 0.15
45 0.15
46 0.5
5 0.27
6 0.41
7 0.14
8 0.27
9 -0.29

>  <PUBCHEM_EFFECTIVE_ROTOR_COUNT>  (1) 
4.8

>  <PUBCHEM_PHARMACOPHORE_FEATURES>  (1) 
8
1 2 acceptor
1 3 acceptor
1 4 cation
3 2 3 22 anion
3 5 10 11 hydrophobe
3 6 13 14 hydrophobe
6 16 17 18 19 20 21 rings
6 4 5 6 7 9 12 rings

>  <PUBCHEM_HEAVY_ATOM_COUNT>  (1) 
22

>  <PUBCHEM_ATOM_DEF_STEREO_COUNT>  (1) 
0

>  <PUBCHEM_ATOM_UDEF_STEREO_COUNT>  (1) 
0

>  <PUBCHEM_BOND_DEF_STEREO_COUNT>  (1) 
0

>  <PUBCHEM_BOND_UDEF_STEREO_COUNT>  (1) 
0

>  <PUBCHEM_ISOTOPIC_ATOM_COUNT>  (1) 
0

>  <PUBCHEM_COMPONENT_COUNT>  (1) 
1

>  <PUBCHEM_CACTVS_TAUTO_COUNT>  (1) 
1

>  <PUBCHEM_CONFORMER_ID>  (1) 
00008B6000000001

>  <PUBCHEM_MMFF94_ENERGY>  (1) 
81.7368

>  <PUBCHEM_FEATURE_SELFOVERLAP>  (1) 
40.652

>  <PUBCHEM_SHAPE_FINGERPRINT>  (1) 
10366900 7 17060333028723392056
10498660 4 18344147003387222445
10616163 171 18339926020939796759
11370993 70 18271804592576947230
11578080 2 17973408166401950052
11640471 11 18187370934348180613
12173636 292 18270116812606826997
12236239 1 18333446517660736537
12553582 1 18271817838583265681
12633257 1 16226041232519083768
12788726 201 18131641062693678793
13134695 92 17530958082325774124
13140716 1 18198346349837995841
13224815 77 18334866059864788592
13538477 17 18410008861949865798
13583140 156 17385726855540410625
13965767 371 17761223111140741152
14115302 16 18413668006666755512
14251764 3 16486964068847265541
14790565 3 18199193893537500689
15375358 24 17203887470222032478
16752209 62 18271796892238473737
16945 1 18339658783731718872
17349148 13 18340759360527240935
17492 89 18335704991780532938
1813 80 17533780404220865786
18186145 218 16877657976419665832
18681886 176 18341606049559200904
19862831 5 18335420170770363233
200 152 18410006641752746441
20279233 1 16630528448857959646
20511986 3 18262498352240686160
20645476 183 18334007298814052267
20715895 44 18047461224342688085
23227448 37 18261392277871038439
23402539 116 18201427057139441405
23526113 38 16702027435191475006
23557571 272 17775288235929454160
23558518 356 18125731088951800083
23559900 14 17917154888308234260
23598288 3 18269280234423676527
23598291 2 18261959526960005432
34934 24 18335699455313921792
4340502 62 17240489104789343531
474 4 17748829652447962600
5104073 3 18407758148757736601
5895379 119 18271532987910141728
633830 44 17749111127741125934
7064713 232 18198051500254082120
7832392 63 18408323276776384818
90525 40 18342178864583242895
9709674 26 18343024380324616695

>  <PUBCHEM_SHAPE_MULTIPOLES>  (1) 
437.9
8.57
2.82
1.4
0.63
0.14
0.11
1.76
0.69
1.06
-0.11
-0.79
0
-1.57

>  <PUBCHEM_SHAPE_SELFOVERLAP>  (1) 
908.307

>  <PUBCHEM_SHAPE_VOLUME>  (1) 
251.9

>  <PUBCHEM_COORDINATE_TYPE>  (1) 
2
5
10

$$$$
