35688
     RDKit          3D

 32 35  0  0  0  0  0  0  0  0999 V2000
   -2.3302    1.0084    0.1138 S   0  0  0  0  0  0  0  0  0  0  0  0
    2.3301   -1.0082    0.1139 S   0  0  0  0  0  0  0  0  0  0  0  0
   -7.8911    0.8943    0.1141 S   0  0  0  0  0  0  0  0  0  0  0  0
    7.8911   -0.8946    0.1140 S   0  0  0  0  0  0  0  0  0  0  0  0
   -8.2765    1.0836   -1.4634 O   0  0  0  0  0  0  0  0  0  0  0  0
    8.2763   -1.0839   -1.4634 O   0  0  0  0  0  0  0  0  0  0  0  0
   -8.8533   -0.0417    0.6769 O   0  0  0  0  0  0  0  0  0  0  0  0
   -7.7121    2.2148    0.6971 O   0  0  0  0  0  0  0  0  0  0  0  0
    8.8533    0.0413    0.6769 O   0  0  0  0  0  0  0  0  0  0  0  0
    7.7119   -2.2151    0.6971 O   0  0  0  0  0  0  0  0  0  0  0  0
   -2.5032   -1.6136    0.1140 N   0  0  0  0  0  0  0  0  0  0  0  0
    2.5033    1.6138    0.1140 N   0  0  0  0  0  0  0  0  0  0  0  0
   -0.2627   -0.6432    0.1139 N   0  0  0  0  0  0  0  0  0  0  0  0
    0.2629    0.6435    0.1140 N   0  0  0  0  0  0  0  0  0  0  0  0
   -3.8312   -1.1510    0.1138 C   0  0  0  0  0  0  0  0  0  0  0  0
    3.8313    1.1511    0.1138 C   0  0  0  0  0  0  0  0  0  0  0  0
   -3.9417    0.2513    0.1136 C   0  0  0  0  0  0  0  0  0  0  0  0
    3.9416   -0.2512    0.1135 C   0  0  0  0  0  0  0  0  0  0  0  0
   -2.2349   -3.0387    0.1144 C   0  0  0  0  0  0  0  0  0  0  0  0
    2.2351    3.0390    0.1145 C   0  0  0  0  0  0  0  0  0  0  0  0
   -1.5508   -0.6029    0.1140 C   0  0  0  0  0  0  0  0  0  0  0  0
    1.5509    0.6032    0.1140 C   0  0  0  0  0  0  0  0  0  0  0  0
   -4.9943   -1.9158    0.1140 C   0  0  0  0  0  0  0  0  0  0  0  0
    4.9945    1.9157    0.1140 C   0  0  0  0  0  0  0  0  0  0  0  0
   -5.1682    0.8992    0.1136 C   0  0  0  0  0  0  0  0  0  0  0  0
    5.1681   -0.8992    0.1137 C   0  0  0  0  0  0  0  0  0  0  0  0
   -6.3247    0.1219    0.1136 C   0  0  0  0  0  0  0  0  0  0  0  0
    6.3246   -0.1221    0.1136 C   0  0  0  0  0  0  0  0  0  0  0  0
   -6.2387   -1.2759    0.1139 C   0  0  0  0  0  0  0  0  0  0  0  0
    6.2387    1.2757    0.1139 C   0  0  0  0  0  0  0  0  0  0  0  0
   -2.1343   -3.5732   -1.2774 C   0  0  0  0  0  0  0  0  0  0  0  0
    2.1346    3.5734   -1.2774 C   0  0  0  0  0  0  0  0  0  0  0  0
  1 17  1  0
  1 21  1  0
  2 18  1  0
  2 22  1  0
  3  5  1  0
  3  7  2  0
  3  8  2  0
  3 27  1  0
  4  6  1  0
  4  9  2  0
  4 10  2  0
  4 28  1  0
 11 15  1  0
 11 19  1  0
 11 21  1  0
 12 16  1  0
 12 20  1  0
 12 22  1  0
 13 14  1  0
 13 21  2  0
 14 22  2  0
 15 17  2  0
 15 23  1  0
 16 18  2  0
 16 24  1  0
 17 25  1  0
 18 26  1  0
 19 31  1  0
 20 32  1  0
 23 29  2  0
 24 30  2  0
 25 27  2  0
 26 28  2  0
 27 29  1  0
 28 30  1  0
M  END
>  <PUBCHEM_COMPOUND_CID>  (1) 
35688

>  <PUBCHEM_CONFORMER_RMSD>  (1) 
0.8

>  <PUBCHEM_CONFORMER_DIVERSEORDER>  (1) 
1
4
3
2

>  <PUBCHEM_MMFF94_PARTIAL_CHARGES>  (1) 
38
1 -0.24
10 -0.65
11 -0.52
12 -0.52
13 -0.45
14 -0.45
15 0.1
16 0.1
17 0.1
18 0.1
19 0.37
2 -0.24
20 0.37
21 0.64
22 0.64
23 -0.15
24 -0.15
25 -0.15
26 -0.15
27 -0.01
28 -0.01
29 -0.15
3 1.49
30 -0.15
37 0.15
38 0.15
39 0.15
4 1.49
40 0.15
41 0.15
42 0.15
49 0.5
5 -0.68
50 0.5
6 -0.68
7 -0.65
8 -0.65
9 -0.65

>  <PUBCHEM_EFFECTIVE_ROTOR_COUNT>  (1) 
5

>  <PUBCHEM_PHARMACOPHORE_FEATURES>  (1) 
14
1 10 acceptor
1 5 acceptor
1 6 acceptor
1 7 acceptor
1 8 acceptor
1 9 acceptor
3 11 13 21 cation
3 12 14 22 cation
4 3 5 7 8 anion
4 4 6 9 10 anion
5 1 11 15 17 21 rings
5 2 12 16 18 22 rings
6 15 17 23 25 27 29 rings
6 16 18 24 26 28 30 rings

>  <PUBCHEM_HEAVY_ATOM_COUNT>  (1) 
32

>  <PUBCHEM_ATOM_DEF_STEREO_COUNT>  (1) 
0

>  <PUBCHEM_ATOM_UDEF_STEREO_COUNT>  (1) 
0

>  <PUBCHEM_BOND_DEF_STEREO_COUNT>  (1) 
0

>  <PUBCHEM_BOND_UDEF_STEREO_COUNT>  (1) 
2

>  <PUBCHEM_ISOTOPIC_ATOM_COUNT>  (1) 
0

>  <PUBCHEM_COMPONENT_COUNT>  (1) 
1

>  <PUBCHEM_CACTVS_TAUTO_COUNT>  (1) 
1

>  <PUBCHEM_CONFORMER_ID>  (1) 
00008B6800000001

>  <PUBCHEM_MMFF94_ENERGY>  (1) 
82.4965

>  <PUBCHEM_FEATURE_SELFOVERLAP>  (1) 
71.287

>  <PUBCHEM_SHAPE_FINGERPRINT>  (1) 
10050765 1 18122907787429962418
100830 39 18337108973982767961
10299344 5 18187366532328682898
10674148 151 18113897182825286592
11315181 36 17632580474118302323
11524674 6 17275103955008262718
11719270 70 17988926665675149142
12107183 9 18410855460128161939
12166972 35 18340770429091246344
12592606 108 18410854382308038091
12758862 56 18335698364898267864
12838862 33 18341034259877561346
14117953 113 18413390925431020094
14251764 46 18060419110355968058
15064986 266 18190467240733981851
15183329 4 18410575080368112018
15347591 1 18192997251248343331
15361156 5 17969228991655481798
15439362 3 17972041611631389628
15461852 350 16845567634916237581
15849732 13 18130787867571450124
16087824 20 18409449155019045596
17492 89 17976259354776765938
21130935 74 18340204206298548162
21267235 1 18408326604938306392
21315763 28 18337953493575428795
21781055 127 17703514286101048011
21792934 111 18342166775099916984
22224240 67 11095882662187790640
232437 2 18410012139817287699
23559900 14 18268705185283527856
23569917 315 18337394950423009815
249057 3 18410573998036353063
28498 318 18410573968467480142
3004659 81 18408320012190153880
3103668 31 17969215647119273732
335352 9 18410855464423129405
350125 39 18409166632091335701
3552219 110 12757151242940769895
3633792 109 18059862710080253003
4017518 198 17632864122686757742
4073 2 17968944217832950738
4339292 15 15984808399440417431
439807 62 18113616756205905898
559249 180 18412825815267797523
6081469 158 18259983743652231580
6201320 215 15697171612863642131
6691757 9 17489879258354890963
99344 41 18342739598671441943

>  <PUBCHEM_SHAPE_MULTIPOLES>  (1) 
618.8
27.57
3.17
0.87
0
0
0.25
0
-1.23
0
0.83
0
0
-0.49

>  <PUBCHEM_SHAPE_SELFOVERLAP>  (1) 
1289.786

>  <PUBCHEM_SHAPE_VOLUME>  (1) 
356.1

>  <PUBCHEM_COORDINATE_TYPE>  (1) 
2
5
10

$$$$
