35686
     RDKit          3D

 24 26  0  0  1  0  0  0  0  0999 V2000
    1.7873    0.7663    1.8295 O   0  0  0  0  0  0  0  0  0  0  0  0
   -6.3720    2.2927   -0.2985 O   0  0  0  0  0  0  0  0  0  0  0  0
   -6.8999    0.4932   -1.5663 O   0  0  0  0  0  0  0  0  0  0  0  0
    2.8642   -0.4489    0.1015 N   0  0  0  0  0  0  0  0  0  0  0  0
    2.6355   -1.6086   -0.6074 N   0  0  0  0  0  0  0  0  0  0  0  0
   -0.3520   -0.7925    0.4630 N   0  0  0  0  0  0  0  0  0  0  0  0
   -1.3055   -1.0959    1.2173 N   0  0  0  0  0  0  0  0  0  0  0  0
    0.9127   -1.3225    0.9408 C   0  0  0  0  0  0  0  0  0  0  0  0
    1.5380   -2.1232   -0.1504 C   0  0  0  0  0  0  0  0  0  0  0  0
    1.8782   -0.1803    1.0657 C   0  0  0  0  0  0  0  0  0  0  0  0
    3.9795    0.3198   -0.1905 C   0  0  0  0  0  0  0  0  0  0  0  0
    0.9479   -3.3974   -0.6477 C   0  0  0  0  0  0  0  0  0  0  0  0
    4.2211    1.5088    0.5077 C   0  0  0  0  0  0  0  0  0  0  0  0
    4.8765   -0.0846   -1.1861 C   0  0  0  0  0  0  0  0  0  0  0  0
    5.3438    2.2827    0.2142 C   0  0  0  0  0  0  0  0  0  0  0  0
    5.9994    0.6893   -1.4793 C   0  0  0  0  0  0  0  0  0  0  0  0
   -2.5058   -0.5627    0.7183 C   0  0  0  0  0  0  0  0  0  0  0  0
    6.2330    1.8729   -0.7791 C   0  0  0  0  0  0  0  0  0  0  0  0
   -3.2792   -1.3100   -0.1650 C   0  0  0  0  0  0  0  0  0  0  0  0
   -2.9137    0.7086    1.1113 C   0  0  0  0  0  0  0  0  0  0  0  0
   -4.8845    0.4924   -0.2695 C   0  0  0  0  0  0  0  0  0  0  0  0
   -4.4713   -0.7811   -0.6602 C   0  0  0  0  0  0  0  0  0  0  0  0
   -4.1058    1.2374    0.6162 C   0  0  0  0  0  0  0  0  0  0  0  0
   -6.1275    1.0436   -0.7854 C   0  0  0  0  0  0  0  0  0  0  0  0
  1 10  2  0
  2 24  1  0
  3 24  2  0
  4  5  1  0
  4 10  1  0
  4 11  1  0
  5  9  2  0
  6  7  2  0
  6  8  1  0
  7 17  1  0
  8  9  1  0
  8 10  1  0
  9 12  1  0
 11 13  2  0
 11 14  1  0
 13 15  1  0
 14 16  2  0
 15 18  2  0
 16 18  1  0
 17 19  2  0
 17 20  1  0
 19 22  1  0
 20 23  2  0
 21 22  2  0
 21 23  1  0
 21 24  1  0
M  END
>  <PUBCHEM_COMPOUND_CID>  (1) 
35686

>  <PUBCHEM_CONFORMER_RMSD>  (1) 
0.8

>  <PUBCHEM_CONFORMER_DIVERSEORDER>  (1) 
1
9
4
5
8
7
6
3
10
2

>  <PUBCHEM_MMFF94_PARTIAL_CHARGES>  (1) 
34
1 -0.57
10 0.57
11 0.12
12 0.06
13 -0.15
14 -0.15
15 -0.15
16 -0.15
17 0.18
18 -0.15
19 -0.15
2 -0.65
20 -0.15
21 0.09
22 -0.15
23 -0.15
24 0.63
29 0.15
3 -0.57
30 0.15
31 0.15
32 0.15
33 0.15
34 0.15
35 0.15
36 0.15
37 0.15
38 0.5
4 -0.11
5 -0.51
6 -0.25
7 -0.18
8 0.37
9 0.33

>  <PUBCHEM_EFFECTIVE_ROTOR_COUNT>  (1) 
4.4

>  <PUBCHEM_PHARMACOPHORE_FEATURES>  (1) 
8
1 1 acceptor
1 2 acceptor
1 3 acceptor
1 5 acceptor
3 2 3 24 anion
5 4 5 8 9 10 rings
6 11 13 14 15 16 18 rings
6 17 19 20 21 22 23 rings

>  <PUBCHEM_HEAVY_ATOM_COUNT>  (1) 
24

>  <PUBCHEM_ATOM_DEF_STEREO_COUNT>  (1) 
0

>  <PUBCHEM_ATOM_UDEF_STEREO_COUNT>  (1) 
1

>  <PUBCHEM_BOND_DEF_STEREO_COUNT>  (1) 
0

>  <PUBCHEM_BOND_UDEF_STEREO_COUNT>  (1) 
0

>  <PUBCHEM_ISOTOPIC_ATOM_COUNT>  (1) 
0

>  <PUBCHEM_COMPONENT_COUNT>  (1) 
1

>  <PUBCHEM_CACTVS_TAUTO_COUNT>  (1) 
3

>  <PUBCHEM_CONFORMER_ID>  (1) 
00008B6600000001

>  <PUBCHEM_MMFF94_ENERGY>  (1) 
70.3467

>  <PUBCHEM_FEATURE_SELFOVERLAP>  (1) 
40.658

>  <PUBCHEM_SHAPE_FINGERPRINT>  (1) 
10 15 14129062517074273541
10498660 4 18411420617763442825
105312 117 18335424624957794238
10693767 8 17346043247532587230
10763959 59 18040722493669292540
11796584 16 11743298159379273010
12596602 18 15357698608267543185
12633257 1 16081370812229533038
12730499 353 18411989056759363251
13103583 49 11169900676272029446
13668630 136 15123503727505900341
13673619 4 11959731573025278051
13685833 64 10735878374160582676
13690498 29 17559387162342906911
13782708 43 11527943461377576581
14123256 34 10879997973136417372
14216079 64 11239996750978995629
14251751 18 11240008844941860330
14251764 30 10591770869813011004
14528608 73 18343300379127840788
14931854 50 17989209226497623169
15003188 100 18342457101154937064
15183329 4 17917436410429572368
15188451 53 9439399121531618201
15238133 3 17023473070588380732
15475509 35 11599729420493608900
15475509 84 12973595630106987782
15961568 22 18113054917900305301
17780758 139 7853583387393708167
18335252 98 18408328805022397899
18608769 82 18338241587165892947
190975 80 9943519688097121516
19784866 240 12967129423967040579
1979834 28 13479129060523689328
20567600 247 14117525320073470068
20612939 158 18340492158022773698
20715895 44 18411138087048132128
21033648 29 18338232799319621616
21150785 3 15482671308115920768
21298829 104 18333734585639834309
21521239 73 17060346214921941502
21637258 2 13614528433095727198
21792934 111 10953457424085213703
221357 26 17632578257741312152
22393880 68 17917141792663220287
23559900 14 17846487180268816961
25122255 55 12535334732371829213
2748736 6 18040713688226901285
2838139 119 18261109712157302764
3103668 31 17910948368688431407
3472631 163 17676489470878402479
351380 3 12103852245689981180
465052 167 8646776590899705744
543368 44 18334573539092178629
59682541 52 17418377960980453436
6327066 14 18337673139390335068
7970288 3 13039187004814592605
8863177 126 11095586923292472005

>  <PUBCHEM_SHAPE_MULTIPOLES>  (1) 
456.38
17.29
2.54
1.31
8.28
1.13
0.04
-13.62
-8.16
-1.03
-0.32
-0.09
-0.13
0.37

>  <PUBCHEM_SHAPE_SELFOVERLAP>  (1) 
995.478

>  <PUBCHEM_SHAPE_VOLUME>  (1) 
249

>  <PUBCHEM_COORDINATE_TYPE>  (1) 
2
5
10

$$$$
