35699
     RDKit          3D

 13 13  0  0  0  0  0  0  0  0999 V2000
   -0.1035   -2.1921    0.2658 O   0  0  0  0  0  0  0  0  0  0  0  0
    0.9429    2.0053    0.2907 O   0  0  0  0  0  0  0  0  0  0  0  0
    1.3016   -0.3479    0.0610 N   0  0  0  0  0  0  0  0  0  0  0  0
   -0.9644   -0.0774    0.6143 N   0  0  0  0  0  0  0  0  0  0  0  0
    3.0390    1.1070   -0.2234 N   0  0  0  0  0  0  0  0  0  0  0  0
   -3.3321    0.0709   -0.0860 C   0  0  0  0  0  0  0  0  0  0  0  0
    2.4478   -1.1424   -0.3533 C   0  0  0  0  0  0  0  0  0  0  0  0
   -2.3119   -0.5113    0.8987 C   0  0  0  0  0  0  0  0  0  0  0  0
    3.6307   -0.1972   -0.3193 C   0  0  0  0  0  0  0  0  0  0  0  0
    0.0576   -0.9703    0.3134 C   0  0  0  0  0  0  0  0  0  0  0  0
    1.6670    1.0429    0.0717 C   0  0  0  0  0  0  0  0  0  0  0  0
   -3.0084   -0.3874   -1.5084 C   0  0  0  0  0  0  0  0  0  0  0  0
   -3.3663    1.5997   -0.0253 C   0  0  0  0  0  0  0  0  0  0  0  0
  1 10  2  0
  2 11  2  0
  3  7  1  0
  3 10  1  0
  3 11  1  0
  4  8  1  0
  4 10  1  0
  5  9  1  0
  5 11  1  0
  6  8  1  0
  6 12  1  0
  6 13  1  0
  7  9  1  0
M  END
>  <PUBCHEM_COMPOUND_CID>  (1) 
35699

>  <PUBCHEM_CONFORMER_RMSD>  (1) 
0.6

>  <PUBCHEM_CONFORMER_DIVERSEORDER>  (1) 
1
7
10
4
3
9
8
6
2
5

>  <PUBCHEM_MMFF94_PARTIAL_CHARGES>  (1) 
12
1 -0.57
10 0.69
11 0.69
2 -0.57
21 0.37
22 0.37
3 -0.42
4 -0.73
5 -0.73
7 0.3
8 0.3
9 0.3

>  <PUBCHEM_EFFECTIVE_ROTOR_COUNT>  (1) 
4.8

>  <PUBCHEM_PHARMACOPHORE_FEATURES>  (1) 
6
1 1 acceptor
1 2 acceptor
1 4 donor
1 5 donor
3 6 12 13 hydrophobe
5 3 5 7 9 11 rings

>  <PUBCHEM_HEAVY_ATOM_COUNT>  (1) 
13

>  <PUBCHEM_ATOM_DEF_STEREO_COUNT>  (1) 
0

>  <PUBCHEM_ATOM_UDEF_STEREO_COUNT>  (1) 
0

>  <PUBCHEM_BOND_DEF_STEREO_COUNT>  (1) 
0

>  <PUBCHEM_BOND_UDEF_STEREO_COUNT>  (1) 
0

>  <PUBCHEM_ISOTOPIC_ATOM_COUNT>  (1) 
0

>  <PUBCHEM_COMPONENT_COUNT>  (1) 
1

>  <PUBCHEM_CACTVS_TAUTO_COUNT>  (1) 
4

>  <PUBCHEM_CONFORMER_ID>  (1) 
00008B7300000001

>  <PUBCHEM_MMFF94_ENERGY>  (1) 
18.3852

>  <PUBCHEM_FEATURE_SELFOVERLAP>  (1) 
30.446

>  <PUBCHEM_SHAPE_FINGERPRINT>  (1) 
10608611 8 18336832008093340648
11401426 45 18272365352502975992
12251169 10 8358254882673561343
124424 183 18040712567588141650
12932764 1 17704352190848324011
14250199 8 18340200899205430517
14325111 11 18409171025578732763
15279308 100 18336835276816472022
15775835 57 18342177760919007781
18186145 218 18412268323980036350
20201158 50 18408888416683150648
20606313 2 18411700963105647564
21119208 17 17847059961201775373
22959321 8 18115010953559758205
23402539 116 18271801294574638382
23402655 69 18272371940577022485
25 1 18262237712128904435
2748010 2 17836655493121619528
63268167 104 18343025484009424769
81228 2 17318180776343636579

>  <PUBCHEM_SHAPE_MULTIPOLES>  (1) 
240.85
6.42
1.75
0.91
0.73
0.2
0.21
1.25
1.34
-0.2
-0.14
0.69
-0.15
0.01

>  <PUBCHEM_SHAPE_SELFOVERLAP>  (1) 
473.513

>  <PUBCHEM_SHAPE_VOLUME>  (1) 
144.2

>  <PUBCHEM_COORDINATE_TYPE>  (1) 
2
5
10

$$$$
