3569
     RDKit          3D

 40 42  0  0  1  0  0  0  0  0999 V2000
   -3.9167    1.8422    0.2321 S   0  0  0  0  0  0  0  0  0  0  0  0
   -4.5725    1.0879   -0.8214 O   0  0  0  0  0  0  0  0  0  0  0  0
   -3.0094    2.9297   -0.0892 O   0  0  0  0  0  0  0  0  0  0  0  0
   -0.1140    1.3478    1.4890 O   0  0  0  0  0  0  0  0  0  0  0  0
    2.1015    0.1619   -1.5513 O   0  0  0  0  0  0  0  0  0  0  0  0
    4.9296    2.2651   -2.8335 O   0  0  0  0  0  0  0  0  0  0  0  0
   -0.3243    1.2623   -0.8187 N   0  0  0  0  0  0  0  0  0  0  0  0
    3.1482    2.0275   -0.6511 N   0  0  0  0  0  0  0  0  0  0  0  0
   -5.1831    2.4944    1.2955 C   0  0  0  0  0  0  0  0  0  0  0  0
   -3.0596    0.7004    1.2748 C   0  0  0  0  0  0  0  0  0  0  0  0
   -1.9037    0.0097    0.5445 C   0  0  0  0  0  0  0  0  0  0  0  0
   -1.5276   -1.2917    1.2822 C   0  0  0  0  0  0  0  0  0  0  0  0
   -6.0739    1.3425    1.7689 C   0  0  0  0  0  0  0  0  0  0  0  0
   -4.5197    3.1736    2.4969 C   0  0  0  0  0  0  0  0  0  0  0  0
   -6.0142    3.5123    0.5093 C   0  0  0  0  0  0  0  0  0  0  0  0
   -0.6825    0.9321    0.4811 C   0  0  0  0  0  0  0  0  0  0  0  0
    0.7753    2.1454   -1.1143 C   0  0  0  0  0  0  0  0  0  0  0  0
   -0.7838   -2.2844    0.4209 C   0  0  0  0  0  0  0  0  0  0  0  0
    0.5813    2.9409   -2.4227 C   0  0  0  0  0  0  0  0  0  0  0  0
   -1.4516   -3.2612   -0.3356 C   0  0  0  0  0  0  0  0  0  0  0  0
    2.0571    1.3153   -1.1284 C   0  0  0  0  0  0  0  0  0  0  0  0
    0.5283    2.0484   -3.6671 C   0  0  0  0  0  0  0  0  0  0  0  0
   -0.6761    3.8134   -2.3549 C   0  0  0  0  0  0  0  0  0  0  0  0
    0.6087   -2.1978    0.4016 C   0  0  0  0  0  0  0  0  0  0  0  0
    4.4839    1.4794   -0.5982 C   0  0  0  0  0  0  0  0  0  0  0  0
   -0.6964   -4.1626   -1.1230 C   0  0  0  0  0  0  0  0  0  0  0  0
    5.0066    1.4602    0.8469 C   0  0  0  0  0  0  0  0  0  0  0  0
    1.3512   -3.0841   -0.3729 C   0  0  0  0  0  0  0  0  0  0  0  0
   -2.8524   -3.3631   -0.3282 C   0  0  0  0  0  0  0  0  0  0  0  0
    0.7043   -4.0607   -1.1308 C   0  0  0  0  0  0  0  0  0  0  0  0
    5.4181    2.2914   -1.4971 C   0  0  0  0  0  0  0  0  0  0  0  0
   -1.3640   -5.1393   -1.8797 C   0  0  0  0  0  0  0  0  0  0  0  0
   -3.4990   -4.3398   -1.0859 C   0  0  0  0  0  0  0  0  0  0  0  0
    4.4217    0.3395    1.6735 C   0  0  0  0  0  0  0  0  0  0  0  0
   -2.7563   -5.2264   -1.8602 C   0  0  0  0  0  0  0  0  0  0  0  0
    3.2441    0.5446    2.3927 C   0  0  0  0  0  0  0  0  0  0  0  0
    5.0586   -0.9008    1.7175 C   0  0  0  0  0  0  0  0  0  0  0  0
    2.7036   -0.4903    3.1559 C   0  0  0  0  0  0  0  0  0  0  0  0
    4.5180   -1.9357    2.4808 C   0  0  0  0  0  0  0  0  0  0  0  0
    3.3405   -1.7303    3.2000 C   0  0  0  0  0  0  0  0  0  0  0  0
  1  2  2  0
  1  3  2  0
  1  9  1  0
  1 10  1  0
  4 16  2  0
  5 21  2  0
  6 31  1  0
  7 16  1  0
  7 17  1  0
  8 21  1  0
  8 25  1  0
  9 13  1  0
  9 14  1  0
  9 15  1  0
 10 11  1  0
 11 12  1  0
 11 16  1  0
 12 18  1  0
 17 19  1  0
 17 21  1  0
 18 20  1  0
 18 24  2  0
 19 22  1  0
 19 23  1  0
 20 26  2  0
 20 29  1  0
 24 28  1  0
 25 27  1  0
 25 31  1  0
 26 30  1  0
 26 32  1  0
 27 34  1  0
 28 30  2  0
 29 33  2  0
 32 35  2  0
 33 35  1  0
 34 36  2  0
 34 37  1  0
 36 38  1  0
 37 39  2  0
 38 40  2  0
 39 40  1  0
M  END
>  <PUBCHEM_COMPOUND_CID>  (1) 
3569

>  <PUBCHEM_CONFORMER_RMSD>  (1) 
1.4

>  <PUBCHEM_CONFORMER_DIVERSEORDER>  (1) 
1
90
170
221
295
382
311
200
218
269
244
190
125
132
241
138
367
397
99
384
145
49
267
59
231
357
394
46
256
220
88
395
274
353
227
182
261
222
23
385
140
254
130
355
356
31
389
65
119
294
208
143
364
66
229
312
379
120
280
225
259
205
306
405
202
187
281
404
194
245
338
124
139
255
350
97
38
230
135
249
368
156
87
278
121
238
268
237
71
13
330
188
127
349
373
352
366
51
212
398
89
21
216
337
235
171
196
53
310
288
329
369
181
159
286
370
390
193
189
376
301
243
76
203
179
386
126
303
342
61
129
163
344
300
172
199
304
383
95
232
174
22
101
326
331
17
217
317
150
250
128
403
175
336
328
318
63
396
293
345
359
195
93
283
213
323
45
240
219
2
146
233
348
372
228
73
35
11
197
320
161
144
285
94
248
234
106
206
80
298
325
273
133
77
400
153
173
83
168
260
296
402
191
264
340
291
116
112
180
377
24
176
30
198
123
165
70
81
363
201
115
214
118
184
185
302
58
297
275
388
158
257
86
149
276
142
67
108
265
308
91
263
50
266
186
299
239
262
32
69
183
48
314
57
134
236
72
374
391
335
246
279
210
334
271
192
215
164
15
292
84
380
346
319
360
313
19
387
160
375
393
242
166
324
309
42
78
37
204
54
305
381
147
258
362
25
327
316
131
136
223
44
252
287
68
178
162
60
111
251
347
62
4
113
47
209
224
40
110
169
361
104
56
333
354
401
272
151
105
34
5
321
122
322
29
154
307
141
82
343
41
155
27
109
211
85
277
177
103
3
107
207
392
96
365
399
6
79
341
75
290
247
282
100
52
351
64
157
378
98
270
55
253
289
315
28
371
137
226
332
92
12
284
148
10
14
20
43
358
339
26
36
39
33
152
114
167
102
16
18
117
74
8
9
7

>  <PUBCHEM_MMFF94_PARTIAL_CHARGES>  (1) 
47
1 1.09
10 0.11
11 0.06
12 0.14
16 0.57
17 0.36
18 -0.14
2 -0.65
21 0.57
24 -0.15
25 0.3
27 0.14
28 -0.15
29 -0.15
3 -0.65
30 -0.15
31 0.28
32 -0.15
33 -0.15
34 -0.14
35 -0.15
36 -0.15
37 -0.15
38 -0.15
39 -0.15
4 -0.57
40 -0.15
5 -0.57
56 0.37
6 -0.68
64 0.15
66 0.37
69 0.15
7 -0.73
70 0.15
71 0.15
74 0.15
75 0.15
76 0.15
77 0.15
78 0.15
79 0.4
8 -0.73
80 0.15
81 0.15
82 0.15
9 0.11

>  <PUBCHEM_EFFECTIVE_ROTOR_COUNT>  (1) 
15

>  <PUBCHEM_PHARMACOPHORE_FEATURES>  (1) 
13
1 2 acceptor
1 3 acceptor
1 4 acceptor
1 5 acceptor
1 6 acceptor
1 6 donor
1 7 donor
1 8 donor
3 19 22 23 hydrophobe
4 9 13 14 15 hydrophobe
6 18 20 24 26 28 30 rings
6 20 26 29 32 33 35 rings
6 34 36 37 38 39 40 rings

>  <PUBCHEM_HEAVY_ATOM_COUNT>  (1) 
40

>  <PUBCHEM_ATOM_DEF_STEREO_COUNT>  (1) 
0

>  <PUBCHEM_ATOM_UDEF_STEREO_COUNT>  (1) 
3

>  <PUBCHEM_BOND_DEF_STEREO_COUNT>  (1) 
0

>  <PUBCHEM_BOND_UDEF_STEREO_COUNT>  (1) 
0

>  <PUBCHEM_ISOTOPIC_ATOM_COUNT>  (1) 
0

>  <PUBCHEM_COMPONENT_COUNT>  (1) 
1

>  <PUBCHEM_CACTVS_TAUTO_COUNT>  (1) 
4

>  <PUBCHEM_CONFORMER_ID>  (1) 
00000DF100000001

>  <PUBCHEM_MMFF94_ENERGY>  (1) 
97.0786

>  <PUBCHEM_FEATURE_SELFOVERLAP>  (1) 
66.019

>  <PUBCHEM_SHAPE_FINGERPRINT>  (1) 
10032420 55 15741062389855644287
12422481 6 18043243540165609025
12608794 3 18122323714775190806
12788726 201 18123471854212414011
13692114 37 18272359868273350819
14068700 675 17834949051048866246
14294032 229 18199765776975048187
14840074 17 18187359883471447408
14918310 93 17824840940080785878
15420108 30 18409451388269748628
15790856 291 17203032007389610513
15815584 197 17025190395512527393
17818456 19 18196639912139707307
1979834 28 18193567662219724225
20775438 99 16605154722940542885
244849 19 16988566853002276522
4017518 198 18269579185680201150
581034 39 18342729685849499417

>  <PUBCHEM_SHAPE_MULTIPOLES>  (1) 
787.72
11.44
7.21
3.35
0.8
9.19
-0.11
-10.24
6.24
7.67
-5.19
-2.91
-1.47
-5.81

>  <PUBCHEM_SHAPE_SELFOVERLAP>  (1) 
1635.883

>  <PUBCHEM_SHAPE_VOLUME>  (1) 
451.4

>  <PUBCHEM_COORDINATE_TYPE>  (1) 
2
5
10

$$$$
