357
     RDKit          3D

 10 10  0  0  1  0  0  0  0  0999 V2000
   -1.7093    1.6583   -1.3327 Cl  0  0  0  0  0  0  0  0  0  0  0  0
    1.7091   -1.6588   -1.3326 Cl  0  0  0  0  0  0  0  0  0  0  0  0
   -3.0011   -0.9376    0.4891 Cl  0  0  0  0  0  0  0  0  0  0  0  0
    3.0013    0.9379    0.4892 Cl  0  0  0  0  0  0  0  0  0  0  0  0
   -1.0851    1.0231    0.2200 C   0  0  0  0  0  0  0  0  0  0  0  0
    1.0850   -1.0232    0.2200 C   0  0  0  0  0  0  0  0  0  0  0  0
   -1.3485   -0.4552    0.3108 C   0  0  0  0  0  0  0  0  0  0  0  0
    1.3485    0.4553    0.3101 C   0  0  0  0  0  0  0  0  0  0  0  0
    0.3747    1.3788    0.3128 C   0  0  0  0  0  0  0  0  0  0  0  0
   -0.3746   -1.3786    0.3133 C   0  0  0  0  0  0  0  0  0  0  0  0
  1  5  1  0
  2  6  1  0
  3  7  1  0
  4  8  1  0
  5  7  1  0
  5  9  1  0
  6  8  1  0
  6 10  1  0
  7 10  2  0
  8  9  2  0
M  END
>  <PUBCHEM_COMPOUND_CID>  (1) 
357

>  <PUBCHEM_CONFORMER_RMSD>  (1) 
0.4

>  <PUBCHEM_CONFORMER_DIVERSEORDER>  (1) 
1
2
3

>  <PUBCHEM_MMFF94_PARTIAL_CHARGES>  (1) 
10
1 -0.29
10 -0.29
13 0.15
14 0.15
2 -0.29
3 -0.14
4 -0.14
5 0.57
6 0.57
9 -0.29

>  <PUBCHEM_EFFECTIVE_ROTOR_COUNT>  (1) 
0.4

>  <PUBCHEM_PHARMACOPHORE_FEATURES>  (1) 
1
6 5 6 7 8 9 10 rings

>  <PUBCHEM_HEAVY_ATOM_COUNT>  (1) 
10

>  <PUBCHEM_ATOM_DEF_STEREO_COUNT>  (1) 
0

>  <PUBCHEM_ATOM_UDEF_STEREO_COUNT>  (1) 
2

>  <PUBCHEM_BOND_DEF_STEREO_COUNT>  (1) 
0

>  <PUBCHEM_BOND_UDEF_STEREO_COUNT>  (1) 
0

>  <PUBCHEM_ISOTOPIC_ATOM_COUNT>  (1) 
0

>  <PUBCHEM_COMPONENT_COUNT>  (1) 
1

>  <PUBCHEM_CACTVS_TAUTO_COUNT>  (1) 
1

>  <PUBCHEM_CONFORMER_ID>  (1) 
0000016500000001

>  <PUBCHEM_MMFF94_ENERGY>  (1) 
1.74

>  <PUBCHEM_FEATURE_SELFOVERLAP>  (1) 
5.074

>  <PUBCHEM_SHAPE_FINGERPRINT>  (1) 
12138202 97 18042946736323758549
12423570 1 16158491382266676566
13380535 239 18411422782421626677
13380536 53 18335708302993667079
14761567 1 17759809143402623783
15219456 202 18342176631215858742
161256 15 18339655468106857875
16945 1 18267024031951618209
18185500 45 15388376464662000962
18380122 1 18410576218545014179
20588541 1 18267311000228657627
20711978 78 17775291534031352815
21040471 1 17754731628838793005
21922407 69 15069209786763798009
23235685 24 18200029671885348192
23552423 10 18262530186342942730
241688 4 18194137238700664584
2748010 2 18338798905472319493
5084963 1 18115325366224151030
68250623 7 17343814532502881281

>  <PUBCHEM_SHAPE_MULTIPOLES>  (1) 
213.27
3.75
2
1.1
0
0
0.46
0
-0.31
0
0.49
0
0
1.11

>  <PUBCHEM_SHAPE_SELFOVERLAP>  (1) 
395.679

>  <PUBCHEM_SHAPE_VOLUME>  (1) 
131.2

>  <PUBCHEM_COORDINATE_TYPE>  (1) 
2
5
10

$$$$
