35702
     RDKit          3D

 17 20  0  0  0  0  0  0  0  0999 V2000
    0.6495   -0.4047    0.0004 C   0  0  0  0  0  0  0  0  0  0  0  0
    0.1805    0.9015    0.0007 C   0  0  0  0  0  0  0  0  0  0  0  0
   -0.4125   -1.2985    0.0004 C   0  0  0  0  0  0  0  0  0  0  0  0
   -1.2751    0.8517    0.0006 C   0  0  0  0  0  0  0  0  0  0  0  0
   -1.6458   -0.5241    0.0002 C   0  0  0  0  0  0  0  0  0  0  0  0
    1.9946   -0.7673   -0.0001 C   0  0  0  0  0  0  0  0  0  0  0  0
    1.0894    1.9430    0.0002 C   0  0  0  0  0  0  0  0  0  0  0  0
    2.4612    1.6334   -0.0002 C   0  0  0  0  0  0  0  0  0  0  0  0
    2.9172    0.2972   -0.0003 C   0  0  0  0  0  0  0  0  0  0  0  0
   -0.1501   -2.6556    0.0003 C   0  0  0  0  0  0  0  0  0  0  0  0
    2.2572   -2.1511   -0.0004 C   0  0  0  0  0  0  0  0  0  0  0  0
   -2.2308    1.8496    0.0004 C   0  0  0  0  0  0  0  0  0  0  0  0
   -2.9734   -0.9070   -0.0003 C   0  0  0  0  0  0  0  0  0  0  0  0
    1.1915   -3.0770   -0.0001 C   0  0  0  0  0  0  0  0  0  0  0  0
   -3.5740    1.4624   -0.0005 C   0  0  0  0  0  0  0  0  0  0  0  0
   -3.9403    0.1023   -0.0008 C   0  0  0  0  0  0  0  0  0  0  0  0
    3.4607    2.7442   -0.0005 C   0  0  0  0  0  0  0  0  0  0  0  0
  1  2  1  0
  1  3  2  0
  1  6  1  0
  2  4  1  0
  2  7  2  0
  3  5  1  0
  3 10  1  0
  4  5  2  0
  4 12  1  0
  5 13  1  0
  6  9  1  0
  6 11  2  0
  7  8  1  0
  8  9  2  0
  8 17  1  0
 10 14  2  0
 11 14  1  0
 12 15  2  0
 13 16  2  0
 15 16  1  0
M  END
>  <PUBCHEM_COMPOUND_CID>  (1) 
35702

>  <PUBCHEM_CONFORMER_RMSD>  (1) 
0.4

>  <PUBCHEM_CONFORMER_DIVERSEORDER>  (1) 
1

>  <PUBCHEM_MMFF94_PARTIAL_CHARGES>  (1) 
20
10 -0.15
11 -0.15
12 -0.15
13 -0.15
14 -0.15
15 -0.15
16 -0.15
17 0.14
18 0.15
19 0.15
20 0.15
21 0.15
22 0.15
23 0.15
24 0.15
25 0.15
26 0.15
7 -0.15
8 -0.14
9 -0.15

>  <PUBCHEM_EFFECTIVE_ROTOR_COUNT>  (1) 
0

>  <PUBCHEM_PHARMACOPHORE_FEATURES>  (1) 
4
5 1 2 3 4 5 rings
6 1 2 6 7 8 9 rings
6 1 3 6 10 11 14 rings
6 4 5 12 13 15 16 rings

>  <PUBCHEM_HEAVY_ATOM_COUNT>  (1) 
17

>  <PUBCHEM_ATOM_DEF_STEREO_COUNT>  (1) 
0

>  <PUBCHEM_ATOM_UDEF_STEREO_COUNT>  (1) 
0

>  <PUBCHEM_BOND_DEF_STEREO_COUNT>  (1) 
0

>  <PUBCHEM_BOND_UDEF_STEREO_COUNT>  (1) 
0

>  <PUBCHEM_ISOTOPIC_ATOM_COUNT>  (1) 
0

>  <PUBCHEM_COMPONENT_COUNT>  (1) 
1

>  <PUBCHEM_CACTVS_TAUTO_COUNT>  (1) 
1

>  <PUBCHEM_CONFORMER_ID>  (1) 
00008B7600000001

>  <PUBCHEM_MMFF94_ENERGY>  (1) 
72.7351

>  <PUBCHEM_FEATURE_SELFOVERLAP>  (1) 
20.603

>  <PUBCHEM_SHAPE_FINGERPRINT>  (1) 
10319926 262 17623551457311549744
10411042 1 17618222802275484999
10608611 8 18335699378326289949
10967382 1 18410575080510568901
10980938 120 18410575063193523721
11471102 20 18338230441181816933
11578080 2 16807279195051319686
11680986 33 18336273408994654674
12173636 292 18122342655744392636
12553582 1 17690282603646644987
13140716 1 18409731725006318465
13380535 76 18337669836064313266
13583140 156 16734647883445278249
138480 1 18122343476241108930
13897977 150 18409446955974223317
14178342 30 18196640805223425273
14223421 5 18408046199777743491
14648413 74 18264772069113837577
14790565 3 18337686311681167500
15042514 8 17760086620102476570
15196674 1 18410575123434036997
15309172 13 18338807826325362241
15442244 35 18052258388767406633
15475509 35 16807311107143613161
15475509 8 16765378898687304733
15536298 74 18272088262313386582
16945 1 18410855464502477731
18186145 218 18343591719718530197
193761 8 18410856594105484195
19591789 44 18338803415473102782
20510252 161 17982458392522225433
20645477 70 18336257947681730991
21267235 1 18195817267104771287
21501502 16 18411980222343444137
21524375 3 18271524311811920396
221490 88 18337118873486421651
2255824 54 18339364058928774934
2334 1 18410855468728691361
23366157 5 18113621149324297346
23419403 2 17389352980248145638
23463225 33 18265613173923668131
23559900 14 18267858398073637179
238 59 17757511267390745613
25 1 18409167701216003916
2748010 2 18408890637144293501
3071541 12 18339365158281971692
3091708 16 9260526167077274466
335352 9 17978228253784253725
33824 294 18409165532642712723
34934 24 17832979447444922915
350125 39 18409733945472956452
352729 6 17977387457779590220
43471831 8 18336542823655588939
458136 41 18338537299040895449
5104073 3 18336550430702034457
5939293 188 18122620557228736570
6138700 20 18338805503650174190
633830 44 18273221901910065781
7364860 26 18340205185160330798
7832392 63 17908423559003164137
81228 2 17188398907456274059
8272917 22 18341055116760808269
84936 182 18201998828475907552
9709674 26 18337956693020609331

>  <PUBCHEM_SHAPE_MULTIPOLES>  (1) 
349.85
5.64
3.31
0.62
2.76
1.07
0
-2.95
0
-2.31
0
0
0
0

>  <PUBCHEM_SHAPE_SELFOVERLAP>  (1) 
812.226

>  <PUBCHEM_SHAPE_VOLUME>  (1) 
169.1

>  <PUBCHEM_COORDINATE_TYPE>  (1) 
2
5
10

$$$$
