35700
     RDKit          3D

 14 16  0  0  0  0  0  0  0  0999 V2000
    0.6047   -2.1822    0.0004 S   0  0  0  0  0  0  0  0  0  0  0  0
   -0.4702    0.1601    0.0004 C   0  0  0  0  0  0  0  0  0  0  0  0
    0.9660    0.3695    0.0003 C   0  0  0  0  0  0  0  0  0  0  0  0
   -0.7990   -1.1962    0.0004 C   0  0  0  0  0  0  0  0  0  0  0  0
    1.6683   -0.8366   -0.0001 C   0  0  0  0  0  0  0  0  0  0  0  0
   -1.5361    1.0977    0.0003 C   0  0  0  0  0  0  0  0  0  0  0  0
   -2.8658    0.6684   -0.0002 C   0  0  0  0  0  0  0  0  0  0  0  0
   -2.1387   -1.6343    0.0001 C   0  0  0  0  0  0  0  0  0  0  0  0
    1.7199    1.5723    0.0006 C   0  0  0  0  0  0  0  0  0  0  0  0
   -3.1620   -0.6858   -0.0004 C   0  0  0  0  0  0  0  0  0  0  0  0
    3.0774   -0.8740   -0.0008 C   0  0  0  0  0  0  0  0  0  0  0  0
    3.1169    1.5405    0.0001 C   0  0  0  0  0  0  0  0  0  0  0  0
    3.7873    0.3274   -0.0006 C   0  0  0  0  0  0  0  0  0  0  0  0
   -3.9687    1.6732   -0.0005 C   0  0  0  0  0  0  0  0  0  0  0  0
  1  4  1  0
  1  5  1  0
  2  3  1  0
  2  4  2  0
  2  6  1  0
  3  5  2  0
  3  9  1  0
  4  8  1  0
  5 11  1  0
  6  7  2  0
  7 10  1  0
  7 14  1  0
  8 10  2  0
  9 12  2  0
 11 13  2  0
 12 13  1  0
M  END
>  <PUBCHEM_COMPOUND_CID>  (1) 
35700

>  <PUBCHEM_CONFORMER_RMSD>  (1) 
0.4

>  <PUBCHEM_CONFORMER_DIVERSEORDER>  (1) 
1

>  <PUBCHEM_MMFF94_PARTIAL_CHARGES>  (1) 
19
1 -0.08
10 -0.15
11 -0.15
12 -0.15
13 -0.15
14 0.14
15 0.15
16 0.15
17 0.15
18 0.15
19 0.15
20 0.15
21 0.15
4 0.04
5 0.04
6 -0.15
7 -0.14
8 -0.15
9 -0.15

>  <PUBCHEM_EFFECTIVE_ROTOR_COUNT>  (1) 
0

>  <PUBCHEM_PHARMACOPHORE_FEATURES>  (1) 
3
5 1 2 3 4 5 rings
6 2 4 6 7 8 10 rings
6 3 5 9 11 12 13 rings

>  <PUBCHEM_HEAVY_ATOM_COUNT>  (1) 
14

>  <PUBCHEM_ATOM_DEF_STEREO_COUNT>  (1) 
0

>  <PUBCHEM_ATOM_UDEF_STEREO_COUNT>  (1) 
0

>  <PUBCHEM_BOND_DEF_STEREO_COUNT>  (1) 
0

>  <PUBCHEM_BOND_UDEF_STEREO_COUNT>  (1) 
0

>  <PUBCHEM_ISOTOPIC_ATOM_COUNT>  (1) 
0

>  <PUBCHEM_COMPONENT_COUNT>  (1) 
1

>  <PUBCHEM_CACTVS_TAUTO_COUNT>  (1) 
1

>  <PUBCHEM_CONFORMER_ID>  (1) 
00008B7400000001

>  <PUBCHEM_MMFF94_ENERGY>  (1) 
35.7176

>  <PUBCHEM_FEATURE_SELFOVERLAP>  (1) 
15.339

>  <PUBCHEM_SHAPE_FINGERPRINT>  (1) 
10062212 137 18339630183513281515
10608611 8 18411416245455353008
10967382 1 18338517417626531204
10980938 120 18336546014794995914
11132069 177 18411131437689301416
11471102 20 18339075982423715653
11543360 7 15697706099393766025
12491281 212 18409456889943461313
12932764 1 17488741314768315250
13140716 1 18409444782541391328
13380535 21 18410019818559273867
13380535 76 18410572872908246575
13571099 22 18131073693049454878
13897977 150 18410290289945686893
14144814 61 18409729577570000048
14325111 11 18410855485956124256
14897335 6 18411696561085922599
15196674 1 18410575093490422822
15219456 202 18411986853409134223
15309172 13 18411990160570908099
15442244 35 18267021652845801762
15536298 74 18343019986968237302
15775835 57 18335424551536661420
16945 1 18338517417642550343
18186145 218 18201731651566169776
200 152 18059847390126801303
20510252 161 18270967976092337049
20645477 70 18271242703617760703
21267235 1 18410582807035778886
21501502 16 18410007758169819902
21524375 3 18409726270424316863
2334 1 18338799038626868160
23402539 116 18272360980200089940
23402655 69 18343298141560987373
23463225 33 18335417954841428170
23559900 14 18273214188913160072
25 1 18337390443972648375
2748010 2 18410859901161347222
335352 9 18266458698470864854
474 4 17024596826842572492
5104073 3 18410011039535215618
528886 8 18411132532974436274
53812653 166 18412259519523816064
6333449 129 18410571816514765607
69090 78 18413102866628237727
7364860 26 18269274552071316702
9709674 26 18412549837680537790

>  <PUBCHEM_SHAPE_MULTIPOLES>  (1) 
291.96
6.43
2.12
0.62
0.65
0.34
0
-2.44
0
0.23
0
0
0.01
0

>  <PUBCHEM_SHAPE_SELFOVERLAP>  (1) 
640.818

>  <PUBCHEM_SHAPE_VOLUME>  (1) 
159.7

>  <PUBCHEM_COORDINATE_TYPE>  (1) 
2
5
10

$$$$
