3571
     RDKit          3D

 31 33  0  0  1  0  0  0  0  0999 V2000
   -0.5114   -2.7375   -1.5694 O   0  0  0  0  0  0  0  0  0  0  0  0
    8.4751    1.1365    0.0471 O   0  0  0  0  0  0  0  0  0  0  0  0
   -3.9832   -0.4338   -1.1030 O   0  0  0  0  0  0  0  0  0  0  0  0
    0.3567    1.9328    0.5437 O   0  0  0  0  0  0  0  0  0  0  0  0
    6.5060    0.1591    1.8121 O   0  0  0  0  0  0  0  0  0  0  0  0
   -2.9511    3.4982    1.2018 O   0  0  0  0  0  0  0  0  0  0  0  0
   -2.2484   -2.2937   -0.1344 N   0  0  0  0  0  0  0  0  0  0  0  0
   -0.7800    0.3881   -0.7687 N   0  0  0  0  0  0  0  0  0  0  0  0
   -4.1155    0.6459    0.9474 N   0  0  0  0  0  0  0  0  0  0  0  0
   -2.6544    2.4546   -0.8556 N   0  0  0  0  0  0  0  0  0  0  0  0
   -3.0076   -1.5074    0.8410 C   0  0  0  0  0  0  0  0  0  0  0  0
   -4.0003   -2.5061    1.4333 C   0  0  0  0  0  0  0  0  0  0  0  0
   -2.9490   -3.5343   -0.4523 C   0  0  0  0  0  0  0  0  0  0  0  0
   -4.2882   -3.4425    0.2637 C   0  0  0  0  0  0  0  0  0  0  0  0
   -0.2313   -0.8127   -0.1542 C   0  0  0  0  0  0  0  0  0  0  0  0
   -0.9994   -2.0300   -0.6813 C   0  0  0  0  0  0  0  0  0  0  0  0
    1.2607   -0.9519   -0.4656 C   0  0  0  0  0  0  0  0  0  0  0  0
   -3.7468   -0.3938    0.1033 C   0  0  0  0  0  0  0  0  0  0  0  0
    1.8521   -2.1810    0.2160 C   0  0  0  0  0  0  0  0  0  0  0  0
    3.3364   -2.3341   -0.1223 C   0  0  0  0  0  0  0  0  0  0  0  0
    4.1449   -1.1309    0.3714 C   0  0  0  0  0  0  0  0  0  0  0  0
   -4.6206    1.9183    0.4411 C   0  0  0  0  0  0  0  0  0  0  0  0
    5.6358   -1.2663    0.0746 C   0  0  0  0  0  0  0  0  0  0  0  0
    7.1710    0.7227   -0.3804 C   0  0  0  0  0  0  0  0  0  0  0  0
   -0.4806    1.6688   -0.3192 C   0  0  0  0  0  0  0  0  0  0  0  0
   -1.2497    2.7838   -1.0248 C   0  0  0  0  0  0  0  0  0  0  0  0
    6.4362   -0.1062    0.6177 C   0  0  0  0  0  0  0  0  0  0  0  0
    7.4880    2.1645   -0.1079 C   0  0  0  0  0  0  0  0  0  0  0  0
   -3.3538    2.7546    0.3098 C   0  0  0  0  0  0  0  0  0  0  0  0
   -5.6215    2.5304    1.4062 C   0  0  0  0  0  0  0  0  0  0  0  0
   -0.8702    2.9035   -2.4913 C   0  0  0  0  0  0  0  0  0  0  0  0
  1 16  2  0
  2 24  1  0
  2 28  1  0
  3 18  2  0
  4 25  2  0
  5 27  2  0
  6 29  2  0
  7 11  1  0
  7 13  1  0
  7 16  1  0
  8 15  1  0
  8 25  1  0
  9 18  1  0
  9 22  1  0
 10 26  1  0
 10 29  1  0
 11 12  1  0
 11 18  1  0
 12 14  1  0
 13 14  1  0
 15 16  1  0
 15 17  1  0
 17 19  1  0
 19 20  1  0
 20 21  1  0
 21 23  1  0
 22 29  1  0
 22 30  1  0
 23 27  1  0
 24 27  1  0
 24 28  1  0
 25 26  1  0
 26 31  1  0
M  END
>  <PUBCHEM_COMPOUND_CID>  (1) 
3571

>  <PUBCHEM_CONFORMER_RMSD>  (1) 
1.6

>  <PUBCHEM_CONFORMER_DIVERSEORDER>  (1) 
2
39
70
3
62
11
35
55
58
44
34
9
64
37
59
18
26
42
46
69
41
60
24
22
45
15
65
13
63
28
32
25
38
7
36
76
19
80
75
27
51
74
56
20
4
49
72
78
17
68
33
53
14
54
23
16
79
29
67
21
30
8
47
12
61
52
1
77
73
31
40
6
5
57
50
66
43
71
48
10

>  <PUBCHEM_MMFF94_PARTIAL_CHARGES>  (1) 
29
1 -0.57
10 -0.73
11 0.36
13 0.3
15 0.36
16 0.57
18 0.57
2 -0.3
22 0.36
23 0.06
24 0.05
25 0.57
26 0.36
27 0.51
28 -0.05
29 0.57
3 -0.57
4 -0.57
46 0.37
49 0.37
5 -0.57
53 0.1
55 0.1
56 0.1
57 0.37
6 -0.57
7 -0.66
8 -0.73
9 -0.73

>  <PUBCHEM_EFFECTIVE_ROTOR_COUNT>  (1) 
9.4

>  <PUBCHEM_PHARMACOPHORE_FEATURES>  (1) 
11
1 1 acceptor
1 10 donor
1 2 acceptor
1 3 acceptor
1 4 acceptor
1 5 acceptor
1 6 acceptor
1 8 donor
1 9 donor
5 17 19 20 21 23 hydrophobe
5 7 11 12 13 14 rings

>  <PUBCHEM_HEAVY_ATOM_COUNT>  (1) 
31

>  <PUBCHEM_ATOM_DEF_STEREO_COUNT>  (1) 
0

>  <PUBCHEM_ATOM_UDEF_STEREO_COUNT>  (1) 
5

>  <PUBCHEM_BOND_DEF_STEREO_COUNT>  (1) 
0

>  <PUBCHEM_BOND_UDEF_STEREO_COUNT>  (1) 
0

>  <PUBCHEM_ISOTOPIC_ATOM_COUNT>  (1) 
0

>  <PUBCHEM_COMPONENT_COUNT>  (1) 
1

>  <PUBCHEM_CACTVS_TAUTO_COUNT>  (1) 
24

>  <PUBCHEM_CONFORMER_ID>  (1) 
00000DF300000002

>  <PUBCHEM_MMFF94_ENERGY>  (1) 
74.8494

>  <PUBCHEM_FEATURE_SELFOVERLAP>  (1) 
55.833

>  <PUBCHEM_SHAPE_FINGERPRINT>  (1) 
10087517 78 18335137626742649130
10411042 1 18052536874864494159
12422481 6 18410860966798513796
12596602 18 17313655032571425194
13111901 25 18188500180926759828
13140716 1 18338809996011794947
13757389 114 18128818728009280406
14395042 24 18262815055414527499
14415360 78 18121207689494585997
14765038 42 18129109926706968401
14790565 3 17980767038769958712
15338160 23 18411138043417457460
16110190 28 18408046199535319196
18393751 57 18265341599585144475
19377110 9 17821442461767591170
21302155 148 18411141303746119052
21304303 282 13119378717028789135
22956985 138 16961556460834928203
2747138 104 18190471639455707066
469060 322 17240762865730691662
5104073 3 18336256844044656098
550186 72 18334573555945676108

>  <PUBCHEM_SHAPE_MULTIPOLES>  (1) 
582.83
17.18
4.84
1.36
44.75
0.19
-0.27
6.11
5.97
-6.43
-0.52
-0.74
0.68
-0.61

>  <PUBCHEM_SHAPE_SELFOVERLAP>  (1) 
1191.299

>  <PUBCHEM_SHAPE_VOLUME>  (1) 
333.1

>  <PUBCHEM_COORDINATE_TYPE>  (1) 
2
5
10

$$$$
