35728
     RDKit          3D

 12 11  0  0  1  0  0  0  0  0999 V2000
    1.1704    2.0806    0.9261 O   0  0  0  0  0  0  0  0  0  0  0  0
    1.1792    1.6322   -1.3050 O   0  0  0  0  0  0  0  0  0  0  0  0
    0.9062   -0.1885    0.2980 C   0  0  0  0  0  0  0  0  0  0  0  0
   -0.4163   -0.7560   -0.2466 C   0  0  0  0  0  0  0  0  0  0  0  0
   -1.6427   -0.0041    0.2868 C   0  0  0  0  0  0  0  0  0  0  0  0
    2.1398   -0.9764   -0.1790 C   0  0  0  0  0  0  0  0  0  0  0  0
   -2.9420   -0.6352   -0.2182 C   0  0  0  0  0  0  0  0  0  0  0  0
    3.4844   -0.5376    0.4081 C   0  0  0  0  0  0  0  0  0  0  0  0
   -4.1662    0.0846    0.3471 C   0  0  0  0  0  0  0  0  0  0  0  0
    1.0893    1.2525   -0.1460 C   0  0  0  0  0  0  0  0  0  0  0  0
    4.6573   -1.3923   -0.0453 C   0  0  0  0  0  0  0  0  0  0  0  0
   -5.4593   -0.5597   -0.1261 C   0  0  0  0  0  0  0  0  0  0  0  0
  1 10  1  0
  2 10  2  0
  3  4  1  0
  3  6  1  0
  3 10  1  0
  4  5  1  0
  5  7  1  0
  6  8  1  0
  7  9  1  0
  8 11  1  0
  9 12  1  0
M  END
>  <PUBCHEM_COMPOUND_CID>  (1) 
35728

>  <PUBCHEM_CONFORMER_RMSD>  (1) 
0.8

>  <PUBCHEM_CONFORMER_DIVERSEORDER>  (1) 
1
25
69
62
39
12
72
79
81
24
36
50
22
75
57
68
43
83
20
66
26
71
48
41
59
82
38
47
3
6
34
74
58
63
30
42
78
29
11
33
21
64
10
35
45
80
49
56
9
8
67
70
5
55
7
16
14
37
18
51
52
84
61
65
76
73
46
44
40
4
54
2
77
13
27
60
15
53
31
23
17
19
28
32

>  <PUBCHEM_MMFF94_PARTIAL_CHARGES>  (1) 
5
1 -0.65
10 0.66
2 -0.57
3 0.06
32 0.5

>  <PUBCHEM_EFFECTIVE_ROTOR_COUNT>  (1) 
7

>  <PUBCHEM_PHARMACOPHORE_FEATURES>  (1) 
5
1 1 acceptor
1 11 hydrophobe
1 12 hydrophobe
1 2 acceptor
3 1 2 10 anion

>  <PUBCHEM_HEAVY_ATOM_COUNT>  (1) 
12

>  <PUBCHEM_ATOM_DEF_STEREO_COUNT>  (1) 
0

>  <PUBCHEM_ATOM_UDEF_STEREO_COUNT>  (1) 
1

>  <PUBCHEM_BOND_DEF_STEREO_COUNT>  (1) 
0

>  <PUBCHEM_BOND_UDEF_STEREO_COUNT>  (1) 
0

>  <PUBCHEM_ISOTOPIC_ATOM_COUNT>  (1) 
0

>  <PUBCHEM_COMPONENT_COUNT>  (1) 
1

>  <PUBCHEM_CACTVS_TAUTO_COUNT>  (1) 
1

>  <PUBCHEM_CONFORMER_ID>  (1) 
00008B9000000001

>  <PUBCHEM_MMFF94_ENERGY>  (1) 
3.6036

>  <PUBCHEM_FEATURE_SELFOVERLAP>  (1) 
25.429

>  <PUBCHEM_SHAPE_FINGERPRINT>  (1) 
10219947 1 18273215287802613910
10922049 32 9583511032304723584
12932764 1 15213568070553044835
13690532 89 18411981343003211619
13922767 16 18413106169368307091
14252887 29 18130512937803748926
15242439 84 17603583033037971299
17802600 8 18412259528578201521
18186145 218 17895183442335526339
187816 3 17458350702335438026
20279233 1 13614243715598147423
20339313 130 18113623403797129485
20645477 70 18335421292036662231
20671657 1 18263650734868318757
20871998 22 18200600168376097798
23402539 116 15195276500571147003
23532345 12 18131915953458462137
23557571 272 15123242009004133635
3248919 1 15984557710008606971
3250762 1 17245573405185347314
42 15 18202565073022256467
4990 188 12901549013851830802
68521 5 18264773164557682604

>  <PUBCHEM_SHAPE_MULTIPOLES>  (1) 
235.22
9.44
1.56
0.82
7.72
0.84
0.08
-4.37
-0.32
-1.32
0.03
-0.17
0.26
-0.13

>  <PUBCHEM_SHAPE_SELFOVERLAP>  (1) 
429.692

>  <PUBCHEM_SHAPE_VOLUME>  (1) 
150.2

>  <PUBCHEM_COORDINATE_TYPE>  (1) 
2
5
10

$$$$
