3572
     RDKit          3D

 20 19  0  0  0  0  0  0  0  0999 V2000
    8.7704    0.2963   -0.0948 S   0  0  0  0  0  0  0  0  0  0  0  0
    9.9407   -0.6854   -0.5308 F   0  0  0  0  0  0  0  0  0  0  0  0
    8.7106    1.3069   -1.1337 O   0  0  0  0  0  0  0  0  0  0  0  0
    9.0530    0.6404    1.2858 O   0  0  0  0  0  0  0  0  0  0  0  0
   -1.6351    0.2397    0.2171 C   0  0  0  0  0  0  0  0  0  0  0  0
   -0.3654   -0.6109    0.1051 C   0  0  0  0  0  0  0  0  0  0  0  0
   -2.9569   -0.5059    0.0076 C   0  0  0  0  0  0  0  0  0  0  0  0
    0.9234    0.2045    0.2356 C   0  0  0  0  0  0  0  0  0  0  0  0
   -4.1923    0.3806    0.1858 C   0  0  0  0  0  0  0  0  0  0  0  0
    2.1922   -0.6387    0.0655 C   0  0  0  0  0  0  0  0  0  0  0  0
   -5.4796   -0.4158   -0.0441 C   0  0  0  0  0  0  0  0  0  0  0  0
    3.4807    0.1733    0.2219 C   0  0  0  0  0  0  0  0  0  0  0  0
   -6.7527    0.4251    0.0996 C   0  0  0  0  0  0  0  0  0  0  0  0
    4.7494   -0.6559   -0.0068 C   0  0  0  0  0  0  0  0  0  0  0  0
   -8.0383   -0.3795   -0.1098 C   0  0  0  0  0  0  0  0  0  0  0  0
    6.0354    0.1723    0.0733 C   0  0  0  0  0  0  0  0  0  0  0  0
   -9.3081    0.4750   -0.0370 C   0  0  0  0  0  0  0  0  0  0  0  0
    7.2903   -0.6618   -0.1493 C   0  0  0  0  0  0  0  0  0  0  0  0
  -10.5930   -0.3196   -0.2744 C   0  0  0  0  0  0  0  0  0  0  0  0
  -11.8249    0.5593   -0.1167 C   0  0  0  0  0  0  0  0  0  0  0  0
  1  2  1  0
  1  3  2  0
  1  4  2  0
  1 18  1  0
  5  6  1  0
  5  7  1  0
  6  8  1  0
  7  9  1  0
  8 10  1  0
  9 11  1  0
 10 12  1  0
 11 13  1  0
 12 14  1  0
 13 15  1  0
 14 16  1  0
 15 17  1  0
 16 18  1  0
 17 19  1  0
 19 20  1  0
M  END
>  <PUBCHEM_COMPOUND_CID>  (1) 
3572

>  <PUBCHEM_CONFORMER_RMSD>  (1) 
1.6

>  <PUBCHEM_CONFORMER_DIVERSEORDER>  (1) 
1
34
21
25
2
27
14
17
20
40
3
10
41
24
12
28
42
16
19
6
26
11
35
15
37
33
30
18
44
23
31
36
13
7
22
39
43
9
38
4
8
29
5
32

>  <PUBCHEM_MMFF94_PARTIAL_CHARGES>  (1) 
5
1 1.39
18 0.11
2 -0.2
3 -0.65
4 -0.65

>  <PUBCHEM_EFFECTIVE_ROTOR_COUNT>  (1) 
15

>  <PUBCHEM_PHARMACOPHORE_FEATURES>  (1) 
1
1 20 hydrophobe

>  <PUBCHEM_HEAVY_ATOM_COUNT>  (1) 
20

>  <PUBCHEM_ATOM_DEF_STEREO_COUNT>  (1) 
0

>  <PUBCHEM_ATOM_UDEF_STEREO_COUNT>  (1) 
0

>  <PUBCHEM_BOND_DEF_STEREO_COUNT>  (1) 
0

>  <PUBCHEM_BOND_UDEF_STEREO_COUNT>  (1) 
0

>  <PUBCHEM_ISOTOPIC_ATOM_COUNT>  (1) 
0

>  <PUBCHEM_COMPONENT_COUNT>  (1) 
1

>  <PUBCHEM_CACTVS_TAUTO_COUNT>  (1) 
1

>  <PUBCHEM_CONFORMER_ID>  (1) 
00000DF400000001

>  <PUBCHEM_MMFF94_ENERGY>  (1) 
-2.0707

>  <PUBCHEM_FEATURE_SELFOVERLAP>  (1) 
5.074

>  <PUBCHEM_SHAPE_FINGERPRINT>  (1) 
12498461 61 8430301452517877877
14251764 46 15985385586408525007
14251920 1 18410855451538233698
14344974 52 18130502029024108459
15061470 23 18259982669979297557
15510794 2 18272938219304528975
155225 1 18040999552754815372
20812841 46 16515684468813310988
21362267 2 17968648431946862140
21362267 313 17823689776796649528
22224240 67 16298386877397632738
232437 2 10879992458788571949
23521765 1 18342176665391084794
23581129 1 18409448085244615011
246663 6 14405187270114493930
33684 2 18410855460133443051
59521270 166 14333411118281693697
67123 10 18407760339718525303
8209 1 18342457040924719947

>  <PUBCHEM_SHAPE_MULTIPOLES>  (1) 
396.43
47.51
0.88
0.74
29.45
0.04
-0.01
6.39
4.58
-0.64
0.06
-0.99
0.1
-0.11

>  <PUBCHEM_SHAPE_SELFOVERLAP>  (1) 
710.474

>  <PUBCHEM_SHAPE_VOLUME>  (1) 
254.4

>  <PUBCHEM_COORDINATE_TYPE>  (1) 
2
5
10

$$$$
