35727
     RDKit          3D

 12 11  0  0  1  0  0  0  0  0999 V2000
    0.4702   -1.4879   -1.4343 O   0  0  0  0  0  0  0  0  0  0  0  0
    0.5515   -2.1789    0.7128 O   0  0  0  0  0  0  0  0  0  0  0  0
    0.4129    0.2301    0.2852 C   0  0  0  0  0  0  0  0  0  0  0  0
   -0.8850    0.8813   -0.2706 C   0  0  0  0  0  0  0  0  0  0  0  0
    1.6807    0.9202   -0.3004 C   0  0  0  0  0  0  0  0  0  0  0  0
   -2.1903    0.2051    0.1779 C   0  0  0  0  0  0  0  0  0  0  0  0
    0.4256    0.3329    1.8258 C   0  0  0  0  0  0  0  0  0  0  0  0
    3.0272    0.3444    0.1532 C   0  0  0  0  0  0  0  0  0  0  0  0
    0.4908   -1.2598   -0.0961 C   0  0  0  0  0  0  0  0  0  0  0  0
   -3.4374    0.8222   -0.4632 C   0  0  0  0  0  0  0  0  0  0  0  0
    4.1874    1.0518   -0.5337 C   0  0  0  0  0  0  0  0  0  0  0  0
   -4.7335    0.1385   -0.0565 C   0  0  0  0  0  0  0  0  0  0  0  0
  1  9  1  0
  2  9  2  0
  3  4  1  0
  3  5  1  0
  3  7  1  0
  3  9  1  0
  4  6  1  0
  5  8  1  0
  6 10  1  0
  8 11  1  0
 10 12  1  0
M  END
>  <PUBCHEM_COMPOUND_CID>  (1) 
35727

>  <PUBCHEM_CONFORMER_RMSD>  (1) 
0.6

>  <PUBCHEM_CONFORMER_DIVERSEORDER>  (1) 
1
16
49
48
26
35
47
45
3
28
55
56
19
31
57
6
58
30
46
20
18
10
43
38
59
27
54
62
25
33
23
53
40
42
41
2
34
4
37
60
61
12
44
24
50
15
36
39
51
9
22
52
11
14
32
13
7
17
21
8
5
29

>  <PUBCHEM_MMFF94_PARTIAL_CHARGES>  (1) 
5
1 -0.65
2 -0.57
3 0.06
32 0.5
9 0.66

>  <PUBCHEM_EFFECTIVE_ROTOR_COUNT>  (1) 
6

>  <PUBCHEM_PHARMACOPHORE_FEATURES>  (1) 
8
1 1 acceptor
1 11 hydrophobe
1 12 hydrophobe
1 2 acceptor
1 7 hydrophobe
3 1 2 9 anion
3 3 5 8 hydrophobe
3 4 6 10 hydrophobe

>  <PUBCHEM_HEAVY_ATOM_COUNT>  (1) 
12

>  <PUBCHEM_ATOM_DEF_STEREO_COUNT>  (1) 
0

>  <PUBCHEM_ATOM_UDEF_STEREO_COUNT>  (1) 
1

>  <PUBCHEM_BOND_DEF_STEREO_COUNT>  (1) 
0

>  <PUBCHEM_BOND_UDEF_STEREO_COUNT>  (1) 
0

>  <PUBCHEM_ISOTOPIC_ATOM_COUNT>  (1) 
0

>  <PUBCHEM_COMPONENT_COUNT>  (1) 
1

>  <PUBCHEM_CACTVS_TAUTO_COUNT>  (1) 
1

>  <PUBCHEM_CONFORMER_ID>  (1) 
00008B8F00000001

>  <PUBCHEM_MMFF94_ENERGY>  (1) 
15.3973

>  <PUBCHEM_FEATURE_SELFOVERLAP>  (1) 
40.762

>  <PUBCHEM_SHAPE_FINGERPRINT>  (1) 
10130415 120 10375870787867737364
10219947 1 18186802469588478221
10465860 250 10735883850127885964
10922049 32 18261114092728266186
11062470 55 13045941304786068629
12119455 92 17967245412438635804
12932764 1 17488724719748198901
13380535 76 18186803582317259019
13380536 53 12179836191555781568
14993402 34 18408610283613366364
15775835 57 18341610434019332924
16945 1 17917998286588331256
170605 34 18411138013331567967
18186145 218 17847057809260039064
18342897 14 9511466628084994477
187816 3 17489313005455165008
20279233 1 17821736014202718569
20388701 513 11675418709416306135
20645477 70 18268139861083538951
21293036 1 17846780723555060996
21501502 16 18124031230858475233
228727 97 17346326963980663056
23235685 24 18410003347486346245
23402539 116 17240758515055278125
23402655 69 18341887451600959093
23557571 272 16805316666191897357
265663 24 17749102305371865488
3250762 1 17464801381925061540
366044 4 18333732446471014808
528886 8 18409443708746949392
58051976 378 18408039620135753045
81539 233 18186517679060434974

>  <PUBCHEM_SHAPE_MULTIPOLES>  (1) 
235.22
6.75
1.5
1.12
3.99
0.9
0.32
-2.88
-1.25
-0.53
-0.13
-0.25
0.15
-0.05

>  <PUBCHEM_SHAPE_SELFOVERLAP>  (1) 
435.791

>  <PUBCHEM_SHAPE_VOLUME>  (1) 
148.8

>  <PUBCHEM_COORDINATE_TYPE>  (1) 
2
5
10

$$$$
