35725
     RDKit          3D

 12 14  0  0  1  0  0  0  0  0999 V2000
    2.7086   -0.0399    0.7750 O   0  0  0  0  0  0  0  0  0  0  0  0
    1.3568   -0.0255    0.3143 C   0  0  0  0  0  0  0  0  0  0  0  0
   -0.0966    0.1054   -1.7101 C   0  0  0  0  0  0  0  0  0  0  0  0
   -0.7287   -1.5274    0.1805 C   0  0  0  0  0  0  0  0  0  0  0  0
   -0.7221    1.4949    0.3646 C   0  0  0  0  0  0  0  0  0  0  0  0
    1.3476    0.0695   -1.2119 C   0  0  0  0  0  0  0  0  0  0  0  0
    0.6814   -1.3304    0.7497 C   0  0  0  0  0  0  0  0  0  0  0  0
    0.6825    1.2145    0.9127 C   0  0  0  0  0  0  0  0  0  0  0  0
   -0.8151   -1.1886   -1.3144 C   0  0  0  0  0  0  0  0  0  0  0  0
   -0.8002    1.3501   -1.1615 C   0  0  0  0  0  0  0  0  0  0  0  0
   -1.8026   -0.8234    1.0128 C   0  0  0  0  0  0  0  0  0  0  0  0
   -1.8117    0.7008    1.0882 C   0  0  0  0  0  0  0  0  0  0  0  0
  1  2  1  0
  2  6  1  0
  2  7  1  0
  2  8  1  0
  3  6  1  0
  3  9  1  0
  3 10  1  0
  4  7  1  0
  4  9  1  0
  4 11  1  0
  5  8  1  0
  5 10  1  0
  5 12  1  0
 11 12  1  0
M  END
>  <PUBCHEM_COMPOUND_CID>  (1) 
35725

>  <PUBCHEM_CONFORMER_RMSD>  (1) 
0.4

>  <PUBCHEM_CONFORMER_DIVERSEORDER>  (1) 
1

>  <PUBCHEM_MMFF94_PARTIAL_CHARGES>  (1) 
3
1 -0.68
2 0.28
30 0.4

>  <PUBCHEM_EFFECTIVE_ROTOR_COUNT>  (1) 
1.4

>  <PUBCHEM_PHARMACOPHORE_FEATURES>  (1) 
6
1 1 acceptor
1 1 donor
6 2 3 4 6 7 9 rings
6 2 3 5 6 8 10 rings
7 2 4 5 7 8 11 12 rings
7 3 4 5 9 10 11 12 rings

>  <PUBCHEM_HEAVY_ATOM_COUNT>  (1) 
12

>  <PUBCHEM_ATOM_DEF_STEREO_COUNT>  (1) 
0

>  <PUBCHEM_ATOM_UDEF_STEREO_COUNT>  (1) 
2

>  <PUBCHEM_BOND_DEF_STEREO_COUNT>  (1) 
0

>  <PUBCHEM_BOND_UDEF_STEREO_COUNT>  (1) 
0

>  <PUBCHEM_ISOTOPIC_ATOM_COUNT>  (1) 
0

>  <PUBCHEM_COMPONENT_COUNT>  (1) 
1

>  <PUBCHEM_CACTVS_TAUTO_COUNT>  (1) 
1

>  <PUBCHEM_CONFORMER_ID>  (1) 
00008B8D00000001

>  <PUBCHEM_MMFF94_ENERGY>  (1) 
38.0911

>  <PUBCHEM_FEATURE_SELFOVERLAP>  (1) 
40.137

>  <PUBCHEM_SHAPE_FINGERPRINT>  (1) 
10702982 57 17839431446137800876
11129358 1 16482701352339293783
12423570 1 17386861503594021360
13024252 1 17969481776144997554
137420 1 17191253209624545631
141345 1 13338645391771556991
14817 1 13732466001254731021
15557651 10 18129398019774399540
16945 1 18265636349577526121
369184 2 18269813407458122010
5084963 1 18047498641347976150

>  <PUBCHEM_SHAPE_MULTIPOLES>  (1) 
241.09
2.21
1.65
1.61
0.57
0.01
0.56
0.03
-0.84
-0.46
-0.07
0.01
-0.03
-0.02

>  <PUBCHEM_SHAPE_SELFOVERLAP>  (1) 
516.311

>  <PUBCHEM_SHAPE_VOLUME>  (1) 
130

>  <PUBCHEM_COORDINATE_TYPE>  (1) 
2
5
10

$$$$
