35734
     RDKit          3D

 32 33  0  0  1  0  0  0  0  0999 V2000
    0.0235   -2.7214    1.3969 I   0  0  0  0  0  0  0  0  0  0  0  0
    0.7049    3.3450    1.1768 I   0  0  0  0  0  0  0  0  0  0  0  0
    5.2510   -0.3068   -0.6325 I   0  0  0  0  0  0  0  0  0  0  0  0
   -3.9254    0.8562   -1.1580 O   0  0  0  0  0  0  0  0  0  0  0  0
   -4.9610   -0.3634    2.0375 O   0  0  0  0  0  0  0  0  0  0  0  0
   -2.8869   -1.8178   -0.5868 O   0  0  0  0  0  0  0  0  0  0  0  0
   -3.0703    2.8000   -0.1499 O   0  0  0  0  0  0  0  0  0  0  0  0
   -5.5437    0.0401   -3.2223 O   0  0  0  0  0  0  0  0  0  0  0  0
   -0.8140    0.5027    2.9021 O   0  0  0  0  0  0  0  0  0  0  0  0
    3.3676   -4.2712   -1.2464 O   0  0  0  0  0  0  0  0  0  0  0  0
    3.0262    2.8079   -2.1961 O   0  0  0  0  0  0  0  0  0  0  0  0
   -1.6575    0.5433    0.7430 N   0  0  0  0  0  0  0  0  0  0  0  0
    3.0149   -2.4635    0.2278 N   0  0  0  0  0  0  0  0  0  0  0  0
    3.5554    2.3475    0.0530 N   0  0  0  0  0  0  0  0  0  0  0  0
   -3.0441    0.7405    1.1106 C   0  0  0  0  0  0  0  0  0  0  0  0
   -3.7514   -0.6066    1.3185 C   0  0  0  0  0  0  0  0  0  0  0  0
   -4.0833   -1.2937   -0.0137 C   0  0  0  0  0  0  0  0  0  0  0  0
   -4.7372   -0.3141   -1.0016 C   0  0  0  0  0  0  0  0  0  0  0  0
   -3.7836    1.5845    0.0616 C   0  0  0  0  0  0  0  0  0  0  0  0
   -4.9289   -0.9233   -2.3860 C   0  0  0  0  0  0  0  0  0  0  0  0
   -0.6504    0.4404    1.6864 C   0  0  0  0  0  0  0  0  0  0  0  0
    0.7228    0.2664    1.1470 C   0  0  0  0  0  0  0  0  0  0  0  0
    1.2126   -1.0123    0.9453 C   0  0  0  0  0  0  0  0  0  0  0  0
    1.4821    1.3871    0.8583 C   0  0  0  0  0  0  0  0  0  0  0  0
    2.5019   -1.1755    0.4388 C   0  0  0  0  0  0  0  0  0  0  0  0
    2.7715    1.2238    0.3519 C   0  0  0  0  0  0  0  0  0  0  0  0
    3.2814   -0.0575    0.1421 C   0  0  0  0  0  0  0  0  0  0  0  0
    3.8359   -3.0814    1.3103 C   0  0  0  0  0  0  0  0  0  0  0  0
    2.8614   -3.1714   -1.0098 C   0  0  0  0  0  0  0  0  0  0  0  0
    3.6328    3.0427   -1.1561 C   0  0  0  0  0  0  0  0  0  0  0  0
    1.9950   -2.5476   -2.0798 C   0  0  0  0  0  0  0  0  0  0  0  0
    4.5967    4.1993   -1.0688 C   0  0  0  0  0  0  0  0  0  0  0  0
  1 23  1  0
  2 24  1  0
  3 27  1  0
  4 18  1  0
  4 19  1  0
  5 16  1  0
  6 17  1  0
  7 19  1  0
  8 20  1  0
  9 21  2  0
 10 29  2  0
 11 30  2  0
 12 15  1  0
 12 21  1  0
 13 25  1  0
 13 28  1  0
 13 29  1  0
 14 26  1  0
 14 30  1  0
 15 16  1  0
 15 19  1  0
 16 17  1  0
 17 18  1  0
 18 20  1  0
 21 22  1  0
 22 23  2  0
 22 24  1  0
 23 25  1  0
 24 26  2  0
 25 27  2  0
 26 27  1  0
 29 31  1  0
 30 32  1  0
M  END
>  <PUBCHEM_COMPOUND_CID>  (1) 
35734

>  <PUBCHEM_CONFORMER_RMSD>  (1) 
1

>  <PUBCHEM_CONFORMER_DIVERSEORDER>  (1) 
23
56
148
200
179
122
201
81
152
92
183
196
108
169
150
124
13
97
178
116
39
62
114
82
44
4
86
135
57
35
132
202
121
111
159
171
129
83
68
119
54
146
93
84
104
163
144
125
182
26
149
126
72
99
162
91
105
190
172
186
58
24
110
151
170
103
29
109
134
43
198
167
102
18
32
168
137
42
164
193
156
94
74
120
117
5
96
80
14
145
98
199
45
55
113
60
77
192
203
33
41
161
30
71
140
36
128
127
184
155
142
136
76
141
7
51
88
34
1
21
153
131
65
69
130
27
95
181
50
101
85
63
143
185
195
52
100
112
139
70
15
189
175
8
191
19
75
53
194
165
59
37
46
64
107
40
20
47
138
160
106
166
87
78
31
115
6
89
28
154
3
61
123
118
133
9
173
180
38
73
90
147
11
174
2
12
177
49
16
48
176
10
66
187
197
22
188
157
67
25
17
158
79

>  <PUBCHEM_MMFF94_PARTIAL_CHARGES>  (1) 
38
1 -0.08
10 -0.57
11 -0.57
12 -0.73
13 -0.48
14 -0.55
15 0.3
16 0.28
17 0.28
18 0.28
19 0.56
2 -0.08
20 0.28
21 0.54
22 0.09
23 0.08
24 0.08
25 0.12
26 0.12
27 0.08
28 0.3
29 0.57
3 -0.08
30 0.57
31 0.06
32 0.06
38 0.37
4 -0.56
41 0.4
42 0.4
43 0.4
44 0.4
45 0.37
5 -0.68
6 -0.68
7 -0.68
8 -0.68
9 -0.57

>  <PUBCHEM_EFFECTIVE_ROTOR_COUNT>  (1) 
9.2

>  <PUBCHEM_PHARMACOPHORE_FEATURES>  (1) 
19
1 1 hydrophobe
1 10 acceptor
1 11 acceptor
1 12 donor
1 14 donor
1 2 hydrophobe
1 3 hydrophobe
1 4 acceptor
1 5 acceptor
1 5 donor
1 6 acceptor
1 6 donor
1 7 acceptor
1 7 donor
1 8 acceptor
1 8 donor
1 9 acceptor
6 22 23 24 25 26 27 rings
6 4 15 16 17 18 19 rings

>  <PUBCHEM_HEAVY_ATOM_COUNT>  (1) 
32

>  <PUBCHEM_ATOM_DEF_STEREO_COUNT>  (1) 
2

>  <PUBCHEM_ATOM_UDEF_STEREO_COUNT>  (1) 
3

>  <PUBCHEM_BOND_DEF_STEREO_COUNT>  (1) 
0

>  <PUBCHEM_BOND_UDEF_STEREO_COUNT>  (1) 
0

>  <PUBCHEM_ISOTOPIC_ATOM_COUNT>  (1) 
0

>  <PUBCHEM_COMPONENT_COUNT>  (1) 
1

>  <PUBCHEM_CACTVS_TAUTO_COUNT>  (1) 
4

>  <PUBCHEM_CONFORMER_ID>  (1) 
00008B9600000017

>  <PUBCHEM_MMFF94_ENERGY>  (1) 
141.2208

>  <PUBCHEM_FEATURE_SELFOVERLAP>  (1) 
96.483

>  <PUBCHEM_SHAPE_FINGERPRINT>  (1) 
10928967 22 17274531135721005543
11069576 57 18130780140530230742
11135926 11 18340492269654655984
11513181 2 18409168770747848492
11796584 16 15123243108225636409
13383661 66 16767908221907829102
13911987 19 18050024464698031736
17349148 13 18343868788491319066
21033648 144 18043540618943057092
21033648 29 15430305971136012620
23559900 14 18341039783231650891
238 59 18336263543333138417
2838139 119 17098332301326069292
312425 83 18335691707630848253
340366 18 17981329988945263697
376196 1 17823974756757298072
4280585 95 17980480062404781058
4353968 344 17619092551382932518
44802255 64 17173802792921446628
46194498 28 18334295361916952997
463206 1 18271530887211801898
5081480 168 17896048658553505517
5223283 242 17971182626566023101
6287921 2 18187659027943523021

>  <PUBCHEM_SHAPE_MULTIPOLES>  (1) 
632.45
11.41
4.88
2.37
9.05
0.43
0.85
0.81
6.32
-7.53
1.11
2.28
-0.23
-1.05

>  <PUBCHEM_SHAPE_SELFOVERLAP>  (1) 
1255.402

>  <PUBCHEM_SHAPE_VOLUME>  (1) 
385.3

>  <PUBCHEM_COORDINATE_TYPE>  (1) 
2
5
10

$$$$
