35737
     RDKit          3D

 11 11  0  0  0  0  0  0  0  0999 V2000
   -5.1730    0.0288    0.1759 O   0  0  0  0  0  0  0  0  0  0  0  0
   -0.4032   -0.7994    0.1712 N   0  0  0  0  0  0  0  0  0  0  0  0
    0.9086   -0.3502   -0.2909 C   0  0  0  0  0  0  0  0  0  0  0  0
    1.2082    1.0449    0.2686 C   0  0  0  0  0  0  0  0  0  0  0  0
    1.9831   -1.3578    0.1322 C   0  0  0  0  0  0  0  0  0  0  0  0
    2.6054    1.5166   -0.1309 C   0  0  0  0  0  0  0  0  0  0  0  0
    3.3791   -0.8833   -0.2678 C   0  0  0  0  0  0  0  0  0  0  0  0
    3.6774    0.5103    0.2778 C   0  0  0  0  0  0  0  0  0  0  0  0
   -1.4452    0.1181   -0.2635 C   0  0  0  0  0  0  0  0  0  0  0  0
   -2.8128   -0.3789    0.1937 C   0  0  0  0  0  0  0  0  0  0  0  0
   -3.9276    0.5508   -0.2661 C   0  0  0  0  0  0  0  0  0  0  0  0
  1 11  1  0
  2  3  1  0
  2  9  1  0
  3  4  1  0
  3  5  1  0
  4  6  1  0
  5  7  1  0
  6  8  1  0
  7  8  1  0
  9 10  1  0
 10 11  1  0
M  END
>  <PUBCHEM_COMPOUND_CID>  (1) 
35737

>  <PUBCHEM_CONFORMER_RMSD>  (1) 
0.6

>  <PUBCHEM_CONFORMER_DIVERSEORDER>  (1) 
1
21
48
39
46
51
42
33
12
18
4
24
3
59
43
38
45
19
34
54
61
56
17
41
49
16
40
9
14
26
29
32
30
44
22
50
53
11
60
25
20
62
52
8
63
58
47
28
23
36
5
27
37
31
15
35
6
10
13
57
55
2
7

>  <PUBCHEM_MMFF94_PARTIAL_CHARGES>  (1) 
7
1 -0.68
11 0.28
2 -0.9
23 0.36
3 0.27
30 0.4
9 0.27

>  <PUBCHEM_EFFECTIVE_ROTOR_COUNT>  (1) 
5.2

>  <PUBCHEM_PHARMACOPHORE_FEATURES>  (1) 
5
1 1 acceptor
1 1 donor
1 2 cation
1 2 donor
6 3 4 5 6 7 8 rings

>  <PUBCHEM_HEAVY_ATOM_COUNT>  (1) 
11

>  <PUBCHEM_ATOM_DEF_STEREO_COUNT>  (1) 
0

>  <PUBCHEM_ATOM_UDEF_STEREO_COUNT>  (1) 
0

>  <PUBCHEM_BOND_DEF_STEREO_COUNT>  (1) 
0

>  <PUBCHEM_BOND_UDEF_STEREO_COUNT>  (1) 
0

>  <PUBCHEM_ISOTOPIC_ATOM_COUNT>  (1) 
0

>  <PUBCHEM_COMPONENT_COUNT>  (1) 
1

>  <PUBCHEM_CACTVS_TAUTO_COUNT>  (1) 
1

>  <PUBCHEM_CONFORMER_ID>  (1) 
00008B9900000001

>  <PUBCHEM_MMFF94_ENERGY>  (1) 
-0.1788

>  <PUBCHEM_FEATURE_SELFOVERLAP>  (1) 
25.371

>  <PUBCHEM_SHAPE_FINGERPRINT>  (1) 
10219947 1 18060139821280370702
11062470 55 17846778507404501899
11471102 20 18411417310860131732
12346645 6 18273215287865807310
12932764 1 17385710405304074087
13922767 16 18411696590982005584
14251717 144 18413388722118318294
14325111 11 18410855498909565471
17834072 33 18272083942241068231
18186145 218 18408037399104962903
190213 19 17775568641179317071
20279233 1 17967820448456460531
20606313 2 18412544318863398340
20645477 70 18341895151696832918
20871998 22 18055353535944320798
23402539 116 16702015357870175605
23402655 69 18343299254052345589
4047638 21 18408605872475880626
449060 50 18334015029528260381
449060 62 18412547634530717092
522135 26 18411982446772610622

>  <PUBCHEM_SHAPE_MULTIPOLES>  (1) 
215.52
8.47
1.3
0.65
9.95
0.1
0.01
0.74
-0.16
-1.17
-0.01
-0.05
0.01
0.16

>  <PUBCHEM_SHAPE_SELFOVERLAP>  (1) 
407.044

>  <PUBCHEM_SHAPE_VOLUME>  (1) 
132.6

>  <PUBCHEM_COORDINATE_TYPE>  (1) 
2
5
10

$$$$
