35739
     RDKit          3D

 36 40  0  0  0  0  0  0  0  0999 V2000
    1.5796    4.2814   -0.9725 O   0  0  0  0  0  0  0  0  0  0  0  0
   -6.9923    1.1547   -1.4936 O   0  0  0  0  0  0  0  0  0  0  0  0
    1.1922   -0.3409    0.5737 O   0  0  0  0  0  0  0  0  0  0  0  0
   -3.2025    1.1074    1.6444 O   0  0  0  0  0  0  0  0  0  0  0  0
   -2.6132   -3.1986   -0.3022 O   0  0  0  0  0  0  0  0  0  0  0  0
   -0.1761   -3.9065   -0.8474 O   0  0  0  0  0  0  0  0  0  0  0  0
    2.5638   -3.4304   -0.8965 O   0  0  0  0  0  0  0  0  0  0  0  0
    5.9102    0.8530   -1.9976 O   0  0  0  0  0  0  0  0  0  0  0  0
    7.4484    0.3026    0.2515 O   0  0  0  0  0  0  0  0  0  0  0  0
    0.5687    2.2181    0.7076 N   0  0  0  0  0  0  0  0  0  0  0  0
   -5.1359   -0.1183    0.2485 N   0  0  0  0  0  0  0  0  0  0  0  0
   -0.4342    1.6572    1.6106 C   0  0  0  0  0  0  0  0  0  0  0  0
   -0.9964    0.3681    1.1011 C   0  0  0  0  0  0  0  0  0  0  0  0
   -4.3821   -1.2811    0.7127 C   0  0  0  0  0  0  0  0  0  0  0  0
   -2.9042   -1.0525    0.6665 C   0  0  0  0  0  0  0  0  0  0  0  0
    1.1410    3.4516    1.2649 C   0  0  0  0  0  0  0  0  0  0  0  0
   -0.0119    2.4855   -0.6156 C   0  0  0  0  0  0  0  0  0  0  0  0
   -2.3734    0.1479    1.1408 C   0  0  0  0  0  0  0  0  0  0  0  0
   -4.7860    0.2099   -1.1405 C   0  0  0  0  0  0  0  0  0  0  0  0
   -6.5819   -0.3550    0.3609 C   0  0  0  0  0  0  0  0  0  0  0  0
   -0.1511   -0.6147    0.5856 C   0  0  0  0  0  0  0  0  0  0  0  0
   -0.6823   -1.8126    0.1127 C   0  0  0  0  0  0  0  0  0  0  0  0
   -2.0606   -2.0372    0.1510 C   0  0  0  0  0  0  0  0  0  0  0  0
    2.1749    4.0251    0.3001 C   0  0  0  0  0  0  0  0  0  0  0  0
    1.0499    3.0808   -1.5358 C   0  0  0  0  0  0  0  0  0  0  0  0
   -5.5933    1.4183   -1.6059 C   0  0  0  0  0  0  0  0  0  0  0  0
   -7.3474    0.8661   -0.1407 C   0  0  0  0  0  0  0  0  0  0  0  0
    0.2314   -2.8332   -0.4234 C   0  0  0  0  0  0  0  0  0  0  0  0
    2.0567   -1.2935    0.0578 C   0  0  0  0  0  0  0  0  0  0  0  0
    1.6743   -2.4915   -0.4206 C   0  0  0  0  0  0  0  0  0  0  0  0
    3.4686   -0.8740    0.1053 C   0  0  0  0  0  0  0  0  0  0  0  0
    4.0338   -0.2007   -0.9781 C   0  0  0  0  0  0  0  0  0  0  0  0
    4.2413   -1.1502    1.2338 C   0  0  0  0  0  0  0  0  0  0  0  0
    5.3701    0.1962   -0.9331 C   0  0  0  0  0  0  0  0  0  0  0  0
    5.5777   -0.7533    1.2788 C   0  0  0  0  0  0  0  0  0  0  0  0
    6.1422   -0.0801    0.1953 C   0  0  0  0  0  0  0  0  0  0  0  0
  1 24  1  0
  1 25  1  0
  2 26  1  0
  2 27  1  0
  3 21  1  0
  3 29  1  0
  4 18  1  0
  5 23  1  0
  6 28  2  0
  7 30  1  0
  8 34  1  0
  9 36  1  0
 10 12  1  0
 10 16  1  0
 10 17  1  0
 11 14  1  0
 11 19  1  0
 11 20  1  0
 12 13  1  0
 13 18  1  0
 13 21  2  0
 14 15  1  0
 15 18  2  0
 15 23  1  0
 16 24  1  0
 17 25  1  0
 19 26  1  0
 20 27  1  0
 21 22  1  0
 22 23  2  0
 22 28  1  0
 28 30  1  0
 29 30  2  0
 29 31  1  0
 31 32  2  0
 31 33  1  0
 32 34  1  0
 33 35  2  0
 34 36  2  0
 35 36  1  0
M  END
>  <PUBCHEM_COMPOUND_CID>  (1) 
35739

>  <PUBCHEM_CONFORMER_RMSD>  (1) 
1

>  <PUBCHEM_CONFORMER_DIVERSEORDER>  (1) 
1
23
2
20
30
26
19
33
29
8
18
22
6
3
15
16
32
17
25
10
28
27
5
21
24
4
9
14
11
31
13
7
12

>  <PUBCHEM_MMFF94_PARTIAL_CHARGES>  (1) 
44
1 -0.56
10 -0.81
11 -0.81
12 0.41
13 -0.14
14 0.41
15 -0.14
16 0.27
17 0.27
18 0.08
19 0.27
2 -0.56
20 0.27
21 0.08
22 0.09
23 0.08
24 0.28
25 0.28
26 0.28
27 0.28
28 0.47
29 0.05
3 -0.16
30 0.09
31 0.03
32 -0.15
33 -0.15
34 0.08
35 -0.15
36 0.08
4 -0.53
5 -0.53
57 0.45
58 0.45
59 0.15
6 -0.57
60 0.15
61 0.45
62 0.15
63 0.45
64 0.45
7 -0.53
8 -0.53
9 -0.53

>  <PUBCHEM_EFFECTIVE_ROTOR_COUNT>  (1) 
7.4

>  <PUBCHEM_PHARMACOPHORE_FEATURES>  (1) 
16
1 1 acceptor
1 10 cation
1 11 cation
1 2 acceptor
1 3 acceptor
1 4 donor
1 5 donor
1 6 acceptor
1 7 donor
1 8 donor
1 9 donor
6 1 10 16 17 24 25 rings
6 13 15 18 21 22 23 rings
6 2 11 19 20 26 27 rings
6 3 21 22 28 29 30 rings
6 31 32 33 34 35 36 rings

>  <PUBCHEM_HEAVY_ATOM_COUNT>  (1) 
36

>  <PUBCHEM_ATOM_DEF_STEREO_COUNT>  (1) 
0

>  <PUBCHEM_ATOM_UDEF_STEREO_COUNT>  (1) 
0

>  <PUBCHEM_BOND_DEF_STEREO_COUNT>  (1) 
0

>  <PUBCHEM_BOND_UDEF_STEREO_COUNT>  (1) 
0

>  <PUBCHEM_ISOTOPIC_ATOM_COUNT>  (1) 
0

>  <PUBCHEM_COMPONENT_COUNT>  (1) 
1

>  <PUBCHEM_CACTVS_TAUTO_COUNT>  (1) 
435

>  <PUBCHEM_CONFORMER_ID>  (1) 
00008B9B00000001

>  <PUBCHEM_MMFF94_ENERGY>  (1) 
108.399

>  <PUBCHEM_FEATURE_SELFOVERLAP>  (1) 
81.232

>  <PUBCHEM_SHAPE_FINGERPRINT>  (1) 
10006869 2 18340475661311963114
10050765 1 18123187081085851171
10670039 82 18268166292475639910
10906281 52 18339377270570132667
10930396 42 18196905900107655088
1100329 8 18270405030407872922
11115154 58 17418085478883862753
11135609 187 18270116812870188057
11513181 2 17344642426325560879
11578080 2 18116990194723147908
12156800 1 16011799167354915532
12236239 1 18114181960590234106
12422481 6 18046878718928401800
12664476 115 18113335290167659797
12838862 33 18271228479018041394
13583140 156 17894922870342485187
13911987 19 18411709776373420438
140371 6 18342751701688620963
14068700 675 18059566984339023873
14117953 113 18411984642028400606
14955137 171 18052013386911521346
15081414 286 18341903943916757231
15131766 46 17460327779145482060
15160629 57 17824280391067701220
15183329 4 18408888417295502633
15439362 3 18046347702204693952
16090146 7 17274554208475502359
17492 54 18335150795059351960
17899979 19 18261116292311321124
17980427 23 18059866030158655185
18365409 1 17059478768830362895
19319366 153 17967811657196950610
20511986 3 18187925127506889440
20642791 178 18265623262733235810
21298829 104 18270685264661365425
21792964 463 17023482862923860332
21814621 53 15792296973383978577
22122407 14 17023484022026933628
22311459 1 18413672405109197947
23559900 14 18201151152545065803
23576562 1 18263924513442632805
24771293 8 18060419114619787776
24771750 20 18119542182496063781
25019877 29 17489873730821327670
3178227 256 18337403694748798891
340366 18 18336825406918458705
4394409 98 18410576192865102479
46194498 28 18333729118515016877
484989 97 18197494229091925211
5104073 3 11964263781503608215
6081469 158 18341332202476075750
9961470 85 17985255524682124616

>  <PUBCHEM_SHAPE_MULTIPOLES>  (1) 
678.08
15.41
4.38
1.47
7.03
2.04
0.14
1.45
3.21
-1.97
0.94
-0.07
0.69
0.31

>  <PUBCHEM_SHAPE_SELFOVERLAP>  (1) 
1489.055

>  <PUBCHEM_SHAPE_VOLUME>  (1) 
363.1

>  <PUBCHEM_COORDINATE_TYPE>  (1) 
2
5
10

$$$$
