35743
     RDKit          3D

 11 11  0  0  0  0  0  0  0  0999 V2000
    0.4436   -2.2062    0.1457 O   0  0  0  0  0  0  0  0  0  0  0  0
    1.9118    0.1945    0.6358 C   0  0  0  0  0  0  0  0  0  0  0  0
    0.4442    0.1810    0.3612 C   0  0  0  0  0  0  0  0  0  0  0  0
    2.7408    0.3263   -0.6487 C   0  0  0  0  0  0  0  0  0  0  0  0
   -0.2262   -1.0199    0.1284 C   0  0  0  0  0  0  0  0  0  0  0  0
   -0.2568    1.3867    0.3402 C   0  0  0  0  0  0  0  0  0  0  0  0
   -2.2988    0.1908   -0.1466 C   0  0  0  0  0  0  0  0  0  0  0  0
   -1.5979   -1.0150   -0.1255 C   0  0  0  0  0  0  0  0  0  0  0  0
   -1.6282    1.3916    0.0863 C   0  0  0  0  0  0  0  0  0  0  0  0
    4.2326    0.3735   -0.3587 C   0  0  0  0  0  0  0  0  0  0  0  0
   -3.7651    0.1968   -0.4182 C   0  0  0  0  0  0  0  0  0  0  0  0
  1  5  1  0
  2  3  1  0
  2  4  1  0
  3  5  2  0
  3  6  1  0
  4 10  1  0
  5  8  1  0
  6  9  2  0
  7  8  2  0
  7  9  1  0
  7 11  1  0
M  END
>  <PUBCHEM_COMPOUND_CID>  (1) 
35743

>  <PUBCHEM_CONFORMER_RMSD>  (1) 
0.4

>  <PUBCHEM_CONFORMER_DIVERSEORDER>  (1) 
1
4
5
7
6
3
2

>  <PUBCHEM_MMFF94_PARTIAL_CHARGES>  (1) 
13
1 -0.53
11 0.14
16 0.15
17 0.15
18 0.15
2 0.14
25 0.45
3 -0.14
5 0.08
6 -0.15
7 -0.14
8 -0.15
9 -0.15

>  <PUBCHEM_EFFECTIVE_ROTOR_COUNT>  (1) 
2

>  <PUBCHEM_PHARMACOPHORE_FEATURES>  (1) 
3
1 1 donor
1 10 hydrophobe
6 3 5 6 7 8 9 rings

>  <PUBCHEM_HEAVY_ATOM_COUNT>  (1) 
11

>  <PUBCHEM_ATOM_DEF_STEREO_COUNT>  (1) 
0

>  <PUBCHEM_ATOM_UDEF_STEREO_COUNT>  (1) 
0

>  <PUBCHEM_BOND_DEF_STEREO_COUNT>  (1) 
0

>  <PUBCHEM_BOND_UDEF_STEREO_COUNT>  (1) 
0

>  <PUBCHEM_ISOTOPIC_ATOM_COUNT>  (1) 
0

>  <PUBCHEM_COMPONENT_COUNT>  (1) 
1

>  <PUBCHEM_CACTVS_TAUTO_COUNT>  (1) 
9

>  <PUBCHEM_CONFORMER_ID>  (1) 
00008B9F00000001

>  <PUBCHEM_MMFF94_ENERGY>  (1) 
22.3687

>  <PUBCHEM_FEATURE_SELFOVERLAP>  (1) 
15.223

>  <PUBCHEM_SHAPE_FINGERPRINT>  (1) 
11206711 2 18339912745501814133
12032990 46 18269839864472677755
12119455 92 13984651585982094096
12251169 10 8070024454729015076
12716758 59 18339923826553886762
12897270 3 18411697677519125565
13024252 1 11819270087641807121
14325111 11 18410294675186573208
14911166 2 18412820309282903789
14993402 34 18187365445480437124
15775835 57 17894349990640608476
16945 1 18340757191906412121
19021347 11 18336263440386077530
193761 8 17835237840170356233
20201158 50 17918281956572775302
20645476 183 17894911875289367266
21040471 1 18411409588319023091
21293036 1 18411136952316572157
21501502 16 18124311606323220289
23235685 24 18335696143978272797
23402539 116 18342449353207670972
23402655 69 18196351660480083629
23463225 33 18262230002794633018
23552423 10 18048313349647534355
23559900 14 18271806861379956448
2748010 2 18051118491736135145
366044 4 18408603673384215714
528886 8 18410288125139757987
53812653 8 18409727322612118257
57177213 63 18262801748397763306

>  <PUBCHEM_SHAPE_MULTIPOLES>  (1) 
220.51
5.67
1.52
0.74
2.95
0.5
0.01
-1.04
1.45
-0.32
-0.12
0.16
-0.05
-0.09

>  <PUBCHEM_SHAPE_SELFOVERLAP>  (1) 
447.282

>  <PUBCHEM_SHAPE_VOLUME>  (1) 
130.4

>  <PUBCHEM_COORDINATE_TYPE>  (1) 
2
5
10

$$$$
