35748
     RDKit          3D

 17 17  0  0  1  0  0  0  0  0999 V2000
   -4.7310   -0.7259    0.5461 F   0  0  0  0  0  0  0  0  0  0  0  0
   -3.8031   -1.4848   -1.2614 F   0  0  0  0  0  0  0  0  0  0  0  0
   -3.0829   -2.1378    0.6837 F   0  0  0  0  0  0  0  0  0  0  0  0
    6.6766   -0.7945    0.6808 O   0  0  0  0  0  0  0  0  0  0  0  0
    3.3678    0.1417   -0.6225 N   0  0  0  0  0  0  0  0  0  0  0  0
    2.0499    0.2567    0.0088 C   0  0  0  0  0  0  0  0  0  0  0  0
    1.0279    0.7681   -1.0231 C   0  0  0  0  0  0  0  0  0  0  0  0
   -0.3588    0.9593   -0.4571 C   0  0  0  0  0  0  0  0  0  0  0  0
    1.6702   -1.1089    0.5819 C   0  0  0  0  0  0  0  0  0  0  0  0
    4.3644   -0.2803    0.3474 C   0  0  0  0  0  0  0  0  0  0  0  0
   -1.2586   -0.0940   -0.4939 C   0  0  0  0  0  0  0  0  0  0  0  0
   -0.7060    2.1845    0.0895 C   0  0  0  0  0  0  0  0  0  0  0  0
   -2.5395    0.0827    0.0297 C   0  0  0  0  0  0  0  0  0  0  0  0
    5.7328   -0.3971   -0.3051 C   0  0  0  0  0  0  0  0  0  0  0  0
   -1.9865    2.3612    0.6131 C   0  0  0  0  0  0  0  0  0  0  0  0
   -2.9032    1.3102    0.5834 C   0  0  0  0  0  0  0  0  0  0  0  0
   -3.5198   -1.0410   -0.0012 C   0  0  0  0  0  0  0  0  0  0  0  0
  1 17  1  0
  2 17  1  0
  3 17  1  0
  4 14  1  0
  5  6  1  0
  5 10  1  0
  6  7  1  0
  6  9  1  0
  7  8  1  0
  8 11  2  0
  8 12  1  0
 10 14  1  0
 11 13  1  0
 12 15  2  0
 13 16  2  0
 13 17  1  0
 15 16  1  0
M  END
>  <PUBCHEM_COMPOUND_CID>  (1) 
35748

>  <PUBCHEM_CONFORMER_RMSD>  (1) 
0.8

>  <PUBCHEM_CONFORMER_DIVERSEORDER>  (1) 
3
31
32
23
1
24
8
16
10
25
21
28
33
20
19
30
27
34
14
6
7
4
22
29
13
26
15
9
5
11
18
12
17
2

>  <PUBCHEM_MMFF94_PARTIAL_CHARGES>  (1) 
22
1 -0.34
10 0.27
11 -0.15
12 -0.15
13 -0.14
14 0.28
15 -0.15
16 -0.15
17 1.16
2 -0.34
21 0.36
27 0.15
28 0.15
3 -0.34
31 0.15
32 0.15
33 0.4
4 -0.68
5 -0.9
6 0.27
7 0.14
8 -0.14

>  <PUBCHEM_EFFECTIVE_ROTOR_COUNT>  (1) 
6

>  <PUBCHEM_PHARMACOPHORE_FEATURES>  (1) 
5
1 4 acceptor
1 4 donor
1 5 cation
1 5 donor
6 8 11 12 13 15 16 rings

>  <PUBCHEM_HEAVY_ATOM_COUNT>  (1) 
17

>  <PUBCHEM_ATOM_DEF_STEREO_COUNT>  (1) 
0

>  <PUBCHEM_ATOM_UDEF_STEREO_COUNT>  (1) 
1

>  <PUBCHEM_BOND_DEF_STEREO_COUNT>  (1) 
0

>  <PUBCHEM_BOND_UDEF_STEREO_COUNT>  (1) 
0

>  <PUBCHEM_ISOTOPIC_ATOM_COUNT>  (1) 
0

>  <PUBCHEM_COMPONENT_COUNT>  (1) 
1

>  <PUBCHEM_CACTVS_TAUTO_COUNT>  (1) 
1

>  <PUBCHEM_CONFORMER_ID>  (1) 
00008BA400000003

>  <PUBCHEM_MMFF94_ENERGY>  (1) 
24.3036

>  <PUBCHEM_FEATURE_SELFOVERLAP>  (1) 
25.372

>  <PUBCHEM_SHAPE_FINGERPRINT>  (1) 
10803635 8 17095513002681732367
10912923 1 18187088322139079304
11046707 91 18333731321047158460
11315181 36 18260548922756963140
12236239 1 18113341903330170412
12507557 5 13614522978382143235
12616971 3 17531541901382946436
13214271 11 18059572451542163188
13288520 33 18408887330019514517
13675066 3 17632292342496008012
13760787 5 16877955923250169060
14251732 16 18411135875392903008
15099037 37 18343586222207844860
15415430 10 18334296470087281812
17834072 33 18334018302736549164
17862501 102 18261111864120365412
18006028 8 18343580759489355637
18222031 100 17385438822401891932
18927931 339 18343588438426735598
19433438 28 18131625678420959192
19784866 240 17676212385289716183
200 152 18040433291376217036
20645477 70 14273725223739893248
21267235 1 18335430083771225267
21426921 1 18337108960411901556
21650355 55 18341617005625770537
2297311 6 18130519560964787188
23198884 109 12757144667097529230
23402539 116 18259702277128168764
23402655 69 9079116661732200260
23557571 272 18130514045773169600
23559900 14 18337101371357624888
3286 77 18409728487239611796
49783359 22 18412542090197410374
5104073 3 18342459253308047584
559249 180 18187362086831692709
7062679 117 18335145293491043302

>  <PUBCHEM_SHAPE_MULTIPOLES>  (1) 
317.18
11.22
1.95
0.91
17.78
0.45
-0.1
-5.1
1.54
-2.52
0.28
-0.11
-0.06
-0.62

>  <PUBCHEM_SHAPE_SELFOVERLAP>  (1) 
644.779

>  <PUBCHEM_SHAPE_VOLUME>  (1) 
186.1

>  <PUBCHEM_COORDINATE_TYPE>  (1) 
2
5
10

$$$$
