35749
     RDKit          3D

 15 15  0  0  0  0  0  0  0  0999 V2000
   -0.1273    1.6309    1.1137 F   0  0  0  0  0  0  0  0  0  0  0  0
    0.7280    1.6620   -0.8868 F   0  0  0  0  0  0  0  0  0  0  0  0
   -0.8590   -0.3641   -1.6931 F   0  0  0  0  0  0  0  0  0  0  0  0
   -1.9268    1.3483   -0.8753 F   0  0  0  0  0  0  0  0  0  0  0  0
   -2.2954    0.0194    1.4998 F   0  0  0  0  0  0  0  0  0  0  0  0
   -3.0475   -1.0377   -0.2531 F   0  0  0  0  0  0  0  0  0  0  0  0
   -1.2202   -1.7119    0.7187 F   0  0  0  0  0  0  0  0  0  0  0  0
    2.3942    0.4415    1.0019 N   0  0  0  0  0  0  0  0  0  0  0  0
    1.5821   -1.0453   -0.6735 N   0  0  0  0  0  0  0  0  0  0  0  0
    1.1840   -0.1912    0.4526 C   0  0  0  0  0  0  0  0  0  0  0  0
    0.1513    0.8528    0.0398 C   0  0  0  0  0  0  0  0  0  0  0  0
    3.4718   -0.4442    0.5562 C   0  0  0  0  0  0  0  0  0  0  0  0
    3.0205   -0.8401   -0.8316 C   0  0  0  0  0  0  0  0  0  0  0  0
   -1.1323    0.2953   -0.5377 C   0  0  0  0  0  0  0  0  0  0  0  0
   -1.9235   -0.6157    0.3683 C   0  0  0  0  0  0  0  0  0  0  0  0
  1 11  1  0
  2 11  1  0
  3 14  1  0
  4 14  1  0
  5 15  1  0
  6 15  1  0
  7 15  1  0
  8 10  1  0
  8 12  1  0
  9 10  1  0
  9 13  1  0
 10 11  1  0
 11 14  1  0
 12 13  1  0
 14 15  1  0
M  END
>  <PUBCHEM_COMPOUND_CID>  (1) 
35749

>  <PUBCHEM_CONFORMER_RMSD>  (1) 
0.6

>  <PUBCHEM_CONFORMER_DIVERSEORDER>  (1) 
1
8
2
7
3
5
6
4

>  <PUBCHEM_MMFF94_PARTIAL_CHARGES>  (1) 
17
1 -0.34
10 0.54
11 0.68
12 0.27
13 0.27
14 0.68
15 1.02
17 0.36
18 0.36
2 -0.34
3 -0.34
4 -0.34
5 -0.34
6 -0.34
7 -0.34
8 -0.9
9 -0.9

>  <PUBCHEM_EFFECTIVE_ROTOR_COUNT>  (1) 
4

>  <PUBCHEM_PHARMACOPHORE_FEATURES>  (1) 
5
1 8 cation
1 8 donor
1 9 cation
1 9 donor
5 8 9 10 12 13 rings

>  <PUBCHEM_HEAVY_ATOM_COUNT>  (1) 
15

>  <PUBCHEM_ATOM_DEF_STEREO_COUNT>  (1) 
0

>  <PUBCHEM_ATOM_UDEF_STEREO_COUNT>  (1) 
0

>  <PUBCHEM_BOND_DEF_STEREO_COUNT>  (1) 
0

>  <PUBCHEM_BOND_UDEF_STEREO_COUNT>  (1) 
0

>  <PUBCHEM_ISOTOPIC_ATOM_COUNT>  (1) 
0

>  <PUBCHEM_COMPONENT_COUNT>  (1) 
1

>  <PUBCHEM_CACTVS_TAUTO_COUNT>  (1) 
1

>  <PUBCHEM_CONFORMER_ID>  (1) 
00008BA500000001

>  <PUBCHEM_MMFF94_ENERGY>  (1) 
9.4553

>  <PUBCHEM_FEATURE_SELFOVERLAP>  (1) 
25.441

>  <PUBCHEM_SHAPE_FINGERPRINT>  (1) 
10857977 72 18410568496494535226
12251169 10 16343698854920581154
12423570 1 15866301742047285220
12716758 59 18042678395451802362
12897270 3 15285360630369289010
12932764 1 16226044440885832668
13024252 1 12685102440426037085
14128692 85 18114754840106460822
15310529 11 16081092571310331474
15775835 57 16298390106801465462
16945 1 18041002859832134443
17844478 74 18202006503877279394
20201158 50 18409727369936113594
20711983 138 18340780242827370610
21061003 4 18411421708970011448
21922407 69 17057233651489338641
23236772 104 16127512934269717234
23559900 14 18189885428286185282
29004967 10 18272086110756304472
305870 269 11815079767118472750
369184 2 18341323414334782074
5084963 1 18342739641304174895
528862 383 18119811567165936828

>  <PUBCHEM_SHAPE_MULTIPOLES>  (1) 
247.81
4.46
1.41
1.23
1.88
0.21
-0.07
-1.35
0.42
-0.31
-0.02
-0.19
0.07
0.37

>  <PUBCHEM_SHAPE_SELFOVERLAP>  (1) 
518.356

>  <PUBCHEM_SHAPE_VOLUME>  (1) 
140.4

>  <PUBCHEM_COORDINATE_TYPE>  (1) 
2
5
10

$$$$
