35745
     RDKit          3D

 10 10  0  0  0  0  0  0  0  0999 V2000
    0.0773   -2.4228   -0.1164 Cl  0  0  0  0  0  0  0  0  0  0  0  0
    2.9656   -1.0503    0.1743 Cl  0  0  0  0  0  0  0  0  0  0  0  0
   -3.1158   -0.2342    0.5177 O   0  0  0  0  0  0  0  0  0  0  0  0
   -0.8785    0.1089   -0.1712 C   0  0  0  0  0  0  0  0  0  0  0  0
    0.2563   -0.6965   -0.0760 C   0  0  0  0  0  0  0  0  0  0  0  0
   -0.7526    1.4978   -0.1409 C   0  0  0  0  0  0  0  0  0  0  0  0
    1.5171   -0.1131    0.0495 C   0  0  0  0  0  0  0  0  0  0  0  0
    0.5082    2.0812   -0.0153 C   0  0  0  0  0  0  0  0  0  0  0  0
    1.6431    1.2757    0.0799 C   0  0  0  0  0  0  0  0  0  0  0  0
   -2.2207   -0.4467   -0.3016 C   0  0  0  0  0  0  0  0  0  0  0  0
  1  5  1  0
  2  7  1  0
  3 10  2  0
  4  5  2  0
  4  6  1  0
  4 10  1  0
  5  7  1  0
  6  8  2  0
  7  9  2  0
  8  9  1  0
M  END
>  <PUBCHEM_COMPOUND_CID>  (1) 
35745

>  <PUBCHEM_CONFORMER_RMSD>  (1) 
0.4

>  <PUBCHEM_CONFORMER_DIVERSEORDER>  (1) 
1
2

>  <PUBCHEM_MMFF94_PARTIAL_CHARGES>  (1) 
14
1 -0.18
10 0.42
11 0.15
12 0.15
13 0.15
14 0.06
2 -0.18
3 -0.57
4 0.09
5 0.18
6 -0.15
7 0.18
8 -0.15
9 -0.15

>  <PUBCHEM_EFFECTIVE_ROTOR_COUNT>  (1) 
1

>  <PUBCHEM_PHARMACOPHORE_FEATURES>  (1) 
2
1 3 acceptor
6 4 5 6 7 8 9 rings

>  <PUBCHEM_HEAVY_ATOM_COUNT>  (1) 
10

>  <PUBCHEM_ATOM_DEF_STEREO_COUNT>  (1) 
0

>  <PUBCHEM_ATOM_UDEF_STEREO_COUNT>  (1) 
0

>  <PUBCHEM_BOND_DEF_STEREO_COUNT>  (1) 
0

>  <PUBCHEM_BOND_UDEF_STEREO_COUNT>  (1) 
0

>  <PUBCHEM_ISOTOPIC_ATOM_COUNT>  (1) 
0

>  <PUBCHEM_COMPONENT_COUNT>  (1) 
1

>  <PUBCHEM_CACTVS_TAUTO_COUNT>  (1) 
1

>  <PUBCHEM_CONFORMER_ID>  (1) 
00008BA100000001

>  <PUBCHEM_MMFF94_ENERGY>  (1) 
28.0666

>  <PUBCHEM_FEATURE_SELFOVERLAP>  (1) 
10.148

>  <PUBCHEM_SHAPE_FINGERPRINT>  (1) 
10219947 1 18411702084255798075
12423570 1 9261640878525479530
16945 1 18193831772100266516
193761 8 17834112322584174662
20871998 184 18127118681052412198
20871998 22 18198352766245004615
21040471 1 18050849123908429893
23552423 10 17901957335536669014
241688 4 18338516314015414088
2748010 2 18337659837438827852
29004967 10 18334012830346807721
5084963 1 18202560674585225354
528862 383 18261949777357928248

>  <PUBCHEM_SHAPE_MULTIPOLES>  (1) 
203.67
3.45
2.29
0.65
0.46
0.13
0
0.93
0.43
-0.46
-0.08
0.05
0.02
0.01

>  <PUBCHEM_SHAPE_SELFOVERLAP>  (1) 
408.413

>  <PUBCHEM_SHAPE_VOLUME>  (1) 
121.5

>  <PUBCHEM_COORDINATE_TYPE>  (1) 
2
5
10

$$$$
