35747
     RDKit          3D

 23 23  0  0  1  0  0  0  0  0999 V2000
    0.9384   -2.5282   -0.5833 O   0  0  0  0  0  0  0  0  0  0  0  0
   -1.3932    1.3029   -1.3482 O   0  0  0  0  0  0  0  0  0  0  0  0
    2.1510    1.3581    1.6517 O   0  0  0  0  0  0  0  0  0  0  0  0
    3.7676   -1.0829    0.2361 O   0  0  0  0  0  0  0  0  0  0  0  0
    1.0422    3.3742   -0.6581 O   0  0  0  0  0  0  0  0  0  0  0  0
    1.5103   -0.6463    0.6648 N   0  0  0  0  0  0  0  0  0  0  0  0
    0.2855    1.3632    0.2654 N   0  0  0  0  0  0  0  0  0  0  0  0
   -0.7135   -0.7871   -0.3577 C   0  0  0  0  0  0  0  0  0  0  0  0
   -1.5667   -1.0573    0.8954 C   0  0  0  0  0  0  0  0  0  0  0  0
   -2.9655   -0.4479    0.7060 C   0  0  0  0  0  0  0  0  0  0  0  0
   -1.3957   -1.4443   -1.5699 C   0  0  0  0  0  0  0  0  0  0  0  0
    0.6541   -1.4165   -0.1355 C   0  0  0  0  0  0  0  0  0  0  0  0
   -0.6467    0.7193   -0.5613 C   0  0  0  0  0  0  0  0  0  0  0  0
   -1.6087   -2.5591    1.1670 C   0  0  0  0  0  0  0  0  0  0  0  0
   -3.6859   -0.1692    2.0274 C   0  0  0  0  0  0  0  0  0  0  0  0
    1.3629    0.7348    0.9320 C   0  0  0  0  0  0  0  0  0  0  0  0
   -0.5950   -1.2255   -2.8102 C   0  0  0  0  0  0  0  0  0  0  0  0
    2.7201   -1.2849    1.1727 C   0  0  0  0  0  0  0  0  0  0  0  0
    0.2185    2.8180    0.3554 C   0  0  0  0  0  0  0  0  0  0  0  0
   -5.0335    0.4972    1.7941 C   0  0  0  0  0  0  0  0  0  0  0  0
   -1.0652   -0.6014   -3.8959 C   0  0  0  0  0  0  0  0  0  0  0  0
    4.9710   -1.7114    0.6565 C   0  0  0  0  0  0  0  0  0  0  0  0
    1.0480    4.7943   -0.6043 C   0  0  0  0  0  0  0  0  0  0  0  0
  1 12  2  0
  2 13  2  0
  3 16  2  0
  4 18  1  0
  4 22  1  0
  5 19  1  0
  5 23  1  0
  6 12  1  0
  6 16  1  0
  6 18  1  0
  7 13  1  0
  7 16  1  0
  7 19  1  0
  8  9  1  0
  8 11  1  0
  8 12  1  0
  8 13  1  0
  9 10  1  0
  9 14  1  0
 10 15  1  0
 11 17  1  0
 15 20  1  0
 17 21  2  0
M  END
>  <PUBCHEM_COMPOUND_CID>  (1) 
35747

>  <PUBCHEM_CONFORMER_RMSD>  (1) 
1

>  <PUBCHEM_CONFORMER_DIVERSEORDER>  (1) 
1
16
13
18
15
2
6
12
8
17
11
14
10
5
19
3
9
7
4

>  <PUBCHEM_MMFF94_PARTIAL_CHARGES>  (1) 
21
1 -0.57
11 0.14
12 0.57
13 0.57
16 0.69
17 -0.29
18 0.58
19 0.58
2 -0.57
21 -0.3
22 0.28
23 0.28
3 -0.57
34 0.15
4 -0.56
42 0.15
43 0.15
5 -0.56
6 -0.42
7 -0.42
8 0.12

>  <PUBCHEM_EFFECTIVE_ROTOR_COUNT>  (1) 
9.6

>  <PUBCHEM_PHARMACOPHORE_FEATURES>  (1) 
9
1 1 acceptor
1 14 hydrophobe
1 2 acceptor
1 20 hydrophobe
1 21 hydrophobe
1 3 acceptor
1 4 acceptor
1 5 acceptor
6 6 7 8 12 13 16 rings

>  <PUBCHEM_HEAVY_ATOM_COUNT>  (1) 
23

>  <PUBCHEM_ATOM_DEF_STEREO_COUNT>  (1) 
0

>  <PUBCHEM_ATOM_UDEF_STEREO_COUNT>  (1) 
1

>  <PUBCHEM_BOND_DEF_STEREO_COUNT>  (1) 
0

>  <PUBCHEM_BOND_UDEF_STEREO_COUNT>  (1) 
0

>  <PUBCHEM_ISOTOPIC_ATOM_COUNT>  (1) 
0

>  <PUBCHEM_COMPONENT_COUNT>  (1) 
1

>  <PUBCHEM_CACTVS_TAUTO_COUNT>  (1) 
1

>  <PUBCHEM_CONFORMER_ID>  (1) 
00008BA300000001

>  <PUBCHEM_MMFF94_ENERGY>  (1) 
62.2788

>  <PUBCHEM_FEATURE_SELFOVERLAP>  (1) 
45.674

>  <PUBCHEM_SHAPE_FINGERPRINT>  (1) 
10756046 70 18202004382052788989
10764073 3 17338736858930412843
11578080 2 17313658369106659397
12714826 92 17095791157743597698
133893 2 17978486939675066940
14817 1 12236767533515767751
14863182 85 16311358103216864202
15534591 1 17479194397370949769
16945 1 18130223753312983467
17980427 23 18060142050769168275
20511035 2 18059304286890369755
20600515 1 18196395665685934347
20739085 24 18411987970301176200
229495 10 17626938682298374035
23419403 2 17749659787969036805
2748010 2 18123155061925083944
5845 1 11258109267494303855
621550 5 17313109639494477230
68419 9 17199664404952513959
6992083 37 17632283601536083470
81228 2 18051375571314838360

>  <PUBCHEM_SHAPE_MULTIPOLES>  (1) 
434.02
5.83
3.86
2.64
0.05
5.93
-3.2
-2.37
5.21
2.64
-0.62
-1.83
-0.95
-0.7

>  <PUBCHEM_SHAPE_SELFOVERLAP>  (1) 
874.181

>  <PUBCHEM_SHAPE_VOLUME>  (1) 
253.6

>  <PUBCHEM_COORDINATE_TYPE>  (1) 
2
5
10

$$$$
