35758
     RDKit          3D

 22 25  0  0  0  0  0  0  0  0999 V2000
    2.0475    0.1261   -2.3266 O   0  0  0  0  0  0  0  0  0  0  0  0
   -3.7537   -0.0517   -0.8402 N   0  0  0  0  0  0  0  0  0  0  0  0
   -1.3970   -0.0949    0.6186 C   0  0  0  0  0  0  0  0  0  0  0  0
   -2.2671    1.1310    0.7310 C   0  0  0  0  0  0  0  0  0  0  0  0
   -2.1403   -1.3992    0.5745 C   0  0  0  0  0  0  0  0  0  0  0  0
   -0.0629   -0.0164    0.5151 C   0  0  0  0  0  0  0  0  0  0  0  0
   -3.7194    0.8547    0.3092 C   0  0  0  0  0  0  0  0  0  0  0  0
   -3.2378   -1.3896   -0.5038 C   0  0  0  0  0  0  0  0  0  0  0  0
    0.7468   -1.2613    0.4068 C   0  0  0  0  0  0  0  0  0  0  0  0
    0.5938    1.3139    0.3867 C   0  0  0  0  0  0  0  0  0  0  0  0
    2.4040    0.1205   -0.9446 C   0  0  0  0  0  0  0  0  0  0  0  0
    1.9706   -1.1777   -0.2892 C   0  0  0  0  0  0  0  0  0  0  0  0
    1.8189    1.3653   -0.3105 C   0  0  0  0  0  0  0  0  0  0  0  0
   -5.0891   -0.1358   -1.4236 C   0  0  0  0  0  0  0  0  0  0  0  0
    0.3855   -2.4790    1.0046 C   0  0  0  0  0  0  0  0  0  0  0  0
    0.0897    2.4896    0.9650 C   0  0  0  0  0  0  0  0  0  0  0  0
    2.7827   -2.3167   -0.4093 C   0  0  0  0  0  0  0  0  0  0  0  0
    2.4870    2.5917   -0.4543 C   0  0  0  0  0  0  0  0  0  0  0  0
    1.2066   -3.6019    0.8841 C   0  0  0  0  0  0  0  0  0  0  0  0
    0.7697    3.7008    0.8223 C   0  0  0  0  0  0  0  0  0  0  0  0
    2.4010   -3.5223    0.1746 C   0  0  0  0  0  0  0  0  0  0  0  0
    1.9637    3.7531    0.1097 C   0  0  0  0  0  0  0  0  0  0  0  0
  1 11  1  0
  2  7  1  0
  2  8  1  0
  2 14  1  0
  3  4  1  0
  3  5  1  0
  3  6  2  3
  4  7  1  0
  5  8  1  0
  6  9  1  0
  6 10  1  0
  9 12  2  0
  9 15  1  0
 10 13  2  0
 10 16  1  0
 11 12  1  0
 11 13  1  0
 12 17  1  0
 13 18  1  0
 15 19  2  0
 16 20  2  0
 17 21  2  0
 18 22  2  0
 19 21  1  0
 20 22  1  0
M  END
>  <PUBCHEM_COMPOUND_CID>  (1) 
35758

>  <PUBCHEM_CONFORMER_RMSD>  (1) 
0.6

>  <PUBCHEM_CONFORMER_DIVERSEORDER>  (1) 
1

>  <PUBCHEM_MMFF94_PARTIAL_CHARGES>  (1) 
31
1 -0.68
10 0.03
11 0.57
12 -0.14
13 -0.14
14 0.27
15 -0.15
16 -0.15
17 -0.15
18 -0.15
19 -0.15
2 -0.81
20 -0.15
21 -0.15
22 -0.15
3 -0.28
35 0.15
36 0.15
37 0.15
38 0.15
39 0.15
4 0.14
40 0.15
41 0.15
42 0.15
43 0.4
5 0.14
6 -0.06
7 0.27
8 0.27
9 0.03

>  <PUBCHEM_EFFECTIVE_ROTOR_COUNT>  (1) 
1.2

>  <PUBCHEM_PHARMACOPHORE_FEATURES>  (1) 
7
1 1 acceptor
1 1 donor
1 2 cation
6 10 13 16 18 20 22 rings
6 2 3 4 5 7 8 rings
6 6 9 10 11 12 13 rings
6 9 12 15 17 19 21 rings

>  <PUBCHEM_HEAVY_ATOM_COUNT>  (1) 
22

>  <PUBCHEM_ATOM_DEF_STEREO_COUNT>  (1) 
0

>  <PUBCHEM_ATOM_UDEF_STEREO_COUNT>  (1) 
0

>  <PUBCHEM_BOND_DEF_STEREO_COUNT>  (1) 
0

>  <PUBCHEM_BOND_UDEF_STEREO_COUNT>  (1) 
0

>  <PUBCHEM_ISOTOPIC_ATOM_COUNT>  (1) 
0

>  <PUBCHEM_COMPONENT_COUNT>  (1) 
1

>  <PUBCHEM_CACTVS_TAUTO_COUNT>  (1) 
1

>  <PUBCHEM_CONFORMER_ID>  (1) 
00008BAE00000001

>  <PUBCHEM_MMFF94_ENERGY>  (1) 
101.9967

>  <PUBCHEM_FEATURE_SELFOVERLAP>  (1) 
35.562

>  <PUBCHEM_SHAPE_FINGERPRINT>  (1) 
10165383 225 17683564914081439965
104564 63 17545890325755655322
10693767 8 18130790057778502974
10764073 3 16598090536477795280
10871710 139 17616834140474340954
10930396 42 18194654139270785992
10967382 1 18337964385021615506
1100329 8 18337950220736645858
11265709 11 18194401078694989274
11370993 70 18048872189227608613
11578080 2 17699543880223830712
12035758 1 16537359449894053195
12553582 1 18194976131739715211
12730499 353 18263645233605945707
12788726 201 17691982461586794128
13004483 165 17833533618469581539
13134695 92 18265040354177748375
13140716 1 18339941401270431792
138480 1 18338797814566450760
14081887 123 17835221369324347442
14178000 15 18266731394423541843
16945 1 18337968834365128016
20600515 1 17413866527127195273
20626108 58 17845636072301045823
20775438 99 17616758480984310821
21041028 32 17831885467977345017
21304303 282 16615835889687878629
21452121 199 18267288838249982520
22112679 90 17910410393425263040
2255824 54 18412824702897245331
23114952 82 18262785346450747981
2334 1 18267602353819916832
23388829 49 17903368013186736930
23419403 2 17318122279110090752
23559900 14 18339911693197682419
238 59 18127692849296769901
257057 1 18123184602488567184
2748010 2 16615060811352409976
3091708 16 9360112250803460056
34934 24 18268714904889204074
352729 6 17692541425958641320
5262128 65 17845117153935436397
6438718 38 17193185670082781093
6443956 14 18336257934353886162
7164475 11 17690278214195551082
7364860 26 18410849971313068395
7471813 234 18268137656873843791
81228 2 17760082921755703570
84936 182 18339923821990225321
9925002 15 17762344617253198408
9981440 41 18049714423555400856

>  <PUBCHEM_SHAPE_MULTIPOLES>  (1) 
441.9
5.97
4.81
1.24
8.95
0.84
0.47
-0.93
2.76
-5.08
-1.44
0.08
-0.01
-0.42

>  <PUBCHEM_SHAPE_SELFOVERLAP>  (1) 
975.82

>  <PUBCHEM_SHAPE_VOLUME>  (1) 
235

>  <PUBCHEM_COORDINATE_TYPE>  (1) 
2
5
10

$$$$
