35755
     RDKit          3D

 20 21  0  0  0  0  0  0  0  0999 V2000
   -0.3788   -1.1880   -0.5761 O   0  0  0  0  0  0  0  0  0  0  0  0
   -2.6588   -2.0817    0.2761 O   0  0  0  0  0  0  0  0  0  0  0  0
    6.6437    1.7539    0.6190 O   0  0  0  0  0  0  0  0  0  0  0  0
   -3.7050   -0.0119    0.4117 N   0  0  0  0  0  0  0  0  0  0  0  0
    5.2709    1.5483    0.4693 N   0  0  0  0  0  0  0  0  0  0  0  0
   -6.1717    1.4022   -0.1153 C   0  0  0  0  0  0  0  0  0  0  0  0
   -6.1333   -0.1203    0.0069 C   0  0  0  0  0  0  0  0  0  0  0  0
   -4.8234    1.9465   -0.5849 C   0  0  0  0  0  0  0  0  0  0  0  0
   -4.9713   -0.5745    0.8859 C   0  0  0  0  0  0  0  0  0  0  0  0
   -3.6847    1.4525    0.3047 C   0  0  0  0  0  0  0  0  0  0  0  0
   -2.6281   -0.8557    0.1421 C   0  0  0  0  0  0  0  0  0  0  0  0
   -1.3609   -0.1993   -0.3448 C   0  0  0  0  0  0  0  0  0  0  0  0
    0.9345   -0.8180   -0.4093 C   0  0  0  0  0  0  0  0  0  0  0  0
    1.8652   -1.7645   -0.0030 C   0  0  0  0  0  0  0  0  0  0  0  0
    1.3109    0.4961   -0.6510 C   0  0  0  0  0  0  0  0  0  0  0  0
    3.5875   -0.0719   -0.0750 C   0  0  0  0  0  0  0  0  0  0  0  0
    3.1982   -1.3895    0.1650 C   0  0  0  0  0  0  0  0  0  0  0  0
    2.6440    0.8710   -0.4830 C   0  0  0  0  0  0  0  0  0  0  0  0
    4.9774    0.3193    0.0999 C   0  0  0  0  0  0  0  0  0  0  0  0
    6.0836   -0.7145   -0.1382 C   0  0  0  0  0  0  0  0  0  0  0  0
  1 12  1  0
  1 13  1  0
  2 11  2  0
  3  5  1  0
  4  9  1  0
  4 10  1  0
  4 11  1  0
  5 19  2  0
  6  7  1  0
  6  8  1  0
  7  9  1  0
  8 10  1  0
 11 12  1  0
 13 14  2  0
 13 15  1  0
 14 17  1  0
 15 18  2  0
 16 17  2  0
 16 18  1  0
 16 19  1  0
 19 20  1  0
M  END
>  <PUBCHEM_COMPOUND_CID>  (1) 
35755

>  <PUBCHEM_CONFORMER_RMSD>  (1) 
0.8

>  <PUBCHEM_CONFORMER_DIVERSEORDER>  (1) 
1
56
57
45
53
83
63
86
54
34
9
51
84
40
61
87
33
42
67
79
80
41
91
58
37
66
27
30
60
78
47
74
88
39
12
68
22
90
50
65
14
59
49
38
15
75
8
94
7
64
46
31
20
77
16
44
43
2
29
73
19
85
95
4
76
71
10
17
62
24
35
55
11
3
21
69
92
72
36
5
52
82
89
13
23
70
81
6
32
18
26
48
25
28
93

>  <PUBCHEM_MMFF94_PARTIAL_CHARGES>  (1) 
22
1 -0.36
10 0.3
11 0.57
12 0.34
13 0.08
14 -0.15
15 -0.15
16 0.09
17 -0.15
18 -0.15
19 0.3
2 -0.57
20 0.06
3 -0.34
33 0.15
34 0.15
35 0.15
36 0.15
4 -0.66
40 0.4
5 -0.51
9 0.3

>  <PUBCHEM_EFFECTIVE_ROTOR_COUNT>  (1) 
6.2

>  <PUBCHEM_PHARMACOPHORE_FEATURES>  (1) 
6
1 1 acceptor
1 2 acceptor
1 3 anion
1 5 acceptor
6 13 14 15 16 17 18 rings
6 4 6 7 8 9 10 rings

>  <PUBCHEM_HEAVY_ATOM_COUNT>  (1) 
20

>  <PUBCHEM_ATOM_DEF_STEREO_COUNT>  (1) 
0

>  <PUBCHEM_ATOM_UDEF_STEREO_COUNT>  (1) 
0

>  <PUBCHEM_BOND_DEF_STEREO_COUNT>  (1) 
0

>  <PUBCHEM_BOND_UDEF_STEREO_COUNT>  (1) 
1

>  <PUBCHEM_ISOTOPIC_ATOM_COUNT>  (1) 
0

>  <PUBCHEM_COMPONENT_COUNT>  (1) 
1

>  <PUBCHEM_CACTVS_TAUTO_COUNT>  (1) 
2

>  <PUBCHEM_CONFORMER_ID>  (1) 
00008BAB00000001

>  <PUBCHEM_MMFF94_ENERGY>  (1) 
53.5564

>  <PUBCHEM_FEATURE_SELFOVERLAP>  (1) 
30.459

>  <PUBCHEM_SHAPE_FINGERPRINT>  (1) 
10 15 18259983808029476008
10354089 29 18259705597090415726
11089746 13 17988918968454892108
11128504 68 14476953502203161731
117890 112 18408604742910050709
12107183 9 17613996288167476363
12236239 1 18201718465847961070
12507557 5 18334581248231570061
12596602 18 18040996241303278273
12633257 1 16588307228158127030
13073987 5 18188210906003998659
13288520 33 9079114462756417435
13402501 40 18412543202209318425
13403585 85 18335421283683792665
14251732 16 18410292540619410755
14251764 18 18040998457458812678
14341114 176 18408891732498181954
14350574 20 10303809882536670095
15048467 5 18341893008908539440
15188451 53 16371302142187330083
15196674 1 18337392639191456061
15238133 3 17894923905418683548
193927 3 11746930954413668866
19489759 90 17676490536747645153
20281389 69 18410011035483100400
20645477 56 18411419510178935759
20645477 70 17059787602316128030
21033648 29 18200863098063663920
21150785 3 16415473874348922973
21315764 268 18410569578906142700
23035841 295 9367350331617594885
23402539 116 18410852166690190335
23559900 14 18411983529368256251
25122255 55 7997693133598540904
2767999 5 17847057779020811432
2916195 48 18408602556813862721
300161 21 18410853265532034687
314173 85 15213305188289480799
351380 180 18334860489941065013
351380 3 7925911465486783433
3545911 37 18411704270330880695
4073 2 18041003985688891226
4214541 1 18334580131481726015
4325135 7 18202560684182689983
465052 167 11241969270290667936
5104073 3 18188778240944910931
542803 24 16200154283367523971
59682541 35 18335993047395253347
59755656 215 18338522937271865462

>  <PUBCHEM_SHAPE_MULTIPOLES>  (1) 
384.02
17.32
1.9
0.76
0.6
0.14
0
7.2
2.38
-0.04
0.09
-0.09
0.06
0.9

>  <PUBCHEM_SHAPE_SELFOVERLAP>  (1) 
793.392

>  <PUBCHEM_SHAPE_VOLUME>  (1) 
219.2

>  <PUBCHEM_COORDINATE_TYPE>  (1) 
2
5
10

$$$$
