35751
     RDKit          3D

 19 20  0  0  0  0  0  0  0  0999 V2000
    0.0179    1.2231   -0.6171 O   0  0  0  0  0  0  0  0  0  0  0  0
   -2.2383    2.1336    0.0680 O   0  0  0  0  0  0  0  0  0  0  0  0
    6.0499    0.0675    0.9786 O   0  0  0  0  0  0  0  0  0  0  0  0
   -3.4460    0.1875   -0.3222 N   0  0  0  0  0  0  0  0  0  0  0  0
   -5.5496   -1.5073    0.7093 C   0  0  0  0  0  0  0  0  0  0  0  0
   -5.4101   -0.0501    1.1469 C   0  0  0  0  0  0  0  0  0  0  0  0
   -4.1992   -2.0810    0.2825 C   0  0  0  0  0  0  0  0  0  0  0  0
   -4.7235    0.7862    0.0706 C   0  0  0  0  0  0  0  0  0  0  0  0
   -3.5340   -1.2057   -0.7775 C   0  0  0  0  0  0  0  0  0  0  0  0
   -2.2801    0.9517   -0.2833 C   0  0  0  0  0  0  0  0  0  0  0  0
   -1.0060    0.2616   -0.7004 C   0  0  0  0  0  0  0  0  0  0  0  0
    1.2949    0.7678   -0.3749 C   0  0  0  0  0  0  0  0  0  0  0  0
    1.6661   -0.4907   -0.8241 C   0  0  0  0  0  0  0  0  0  0  0  0
    2.1875    1.5766    0.3125 C   0  0  0  0  0  0  0  0  0  0  0  0
    3.8674   -0.1482    0.1103 C   0  0  0  0  0  0  0  0  0  0  0  0
    2.9598   -0.9514   -0.5799 C   0  0  0  0  0  0  0  0  0  0  0  0
    3.4814    1.1158    0.5565 C   0  0  0  0  0  0  0  0  0  0  0  0
    5.2165   -0.6283    0.3647 C   0  0  0  0  0  0  0  0  0  0  0  0
    5.6453   -2.0087   -0.1204 C   0  0  0  0  0  0  0  0  0  0  0  0
  1 11  1  0
  1 12  1  0
  2 10  2  0
  3 18  2  0
  4  8  1  0
  4  9  1  0
  4 10  1  0
  5  6  1  0
  5  7  1  0
  6  8  1  0
  7  9  1  0
 10 11  1  0
 12 13  2  0
 12 14  1  0
 13 16  1  0
 14 17  2  0
 15 16  2  0
 15 17  1  0
 15 18  1  0
 18 19  1  0
M  END
>  <PUBCHEM_COMPOUND_CID>  (1) 
35751

>  <PUBCHEM_CONFORMER_RMSD>  (1) 
0.8

>  <PUBCHEM_CONFORMER_DIVERSEORDER>  (1) 
1
57
19
23
4
45
39
59
74
21
30
55
34
41
12
5
35
15
36
51
26
40
16
49
28
14
27
22
58
32
13
18
20
46
69
8
75
17
43
54
42
72
60
44
31
6
2
10
48
66
24
33
62
68
61
56
47
70
25
29
9
67
76
64
3
77
50
52
63
38
71
7
73
65
78
11
53
37

>  <PUBCHEM_MMFF94_PARTIAL_CHARGES>  (1) 
20
1 -0.36
10 0.57
11 0.34
12 0.08
13 -0.15
14 -0.15
15 0.09
16 -0.15
17 -0.15
18 0.42
19 0.06
2 -0.57
3 -0.57
32 0.15
33 0.15
34 0.15
35 0.15
4 -0.66
8 0.3
9 0.3

>  <PUBCHEM_EFFECTIVE_ROTOR_COUNT>  (1) 
6.2

>  <PUBCHEM_PHARMACOPHORE_FEATURES>  (1) 
5
1 1 acceptor
1 2 acceptor
1 3 acceptor
6 12 13 14 15 16 17 rings
6 4 5 6 7 8 9 rings

>  <PUBCHEM_HEAVY_ATOM_COUNT>  (1) 
19

>  <PUBCHEM_ATOM_DEF_STEREO_COUNT>  (1) 
0

>  <PUBCHEM_ATOM_UDEF_STEREO_COUNT>  (1) 
0

>  <PUBCHEM_BOND_DEF_STEREO_COUNT>  (1) 
0

>  <PUBCHEM_BOND_UDEF_STEREO_COUNT>  (1) 
0

>  <PUBCHEM_ISOTOPIC_ATOM_COUNT>  (1) 
0

>  <PUBCHEM_COMPONENT_COUNT>  (1) 
1

>  <PUBCHEM_CACTVS_TAUTO_COUNT>  (1) 
2

>  <PUBCHEM_CONFORMER_ID>  (1) 
00008BA700000001

>  <PUBCHEM_MMFF94_ENERGY>  (1) 
46.3482

>  <PUBCHEM_FEATURE_SELFOVERLAP>  (1) 
25.39

>  <PUBCHEM_SHAPE_FINGERPRINT>  (1) 
12507557 5 13830127317532327363
12596602 18 16343698863442450610
12633257 1 16988280975362048335
12670543 26 8142093078380245576
13167823 11 18335417975968059587
13668630 136 15430039855004154739
13955234 65 18339920545595213320
14123255 352 10592043557064996614
1420 363 18408044000559373982
1420 369 18187365445517327643
14251751 18 18410577296703274291
14251764 18 18060140964253231323
14341114 176 18272090483154447912
15183329 4 8502384342772812924
15188451 53 18342173432114537511
15348495 7 18130784607105879059
15537594 2 17458341918768517995
15880784 105 18340491161658446107
17349148 13 17095243613747773914
17780758 139 18272090496287328529
17844677 252 18259989279570144685
17959699 21 9727633912498325118
1813 80 17603870017719206269
18222031 100 17167859777205057116
19050596 39 18272933847064270597
193927 3 17822301214254798755
20028762 73 18341330092978292471
20281389 69 11887956540363997954
20645477 56 9727632808886824469
20645477 70 12613023960379387256
21150785 3 15936701423597367758
21267235 1 18271529694313511622
21403212 168 18339653240237286681
21637258 2 16950553364633402074
23402539 116 17967247589907979245
23522609 53 18046379441675453628
23559900 14 18409158935499469729
26918003 58 18343018887356551641
2767999 5 12319736951304045426
2838139 119 9799694779101067490
2916195 48 10879983662331592022
29717793 49 13912598326056752162
300161 21 10015579489479428356
351380 3 17821727243162263875
42 15 18411982463942034349
4214541 1 18410573964188707429
465052 167 18412827959105104062
49783359 22 18411417332451181655
5104073 3 18272370901295001801
559249 180 18260264140940232231
5924683 9 17703223053138027551
59755656 215 18261387785277309127
7495541 125 18408603682380481556

>  <PUBCHEM_SHAPE_MULTIPOLES>  (1) 
368.42
15.21
1.93
0.92
1.44
0.27
-0.05
6.78
-4.65
-0.44
-0.06
-0.21
0.06
0.56

>  <PUBCHEM_SHAPE_SELFOVERLAP>  (1) 
764.604

>  <PUBCHEM_SHAPE_VOLUME>  (1) 
209.1

>  <PUBCHEM_COORDINATE_TYPE>  (1) 
2
5
10

$$$$
