35757
     RDKit          3D

 13 13  0  0  0  0  0  0  0  0999 V2000
    0.2161    0.1358    0.0003 O   0  0  0  0  0  0  0  0  0  0  0  0
   -3.3582   -0.1329   -0.0006 O   0  0  0  0  0  0  0  0  0  0  0  0
   -2.0575    1.7664    0.0012 O   0  0  0  0  0  0  0  0  0  0  0  0
    2.4713    1.7185    0.0003 O   0  0  0  0  0  0  0  0  0  0  0  0
    2.4173   -0.6450   -0.0003 N   0  0  0  0  0  0  0  0  0  0  0  0
    1.0772   -0.9153   -0.0007 C   0  0  0  0  0  0  0  0  0  0  0  0
   -1.0375   -0.3888    0.0013 C   0  0  0  0  0  0  0  0  0  0  0  0
    0.3871   -2.1052   -0.0002 C   0  0  0  0  0  0  0  0  0  0  0  0
   -0.9862   -1.7632    0.0011 C   0  0  0  0  0  0  0  0  0  0  0  0
   -2.1387    0.5130    0.0010 C   0  0  0  0  0  0  0  0  0  0  0  0
    3.0242    0.6237   -0.0009 C   0  0  0  0  0  0  0  0  0  0  0  0
    4.5297    0.5250   -0.0003 C   0  0  0  0  0  0  0  0  0  0  0  0
   -4.5447    0.6682   -0.0022 C   0  0  0  0  0  0  0  0  0  0  0  0
  1  6  1  0
  1  7  1  0
  2 10  1  0
  2 13  1  0
  3 10  2  0
  4 11  2  0
  5  6  1  0
  5 11  1  0
  6  8  2  0
  7  9  2  0
  7 10  1  0
  8  9  1  0
 11 12  1  0
M  END
>  <PUBCHEM_COMPOUND_CID>  (1) 
35757

>  <PUBCHEM_CONFORMER_RMSD>  (1) 
0.6

>  <PUBCHEM_CONFORMER_DIVERSEORDER>  (1) 
1
7
11
12
3
5
6
8
9
10
2
4

>  <PUBCHEM_MMFF94_PARTIAL_CHARGES>  (1) 
16
1 -0.28
10 0.81
11 0.57
12 0.06
13 0.28
14 0.15
15 0.15
16 0.37
2 -0.43
3 -0.57
4 -0.57
5 -0.49
6 0.2
7 0.05
8 -0.15
9 -0.15

>  <PUBCHEM_EFFECTIVE_ROTOR_COUNT>  (1) 
4

>  <PUBCHEM_PHARMACOPHORE_FEATURES>  (1) 
5
1 1 acceptor
1 3 acceptor
1 4 acceptor
1 5 donor
5 1 6 7 8 9 rings

>  <PUBCHEM_HEAVY_ATOM_COUNT>  (1) 
13

>  <PUBCHEM_ATOM_DEF_STEREO_COUNT>  (1) 
0

>  <PUBCHEM_ATOM_UDEF_STEREO_COUNT>  (1) 
0

>  <PUBCHEM_BOND_DEF_STEREO_COUNT>  (1) 
0

>  <PUBCHEM_BOND_UDEF_STEREO_COUNT>  (1) 
0

>  <PUBCHEM_ISOTOPIC_ATOM_COUNT>  (1) 
0

>  <PUBCHEM_COMPONENT_COUNT>  (1) 
1

>  <PUBCHEM_CACTVS_TAUTO_COUNT>  (1) 
4

>  <PUBCHEM_CONFORMER_ID>  (1) 
00008BAD00000001

>  <PUBCHEM_MMFF94_ENERGY>  (1) 
18.6854

>  <PUBCHEM_FEATURE_SELFOVERLAP>  (1) 
25.381

>  <PUBCHEM_SHAPE_FINGERPRINT>  (1) 
10608611 8 18191022301217173501
122479 349 18334860562222318594
12346645 44 18342178817533593129
13380535 76 18411419518341855782
14325111 11 18410575058951375363
14897335 6 18411979169797206622
15775835 57 18411139138438932548
170605 34 18336547127197112147
17802600 8 18410568487804802544
17846911 113 18411696599471797921
18186145 218 18272378520440188845
20645477 56 18340205297457377424
21499 59 18410568483620365007
21524375 3 18410573981030817010
23402539 116 18271516576338476284
23402655 69 18272645706572610181
23559900 14 18130789006249791608
366044 4 18410573998052489170
449060 62 18340769252179789033
4990 188 17775573030488168455
6333272 397 18408605863780405571
6333449 129 18339922730989417287
69090 78 18272649073426089070
7364860 26 18268711606470995374

>  <PUBCHEM_SHAPE_MULTIPOLES>  (1) 
239.08
7.31
1.83
0.58
0.07
0.45
0
-3.73
0
0.02
0
0
0.02
0

>  <PUBCHEM_SHAPE_SELFOVERLAP>  (1) 
491.842

>  <PUBCHEM_SHAPE_VOLUME>  (1) 
137.5

>  <PUBCHEM_COORDINATE_TYPE>  (1) 
2
5
10

$$$$
