3575
     RDKit          3D

 17 19  0  0  1  0  0  0  0  0999 V2000
   -1.3992    1.4274   -0.6346 O   0  0  0  0  0  0  0  0  0  0  0  0
   -3.4023    1.6394    0.4826 O   0  0  0  0  0  0  0  0  0  0  0  0
    1.3080   -1.0255    0.4760 C   0  0  0  0  0  0  0  0  0  0  0  0
    0.5711    0.3426    0.3207 C   0  0  0  0  0  0  0  0  0  0  0  0
   -0.4522    0.3532   -0.8506 C   0  0  0  0  0  0  0  0  0  0  0  0
   -1.3379   -0.8797   -0.9841 C   0  0  0  0  0  0  0  0  0  0  0  0
    0.2971   -2.1964    0.4413 C   0  0  0  0  0  0  0  0  0  0  0  0
   -0.6051   -2.1978   -0.7849 C   0  0  0  0  0  0  0  0  0  0  0  0
    2.3556   -1.1709   -0.6556 C   0  0  0  0  0  0  0  0  0  0  0  0
    1.5568    1.4996    0.1369 C   0  0  0  0  0  0  0  0  0  0  0  0
    2.0163   -1.1011    1.8538 C   0  0  0  0  0  0  0  0  0  0  0  0
    3.3800   -0.0340   -0.6727 C   0  0  0  0  0  0  0  0  0  0  0  0
   -2.4345   -0.5153   -0.0400 C   0  0  0  0  0  0  0  0  0  0  0  0
    2.8093    1.3043   -0.3142 C   0  0  0  0  0  0  0  0  0  0  0  0
   -2.5136    0.9603    0.0026 C   0  0  0  0  0  0  0  0  0  0  0  0
    1.0884    2.8756    0.5223 C   0  0  0  0  0  0  0  0  0  0  0  0
   -3.2379   -1.2818    0.7006 C   0  0  0  0  0  0  0  0  0  0  0  0
  1  5  1  0
  1 15  1  0
  2 15  2  0
  3  4  1  0
  3  7  1  0
  3  9  1  0
  3 11  1  0
  4  5  1  0
  4 10  1  0
  5  6  1  0
  6  8  1  0
  6 13  1  0
  7  8  1  0
  9 12  1  0
 10 14  2  0
 10 16  1  0
 12 14  1  0
 13 15  1  0
 13 17  2  0
M  END
>  <PUBCHEM_COMPOUND_CID>  (1) 
3575

>  <PUBCHEM_CONFORMER_RMSD>  (1) 
0.6

>  <PUBCHEM_CONFORMER_DIVERSEORDER>  (1) 
3
9
6
12
2
14
8
15
5
1
17
7
10
4
13
16
11

>  <PUBCHEM_MMFF94_PARTIAL_CHARGES>  (1) 
15
1 -0.43
10 -0.28
12 0.14
13 -0.12
14 -0.29
15 0.71
16 0.14
17 -0.3
2 -0.57
32 0.15
36 0.15
37 0.15
4 0.14
5 0.28
6 0.14

>  <PUBCHEM_EFFECTIVE_ROTOR_COUNT>  (1) 
1

>  <PUBCHEM_PHARMACOPHORE_FEATURES>  (1) 
4
1 2 acceptor
5 1 5 6 13 15 rings
6 3 4 5 6 7 8 rings
6 3 4 9 10 12 14 rings

>  <PUBCHEM_HEAVY_ATOM_COUNT>  (1) 
17

>  <PUBCHEM_ATOM_DEF_STEREO_COUNT>  (1) 
0

>  <PUBCHEM_ATOM_UDEF_STEREO_COUNT>  (1) 
4

>  <PUBCHEM_BOND_DEF_STEREO_COUNT>  (1) 
0

>  <PUBCHEM_BOND_UDEF_STEREO_COUNT>  (1) 
0

>  <PUBCHEM_ISOTOPIC_ATOM_COUNT>  (1) 
0

>  <PUBCHEM_COMPONENT_COUNT>  (1) 
1

>  <PUBCHEM_CACTVS_TAUTO_COUNT>  (1) 
1

>  <PUBCHEM_CONFORMER_ID>  (1) 
00000DF700000003

>  <PUBCHEM_MMFF94_ENERGY>  (1) 
38.2

>  <PUBCHEM_FEATURE_SELFOVERLAP>  (1) 
20.523

>  <PUBCHEM_SHAPE_FINGERPRINT>  (1) 
104564 63 17624135997109842920
10863032 1 18411146809250581694
10967382 1 18267869380357883957
10980938 120 18337110068523539088
12382932 28 18267288842460495322
12491281 212 18339089309902426838
12633257 1 18190183391156607235
12654903 92 18131351903829908702
12696612 119 18336815455357713256
12808571 1 18413394241109089135
13140716 1 18338509733977622232
13172582 1 18268133297661249850
13221675 6 18339361979985262150
14223421 5 18265616661795626795
14386348 128 18408324388661595012
14787075 74 17393334625205703659
15375462 189 18041841697178437834
15490181 7 18192134096013384188
15775835 57 18335145275609625684
16945 1 18269831093875126926
17844478 74 18261120728452868467
18981168 100 17774428507613699441
19422 9 18333456434466013774
20511035 2 17477462236675364158
21501502 16 18261388919238170491
22802520 49 17980208796353751806
2334 1 18410568509078880261
23419403 2 15381865130927195086
23558518 356 18048032170796843589
238 59 17757794924253281037
25 1 18409173186174084062
2748010 2 18411409592577236076
528886 8 18271244924284345598
5939293 188 18341609283037136984
7364860 26 18129096891307144584
74978 22 18343292695499959181
7832392 63 18344145899411906812

>  <PUBCHEM_SHAPE_MULTIPOLES>  (1) 
338.11
4.83
2.59
1.12
1.31
0.69
-0.26
0.71
-0.2
-0.14
-0.29
-0.32
-0.37
-0.15

>  <PUBCHEM_SHAPE_SELFOVERLAP>  (1) 
723.694

>  <PUBCHEM_SHAPE_VOLUME>  (1) 
186.3

>  <PUBCHEM_COORDINATE_TYPE>  (1) 
2
5
10

$$$$
