35765
     RDKit          3D

 17 18  0  0  0  0  0  0  0  0999 V2000
   -1.5496    0.7090    2.1138 F   0  0  0  0  0  0  0  0  0  0  0  0
    0.0352    2.2578   -0.3849 O   0  0  0  0  0  0  0  0  0  0  0  0
    3.1409   -0.4973    0.0332 N   0  0  0  0  0  0  0  0  0  0  0  0
    2.4221   -1.6281    0.1372 N   0  0  0  0  0  0  0  0  0  0  0  0
    2.9436    1.8474   -0.2423 N   0  0  0  0  0  0  0  0  0  0  0  0
    1.1128    0.1735   -0.1169 C   0  0  0  0  0  0  0  0  0  0  0  0
    2.3823    0.6255   -0.1229 C   0  0  0  0  0  0  0  0  0  0  0  0
    1.1618   -1.1960    0.0422 C   0  0  0  0  0  0  0  0  0  0  0  0
   -0.0831    1.0292   -0.2604 C   0  0  0  0  0  0  0  0  0  0  0  0
   -1.4193    0.4547   -0.2449 C   0  0  0  0  0  0  0  0  0  0  0  0
    0.0560   -2.1670    0.1146 C   0  0  0  0  0  0  0  0  0  0  0  0
    4.5831   -0.5777    0.0877 C   0  0  0  0  0  0  0  0  0  0  0  0
   -2.1083    0.3162    0.9601 C   0  0  0  0  0  0  0  0  0  0  0  0
   -2.0119    0.0425   -1.4384 C   0  0  0  0  0  0  0  0  0  0  0  0
   -3.3899   -0.2345    0.9713 C   0  0  0  0  0  0  0  0  0  0  0  0
   -3.2935   -0.5083   -1.4270 C   0  0  0  0  0  0  0  0  0  0  0  0
   -3.9823   -0.6468   -0.2223 C   0  0  0  0  0  0  0  0  0  0  0  0
  1 13  1  0
  2  9  2  0
  3  4  1  0
  3  7  1  0
  3 12  1  0
  4  8  2  0
  5  7  1  0
  6  7  2  0
  6  8  1  0
  6  9  1  0
  8 11  1  0
  9 10  1  0
 10 13  2  0
 10 14  1  0
 13 15  1  0
 14 16  2  0
 15 17  2  0
 16 17  1  0
M  END
>  <PUBCHEM_COMPOUND_CID>  (1) 
35765

>  <PUBCHEM_CONFORMER_RMSD>  (1) 
0.6

>  <PUBCHEM_CONFORMER_DIVERSEORDER>  (1) 
3
16
11
8
15
17
18
14
7
13
12
19
20
6
2
9
4
5
1
10

>  <PUBCHEM_MMFF94_PARTIAL_CHARGES>  (1) 
23
1 -0.19
10 0.09
11 0.18
12 0.26
13 0.19
14 -0.15
15 -0.15
16 -0.15
17 -0.15
2 -0.57
24 0.4
25 0.4
26 0.15
27 0.15
28 0.15
29 0.15
3 0.31
4 -0.71
5 -0.88
6 -0.09
7 -0.07
8 0.11
9 0.57

>  <PUBCHEM_EFFECTIVE_ROTOR_COUNT>  (1) 
2

>  <PUBCHEM_PHARMACOPHORE_FEATURES>  (1) 
6
1 2 acceptor
1 4 acceptor
1 5 cation
1 5 donor
5 3 4 6 7 8 rings
6 10 13 14 15 16 17 rings

>  <PUBCHEM_HEAVY_ATOM_COUNT>  (1) 
17

>  <PUBCHEM_ATOM_DEF_STEREO_COUNT>  (1) 
0

>  <PUBCHEM_ATOM_UDEF_STEREO_COUNT>  (1) 
0

>  <PUBCHEM_BOND_DEF_STEREO_COUNT>  (1) 
0

>  <PUBCHEM_BOND_UDEF_STEREO_COUNT>  (1) 
0

>  <PUBCHEM_ISOTOPIC_ATOM_COUNT>  (1) 
0

>  <PUBCHEM_COMPONENT_COUNT>  (1) 
1

>  <PUBCHEM_CACTVS_TAUTO_COUNT>  (1) 
7

>  <PUBCHEM_CONFORMER_ID>  (1) 
00008BB500000003

>  <PUBCHEM_MMFF94_ENERGY>  (1) 
42.3347

>  <PUBCHEM_FEATURE_SELFOVERLAP>  (1) 
30.446

>  <PUBCHEM_SHAPE_FINGERPRINT>  (1) 
11132069 177 18272078414185667310
11578080 2 17629728311097393297
12236239 1 17989487429041206367
12500047 106 15357693085070904114
13140716 1 18264767834787949186
13296908 3 17894630365873524109
13581323 91 16774077358211999655
13862211 1 18336539439960208082
14251717 144 18409726291957052303
15207287 21 17603302674256911907
15209289 33 18131352994699204994
15219456 202 17822007640234019469
15309172 13 18409453587145570739
15375462 189 17988641930374700547
15852999 172 16009027233467643763
16945 1 18408324359134679582
18175812 5 17530966899149710871
18186145 218 18412825806561298980
18534176 82 16370448843247894349
19422 9 17917996083106558799
200 152 18341886390274252575
20201158 50 17894349956154288955
20279233 1 17603303756319482347
204376 136 18119247509353851468
20645477 70 18337660958530677127
21061003 4 18334298673437237629
22112679 90 17489591194655339153
23236772 104 17989210369275051763
23402539 116 18273208686353380198
23493267 7 16878219775422292772
23559900 14 16225760805656558136
2748010 2 17977659806562882710
474 4 17699556249993620656
57812782 119 17385721387392953702
63268167 104 18411978100286728117
77492 1 17989489636559476957
81228 2 17532088285194307405

>  <PUBCHEM_SHAPE_MULTIPOLES>  (1) 
321.77
6.85
1.72
1.18
2.07
0.05
0.21
-1.2
-0.24
0.98
-0.05
-1.29
0.12
-0.32

>  <PUBCHEM_SHAPE_SELFOVERLAP>  (1) 
701.173

>  <PUBCHEM_SHAPE_VOLUME>  (1) 
177.5

>  <PUBCHEM_COORDINATE_TYPE>  (1) 
2
5
10

$$$$
