35764
     RDKit          3D

 24 25  0  0  0  0  0  0  0  0999 V2000
   -2.7528    0.3248    0.9575 O   0  0  0  0  0  0  0  0  0  0  0  0
    2.7645   -0.3239   -0.9546 O   0  0  0  0  0  0  0  0  0  0  0  0
   -8.0780    0.1644   -0.4559 O   0  0  0  0  0  0  0  0  0  0  0  0
    8.0892   -0.1682    0.4612 O   0  0  0  0  0  0  0  0  0  0  0  0
   -2.2220   -0.2221   -1.2553 O   0  0  0  0  0  0  0  0  0  0  0  0
    2.1985    0.2284    1.2470 O   0  0  0  0  0  0  0  0  0  0  0  0
   -4.1028    0.2843    0.5993 C   0  0  0  0  0  0  0  0  0  0  0  0
    4.0792   -0.2855   -0.6051 C   0  0  0  0  0  0  0  0  0  0  0  0
   -6.7628    0.2042   -0.1067 C   0  0  0  0  0  0  0  0  0  0  0  0
    6.7742   -0.2066    0.1112 C   0  0  0  0  0  0  0  0  0  0  0  0
   -4.7024    1.4395    0.1495 C   0  0  0  0  0  0  0  0  0  0  0  0
    4.7942    0.9077   -0.7103 C   0  0  0  0  0  0  0  0  0  0  0  0
   -4.7803   -0.9094    0.7101 C   0  0  0  0  0  0  0  0  0  0  0  0
    4.7116   -1.4391   -0.1419 C   0  0  0  0  0  0  0  0  0  0  0  0
   -6.0500    1.3988   -0.2080 C   0  0  0  0  0  0  0  0  0  0  0  0
    6.1417    0.9470   -0.3521 C   0  0  0  0  0  0  0  0  0  0  0  0
   -6.1280   -0.9499    0.3524 C   0  0  0  0  0  0  0  0  0  0  0  0
    6.0591   -1.3997    0.2163 C   0  0  0  0  0  0  0  0  0  0  0  0
   -1.9087    0.0432   -0.1049 C   0  0  0  0  0  0  0  0  0  0  0  0
    1.8852   -0.0382    0.0971 C   0  0  0  0  0  0  0  0  0  0  0  0
   -0.5228    0.1203    0.4112 C   0  0  0  0  0  0  0  0  0  0  0  0
    0.4993   -0.1146   -0.4194 C   0  0  0  0  0  0  0  0  0  0  0  0
   -8.7459   -1.0897   -0.3279 C   0  0  0  0  0  0  0  0  0  0  0  0
    8.7598    1.0841    0.3289 C   0  0  0  0  0  0  0  0  0  0  0  0
  1  7  1  0
  1 19  1  0
  2  8  1  0
  2 20  1  0
  3  9  1  0
  3 23  1  0
  4 10  1  0
  4 24  1  0
  5 19  2  0
  6 20  2  0
  7 11  2  0
  7 13  1  0
  8 12  2  0
  8 14  1  0
  9 15  2  0
  9 17  1  0
 10 16  2  0
 10 18  1  0
 11 15  1  0
 12 16  1  0
 13 17  2  0
 14 18  2  0
 19 21  1  0
 20 22  1  0
 21 22  2  0
M  END
>  <PUBCHEM_COMPOUND_CID>  (1) 
35764

>  <PUBCHEM_CONFORMER_RMSD>  (1) 
0.8

>  <PUBCHEM_CONFORMER_DIVERSEORDER>  (1) 
1
154
136
265
31
224
63
175
217
147
26
269
120
240
50
235
232
5
195
4
139
164
191
51
251
186
273
7
279
126
184
21
239
174
227
27
43
236
229
8
9
222
283
254
54
257
150
230
93
3
281
188
23
90
167
242
71
238
152
138
110
272
193
10
244
252
125
52
177
210
74
202
105
20
271
135
223
104
263
133
22
212
258
127
288
277
201
12
88
204
112
156
121
57
106
18
145
2
246
284
64
287
146
226
95
39
48
29
161
76
219
247
114
264
153
181
192
79
122
35
94
87
250
253
245
49
37
231
241
15
91
99
285
151
216
14
119
85
199
116
170
73
100
107
19
130
40
200
233
129
113
41
92
70
42
166
117
131
77
266
109
141
59
148
185
276
176
183
228
16
128
197
60
111
75
187
66
102
108
213
182
118
82
255
259
84
278
28
234
243
124
178
62
190
83
33
13
134
169
98
123
179
149
270
221
137
274
30
38
24
208
218
268
34
248
207
80
196
32
89
173
68
275
180
282
46
45
115
165
53
58
168
143
97
249
160
96
267
262
203
78
81
144
101
157
72
11
103
155
260
162
237
256
159
6
280
205
47
44
86
25
142
211
69
189
67
261
55
206
140
225
220
158
56
36
194
171
132
214
17
198
286
61
172
215
209
163
65

>  <PUBCHEM_MMFF94_PARTIAL_CHARGES>  (1) 
34
1 -0.23
10 0.08
11 -0.15
12 -0.15
13 -0.15
14 -0.15
15 -0.15
16 -0.15
17 -0.15
18 -0.15
19 0.71
2 -0.23
20 0.71
21 -0.14
22 -0.14
23 0.28
24 0.28
25 0.15
26 0.15
27 0.15
28 0.15
29 0.15
3 -0.36
30 0.15
31 0.15
32 0.15
33 0.15
34 0.15
4 -0.36
5 -0.57
6 -0.57
7 0.08
8 0.08
9 0.08

>  <PUBCHEM_EFFECTIVE_ROTOR_COUNT>  (1) 
8

>  <PUBCHEM_PHARMACOPHORE_FEATURES>  (1) 
6
1 3 acceptor
1 4 acceptor
1 5 acceptor
1 6 acceptor
6 7 9 11 13 15 17 rings
6 8 10 12 14 16 18 rings

>  <PUBCHEM_HEAVY_ATOM_COUNT>  (1) 
24

>  <PUBCHEM_ATOM_DEF_STEREO_COUNT>  (1) 
0

>  <PUBCHEM_ATOM_UDEF_STEREO_COUNT>  (1) 
0

>  <PUBCHEM_BOND_DEF_STEREO_COUNT>  (1) 
0

>  <PUBCHEM_BOND_UDEF_STEREO_COUNT>  (1) 
1

>  <PUBCHEM_ISOTOPIC_ATOM_COUNT>  (1) 
0

>  <PUBCHEM_COMPONENT_COUNT>  (1) 
1

>  <PUBCHEM_CACTVS_TAUTO_COUNT>  (1) 
1

>  <PUBCHEM_CONFORMER_ID>  (1) 
00008BB400000001

>  <PUBCHEM_MMFF94_ENERGY>  (1) 
93.2061

>  <PUBCHEM_FEATURE_SELFOVERLAP>  (1) 
30.449

>  <PUBCHEM_SHAPE_FINGERPRINT>  (1) 
10 15 18060137643710924158
10162869 55 18336823182214895182
10299344 5 18411418410213783327
106641 1 18272651268059236734
11315181 36 18273498962467095353
11719270 70 18272932687634649494
12082328 90 18343301427907158165
12091667 2 18272652342486713477
13073987 5 16271656568093348599
13533116 47 16660636316222697536
13885169 127 18187082824069198709
14123256 10 16487256564630884189
14251764 18 17132114636747473578
14251764 46 18410573989446418438
14428016 248 14836408059553263850
14849402 71 12678881472351140915
14933364 13 18407761425870711924
15183329 4 15719112452815150361
15510794 2 18413393120882553110
15716309 27 18342457036909496591
15840311 113 18341896329915882628
15849732 13 18413389838857165061
16120349 18 18409728504451213916
17093844 174 17967253092309633665
18335252 98 17917997174271144055
19489759 90 18408325467674052953
21150785 3 18273495680584508213
21267235 1 14692854700628844619
21315763 28 18408886221981502541
21792934 111 14273453713029137814
220451 1 12751235874361530748
22224240 67 18113054939564727018
23035841 295 12035452743848611121
232437 2 18341895182621199950
23521765 1 18341895190345678853
23536379 177 18334860493718983272
23559900 14 18261393416686400369
249057 25 18261408731748935533
28498 318 13479127987029596242
33684 2 15936407845328599963
34797466 226 14692572131026505512
4073 2 17676778677186870514
4325135 7 18334858324581267702
4339292 15 17702936051002604895
59682541 35 17060335244884636947
59755656 215 14923941228613269410
67123 10 18413388747814015613
8209 1 18410575084663091909

>  <PUBCHEM_SHAPE_MULTIPOLES>  (1) 
458.69
29.13
1.24
0.89
0.4
0
0
0.03
-0.04
0
0
0
0
-0.01

>  <PUBCHEM_SHAPE_SELFOVERLAP>  (1) 
974.813

>  <PUBCHEM_SHAPE_VOLUME>  (1) 
251

>  <PUBCHEM_COORDINATE_TYPE>  (1) 
2
5
10

$$$$
