35779
     RDKit          3D

 22 22  0  0  0  0  0  0  0  0999 V2000
    2.3580   -1.2318   -0.1198 O   0  0  0  0  0  0  0  0  0  0  0  0
   -4.4765   -0.0351    0.9079 O   0  0  0  0  0  0  0  0  0  0  0  0
    1.7933    0.7253   -1.1597 O   0  0  0  0  0  0  0  0  0  0  0  0
    5.8652   -0.1043    0.0749 N   0  0  0  0  0  0  0  0  0  0  0  0
    0.2154   -0.5489    0.0182 N   0  0  0  0  0  0  0  0  0  0  0  0
    4.4791   -0.2817    0.4813 C   0  0  0  0  0  0  0  0  0  0  0  0
    6.6046    0.6667    1.0773 C   0  0  0  0  0  0  0  0  0  0  0  0
    6.5114   -1.4009   -0.1429 C   0  0  0  0  0  0  0  0  0  0  0  0
    3.7083   -1.0666   -0.5682 C   0  0  0  0  0  0  0  0  0  0  0  0
    5.9609    2.0151    1.3259 C   0  0  0  0  0  0  0  0  0  0  0  0
    7.9352   -1.2358   -0.6330 C   0  0  0  0  0  0  0  0  0  0  0  0
   -6.7147   -0.7981    0.5315 C   0  0  0  0  0  0  0  0  0  0  0  0
   -8.0484   -0.5110   -0.1522 C   0  0  0  0  0  0  0  0  0  0  0  0
   -5.6955    0.2989    0.2584 C   0  0  0  0  0  0  0  0  0  0  0  0
   -3.3219    0.4286    0.3325 C   0  0  0  0  0  0  0  0  0  0  0  0
   -9.0496   -1.6297    0.0874 C   0  0  0  0  0  0  0  0  0  0  0  0
   -0.9700    0.1747   -0.1147 C   0  0  0  0  0  0  0  0  0  0  0  0
    1.4779   -0.2493   -0.4879 C   0  0  0  0  0  0  0  0  0  0  0  0
   -2.1446   -0.2972    0.4710 C   0  0  0  0  0  0  0  0  0  0  0  0
   -3.3409    1.6200   -0.3835 C   0  0  0  0  0  0  0  0  0  0  0  0
   -0.9810    1.3693   -0.8350 C   0  0  0  0  0  0  0  0  0  0  0  0
   -2.1664    2.0918   -0.9694 C   0  0  0  0  0  0  0  0  0  0  0  0
  1  9  1  0
  1 18  1  0
  2 14  1  0
  2 15  1  0
  3 18  2  0
  4  6  1  0
  4  7  1  0
  4  8  1  0
  5 17  1  0
  5 18  1  0
  6  9  1  0
  7 10  1  0
  8 11  1  0
 12 13  1  0
 12 14  1  0
 13 16  1  0
 15 19  2  0
 15 20  1  0
 17 19  1  0
 17 21  2  0
 20 22  2  0
 21 22  1  0
M  END
>  <PUBCHEM_COMPOUND_CID>  (1) 
35779

>  <PUBCHEM_CONFORMER_RMSD>  (1) 
1

>  <PUBCHEM_CONFORMER_DIVERSEORDER>  (1) 
2
95
82
161
10
114
156
160
107
68
166
36
27
163
135
32
97
46
176
137
87
131
175
145
74
177
174
57
165
72
101
150
110
50
132
103
100
88
126
130
33
144
169
62
79
170
139
53
173
44
157
5
91
140
86
111
168
83
94
172
35
133
30
147
37
108
63
154
171
78
120
67
93
71
26
164
106
20
31
60
143
105
17
28
142
121
125
18
148
116
69
47
127
75
96
119
123
59
41
15
159
1
128
113
80
98
162
104
58
141
151
167
61
129
49
24
3
77
115
34
39
40
81
70
117
84
48
56
12
158
149
19
89
102
85
122
138
11
109
6
42
136
124
65
21
73
99
76
146
52
153
64
45
92
55
7
51
152
112
29
155
118
4
43
54
14
38
25
8
66
16
90
23
13
9
134
22

>  <PUBCHEM_MMFF94_PARTIAL_CHARGES>  (1) 
22
1 -0.43
14 0.28
15 0.08
17 0.12
18 0.78
19 -0.15
2 -0.36
20 -0.15
21 -0.15
22 -0.15
3 -0.57
4 -0.81
46 0.15
47 0.37
48 0.15
49 0.15
5 -0.55
50 0.15
6 0.27
7 0.27
8 0.27
9 0.28

>  <PUBCHEM_EFFECTIVE_ROTOR_COUNT>  (1) 
12

>  <PUBCHEM_PHARMACOPHORE_FEATURES>  (1) 
6
1 16 hydrophobe
1 2 acceptor
1 3 acceptor
1 4 cation
1 5 donor
6 15 17 19 20 21 22 rings

>  <PUBCHEM_HEAVY_ATOM_COUNT>  (1) 
22

>  <PUBCHEM_ATOM_DEF_STEREO_COUNT>  (1) 
0

>  <PUBCHEM_ATOM_UDEF_STEREO_COUNT>  (1) 
0

>  <PUBCHEM_BOND_DEF_STEREO_COUNT>  (1) 
0

>  <PUBCHEM_BOND_UDEF_STEREO_COUNT>  (1) 
0

>  <PUBCHEM_ISOTOPIC_ATOM_COUNT>  (1) 
0

>  <PUBCHEM_COMPONENT_COUNT>  (1) 
1

>  <PUBCHEM_CACTVS_TAUTO_COUNT>  (1) 
2

>  <PUBCHEM_CONFORMER_ID>  (1) 
00008BC300000002

>  <PUBCHEM_MMFF94_ENERGY>  (1) 
47.6071

>  <PUBCHEM_FEATURE_SELFOVERLAP>  (1) 
30.446

>  <PUBCHEM_SHAPE_FINGERPRINT>  (1) 
10 15 18334571378670972368
106641 1 17917991702688303123
11135609 127 10665530542896938966
11135609 99 18270683203483414255
11315181 36 16009044872877111949
11638347 137 18130792243769149686
13177829 20 17703791440255787731
13533116 47 17676763159596676330
13862211 1 18259990375392907611
13914758 101 14345786124612273981
14251732 16 18341892995738755577
14251752 14 14345789448975035023
14251764 46 18186522099336169386
15183329 4 12685087081913143565
15188451 53 17022896844347559304
15690457 1 18410574003033401591
15716309 27 17846495937569963503
18006028 8 18259987076699768877
20281389 69 13398632723253516794
20621476 66 11023820678487480003
21095086 128 18272935994980753614
21130935 74 18340488846608282955
21267235 1 18334299755452251349
21315763 28 18131071502584401186
21792934 111 18334012800978836461
2215653 11 8430315740723396352
22224240 67 18202002135975102383
23559900 14 17241340199519349389
28498 318 12035721011843006963
3009799 131 17240761788010183677
34797466 226 17704076200982836764
3545911 37 18341332211145313534
4325135 7 18131632287758436015
5104073 3 18190178975461007752
57359948 33 10231756721823020402
5758199 1 11887958744494221239
59682541 35 18341048605083959691
5969126 39 18187077344128980861
59755656 520 16200424758706059175

>  <PUBCHEM_SHAPE_MULTIPOLES>  (1) 
425.18
25.99
1.75
0.99
10.65
0.56
-0.04
-11.13
-4.29
-0.53
0.14
-0.73
0.32
1.96

>  <PUBCHEM_SHAPE_SELFOVERLAP>  (1) 
841.484

>  <PUBCHEM_SHAPE_VOLUME>  (1) 
254.7

>  <PUBCHEM_COORDINATE_TYPE>  (1) 
2
5
10

$$$$
