35771
     RDKit          3D

 14 14  0  0  1  0  0  0  0  0999 V2000
    2.6726    0.0790    0.4773 P   0  0  0  0  0  0  0  0  0  0  0  0
    1.4771   -0.9457    0.0967 O   0  0  0  0  0  0  0  0  0  0  0  0
    2.7126    1.1587   -0.7289 O   0  0  0  0  0  0  0  0  0  0  0  0
    4.0043   -0.8132    0.2442 O   0  0  0  0  0  0  0  0  0  0  0  0
    2.5808    0.6690    1.8559 O   0  0  0  0  0  0  0  0  0  0  0  0
   -5.0789    0.6191   -0.0528 N   0  0  0  0  0  0  0  0  0  0  0  0
    0.1535   -0.6296    0.0656 C   0  0  0  0  0  0  0  0  0  0  0  0
   -0.2622    0.6649    0.3777 C   0  0  0  0  0  0  0  0  0  0  0  0
   -0.7875   -1.6006   -0.2773 C   0  0  0  0  0  0  0  0  0  0  0  0
   -1.6186    0.9885    0.3469 C   0  0  0  0  0  0  0  0  0  0  0  0
   -2.1440   -1.2769   -0.3081 C   0  0  0  0  0  0  0  0  0  0  0  0
   -2.5595    0.0176    0.0040 C   0  0  0  0  0  0  0  0  0  0  0  0
    2.7988    0.7198   -2.0737 C   0  0  0  0  0  0  0  0  0  0  0  0
   -3.9489    0.3494   -0.0274 C   0  0  0  0  0  0  0  0  0  0  0  0
  1  2  1  0
  1  3  1  0
  1  4  1  0
  1  5  2  0
  2  7  1  0
  3 13  1  0
  6 14  3  0
  7  8  2  0
  7  9  1  0
  8 10  1  0
  9 11  2  0
 10 12  2  0
 11 12  1  0
 12 14  1  0
M  END
>  <PUBCHEM_COMPOUND_CID>  (1) 
35771

>  <PUBCHEM_CONFORMER_RMSD>  (1) 
0.6

>  <PUBCHEM_CONFORMER_DIVERSEORDER>  (1) 
1
7
3
8
5
2
6
4

>  <PUBCHEM_MMFF94_PARTIAL_CHARGES>  (1) 
19
1 1.51
10 -0.15
11 -0.15
12 0.07
13 0.28
14 0.48
15 0.15
16 0.15
17 0.15
18 0.15
2 -0.35
22 0.5
3 -0.55
4 -0.77
5 -0.7
6 -0.56
7 0.08
8 -0.15
9 -0.15

>  <PUBCHEM_EFFECTIVE_ROTOR_COUNT>  (1) 
3

>  <PUBCHEM_PHARMACOPHORE_FEATURES>  (1) 
4
1 4 acceptor
1 5 acceptor
1 6 acceptor
6 7 8 9 10 11 12 rings

>  <PUBCHEM_HEAVY_ATOM_COUNT>  (1) 
14

>  <PUBCHEM_ATOM_DEF_STEREO_COUNT>  (1) 
0

>  <PUBCHEM_ATOM_UDEF_STEREO_COUNT>  (1) 
0

>  <PUBCHEM_BOND_DEF_STEREO_COUNT>  (1) 
0

>  <PUBCHEM_BOND_UDEF_STEREO_COUNT>  (1) 
0

>  <PUBCHEM_ISOTOPIC_ATOM_COUNT>  (1) 
0

>  <PUBCHEM_COMPONENT_COUNT>  (1) 
1

>  <PUBCHEM_CACTVS_TAUTO_COUNT>  (1) 
1

>  <PUBCHEM_CONFORMER_ID>  (1) 
00008BBB00000001

>  <PUBCHEM_MMFF94_ENERGY>  (1) 
10.6432

>  <PUBCHEM_FEATURE_SELFOVERLAP>  (1) 
20.308

>  <PUBCHEM_SHAPE_FINGERPRINT>  (1) 
11132069 177 18343012311655899243
13380535 76 18343301448928638591
13538477 17 18261394493894801938
14115302 16 18411704287758637262
15342168 16 16010175269667280014
15775835 57 18041569142891219860
16945 1 18202572790877890939
17846911 113 18201431472133323393
18186145 218 17704076183528641433
18522853 295 18273219698485847282
19026448 5 17240481446657042803
200 152 13973968692293842302
20201158 50 16917072165751611238
20279233 1 16702305667430908654
20645476 183 18188502400517217615
20645477 70 14620803669048068812
22485316 2 12679457573847063525
23402539 116 17703777107411902829
23402655 69 18129084638693896821
23557571 272 17631166587911301518
23559900 14 18131350834720557960
2748010 2 17913482712813575235
31174 14 15285350739112217604
4990 188 17132115732359786149
537710 114 18410578383651961229
69090 78 17489577970366450543
7364860 26 18058729070532008414

>  <PUBCHEM_SHAPE_MULTIPOLES>  (1) 
263.5
7.53
1.32
1.21
3.53
0.31
-0.26
-1.56
-0.42
0.08
-0.12
-1.57
-0.38
-0.44

>  <PUBCHEM_SHAPE_SELFOVERLAP>  (1) 
527.978

>  <PUBCHEM_SHAPE_VOLUME>  (1) 
155.1

>  <PUBCHEM_COORDINATE_TYPE>  (1) 
2
5
10

$$$$
