35789
     RDKit          3D

  9  8  0  0  1  0  0  0  0  0999 V2000
   -0.4660    1.8463    0.8238 Cl  0  0  0  0  0  0  0  0  0  0  0  0
    1.1816   -1.9864   -0.5441 Cl  0  0  0  0  0  0  0  0  0  0  0  0
   -2.7678    0.6851   -1.2068 Cl  0  0  0  0  0  0  0  0  0  0  0  0
   -2.2804   -0.9982    1.1231 Cl  0  0  0  0  0  0  0  0  0  0  0  0
    3.0024    0.7925   -0.7899 Cl  0  0  0  0  0  0  0  0  0  0  0  0
   -0.2237    0.3605   -0.1741 C   0  0  0  0  0  0  0  0  0  0  0  0
    0.8894   -0.5172    0.4573 C   0  0  0  0  0  0  0  0  0  0  0  0
   -1.5718   -0.3669   -0.3884 C   0  0  0  0  0  0  0  0  0  0  0  0
    2.2363    0.1843    0.6990 C   0  0  0  0  0  0  0  0  0  0  0  0
  1  6  1  0
  2  7  1  0
  3  8  1  0
  4  8  1  0
  5  9  1  0
  6  7  1  0
  6  8  1  0
  7  9  1  0
M  END
>  <PUBCHEM_COMPOUND_CID>  (1) 
35789

>  <PUBCHEM_CONFORMER_RMSD>  (1) 
0.6

>  <PUBCHEM_CONFORMER_DIVERSEORDER>  (1) 
1
74
84
52
21
59
86
11
72
82
5
83
14
17
76
60
28
71
10
75
65
34
8
73
67
22
7
88
56
31
61
13
64
41
42
53
39
47
27
55
50
9
32
2
24
26
62
19
85
36
6
43
45
46
12
68
69
37
48
78
58
30
35
44
51
25
40
63
33
57
38
29
54
79
3
77
4
18
80
20
87
23
49
70
66
81
16
15

>  <PUBCHEM_MMFF94_PARTIAL_CHARGES>  (1) 
9
1 -0.29
2 -0.29
3 -0.29
4 -0.29
5 -0.29
6 0.29
7 0.29
8 0.58
9 0.29

>  <PUBCHEM_EFFECTIVE_ROTOR_COUNT>  (1) 
3

>  <PUBCHEM_PHARMACOPHORE_FEATURES>  (1) 
0

>  <PUBCHEM_HEAVY_ATOM_COUNT>  (1) 
9

>  <PUBCHEM_ATOM_DEF_STEREO_COUNT>  (1) 
0

>  <PUBCHEM_ATOM_UDEF_STEREO_COUNT>  (1) 
2

>  <PUBCHEM_BOND_DEF_STEREO_COUNT>  (1) 
0

>  <PUBCHEM_BOND_UDEF_STEREO_COUNT>  (1) 
0

>  <PUBCHEM_ISOTOPIC_ATOM_COUNT>  (1) 
0

>  <PUBCHEM_COMPONENT_COUNT>  (1) 
1

>  <PUBCHEM_CACTVS_TAUTO_COUNT>  (1) 
1

>  <PUBCHEM_CONFORMER_ID>  (1) 
00008BCD00000001

>  <PUBCHEM_MMFF94_ENERGY>  (1) 
12.4975

>  <PUBCHEM_FEATURE_SELFOVERLAP>  (1) 
0

>  <PUBCHEM_SHAPE_FINGERPRINT>  (1) 
12138202 97 18040984151318661511
12897270 3 18342455937244738492
12932741 1 18115313271591120223
15310529 11 17531240716241833154
16945 1 18201998841339118832
18342897 55 18271512204172688068
20201158 50 18337378358140542143
20653085 51 17241327954213939669
20711978 1 18125716794868200142
21028194 46 18114752632809866268
21061003 4 18270414908816576193
21293036 1 18200304545402411836
23235687 12 17385997356179230686
23552423 10 18124593080978275007
24536 1 18264769861453213546
2748010 2 18053369187405836089
29004967 10 18413108376770624283
3248919 1 18336823095972677000
5084963 1 17967537891374688384
8030462 33 18201718397212652804

>  <PUBCHEM_SHAPE_MULTIPOLES>  (1) 
194.56
4.23
1.79
1.23
0.48
0.22
0.02
-0.5
0.95
0.18
-0.1
-0.48
-0.1
0.4

>  <PUBCHEM_SHAPE_SELFOVERLAP>  (1) 
314.089

>  <PUBCHEM_SHAPE_VOLUME>  (1) 
135.9

>  <PUBCHEM_COORDINATE_TYPE>  (1) 
2
5
10

$$$$
