35783
     RDKit          3D

 21 21  0  0  1  0  0  0  0  0999 V2000
   -1.4069    1.2494   -0.0511 O   0  0  0  0  0  0  0  0  0  0  0  0
   -2.2190    0.7378    2.0393 O   0  0  0  0  0  0  0  0  0  0  0  0
    2.0325    0.9848   -0.4637 N   0  0  0  0  0  0  0  0  0  0  0  0
    4.5298   -0.3213    0.1808 N   0  0  0  0  0  0  0  0  0  0  0  0
   -3.1904   -0.3349    0.0671 C   0  0  0  0  0  0  0  0  0  0  0  0
   -2.3711   -1.3776   -0.7494 C   0  0  0  0  0  0  0  0  0  0  0  0
    3.2421    1.7597   -0.1614 C   0  0  0  0  0  0  0  0  0  0  0  0
    2.3888   -0.3115   -1.0534 C   0  0  0  0  0  0  0  0  0  0  0  0
    4.1733    0.9754    0.7695 C   0  0  0  0  0  0  0  0  0  0  0  0
    3.3207   -1.0961   -0.1235 C   0  0  0  0  0  0  0  0  0  0  0  0
    1.1453    1.7329   -1.3521 C   0  0  0  0  0  0  0  0  0  0  0  0
   -4.0451    0.4938   -0.9346 C   0  0  0  0  0  0  0  0  0  0  0  0
   -1.4041   -2.2436    0.0706 C   0  0  0  0  0  0  0  0  0  0  0  0
    0.3701    2.7839   -0.5641 C   0  0  0  0  0  0  0  0  0  0  0  0
   -4.1074   -1.0547    1.0744 C   0  0  0  0  0  0  0  0  0  0  0  0
   -2.2337    0.6004    0.8217 C   0  0  0  0  0  0  0  0  0  0  0  0
   -0.4655    2.1505    0.5401 C   0  0  0  0  0  0  0  0  0  0  0  0
   -0.6002   -3.1786   -0.8362 C   0  0  0  0  0  0  0  0  0  0  0  0
   -4.9121    1.5840   -0.3131 C   0  0  0  0  0  0  0  0  0  0  0  0
    5.4156   -1.0694    1.0708 C   0  0  0  0  0  0  0  0  0  0  0  0
    0.3374   -4.0648   -0.0316 C   0  0  0  0  0  0  0  0  0  0  0  0
  1 16  1  0
  1 17  1  0
  2 16  2  0
  3  7  1  0
  3  8  1  0
  3 11  1  0
  4  9  1  0
  4 10  1  0
  4 20  1  0
  5  6  1  0
  5 12  1  0
  5 15  1  0
  5 16  1  0
  6 13  1  0
  7  9  1  0
  8 10  1  0
 11 14  1  0
 12 19  1  0
 13 18  1  0
 14 17  1  0
 18 21  1  0
M  END
>  <PUBCHEM_COMPOUND_CID>  (1) 
35783

>  <PUBCHEM_CONFORMER_RMSD>  (1) 
1.4

>  <PUBCHEM_CONFORMER_DIVERSEORDER>  (1) 
1
8
37
33
19
40
22
11
6
27
41
39
4
44
13
32
29
36
28
35
2
45
30
43
3
5
25
15
20
16
31
12
10
24
34
23
38
46
21
18
26
9
7
14
17
42

>  <PUBCHEM_MMFF94_PARTIAL_CHARGES>  (1) 
13
1 -0.43
10 0.27
11 0.27
16 0.66
17 0.28
2 -0.57
20 0.27
3 -0.81
4 -0.81
5 0.06
7 0.27
8 0.27
9 0.27

>  <PUBCHEM_EFFECTIVE_ROTOR_COUNT>  (1) 
11.2

>  <PUBCHEM_PHARMACOPHORE_FEATURES>  (1) 
8
1 15 hydrophobe
1 19 hydrophobe
1 2 acceptor
1 21 hydrophobe
1 3 cation
1 4 cation
5 5 6 12 13 18 hydrophobe
6 3 4 7 8 9 10 rings

>  <PUBCHEM_HEAVY_ATOM_COUNT>  (1) 
21

>  <PUBCHEM_ATOM_DEF_STEREO_COUNT>  (1) 
0

>  <PUBCHEM_ATOM_UDEF_STEREO_COUNT>  (1) 
1

>  <PUBCHEM_BOND_DEF_STEREO_COUNT>  (1) 
0

>  <PUBCHEM_BOND_UDEF_STEREO_COUNT>  (1) 
0

>  <PUBCHEM_ISOTOPIC_ATOM_COUNT>  (1) 
0

>  <PUBCHEM_COMPONENT_COUNT>  (1) 
1

>  <PUBCHEM_CACTVS_TAUTO_COUNT>  (1) 
1

>  <PUBCHEM_CONFORMER_ID>  (1) 
00008BC700000001

>  <PUBCHEM_MMFF94_ENERGY>  (1) 
29.5254

>  <PUBCHEM_FEATURE_SELFOVERLAP>  (1) 
40.634

>  <PUBCHEM_SHAPE_FINGERPRINT>  (1) 
10366900 7 17274824692203219096
10759866 29 17971765620957890924
11045977 3 17917704756139931864
11370993 70 18341890783751476758
12553582 1 18269857404871578268
12592029 89 18337403677600350283
12633257 1 18131353007868703656
13004483 165 18188196629380238892
14081887 123 17986945456978998680
14117953 113 18338232644410603388
14178342 30 18126582136183809016
15403338 16 17025417903850598203
16120349 306 18338219502006259298
17834072 14 18413106169105089221
17859628 97 18408317774744320339
17977361 122 18411415124447744318
20600515 1 18201447985982623436
20715895 44 18265328413851156605
21344244 246 18267286674383505519
22113638 7 18410851105226795166
23402539 116 18272077301652000918
23559900 14 18202289121621577348
339767 52 18261945285075195130
539174 4 17482017560667500035
56638632 33 18058153089858587656
57005193 9 18413102866237808684
7064713 232 18201723920725205736

>  <PUBCHEM_SHAPE_MULTIPOLES>  (1) 
410.47
9.62
3.71
1.23
4.32
3.05
-0.23
-0.78
-2.1
-0.11
0.64
-0.26
-0.15
-0.3

>  <PUBCHEM_SHAPE_SELFOVERLAP>  (1) 
789.792

>  <PUBCHEM_SHAPE_VOLUME>  (1) 
251.8

>  <PUBCHEM_COORDINATE_TYPE>  (1) 
2
5
10

$$$$
