35793
     RDKit          3D

 15 16  0  0  0  0  0  0  0  0999 V2000
    5.0547   -0.3135   -0.0916 Cl  0  0  0  0  0  0  0  0  0  0  0  0
   -4.0983   -0.2044   -0.3221 O   0  0  0  0  0  0  0  0  0  0  0  0
   -1.7537   -0.3195   -0.2954 N   0  0  0  0  0  0  0  0  0  0  0  0
   -2.7165    1.5325    0.4244 N   0  0  0  0  0  0  0  0  0  0  0  0
   -1.3743    1.7219    0.5512 N   0  0  0  0  0  0  0  0  0  0  0  0
   -0.8460    0.6161    0.1082 C   0  0  0  0  0  0  0  0  0  0  0  0
   -1.5552   -1.6826   -0.7604 C   0  0  0  0  0  0  0  0  0  0  0  0
    0.6018    0.3891    0.0594 C   0  0  0  0  0  0  0  0  0  0  0  0
   -2.9914    0.2649   -0.1007 C   0  0  0  0  0  0  0  0  0  0  0  0
   -1.5919   -2.6447    0.4113 C   0  0  0  0  0  0  0  0  0  0  0  0
    1.2550   -0.1822    1.1513 C   0  0  0  0  0  0  0  0  0  0  0  0
    1.3255    0.7429   -1.0794 C   0  0  0  0  0  0  0  0  0  0  0  0
    2.6320   -0.3997    1.1045 C   0  0  0  0  0  0  0  0  0  0  0  0
    2.7026    0.5253   -1.1263 C   0  0  0  0  0  0  0  0  0  0  0  0
    3.3559   -0.0461   -0.0343 C   0  0  0  0  0  0  0  0  0  0  0  0
  1 15  1  0
  2  9  2  0
  3  6  1  0
  3  7  1  0
  3  9  1  0
  4  5  1  0
  4  9  1  0
  5  6  2  0
  6  8  1  0
  7 10  1  0
  8 11  2  0
  8 12  1  0
 11 13  1  0
 12 14  2  0
 13 15  2  0
 14 15  1  0
M  END
>  <PUBCHEM_COMPOUND_CID>  (1) 
35793

>  <PUBCHEM_CONFORMER_RMSD>  (1) 
0.6

>  <PUBCHEM_CONFORMER_DIVERSEORDER>  (1) 
1
3
2

>  <PUBCHEM_MMFF94_PARTIAL_CHARGES>  (1) 
19
1 -0.18
11 -0.15
12 -0.15
13 -0.15
14 -0.15
15 0.18
2 -0.57
21 0.37
22 0.15
23 0.15
24 0.15
25 0.15
3 -0.42
4 -0.37
5 -0.51
6 0.42
7 0.3
8 0.09
9 0.69

>  <PUBCHEM_EFFECTIVE_ROTOR_COUNT>  (1) 
2

>  <PUBCHEM_PHARMACOPHORE_FEATURES>  (1) 
4
1 2 acceptor
1 4 donor
5 3 4 5 6 9 rings
6 8 11 12 13 14 15 rings

>  <PUBCHEM_HEAVY_ATOM_COUNT>  (1) 
15

>  <PUBCHEM_ATOM_DEF_STEREO_COUNT>  (1) 
0

>  <PUBCHEM_ATOM_UDEF_STEREO_COUNT>  (1) 
0

>  <PUBCHEM_BOND_DEF_STEREO_COUNT>  (1) 
0

>  <PUBCHEM_BOND_UDEF_STEREO_COUNT>  (1) 
0

>  <PUBCHEM_ISOTOPIC_ATOM_COUNT>  (1) 
0

>  <PUBCHEM_COMPONENT_COUNT>  (1) 
1

>  <PUBCHEM_CACTVS_TAUTO_COUNT>  (1) 
2

>  <PUBCHEM_CONFORMER_ID>  (1) 
00008BD100000001

>  <PUBCHEM_MMFF94_ENERGY>  (1) 
40.2038

>  <PUBCHEM_FEATURE_SELFOVERLAP>  (1) 
20.297

>  <PUBCHEM_SHAPE_FINGERPRINT>  (1) 
10465860 250 17632572717776325272
11471102 22 15769780165031875960
11578080 2 17753574040627064860
12236239 1 18186239519666549436
124424 183 17346876724395232722
12500047 106 18271520906040011188
12932764 1 17749378278717048460
13538477 17 18261108625161214251
13581323 91 18342452629898315872
14115302 16 18334858358914541367
14144814 61 18334857190688873840
14993402 34 18260263031941877749
15279307 12 18187362125497422474
15653759 3 17632291276969487728
15669948 3 18339923813294613886
15775835 57 17603304873111245198
16752209 62 18338783547260164677
16945 1 18413113865786275057
18175812 5 17274815896125825960
200 152 17385722495520948289
20201158 50 16917352523873223358
20279233 1 17131837581582300166
20510252 161 18131071485278418817
20645476 183 18113333120185528835
20645477 70 15864339200081428786
21119208 17 18113617885001290550
232386 152 18339359768314306278
23402539 116 18201994409144184413
23402655 69 16950272988450940053
23559900 14 18271804645044807128
23598291 2 17968664929094430766
2748010 2 17982439705530729955
43471831 8 18339077060946284307
465052 167 18044675306849119851
474 4 17678182805175764412
74978 22 18335420222241379628
77492 1 18114180826143393456
81228 2 17631191717670297848
8272917 22 17168981167638617651
8809292 202 18271806860483203162
90525 40 18261391105202463743
9709674 26 18202290182162118614

>  <PUBCHEM_SHAPE_MULTIPOLES>  (1) 
289.75
7.16
1.71
1.04
4.16
0.96
0
0.34
0.46
-1.65
-0.12
0.47
0
-0.57

>  <PUBCHEM_SHAPE_SELFOVERLAP>  (1) 
609.624

>  <PUBCHEM_SHAPE_VOLUME>  (1) 
166.3

>  <PUBCHEM_COORDINATE_TYPE>  (1) 
2
5
10

$$$$
