35792
     RDKit          3D

 10 11  0  0  0  0  0  0  0  0999 V2000
    1.5913   -1.0785   -1.0573 S   0  0  0  0  0  0  0  0  0  0  0  0
    1.5769    0.6464    1.3873 S   0  0  0  0  0  0  0  0  0  0  0  0
   -2.0602   -1.1167    0.7780 S   0  0  0  0  0  0  0  0  0  0  0  0
    0.6678   -0.6286    0.4496 C   0  0  0  0  0  0  0  0  0  0  0  0
    3.1577   -0.3095   -0.5758 C   0  0  0  0  0  0  0  0  0  0  0  0
    2.8307    0.9930    0.1256 C   0  0  0  0  0  0  0  0  0  0  0  0
   -0.7516   -0.2083    0.1433 C   0  0  0  0  0  0  0  0  0  0  0  0
   -1.1902    0.8585   -0.6156 C   0  0  0  0  0  0  0  0  0  0  0  0
   -2.6120    0.9289   -0.6748 C   0  0  0  0  0  0  0  0  0  0  0  0
   -3.2105   -0.0853    0.0397 C   0  0  0  0  0  0  0  0  0  0  0  0
  1  4  1  0
  1  5  1  0
  2  4  1  0
  2  6  1  0
  3  7  1  0
  3 10  1  0
  4  7  1  0
  5  6  1  0
  7  8  2  0
  8  9  1  0
  9 10  2  0
M  END
>  <PUBCHEM_COMPOUND_CID>  (1) 
35792

>  <PUBCHEM_CONFORMER_RMSD>  (1) 
0.4

>  <PUBCHEM_CONFORMER_DIVERSEORDER>  (1) 
1
7
6
3
5
4
2

>  <PUBCHEM_MMFF94_PARTIAL_CHARGES>  (1) 
13
1 -0.46
10 -0.11
16 0.15
17 0.15
18 0.15
2 -0.46
3 -0.08
4 0.64
5 0.23
6 0.23
7 -0.14
8 -0.15
9 -0.15

>  <PUBCHEM_EFFECTIVE_ROTOR_COUNT>  (1) 
2

>  <PUBCHEM_PHARMACOPHORE_FEATURES>  (1) 
2
5 1 2 4 5 6 rings
5 3 7 8 9 10 rings

>  <PUBCHEM_HEAVY_ATOM_COUNT>  (1) 
10

>  <PUBCHEM_ATOM_DEF_STEREO_COUNT>  (1) 
0

>  <PUBCHEM_ATOM_UDEF_STEREO_COUNT>  (1) 
0

>  <PUBCHEM_BOND_DEF_STEREO_COUNT>  (1) 
0

>  <PUBCHEM_BOND_UDEF_STEREO_COUNT>  (1) 
0

>  <PUBCHEM_ISOTOPIC_ATOM_COUNT>  (1) 
0

>  <PUBCHEM_COMPONENT_COUNT>  (1) 
1

>  <PUBCHEM_CACTVS_TAUTO_COUNT>  (1) 
1

>  <PUBCHEM_CONFORMER_ID>  (1) 
00008BD000000001

>  <PUBCHEM_MMFF94_ENERGY>  (1) 
8.7248

>  <PUBCHEM_FEATURE_SELFOVERLAP>  (1) 
10.149

>  <PUBCHEM_SHAPE_FINGERPRINT>  (1) 
107287 299 18202286934987097982
10857977 72 18187082901214865241
11031198 65 17989209256577919652
11062470 55 12324238369172198039
12716758 59 18113623352341943931
12897270 3 18411984641527168750
12932741 1 18413106164872977123
12932764 1 18411416211158853243
13839132 238 18188767236843098093
14325111 11 18186519899521408710
14390081 3 18259981557044314221
15219456 202 18413392046438680194
15310529 11 17346318172182458389
15775835 57 16660646249864939004
16945 1 17894348899623787635
17844478 74 18340779212040124073
18175812 5 18411702118457216102
20201158 50 18272937089748767702
20645464 45 18409726257708025299
20653085 51 17703507680319773465
20871998 184 18262245537770801651
22802520 49 18267313027532160676
23552423 10 17024017164944302211
3248919 1 18131067117143288443
369184 2 12684812212569649797
5084963 1 18410860987956819658
6333449 129 18334013908568189215
7364860 26 17896872154171645130
77492 1 15339124541185481850

>  <PUBCHEM_SHAPE_MULTIPOLES>  (1) 
217.34
5.24
1.26
1.18
0.18
0.09
0.14
-0.34
-0.63
-0.47
-0.02
0.12
-0.05
0.82

>  <PUBCHEM_SHAPE_SELFOVERLAP>  (1) 
408.969

>  <PUBCHEM_SHAPE_VOLUME>  (1) 
134.9

>  <PUBCHEM_COORDINATE_TYPE>  (1) 
2
5
10

$$$$
