35790
     RDKit          3D

 10 11  0  0  0  0  0  0  0  0999 V2000
   -1.9060   -1.5810   -0.0004 S   0  0  0  0  0  0  0  0  0  0  0  0
   -0.7345    0.7239    0.0001 C   0  0  0  0  0  0  0  0  0  0  0  0
   -0.4569   -0.6465    0.0000 C   0  0  0  0  0  0  0  0  0  0  0  0
    1.9195   -0.2135    0.0001 C   0  0  0  0  0  0  0  0  0  0  0  0
    0.8663   -1.1301    0.0001 C   0  0  0  0  0  0  0  0  0  0  0  0
    0.3555    1.6276   -0.0001 C   0  0  0  0  0  0  0  0  0  0  0  0
    1.6692    1.1512   -0.0005 C   0  0  0  0  0  0  0  0  0  0  0  0
   -2.1490    0.9673    0.0004 C   0  0  0  0  0  0  0  0  0  0  0  0
    3.3270   -0.7090    0.0002 C   0  0  0  0  0  0  0  0  0  0  0  0
   -2.8910   -0.1899    0.0000 C   0  0  0  0  0  0  0  0  0  0  0  0
  1  3  1  0
  1 10  1  0
  2  3  2  0
  2  6  1  0
  2  8  1  0
  3  5  1  0
  4  5  2  0
  4  7  1  0
  4  9  1  0
  6  7  2  0
  8 10  2  0
M  END
>  <PUBCHEM_COMPOUND_CID>  (1) 
35790

>  <PUBCHEM_CONFORMER_RMSD>  (1) 
0.4

>  <PUBCHEM_CONFORMER_DIVERSEORDER>  (1) 
1

>  <PUBCHEM_MMFF94_PARTIAL_CHARGES>  (1) 
14
1 -0.08
10 -0.11
11 0.15
12 0.15
13 0.15
14 0.15
18 0.15
3 0.04
4 -0.14
5 -0.15
6 -0.15
7 -0.15
8 -0.15
9 0.14

>  <PUBCHEM_EFFECTIVE_ROTOR_COUNT>  (1) 
0

>  <PUBCHEM_PHARMACOPHORE_FEATURES>  (1) 
2
5 1 2 3 8 10 rings
6 2 3 4 5 6 7 rings

>  <PUBCHEM_HEAVY_ATOM_COUNT>  (1) 
10

>  <PUBCHEM_ATOM_DEF_STEREO_COUNT>  (1) 
0

>  <PUBCHEM_ATOM_UDEF_STEREO_COUNT>  (1) 
0

>  <PUBCHEM_BOND_DEF_STEREO_COUNT>  (1) 
0

>  <PUBCHEM_BOND_UDEF_STEREO_COUNT>  (1) 
0

>  <PUBCHEM_ISOTOPIC_ATOM_COUNT>  (1) 
0

>  <PUBCHEM_COMPONENT_COUNT>  (1) 
1

>  <PUBCHEM_CACTVS_TAUTO_COUNT>  (1) 
1

>  <PUBCHEM_CONFORMER_ID>  (1) 
00008BCE00000001

>  <PUBCHEM_MMFF94_ENERGY>  (1) 
20.3858

>  <PUBCHEM_FEATURE_SELFOVERLAP>  (1) 
10.208

>  <PUBCHEM_SHAPE_FINGERPRINT>  (1) 
10857977 72 18340194254537147538
12032990 46 18411144618880830566
12897270 3 18409448102498408807
12932764 1 17313375734193287915
14128692 85 18411421751650561524
14325111 11 18410855485945652704
16945 1 18410575050329740293
193761 8 17834114530160324582
19973954 147 18337955717656403033
20201158 50 18412261714073029015
20871998 184 18202284727321478967
21040471 1 18410574006705564805
21501502 16 18338238296328841549
23402655 69 18123450706521605309
23463225 33 18335983069511315538
23552423 10 18188771785113140151
23559900 14 18341612552551487790
2748010 2 18338515373211574900
29004967 10 18412829083505301104
369184 2 18412261748522171803
5084963 1 18342738541628939041
528886 8 18411413977733401547
7364860 26 18198625630223860224

>  <PUBCHEM_SHAPE_MULTIPOLES>  (1) 
209.64
4.2
1.67
0.63
0.9
0.1
0
-0.89
0
-0.17
0
-0.02
-0.01
0

>  <PUBCHEM_SHAPE_SELFOVERLAP>  (1) 
442.628

>  <PUBCHEM_SHAPE_VOLUME>  (1) 
119.9

>  <PUBCHEM_COORDINATE_TYPE>  (1) 
2
5
10

$$$$
