35795
     RDKit          3D

 15 15  0  0  0  0  0  0  0  0999 V2000
    0.1773    0.1815    0.8177 N   0  0  0  0  0  0  0  0  0  0  0  0
    1.2246   -1.7554   -0.1612 N   0  0  0  0  0  0  0  0  0  0  0  0
   -2.1335    0.4170    0.8580 N   0  0  0  0  0  0  0  0  0  0  0  0
    2.4988   -0.0441    0.7822 N   0  0  0  0  0  0  0  0  0  0  0  0
   -3.6922    2.0711    0.3222 N   0  0  0  0  0  0  0  0  0  0  0  0
   -2.1175    1.5784   -1.2543 N   0  0  0  0  0  0  0  0  0  0  0  0
    4.3462    1.2574    0.1837 N   0  0  0  0  0  0  0  0  0  0  0  0
    2.6470    1.1048   -1.3319 N   0  0  0  0  0  0  0  0  0  0  0  0
   -1.1743   -1.5615   -0.1458 C   0  0  0  0  0  0  0  0  0  0  0  0
   -1.0205   -0.3496    0.4960 C   0  0  0  0  0  0  0  0  0  0  0  0
   -2.5003   -2.1329   -0.4946 C   0  0  0  0  0  0  0  0  0  0  0  0
   -0.0053   -2.2271   -0.4529 C   0  0  0  0  0  0  0  0  0  0  0  0
    1.2422   -0.5633    0.4649 C   0  0  0  0  0  0  0  0  0  0  0  0
   -2.6004    1.2976    0.0056 C   0  0  0  0  0  0  0  0  0  0  0  0
    3.1079    0.7259   -0.0896 C   0  0  0  0  0  0  0  0  0  0  0  0
  1 10  2  0
  1 13  1  0
  2 12  1  0
  2 13  2  0
  3 10  1  0
  3 14  2  3
  4 13  1  0
  4 15  2  3
  5 14  1  0
  6 14  1  0
  7 15  1  0
  8 15  1  0
  9 10  1  0
  9 11  1  0
  9 12  2  0
M  END
>  <PUBCHEM_COMPOUND_CID>  (1) 
35795

>  <PUBCHEM_CONFORMER_RMSD>  (1) 
0.6

>  <PUBCHEM_CONFORMER_DIVERSEORDER>  (1) 
3
6
7
2
5
4
8
1

>  <PUBCHEM_MMFF94_PARTIAL_CHARGES>  (1) 
24
1 -0.62
10 0.49
11 0.14
12 0.16
13 0.8
14 0.55
15 0.55
19 0.15
2 -0.62
20 0.4
21 0.4
22 0.4
23 0.4
24 0.4
25 0.4
26 0.4
27 0.4
3 -0.63
4 -0.63
5 -0.85
6 -0.85
7 -0.85
8 -0.85
9 -0.14

>  <PUBCHEM_EFFECTIVE_ROTOR_COUNT>  (1) 
2

>  <PUBCHEM_PHARMACOPHORE_FEATURES>  (1) 
8
1 5 donor
1 6 donor
1 7 donor
1 8 donor
4 1 2 4 13 cation
4 3 5 6 14 cation
4 4 7 8 15 cation
6 1 2 9 10 12 13 rings

>  <PUBCHEM_HEAVY_ATOM_COUNT>  (1) 
15

>  <PUBCHEM_ATOM_DEF_STEREO_COUNT>  (1) 
0

>  <PUBCHEM_ATOM_UDEF_STEREO_COUNT>  (1) 
0

>  <PUBCHEM_BOND_DEF_STEREO_COUNT>  (1) 
0

>  <PUBCHEM_BOND_UDEF_STEREO_COUNT>  (1) 
0

>  <PUBCHEM_ISOTOPIC_ATOM_COUNT>  (1) 
0

>  <PUBCHEM_COMPONENT_COUNT>  (1) 
1

>  <PUBCHEM_CACTVS_TAUTO_COUNT>  (1) 
13

>  <PUBCHEM_CONFORMER_ID>  (1) 
00008BD300000003

>  <PUBCHEM_MMFF94_ENERGY>  (1) 
52.0773

>  <PUBCHEM_FEATURE_SELFOVERLAP>  (1) 
40.748

>  <PUBCHEM_SHAPE_FINGERPRINT>  (1) 
11031198 65 18129661881448964577
11206711 2 18200867504167469551
11769659 78 10519981556501282488
12138202 97 17846500356843352430
13380535 21 18271534117259570259
14614273 12 18340487858549286463
14897335 6 18412540981446943138
15342168 16 18338241440773111477
15775835 57 18335422374236389616
16945 1 18198335363106281347
17134986 127 18339930307422205084
1741750 31 18343019977940589600
20645477 56 18342462590328577616
20671657 1 18194969538980609998
21296965 12 18260261919735304085
21501502 16 18339632365588867315
21524375 3 18335417950224688187
23402539 116 18125432261827568654
23557571 272 18129952307317030376
23559900 14 17989492927395884856
25 1 18200311005091260193
2748010 2 18272940396673489198
305870 269 18260828181356696834
3071541 158 17906459831209881358

>  <PUBCHEM_SHAPE_MULTIPOLES>  (1) 
268.84
5.88
2.42
0.96
3.68
0.55
0.17
-3.98
0.24
-1.9
0.49
0.05
-0.22
-0.33

>  <PUBCHEM_SHAPE_SELFOVERLAP>  (1) 
556.977

>  <PUBCHEM_SHAPE_VOLUME>  (1) 
148.4

>  <PUBCHEM_COORDINATE_TYPE>  (1) 
2
5
10

$$$$
