35800
     RDKit          3D

 11 11  0  0  1  0  0  0  0  0999 V2000
   -2.5820    1.9523   -0.0066 F   0  0  0  0  0  0  0  0  0  0  0  0
    1.9982    0.0737   -1.5490 O   0  0  0  0  0  0  0  0  0  0  0  0
    3.8137    0.4260    0.6598 N   0  0  0  0  0  0  0  0  0  0  0  0
    1.6617   -0.4208   -0.2458 C   0  0  0  0  0  0  0  0  0  0  0  0
    0.1784   -0.4160   -0.0920 C   0  0  0  0  0  0  0  0  0  0  0  0
    2.3621    0.4380    0.8259 C   0  0  0  0  0  0  0  0  0  0  0  0
   -0.5220    0.7899   -0.1217 C   0  0  0  0  0  0  0  0  0  0  0  0
   -0.5086   -1.6175    0.0823 C   0  0  0  0  0  0  0  0  0  0  0  0
   -1.9093    0.7944    0.0228 C   0  0  0  0  0  0  0  0  0  0  0  0
   -1.8959   -1.6130    0.2270 C   0  0  0  0  0  0  0  0  0  0  0  0
   -2.5963   -0.4070    0.1971 C   0  0  0  0  0  0  0  0  0  0  0  0
  1  9  1  0
  2  4  1  0
  3  6  1  0
  4  5  1  0
  4  6  1  0
  5  7  2  0
  5  8  1  0
  7  9  1  0
  8 10  2  0
  9 11  2  0
 10 11  1  0
M  END
>  <PUBCHEM_COMPOUND_CID>  (1) 
35800

>  <PUBCHEM_CONFORMER_RMSD>  (1) 
0.4

>  <PUBCHEM_CONFORMER_DIVERSEORDER>  (1) 
1
20
7
13
12
16
14
9
19
18
3
11
10
6
8
17
5
15
2
4

>  <PUBCHEM_MMFF94_PARTIAL_CHARGES>  (1) 
18
1 -0.19
10 -0.15
11 -0.15
15 0.15
16 0.15
17 0.15
18 0.15
19 0.4
2 -0.68
20 0.36
21 0.36
3 -0.99
4 0.42
5 -0.14
6 0.27
7 -0.15
8 -0.15
9 0.19

>  <PUBCHEM_EFFECTIVE_ROTOR_COUNT>  (1) 
2

>  <PUBCHEM_PHARMACOPHORE_FEATURES>  (1) 
5
1 2 acceptor
1 2 donor
1 3 cation
1 3 donor
6 5 7 8 9 10 11 rings

>  <PUBCHEM_HEAVY_ATOM_COUNT>  (1) 
11

>  <PUBCHEM_ATOM_DEF_STEREO_COUNT>  (1) 
0

>  <PUBCHEM_ATOM_UDEF_STEREO_COUNT>  (1) 
1

>  <PUBCHEM_BOND_DEF_STEREO_COUNT>  (1) 
0

>  <PUBCHEM_BOND_UDEF_STEREO_COUNT>  (1) 
0

>  <PUBCHEM_ISOTOPIC_ATOM_COUNT>  (1) 
0

>  <PUBCHEM_COMPONENT_COUNT>  (1) 
1

>  <PUBCHEM_CACTVS_TAUTO_COUNT>  (1) 
1

>  <PUBCHEM_CONFORMER_ID>  (1) 
00008BD800000001

>  <PUBCHEM_MMFF94_ENERGY>  (1) 
19.7896

>  <PUBCHEM_FEATURE_SELFOVERLAP>  (1) 
25.374

>  <PUBCHEM_SHAPE_FINGERPRINT>  (1) 
10857977 72 18340485689553677459
124424 183 18130779037060725570
12716758 59 18340496572948181271
12932741 1 17917723378569020174
12932764 1 18060148638705993094
13024252 1 12901534729054315535
13839132 238 18271806778820724292
14325111 11 18411415081719312178
14390081 3 18271524204369322121
15219456 202 18060423499765201750
15310529 11 14836136450274719403
15775835 57 18334292024616717680
16945 1 18336837480145426215
20645464 45 18131634490918364218
20871998 184 18199470033457635767
21040471 1 18336835169389581079
23402539 116 18269820051846667911
2748010 2 18192443974067895735
305870 269 18190173499267013114
3248919 1 17748832929260141618
369184 2 18342452659947431731
5084963 1 18269855175677647215
6333449 129 18342734130861062699
75552 356 18335978761400369122

>  <PUBCHEM_SHAPE_MULTIPOLES>  (1) 
208.25
4.65
1.55
0.88
3.04
0.05
-0.19
0.95
0.79
-1.35
0.06
0.59
0.01
0.22

>  <PUBCHEM_SHAPE_SELFOVERLAP>  (1) 
427.29

>  <PUBCHEM_SHAPE_VOLUME>  (1) 
120.9

>  <PUBCHEM_COORDINATE_TYPE>  (1) 
2
5
10

$$$$
