35806
     RDKit          3D

 17 17  0  0  0  0  0  0  0  0999 V2000
   -1.2117    1.3179   -0.1484 N   0  0  0  0  0  0  0  0  0  0  0  0
   -0.0052   -0.7630   -0.0032 N   0  0  0  0  0  0  0  0  0  0  0  0
    2.3572   -0.7444    0.2940 N   0  0  0  0  0  0  0  0  0  0  0  0
   -2.3330   -0.7378   -0.2963 N   0  0  0  0  0  0  0  0  0  0  0  0
    3.5122   -0.0709    0.4509 N   0  0  0  0  0  0  0  0  0  0  0  0
   -3.4927   -0.0801   -0.4497 N   0  0  0  0  0  0  0  0  0  0  0  0
    5.8836   -0.1914    0.0242 N   0  0  0  0  0  0  0  0  0  0  0  0
    4.5015   -1.8909   -0.6073 N   0  0  0  0  0  0  0  0  0  0  0  0
   -5.8608   -0.2433   -0.0186 N   0  0  0  0  0  0  0  0  0  0  0  0
   -4.4486   -1.9223    0.6008 N   0  0  0  0  0  0  0  0  0  0  0  0
   -0.0378    1.9662    0.0011 C   0  0  0  0  0  0  0  0  0  0  0  0
    1.1424   -0.0571    0.1433 C   0  0  0  0  0  0  0  0  0  0  0  0
    1.1764    1.3283    0.1516 C   0  0  0  0  0  0  0  0  0  0  0  0
   -1.1237   -0.0258   -0.1417 C   0  0  0  0  0  0  0  0  0  0  0  0
   -0.0902    3.4572   -0.0008 C   0  0  0  0  0  0  0  0  0  0  0  0
    4.5872   -0.6564   -0.0070 C   0  0  0  0  0  0  0  0  0  0  0  0
   -4.5566   -0.6863    0.0072 C   0  0  0  0  0  0  0  0  0  0  0  0
  1 11  2  0
  1 14  1  0
  2 12  1  0
  2 14  2  0
  3  5  1  0
  3 12  1  0
  4  6  1  0
  4 14  1  0
  5 16  2  3
  6 17  2  3
  7 16  1  0
  8 16  1  0
  9 17  1  0
 10 17  1  0
 11 13  1  0
 11 15  1  0
 12 13  2  0
M  END
>  <PUBCHEM_COMPOUND_CID>  (1) 
35806

>  <PUBCHEM_CONFORMER_RMSD>  (1) 
0.6

>  <PUBCHEM_CONFORMER_DIVERSEORDER>  (1) 
2
9
11
19
22
21
14
15
10
8
4
17
24
13
23
18
25
16
20
12
7
6
1
3
5

>  <PUBCHEM_MMFF94_PARTIAL_CHARGES>  (1) 
28
1 -0.62
10 -0.85
11 0.17
12 0.41
13 -0.15
14 0.72
15 0.14
16 0.55
17 0.55
18 0.15
2 -0.62
22 0.4
23 0.4
24 0.4
25 0.4
26 0.4
27 0.4
28 0.4
29 0.4
3 -0.46
30 0.4
31 0.4
4 -0.46
5 -0.49
6 -0.49
7 -0.85
8 -0.85
9 -0.85

>  <PUBCHEM_EFFECTIVE_ROTOR_COUNT>  (1) 
4

>  <PUBCHEM_PHARMACOPHORE_FEATURES>  (1) 
10
1 10 donor
1 3 donor
1 4 donor
1 7 donor
1 8 donor
1 9 donor
4 1 2 4 14 cation
4 5 7 8 16 cation
4 6 9 10 17 cation
6 1 2 11 12 13 14 rings

>  <PUBCHEM_HEAVY_ATOM_COUNT>  (1) 
17

>  <PUBCHEM_ATOM_DEF_STEREO_COUNT>  (1) 
0

>  <PUBCHEM_ATOM_UDEF_STEREO_COUNT>  (1) 
0

>  <PUBCHEM_BOND_DEF_STEREO_COUNT>  (1) 
0

>  <PUBCHEM_BOND_UDEF_STEREO_COUNT>  (1) 
0

>  <PUBCHEM_ISOTOPIC_ATOM_COUNT>  (1) 
0

>  <PUBCHEM_COMPONENT_COUNT>  (1) 
1

>  <PUBCHEM_CACTVS_TAUTO_COUNT>  (1) 
24

>  <PUBCHEM_CONFORMER_ID>  (1) 
00008BDE00000002

>  <PUBCHEM_MMFF94_ENERGY>  (1) 
67.8608

>  <PUBCHEM_FEATURE_SELFOVERLAP>  (1) 
50.886

>  <PUBCHEM_SHAPE_FINGERPRINT>  (1) 
10756046 70 17916298523295537061
12032990 46 18410573989446424929
12119455 92 11167942454684276937
12553582 1 18338780278204938182
12841375 25 18410009948587505005
13740256 8 18335704995974701563
13862211 1 18410848867364509574
14115302 16 17749398099664214798
14252887 29 18202569470900137886
15527383 91 18131068255489138857
17492 89 18122622761196565914
1813 80 18200609045767517716
18222031 100 18342443868397251055
187816 3 17894351072808791378
19141452 34 17846211189469756855
200 152 18114179722595170314
20388580 30 18260553346214738260
204376 136 9295286157673854141
20871998 22 18271813384401187583
20871999 31 18187077308919928965
21029758 27 18409729577517512429
21267235 1 18410862061498306915
212916 134 8502368872237309780
221490 88 18046069517140679611
22182313 1 18194092253314264300
22950370 63 18410858762958278758
2297311 6 18342184332551137212
23175994 123 18408605872697491701
23352939 185 18273219720441316856
23402539 116 18271800220374112511
23402655 69 7853589989222594315
23557571 272 18270685264370955228
23559900 14 18337101380506072697
23622692 118 17985536995806985887
2916195 48 10953747724127921726
314173 85 18342184349024163369
335352 9 18410009940941498085
4463277 17 18410855464428663680
5104073 3 18128809747553729386
68521 5 18336263440307144733
8863177 126 17751936950097927051
9971528 1 18270671078062464257

>  <PUBCHEM_SHAPE_MULTIPOLES>  (1) 
300.04
11.29
2.38
0.64
0.12
2.42
0
-7.89
0.01
0.07
0
-0.01
-0.05
0.5

>  <PUBCHEM_SHAPE_SELFOVERLAP>  (1) 
613.888

>  <PUBCHEM_SHAPE_VOLUME>  (1) 
164.6

>  <PUBCHEM_COORDINATE_TYPE>  (1) 
2
5
10

$$$$
