35805
     RDKit          3D

 34 38  0  0  1  0  0  0  0  0999 V2000
    3.9868   -0.9830    1.3005 O   0  0  0  0  0  0  0  0  0  0  0  0
   -3.5781    1.2757   -0.7970 O   0  0  0  0  0  0  0  0  0  0  0  0
    2.9983   -5.4696    0.2025 O   0  0  0  0  0  0  0  0  0  0  0  0
   -6.7305   -0.4149    0.0843 N   0  0  0  0  0  0  0  0  0  0  0  0
    2.6604    0.9336    0.5319 C   0  0  0  0  0  0  0  0  0  0  0  0
    4.0855    0.3860    0.8444 C   0  0  0  0  0  0  0  0  0  0  0  0
    1.9572    0.0765   -0.5659 C   0  0  0  0  0  0  0  0  0  0  0  0
    2.2452   -1.4023   -0.3623 C   0  0  0  0  0  0  0  0  0  0  0  0
    2.6018    2.4313    0.2458 C   0  0  0  0  0  0  0  0  0  0  0  0
    0.4639    0.3997   -0.6284 C   0  0  0  0  0  0  0  0  0  0  0  0
    5.0897    0.4357   -0.3207 C   0  0  0  0  0  0  0  0  0  0  0  0
    4.7096    1.1339    2.0386 C   0  0  0  0  0  0  0  0  0  0  0  0
    3.2179   -1.8291    0.5492 C   0  0  0  0  0  0  0  0  0  0  0  0
    1.5722   -2.3748   -1.1235 C   0  0  0  0  0  0  0  0  0  0  0  0
    2.5667    2.8804   -1.0697 C   0  0  0  0  0  0  0  0  0  0  0  0
    2.5835    3.3343    1.3030 C   0  0  0  0  0  0  0  0  0  0  0  0
    3.4554   -3.1932    0.7502 C   0  0  0  0  0  0  0  0  0  0  0  0
   -0.0741    0.9352   -1.7917 C   0  0  0  0  0  0  0  0  0  0  0  0
   -0.3376    0.1546    0.4795 C   0  0  0  0  0  0  0  0  0  0  0  0
   -8.0401   -0.5335   -0.5560 C   0  0  0  0  0  0  0  0  0  0  0  0
   -7.0048    0.1378    1.4103 C   0  0  0  0  0  0  0  0  0  0  0  0
   -8.9170   -1.0789    0.5614 C   0  0  0  0  0  0  0  0  0  0  0  0
   -8.2385   -0.6347    1.8536 C   0  0  0  0  0  0  0  0  0  0  0  0
    1.8219   -3.7348   -0.9338 C   0  0  0  0  0  0  0  0  0  0  0  0
    2.7571   -4.1444    0.0107 C   0  0  0  0  0  0  0  0  0  0  0  0
   -5.8099    0.4114   -0.6826 C   0  0  0  0  0  0  0  0  0  0  0  0
   -1.4362    1.2307   -1.8480 C   0  0  0  0  0  0  0  0  0  0  0  0
   -1.6996    0.4500    0.4230 C   0  0  0  0  0  0  0  0  0  0  0  0
   -2.2490    0.9881   -0.7407 C   0  0  0  0  0  0  0  0  0  0  0  0
    2.5128    4.2495   -1.3312 C   0  0  0  0  0  0  0  0  0  0  0  0
    2.5294    4.7034    1.0416 C   0  0  0  0  0  0  0  0  0  0  0  0
   -4.4507    0.4720   -0.0043 C   0  0  0  0  0  0  0  0  0  0  0  0
    2.4941    5.1609   -0.2755 C   0  0  0  0  0  0  0  0  0  0  0  0
    2.2568   -6.3879   -0.5994 C   0  0  0  0  0  0  0  0  0  0  0  0
  1  6  1  0
  1 13  1  0
  2 29  1  0
  2 32  1  0
  3 25  1  0
  3 34  1  0
  4 20  1  0
  4 21  1  0
  4 26  1  0
  5  6  1  0
  5  7  1  0
  5  9  1  0
  6 11  1  0
  6 12  1  0
  7  8  1  0
  7 10  1  0
  8 13  2  0
  8 14  1  0
  9 15  2  0
  9 16  1  0
 10 18  2  0
 10 19  1  0
 13 17  1  0
 14 24  2  0
 15 30  1  0
 16 31  2  0
 17 25  2  0
 18 27  1  0
 19 28  2  0
 20 22  1  0
 21 23  1  0
 22 23  1  0
 24 25  1  0
 26 32  1  0
 27 29  2  0
 28 29  1  0
 30 33  2  0
 31 33  1  0
M  END
>  <PUBCHEM_COMPOUND_CID>  (1) 
35805

>  <PUBCHEM_CONFORMER_RMSD>  (1) 
1

>  <PUBCHEM_CONFORMER_DIVERSEORDER>  (1) 
1
15
6
14
16
22
8
20
21
18
23
13
5
12
17
10
11
4
24
7
9
19
3
2

>  <PUBCHEM_MMFF94_PARTIAL_CHARGES>  (1) 
42
1 -0.36
10 -0.14
13 0.08
14 -0.15
15 -0.15
16 -0.15
17 -0.15
18 -0.15
19 -0.15
2 -0.36
20 0.27
21 0.27
24 -0.15
25 0.08
26 0.27
27 -0.15
28 -0.15
29 0.08
3 -0.36
30 -0.15
31 -0.15
32 0.28
33 -0.15
34 0.28
4 -0.81
43 0.15
44 0.15
45 0.15
46 0.15
47 0.15
48 0.15
5 0.14
57 0.15
6 0.28
60 0.15
61 0.15
62 0.15
63 0.15
66 0.15
7 0.29
8 -0.14
9 -0.14

>  <PUBCHEM_EFFECTIVE_ROTOR_COUNT>  (1) 
8.8

>  <PUBCHEM_PHARMACOPHORE_FEATURES>  (1) 
10
1 1 acceptor
1 2 acceptor
1 3 acceptor
1 4 cation
3 6 11 12 hydrophobe
5 4 20 21 22 23 rings
6 1 5 6 7 8 13 rings
6 10 18 19 27 28 29 rings
6 8 13 14 17 24 25 rings
6 9 15 16 30 31 33 rings

>  <PUBCHEM_HEAVY_ATOM_COUNT>  (1) 
34

>  <PUBCHEM_ATOM_DEF_STEREO_COUNT>  (1) 
2

>  <PUBCHEM_ATOM_UDEF_STEREO_COUNT>  (1) 
0

>  <PUBCHEM_BOND_DEF_STEREO_COUNT>  (1) 
0

>  <PUBCHEM_BOND_UDEF_STEREO_COUNT>  (1) 
0

>  <PUBCHEM_ISOTOPIC_ATOM_COUNT>  (1) 
0

>  <PUBCHEM_COMPONENT_COUNT>  (1) 
1

>  <PUBCHEM_CACTVS_TAUTO_COUNT>  (1) 
1

>  <PUBCHEM_CONFORMER_ID>  (1) 
00008BDD00000001

>  <PUBCHEM_MMFF94_ENERGY>  (1) 
123.5522

>  <PUBCHEM_FEATURE_SELFOVERLAP>  (1) 
50.775

>  <PUBCHEM_SHAPE_FINGERPRINT>  (1) 
10162869 55 18270103743459046005
10165383 225 18116438231591904196
11505856 67 16605773240912275437
11763715 3 17978816526548490717
11828532 37 16805611408101156561
12342043 65 18041560231334928919
12522641 24 18341617057634922121
12623949 98 18337114449749287015
131258 43 18054812610625301222
13140716 1 18195512904347580156
13533116 47 18409453592178873561
13692114 37 18265046027977499147
13782708 43 17968940778302351507
13911987 19 18263104183959597852
13955234 65 18412263952056886825
14004853 49 18124042496599890579
14400156 188 18410013208905993970
15183329 4 11819264573927484313
15198563 99 16391851184996427404
15264996 154 18339093604743356500
16096371 109 18340763840779881433
17492 89 18196089945988082999
19319366 153 18201150074519141701
1979834 28 18411127039848544800
21033648 29 17985524875482733816
21049683 271 18334863775638740668
21130935 74 18408895053821705179
22033318 11 17771370603465416489
22899556 105 17980781350583061726
22899556 56 16975879807652997984
23523787 8 17683849657734343606
23845131 108 18051409870543738960
255183 451 18128266583955835158
283562 15 16605178405838858172
3178227 256 18410291445577109392
4144715 1 18119806911844063365
4340502 62 18202280325243439167
50009960 94 17680406880706918731
5104073 3 18128820742690988817
57527358 35 15264492003586772208
57527585 103 16903839255764803180
5951187 136 15697434584652541816
6441014 3 17617094703625494491
86090 222 17676777474638550699
9831232 110 18335984182329910151
9962374 69 18410564111750203135

>  <PUBCHEM_SHAPE_MULTIPOLES>  (1) 
677.12
17.23
7.2
1.55
64.38
6.56
0.13
2.67
7.24
-15.28
-0.88
0.15
-0.64
0.81

>  <PUBCHEM_SHAPE_SELFOVERLAP>  (1) 
1467.865

>  <PUBCHEM_SHAPE_VOLUME>  (1) 
371

>  <PUBCHEM_COORDINATE_TYPE>  (1) 
2
5
10

$$$$
