35810
     RDKit          3D

 15 16  0  0  0  0  0  0  0  0999 V2000
    0.6877   -0.8871    0.4357 N   0  0  0  0  0  0  0  0  0  0  0  0
   -2.9639   -0.1405    0.5577 N   0  0  0  0  0  0  0  0  0  0  0  0
    2.3770   -1.8797   -0.4824 N   0  0  0  0  0  0  0  0  0  0  0  0
   -0.6229   -0.6842    1.0221 C   0  0  0  0  0  0  0  0  0  0  0  0
   -1.6499   -0.3229   -0.0442 C   0  0  0  0  0  0  0  0  0  0  0  0
    1.6502    0.0844    0.2528 C   0  0  0  0  0  0  0  0  0  0  0  0
    2.7408   -0.5564   -0.3398 C   0  0  0  0  0  0  0  0  0  0  0  0
    1.1395   -2.0634   -0.0112 C   0  0  0  0  0  0  0  0  0  0  0  0
   -3.9573    0.1956   -0.4530 C   0  0  0  0  0  0  0  0  0  0  0  0
    1.6533    1.4418    0.5518 C   0  0  0  0  0  0  0  0  0  0  0  0
   -5.3298    0.3733    0.1915 C   0  0  0  0  0  0  0  0  0  0  0  0
    3.9106    0.1154   -0.6746 C   0  0  0  0  0  0  0  0  0  0  0  0
    2.8269    2.1334    0.2196 C   0  0  0  0  0  0  0  0  0  0  0  0
    3.9287    1.4860   -0.3789 C   0  0  0  0  0  0  0  0  0  0  0  0
   -6.3907    0.7042   -0.8469 C   0  0  0  0  0  0  0  0  0  0  0  0
  1  4  1  0
  1  6  1  0
  1  8  2  0
  2  5  1  0
  2  9  1  0
  3  7  1  0
  3  8  1  0
  4  5  1  0
  6  7  2  0
  6 10  1  0
  7 12  1  0
  9 11  1  0
 10 13  2  0
 11 15  1  0
 12 14  2  0
 13 14  1  0
M  CHG  1   1   1
M  END
>  <PUBCHEM_COMPOUND_CID>  (1) 
35810

>  <PUBCHEM_CONFORMER_RMSD>  (1) 
0.6

>  <PUBCHEM_CONFORMER_DIVERSEORDER>  (1) 
1
30
47
70
58
33
23
6
12
9
57
2
27
37
29
43
38
52
62
53
7
46
5
28
56
72
11
59
24
10
71
40
8
39
66
51
60
65
61
32
64
54
48
67
35
25
31
26
63
34
50
55
44
21
22
73
20
45
14
13
49
19
4
41
42
3
68
36
15
69
16
18
17

>  <PUBCHEM_MMFF94_PARTIAL_CHARGES>  (1) 
20
1 -0.76
10 -0.11
12 -0.11
13 -0.15
14 -0.15
2 -0.9
20 0.15
21 0.36
24 0.45
27 0.15
28 0.15
29 0.15
3 -0.7
30 0.15
4 0.51
5 0.27
6 0.31
7 0.31
8 0.65
9 0.27

>  <PUBCHEM_EFFECTIVE_ROTOR_COUNT>  (1) 
5

>  <PUBCHEM_PHARMACOPHORE_FEATURES>  (1) 
7
1 15 hydrophobe
1 2 cation
1 2 donor
1 3 donor
3 1 3 8 cation
5 1 3 6 7 8 rings
6 6 7 10 12 13 14 rings

>  <PUBCHEM_HEAVY_ATOM_COUNT>  (1) 
15

>  <PUBCHEM_ATOM_DEF_STEREO_COUNT>  (1) 
0

>  <PUBCHEM_ATOM_UDEF_STEREO_COUNT>  (1) 
0

>  <PUBCHEM_BOND_DEF_STEREO_COUNT>  (1) 
0

>  <PUBCHEM_BOND_UDEF_STEREO_COUNT>  (1) 
0

>  <PUBCHEM_ISOTOPIC_ATOM_COUNT>  (1) 
0

>  <PUBCHEM_COMPONENT_COUNT>  (1) 
1

>  <PUBCHEM_CACTVS_TAUTO_COUNT>  (1) 
2

>  <PUBCHEM_CONFORMER_ID>  (1) 
00008BE200000001

>  <PUBCHEM_MMFF94_ENERGY>  (1) 
10.6815

>  <PUBCHEM_FEATURE_SELFOVERLAP>  (1) 
35.628

>  <PUBCHEM_SHAPE_FINGERPRINT>  (1) 
10693767 8 17845099472072862662
11471102 20 18412548708303981736
11796584 16 13469313681647188628
12616999 72 16774081756590859487
12654215 9 18410300233195975216
12730499 353 18334866021600765531
13836976 161 17917990564232112183
14251717 144 18342741801561993966
14528608 73 18413101784639318701
16945 1 18127716966181728098
17834072 33 18343860039959285335
20606313 2 18411984667555487272
20645477 56 18040999549171848475
20645477 70 18343023246680032399
212847 35 18040433291497575272
21637258 2 15123240871149173004
221357 26 18340767048920127805
22289505 5 18337949000507257717
231179 274 18113052753051677424
23402655 69 18344149206589329213
23557571 272 17750248039896656163
23590187 302 17846495941653888849
25 1 18410858793455462610
2748010 2 17839483407453962178
2871803 45 18412547591354457096
29717793 49 17274829021403484029
3060560 45 18272937115655793358
3545911 37 18408045130594494393
4047638 21 18187366536454663258
4072396 5 18410282611166628250
42 15 9295290551947546427
43658 37 18199463440513804064
465052 167 9151176467082596112
474 4 18334579087493755017
522135 26 18343581815745303311
5281201 14 18339643317976589813
5374978 207 13334736817340493183
6025842 7 18341048528154967015
7164475 11 17701828686908411049
8272917 22 18200881673465084815

>  <PUBCHEM_SHAPE_MULTIPOLES>  (1) 
293.75
11.27
1.86
0.86
21.89
0.09
0.02
-4.72
-3.21
-2.22
0
0.18
-0.01
0.48

>  <PUBCHEM_SHAPE_SELFOVERLAP>  (1) 
608.707

>  <PUBCHEM_SHAPE_VOLUME>  (1) 
169.7

>  <PUBCHEM_COORDINATE_TYPE>  (1) 
2
5
10

$$$$
