35818
     RDKit          3D

 21 23  0  0  0  0  0  0  0  0999 V2000
   -7.0174    0.1736   -0.4856 O   0  0  0  0  0  0  0  0  0  0  0  0
    2.9580   -0.8374   -0.5284 N   0  0  0  0  0  0  0  0  0  0  0  0
   -0.7321   -0.4847   -0.1219 N   0  0  0  0  0  0  0  0  0  0  0  0
    4.8398   -1.7597    0.0106 N   0  0  0  0  0  0  0  0  0  0  0  0
    1.5703   -0.6978   -0.9252 C   0  0  0  0  0  0  0  0  0  0  0  0
    3.8351    0.1982   -0.2791 C   0  0  0  0  0  0  0  0  0  0  0  0
    0.6555   -0.6432    0.2924 C   0  0  0  0  0  0  0  0  0  0  0  0
    5.0499   -0.3974    0.0689 C   0  0  0  0  0  0  0  0  0  0  0  0
    3.5766   -2.0091   -0.3497 C   0  0  0  0  0  0  0  0  0  0  0  0
   -1.6145   -0.4018    1.0339 C   0  0  0  0  0  0  0  0  0  0  0  0
    3.6661    1.5769   -0.3293 C   0  0  0  0  0  0  0  0  0  0  0  0
    6.1803    0.3443    0.3910 C   0  0  0  0  0  0  0  0  0  0  0  0
   -3.0564   -0.2482    0.6288 C   0  0  0  0  0  0  0  0  0  0  0  0
    4.7983    2.3389   -0.0069 C   0  0  0  0  0  0  0  0  0  0  0  0
    6.0255    1.7372    0.3448 C   0  0  0  0  0  0  0  0  0  0  0  0
   -3.8361   -1.3798    0.4355 C   0  0  0  0  0  0  0  0  0  0  0  0
   -3.5848    1.0230    0.4537 C   0  0  0  0  0  0  0  0  0  0  0  0
   -5.1717   -1.2372    0.0594 C   0  0  0  0  0  0  0  0  0  0  0  0
   -4.9205    1.1656    0.0778 C   0  0  0  0  0  0  0  0  0  0  0  0
   -5.7138    0.0355   -0.1196 C   0  0  0  0  0  0  0  0  0  0  0  0
   -7.5080    1.5032   -0.6513 C   0  0  0  0  0  0  0  0  0  0  0  0
  1 20  1  0
  1 21  1  0
  2  5  1  0
  2  6  1  0
  2  9  2  0
  3  7  1  0
  3 10  1  0
  4  8  1  0
  4  9  1  0
  5  7  1  0
  6  8  2  0
  6 11  1  0
  8 12  1  0
 10 13  1  0
 11 14  2  0
 12 15  2  0
 13 16  2  0
 13 17  1  0
 14 15  1  0
 16 18  1  0
 17 19  2  0
 18 20  2  0
 19 20  1  0
M  CHG  1   2   1
M  END
>  <PUBCHEM_COMPOUND_CID>  (1) 
35818

>  <PUBCHEM_CONFORMER_RMSD>  (1) 
0.8

>  <PUBCHEM_CONFORMER_DIVERSEORDER>  (1) 
1
15
7
18
35
50
22
3
51
38
54
5
34
52
9
36
14
28
48
42
20
2
53
16
43
47
12
19
31
40
29
24
8
46
17
27
49
21
10
6
23
44
45
55
41
11
25
39
26
13
37
56
4
33
32
30

>  <PUBCHEM_MMFF94_PARTIAL_CHARGES>  (1) 
32
1 -0.36
10 0.41
11 -0.11
12 -0.11
13 -0.14
14 -0.15
15 -0.15
16 -0.15
17 -0.15
18 -0.15
19 -0.15
2 -0.76
20 0.08
21 0.28
26 0.15
27 0.36
28 0.45
3 -0.9
31 0.15
32 0.15
33 0.15
34 0.15
35 0.15
36 0.15
37 0.15
38 0.15
4 -0.7
5 0.51
6 0.31
7 0.27
8 0.31
9 0.65

>  <PUBCHEM_EFFECTIVE_ROTOR_COUNT>  (1) 
6

>  <PUBCHEM_PHARMACOPHORE_FEATURES>  (1) 
8
1 1 acceptor
1 3 cation
1 3 donor
1 4 donor
3 2 4 9 cation
5 2 4 6 8 9 rings
6 13 16 17 18 19 20 rings
6 6 8 11 12 14 15 rings

>  <PUBCHEM_HEAVY_ATOM_COUNT>  (1) 
21

>  <PUBCHEM_ATOM_DEF_STEREO_COUNT>  (1) 
0

>  <PUBCHEM_ATOM_UDEF_STEREO_COUNT>  (1) 
0

>  <PUBCHEM_BOND_DEF_STEREO_COUNT>  (1) 
0

>  <PUBCHEM_BOND_UDEF_STEREO_COUNT>  (1) 
0

>  <PUBCHEM_ISOTOPIC_ATOM_COUNT>  (1) 
0

>  <PUBCHEM_COMPONENT_COUNT>  (1) 
1

>  <PUBCHEM_CACTVS_TAUTO_COUNT>  (1) 
2

>  <PUBCHEM_CONFORMER_ID>  (1) 
00008BEA00000001

>  <PUBCHEM_MMFF94_ENERGY>  (1) 
47.0787

>  <PUBCHEM_FEATURE_SELFOVERLAP>  (1) 
40.703

>  <PUBCHEM_SHAPE_FINGERPRINT>  (1) 
10299344 5 8502653722836865881
10411042 1 18051695435553726934
10595046 47 18343302569872573483
10835480 77 18411135836136622121
11315181 36 17988926678627914611
11719270 70 18130785642626117894
12107183 9 17692257339504502738
125118 31 18259988154304498461
13167372 99 18342461391679410608
13533116 47 17313376773860568338
13668630 136 13686293591664422117
13878862 14 18340187657858310380
1420 363 12607402191595941271
14251764 18 11891336452351080705
14251764 30 9583518711532363891
14528608 73 18343587364821950838
14556957 393 16988573407133446993
14617045 38 10592045764752546572
14933364 13 18409450288932148473
15183329 4 18412266120867880017
16079462 125 18187357736203875901
17844677 252 18270410390394786490
18222031 100 15052014563330223467
19489759 90 17821447971772606411
20157964 124 18413392020843112134
20281389 69 18186801344998000189
20511986 3 18341884221020700255
21150785 3 15841548595911924281
21315764 268 18334009462886972940
21344244 78 18058154035331615402
21859007 373 17604417493195461133
22950370 63 8935000364885232826
2297311 6 11383837069553141523
23035841 295 11095883761467030757
23559900 14 18271236214591888145
29717793 49 17988648454023951918
300161 21 18408322189881042915
328310 630 18272663350488465217
33532 11 9295287240375306557
335352 9 18341619214219694646
34797466 226 17775295970864503533
351380 180 18335141998734156144
4073 2 18041003989582951370
4325135 7 18060137643499758709
5104073 3 18334867099294581547
5283173 99 18335981965715601329
5385378 56 16153982448695873419
54039377 194 8285938873819221384
9971528 1 17894355475297956542

>  <PUBCHEM_SHAPE_MULTIPOLES>  (1) 
411.36
20.93
1.98
0.81
15.44
0.35
-0.02
7.25
1.42
-1.87
0.1
0.2
-0.02
0.83

>  <PUBCHEM_SHAPE_SELFOVERLAP>  (1) 
883.399

>  <PUBCHEM_SHAPE_VOLUME>  (1) 
230.6

>  <PUBCHEM_COORDINATE_TYPE>  (1) 
2
5
10

$$$$
