35816
     RDKit          3D

 19 21  0  0  0  0  0  0  0  0999 V2000
    2.1715   -0.8890   -0.4617 N   0  0  0  0  0  0  0  0  0  0  0  0
    3.9902   -1.8553    0.2025 N   0  0  0  0  0  0  0  0  0  0  0  0
   -1.5077   -0.3395   -0.2028 N   0  0  0  0  0  0  0  0  0  0  0  0
    0.8045   -0.7150   -0.9128 C   0  0  0  0  0  0  0  0  0  0  0  0
    3.0896    0.1206   -0.2573 C   0  0  0  0  0  0  0  0  0  0  0  0
   -0.1422   -0.5312    0.2671 C   0  0  0  0  0  0  0  0  0  0  0  0
    4.2637   -0.5033    0.1715 C   0  0  0  0  0  0  0  0  0  0  0  0
    2.7278   -2.0719   -0.1807 C   0  0  0  0  0  0  0  0  0  0  0  0
   -2.4189   -0.1334    0.9147 C   0  0  0  0  0  0  0  0  0  0  0  0
    2.9885    1.4984   -0.4101 C   0  0  0  0  0  0  0  0  0  0  0  0
    5.4183    0.2071    0.4775 C   0  0  0  0  0  0  0  0  0  0  0  0
   -3.8392    0.0564    0.4526 C   0  0  0  0  0  0  0  0  0  0  0  0
    4.1459    2.2290   -0.1052 C   0  0  0  0  0  0  0  0  0  0  0  0
    5.3319    1.5987    0.3282 C   0  0  0  0  0  0  0  0  0  0  0  0
   -4.3013    1.3346    0.1720 C   0  0  0  0  0  0  0  0  0  0  0  0
   -4.6661   -1.0495    0.3141 C   0  0  0  0  0  0  0  0  0  0  0  0
   -5.6171    1.5105   -0.2562 C   0  0  0  0  0  0  0  0  0  0  0  0
   -5.9820   -0.8736   -0.1141 C   0  0  0  0  0  0  0  0  0  0  0  0
   -6.4574    0.4064   -0.3992 C   0  0  0  0  0  0  0  0  0  0  0  0
  1  4  1  0
  1  5  1  0
  1  8  2  0
  2  7  1  0
  2  8  1  0
  3  6  1  0
  3  9  1  0
  4  6  1  0
  5  7  2  0
  5 10  1  0
  7 11  1  0
  9 12  1  0
 10 13  2  0
 11 14  2  0
 12 15  2  0
 12 16  1  0
 13 14  1  0
 15 17  1  0
 16 18  2  0
 17 19  2  0
 18 19  1  0
M  CHG  1   1   1
M  END
>  <PUBCHEM_COMPOUND_CID>  (1) 
35816

>  <PUBCHEM_CONFORMER_RMSD>  (1) 
0.6

>  <PUBCHEM_CONFORMER_DIVERSEORDER>  (1) 
1
66
8
33
30
9
41
60
6
11
67
43
31
58
3
27
65
12
20
64
26
70
21
2
46
69
15
37
61
29
14
42
5
53
19
59
51
17
75
32
16
4
39
74
62
28
10
7
40
13
71
73
72
25
18
50
54
68
23
56
55
38
35
57
44
22
47
49
52
63
48
24
45
36
34

>  <PUBCHEM_MMFF94_PARTIAL_CHARGES>  (1) 
31
1 -0.76
10 -0.11
11 -0.11
12 -0.14
13 -0.15
14 -0.15
15 -0.15
16 -0.15
17 -0.15
18 -0.15
19 -0.15
2 -0.7
24 0.15
25 0.45
26 0.36
29 0.15
3 -0.9
30 0.15
31 0.15
32 0.15
33 0.15
34 0.15
35 0.15
36 0.15
37 0.15
4 0.51
5 0.31
6 0.27
7 0.31
8 0.65
9 0.41

>  <PUBCHEM_EFFECTIVE_ROTOR_COUNT>  (1) 
5

>  <PUBCHEM_PHARMACOPHORE_FEATURES>  (1) 
7
1 2 donor
1 3 cation
1 3 donor
3 1 2 8 cation
5 1 2 5 7 8 rings
6 12 15 16 17 18 19 rings
6 5 7 10 11 13 14 rings

>  <PUBCHEM_HEAVY_ATOM_COUNT>  (1) 
19

>  <PUBCHEM_ATOM_DEF_STEREO_COUNT>  (1) 
0

>  <PUBCHEM_ATOM_UDEF_STEREO_COUNT>  (1) 
0

>  <PUBCHEM_BOND_DEF_STEREO_COUNT>  (1) 
0

>  <PUBCHEM_BOND_UDEF_STEREO_COUNT>  (1) 
0

>  <PUBCHEM_ISOTOPIC_ATOM_COUNT>  (1) 
0

>  <PUBCHEM_COMPONENT_COUNT>  (1) 
1

>  <PUBCHEM_CACTVS_TAUTO_COUNT>  (1) 
2

>  <PUBCHEM_CONFORMER_ID>  (1) 
00008BE800000001

>  <PUBCHEM_MMFF94_ENERGY>  (1) 
32.6996

>  <PUBCHEM_FEATURE_SELFOVERLAP>  (1) 
35.63

>  <PUBCHEM_SHAPE_FINGERPRINT>  (1) 
10354089 29 18411981373610911910
10411042 1 18050849915301393822
10595046 47 18341892996234647027
10670039 82 16916803855008289072
10688039 33 17821725018485899148
10835480 77 18410569553557948917
11089746 13 18186517700445529283
11128504 68 15123510332458823689
11287383 113 18410857668210986883
11724838 91 18342452690086023502
11796584 16 12179847190655965713
12107183 9 17691691082542152115
12236239 1 17989487415855780079
13073987 5 18408325463136369291
13167372 99 18341897329561633161
13533116 47 17385997317888762914
13785724 45 17764872390476214766
1420 363 13398627260461031839
14251732 16 18411418457896169431
14251764 38 18336272258081114981
14528608 73 18343023306587541197
15183329 4 18410575067969071937
15188451 53 16371297756867458811
15475509 35 16443886295210755616
16079462 125 18040987437110899005
17834072 33 18342174479616734455
17844677 252 18341339881503054509
19489759 90 17675924301007111857
20157964 124 18411982442625453303
20281389 69 18188210901994179517
20645477 70 18342179921187668662
21315763 129 18335137583555599373
21315764 268 18260543399133920661
22950370 63 9295286145058126995
2297311 6 12031791370908904067
23035841 295 11815898955358843685
23081809 10 12468362358174373507
23559900 14 18269276763911071187
239999 70 18200600202804830414
2916195 48 18333167276119767305
300161 21 18410289216362404175
335352 9 18411985767858529614
3472631 163 17060051627415597352
34797466 226 17846508049372411709
351380 180 18334296457170633881
351380 3 11746934299929656185
3545911 37 18413110575967926870
4073 2 17968101961808627131
4325135 7 18273212023933171095
5104073 3 18261682489111767267
5283173 99 18262796264405612413
542803 24 17346602963164052547
7495541 125 17775280590845222411
9841814 1 14923952275284979350
9971528 1 17749394749647467271

>  <PUBCHEM_SHAPE_MULTIPOLES>  (1) 
376.07
17.4
1.95
0.78
14.52
0.25
-0.01
4.32
-0.47
-1.88
0.09
0.06
-0.02
0.24

>  <PUBCHEM_SHAPE_SELFOVERLAP>  (1) 
810.903

>  <PUBCHEM_SHAPE_VOLUME>  (1) 
207.6

>  <PUBCHEM_COORDINATE_TYPE>  (1) 
2
5
10

$$$$
