35820
     RDKit          3D

 25 27  0  0  0  0  0  0  0  0999 V2000
    4.4894    2.4583    0.3001 O   0  0  0  0  0  0  0  0  0  0  0  0
    5.0332   -2.2542   -0.3579 O   0  0  0  0  0  0  0  0  0  0  0  0
    6.0995    0.2046    0.3397 O   0  0  0  0  0  0  0  0  0  0  0  0
   -3.8665   -0.9238    0.4030 N   0  0  0  0  0  0  0  0  0  0  0  0
   -0.1880   -0.4714   -0.0092 N   0  0  0  0  0  0  0  0  0  0  0  0
   -5.7486   -1.7819   -0.2321 N   0  0  0  0  0  0  0  0  0  0  0  0
   -2.4733   -0.8260    0.7927 C   0  0  0  0  0  0  0  0  0  0  0  0
   -1.5811   -0.5856   -0.4192 C   0  0  0  0  0  0  0  0  0  0  0  0
   -4.7579    0.1261    0.3199 C   0  0  0  0  0  0  0  0  0  0  0  0
   -5.9730   -0.4279   -0.0901 C   0  0  0  0  0  0  0  0  0  0  0  0
   -4.4769   -2.0651    0.0676 C   0  0  0  0  0  0  0  0  0  0  0  0
    0.6727   -0.2125   -1.1554 C   0  0  0  0  0  0  0  0  0  0  0  0
    2.1201   -0.1012   -0.7564 C   0  0  0  0  0  0  0  0  0  0  0  0
   -4.6014    1.4852    0.5654 C   0  0  0  0  0  0  0  0  0  0  0  0
   -7.1161    0.3386   -0.2833 C   0  0  0  0  0  0  0  0  0  0  0  0
    2.9139   -1.2394   -0.7410 C   0  0  0  0  0  0  0  0  0  0  0  0
    2.6397    1.1379   -0.4088 C   0  0  0  0  0  0  0  0  0  0  0  0
   -5.7464    2.2717    0.3749 C   0  0  0  0  0  0  0  0  0  0  0  0
   -6.9739    1.7121   -0.0394 C   0  0  0  0  0  0  0  0  0  0  0  0
    3.9806    1.2407   -0.0385 C   0  0  0  0  0  0  0  0  0  0  0  0
    4.2548   -1.1365   -0.3706 C   0  0  0  0  0  0  0  0  0  0  0  0
    4.7881    0.1036   -0.0193 C   0  0  0  0  0  0  0  0  0  0  0  0
    5.0487    3.2423   -0.7518 C   0  0  0  0  0  0  0  0  0  0  0  0
    5.0864   -2.9932    0.8609 C   0  0  0  0  0  0  0  0  0  0  0  0
    6.3758    0.6977    1.6487 C   0  0  0  0  0  0  0  0  0  0  0  0
  1 20  1  0
  1 23  1  0
  2 21  1  0
  2 24  1  0
  3 22  1  0
  3 25  1  0
  4  7  1  0
  4  9  1  0
  4 11  2  0
  5  8  1  0
  5 12  1  0
  6 10  1  0
  6 11  1  0
  7  8  1  0
  9 10  2  0
  9 14  1  0
 10 15  1  0
 12 13  1  0
 13 16  2  0
 13 17  1  0
 14 18  2  0
 15 19  2  0
 16 21  1  0
 17 20  2  0
 18 19  1  0
 20 22  1  0
 21 22  2  0
M  CHG  1   4   1
M  END
>  <PUBCHEM_COMPOUND_CID>  (1) 
35820

>  <PUBCHEM_CONFORMER_RMSD>  (1) 
0.8

>  <PUBCHEM_CONFORMER_DIVERSEORDER>  (1) 
1
110
143
147
22
18
113
2
130
124
23
79
43
141
20
47
61
99
135
116
136
117
128
118
114
87
54
106
122
67
148
30
95
41
139
46
63
127
15
44
27
93
86
21
51
92
38
152
37
146
96
71
112
82
69
77
142
89
98
50
109
108
138
39
132
101
83
154
123
134
35
24
8
151
80
121
62
45
90
104
126
42
145
125
57
65
76
28
66
25
91
29
85
56
129
150
75
36
137
31
102
70
7
4
52
81
14
111
133
84
64
153
107
119
34
60
94
5
105
17
40
144
6
58
10
131
103
32
73
140
120
48
49
12
3
149
74
100
68
11
97
115
88
19
59
16
72
26
33
9
55
13
78
53

>  <PUBCHEM_MMFF94_PARTIAL_CHARGES>  (1) 
34
1 -0.36
10 0.31
11 0.65
12 0.41
13 -0.14
14 -0.11
15 -0.11
16 -0.15
17 -0.15
18 -0.15
19 -0.15
2 -0.36
20 0.08
21 0.08
22 0.08
23 0.28
24 0.28
25 0.28
3 -0.36
30 0.15
31 0.36
34 0.45
35 0.15
36 0.15
37 0.15
38 0.15
39 0.15
4 -0.76
40 0.15
5 -0.9
6 -0.7
7 0.51
8 0.27
9 0.31

>  <PUBCHEM_EFFECTIVE_ROTOR_COUNT>  (1) 
8

>  <PUBCHEM_PHARMACOPHORE_FEATURES>  (1) 
10
1 1 acceptor
1 2 acceptor
1 3 acceptor
1 5 cation
1 5 donor
1 6 donor
3 4 6 11 cation
5 4 6 9 10 11 rings
6 13 16 17 20 21 22 rings
6 9 10 14 15 18 19 rings

>  <PUBCHEM_HEAVY_ATOM_COUNT>  (1) 
25

>  <PUBCHEM_ATOM_DEF_STEREO_COUNT>  (1) 
0

>  <PUBCHEM_ATOM_UDEF_STEREO_COUNT>  (1) 
0

>  <PUBCHEM_BOND_DEF_STEREO_COUNT>  (1) 
0

>  <PUBCHEM_BOND_UDEF_STEREO_COUNT>  (1) 
0

>  <PUBCHEM_ISOTOPIC_ATOM_COUNT>  (1) 
0

>  <PUBCHEM_COMPONENT_COUNT>  (1) 
1

>  <PUBCHEM_CACTVS_TAUTO_COUNT>  (1) 
2

>  <PUBCHEM_CONFORMER_ID>  (1) 
00008BEC00000001

>  <PUBCHEM_MMFF94_ENERGY>  (1) 
81.392

>  <PUBCHEM_FEATURE_SELFOVERLAP>  (1) 
50.863

>  <PUBCHEM_SHAPE_FINGERPRINT>  (1) 
10595046 47 18339643451089102655
10835480 77 18410291445402938621
11719270 70 17775003453443031335
11991303 11 16773798151405433469
12107183 9 18122346778770182283
12596602 18 18260830444751318233
13073987 5 18336269028586942003
13167372 99 18341897350941270489
13533116 47 18261393321754001578
13785724 45 17910119014935430838
13878862 14 18270382954376503756
14347424 109 18334851702395818536
15183329 4 18413395319488719937
15348495 7 18187932819244755707
15419008 145 18336253541146246568
17844677 252 18412272739538661061
19489759 90 18410013247923903859
20157964 124 18273218581752353830
20281389 69 18335424539422074789
20511986 3 18131059433384005407
21150785 3 12607401113311256152
21315764 268 18335419041463503333
21859007 373 17896592891450979101
23081809 10 17895480318458344807
23536379 177 18410857651047058867
23559900 14 18343294903915165233
23569943 247 17242443920120462323
2838139 119 18338797802657819901
3004659 81 18343025462988398594
312425 54 18187083940544658259
34797466 226 17703240580608944301
394071 54 16298959761293912076
4073 2 18114468971289010106
5104073 3 18410582773124304139
5283173 99 18341334401447051689
9965369 4 18335984160701936715
9971528 1 17967256415865156933
999808 66 11311770718572841133

>  <PUBCHEM_SHAPE_MULTIPOLES>  (1) 
481.94
22.16
2.85
0.96
14.25
0.56
-0.13
4.46
-3.23
-2.8
-0.08
-1.02
0.03
-0.64

>  <PUBCHEM_SHAPE_SELFOVERLAP>  (1) 
1027.942

>  <PUBCHEM_SHAPE_VOLUME>  (1) 
272.3

>  <PUBCHEM_COORDINATE_TYPE>  (1) 
2
5
10

$$$$
