35822
     RDKit          3D

 11 10  0  0  0  0  0  0  0  0999 V2000
    4.8024   -1.1293   -0.0434 O   0  0  0  0  0  0  0  0  0  0  0  0
    4.1092    0.9792    0.4473 O   0  0  0  0  0  0  0  0  0  0  0  0
    0.0282   -0.0555   -0.3510 C   0  0  0  0  0  0  0  0  0  0  0  0
    1.4333    0.4251    0.0215 C   0  0  0  0  0  0  0  0  0  0  0  0
   -1.0460    1.0187   -0.1536 C   0  0  0  0  0  0  0  0  0  0  0  0
    2.4717   -0.6646   -0.2212 C   0  0  0  0  0  0  0  0  0  0  0  0
   -2.4260    0.5369   -0.4968 C   0  0  0  0  0  0  0  0  0  0  0  0
   -3.4421    0.5026    0.3779 C   0  0  0  0  0  0  0  0  0  0  0  0
   -4.8218    0.0244    0.0354 C   0  0  0  0  0  0  0  0  0  0  0  0
    3.8570   -0.1679    0.1029 C   0  0  0  0  0  0  0  0  0  0  0  0
   -4.9657   -1.4696    0.2810 C   0  0  0  0  0  0  0  0  0  0  0  0
  1 10  1  0
  2 10  2  0
  3  4  1  0
  3  5  1  0
  4  6  1  0
  5  7  1  0
  6 10  1  0
  7  8  2  0
  8  9  1  0
  9 11  1  0
M  END
>  <PUBCHEM_COMPOUND_CID>  (1) 
35822

>  <PUBCHEM_CONFORMER_RMSD>  (1) 
0.6

>  <PUBCHEM_CONFORMER_DIVERSEORDER>  (1) 
2
160
133
151
3
89
11
158
114
1
4
149
66
154
138
5
128
92
144
49
157
33
88
56
118
163
7
8
161
167
123
9
148
43
156
22
30
139
86
121
25
145
155
14
85
153
141
87
124
91
68
53
146
111
119
142
93
102
152
57
132
116
50
29
82
90
79
71
73
31
44
110
94
18
41
126
42
48
16
61
58
12
140
95
98
17
103
120
10
64
113
15
77
135
47
134
83
35
54
28
27
21
13
60
136
67
164
112
150
76
20
143
46
72
81
32
37
69
115
165
80
166
122
137
99
162
125
100
84
38
127
59
96
55
19
107
39
70
131
147
159
26
62
109
45
106
117
74
97
75
34
63
105
52
101
108
130
51
65
104
6
40
36
78
24
129
23

>  <PUBCHEM_MMFF94_PARTIAL_CHARGES>  (1) 
11
1 -0.65
10 0.66
2 -0.57
20 0.15
21 0.15
27 0.5
5 0.14
6 0.06
7 -0.29
8 -0.29
9 0.14

>  <PUBCHEM_EFFECTIVE_ROTOR_COUNT>  (1) 
6

>  <PUBCHEM_PHARMACOPHORE_FEATURES>  (1) 
5
1 1 acceptor
1 11 hydrophobe
1 2 acceptor
3 1 2 10 anion
5 3 4 5 6 7 hydrophobe

>  <PUBCHEM_HEAVY_ATOM_COUNT>  (1) 
11

>  <PUBCHEM_ATOM_DEF_STEREO_COUNT>  (1) 
0

>  <PUBCHEM_ATOM_UDEF_STEREO_COUNT>  (1) 
0

>  <PUBCHEM_BOND_DEF_STEREO_COUNT>  (1) 
0

>  <PUBCHEM_BOND_UDEF_STEREO_COUNT>  (1) 
1

>  <PUBCHEM_ISOTOPIC_ATOM_COUNT>  (1) 
0

>  <PUBCHEM_COMPONENT_COUNT>  (1) 
1

>  <PUBCHEM_CACTVS_TAUTO_COUNT>  (1) 
1

>  <PUBCHEM_CONFORMER_ID>  (1) 
00008BEE00000002

>  <PUBCHEM_MMFF94_ENERGY>  (1) 
1.4784

>  <PUBCHEM_FEATURE_SELFOVERLAP>  (1) 
25.429

>  <PUBCHEM_SHAPE_FINGERPRINT>  (1) 
100836 57 10519991478340109171
10354089 29 13830137204378315399
10680689 15 17822013077900122845
11062470 55 9367339340764551324
13237642 15 18343299301128018553
14123238 8 18413108376691431325
14123255 352 11383846935151049323
1420 363 18411704287415830318
14252887 29 17632305548803031638
14455015 7 18202289065380801182
15501527 16 9439410138212624127
17834072 33 18335424616003479565
200 152 15574712495717840269
20300324 65 11818991890400584527
20645477 56 10159691396163138813
20645477 70 18339644443537992230
20719005 15 18411699876626640742
20724930 31 18410857680942849465
20724930 69 10663825178548856975
20767249 213 11527952245107916819
20828058 44 18342177765382669479
21119208 17 13262398869069653913
22485316 2 18260827077544391569
23402539 116 16226042280480294765
23402655 69 11386364846157351971
42 15 18342459227073616629
42788 4 18342175557674611725
449060 50 16630528436010156405
49783359 22 18343581854600735495
57483677 66 18261108560663092315

>  <PUBCHEM_SHAPE_MULTIPOLES>  (1) 
214.64
11.89
1.17
0.68
0.33
0.23
-0.01
3.7
1.35
0.39
0.05
0.1
-0.03
0.35

>  <PUBCHEM_SHAPE_SELFOVERLAP>  (1) 
393.356

>  <PUBCHEM_SHAPE_VOLUME>  (1) 
135.9

>  <PUBCHEM_COORDINATE_TYPE>  (1) 
2
5
10

$$$$
