3582
     RDKit          3D

 48 52  0  0  1  0  0  0  0  0999 V2000
   -5.3048    2.2243    0.5544 O   0  0  0  0  0  0  0  0  0  0  0  0
   -3.1042   -4.7323   -1.2228 O   0  0  0  0  0  0  0  0  0  0  0  0
   -2.0578    5.3205   -1.5644 O   0  0  0  0  0  0  0  0  0  0  0  0
   -5.8609   -1.9474    1.8296 O   0  0  0  0  0  0  0  0  0  0  0  0
   -3.4736    3.6037   -2.0426 O   0  0  0  0  0  0  0  0  0  0  0  0
   -4.1276   -3.4227    1.8112 O   0  0  0  0  0  0  0  0  0  0  0  0
    7.4275    3.2796    0.8776 O   0  0  0  0  0  0  0  0  0  0  0  0
    7.3160   -3.2558   -1.2013 O   0  0  0  0  0  0  0  0  0  0  0  0
    6.8871    2.9004   -1.2935 O   0  0  0  0  0  0  0  0  0  0  0  0
    6.9484   -3.2860    1.0401 O   0  0  0  0  0  0  0  0  0  0  0  0
   -2.0260    1.3151    0.1194 N   0  0  0  0  0  0  0  0  0  0  0  0
   -2.1028   -1.5937   -0.2740 N   0  0  0  0  0  0  0  0  0  0  0  0
    0.9005    1.3441    0.6377 N   0  0  0  0  0  0  0  0  0  0  0  0
    0.8104   -1.6445    0.0522 N   0  0  0  0  0  0  0  0  0  0  0  0
   -3.1569    3.3004    0.9946 C   0  0  0  0  0  0  0  0  0  0  0  0
   -4.1879   -2.5423   -1.1229 C   0  0  0  0  0  0  0  0  0  0  0  0
   -1.8519    2.5908    0.6304 C   0  0  0  0  0  0  0  0  0  0  0  0
   -3.4153   -1.3284   -0.6098 C   0  0  0  0  0  0  0  0  0  0  0  0
   -4.0910    2.2226    0.5379 C   0  0  0  0  0  0  0  0  0  0  0  0
   -3.4158    4.5749    0.1923 C   0  0  0  0  0  0  0  0  0  0  0  0
   -3.2897    1.0683    0.0446 C   0  0  0  0  0  0  0  0  0  0  0  0
   -3.0816   -3.5443   -0.9761 C   0  0  0  0  0  0  0  0  0  0  0  0
   -5.3641   -2.9400   -0.2333 C   0  0  0  0  0  0  0  0  0  0  0  0
   -3.3175    3.5182    2.4976 C   0  0  0  0  0  0  0  0  0  0  0  0
   -3.9917   -0.1232   -0.4703 C   0  0  0  0  0  0  0  0  0  0  0  0
   -4.5852   -2.4225   -2.5923 C   0  0  0  0  0  0  0  0  0  0  0  0
   -1.8703   -2.8477   -0.4648 C   0  0  0  0  0  0  0  0  0  0  0  0
   -0.6625    3.2098    0.7588 C   0  0  0  0  0  0  0  0  0  0  0  0
    0.5989    2.6677    0.4107 C   0  0  0  0  0  0  0  0  0  0  0  0
    2.7398    2.2674   -0.1866 C   0  0  0  0  0  0  0  0  0  0  0  0
    1.7401    3.2627   -0.0906 C   0  0  0  0  0  0  0  0  0  0  0  0
    2.1979    1.0766    0.2586 C   0  0  0  0  0  0  0  0  0  0  0  0
    0.5324   -2.9887    0.0233 C   0  0  0  0  0  0  0  0  0  0  0  0
    2.1275   -1.3779    0.3301 C   0  0  0  0  0  0  0  0  0  0  0  0
    2.7559   -2.7024    0.4925 C   0  0  0  0  0  0  0  0  0  0  0  0
   -0.6317   -3.6086   -0.2158 C   0  0  0  0  0  0  0  0  0  0  0  0
    1.8103   -3.6542    0.3089 C   0  0  0  0  0  0  0  0  0  0  0  0
    2.7792   -0.2069    0.4250 C   0  0  0  0  0  0  0  0  0  0  0  0
    4.1186    2.4686   -0.6841 C   0  0  0  0  0  0  0  0  0  0  0  0
   -3.0191    4.4147   -1.2498 C   0  0  0  0  0  0  0  0  0  0  0  0
    4.2023   -2.8802    0.8077 C   0  0  0  0  0  0  0  0  0  0  0  0
   -5.0205   -2.8274    1.2269 C   0  0  0  0  0  0  0  0  0  0  0  0
    1.8916    4.6851   -0.4676 C   0  0  0  0  0  0  0  0  0  0  0  0
    1.9517   -5.1367    0.3686 C   0  0  0  0  0  0  0  0  0  0  0  0
    5.1383    2.8576    0.4041 C   0  0  0  0  0  0  0  0  0  0  0  0
    5.0667   -2.9789   -0.4434 C   0  0  0  0  0  0  0  0  0  0  0  0
    6.5478    3.0168   -0.1245 C   0  0  0  0  0  0  0  0  0  0  0  0
    6.5216   -3.1967   -0.1042 C   0  0  0  0  0  0  0  0  0  0  0  0
  1 19  2  0
  2 22  2  0
  3 40  1  0
  4 42  1  0
  5 40  2  0
  6 42  2  0
  7 47  1  0
  8 48  1  0
  9 47  2  0
 10 48  2  0
 11 17  2  0
 11 21  1  0
 12 18  2  0
 12 27  1  0
 13 29  1  0
 13 32  1  0
 14 33  1  0
 14 34  1  0
 15 17  1  0
 15 19  1  0
 15 20  1  0
 15 24  1  0
 16 18  1  0
 16 22  1  0
 16 23  1  0
 16 26  1  0
 17 28  1  0
 18 25  1  0
 19 21  1  0
 20 40  1  0
 21 25  2  0
 22 27  1  0
 23 42  1  0
 27 36  2  0
 28 29  2  0
 29 31  1  0
 30 31  2  0
 30 32  1  0
 30 39  1  0
 31 43  1  0
 32 38  2  0
 33 36  1  0
 33 37  2  0
 34 35  2  0
 34 38  1  0
 35 37  1  0
 35 41  1  0
 37 44  1  0
 39 45  1  0
 41 46  1  0
 45 47  1  0
 46 48  1  0
M  END
>  <PUBCHEM_COMPOUND_CID>  (1) 
3582

>  <PUBCHEM_CONFORMER_RMSD>  (1) 
1.2

>  <PUBCHEM_CONFORMER_DIVERSEORDER>  (1) 
7
45
22
40
53
39
37
31
61
59
54
46
48
44
51
55
25
49
58
21
41
60
30
50
52
38
27
8
17
47
29
32
19
57
24
42
34
5
56
36
26
33
14
20
43
23
28
12
35
15
9
16
3
6
13
2
10
18
11
1
4

>  <PUBCHEM_MMFF94_PARTIAL_CHARGES>  (1) 
56
1 -0.57
10 -0.57
11 -0.62
12 -0.62
13 0.03
14 -0.6
15 0.2
16 0.2
17 0.03
18 0.03
19 0.51
2 -0.57
20 0.06
21 0.44
22 0.51
23 0.06
25 -0.14
27 0.44
28 -0.11
29 -0.2
3 -0.65
30 -0.18
31 -0.18
32 -0.2
33 0.1
34 0.1
35 -0.14
36 -0.14
37 -0.14
38 -0.11
39 0.18
4 -0.65
40 0.66
41 0.14
42 0.66
43 0.18
44 0.14
45 0.06
46 0.06
47 0.66
48 0.66
5 -0.57
56 0.15
6 -0.57
60 0.15
61 0.15
62 0.27
63 0.15
64 0.4
7 -0.65
79 0.5
8 -0.65
80 0.5
81 0.5
82 0.5
9 -0.57

>  <PUBCHEM_EFFECTIVE_ROTOR_COUNT>  (1) 
10.4

>  <PUBCHEM_PHARMACOPHORE_FEATURES>  (1) 
24
1 1 acceptor
1 10 acceptor
1 11 acceptor
1 12 acceptor
1 13 cation
1 13 donor
1 14 cation
1 14 donor
1 2 acceptor
1 3 acceptor
1 4 acceptor
1 5 acceptor
1 6 acceptor
1 7 acceptor
1 8 acceptor
1 9 acceptor
3 3 5 40 anion
3 4 6 42 anion
3 7 9 47 anion
3 8 10 48 anion
5 11 15 17 19 21 rings
5 12 16 18 22 27 rings
5 13 29 30 31 32 rings
5 14 33 34 35 37 rings

>  <PUBCHEM_HEAVY_ATOM_COUNT>  (1) 
48

>  <PUBCHEM_ATOM_DEF_STEREO_COUNT>  (1) 
0

>  <PUBCHEM_ATOM_UDEF_STEREO_COUNT>  (1) 
2

>  <PUBCHEM_BOND_DEF_STEREO_COUNT>  (1) 
0

>  <PUBCHEM_BOND_UDEF_STEREO_COUNT>  (1) 
0

>  <PUBCHEM_ISOTOPIC_ATOM_COUNT>  (1) 
0

>  <PUBCHEM_COMPONENT_COUNT>  (1) 
1

>  <PUBCHEM_CACTVS_TAUTO_COUNT>  (1) 
21

>  <PUBCHEM_CONFORMER_ID>  (1) 
00000DFE00000007

>  <PUBCHEM_MMFF94_ENERGY>  (1) 
110.3353

>  <PUBCHEM_FEATURE_SELFOVERLAP>  (1) 
122.051

>  <PUBCHEM_SHAPE_FINGERPRINT>  (1) 
10190108 129 18193575564674712473
10190206 1 18265339593936033828
10675989 125 17978232983060483812
10940486 97 18339359639549904316
11136131 41 18333722525624595714
11204353 107 18266177236764287978
11513181 2 18273500078589172918
12440605 4 18340217335944643506
14394314 77 18269561709948870465
15001296 14 18408603630803632648
15320467 1 18122904488810618048
15328829 1 17534597569173048896
15351339 4 18338506555902510634
20764821 26 17690828378204807943
21796203 349 17332004558192714648
22311459 1 18050569543782300258
3388396 114 18197479926027390847
57676310 188 18335426799081443692
9961470 85 18270384027854577177

>  <PUBCHEM_SHAPE_MULTIPOLES>  (1) 
909.2
15.4
9.68
1.47
21.49
1.72
-0.11
-3.52
-0.27
0.35
-0.95
-1.95
0.22
-1.2

>  <PUBCHEM_SHAPE_SELFOVERLAP>  (1) 
1992.841

>  <PUBCHEM_SHAPE_VOLUME>  (1) 
489.8

>  <PUBCHEM_COORDINATE_TYPE>  (1) 
2
5
10

$$$$
