35837
     RDKit          3D

 32 39  0  0  0  0  0  0  0  0999 V2000
    0.7116   -0.3094    0.0848 C   0  0  0  0  0  0  0  0  0  0  0  0
   -0.7117   -0.3095    0.0848 C   0  0  0  0  0  0  0  0  0  0  0  0
    1.4307    0.9204    0.0355 C   0  0  0  0  0  0  0  0  0  0  0  0
   -1.4308    0.9202    0.0352 C   0  0  0  0  0  0  0  0  0  0  0  0
    1.4107   -1.5487    0.1079 C   0  0  0  0  0  0  0  0  0  0  0  0
   -1.4106   -1.5489    0.1080 C   0  0  0  0  0  0  0  0  0  0  0  0
    0.7082    2.1062    0.4023 C   0  0  0  0  0  0  0  0  0  0  0  0
   -0.7086    2.1060    0.4022 C   0  0  0  0  0  0  0  0  0  0  0  0
    0.7071   -2.7878    0.2573 C   0  0  0  0  0  0  0  0  0  0  0  0
   -0.7068   -2.7879    0.2571 C   0  0  0  0  0  0  0  0  0  0  0  0
    2.8388    0.8827   -0.3233 C   0  0  0  0  0  0  0  0  0  0  0  0
   -2.8388    0.8822   -0.3235 C   0  0  0  0  0  0  0  0  0  0  0  0
    2.8127   -1.5114   -0.0290 C   0  0  0  0  0  0  0  0  0  0  0  0
   -2.8126   -1.5117   -0.0282 C   0  0  0  0  0  0  0  0  0  0  0  0
    3.5214   -0.3440   -0.2952 C   0  0  0  0  0  0  0  0  0  0  0  0
   -3.5215   -0.3443   -0.2946 C   0  0  0  0  0  0  0  0  0  0  0  0
    1.3594    3.2817    0.8765 C   0  0  0  0  0  0  0  0  0  0  0  0
   -1.3602    3.2814    0.8760 C   0  0  0  0  0  0  0  0  0  0  0  0
    1.3661   -4.0458    0.3976 C   0  0  0  0  0  0  0  0  0  0  0  0
   -1.3655   -4.0462    0.3966 C   0  0  0  0  0  0  0  0  0  0  0  0
    3.6089    1.9919   -0.7742 C   0  0  0  0  0  0  0  0  0  0  0  0
   -3.6087    1.9912   -0.7754 C   0  0  0  0  0  0  0  0  0  0  0  0
    4.9030   -0.4229   -0.5616 C   0  0  0  0  0  0  0  0  0  0  0  0
   -4.9030   -0.4233   -0.5605 C   0  0  0  0  0  0  0  0  0  0  0  0
    0.6860    4.4322    1.2791 C   0  0  0  0  0  0  0  0  0  0  0  0
   -0.6872    4.4321    1.2787 C   0  0  0  0  0  0  0  0  0  0  0  0
    0.6881   -5.2553    0.5304 C   0  0  0  0  0  0  0  0  0  0  0  0
   -0.6872   -5.2556    0.5299 C   0  0  0  0  0  0  0  0  0  0  0  0
    4.9758    1.9114   -1.0579 C   0  0  0  0  0  0  0  0  0  0  0  0
   -4.9756    1.9106   -1.0589 C   0  0  0  0  0  0  0  0  0  0  0  0
    5.6310    0.7015   -0.9288 C   0  0  0  0  0  0  0  0  0  0  0  0
   -5.6309    0.7010   -0.9285 C   0  0  0  0  0  0  0  0  0  0  0  0
  1  2  2  0
  1  3  1  0
  1  5  1  0
  2  4  1  0
  2  6  1  0
  3  7  2  0
  3 11  1  0
  4  8  2  0
  4 12  1  0
  5  9  1  0
  5 13  2  0
  6 10  1  0
  6 14  2  0
  7  8  1  0
  7 17  1  0
  8 18  1  0
  9 10  2  0
  9 19  1  0
 10 20  1  0
 11 15  2  0
 11 21  1  0
 12 16  2  0
 12 22  1  0
 13 15  1  0
 14 16  1  0
 15 23  1  0
 16 24  1  0
 17 25  2  0
 18 26  2  0
 19 27  2  0
 20 28  2  0
 21 29  2  0
 22 30  2  0
 23 31  2  0
 24 32  2  0
 25 26  1  0
 27 28  1  0
 29 31  1  0
 30 32  1  0
M  END
>  <PUBCHEM_COMPOUND_CID>  (1) 
35837

>  <PUBCHEM_CONFORMER_RMSD>  (1) 
0.6

>  <PUBCHEM_CONFORMER_DIVERSEORDER>  (1) 
1
2

>  <PUBCHEM_MMFF94_PARTIAL_CHARGES>  (1) 
36
13 -0.15
14 -0.15
17 -0.15
18 -0.15
19 -0.15
20 -0.15
21 -0.15
22 -0.15
23 -0.15
24 -0.15
25 -0.15
26 -0.15
27 -0.15
28 -0.15
29 -0.15
30 -0.15
31 -0.15
32 -0.15
33 0.15
34 0.15
35 0.15
36 0.15
37 0.15
38 0.15
39 0.15
40 0.15
41 0.15
42 0.15
43 0.15
44 0.15
45 0.15
46 0.15
47 0.15
48 0.15
49 0.15
50 0.15

>  <PUBCHEM_EFFECTIVE_ROTOR_COUNT>  (1) 
0

>  <PUBCHEM_PHARMACOPHORE_FEATURES>  (1) 
8
6 1 2 3 4 7 8 rings
6 1 2 5 6 9 10 rings
6 1 3 5 11 13 15 rings
6 11 15 21 23 29 31 rings
6 12 16 22 24 30 32 rings
6 2 4 6 12 14 16 rings
6 7 8 17 18 25 26 rings
6 9 10 19 20 27 28 rings

>  <PUBCHEM_HEAVY_ATOM_COUNT>  (1) 
32

>  <PUBCHEM_ATOM_DEF_STEREO_COUNT>  (1) 
0

>  <PUBCHEM_ATOM_UDEF_STEREO_COUNT>  (1) 
0

>  <PUBCHEM_BOND_DEF_STEREO_COUNT>  (1) 
0

>  <PUBCHEM_BOND_UDEF_STEREO_COUNT>  (1) 
0

>  <PUBCHEM_ISOTOPIC_ATOM_COUNT>  (1) 
0

>  <PUBCHEM_COMPONENT_COUNT>  (1) 
1

>  <PUBCHEM_CACTVS_TAUTO_COUNT>  (1) 
1

>  <PUBCHEM_CONFORMER_ID>  (1) 
00008BFD00000001

>  <PUBCHEM_MMFF94_ENERGY>  (1) 
166.2749

>  <PUBCHEM_FEATURE_SELFOVERLAP>  (1) 
40.812

>  <PUBCHEM_SHAPE_FINGERPRINT>  (1) 
10165383 225 18260546736508093733
10190108 129 17617989821573521617
10290309 65 18336561511644349818
10675989 125 18192708951695661173
10693767 8 18059842948993857639
1100329 8 18339645671238788266
11014199 57 17402607450971046139
11135926 11 18265049129117752381
11513181 2 17482264912060985678
11578080 2 16484152823900359202
12202916 173 18131066052708733452
12293681 160 18343585135496989376
12403259 226 17619355745875237570
12788726 201 18342460292537021944
13140716 1 18411700941625575755
138480 1 17687742744592535942
13911987 19 18335990808667888933
14028597 1 17987815020748522337
140371 6 18199763581956868832
14178342 30 17690826875045674922
14415360 78 18265315378594096397
14790565 3 18409454673872594941
14931854 50 18411981330055201869
14932702 115 18052274061436093780
15351339 4 18338513028170091449
15775530 1 17693091181440024993
15890870 6 18408041809878010167
16993438 75 18115034133525395315
18608769 82 18261396710973607083
19319366 153 18338227185512477375
19591789 44 18337954609824093451
20028762 73 18198054782021053110
20739085 24 15246537570572297064
20775438 99 17264375105560301695
21133410 221 17484491759090881104
22440779 20 16521632989416783226
23558518 356 17690845558116131771
23559900 14 17977651027301881723
283562 15 18270123405218394984
3178227 256 18338249249328870729
3298306 158 18410568483593932855
350125 39 18192439786554039731
394222 165 17822003186321253074
4058900 60 18188216398866314799
484989 97 18191871334747765583
5171179 24 17766843105911580946
5265222 85 18189628287750187772
9709674 26 17837204149276147589
9981440 41 18334859385485838442

>  <PUBCHEM_SHAPE_MULTIPOLES>  (1) 
658.54
8.87
6.96
1
0
5.75
-0.02
-4.54
5.12
0
-3.25
0
-0.73
0

>  <PUBCHEM_SHAPE_SELFOVERLAP>  (1) 
1568.182

>  <PUBCHEM_SHAPE_VOLUME>  (1) 
294.2

>  <PUBCHEM_COORDINATE_TYPE>  (1) 
2
5
10

$$$$
