35838
     RDKit          3D

 32 39  0  0  0  0  0  0  0  0999 V2000
   -1.0188    0.7154   -0.0002 C   0  0  0  0  0  0  0  0  0  0  0  0
   -1.0188   -0.7155   -0.0003 C   0  0  0  0  0  0  0  0  0  0  0  0
    0.2111    1.4200   -0.0014 C   0  0  0  0  0  0  0  0  0  0  0  0
    0.2112   -1.4200   -0.0013 C   0  0  0  0  0  0  0  0  0  0  0  0
    1.4577    0.7079   -0.0015 C   0  0  0  0  0  0  0  0  0  0  0  0
    1.4577   -0.7081   -0.0013 C   0  0  0  0  0  0  0  0  0  0  0  0
   -2.2527    1.4401    0.0008 C   0  0  0  0  0  0  0  0  0  0  0  0
   -2.2527   -1.4401    0.0009 C   0  0  0  0  0  0  0  0  0  0  0  0
   -2.2747    2.8750    0.0006 C   0  0  0  0  0  0  0  0  0  0  0  0
   -2.2748   -2.8750    0.0006 C   0  0  0  0  0  0  0  0  0  0  0  0
    0.1455    2.8337   -0.0023 C   0  0  0  0  0  0  0  0  0  0  0  0
    0.1455   -2.8338   -0.0022 C   0  0  0  0  0  0  0  0  0  0  0  0
   -1.0495    3.5604   -0.0013 C   0  0  0  0  0  0  0  0  0  0  0  0
   -1.0495   -3.5604   -0.0013 C   0  0  0  0  0  0  0  0  0  0  0  0
   -3.4381    0.6950    0.0022 C   0  0  0  0  0  0  0  0  0  0  0  0
   -3.4380   -0.6950    0.0022 C   0  0  0  0  0  0  0  0  0  0  0  0
    2.7231    1.3667   -0.0012 C   0  0  0  0  0  0  0  0  0  0  0  0
    2.7232   -1.3669   -0.0004 C   0  0  0  0  0  0  0  0  0  0  0  0
    3.9581    0.6979   -0.0003 C   0  0  0  0  0  0  0  0  0  0  0  0
    3.9580   -0.6979    0.0003 C   0  0  0  0  0  0  0  0  0  0  0  0
   -3.4489    3.6793    0.0021 C   0  0  0  0  0  0  0  0  0  0  0  0
   -3.4489   -3.6792    0.0021 C   0  0  0  0  0  0  0  0  0  0  0  0
   -1.0104    4.9684   -0.0022 C   0  0  0  0  0  0  0  0  0  0  0  0
   -1.0103   -4.9682   -0.0024 C   0  0  0  0  0  0  0  0  0  0  0  0
    5.1840    1.3887    0.0007 C   0  0  0  0  0  0  0  0  0  0  0  0
    5.1842   -1.3886    0.0017 C   0  0  0  0  0  0  0  0  0  0  0  0
   -3.4022    5.0760    0.0015 C   0  0  0  0  0  0  0  0  0  0  0  0
   -3.4021   -5.0760    0.0013 C   0  0  0  0  0  0  0  0  0  0  0  0
   -2.1786    5.7226   -0.0008 C   0  0  0  0  0  0  0  0  0  0  0  0
   -2.1785   -5.7226   -0.0011 C   0  0  0  0  0  0  0  0  0  0  0  0
    6.3941    0.6953    0.0022 C   0  0  0  0  0  0  0  0  0  0  0  0
    6.3941   -0.6951    0.0027 C   0  0  0  0  0  0  0  0  0  0  0  0
  1  2  2  0
  1  3  1  0
  1  7  1  0
  2  4  1  0
  2  8  1  0
  3  5  1  0
  3 11  2  0
  4  6  1  0
  4 12  2  0
  5  6  2  0
  5 17  1  0
  6 18  1  0
  7  9  1  0
  7 15  2  0
  8 10  1  0
  8 16  2  0
  9 13  2  0
  9 21  1  0
 10 14  2  0
 10 22  1  0
 11 13  1  0
 12 14  1  0
 13 23  1  0
 14 24  1  0
 15 16  1  0
 17 19  2  0
 18 20  2  0
 19 20  1  0
 19 25  1  0
 20 26  1  0
 21 27  2  0
 22 28  2  0
 23 29  2  0
 24 30  2  0
 25 31  2  0
 26 32  2  0
 27 29  1  0
 28 30  1  0
 31 32  1  0
M  END
>  <PUBCHEM_COMPOUND_CID>  (1) 
35838

>  <PUBCHEM_CONFORMER_RMSD>  (1) 
0.6

>  <PUBCHEM_CONFORMER_DIVERSEORDER>  (1) 
1

>  <PUBCHEM_MMFF94_PARTIAL_CHARGES>  (1) 
36
11 -0.15
12 -0.15
15 -0.15
16 -0.15
17 -0.15
18 -0.15
21 -0.15
22 -0.15
23 -0.15
24 -0.15
25 -0.15
26 -0.15
27 -0.15
28 -0.15
29 -0.15
30 -0.15
31 -0.15
32 -0.15
33 0.15
34 0.15
35 0.15
36 0.15
37 0.15
38 0.15
39 0.15
40 0.15
41 0.15
42 0.15
43 0.15
44 0.15
45 0.15
46 0.15
47 0.15
48 0.15
49 0.15
50 0.15

>  <PUBCHEM_EFFECTIVE_ROTOR_COUNT>  (1) 
0

>  <PUBCHEM_PHARMACOPHORE_FEATURES>  (1) 
8
6 1 2 3 4 5 6 rings
6 1 2 7 8 15 16 rings
6 1 3 7 9 11 13 rings
6 10 14 22 24 28 30 rings
6 19 20 25 26 31 32 rings
6 2 4 8 10 12 14 rings
6 5 6 17 18 19 20 rings
6 9 13 21 23 27 29 rings

>  <PUBCHEM_HEAVY_ATOM_COUNT>  (1) 
32

>  <PUBCHEM_ATOM_DEF_STEREO_COUNT>  (1) 
0

>  <PUBCHEM_ATOM_UDEF_STEREO_COUNT>  (1) 
0

>  <PUBCHEM_BOND_DEF_STEREO_COUNT>  (1) 
0

>  <PUBCHEM_BOND_UDEF_STEREO_COUNT>  (1) 
0

>  <PUBCHEM_ISOTOPIC_ATOM_COUNT>  (1) 
0

>  <PUBCHEM_COMPONENT_COUNT>  (1) 
1

>  <PUBCHEM_CACTVS_TAUTO_COUNT>  (1) 
1

>  <PUBCHEM_CONFORMER_ID>  (1) 
00008BFE00000001

>  <PUBCHEM_MMFF94_ENERGY>  (1) 
135.6454

>  <PUBCHEM_FEATURE_SELFOVERLAP>  (1) 
40.807

>  <PUBCHEM_SHAPE_FINGERPRINT>  (1) 
10290309 65 18195818357593428314
10319926 262 18269536314245080082
10411042 1 18122344854762372966
10675989 125 17258215168806636456
10940486 97 18261967267193076828
1100329 8 18266463303261374787
11014199 57 18265899253406000444
11059845 2 18049129235284779098
11135609 187 17975117765724156853
11136131 41 17757269284844250995
11411753 3 16960396467857965191
11513181 2 17984695623791454270
11763715 3 18047211909806101254
12107183 9 18052556649110079907
12788726 201 18337657664174592755
13140716 1 18266741474701184227
13757389 114 18337408053971857748
138480 1 16537358788241429987
13911987 19 18263063463058231301
14394314 77 18050578627000120169
14790565 3 18122345670795051090
15042514 8 18338800133938902930
15230672 131 18048885096633657014
15320467 1 18410575080626574468
15400415 2 18122343467968568896
15439362 3 17256243744183753316
15664445 248 17332266680046763156
15705408 1 17257652746953903708
15890870 6 18122626054893234524
15927050 60 17908701731424311575
16087824 20 18410575120162644471
19302320 297 15317734242627489176
19311894 1 18338233881229848035
19319366 153 17838324186363396373
20101258 96 18193565690223067467
20775438 99 17261829715088767383
21033648 29 18269826520352830760
21033650 10 18116741619717917078
21133410 127 17177163600319990940
21133410 171 17544135784994046466
21133410 221 17484759949686253144
21133410 32 15505479736389472514
21796203 349 17540293094305554107
22311459 1 18410573989456967958
23559900 14 17690553513267785523
24771750 20 17543651733066359902
255183 313 18270701795916206489
283562 15 18269269080731367953
3103668 31 18335697278493302239
3178227 256 18336842982821641195
335352 9 18194400215939982087
3380486 145 18192167094273454723
3534868 343 18045791345452704078
3882209 13 17693055932865102518
4409770 3 18335132094755765109
5265222 85 18194136114110537540
550186 72 18194402432121890700
563151 97 18122053209624885365
6058803 2 18186802483622977150
613672 6 17908113805819390722
6673363 416 17977683210536803980
6700243 42 17840346442255784462
70251023 43 17687464980683873339
77188 2 17978510063451804646
79837 15 18338237055088626570
9777508 108 18340198614446236032
9981440 41 18120656833814746209

>  <PUBCHEM_SHAPE_MULTIPOLES>  (1) 
658.54
9.77
9.12
0.62
20.51
0
0
0
-0.01
-15.45
0
0
0
0

>  <PUBCHEM_SHAPE_SELFOVERLAP>  (1) 
1567.795

>  <PUBCHEM_SHAPE_VOLUME>  (1) 
295

>  <PUBCHEM_COORDINATE_TYPE>  (1) 
2
5
10

$$$$
