35833
     RDKit          3D

 15 16  0  0  1  0  0  0  0  0999 V2000
   -0.5328    1.3638   -0.2294 O   0  0  0  0  0  0  0  0  0  0  0  0
   -3.5179   -0.5420   -0.1699 O   0  0  0  0  0  0  0  0  0  0  0  0
    2.2596    0.5697   -0.0136 N   0  0  0  0  0  0  0  0  0  0  0  0
    1.1603   -0.3669    0.0144 C   0  0  0  0  0  0  0  0  0  0  0  0
   -0.1503    0.0546   -0.0948 C   0  0  0  0  0  0  0  0  0  0  0  0
   -1.1840   -0.8585   -0.0617 C   0  0  0  0  0  0  0  0  0  0  0  0
    2.1532    1.6190    1.1306 C   0  0  0  0  0  0  0  0  0  0  0  0
    2.3794    1.4135   -1.3227 C   0  0  0  0  0  0  0  0  0  0  0  0
    3.6327   -0.1478    0.1283 C   0  0  0  0  0  0  0  0  0  0  0  0
   -1.9780    1.3557   -0.3458 C   0  0  0  0  0  0  0  0  0  0  0  0
    1.3991   -1.7381    0.1557 C   0  0  0  0  0  0  0  0  0  0  0  0
   -2.3909   -0.0878   -0.1899 C   0  0  0  0  0  0  0  0  0  0  0  0
   -0.9872   -2.2166    0.0785 C   0  0  0  0  0  0  0  0  0  0  0  0
    0.3327   -2.6560    0.1877 C   0  0  0  0  0  0  0  0  0  0  0  0
   -2.5759    2.2374    0.7327 C   0  0  0  0  0  0  0  0  0  0  0  0
  1  5  1  0
  1 10  1  0
  2 12  2  0
  3  4  1  0
  3  7  1  0
  3  8  1  0
  3  9  1  0
  4  5  2  0
  4 11  1  0
  5  6  1  0
  6 12  1  0
  6 13  2  0
 10 12  1  0
 10 15  1  0
 11 14  2  0
 13 14  1  0
M  CHG  1   3   1
M  END
>  <PUBCHEM_COMPOUND_CID>  (1) 
35833

>  <PUBCHEM_CONFORMER_RMSD>  (1) 
0.6

>  <PUBCHEM_CONFORMER_DIVERSEORDER>  (1) 
1
2

>  <PUBCHEM_MMFF94_PARTIAL_CHARGES>  (1) 
17
1 -0.36
10 0.34
11 -0.15
12 0.42
13 -0.15
14 -0.15
2 -0.57
26 0.15
27 0.15
28 0.15
3 -0.87
4 0.36
5 0.08
6 0.09
7 0.5
8 0.5
9 0.5

>  <PUBCHEM_EFFECTIVE_ROTOR_COUNT>  (1) 
1.4

>  <PUBCHEM_PHARMACOPHORE_FEATURES>  (1) 
5
1 1 acceptor
1 2 acceptor
1 3 cation
5 1 5 6 10 12 rings
6 4 5 6 11 13 14 rings

>  <PUBCHEM_HEAVY_ATOM_COUNT>  (1) 
15

>  <PUBCHEM_ATOM_DEF_STEREO_COUNT>  (1) 
0

>  <PUBCHEM_ATOM_UDEF_STEREO_COUNT>  (1) 
1

>  <PUBCHEM_BOND_DEF_STEREO_COUNT>  (1) 
0

>  <PUBCHEM_BOND_UDEF_STEREO_COUNT>  (1) 
0

>  <PUBCHEM_ISOTOPIC_ATOM_COUNT>  (1) 
0

>  <PUBCHEM_COMPONENT_COUNT>  (1) 
1

>  <PUBCHEM_CACTVS_TAUTO_COUNT>  (1) 
2

>  <PUBCHEM_CONFORMER_ID>  (1) 
00008BF900000001

>  <PUBCHEM_MMFF94_ENERGY>  (1) 
59.874

>  <PUBCHEM_FEATURE_SELFOVERLAP>  (1) 
25.471

>  <PUBCHEM_SHAPE_FINGERPRINT>  (1) 
10967382 1 18410009952876957183
12696612 119 18119530929470413387
13140716 1 18050005785705153523
13380535 21 18267314122907070073
13380535 76 18409444782531335110
13538477 17 17970343935053227438
14614273 12 18188480294684295165
15490181 8 18335150777473456678
15775835 57 18341336569761795369
16945 1 18340488975203600243
17804303 29 18410852140841232562
193761 8 18122059797861662511
20510252 161 18269557319627020184
20645476 183 17678187198515377286
21028194 46 18411416219795974712
21501502 16 18266737978882797723
21524375 3 18410572868502470551
22802520 49 18127989683219163782
2334 1 18337952294635961983
23402539 116 18270104824962506127
23463225 33 18260824869799508042
23493267 7 17531240660665753809
23552423 10 18263926527661169503
23557571 272 17836939167306331972
23559900 14 18272375248967488668
2748010 2 18336264518533424447
305870 269 18265330612351659370
352729 6 18336265763889927882
53812653 166 18341609257398812368
53812653 8 18336277837016084173
7364860 26 18126564505311247983
81228 2 18048875500473216683

>  <PUBCHEM_SHAPE_MULTIPOLES>  (1) 
291.97
4.72
2.65
0.87
0.25
0.8
0.03
-1.78
-0.02
-0.41
-0.34
0.36
-0.41
-0.32

>  <PUBCHEM_SHAPE_SELFOVERLAP>  (1) 
621.065

>  <PUBCHEM_SHAPE_VOLUME>  (1) 
167.7

>  <PUBCHEM_COORDINATE_TYPE>  (1) 
2
5
10

$$$$
