35836
     RDKit          3D

 26 29  0  0  1  0  0  0  0  0999 V2000
    3.4228   -3.5731    2.1815 F   0  0  0  0  0  0  0  0  0  0  0  0
   -5.3079   -3.2092   -1.6906 F   0  0  0  0  0  0  0  0  0  0  0  0
   -3.7447    1.5895    2.0361 O   0  0  0  0  0  0  0  0  0  0  0  0
    0.8034    2.6050   -0.0803 N   0  0  0  0  0  0  0  0  0  0  0  0
    3.7950    0.2863   -1.6709 N   0  0  0  0  0  0  0  0  0  0  0  0
    1.4215    1.5736    0.7890 C   0  0  0  0  0  0  0  0  0  0  0  0
    2.3929    0.7646   -0.0044 C   0  0  0  0  0  0  0  0  0  0  0  0
    1.8179    3.3923   -0.8195 C   0  0  0  0  0  0  0  0  0  0  0  0
    2.9334    1.2239   -1.1848 C   0  0  0  0  0  0  0  0  0  0  0  0
    2.5950    2.5163   -1.8282 C   0  0  0  0  0  0  0  0  0  0  0  0
   -0.0477    3.4869    0.7183 C   0  0  0  0  0  0  0  0  0  0  0  0
    2.9603   -0.5158    0.2485 C   0  0  0  0  0  0  0  0  0  0  0  0
    3.8331   -0.7918   -0.8111 C   0  0  0  0  0  0  0  0  0  0  0  0
   -1.1701    2.6833    1.3781 C   0  0  0  0  0  0  0  0  0  0  0  0
    2.8212   -1.4703    1.2764 C   0  0  0  0  0  0  0  0  0  0  0  0
   -2.0612    1.9790    0.3512 C   0  0  0  0  0  0  0  0  0  0  0  0
    4.5692   -1.9796   -0.8905 C   0  0  0  0  0  0  0  0  0  0  0  0
    3.5523   -2.6616    1.2079 C   0  0  0  0  0  0  0  0  0  0  0  0
    4.4119   -2.9104    0.1402 C   0  0  0  0  0  0  0  0  0  0  0  0
   -3.2327    1.2352    0.9769 C   0  0  0  0  0  0  0  0  0  0  0  0
   -3.7876    0.0490    0.2647 C   0  0  0  0  0  0  0  0  0  0  0  0
   -3.7145    0.0096   -1.1098 C   0  0  0  0  0  0  0  0  0  0  0  0
   -4.3515   -0.9642    1.0075 C   0  0  0  0  0  0  0  0  0  0  0  0
   -4.2326   -1.1010   -1.7763 C   0  0  0  0  0  0  0  0  0  0  0  0
   -4.8694   -2.0747    0.3409 C   0  0  0  0  0  0  0  0  0  0  0  0
   -4.8099   -2.1431   -1.0509 C   0  0  0  0  0  0  0  0  0  0  0  0
  1 18  1  0
  2 26  1  0
  3 20  2  0
  4  6  1  0
  4  8  1  0
  4 11  1  0
  5  9  1  0
  5 13  1  0
  6  7  1  0
  7  9  2  0
  7 12  1  0
  8 10  1  0
  9 10  1  0
 11 14  1  0
 12 13  2  0
 12 15  1  0
 13 17  1  0
 14 16  1  0
 15 18  2  0
 16 20  1  0
 17 19  2  0
 18 19  1  0
 20 21  1  0
 21 22  2  0
 21 23  1  0
 22 24  1  0
 23 25  2  0
 24 26  2  0
 25 26  1  0
M  END
>  <PUBCHEM_COMPOUND_CID>  (1) 
35836

>  <PUBCHEM_CONFORMER_RMSD>  (1) 
0.8

>  <PUBCHEM_CONFORMER_DIVERSEORDER>  (1) 
2
94
145
61
6
53
141
78
25
75
74
130
5
34
133
89
37
16
119
84
29
42
39
63
100
92
82
86
97
21
8
30
125
95
45
26
90
9
58
105
14
15
68
7
139
112
101
10
28
110
71
12
65
66
51
87
98
91
69
88
149
131
114
4
17
142
48
80
20
123
27
22
54
3
108
77
127
46
117
99
73
128
13
81
70
67
116
56
137
135
121
118
148
143
38
19
44
144
120
49
79
132
11
85
47
107
138
57
96
40
129
72
113
102
23
1
32
50
59
126
24
104
62
93
35
83
43
124
115
31
64
33
136
146
41
109
18
103
76
140
147
52
106
111
134
60
55
122
36

>  <PUBCHEM_MMFF94_PARTIAL_CHARGES>  (1) 
32
1 -0.19
10 0.18
11 0.27
13 -0.15
15 -0.15
16 0.06
17 -0.15
18 0.19
19 -0.15
2 -0.19
20 0.42
21 0.09
22 -0.15
23 -0.15
24 -0.15
25 -0.15
26 0.19
3 -0.57
35 0.27
38 0.15
4 -0.81
41 0.15
42 0.15
43 0.15
44 0.15
45 0.15
46 0.15
5 0.03
6 0.45
7 -0.18
8 0.27
9 -0.33

>  <PUBCHEM_EFFECTIVE_ROTOR_COUNT>  (1) 
5.8

>  <PUBCHEM_PHARMACOPHORE_FEATURES>  (1) 
8
1 3 acceptor
1 4 cation
1 5 cation
1 5 donor
5 5 7 9 12 13 rings
6 12 13 15 17 18 19 rings
6 21 22 23 24 25 26 rings
6 4 6 7 8 9 10 rings

>  <PUBCHEM_HEAVY_ATOM_COUNT>  (1) 
26

>  <PUBCHEM_ATOM_DEF_STEREO_COUNT>  (1) 
0

>  <PUBCHEM_ATOM_UDEF_STEREO_COUNT>  (1) 
0

>  <PUBCHEM_BOND_DEF_STEREO_COUNT>  (1) 
0

>  <PUBCHEM_BOND_UDEF_STEREO_COUNT>  (1) 
0

>  <PUBCHEM_ISOTOPIC_ATOM_COUNT>  (1) 
0

>  <PUBCHEM_COMPONENT_COUNT>  (1) 
1

>  <PUBCHEM_CACTVS_TAUTO_COUNT>  (1) 
2

>  <PUBCHEM_CONFORMER_ID>  (1) 
00008BFC00000002

>  <PUBCHEM_MMFF94_ENERGY>  (1) 
54.739

>  <PUBCHEM_FEATURE_SELFOVERLAP>  (1) 
40.776

>  <PUBCHEM_SHAPE_FINGERPRINT>  (1) 
10042902 136 18271529676590265126
10622 236 18337669720206048771
10842051 180 11453592342151369701
10928967 22 18341621429521154623
11069576 57 18336545018526107558
11552529 35 17982165618109194200
11991303 11 16966595548099663468
12107183 9 18129962126192668025
12174731 88 17686619048125411346
12977781 61 17832096685790136080
13257819 101 15070056544694732796
13383661 66 16822786041831604547
14480069 147 18260844721338992675
14705955 166 15767246700841330057
15003188 105 18125991908977181623
15537594 2 18266201489964684249
17809404 112 18121184689469039641
19319366 153 17978792638125065308
20626108 58 18272930514048193176
20775530 9 18408886213491534939
21315759 227 18189614015631781107
21703447 108 17772461537885447569
235170 7 17168704270997071101
25222932 49 17771337866570090453
312425 83 17531237375232531533
345986 75 17631461231996038689
4017518 198 16971668118896290327
44062 13 18337105675468496781
44880168 125 17700707159478826791
46194498 28 15937848252257189300
463206 1 18336835199354041459
59025328 239 17968086517380582812
86090 222 16899614412410998435
88748 71 18410859880250928633

>  <PUBCHEM_SHAPE_MULTIPOLES>  (1) 
504.69
12.26
4.78
1.86
9.01
0.32
0.06
-12.37
2.43
-1.93
-0.63
0.27
-0.34
-3.99

>  <PUBCHEM_SHAPE_SELFOVERLAP>  (1) 
1106.329

>  <PUBCHEM_SHAPE_VOLUME>  (1) 
275.2

>  <PUBCHEM_COORDINATE_TYPE>  (1) 
2
5
10

$$$$
