35846
     RDKit          3D

 13 15  0  0  1  0  0  0  0  0999 V2000
    1.0948    1.0616   -0.0256 N   0  0  0  0  0  0  0  0  0  0  0  0
    2.6786   -0.6316   -0.0241 N   0  0  0  0  0  0  0  0  0  0  0  0
    3.6310    0.3442    0.0287 N   0  0  0  0  0  0  0  0  0  0  0  0
   -1.6321   -0.2075   -1.2418 C   0  0  0  0  0  0  0  0  0  0  0  0
   -1.6099   -0.1825    1.2641 C   0  0  0  0  0  0  0  0  0  0  0  0
   -2.4844   -0.3669    0.0205 C   0  0  0  0  0  0  0  0  0  0  0  0
    0.3135   -1.3005    0.0050 C   0  0  0  0  0  0  0  0  0  0  0  0
   -0.5365   -1.2782   -1.2679 C   0  0  0  0  0  0  0  0  0  0  0  0
   -0.5136   -1.2524    1.2920 C   0  0  0  0  0  0  0  0  0  0  0  0
   -0.2715    1.5821   -0.0186 C   0  0  0  0  0  0  0  0  0  0  0  0
   -1.0326    1.2027   -1.2907 C   0  0  0  0  0  0  0  0  0  0  0  0
   -1.0099    1.2284    1.2742 C   0  0  0  0  0  0  0  0  0  0  0  0
    1.3728   -0.1993   -0.0157 C   0  0  0  0  0  0  0  0  0  0  0  0
  1 10  1  0
  1 13  2  0
  2  3  1  0
  2 13  1  0
  4  6  1  0
  4  8  1  0
  4 11  1  0
  5  6  1  0
  5  9  1  0
  5 12  1  0
  7  8  1  0
  7  9  1  0
  7 13  1  0
 10 11  1  0
 10 12  1  0
M  END
>  <PUBCHEM_COMPOUND_CID>  (1) 
35846

>  <PUBCHEM_CONFORMER_RMSD>  (1) 
0.6

>  <PUBCHEM_CONFORMER_DIVERSEORDER>  (1) 
1

>  <PUBCHEM_MMFF94_PARTIAL_CHARGES>  (1) 
9
1 -0.7
10 0.25
13 0.44
2 -0.46
28 0.4
29 0.36
3 -0.71
30 0.36
7 0.06

>  <PUBCHEM_EFFECTIVE_ROTOR_COUNT>  (1) 
2

>  <PUBCHEM_PHARMACOPHORE_FEATURES>  (1) 
7
1 2 donor
1 3 donor
3 1 2 13 cation
6 4 5 6 10 11 12 rings
6 4 5 6 7 8 9 rings
7 1 4 7 8 10 11 13 rings
7 1 5 7 9 10 12 13 rings

>  <PUBCHEM_HEAVY_ATOM_COUNT>  (1) 
13

>  <PUBCHEM_ATOM_DEF_STEREO_COUNT>  (1) 
0

>  <PUBCHEM_ATOM_UDEF_STEREO_COUNT>  (1) 
2

>  <PUBCHEM_BOND_DEF_STEREO_COUNT>  (1) 
0

>  <PUBCHEM_BOND_UDEF_STEREO_COUNT>  (1) 
0

>  <PUBCHEM_ISOTOPIC_ATOM_COUNT>  (1) 
0

>  <PUBCHEM_COMPONENT_COUNT>  (1) 
1

>  <PUBCHEM_CACTVS_TAUTO_COUNT>  (1) 
2

>  <PUBCHEM_CONFORMER_ID>  (1) 
00008C0600000001

>  <PUBCHEM_MMFF94_ENERGY>  (1) 
36.0189

>  <PUBCHEM_FEATURE_SELFOVERLAP>  (1) 
47.174

>  <PUBCHEM_SHAPE_FINGERPRINT>  (1) 
10702982 57 16772676481698361129
12423570 1 8450420439533078101
13024252 1 17240482502696732142
141345 1 15193324738335113573
144361 1 18195508321173908885
14817 1 14447467173116028341
15557651 10 18188191174581232351
16945 1 18341067266985859811
241688 4 18121758785046950511
2748010 2 18195813955484078030
369184 2 18040151795040668978
5084963 1 18334857216463757454
528886 8 18130776837705199415
68250623 7 17756128013159329871

>  <PUBCHEM_SHAPE_MULTIPOLES>  (1) 
252.59
3.22
1.56
1.39
3.3
0.18
0.01
0
0.01
-0.17
-0.01
-0.76
-0.06
0

>  <PUBCHEM_SHAPE_SELFOVERLAP>  (1) 
543.195

>  <PUBCHEM_SHAPE_VOLUME>  (1) 
132.2

>  <PUBCHEM_COORDINATE_TYPE>  (1) 
2
5
10

$$$$
