35844
     RDKit          3D

 23 26  0  0  1  0  0  0  0  0999 V2000
    2.4443   -0.9948   -0.7906 O   0  0  0  0  0  0  0  0  0  0  0  0
    2.5586    1.7081   -0.1504 O   0  0  0  0  0  0  0  0  0  0  0  0
   -2.4041   -1.4740   -0.4104 N   0  0  0  0  0  0  0  0  0  0  0  0
   -0.2547   -0.7997    0.1384 N   0  0  0  0  0  0  0  0  0  0  0  0
   -4.4325    0.3047    1.3917 C   0  0  0  0  0  0  0  0  0  0  0  0
   -4.1323    1.2241   -0.9203 C   0  0  0  0  0  0  0  0  0  0  0  0
   -4.9784    1.2903    0.3544 C   0  0  0  0  0  0  0  0  0  0  0  0
   -2.0751    0.8029    0.5377 C   0  0  0  0  0  0  0  0  0  0  0  0
   -2.9924    0.6791    1.7569 C   0  0  0  0  0  0  0  0  0  0  0  0
   -2.6856    1.6180   -0.6050 C   0  0  0  0  0  0  0  0  0  0  0  0
   -3.8498   -1.2887   -0.5245 C   0  0  0  0  0  0  0  0  0  0  0  0
   -4.5135   -1.1252    0.8445 C   0  0  0  0  0  0  0  0  0  0  0  0
   -4.2062   -0.1842   -1.5219 C   0  0  0  0  0  0  0  0  0  0  0  0
   -1.6080   -0.5690    0.0531 C   0  0  0  0  0  0  0  0  0  0  0  0
    0.3346   -2.0255   -0.2953 C   0  0  0  0  0  0  0  0  0  0  0  0
    1.8322   -2.0420   -0.0490 C   0  0  0  0  0  0  0  0  0  0  0  0
    3.5868   -0.4512   -0.2641 C   0  0  0  0  0  0  0  0  0  0  0  0
    3.6372    0.9016    0.0543 C   0  0  0  0  0  0  0  0  0  0  0  0
    4.6918   -1.2693   -0.0538 C   0  0  0  0  0  0  0  0  0  0  0  0
    4.8062    1.4429    0.5893 C   0  0  0  0  0  0  0  0  0  0  0  0
    5.8607   -0.7282    0.4815 C   0  0  0  0  0  0  0  0  0  0  0  0
    5.9179    0.6278    0.8029 C   0  0  0  0  0  0  0  0  0  0  0  0
    2.4623    2.3521   -1.4194 C   0  0  0  0  0  0  0  0  0  0  0  0
  1 16  1  0
  1 17  1  0
  2 18  1  0
  2 23  1  0
  3 11  1  0
  3 14  2  0
  4 14  1  0
  4 15  1  0
  5  7  1  0
  5  9  1  0
  5 12  1  0
  6  7  1  0
  6 10  1  0
  6 13  1  0
  8  9  1  0
  8 10  1  0
  8 14  1  0
 11 12  1  0
 11 13  1  0
 15 16  1  0
 17 18  2  0
 17 19  1  0
 18 20  1  0
 19 21  2  0
 20 22  2  0
 21 22  1  0
M  END
>  <PUBCHEM_COMPOUND_CID>  (1) 
35844

>  <PUBCHEM_CONFORMER_RMSD>  (1) 
0.8

>  <PUBCHEM_CONFORMER_DIVERSEORDER>  (1) 
1
149
139
186
17
261
80
256
247
60
180
169
136
145
77
216
176
57
203
128
185
51
7
232
148
69
52
257
187
244
250
72
265
229
272
208
31
228
132
231
152
196
255
230
43
125
66
39
63
235
122
219
120
198
53
170
48
47
183
49
204
131
217
65
271
211
73
16
268
62
38
82
165
266
28
70
153
215
263
182
40
159
269
209
221
201
189
164
270
188
78
29
22
127
146
4
245
197
202
133
44
126
260
150
226
135
2
25
144
147
207
107
168
241
8
117
264
161
190
158
162
151
104
12
212
124
156
37
134
166
114
74
100
83
105
26
238
199
194
249
9
71
121
167
116
142
35
213
143
154
79
155
179
258
206
233
205
267
109
5
32
239
115
248
3
20
184
108
99
61
262
253
88
237
93
98
191
95
137
222
141
220
75
252
112
15
200
110
259
64
178
157
251
67
18
111
24
225
210
195
171
23
118
192
84
223
224
218
113
214
36
50
87
102
243
172
94
19
177
242
181
174
86
234
54
55
130
68
34
89
91
81
92
41
97
175
129
45
123
163
236
56
254
138
227
160
173
90
119
106
11
14
13
246
21
85
42
30
33
58
96
10
6
103
46
140
240
193
27
76
101
59

>  <PUBCHEM_MMFF94_PARTIAL_CHARGES>  (1) 
21
1 -0.36
11 0.25
14 0.44
15 0.37
16 0.28
17 0.08
18 0.08
19 -0.15
2 -0.36
20 -0.15
21 -0.15
22 -0.15
23 0.28
3 -0.7
38 0.4
4 -0.82
43 0.15
44 0.15
45 0.15
46 0.15
8 0.06

>  <PUBCHEM_EFFECTIVE_ROTOR_COUNT>  (1) 
7

>  <PUBCHEM_PHARMACOPHORE_FEATURES>  (1) 
9
1 1 acceptor
1 2 acceptor
1 4 donor
3 3 4 14 cation
6 17 18 19 20 21 22 rings
6 5 6 7 11 12 13 rings
6 5 6 7 8 9 10 rings
7 3 5 8 9 11 12 14 rings
7 3 6 8 10 11 13 14 rings

>  <PUBCHEM_HEAVY_ATOM_COUNT>  (1) 
23

>  <PUBCHEM_ATOM_DEF_STEREO_COUNT>  (1) 
0

>  <PUBCHEM_ATOM_UDEF_STEREO_COUNT>  (1) 
2

>  <PUBCHEM_BOND_DEF_STEREO_COUNT>  (1) 
0

>  <PUBCHEM_BOND_UDEF_STEREO_COUNT>  (1) 
0

>  <PUBCHEM_ISOTOPIC_ATOM_COUNT>  (1) 
0

>  <PUBCHEM_COMPONENT_COUNT>  (1) 
1

>  <PUBCHEM_CACTVS_TAUTO_COUNT>  (1) 
2

>  <PUBCHEM_CONFORMER_ID>  (1) 
00008C0400000001

>  <PUBCHEM_MMFF94_ENERGY>  (1) 
76.5518

>  <PUBCHEM_FEATURE_SELFOVERLAP>  (1) 
55.752

>  <PUBCHEM_SHAPE_FINGERPRINT>  (1) 
10366900 7 16370441163714539504
11545043 162 16370729244166419473
12166972 35 18412546535325265520
12236239 1 17846495911378082047
12507557 5 18333731312256705365
12616971 3 18409174337209611933
12633257 1 18186804707667099812
13224815 77 18272936024612514051
13402501 40 18335135371658043524
13583140 156 17168134655085627163
13631057 29 18058437863544585679
13914758 101 17240750775693126351
14251764 18 18412538826491686130
14341114 176 18408890628992364682
15081414 286 18412550899323183588
15183329 4 18202003193038093606
15188451 53 16226334823530134083
15196674 1 18412261748807040820
15788980 27 17894631448279070810
16988056 13 13383505371547793880
17349148 13 18413389843257522960
19489759 90 16805319994411619635
20511986 3 18059276722053845416
21033648 29 17603854611703111684
21033650 10 16270831986160031592
21623110 236 18342740762433369433
21709351 56 18408319995036476614
23227448 37 18411702101688992103
23559900 14 18129382588131719198
351380 180 18334293171594375514
4325135 7 18130785681312095335
474 4 18408326605012328186
508706 21 17968365758937285453
5104073 3 18335709278289321915
542803 24 17275385400151770858
543368 44 17632573859926428841
57724786 102 17530975712771184700
6328613 192 18337959004345933092
9971528 1 18412548683109262670

>  <PUBCHEM_SHAPE_MULTIPOLES>  (1) 
451.63
14.31
2.18
1.24
9.91
0.11
0.09
1.91
2.38
0.75
-0.48
-1.12
0.33
-0.09

>  <PUBCHEM_SHAPE_SELFOVERLAP>  (1) 
967.676

>  <PUBCHEM_SHAPE_VOLUME>  (1) 
245.4

>  <PUBCHEM_COORDINATE_TYPE>  (1) 
2
5
10

$$$$
