35853
     RDKit          3D

 16 17  0  0  0  0  0  0  0  0999 V2000
   -2.9742    2.1307   -1.3515 Cl  0  0  0  0  0  0  0  0  0  0  0  0
   -2.9749   -2.1306    1.3509 Cl  0  0  0  0  0  0  0  0  0  0  0  0
   -0.0872    2.6125    0.5452 O   0  0  0  0  0  0  0  0  0  0  0  0
   -0.0877   -2.6125   -0.5447 O   0  0  0  0  0  0  0  0  0  0  0  0
   -1.3792    0.6612    0.1275 C   0  0  0  0  0  0  0  0  0  0  0  0
   -1.3793   -0.6609   -0.1273 C   0  0  0  0  0  0  0  0  0  0  0  0
    1.1714    0.6813    0.1396 C   0  0  0  0  0  0  0  0  0  0  0  0
    1.1712   -0.6815   -0.1394 C   0  0  0  0  0  0  0  0  0  0  0  0
   -0.0965    1.4129    0.2888 C   0  0  0  0  0  0  0  0  0  0  0  0
   -0.0967   -1.4128   -0.2884 C   0  0  0  0  0  0  0  0  0  0  0  0
    2.3860    1.3654    0.2799 C   0  0  0  0  0  0  0  0  0  0  0  0
    2.3857   -1.3657   -0.2800 C   0  0  0  0  0  0  0  0  0  0  0  0
   -2.6132    1.5144    0.2578 C   0  0  0  0  0  0  0  0  0  0  0  0
   -2.6134   -1.5140   -0.2580 C   0  0  0  0  0  0  0  0  0  0  0  0
    3.5940    0.6818    0.1397 C   0  0  0  0  0  0  0  0  0  0  0  0
    3.5939   -0.6823   -0.1400 C   0  0  0  0  0  0  0  0  0  0  0  0
  1 13  1  0
  2 14  1  0
  3  9  2  0
  4 10  2  0
  5  6  2  0
  5  9  1  0
  5 13  1  0
  6 10  1  0
  6 14  1  0
  7  8  2  0
  7  9  1  0
  7 11  1  0
  8 10  1  0
  8 12  1  0
 11 15  2  0
 12 16  2  0
 15 16  1  0
M  END
>  <PUBCHEM_COMPOUND_CID>  (1) 
35853

>  <PUBCHEM_CONFORMER_RMSD>  (1) 
0.6

>  <PUBCHEM_CONFORMER_DIVERSEORDER>  (1) 
2
1
3

>  <PUBCHEM_MMFF94_PARTIAL_CHARGES>  (1) 
20
1 -0.29
10 0.47
11 -0.15
12 -0.15
13 0.43
14 0.43
15 -0.15
16 -0.15
2 -0.29
21 0.15
22 0.15
23 0.15
24 0.15
3 -0.57
4 -0.57
5 -0.12
6 -0.12
7 0.09
8 0.09
9 0.47

>  <PUBCHEM_EFFECTIVE_ROTOR_COUNT>  (1) 
2

>  <PUBCHEM_PHARMACOPHORE_FEATURES>  (1) 
4
1 3 acceptor
1 4 acceptor
6 5 6 7 8 9 10 rings
6 7 8 11 12 15 16 rings

>  <PUBCHEM_HEAVY_ATOM_COUNT>  (1) 
16

>  <PUBCHEM_ATOM_DEF_STEREO_COUNT>  (1) 
0

>  <PUBCHEM_ATOM_UDEF_STEREO_COUNT>  (1) 
0

>  <PUBCHEM_BOND_DEF_STEREO_COUNT>  (1) 
0

>  <PUBCHEM_BOND_UDEF_STEREO_COUNT>  (1) 
0

>  <PUBCHEM_ISOTOPIC_ATOM_COUNT>  (1) 
0

>  <PUBCHEM_COMPONENT_COUNT>  (1) 
1

>  <PUBCHEM_CACTVS_TAUTO_COUNT>  (1) 
1

>  <PUBCHEM_CONFORMER_ID>  (1) 
00008C0D00000002

>  <PUBCHEM_MMFF94_ENERGY>  (1) 
37.6005

>  <PUBCHEM_FEATURE_SELFOVERLAP>  (1) 
20.318

>  <PUBCHEM_SHAPE_FINGERPRINT>  (1) 
10608611 8 18411695504445190724
10967382 1 18197216945132201284
11206711 2 18339919423980423453
11578080 2 16915073357129347619
11680986 33 18268993090253652022
12032990 46 18339933713474033170
12138202 97 18115585933637519045
12382932 28 18342175557516356480
12730499 353 17538840288144608445
13140716 1 18340770347116862034
13380535 76 18195521502444410055
13538477 17 18189047612672171346
13583140 156 17023187067719452089
13897977 150 18341328881764982756
14614273 12 18335137562270225493
14790565 3 16751013225473337505
15196674 1 18413108364360313356
16945 1 18053105025452546192
17357779 13 18266443486182057727
17844478 74 18262524821897141579
18186145 218 18270964535871278300
20510252 161 18201159935637238752
20588541 1 18267870467047887333
21029758 27 18118695545414648140
21501502 16 18411419514178309028
22182313 1 18342744013670566262
22802520 49 17843703087730440142
2334 1 18413107294412355204
23402539 116 18129933585248645406
23419403 2 15981124012209282627
23463225 33 18411421730407794570
23493267 7 18186796942055018480
23559900 14 18200592498292357782
25 1 18122052109933746877
2748010 2 18342175565874091372
3312278 4 18410858737515373320
335352 9 18052539867991443214
352729 6 18268994193780282468
5104073 3 18411697678241696090
5255222 1 17982728876661788097
528886 8 18341887442383049496
8809292 202 18336834078293951058
9709674 26 18270681957050997462

>  <PUBCHEM_SHAPE_MULTIPOLES>  (1) 
321.27
5.53
2.84
0.93
2.01
0
0
0
0
-2.01
0
-0.65
0
1.15

>  <PUBCHEM_SHAPE_SELFOVERLAP>  (1) 
678.607

>  <PUBCHEM_SHAPE_VOLUME>  (1) 
183.5

>  <PUBCHEM_COORDINATE_TYPE>  (1) 
2
5
10

$$$$
