35850
     RDKit          3D

 26 27  0  0  0  0  0  0  0  0999 V2000
    6.8824   -0.6524    0.3710 Cl  0  0  0  0  0  0  0  0  0  0  0  0
    1.3449    1.1516   -0.3902 O   0  0  0  0  0  0  0  0  0  0  0  0
   -2.8710   -1.9453   -1.7214 O   0  0  0  0  0  0  0  0  0  0  0  0
    2.0159   -2.7810   -0.3295 O   0  0  0  0  0  0  0  0  0  0  0  0
   -3.6614    2.0311   -1.2540 O   0  0  0  0  0  0  0  0  0  0  0  0
   -3.1965    2.5545    0.9064 O   0  0  0  0  0  0  0  0  0  0  0  0
   -0.4065    2.5700    0.4685 C   0  0  0  0  0  0  0  0  0  0  0  0
    1.0517    2.4737    0.0383 C   0  0  0  0  0  0  0  0  0  0  0  0
   -1.3702    2.2408   -0.6729 C   0  0  0  0  0  0  0  0  0  0  0  0
    2.6321    0.7143   -0.2126 C   0  0  0  0  0  0  0  0  0  0  0  0
    2.8989   -0.6331    0.0045 C   0  0  0  0  0  0  0  0  0  0  0  0
    3.6664    1.6432   -0.2517 C   0  0  0  0  0  0  0  0  0  0  0  0
    4.2156   -1.0570    0.1849 C   0  0  0  0  0  0  0  0  0  0  0  0
    1.8252   -1.6161    0.0483 C   0  0  0  0  0  0  0  0  0  0  0  0
   -2.0106   -1.3827    0.4505 C   0  0  0  0  0  0  0  0  0  0  0  0
    4.9831    1.2195   -0.0715 C   0  0  0  0  0  0  0  0  0  0  0  0
    5.2578   -0.1306    0.1469 C   0  0  0  0  0  0  0  0  0  0  0  0
    0.4718   -1.1798    0.5321 C   0  0  0  0  0  0  0  0  0  0  0  0
   -2.8133    2.3009   -0.2271 C   0  0  0  0  0  0  0  0  0  0  0  0
   -0.6414   -1.7515    0.0498 C   0  0  0  0  0  0  0  0  0  0  0  0
   -3.0603   -1.4952   -0.4482 C   0  0  0  0  0  0  0  0  0  0  0  0
   -2.2173   -0.9233    1.7425 C   0  0  0  0  0  0  0  0  0  0  0  0
   -4.3477   -1.1400   -0.0453 C   0  0  0  0  0  0  0  0  0  0  0  0
   -3.5048   -0.5679    2.1452 C   0  0  0  0  0  0  0  0  0  0  0  0
   -4.5698   -0.6762    1.2513 C   0  0  0  0  0  0  0  0  0  0  0  0
   -2.5748   -0.9674   -2.7156 C   0  0  0  0  0  0  0  0  0  0  0  0
  1 17  1  0
  2  8  1  0
  2 10  1  0
  3 21  1  0
  3 26  1  0
  4 14  2  0
  5 19  1  0
  6 19  2  0
  7  8  1  0
  7  9  1  0
  9 19  1  0
 10 11  2  0
 10 12  1  0
 11 13  1  0
 11 14  1  0
 12 16  2  0
 13 17  2  0
 14 18  1  0
 15 20  1  0
 15 21  2  0
 15 22  1  0
 16 17  1  0
 18 20  2  0
 21 23  1  0
 22 24  2  0
 23 25  2  0
 24 25  1  0
M  END
>  <PUBCHEM_COMPOUND_CID>  (1) 
35850

>  <PUBCHEM_CONFORMER_RMSD>  (1) 
1

>  <PUBCHEM_CONFORMER_DIVERSEORDER>  (1) 
14
127
130
48
18
95
92
24
7
35
54
157
186
84
142
166
67
107
46
85
102
190
153
55
44
196
21
121
112
155
188
51
144
80
19
52
38
58
77
187
173
152
63
161
160
110
53
100
183
139
126
71
171
65
108
113
37
8
64
150
70
60
132
93
96
69
131
45
164
33
162
68
151
11
128
88
192
40
114
163
174
105
9
89
39
179
140
90
41
118
115
49
94
97
120
156
134
75
154
62
116
99
158
109
124
182
4
143
50
137
138
34
82
91
185
169
177
104
103
26
101
32
145
72
159
149
98
189
20
135
30
25
61
175
79
172
106
47
17
147
59
81
73
197
117
16
129
36
125
191
29
87
194
28
42
15
176
111
10
12
83
6
123
181
180
170
5
22
119
43
146
148
133
56
141
76
86
23
193
57
13
78
31
2
122
167
74
168
3
66
136
1
184
27
195
165
178

>  <PUBCHEM_MMFF94_PARTIAL_CHARGES>  (1) 
35
1 -0.18
10 0.08
11 0.09
12 -0.15
13 -0.15
14 0.47
15 0.03
16 -0.15
17 0.18
18 -0.14
19 0.66
2 -0.36
20 -0.18
21 0.08
22 -0.15
23 -0.15
24 -0.15
25 -0.15
26 0.28
3 -0.36
33 0.15
34 0.15
35 0.15
36 0.15
37 0.15
38 0.15
39 0.15
4 -0.57
40 0.15
41 0.15
42 0.5
5 -0.65
6 -0.57
8 0.28
9 0.06

>  <PUBCHEM_EFFECTIVE_ROTOR_COUNT>  (1) 
9

>  <PUBCHEM_PHARMACOPHORE_FEATURES>  (1) 
8
1 2 acceptor
1 3 acceptor
1 4 acceptor
1 5 acceptor
1 6 acceptor
3 5 6 19 anion
6 10 11 12 13 16 17 rings
6 15 21 22 23 24 25 rings

>  <PUBCHEM_HEAVY_ATOM_COUNT>  (1) 
26

>  <PUBCHEM_ATOM_DEF_STEREO_COUNT>  (1) 
0

>  <PUBCHEM_ATOM_UDEF_STEREO_COUNT>  (1) 
0

>  <PUBCHEM_BOND_DEF_STEREO_COUNT>  (1) 
0

>  <PUBCHEM_BOND_UDEF_STEREO_COUNT>  (1) 
1

>  <PUBCHEM_ISOTOPIC_ATOM_COUNT>  (1) 
0

>  <PUBCHEM_COMPONENT_COUNT>  (1) 
1

>  <PUBCHEM_CACTVS_TAUTO_COUNT>  (1) 
1

>  <PUBCHEM_CONFORMER_ID>  (1) 
00008C0A0000000E

>  <PUBCHEM_MMFF94_ENERGY>  (1) 
86.9531

>  <PUBCHEM_FEATURE_SELFOVERLAP>  (1) 
40.657

>  <PUBCHEM_SHAPE_FINGERPRINT>  (1) 
10675989 125 16750422173190651044
10688039 33 17894917359904510653
11488393 25 17487067657052079174
12166972 35 17676770988820701678
12236239 1 17917997217205239250
12403814 3 18342465846124849683
12539773 59 17630900489402742223
12596599 1 17702121350332690063
13140716 1 17976269250148833450
13402501 40 18334579040370369273
14790565 3 17183072873870766684
15196674 1 18408324371993324672
17349148 13 18260544541810979192
17357779 13 18335974367490771204
19930381 70 17616812580112775515
20511986 3 17989201564354848458
21033648 144 18196929092561754814
21033648 29 17531792675574605622
21236236 1 18409728452789864676
22182313 1 18269008492090713318
23402539 116 18271805752751055246
23559900 14 18410846651726049816
392239 28 18059848506987662544
5104073 3 18335696131900818048
5171179 24 18057870523902498808
9709674 26 18195810657028510804

>  <PUBCHEM_SHAPE_MULTIPOLES>  (1) 
507.59
11.53
3.1
1.5
13.8
1.73
-0.44
-1.75
1.34
-1.4
-0.29
-2.52
-0.49
-0.13

>  <PUBCHEM_SHAPE_SELFOVERLAP>  (1) 
1064.873

>  <PUBCHEM_SHAPE_VOLUME>  (1) 
287.2

>  <PUBCHEM_COORDINATE_TYPE>  (1) 
2
5
10

$$$$
