35857
     RDKit          3D

 12 12  0  0  0  0  0  0  0  0999 V2000
    3.7353    0.1050    1.4604 Cl  0  0  0  0  0  0  0  0  0  0  0  0
    3.7331    0.1070   -1.4615 Cl  0  0  0  0  0  0  0  0  0  0  0  0
    1.4869   -1.4111   -0.0007 O   0  0  0  0  0  0  0  0  0  0  0  0
    0.4202    0.6835    0.0005 N   0  0  0  0  0  0  0  0  0  0  0  0
   -0.9353    0.3527    0.0005 C   0  0  0  0  0  0  0  0  0  0  0  0
   -1.8991    1.3611    0.0005 C   0  0  0  0  0  0  0  0  0  0  0  0
   -1.3267   -0.9862    0.0000 C   0  0  0  0  0  0  0  0  0  0  0  0
   -3.2543    1.0308    0.0002 C   0  0  0  0  0  0  0  0  0  0  0  0
   -2.6820   -1.3165   -0.0004 C   0  0  0  0  0  0  0  0  0  0  0  0
    1.5248   -0.1829    0.0005 C   0  0  0  0  0  0  0  0  0  0  0  0
   -3.6457   -0.3080   -0.0003 C   0  0  0  0  0  0  0  0  0  0  0  0
    2.8428    0.5645    0.0003 C   0  0  0  0  0  0  0  0  0  0  0  0
  1 12  1  0
  2 12  1  0
  3 10  2  0
  4  5  1  0
  4 10  1  0
  5  6  2  0
  5  7  1  0
  6  8  1  0
  7  9  2  0
  8 11  2  0
  9 11  1  0
 10 12  1  0
M  END
>  <PUBCHEM_COMPOUND_CID>  (1) 
35857

>  <PUBCHEM_CONFORMER_RMSD>  (1) 
0.6

>  <PUBCHEM_CONFORMER_DIVERSEORDER>  (1) 
1
5
4
2
6
3

>  <PUBCHEM_MMFF94_PARTIAL_CHARGES>  (1) 
18
1 -0.29
10 0.57
11 -0.15
12 0.64
13 0.37
14 0.15
15 0.15
16 0.15
17 0.15
18 0.15
2 -0.29
3 -0.57
4 -0.55
5 0.12
6 -0.15
7 -0.15
8 -0.15
9 -0.15

>  <PUBCHEM_EFFECTIVE_ROTOR_COUNT>  (1) 
3

>  <PUBCHEM_PHARMACOPHORE_FEATURES>  (1) 
3
1 3 acceptor
1 4 donor
6 5 6 7 8 9 11 rings

>  <PUBCHEM_HEAVY_ATOM_COUNT>  (1) 
12

>  <PUBCHEM_ATOM_DEF_STEREO_COUNT>  (1) 
0

>  <PUBCHEM_ATOM_UDEF_STEREO_COUNT>  (1) 
0

>  <PUBCHEM_BOND_DEF_STEREO_COUNT>  (1) 
0

>  <PUBCHEM_BOND_UDEF_STEREO_COUNT>  (1) 
0

>  <PUBCHEM_ISOTOPIC_ATOM_COUNT>  (1) 
0

>  <PUBCHEM_COMPONENT_COUNT>  (1) 
1

>  <PUBCHEM_CACTVS_TAUTO_COUNT>  (1) 
2

>  <PUBCHEM_CONFORMER_ID>  (1) 
00008C1100000001

>  <PUBCHEM_MMFF94_ENERGY>  (1) 
29.8385

>  <PUBCHEM_FEATURE_SELFOVERLAP>  (1) 
15.223

>  <PUBCHEM_SHAPE_FINGERPRINT>  (1) 
10608611 8 18343297059097431312
11062470 55 16805323313988718893
11132069 177 18342735234446157185
12932764 1 17846494829009380703
13296908 3 17775287170497560804
14144814 61 18407759226857824089
14325111 11 18410856521291116961
15669948 3 18335701692907474071
16945 1 18410575102185819975
18186145 218 17775291542779491026
190213 19 17489590069088811144
19026448 4 17131835373573431820
19026448 5 17167579397086076552
20201158 50 18342174470821045563
20279233 1 17847058887338612502
20645464 45 17917421042867619955
20645476 183 17532102746438596926
20645477 70 16200155352872565948
20715346 28 17704071815335813684
20871998 184 18202005481902306343
23048698 100 16732982033308658776
23402539 116 18342163489296408903
23463225 33 18187640271947954746
23559900 14 18272090457653552710
3248919 1 17821731628155015874
528716 315 18335148613047102047
7364860 26 18127405657866917802

>  <PUBCHEM_SHAPE_MULTIPOLES>  (1) 
239.84
7.46
1.29
1.01
2.38
0.11
0
-0.34
0
-0.87
0
1.5
-0.03
0

>  <PUBCHEM_SHAPE_SELFOVERLAP>  (1) 
473.517

>  <PUBCHEM_SHAPE_VOLUME>  (1) 
143.4

>  <PUBCHEM_COORDINATE_TYPE>  (1) 
2
5
10

$$$$
