35862
     RDKit          3D

 17 17  0  0  1  0  0  0  0  0999 V2000
    4.1714    1.7323   -0.2977 S   0  0  0  0  0  0  0  0  0  0  0  0
    1.4748   -1.3976    1.5309 O   0  0  0  0  0  0  0  0  0  0  0  0
   -5.1680   -0.6663   -0.1363 O   0  0  0  0  0  0  0  0  0  0  0  0
   -4.7238    1.3812   -0.8057 O   0  0  0  0  0  0  0  0  0  0  0  0
    2.0238    0.1628   -0.0954 N   0  0  0  0  0  0  0  0  0  0  0  0
   -4.3598    0.2658   -0.3623 N   0  0  0  0  0  0  0  0  0  0  0  0
    4.4365   -1.7600   -1.5518 N   0  0  0  0  0  0  0  0  0  0  0  0
   -0.2994   -0.3678    0.3949 C   0  0  0  0  0  0  0  0  0  0  0  0
    1.1436   -0.5931    0.6641 C   0  0  0  0  0  0  0  0  0  0  0  0
   -1.1913   -1.3912    0.6417 C   0  0  0  0  0  0  0  0  0  0  0  0
   -0.7031    0.8577   -0.0936 C   0  0  0  0  0  0  0  0  0  0  0  0
   -2.9802    0.0505   -0.1054 C   0  0  0  0  0  0  0  0  0  0  0  0
    3.4696    0.0833    0.0552 C   0  0  0  0  0  0  0  0  0  0  0  0
   -2.5466   -1.1797    0.3888 C   0  0  0  0  0  0  0  0  0  0  0  0
   -2.0584    1.0692   -0.3466 C   0  0  0  0  0  0  0  0  0  0  0  0
    4.0072   -0.9461   -0.8444 C   0  0  0  0  0  0  0  0  0  0  0  0
    3.3036    2.6992    0.9637 C   0  0  0  0  0  0  0  0  0  0  0  0
  1 13  1  0
  1 17  1  0
  2  9  2  0
  3  6  1  0
  4  6  2  0
  5  9  1  0
  5 13  1  0
  6 12  1  0
  7 16  3  0
  8  9  1  0
  8 10  2  0
  8 11  1  0
 10 14  1  0
 11 15  2  0
 12 14  2  0
 12 15  1  0
 13 16  1  0
M  CHG  2   3  -1   6   1
M  END
>  <PUBCHEM_COMPOUND_CID>  (1) 
35862

>  <PUBCHEM_CONFORMER_RMSD>  (1) 
0.6

>  <PUBCHEM_CONFORMER_DIVERSEORDER>  (1) 
1
26
18
8
21
32
31
27
5
17
6
34
33
15
12
28
4
24
10
2
30
7
3
20
22
11
23
19
9
16
29
14
25
13

>  <PUBCHEM_MMFF94_PARTIAL_CHARGES>  (1) 
22
1 -0.46
10 -0.15
11 -0.15
12 0.13
13 0.73
14 -0.15
15 -0.15
16 0.36
17 0.23
18 0.15
19 0.15
2 -0.57
21 0.37
22 0.15
23 0.15
3 -0.52
4 -0.52
5 -0.73
6 0.91
7 -0.56
8 0.09
9 0.54

>  <PUBCHEM_EFFECTIVE_ROTOR_COUNT>  (1) 
5

>  <PUBCHEM_PHARMACOPHORE_FEATURES>  (1) 
8
1 17 hydrophobe
1 2 acceptor
1 3 acceptor
1 3 anion
1 4 acceptor
1 5 donor
1 7 acceptor
6 8 10 11 12 14 15 rings

>  <PUBCHEM_HEAVY_ATOM_COUNT>  (1) 
17

>  <PUBCHEM_ATOM_DEF_STEREO_COUNT>  (1) 
0

>  <PUBCHEM_ATOM_UDEF_STEREO_COUNT>  (1) 
1

>  <PUBCHEM_BOND_DEF_STEREO_COUNT>  (1) 
0

>  <PUBCHEM_BOND_UDEF_STEREO_COUNT>  (1) 
0

>  <PUBCHEM_ISOTOPIC_ATOM_COUNT>  (1) 
0

>  <PUBCHEM_COMPONENT_COUNT>  (1) 
1

>  <PUBCHEM_CACTVS_TAUTO_COUNT>  (1) 
2

>  <PUBCHEM_CONFORMER_ID>  (1) 
00008C1600000001

>  <PUBCHEM_MMFF94_ENERGY>  (1) 
40.4459

>  <PUBCHEM_FEATURE_SELFOVERLAP>  (1) 
40.677

>  <PUBCHEM_SHAPE_FINGERPRINT>  (1) 
11543360 7 17917705867892428223
13081056 2 18408040714825035565
13544592 145 18409454678425817302
13690532 89 11671787078391575505
15536298 74 18408885165472295212
17834072 33 18130784615943655149
17959699 21 18409165528026407785
1813 80 14333410055783830288
18186145 218 18187082858312717012
19784866 240 16630254593522724910
200 152 17346600737885852310
20369508 70 18410853218946900874
20645477 56 18335702800998162145
20645477 70 18131077017523239718
22289505 5 18413389835179843620
23557571 272 18117567438121611794
23559900 14 18411983572639474610
474 4 17531530987575686932
495365 180 17916297407078832376
4990 188 18411983537715558766
5104073 3 17967809415028486033
5281201 14 18272092673535196900
633830 44 18408598162830249447
7364860 26 18261945246568598426
90127 26 18333737913932870777
9709674 26 18337677537104510538

>  <PUBCHEM_SHAPE_MULTIPOLES>  (1) 
321.15
10.29
2.05
1.05
3.66
0.73
-0.03
1.64
3.18
-2.19
-0.13
-0.77
-0.26
1.56

>  <PUBCHEM_SHAPE_SELFOVERLAP>  (1) 
650.45

>  <PUBCHEM_SHAPE_VOLUME>  (1) 
189.2

>  <PUBCHEM_COORDINATE_TYPE>  (1) 
2
5
10

$$$$
