35863
     RDKit          3D

 16 16  0  0  1  0  0  0  0  0999 V2000
   -3.7800   -1.8246   -0.2501 S   0  0  0  0  0  0  0  0  0  0  0  0
    4.6351   -0.0464   -0.3771 O   0  0  0  0  0  0  0  0  0  0  0  0
   -1.1902    1.4370    1.5012 O   0  0  0  0  0  0  0  0  0  0  0  0
   -1.6896   -0.1748   -0.0906 N   0  0  0  0  0  0  0  0  0  0  0  0
   -4.1766    1.6298   -1.5728 N   0  0  0  0  0  0  0  0  0  0  0  0
    0.6151    0.4489    0.3770 C   0  0  0  0  0  0  0  0  0  0  0  0
   -0.8339    0.6276    0.6490 C   0  0  0  0  0  0  0  0  0  0  0  0
    1.4705    1.5085    0.5988 C   0  0  0  0  0  0  0  0  0  0  0  0
    1.0606   -0.7709   -0.0888 C   0  0  0  0  0  0  0  0  0  0  0  0
    3.3070    0.1173   -0.1283 C   0  0  0  0  0  0  0  0  0  0  0  0
   -3.1367   -0.1445    0.0659 C   0  0  0  0  0  0  0  0  0  0  0  0
    2.8315    1.3409    0.3433 C   0  0  0  0  0  0  0  0  0  0  0  0
    2.4215   -0.9386   -0.3443 C   0  0  0  0  0  0  0  0  0  0  0  0
   -3.7151    0.8465   -0.8515 C   0  0  0  0  0  0  0  0  0  0  0  0
   -2.8723   -2.7337    1.0259 C   0  0  0  0  0  0  0  0  0  0  0  0
    5.0530   -1.3231   -0.8576 C   0  0  0  0  0  0  0  0  0  0  0  0
  1 11  1  0
  1 15  1  0
  2 10  1  0
  2 16  1  0
  3  7  2  0
  4  7  1  0
  4 11  1  0
  5 14  3  0
  6  7  1  0
  6  8  2  0
  6  9  1  0
  8 12  1  0
  9 13  2  0
 10 12  2  0
 10 13  1  0
 11 14  1  0
M  END
>  <PUBCHEM_COMPOUND_CID>  (1) 
35863

>  <PUBCHEM_CONFORMER_RMSD>  (1) 
0.6

>  <PUBCHEM_CONFORMER_DIVERSEORDER>  (1) 
1
38
55
44
47
9
24
48
22
46
56
31
37
42
17
39
41
35
12
26
43
32
58
51
14
45
13
28
4
49
40
23
16
57
5
18
54
52
29
19
3
50
33
34
53
36
15
20
21
7
6
30
8
27
2
25
11
10

>  <PUBCHEM_MMFF94_PARTIAL_CHARGES>  (1) 
21
1 -0.46
10 0.08
11 0.73
12 -0.15
13 -0.15
14 0.36
15 0.23
16 0.28
17 0.15
18 0.15
2 -0.36
20 0.37
21 0.15
22 0.15
3 -0.57
4 -0.73
5 -0.56
6 0.09
7 0.54
8 -0.15
9 -0.15

>  <PUBCHEM_EFFECTIVE_ROTOR_COUNT>  (1) 
5

>  <PUBCHEM_PHARMACOPHORE_FEATURES>  (1) 
6
1 15 hydrophobe
1 2 acceptor
1 3 acceptor
1 4 donor
1 5 acceptor
6 6 8 9 10 12 13 rings

>  <PUBCHEM_HEAVY_ATOM_COUNT>  (1) 
16

>  <PUBCHEM_ATOM_DEF_STEREO_COUNT>  (1) 
0

>  <PUBCHEM_ATOM_UDEF_STEREO_COUNT>  (1) 
1

>  <PUBCHEM_BOND_DEF_STEREO_COUNT>  (1) 
0

>  <PUBCHEM_BOND_UDEF_STEREO_COUNT>  (1) 
0

>  <PUBCHEM_ISOTOPIC_ATOM_COUNT>  (1) 
0

>  <PUBCHEM_COMPONENT_COUNT>  (1) 
1

>  <PUBCHEM_CACTVS_TAUTO_COUNT>  (1) 
2

>  <PUBCHEM_CONFORMER_ID>  (1) 
00008C1700000001

>  <PUBCHEM_MMFF94_ENERGY>  (1) 
42.7491

>  <PUBCHEM_FEATURE_SELFOVERLAP>  (1) 
30.446

>  <PUBCHEM_SHAPE_FINGERPRINT>  (1) 
10680689 15 18040721380845072249
10803635 8 18187925036690467406
11543360 7 17822580524414992004
11806522 49 18272655662412043776
12032990 46 18272658969331224378
12500047 106 18259978254488841783
12596602 18 13326560818849113966
13296908 3 18130223864960702833
13705890 14 18341332283695514408
13760787 19 17894907408322828610
18186145 218 18409163316297208825
193927 3 17845952770341487246
200 152 17489583437590890185
20645477 56 18114460081334194861
20645477 70 17989768912454916598
20671657 53 18202288008750358872
20871999 31 18113620118215667783
21065201 7 18187356666419435218
21713013 43 18336825385580752991
221490 88 18268153230704684466
22943178 12 18339917242100198057
23402539 116 16877941629219089236
23402655 69 18334856074124094508
23493267 7 18335132086144790067
23526113 38 18198897196641954219
23557571 272 18334295383629309317
23559900 14 18341608214175212834
2871803 45 18263635337669304563
3312278 4 18413672409245708179
4921388 177 17313392270202941635
5104073 3 18130792269638843362
59755656 520 18340205190563242973
633830 44 15864078658801698366
8809292 202 18410298050909795699
9709674 26 18266738159203021243

>  <PUBCHEM_SHAPE_MULTIPOLES>  (1) 
311.42
9.55
2.15
1.09
3.37
0.83
0.03
2.64
3.39
-1.75
-0.27
-0.74
-0.23
1.69

>  <PUBCHEM_SHAPE_SELFOVERLAP>  (1) 
623.505

>  <PUBCHEM_SHAPE_VOLUME>  (1) 
185.5

>  <PUBCHEM_COORDINATE_TYPE>  (1) 
2
5
10

$$$$
