35861
     RDKit          3D

 21 25  0  0  0  0  0  0  0  0999 V2000
    0.2844   -0.0130   -0.0001 C   0  0  0  0  0  0  0  0  0  0  0  0
    1.6786    0.2745   -0.0001 C   0  0  0  0  0  0  0  0  0  0  0  0
   -0.1325   -1.3617   -0.0001 C   0  0  0  0  0  0  0  0  0  0  0  0
   -0.6779    1.0318   -0.0001 C   0  0  0  0  0  0  0  0  0  0  0  0
    2.6292   -0.7754    0.0001 C   0  0  0  0  0  0  0  0  0  0  0  0
   -2.0785    0.7047   -0.0001 C   0  0  0  0  0  0  0  0  0  0  0  0
    2.1279    1.6126   -0.0001 C   0  0  0  0  0  0  0  0  0  0  0  0
    0.8211   -2.3887    0.0002 C   0  0  0  0  0  0  0  0  0  0  0  0
   -2.4689   -0.6575   -0.0002 C   0  0  0  0  0  0  0  0  0  0  0  0
   -1.4971   -1.6635   -0.0003 C   0  0  0  0  0  0  0  0  0  0  0  0
    2.1843   -2.1003    0.0001 C   0  0  0  0  0  0  0  0  0  0  0  0
   -0.1813    2.3554    0.0000 C   0  0  0  0  0  0  0  0  0  0  0  0
    1.1865    2.6412    0.0000 C   0  0  0  0  0  0  0  0  0  0  0  0
    3.9990   -0.4735    0.0001 C   0  0  0  0  0  0  0  0  0  0  0  0
    3.5038    1.8871    0.0000 C   0  0  0  0  0  0  0  0  0  0  0  0
   -3.1222    1.6651    0.0001 C   0  0  0  0  0  0  0  0  0  0  0  0
    0.4369   -3.8375    0.0001 C   0  0  0  0  0  0  0  0  0  0  0  0
   -3.8296   -1.0115   -0.0001 C   0  0  0  0  0  0  0  0  0  0  0  0
    4.4325    0.8498    0.0001 C   0  0  0  0  0  0  0  0  0  0  0  0
   -4.4712    1.3000    0.0003 C   0  0  0  0  0  0  0  0  0  0  0  0
   -4.8250   -0.0397    0.0002 C   0  0  0  0  0  0  0  0  0  0  0  0
  1  2  2  0
  1  3  1  0
  1  4  1  0
  2  5  1  0
  2  7  1  0
  3  8  2  0
  3 10  1  0
  4  6  2  0
  4 12  1  0
  5 11  2  0
  5 14  1  0
  6  9  1  0
  6 16  1  0
  7 13  1  0
  7 15  2  0
  8 11  1  0
  8 17  1  0
  9 10  2  0
  9 18  1  0
 12 13  2  0
 14 19  2  0
 15 19  1  0
 16 20  2  0
 18 21  2  0
 20 21  1  0
M  END
>  <PUBCHEM_COMPOUND_CID>  (1) 
35861

>  <PUBCHEM_CONFORMER_RMSD>  (1) 
0.6

>  <PUBCHEM_CONFORMER_DIVERSEORDER>  (1) 
1

>  <PUBCHEM_MMFF94_PARTIAL_CHARGES>  (1) 
24
10 -0.15
11 -0.15
12 -0.15
13 -0.15
14 -0.15
15 -0.15
16 -0.15
17 0.14
18 -0.15
19 -0.15
20 -0.15
21 -0.15
22 0.15
23 0.15
24 0.15
25 0.15
26 0.15
27 0.15
28 0.15
32 0.15
33 0.15
34 0.15
35 0.15
8 -0.14

>  <PUBCHEM_EFFECTIVE_ROTOR_COUNT>  (1) 
0

>  <PUBCHEM_PHARMACOPHORE_FEATURES>  (1) 
5
6 1 2 3 5 8 11 rings
6 1 2 4 7 12 13 rings
6 1 3 4 6 9 10 rings
6 2 5 7 14 15 19 rings
6 6 9 16 18 20 21 rings

>  <PUBCHEM_HEAVY_ATOM_COUNT>  (1) 
21

>  <PUBCHEM_ATOM_DEF_STEREO_COUNT>  (1) 
0

>  <PUBCHEM_ATOM_UDEF_STEREO_COUNT>  (1) 
0

>  <PUBCHEM_BOND_DEF_STEREO_COUNT>  (1) 
0

>  <PUBCHEM_BOND_UDEF_STEREO_COUNT>  (1) 
0

>  <PUBCHEM_ISOTOPIC_ATOM_COUNT>  (1) 
0

>  <PUBCHEM_COMPONENT_COUNT>  (1) 
1

>  <PUBCHEM_CACTVS_TAUTO_COUNT>  (1) 
1

>  <PUBCHEM_CONFORMER_ID>  (1) 
00008C1500000001

>  <PUBCHEM_MMFF94_ENERGY>  (1) 
79.9264

>  <PUBCHEM_FEATURE_SELFOVERLAP>  (1) 
25.526

>  <PUBCHEM_SHAPE_FINGERPRINT>  (1) 
10411042 1 17402049994529125415
10493431 412 18339921640315618016
10616163 171 18410576231852227407
10693767 8 18059007272559108542
10967382 1 18410575050350839302
1100329 8 18267301109393670120
11370993 70 18411133675266964385
11471102 20 18410570678132219341
11578080 2 16735788927353955855
12011746 2 18410014338128179044
12236239 1 17775286058681351217
12553582 1 17690847757076622643
12592029 89 18409451379579607011
12838862 33 18339341037878077808
13132413 78 18413389826041042469
13140716 1 18410569583084338178
13583140 156 16806425054720339226
138480 1 18050567335562935682
13862211 1 18410569565968006002
14178342 30 17762883769230702392
14223421 5 18192992612741822389
14790565 3 18337680801311732884
15196674 1 18410855468728697860
15442244 35 18124315995795627569
15536298 74 18343022168299888340
1601671 61 18409730647017109964
16728300 4 17317575736143283546
16945 1 18122624955143326886
19591789 44 18410574023816732326
200 152 18131347531859279733
20028762 73 18129379483187018527
20739085 24 18263101953732717841
20905425 154 18052821347337032542
21197605 99 18050579731419242827
21267235 1 18411146826441123798
21421861 104 17899415285721587803
221490 88 18337117786817432787
23227448 37 18341894142674794167
2334 1 18338517542439052136
23366157 5 17970072149301632170
23402539 116 18271518780147257470
23558518 356 17541091400245651768
23559900 14 18195520385821764186
238 59 17756943979451536735
2748010 2 18410017662622789414
3091708 16 9261933546129467315
335352 9 18410573977141824158
33824 294 18409448068096433442
34934 24 18412257311757632063
350125 39 18194125333557858419
352729 6 18050291667197016183
3680242 22 18263361399932398442
474 4 18409730660023103947
484985 159 14356157564405149778
5104073 3 18410012130610013009
6138700 20 18338803300057845990
7364860 26 18339924801116155191
8272917 22 18341055107991590591
9709674 26 18410580586849053159

>  <PUBCHEM_SHAPE_MULTIPOLES>  (1) 
432.17
7.77
3.34
0.62
3.65
1.77
0
-2.32
0
-1.17
0
0
0
0

>  <PUBCHEM_SHAPE_SELFOVERLAP>  (1) 
1014.325

>  <PUBCHEM_SHAPE_VOLUME>  (1) 
198.1

>  <PUBCHEM_COORDINATE_TYPE>  (1) 
2
5
10

$$$$
