35877
     RDKit          3D

 14 13  0  0  0  0  0  0  0  0999 V2000
    3.1163   -0.2831    0.2202 N   0  0  0  0  0  0  0  0  0  0  0  0
   -3.1185    0.2748    0.2265 N   0  0  0  0  0  0  0  0  0  0  0  0
    0.6691   -0.4361    0.2361 C   0  0  0  0  0  0  0  0  0  0  0  0
   -0.6374    0.3643    0.2434 C   0  0  0  0  0  0  0  0  0  0  0  0
    1.8824    0.4938    0.2358 C   0  0  0  0  0  0  0  0  0  0  0  0
   -1.8914   -0.5123    0.2165 C   0  0  0  0  0  0  0  0  0  0  0  0
    5.6022   -0.1909    0.1221 C   0  0  0  0  0  0  0  0  0  0  0  0
   -5.6052    0.2065    0.1288 C   0  0  0  0  0  0  0  0  0  0  0  0
    4.2804    0.5915    0.2094 C   0  0  0  0  0  0  0  0  0  0  0  0
   -4.2901   -0.5893    0.1902 C   0  0  0  0  0  0  0  0  0  0  0  0
    5.6043   -1.0625   -1.1367 C   0  0  0  0  0  0  0  0  0  0  0  0
    6.8280    0.7261    0.1150 C   0  0  0  0  0  0  0  0  0  0  0  0
   -5.6013    1.1167   -1.1024 C   0  0  0  0  0  0  0  0  0  0  0  0
   -6.8389   -0.6994    0.0950 C   0  0  0  0  0  0  0  0  0  0  0  0
  1  5  1  0
  1  9  1  0
  2  6  1  0
  2 10  1  0
  3  4  1  0
  3  5  1  0
  4  6  1  0
  7  9  1  0
  7 11  1  0
  7 12  1  0
  8 10  1  0
  8 13  1  0
  8 14  1  0
M  END
>  <PUBCHEM_COMPOUND_CID>  (1) 
35877

>  <PUBCHEM_CONFORMER_RMSD>  (1) 
0.8

>  <PUBCHEM_CONFORMER_DIVERSEORDER>  (1) 
1
65
98
82
75
96
6
92
47
101
103
49
57
113
76
29
36
66
73
88
71
79
110
78
3
67
93
112
18
104
5
44
61
39
37
23
56
100
105
94
15
45
90
99
2
85
107
54
9
22
89
108
86
59
35
77
109
50
84
58
83
26
72
19
106
43
48
12
81
11
80
60
24
64
52
27
87
111
53
74
31
25
13
55
8
21
97
20
14
70
114
38
10
40
42
91
68
32
30
41
17
62
33
28
16
46
69
51
63
95
7
102
4
34

>  <PUBCHEM_MMFF94_PARTIAL_CHARGES>  (1) 
8
1 -0.9
10 0.27
2 -0.9
29 0.36
30 0.36
5 0.27
6 0.27
9 0.27

>  <PUBCHEM_EFFECTIVE_ROTOR_COUNT>  (1) 
9

>  <PUBCHEM_PHARMACOPHORE_FEATURES>  (1) 
6
1 1 cation
1 1 donor
1 2 cation
1 2 donor
3 7 11 12 hydrophobe
3 8 13 14 hydrophobe

>  <PUBCHEM_HEAVY_ATOM_COUNT>  (1) 
14

>  <PUBCHEM_ATOM_DEF_STEREO_COUNT>  (1) 
0

>  <PUBCHEM_ATOM_UDEF_STEREO_COUNT>  (1) 
0

>  <PUBCHEM_BOND_DEF_STEREO_COUNT>  (1) 
0

>  <PUBCHEM_BOND_UDEF_STEREO_COUNT>  (1) 
0

>  <PUBCHEM_ISOTOPIC_ATOM_COUNT>  (1) 
0

>  <PUBCHEM_COMPONENT_COUNT>  (1) 
1

>  <PUBCHEM_CACTVS_TAUTO_COUNT>  (1) 
1

>  <PUBCHEM_CONFORMER_ID>  (1) 
00008C2500000001

>  <PUBCHEM_MMFF94_ENERGY>  (1) 
-1.2648

>  <PUBCHEM_FEATURE_SELFOVERLAP>  (1) 
30.446

>  <PUBCHEM_SHAPE_FINGERPRINT>  (1) 
10968037 39 18413671322808736779
11315181 36 11815894579182970103
12091667 2 17894348887261092883
12714333 28 17821728338505342848
13167372 99 14273730729550304510
13533116 47 16200156452758908862
1420 363 18202568379888468547
14251718 22 18334294262489662537
14251764 46 17240201045242743091
14729087 3 17894905226505984925
15716309 27 15267345115215601029
17834072 8 18411138043206434850
17834076 25 16443345377226199795
20281389 69 16515680039636294813
20621476 8 18341618066751328201
20645477 70 17774449283415294430
21130983 4 13767931212760221894
220451 1 15554447392268422895
22224240 67 12757150203584784536
23035841 295 15051731997874768623
23402539 116 18261106392047148439
23521765 1 18342176678207298059
23559900 14 18131062787789880737
3014965 18 18339640028111236374
33684 2 18334011696301212371
3545911 37 18409448094383357859
42788 4 18259984881486099425
4463277 17 18113616794053528884
59755656 215 18335985285472029150
8209 1 18411700997866299656

>  <PUBCHEM_SHAPE_MULTIPOLES>  (1) 
278.15
21.2
0.98
0.82
0.16
0.01
0.2
0.23
2.81
0.03
0.16
-0.04
0
1.15

>  <PUBCHEM_SHAPE_SELFOVERLAP>  (1) 
497.471

>  <PUBCHEM_SHAPE_VOLUME>  (1) 
177.5

>  <PUBCHEM_COORDINATE_TYPE>  (1) 
2
5
10

$$$$
