35875
     RDKit          3D

  7  6  0  0  0  0  0  0  0  0999 V2000
   -2.4648    0.5723   -0.7646 Cl  0  0  0  0  0  0  0  0  0  0  0  0
    0.9815    1.9748    0.2034 Cl  0  0  0  0  0  0  0  0  0  0  0  0
    2.4570   -0.4641   -0.4363 Cl  0  0  0  0  0  0  0  0  0  0  0  0
   -0.1772   -0.4786    0.2300 C   0  0  0  0  0  0  0  0  0  0  0  0
   -1.4935    0.1311    0.6586 C   0  0  0  0  0  0  0  0  0  0  0  0
   -0.2477   -1.9818    0.0762 C   0  0  0  0  0  0  0  0  0  0  0  0
    0.9448    0.2463    0.0327 C   0  0  0  0  0  0  0  0  0  0  0  0
  1  5  1  0
  2  7  1  0
  3  7  1  0
  4  5  1  0
  4  6  1  0
  4  7  2  3
M  END
>  <PUBCHEM_COMPOUND_CID>  (1) 
35875

>  <PUBCHEM_CONFORMER_RMSD>  (1) 
0.4

>  <PUBCHEM_CONFORMER_DIVERSEORDER>  (1) 
1
3
6
4
5
2

>  <PUBCHEM_MMFF94_PARTIAL_CHARGES>  (1) 
7
1 -0.29
2 -0.14
3 -0.14
4 -0.28
5 0.43
6 0.14
7 0.28

>  <PUBCHEM_EFFECTIVE_ROTOR_COUNT>  (1) 
1

>  <PUBCHEM_PHARMACOPHORE_FEATURES>  (1) 
1
1 6 hydrophobe

>  <PUBCHEM_HEAVY_ATOM_COUNT>  (1) 
7

>  <PUBCHEM_ATOM_DEF_STEREO_COUNT>  (1) 
0

>  <PUBCHEM_ATOM_UDEF_STEREO_COUNT>  (1) 
0

>  <PUBCHEM_BOND_DEF_STEREO_COUNT>  (1) 
0

>  <PUBCHEM_BOND_UDEF_STEREO_COUNT>  (1) 
0

>  <PUBCHEM_ISOTOPIC_ATOM_COUNT>  (1) 
0

>  <PUBCHEM_COMPONENT_COUNT>  (1) 
1

>  <PUBCHEM_CACTVS_TAUTO_COUNT>  (1) 
1

>  <PUBCHEM_CONFORMER_ID>  (1) 
00008C2300000001

>  <PUBCHEM_MMFF94_ENERGY>  (1) 
7.4635

>  <PUBCHEM_FEATURE_SELFOVERLAP>  (1) 
5.074

>  <PUBCHEM_SHAPE_FINGERPRINT>  (1) 
16714656 1 18337119973008079150
20096714 4 18337111266856247121
20711978 78 16984657066514754742
21040471 1 18335698402951670488
23552423 10 17975419323682047534
24536 1 17844822566465710328
29004967 10 18339372859248101826
5084963 1 18273213127317727217

>  <PUBCHEM_SHAPE_MULTIPOLES>  (1) 
149.67
3.04
1.88
0.82
0.32
0.03
0.04
0.38
0.84
-0.39
-0.13
0.22
0.05
0.28

>  <PUBCHEM_SHAPE_SELFOVERLAP>  (1) 
249.473

>  <PUBCHEM_SHAPE_VOLUME>  (1) 
100.8

>  <PUBCHEM_COORDINATE_TYPE>  (1) 
2
5
10

$$$$
