35884
     RDKit          3D

 27 28  0  0  0  0  0  0  0  0999 V2000
    0.1314   -0.2314    0.3798 O   0  0  0  0  0  0  0  0  0  0  0  0
   -7.5789   -0.2200   -0.2084 O   0  0  0  0  0  0  0  0  0  0  0  0
   -1.2824   -1.9139   -0.2761 O   0  0  0  0  0  0  0  0  0  0  0  0
    2.9762    2.9870    0.1832 N   0  0  0  0  0  0  0  0  0  0  0  0
    1.1114   -1.2014    0.1415 N   0  0  0  0  0  0  0  0  0  0  0  0
   -2.0591    0.2025    0.3490 N   0  0  0  0  0  0  0  0  0  0  0  0
    2.7366    1.6341   -0.3040 C   0  0  0  0  0  0  0  0  0  0  0  0
    2.5873    0.6688    0.8696 C   0  0  0  0  0  0  0  0  0  0  0  0
    3.6330    3.7968   -0.8447 C   0  0  0  0  0  0  0  0  0  0  0  0
    1.7209    3.6154    0.5988 C   0  0  0  0  0  0  0  0  0  0  0  0
    2.3091   -0.7523    0.3813 C   0  0  0  0  0  0  0  0  0  0  0  0
    2.7498    3.9483   -2.0715 C   0  0  0  0  0  0  0  0  0  0  0  0
    1.9640    5.0019    1.1707 C   0  0  0  0  0  0  0  0  0  0  0  0
    3.4659   -1.6770    0.1643 C   0  0  0  0  0  0  0  0  0  0  0  0
    4.7076   -1.1643   -0.2112 C   0  0  0  0  0  0  0  0  0  0  0  0
    3.3024   -3.0514    0.3379 C   0  0  0  0  0  0  0  0  0  0  0  0
    5.7858   -2.0259   -0.4134 C   0  0  0  0  0  0  0  0  0  0  0  0
    4.3807   -3.9130    0.1359 C   0  0  0  0  0  0  0  0  0  0  0  0
    5.6225   -3.4001   -0.2398 C   0  0  0  0  0  0  0  0  0  0  0  0
   -1.1018   -0.7649    0.1097 C   0  0  0  0  0  0  0  0  0  0  0  0
   -3.4611    0.0952    0.2064 C   0  0  0  0  0  0  0  0  0  0  0  0
   -4.2773    1.1884    0.4973 C   0  0  0  0  0  0  0  0  0  0  0  0
   -4.0288   -1.1040   -0.2243 C   0  0  0  0  0  0  0  0  0  0  0  0
   -6.2287   -0.1166   -0.0728 C   0  0  0  0  0  0  0  0  0  0  0  0
   -5.6610    1.0825    0.3576 C   0  0  0  0  0  0  0  0  0  0  0  0
   -5.4127   -1.2100   -0.3640 C   0  0  0  0  0  0  0  0  0  0  0  0
   -8.0929   -1.4747   -0.6528 C   0  0  0  0  0  0  0  0  0  0  0  0
  1  5  1  0
  1 20  1  0
  2 24  1  0
  2 27  1  0
  3 20  2  0
  4  7  1  0
  4  9  1  0
  4 10  1  0
  5 11  2  0
  6 20  1  0
  6 21  1  0
  7  8  1  0
  8 11  1  0
  9 12  1  0
 10 13  1  0
 11 14  1  0
 14 15  2  0
 14 16  1  0
 15 17  1  0
 16 18  2  0
 17 19  2  0
 18 19  1  0
 21 22  2  0
 21 23  1  0
 22 25  1  0
 23 26  2  0
 24 25  2  0
 24 26  1  0
M  END
>  <PUBCHEM_COMPOUND_CID>  (1) 
35884

>  <PUBCHEM_CONFORMER_RMSD>  (1) 
1

>  <PUBCHEM_CONFORMER_DIVERSEORDER>  (1) 
1
12
45
65
20
40
99
57
60
69
48
14
8
41
66
97
30
31
78
15
74
79
21
26
42
59
51
95
75
19
3
92
52
91
72
5
44
36
67
98
94
85
49
58
90
22
18
4
96
61
28
77
32
47
10
86
54
11
83
27
70
29
81
73
9
23
37
62
53
71
93
89
16
80
56
46
39
84
13
88
24
76
2
63
100
17
38
6
82
87
7
35
55
64
34
43
33
68
50
25

>  <PUBCHEM_MMFF94_PARTIAL_CHARGES>  (1) 
35
1 -0.09
10 0.27
11 0.3
14 0.09
15 -0.15
16 -0.15
17 -0.15
18 -0.15
19 -0.15
2 -0.36
20 0.78
21 0.12
22 -0.15
23 -0.15
24 0.08
25 -0.15
26 -0.15
27 0.28
3 -0.57
4 -0.81
42 0.15
43 0.15
44 0.15
45 0.15
46 0.15
47 0.37
48 0.15
49 0.15
5 -0.51
50 0.15
51 0.15
6 -0.55
7 0.27
8 0.06
9 0.27

>  <PUBCHEM_EFFECTIVE_ROTOR_COUNT>  (1) 
11

>  <PUBCHEM_PHARMACOPHORE_FEATURES>  (1) 
7
1 2 acceptor
1 3 acceptor
1 4 cation
1 5 acceptor
1 6 donor
6 14 15 16 17 18 19 rings
6 21 22 23 24 25 26 rings

>  <PUBCHEM_HEAVY_ATOM_COUNT>  (1) 
27

>  <PUBCHEM_ATOM_DEF_STEREO_COUNT>  (1) 
0

>  <PUBCHEM_ATOM_UDEF_STEREO_COUNT>  (1) 
0

>  <PUBCHEM_BOND_DEF_STEREO_COUNT>  (1) 
0

>  <PUBCHEM_BOND_UDEF_STEREO_COUNT>  (1) 
1

>  <PUBCHEM_ISOTOPIC_ATOM_COUNT>  (1) 
0

>  <PUBCHEM_COMPONENT_COUNT>  (1) 
1

>  <PUBCHEM_CACTVS_TAUTO_COUNT>  (1) 
2

>  <PUBCHEM_CONFORMER_ID>  (1) 
00008C2C00000001

>  <PUBCHEM_MMFF94_ENERGY>  (1) 
79.743

>  <PUBCHEM_FEATURE_SELFOVERLAP>  (1) 
35.538

>  <PUBCHEM_SHAPE_FINGERPRINT>  (1) 
10411042 1 18267584607474245338
10483366 6 18261691358815930108
10763959 59 18261670377135498845
10937287 8 17833271200653179148
11524674 6 15984812728367207119
12107183 9 18126575518319863809
12166972 35 18201717327934497857
12516196 113 18339359648356493378
13533116 47 18411135879202547509
13590594 115 18265061223587539032
13835254 42 18198059176067534840
13878862 14 18190720073058917349
13955234 65 18340486784907475416
14068700 675 18270964527544932184
14114211 68 18045238260211518852
14170010 4 18411979170234731922
15183329 4 18337110051639738435
15400415 2 17619625130995082681
15439362 3 18263928911874752444
15775530 1 17898027960436969026
16988056 13 18261106370694313820
17844677 252 18412268316107377225
18681886 176 18342450409390343955
20238998 120 18340483353978029648
21049683 271 18334301946692648660
21133410 127 17970055854418187301
21267235 1 18341614790039765827
21304303 172 18127137368729508144
21315763 129 18341612565093153957
21315764 268 18409724067807603885
21344244 78 18270385132151289344
21709351 56 18339917118005050015
221357 26 18261955150325118262
22224240 67 8862643687174768990
23522609 53 18124627230353364608
23559900 14 18412257354982001763
24771293 8 18129360731949835842
249057 25 18060426798732628217
255183 451 18342181008078087014
3004659 81 18343016671021772867
3103668 31 17757273682664253036
4015057 19 18409169917994207123
4046055 25 18122631552714279646
4073 2 18260270788801300267
4516262 110 18194111039585535733
46194498 28 18040714783802076012
513532 50 17917159381213895292
5912855 24 18054785358989677647
6086070 43 18044357358708892085
67856867 119 18341894108462306687
9962374 69 18340758321710385247
9981440 41 17762892565112696032

>  <PUBCHEM_SHAPE_MULTIPOLES>  (1) 
523.1
18.02
5.9
0.97
36.23
6.59
0.27
-12.36
2.94
-13.22
0.25
-0.59
1.06
-1.24

>  <PUBCHEM_SHAPE_SELFOVERLAP>  (1) 
1080.885

>  <PUBCHEM_SHAPE_VOLUME>  (1) 
299.8

>  <PUBCHEM_COORDINATE_TYPE>  (1) 
2
5
10

$$$$
