35887
     RDKit          3D

 27 29  0  0  0  0  0  0  0  0999 V2000
    4.6051   -0.7816   -0.5498 O   0  0  0  0  0  0  0  0  0  0  0  0
    7.6293    0.6939    0.9503 N   0  0  0  0  0  0  0  0  0  0  0  0
   -1.4244    1.1585    0.0286 C   0  0  0  0  0  0  0  0  0  0  0  0
   -0.9392   -0.1282   -0.0500 C   0  0  0  0  0  0  0  0  0  0  0  0
   -0.5978    2.4359    0.0536 C   0  0  0  0  0  0  0  0  0  0  0  0
    0.5432   -0.3023   -0.1838 C   0  0  0  0  0  0  0  0  0  0  0  0
   -2.8828    1.4028    0.1580 C   0  0  0  0  0  0  0  0  0  0  0  0
   -1.8195   -1.2853   -0.0024 C   0  0  0  0  0  0  0  0  0  0  0  0
    1.2941   -0.4093    0.9611 C   0  0  0  0  0  0  0  0  0  0  0  0
    1.0847   -0.3478   -1.4450 C   0  0  0  0  0  0  0  0  0  0  0  0
   -0.3353    2.9938   -1.3400 C   0  0  0  0  0  0  0  0  0  0  0  0
   -2.1364   -1.8704    1.2235 C   0  0  0  0  0  0  0  0  0  0  0  0
   -2.3471   -1.8093   -1.1825 C   0  0  0  0  0  0  0  0  0  0  0  0
   -3.4379    1.4772    1.4194 C   0  0  0  0  0  0  0  0  0  0  0  0
   -3.6394    1.5488   -0.9870 C   0  0  0  0  0  0  0  0  0  0  0  0
    3.2591   -0.6226   -0.4282 C   0  0  0  0  0  0  0  0  0  0  0  0
    2.6739   -0.5719    0.8368 C   0  0  0  0  0  0  0  0  0  0  0  0
    2.4645   -0.5105   -1.5692 C   0  0  0  0  0  0  0  0  0  0  0  0
   -2.9810   -2.9797    1.2693 C   0  0  0  0  0  0  0  0  0  0  0  0
   -3.1917   -2.9184   -1.1367 C   0  0  0  0  0  0  0  0  0  0  0  0
   -4.8083    1.7073    1.5411 C   0  0  0  0  0  0  0  0  0  0  0  0
   -5.0098    1.7790   -0.8654 C   0  0  0  0  0  0  0  0  0  0  0  0
    5.4186   -0.2546    0.4974 C   0  0  0  0  0  0  0  0  0  0  0  0
   -3.5085   -3.5036    0.0892 C   0  0  0  0  0  0  0  0  0  0  0  0
   -5.5942    1.8581    0.3988 C   0  0  0  0  0  0  0  0  0  0  0  0
    6.7696    0.1336   -0.0817 C   0  0  0  0  0  0  0  0  0  0  0  0
    8.9113    1.1068    0.3945 C   0  0  0  0  0  0  0  0  0  0  0  0
  1 16  1  0
  1 23  1  0
  2 26  1  0
  2 27  1  0
  3  4  2  0
  3  5  1  0
  3  7  1  0
  4  6  1  0
  4  8  1  0
  5 11  1  0
  6  9  2  0
  6 10  1  0
  7 14  2  0
  7 15  1  0
  8 12  2  0
  8 13  1  0
  9 17  1  0
 10 18  2  0
 12 19  1  0
 13 20  2  0
 14 21  1  0
 15 22  2  0
 16 17  2  0
 16 18  1  0
 19 24  2  0
 20 24  1  0
 21 25  2  0
 22 25  1  0
 23 26  1  0
M  END
>  <PUBCHEM_COMPOUND_CID>  (1) 
35887

>  <PUBCHEM_CONFORMER_RMSD>  (1) 
0.8

>  <PUBCHEM_CONFORMER_DIVERSEORDER>  (1) 
1
8
7
2
5
4
6
3

>  <PUBCHEM_MMFF94_PARTIAL_CHARGES>  (1) 
41
1 -0.36
10 -0.15
12 -0.15
13 -0.15
14 -0.15
15 -0.15
16 0.08
17 -0.15
18 -0.15
19 -0.15
2 -0.9
20 -0.15
21 -0.15
22 -0.15
23 0.28
24 -0.15
25 -0.15
26 0.27
27 0.27
3 -0.17
30 0.15
31 0.15
35 0.15
36 0.15
37 0.15
38 0.15
39 0.15
4 -0.06
40 0.15
41 0.15
42 0.15
43 0.15
44 0.15
47 0.15
48 0.15
5 0.14
51 0.36
6 0.03
7 0.03
8 0.03
9 -0.15

>  <PUBCHEM_EFFECTIVE_ROTOR_COUNT>  (1) 
8

>  <PUBCHEM_PHARMACOPHORE_FEATURES>  (1) 
7
1 1 acceptor
1 11 hydrophobe
1 2 cation
1 2 donor
6 6 9 10 16 17 18 rings
6 7 14 15 21 22 25 rings
6 8 12 13 19 20 24 rings

>  <PUBCHEM_HEAVY_ATOM_COUNT>  (1) 
27

>  <PUBCHEM_ATOM_DEF_STEREO_COUNT>  (1) 
0

>  <PUBCHEM_ATOM_UDEF_STEREO_COUNT>  (1) 
0

>  <PUBCHEM_BOND_DEF_STEREO_COUNT>  (1) 
0

>  <PUBCHEM_BOND_UDEF_STEREO_COUNT>  (1) 
1

>  <PUBCHEM_ISOTOPIC_ATOM_COUNT>  (1) 
0

>  <PUBCHEM_COMPONENT_COUNT>  (1) 
1

>  <PUBCHEM_CACTVS_TAUTO_COUNT>  (1) 
1

>  <PUBCHEM_CONFORMER_ID>  (1) 
00008C2F00000001

>  <PUBCHEM_MMFF94_ENERGY>  (1) 
92.5436

>  <PUBCHEM_FEATURE_SELFOVERLAP>  (1) 
35.52

>  <PUBCHEM_SHAPE_FINGERPRINT>  (1) 
10 15 17894915110127734992
10291535 26 17917715686519989643
10411042 1 18050848025125484399
10906281 52 17774732956391886984
1100329 8 18335989726737264437
11135609 187 18269832018016035405
11315181 36 17967810609092748950
11578080 2 17702666721591604881
12035758 1 18267326299709073537
12616971 3 17022911159689815558
13140716 1 18410581716219606753
13911987 19 18190448382186589917
13947920 75 18409721868373073451
15131766 46 15215874871148393806
15183329 4 14261348051869737964
17980427 23 18113904900918466798
20600515 1 18270418112868018861
21033648 29 18189898604322995165
21236236 1 18411135861442572610
21424621 283 17986400984075585993
21792961 116 17346605158541330042
22224240 67 18268440049449133657
23198884 109 17632296727146057336
23402539 116 18260547844720197942
23557571 272 18343867740102566710
23559900 14 18273206504699982472
25147074 1 18115884042679871060
3178227 256 18262253136264131433
4073 2 18412547609452353994
484985 159 17023475264858071571
5104073 3 18411978053807460194
5969126 39 18129090294395867943
59755656 520 18270120098457060495
6669772 16 18267027146484266959
70251023 43 18123185977321889091
7226269 152 18339921519914245385

>  <PUBCHEM_SHAPE_MULTIPOLES>  (1) 
544.8
15.78
3.4
1.43
42.9
1.49
0.06
-6.17
-3.91
-6.31
0.17
-0.74
0.03
0.04

>  <PUBCHEM_SHAPE_SELFOVERLAP>  (1) 
1165.6

>  <PUBCHEM_SHAPE_VOLUME>  (1) 
302.9

>  <PUBCHEM_COORDINATE_TYPE>  (1) 
2
5
10

$$$$
