35895
     RDKit          3D

 20 21  0  0  1  0  0  0  0  0999 V2000
   -0.7251    1.2382    0.4878 O   0  0  0  0  0  0  0  0  0  0  0  0
    0.2136    0.2919   -1.3704 O   0  0  0  0  0  0  0  0  0  0  0  0
   -3.9031    0.0942   -0.2104 N   0  0  0  0  0  0  0  0  0  0  0  0
    1.4118    0.5620    0.6225 N   0  0  0  0  0  0  0  0  0  0  0  0
   -1.9440    1.4105   -0.2214 C   0  0  0  0  0  0  0  0  0  0  0  0
   -2.4974    0.0430   -0.6186 C   0  0  0  0  0  0  0  0  0  0  0  0
   -3.9226    0.8683    1.0294 C   0  0  0  0  0  0  0  0  0  0  0  0
   -3.0031    2.0298    0.6872 C   0  0  0  0  0  0  0  0  0  0  0  0
   -4.4868   -1.2290   -0.0518 C   0  0  0  0  0  0  0  0  0  0  0  0
   -4.4202   -1.9979   -1.3684 C   0  0  0  0  0  0  0  0  0  0  0  0
   -5.9272   -1.0942    0.4318 C   0  0  0  0  0  0  0  0  0  0  0  0
    0.3090    0.6543   -0.2042 C   0  0  0  0  0  0  0  0  0  0  0  0
    2.6852    0.0289    0.3187 C   0  0  0  0  0  0  0  0  0  0  0  0
    2.9326   -1.3185    0.5412 C   0  0  0  0  0  0  0  0  0  0  0  0
    3.6691    0.8611   -0.1968 C   0  0  0  0  0  0  0  0  0  0  0  0
    4.1896   -1.8444    0.2424 C   0  0  0  0  0  0  0  0  0  0  0  0
    4.9259    0.3350   -0.4957 C   0  0  0  0  0  0  0  0  0  0  0  0
    1.8858   -2.2294    1.0962 C   0  0  0  0  0  0  0  0  0  0  0  0
    3.4208    2.3141   -0.4431 C   0  0  0  0  0  0  0  0  0  0  0  0
    5.1861   -1.0177   -0.2761 C   0  0  0  0  0  0  0  0  0  0  0  0
  1  5  1  0
  1 12  1  0
  2 12  2  0
  3  6  1  0
  3  7  1  0
  3  9  1  0
  4 12  1  0
  4 13  1  0
  5  6  1  0
  5  8  1  0
  7  8  1  0
  9 10  1  0
  9 11  1  0
 13 14  2  0
 13 15  1  0
 14 16  1  0
 14 18  1  0
 15 17  2  0
 15 19  1  0
 16 20  2  0
 17 20  1  0
M  END
>  <PUBCHEM_COMPOUND_CID>  (1) 
35895

>  <PUBCHEM_CONFORMER_RMSD>  (1) 
0.8

>  <PUBCHEM_CONFORMER_DIVERSEORDER>  (1) 
1
31
35
15
33
21
20
30
32
50
29
28
40
39
44
12
3
14
18
11
41
45
43
17
6
42
24
7
51
27
34
47
25
2
16
13
4
26
23
36
49
22
8
9
52
5
19
10
48
38
46
37

>  <PUBCHEM_MMFF94_PARTIAL_CHARGES>  (1) 
21
1 -0.43
12 0.78
13 0.12
14 -0.14
15 -0.14
16 -0.15
17 -0.15
18 0.14
19 0.14
2 -0.57
20 -0.15
3 -0.81
35 0.37
36 0.15
37 0.15
4 -0.55
44 0.15
5 0.28
6 0.27
7 0.27
9 0.27

>  <PUBCHEM_EFFECTIVE_ROTOR_COUNT>  (1) 
6

>  <PUBCHEM_PHARMACOPHORE_FEATURES>  (1) 
6
1 2 acceptor
1 3 cation
1 4 donor
3 9 10 11 hydrophobe
5 3 5 6 7 8 rings
6 13 14 15 16 17 20 rings

>  <PUBCHEM_HEAVY_ATOM_COUNT>  (1) 
20

>  <PUBCHEM_ATOM_DEF_STEREO_COUNT>  (1) 
0

>  <PUBCHEM_ATOM_UDEF_STEREO_COUNT>  (1) 
1

>  <PUBCHEM_BOND_DEF_STEREO_COUNT>  (1) 
0

>  <PUBCHEM_BOND_UDEF_STEREO_COUNT>  (1) 
0

>  <PUBCHEM_ISOTOPIC_ATOM_COUNT>  (1) 
0

>  <PUBCHEM_COMPONENT_COUNT>  (1) 
1

>  <PUBCHEM_CACTVS_TAUTO_COUNT>  (1) 
2

>  <PUBCHEM_CONFORMER_ID>  (1) 
00008C3700000001

>  <PUBCHEM_MMFF94_ENERGY>  (1) 
65.0303

>  <PUBCHEM_FEATURE_SELFOVERLAP>  (1) 
30.446

>  <PUBCHEM_SHAPE_FINGERPRINT>  (1) 
10366900 7 17676213459390437704
10616163 171 18342175544615993919
12107183 9 17690845562210795297
12236239 1 18411985753855438357
12592606 108 18199181979815400559
12596602 18 17632578266404703674
12633257 1 17060345166949979411
12916754 54 18408603643219503693
13103583 49 17774454888163038275
13167823 11 18411419492539955265
13533116 47 18338237166995302125
13583140 156 17987214703793907825
13675066 3 16917062227123493788
13760787 19 18339925909312663185
14289901 80 18408885113911822833
14341114 176 18343868826750346137
14576447 43 18335700525272221658
15188451 53 15553869110078353343
15196674 1 18409448055216975219
15250474 111 18339632365557420211
15537594 2 18340769329706017335
15880784 105 17845936341912283963
17134984 74 17532078566253100219
17492 89 18340770317105364302
17834072 33 18410293622682118004
17844677 252 18411707568792346192
17857418 61 18411132532784674971
19422 9 18413388713570562160
200 152 18334012800413859889
20028762 73 18411131408105526730
20281475 54 18412822473693304193
20645477 70 18113052740351210010
21054139 6 18335415790368243882
21065198 48 18412548695287620313
21267235 1 18411707577524276862
21673915 165 18408603668941782754
21709351 56 18187364294661349540
22950370 63 18343303690853626585
23402539 116 17749107759932988493
235170 7 16878211013931985695
23522609 53 17984734296410456921
23559900 14 18336819870779811625
23596394 208 17458613502187450126
239999 70 18411421717823839534
2871803 45 18114176436676384514
312423 11 18412271631136814636
314194 84 18340206409722005803
351380 3 18413106186791289023
4214541 1 18339361868527336305
465052 167 18202006550789785974
5104073 3 18201997694804553472
5312544 6 18264491861279456740
602551 16 16701728453812190878
6913067 236 17750217244722875644
7495541 125 17846495958944625408
77779 3 18411420574977546688
7970288 3 17760927343119842386
9709674 26 18334864883044171866

>  <PUBCHEM_SHAPE_MULTIPOLES>  (1) 
389.89
13.06
2.33
1.03
4.89
0.14
-0.09
4.6
-0.59
-0.21
0.15
0.52
0.2
-1.51

>  <PUBCHEM_SHAPE_SELFOVERLAP>  (1) 
807.748

>  <PUBCHEM_SHAPE_VOLUME>  (1) 
225.9

>  <PUBCHEM_COORDINATE_TYPE>  (1) 
2
5
10

$$$$
