35898
     RDKit          3D

 20 21  0  0  1  0  0  0  0  0999 V2000
   -0.7125    1.4954   -0.3171 O   0  0  0  0  0  0  0  0  0  0  0  0
    0.2501    0.5174    1.5123 O   0  0  0  0  0  0  0  0  0  0  0  0
   -3.6901   -0.6248    0.3424 N   0  0  0  0  0  0  0  0  0  0  0  0
    1.3630    0.6745   -0.5413 N   0  0  0  0  0  0  0  0  0  0  0  0
   -2.0311    1.2005    0.1311 C   0  0  0  0  0  0  0  0  0  0  0  0
   -3.0181    2.0244   -0.6900 C   0  0  0  0  0  0  0  0  0  0  0  0
   -2.3046   -0.2989   -0.0182 C   0  0  0  0  0  0  0  0  0  0  0  0
   -4.4504    1.6220   -0.3642 C   0  0  0  0  0  0  0  0  0  0  0  0
   -4.6452    0.1106   -0.4984 C   0  0  0  0  0  0  0  0  0  0  0  0
   -3.9209   -2.0655    0.2397 C   0  0  0  0  0  0  0  0  0  0  0  0
   -5.3128   -2.4345    0.7241 C   0  0  0  0  0  0  0  0  0  0  0  0
    0.3115    0.8546    0.3363 C   0  0  0  0  0  0  0  0  0  0  0  0
    2.6115    0.0614   -0.2895 C   0  0  0  0  0  0  0  0  0  0  0  0
    3.6731    0.8331    0.1617 C   0  0  0  0  0  0  0  0  0  0  0  0
    2.7572   -1.3030   -0.4981 C   0  0  0  0  0  0  0  0  0  0  0  0
    4.9054    0.2284    0.4092 C   0  0  0  0  0  0  0  0  0  0  0  0
    3.9896   -1.9077   -0.2506 C   0  0  0  0  0  0  0  0  0  0  0  0
    3.5351    2.3035    0.3913 C   0  0  0  0  0  0  0  0  0  0  0  0
    1.6255   -2.1499   -0.9835 C   0  0  0  0  0  0  0  0  0  0  0  0
    5.0636   -1.1419    0.2031 C   0  0  0  0  0  0  0  0  0  0  0  0
  1  5  1  0
  1 12  1  0
  2 12  2  0
  3  7  1  0
  3  9  1  0
  3 10  1  0
  4 12  1  0
  4 13  1  0
  5  6  1  0
  5  7  1  0
  6  8  1  0
  8  9  1  0
 10 11  1  0
 13 14  2  0
 13 15  1  0
 14 16  1  0
 14 18  1  0
 15 17  2  0
 15 19  1  0
 16 20  2  0
 17 20  1  0
M  END
>  <PUBCHEM_COMPOUND_CID>  (1) 
35898

>  <PUBCHEM_CONFORMER_RMSD>  (1) 
0.8

>  <PUBCHEM_CONFORMER_DIVERSEORDER>  (1) 
1
25
49
13
48
36
12
43
46
23
2
19
21
32
38
20
16
40
47
44
4
10
11
41
42
31
27
33
51
15
8
50
22
18
45
26
24
35
9
5
14
52
39
7
30
6
34
28
3
29
37
17

>  <PUBCHEM_MMFF94_PARTIAL_CHARGES>  (1) 
21
1 -0.43
10 0.27
12 0.78
13 0.12
14 -0.14
15 -0.14
16 -0.15
17 -0.15
18 0.14
19 0.14
2 -0.57
20 -0.15
3 -0.81
35 0.37
36 0.15
37 0.15
4 -0.55
44 0.15
5 0.28
7 0.27
9 0.27

>  <PUBCHEM_EFFECTIVE_ROTOR_COUNT>  (1) 
6.2

>  <PUBCHEM_PHARMACOPHORE_FEATURES>  (1) 
5
1 2 acceptor
1 3 cation
1 4 donor
6 13 14 15 16 17 20 rings
6 3 5 6 7 8 9 rings

>  <PUBCHEM_HEAVY_ATOM_COUNT>  (1) 
20

>  <PUBCHEM_ATOM_DEF_STEREO_COUNT>  (1) 
0

>  <PUBCHEM_ATOM_UDEF_STEREO_COUNT>  (1) 
1

>  <PUBCHEM_BOND_DEF_STEREO_COUNT>  (1) 
0

>  <PUBCHEM_BOND_UDEF_STEREO_COUNT>  (1) 
0

>  <PUBCHEM_ISOTOPIC_ATOM_COUNT>  (1) 
0

>  <PUBCHEM_COMPONENT_COUNT>  (1) 
1

>  <PUBCHEM_CACTVS_TAUTO_COUNT>  (1) 
2

>  <PUBCHEM_CONFORMER_ID>  (1) 
00008C3A00000001

>  <PUBCHEM_MMFF94_ENERGY>  (1) 
61.2099

>  <PUBCHEM_FEATURE_SELFOVERLAP>  (1) 
25.371

>  <PUBCHEM_SHAPE_FINGERPRINT>  (1) 
10616163 171 18411700967733327167
10835480 77 18411691102167522613
108634 29 18187939416441987066
11370993 70 18411133602231707286
11405975 8 18411139095547736937
11796584 16 18337105657755773546
13167823 11 18408319982188419642
13402501 40 18411703214228368499
13583140 156 18130779079488594221
13911882 115 18131358483799492902
14251751 18 18409730651380727170
146900 427 17488466450041880848
15196674 1 18410575088979437623
15352361 1 18409168848442023607
15375358 24 18411418380143523151
15375462 189 17775282802468321942
15788980 27 18041000626380393384
15961568 22 17531248417731132556
17349148 13 15863787287803853368
17492 89 18410576158748424426
17844677 252 18410017645337873433
19141452 34 18335424517762784501
200 152 17917142810586228696
20261772 1 18060419157268851478
20645477 70 18201717297864451822
20681677 155 18261954038572316425
21065198 57 18410854321999174005
21065201 7 18186792565478400289
221490 88 18411703183946585508
22393880 68 18187078408362945843
23402539 116 18040429988551615212
23424784 1240 18341062842954222055
23557571 272 18261111889441919337
23559900 14 18340199709367588120
239999 70 18202289091609411166
26918003 58 18271239426684080144
4073 2 18333453140099354522
4214541 1 18409729526120420493
4921388 177 17385734599255708131
5104073 3 18341611503582325776
5283173 99 18263355906849198045
633830 44 16515696515115154213
6438718 38 16915653898726053494
7495541 125 18059850709783372672
77779 3 18410292505880156509
7970288 3 18047753986525412811
9709674 26 18270403763334310023

>  <PUBCHEM_SHAPE_MULTIPOLES>  (1) 
389.89
12.44
2.65
0.88
3.08
0.57
0.07
3.77
0.86
1.24
-0.08
0.08
0.07
1.53

>  <PUBCHEM_SHAPE_SELFOVERLAP>  (1) 
802.568

>  <PUBCHEM_SHAPE_VOLUME>  (1) 
224.5

>  <PUBCHEM_COORDINATE_TYPE>  (1) 
2
5
10

$$$$
