35896
     RDKit          3D

 19 20  0  0  1  0  0  0  0  0999 V2000
   -1.1055   -1.2574    0.3585 O   0  0  0  0  0  0  0  0  0  0  0  0
   -0.0298   -0.5080   -1.5154 O   0  0  0  0  0  0  0  0  0  0  0  0
   -3.8866    1.0337   -0.5426 N   0  0  0  0  0  0  0  0  0  0  0  0
    1.0251   -0.5891    0.5729 N   0  0  0  0  0  0  0  0  0  0  0  0
   -2.3864   -0.8952   -0.1460 C   0  0  0  0  0  0  0  0  0  0  0  0
   -3.4534   -1.5698    0.7103 C   0  0  0  0  0  0  0  0  0  0  0  0
   -2.5399    0.6283   -0.1211 C   0  0  0  0  0  0  0  0  0  0  0  0
   -4.8415   -1.0820    0.3163 C   0  0  0  0  0  0  0  0  0  0  0  0
   -4.9151    0.4460    0.3273 C   0  0  0  0  0  0  0  0  0  0  0  0
   -4.0014    2.4917   -0.5584 C   0  0  0  0  0  0  0  0  0  0  0  0
   -0.0197   -0.7543   -0.3154 C   0  0  0  0  0  0  0  0  0  0  0  0
    2.3242   -0.0993    0.3074 C   0  0  0  0  0  0  0  0  0  0  0  0
    3.3280   -0.9866   -0.0542 C   0  0  0  0  0  0  0  0  0  0  0  0
    2.5760    1.2614    0.4124 C   0  0  0  0  0  0  0  0  0  0  0  0
    4.6100   -0.5033   -0.3162 C   0  0  0  0  0  0  0  0  0  0  0  0
    3.8580    1.7446    0.1503 C   0  0  0  0  0  0  0  0  0  0  0  0
    3.0754   -2.4548   -0.1724 C   0  0  0  0  0  0  0  0  0  0  0  0
    1.5075    2.2316    0.8004 C   0  0  0  0  0  0  0  0  0  0  0  0
    4.8749    0.8623   -0.2141 C   0  0  0  0  0  0  0  0  0  0  0  0
  1  5  1  0
  1 11  1  0
  2 11  2  0
  3  7  1  0
  3  9  1  0
  3 10  1  0
  4 11  1  0
  4 12  1  0
  5  6  1  0
  5  7  1  0
  6  8  1  0
  8  9  1  0
 12 13  2  0
 12 14  1  0
 13 15  1  0
 13 17  1  0
 14 16  2  0
 14 18  1  0
 15 19  2  0
 16 19  1  0
M  END
>  <PUBCHEM_COMPOUND_CID>  (1) 
35896

>  <PUBCHEM_CONFORMER_RMSD>  (1) 
0.8

>  <PUBCHEM_CONFORMER_DIVERSEORDER>  (1) 
3
25
27
11
10
26
29
28
5
4
13
6
15
14
16
7
20
24
2
21
23
12
18
1
17
19
22
8
9

>  <PUBCHEM_MMFF94_PARTIAL_CHARGES>  (1) 
21
1 -0.43
10 0.27
11 0.78
12 0.12
13 -0.14
14 -0.14
15 -0.15
16 -0.15
17 0.14
18 0.14
19 -0.15
2 -0.57
3 -0.81
32 0.37
33 0.15
34 0.15
4 -0.55
41 0.15
5 0.28
7 0.27
9 0.27

>  <PUBCHEM_EFFECTIVE_ROTOR_COUNT>  (1) 
5.2

>  <PUBCHEM_PHARMACOPHORE_FEATURES>  (1) 
5
1 2 acceptor
1 3 cation
1 4 donor
6 12 13 14 15 16 19 rings
6 3 5 6 7 8 9 rings

>  <PUBCHEM_HEAVY_ATOM_COUNT>  (1) 
19

>  <PUBCHEM_ATOM_DEF_STEREO_COUNT>  (1) 
0

>  <PUBCHEM_ATOM_UDEF_STEREO_COUNT>  (1) 
1

>  <PUBCHEM_BOND_DEF_STEREO_COUNT>  (1) 
0

>  <PUBCHEM_BOND_UDEF_STEREO_COUNT>  (1) 
0

>  <PUBCHEM_ISOTOPIC_ATOM_COUNT>  (1) 
0

>  <PUBCHEM_COMPONENT_COUNT>  (1) 
1

>  <PUBCHEM_CACTVS_TAUTO_COUNT>  (1) 
2

>  <PUBCHEM_CONFORMER_ID>  (1) 
00008C3800000003

>  <PUBCHEM_MMFF94_ENERGY>  (1) 
62.8252

>  <PUBCHEM_FEATURE_SELFOVERLAP>  (1) 
25.371

>  <PUBCHEM_SHAPE_FINGERPRINT>  (1) 
10366900 7 18188206615083847723
10608611 8 18410290324305405747
10646746 165 18334857203621131629
11370993 144 18264210218999169613
11405975 8 18261952946891007107
11471102 20 18341895212527410106
11552529 35 17987239022431812563
11595378 159 16732974293762033717
116883 192 17913213062082284086
12107183 9 17757544158102501035
12507557 5 18273496788448759097
12507560 40 18408604760005627903
12596602 18 16008755753112068937
13081056 2 18411138060692356649
13583140 156 18341334474150259127
14252887 29 14056993902292669402
14341114 176 18409456881770296929
14573314 32 18334859406881436319
14866123 147 16756632214789989434
15196674 1 18410292497342949937
15239154 128 18334577944863447948
1601671 61 18411419514516257012
17349148 13 16128656336194879431
17834072 33 18413107290049193030
17844677 252 18409738347835196125
1813 80 16370728127564671870
20645477 56 18334577932495523615
20645477 70 18059582364801468558
21033648 29 18410845582157490857
21065198 57 18408323267828137339
21065199 12 18407761447556493123
21267235 1 18342749502960699042
21279426 13 18266741277269949300
21421861 104 17750784447084070402
21652331 79 18409728491207277985
221357 26 18413666920404299161
22289505 5 18341328907962015540
23402655 69 18343865528515993724
23559900 14 18268426824358930266
351380 180 18412542128667298285
3545911 37 18411140246561581027
4214541 1 18409167697227011129
5104073 3 18334857190694000051
5281201 14 18412831278397191190
543358 83 18340208484196536570
633830 44 18336257964318703503
6442390 28 18040435525033894594
77779 3 18408886234855796411
8272917 22 18272940392710857542
90127 26 18261402130230532034
9709674 26 18408890663062530955

>  <PUBCHEM_SHAPE_MULTIPOLES>  (1) 
369.31
11.49
2.37
0.85
4.11
0.57
0.09
1.46
0.07
-0.08
-0.07
0.13
0.04
1.02

>  <PUBCHEM_SHAPE_SELFOVERLAP>  (1) 
763.747

>  <PUBCHEM_SHAPE_VOLUME>  (1) 
211.8

>  <PUBCHEM_COORDINATE_TYPE>  (1) 
2
5
10

$$$$
