35901
     RDKit          3D

 21 22  0  0  1  0  0  0  0  0999 V2000
   -3.1792    2.8101    0.3389 Cl  0  0  0  0  0  0  0  0  0  0  0  0
    0.6770    0.8499   -0.7032 O   0  0  0  0  0  0  0  0  0  0  0  0
   -1.0791    0.4252   -2.1054 O   0  0  0  0  0  0  0  0  0  0  0  0
    3.4664    0.1666    0.0212 N   0  0  0  0  0  0  0  0  0  0  0  0
   -1.3213    0.4245    0.2230 N   0  0  0  0  0  0  0  0  0  0  0  0
    1.6374    0.3872   -1.6512 C   0  0  0  0  0  0  0  0  0  0  0  0
    3.0295    0.8492   -1.2079 C   0  0  0  0  0  0  0  0  0  0  0  0
    1.5603   -1.1327   -1.7784 C   0  0  0  0  0  0  0  0  0  0  0  0
    3.4798   -1.2917   -0.1518 C   0  0  0  0  0  0  0  0  0  0  0  0
    2.0912   -1.8142   -0.5202 C   0  0  0  0  0  0  0  0  0  0  0  0
    4.7859    0.6463    0.4316 C   0  0  0  0  0  0  0  0  0  0  0  0
    5.1797    0.0316    1.7724 C   0  0  0  0  0  0  0  0  0  0  0  0
    6.5404    0.5315    2.2324 C   0  0  0  0  0  0  0  0  0  0  0  0
   -0.6365    0.5505   -0.9701 C   0  0  0  0  0  0  0  0  0  0  0  0
   -2.6890    0.1233    0.4140 C   0  0  0  0  0  0  0  0  0  0  0  0
   -3.0741   -1.2054    0.5316 C   0  0  0  0  0  0  0  0  0  0  0  0
   -3.6245    1.1465    0.4814 C   0  0  0  0  0  0  0  0  0  0  0  0
   -4.4209   -1.5164    0.7203 C   0  0  0  0  0  0  0  0  0  0  0  0
   -2.0825   -2.3214    0.4620 C   0  0  0  0  0  0  0  0  0  0  0  0
   -4.9710    0.8355    0.6699 C   0  0  0  0  0  0  0  0  0  0  0  0
   -5.3693   -0.4961    0.7894 C   0  0  0  0  0  0  0  0  0  0  0  0
  1 17  1  0
  2  6  1  0
  2 14  1  0
  3 14  2  0
  4  7  1  0
  4  9  1  0
  4 11  1  0
  5 14  1  0
  5 15  1  0
  6  7  1  0
  6  8  1  0
  8 10  1  0
  9 10  1  0
 11 12  1  0
 12 13  1  0
 15 16  2  0
 15 17  1  0
 16 18  1  0
 16 19  1  0
 17 20  2  0
 18 21  2  0
 20 21  1  0
M  END
>  <PUBCHEM_COMPOUND_CID>  (1) 
35901

>  <PUBCHEM_CONFORMER_RMSD>  (1) 
0.8

>  <PUBCHEM_CONFORMER_DIVERSEORDER>  (1) 
2
57
74
221
148
162
126
52
98
93
130
209
188
115
195
200
18
19
73
79
105
190
210
22
92
31
89
25
51
40
203
145
37
62
20
77
60
49
164
102
204
56
29
71
214
13
124
30
99
163
41
131
179
231
199
72
39
156
171
43
176
100
33
206
230
46
119
32
182
213
10
139
67
193
198
17
12
184
11
147
177
116
76
207
132
152
135
70
14
111
113
94
83
150
173
211
38
138
137
197
183
178
4
23
149
110
128
53
166
108
112
6
50
80
226
86
187
160
109
45
189
215
114
16
47
185
170
165
34
169
134
146
63
172
161
121
212
232
175
64
96
88
69
216
217
117
9
97
219
181
104
103
133
136
202
21
144
186
68
127
118
174
229
107
42
122
227
180
90
228
153
44
54
58
155
81
26
192
154
205
66
143
222
78
84
196
101
82
123
106
158
140
24
129
95
120
5
55
157
223
35
167
36
220
224
142
59
7
159
48
8
65
125
91
218
201
75
85
3
1
151
28
87
225
168
141
191
61
194
208
27
15

>  <PUBCHEM_MMFF94_PARTIAL_CHARGES>  (1) 
21
1 -0.18
11 0.27
14 0.78
15 0.12
16 -0.14
17 0.18
18 -0.15
19 0.14
2 -0.43
20 -0.15
21 -0.15
3 -0.57
38 0.37
39 0.15
4 -0.81
43 0.15
44 0.15
5 -0.55
6 0.28
7 0.27
9 0.27

>  <PUBCHEM_EFFECTIVE_ROTOR_COUNT>  (1) 
7.2

>  <PUBCHEM_PHARMACOPHORE_FEATURES>  (1) 
6
1 13 hydrophobe
1 3 acceptor
1 4 cation
1 5 donor
6 15 16 17 18 20 21 rings
6 4 6 7 8 9 10 rings

>  <PUBCHEM_HEAVY_ATOM_COUNT>  (1) 
21

>  <PUBCHEM_ATOM_DEF_STEREO_COUNT>  (1) 
0

>  <PUBCHEM_ATOM_UDEF_STEREO_COUNT>  (1) 
1

>  <PUBCHEM_BOND_DEF_STEREO_COUNT>  (1) 
0

>  <PUBCHEM_BOND_UDEF_STEREO_COUNT>  (1) 
0

>  <PUBCHEM_ISOTOPIC_ATOM_COUNT>  (1) 
0

>  <PUBCHEM_COMPONENT_COUNT>  (1) 
1

>  <PUBCHEM_CACTVS_TAUTO_COUNT>  (1) 
2

>  <PUBCHEM_CONFORMER_ID>  (1) 
00008C3D00000002

>  <PUBCHEM_MMFF94_ENERGY>  (1) 
60.975

>  <PUBCHEM_FEATURE_SELFOVERLAP>  (1) 
30.446

>  <PUBCHEM_SHAPE_FINGERPRINT>  (1) 
10 15 18130498721894204584
10319926 262 18339079277265089898
10498660 4 11239720717187908739
11045977 3 18273498970577105194
11370993 70 18412551981138094271
12107183 9 17757276972413613513
12236239 1 17458632241810342129
12403259 118 18343017804808931012
12507560 40 18130794403952622260
12596602 18 17967529103676948792
12633257 1 18114180856656408096
12760667 363 15791724187870975128
12892183 10 18271528597962558557
13533116 47 18129392496721153495
13583140 156 18202274784593481677
13994607 96 13542465405998172495
14178342 30 18188773838387193076
14341114 328 18260268564466513864
15183329 4 8502384342714751832
15188451 53 18114175376130614427
15375358 24 18272379667507920663
15788980 27 16298104289285751271
17349148 13 17240773890653062931
17780758 139 18187639228007118984
1813 80 16588317072033383103
193927 3 14635152257831905592
19784866 240 14056716820940960130
204376 136 15985107401044447837
20645477 70 14273742880012784228
21033648 29 17632019667100652505
21065199 12 18270968942254237007
21859007 373 17532360990433258421
23557571 272 18269851855778801292
23559900 14 18127152804324914927
2838139 119 14836398143249055504
339767 52 17967246516350921051
351380 3 16515397465722683688
44062 13 11314317160683427121
474 4 14261636118534350293
4990 188 8502370010118780190
5104073 3 18199476475960977067
559249 180 16732972103549972761
573450 72 18186807980532542473
633830 44 14620250593540725189
67856867 119 18042978755221061061
7064713 232 18335422357024826490
76465 3 16588016918718466782
7808743 9 15769766988082787322
9709674 26 18267325212787454983

>  <PUBCHEM_SHAPE_MULTIPOLES>  (1) 
412.34
13.26
2.05
1.75
8.19
0.09
-0.18
2.28
9.38
-1.89
0.16
2.38
0.1
1.14

>  <PUBCHEM_SHAPE_SELFOVERLAP>  (1) 
837.799

>  <PUBCHEM_SHAPE_VOLUME>  (1) 
240.7

>  <PUBCHEM_COORDINATE_TYPE>  (1) 
2
5
10

$$$$
