3590
     RDKit          3D

 10  9  0  0  1  0  0  0  0  0999 V2000
    3.3465   -0.8464   -0.5568 O   0  0  0  0  0  0  0  0  0  0  0  0
   -4.0122   -0.7968   -0.0378 N   0  0  0  0  0  0  0  0  0  0  0  0
    0.9635   -0.5983   -0.4409 C   0  0  0  0  0  0  0  0  0  0  0  0
    2.3208   -0.0110   -0.0028 C   0  0  0  0  0  0  0  0  0  0  0  0
   -0.2728    0.0855    0.1514 C   0  0  0  0  0  0  0  0  0  0  0  0
   -1.5591   -0.6244   -0.2932 C   0  0  0  0  0  0  0  0  0  0  0  0
   -2.8278   -0.0216    0.3334 C   0  0  0  0  0  0  0  0  0  0  0  0
    2.4953   -0.0106    1.5172 C   0  0  0  0  0  0  0  0  0  0  0  0
    2.5528    1.3926   -0.5634 C   0  0  0  0  0  0  0  0  0  0  0  0
   -3.0069    1.4309   -0.1071 C   0  0  0  0  0  0  0  0  0  0  0  0
  1  4  1  0
  2  7  1  0
  3  4  1  0
  3  5  1  0
  4  8  1  0
  4  9  1  0
  5  6  1  0
  6  7  1  0
  7 10  1  0
M  END
>  <PUBCHEM_COMPOUND_CID>  (1) 
3590

>  <PUBCHEM_CONFORMER_RMSD>  (1) 
0.6

>  <PUBCHEM_CONFORMER_DIVERSEORDER>  (1) 
1
34
27
24
4
33
35
13
28
29
8
17
31
16
30
32
7
3
2
36
15
9
20
5
10
19
12
25
21
23
6
26
22
18
11
14

>  <PUBCHEM_MMFF94_PARTIAL_CHARGES>  (1) 
7
1 -0.68
2 -0.99
27 0.4
28 0.36
29 0.36
4 0.28
7 0.27

>  <PUBCHEM_EFFECTIVE_ROTOR_COUNT>  (1) 
4

>  <PUBCHEM_PHARMACOPHORE_FEATURES>  (1) 
5
1 1 acceptor
1 1 donor
1 2 cation
1 2 donor
3 4 8 9 hydrophobe

>  <PUBCHEM_HEAVY_ATOM_COUNT>  (1) 
10

>  <PUBCHEM_ATOM_DEF_STEREO_COUNT>  (1) 
0

>  <PUBCHEM_ATOM_UDEF_STEREO_COUNT>  (1) 
1

>  <PUBCHEM_BOND_DEF_STEREO_COUNT>  (1) 
0

>  <PUBCHEM_BOND_UDEF_STEREO_COUNT>  (1) 
0

>  <PUBCHEM_ISOTOPIC_ATOM_COUNT>  (1) 
0

>  <PUBCHEM_COMPONENT_COUNT>  (1) 
1

>  <PUBCHEM_CACTVS_TAUTO_COUNT>  (1) 
1

>  <PUBCHEM_CONFORMER_ID>  (1) 
00000E0600000001

>  <PUBCHEM_MMFF94_ENERGY>  (1) 
8.8545

>  <PUBCHEM_FEATURE_SELFOVERLAP>  (1) 
25.371

>  <PUBCHEM_SHAPE_FINGERPRINT>  (1) 
11062470 55 11097854103325807199
12162725 195 18334858320449940973
12932764 1 17346313817048651639
14144814 61 17821727225982232097
14325111 11 18411140233850752437
14390081 3 17775280552068995825
170605 34 18114748260512306732
18186145 218 17894348873748573325
190213 19 18412260640541902663
20645477 70 14273723036920921139
20711983 171 18411987935920403501
21028194 46 17989208139875951159
3248919 1 18408878551269982727

>  <PUBCHEM_SHAPE_MULTIPOLES>  (1) 
194.94
6.81
1.2
0.94
3.21
0.46
-0.31
0.06
-0.09
0.17
0.17
-0.73
-0.03
-0.12

>  <PUBCHEM_SHAPE_SELFOVERLAP>  (1) 
352.872

>  <PUBCHEM_SHAPE_VOLUME>  (1) 
126.8

>  <PUBCHEM_COORDINATE_TYPE>  (1) 
2
5
10

$$$$
