35906
     RDKit          3D

 22 23  0  0  1  0  0  0  0  0999 V2000
   -0.3072    0.7329   -0.0693 O   0  0  0  0  0  0  0  0  0  0  0  0
    1.0298    0.1257    1.6839 O   0  0  0  0  0  0  0  0  0  0  0  0
   -3.9249   -0.0097    0.3234 N   0  0  0  0  0  0  0  0  0  0  0  0
    1.8805    0.4460   -0.4735 N   0  0  0  0  0  0  0  0  0  0  0  0
   -5.1188    0.5021   -0.3490 C   0  0  0  0  0  0  0  0  0  0  0  0
   -2.7177    0.6318   -0.2129 C   0  0  0  0  0  0  0  0  0  0  0  0
   -3.8499   -1.4722    0.1971 C   0  0  0  0  0  0  0  0  0  0  0  0
   -1.4629    0.1422    0.5158 C   0  0  0  0  0  0  0  0  0  0  0  0
   -2.6340   -2.0310    0.9391 C   0  0  0  0  0  0  0  0  0  0  0  0
   -1.3449   -1.3785    0.4568 C   0  0  0  0  0  0  0  0  0  0  0  0
   -6.3542   -0.1291    0.3019 C   0  0  0  0  0  0  0  0  0  0  0  0
   -5.1572    2.0249   -0.1832 C   0  0  0  0  0  0  0  0  0  0  0  0
   -5.0615    0.1352   -1.8365 C   0  0  0  0  0  0  0  0  0  0  0  0
    0.8995    0.4043    0.4981 C   0  0  0  0  0  0  0  0  0  0  0  0
    3.2609    0.1787   -0.3286 C   0  0  0  0  0  0  0  0  0  0  0  0
    4.1274    1.2142   -0.0075 C   0  0  0  0  0  0  0  0  0  0  0  0
    3.7291   -1.1151   -0.5105 C   0  0  0  0  0  0  0  0  0  0  0  0
    5.4898    0.9507    0.1344 C   0  0  0  0  0  0  0  0  0  0  0  0
    5.0916   -1.3786   -0.3685 C   0  0  0  0  0  0  0  0  0  0  0  0
    3.6415    2.6135    0.1913 C   0  0  0  0  0  0  0  0  0  0  0  0
    2.8112   -2.2426   -0.8564 C   0  0  0  0  0  0  0  0  0  0  0  0
    5.9718   -0.3455   -0.0459 C   0  0  0  0  0  0  0  0  0  0  0  0
  1  8  1  0
  1 14  1  0
  2 14  2  0
  3  5  1  0
  3  6  1  0
  3  7  1  0
  4 14  1  0
  4 15  1  0
  5 11  1  0
  5 12  1  0
  5 13  1  0
  6  8  1  0
  7  9  1  0
  8 10  1  0
  9 10  1  0
 15 16  2  0
 15 17  1  0
 16 18  1  0
 16 20  1  0
 17 19  2  0
 17 21  1  0
 18 22  2  0
 19 22  1  0
M  END
>  <PUBCHEM_COMPOUND_CID>  (1) 
35906

>  <PUBCHEM_CONFORMER_RMSD>  (1) 
0.8

>  <PUBCHEM_CONFORMER_DIVERSEORDER>  (1) 
2
52
23
5
31
15
43
53
10
17
50
49
13
21
7
40
41
37
33
44
30
20
24
32
12
34
38
42
18
51
27
26
8
36
45
16
14
6
46
47
35
11
29
3
48
28
4
39
9
19
25
1
22

>  <PUBCHEM_MMFF94_PARTIAL_CHARGES>  (1) 
21
1 -0.43
14 0.78
15 0.12
16 -0.14
17 -0.14
18 -0.15
19 -0.15
2 -0.57
20 0.14
21 0.14
22 -0.15
3 -0.81
4 -0.55
41 0.37
42 0.15
43 0.15
5 0.27
50 0.15
6 0.27
7 0.27
8 0.28

>  <PUBCHEM_EFFECTIVE_ROTOR_COUNT>  (1) 
6.2

>  <PUBCHEM_PHARMACOPHORE_FEATURES>  (1) 
6
1 2 acceptor
1 3 cation
1 4 donor
4 5 11 12 13 hydrophobe
6 15 16 17 18 19 22 rings
6 3 6 7 8 9 10 rings

>  <PUBCHEM_HEAVY_ATOM_COUNT>  (1) 
22

>  <PUBCHEM_ATOM_DEF_STEREO_COUNT>  (1) 
0

>  <PUBCHEM_ATOM_UDEF_STEREO_COUNT>  (1) 
1

>  <PUBCHEM_BOND_DEF_STEREO_COUNT>  (1) 
0

>  <PUBCHEM_BOND_UDEF_STEREO_COUNT>  (1) 
0

>  <PUBCHEM_ISOTOPIC_ATOM_COUNT>  (1) 
0

>  <PUBCHEM_COMPONENT_COUNT>  (1) 
1

>  <PUBCHEM_CACTVS_TAUTO_COUNT>  (1) 
2

>  <PUBCHEM_CONFORMER_ID>  (1) 
00008C4200000002

>  <PUBCHEM_MMFF94_ENERGY>  (1) 
79.3334

>  <PUBCHEM_FEATURE_SELFOVERLAP>  (1) 
30.446

>  <PUBCHEM_SHAPE_FINGERPRINT>  (1) 
10354089 29 11241972581747356590
10366900 7 12535347904519515782
10447042 23 17988924457755587814
10595046 47 18201999936714333565
10835480 77 18411415159092657112
11405975 8 18334015020874989968
11719270 70 18343299250622918214
11796584 16 18410013243418479426
12107183 9 17409382675764408266
12516196 113 17418091018341394448
12596602 18 15123500432680746286
12788726 201 17845090671378105825
12916748 109 18186524297932105145
13402501 40 18408604755715831518
13533116 47 17989488481445662130
13668630 136 16630529548401288333
14251764 18 17775289361648183107
14573314 32 18410293601397231109
15183329 4 18335700511907265467
15196674 1 18410858797539797074
15375358 24 18410577300935106742
15788980 27 18410576210108131726
17349148 13 14620796024343501701
17834072 33 18131348617884534541
17844677 252 18411426107048632097
18222031 100 15123795089180750256
18608769 82 18335987566975480451
19141452 34 18333734645204302023
200 152 17703791414048218515
20511986 3 17703493442149720406
20645477 56 18186801396326487677
20645477 70 18131356280470389190
20681677 155 18113054939485385139
21279426 13 18265334997814066079
21315759 40 14779265328119548097
21315763 129 18408885169788205548
220451 1 17418375796459185519
22061861 79 18343866601830556766
2215653 11 18412825772206991222
22224240 67 17846769720977782106
23198884 109 18410854357081312945
23402539 116 18413105044124188685
23536379 177 18342739594054350937
23559900 14 18411417353889257504
239999 70 18272940410375815750
26918003 58 18413390938811819634
29717793 49 17632303354575857772
300161 21 18409726279108989202
3004659 81 18408042892842836098
3545911 37 18334015003589534449
4015057 19 18270391815115386297
4073 2 18113906013146424994
4214541 1 18409451383811374265
5104073 3 18335987553087661506
5283173 99 18410009897248578433
59755656 215 18334296431685803278
59755656 520 15791730819263427627
633830 44 16805607035597263690
960060 61 17918273164453083716
9709674 26 18270973340633492846
9995097 60 18410014346623109306

>  <PUBCHEM_SHAPE_MULTIPOLES>  (1) 
431.05
15.99
2.09
1.02
3.49
0.06
0.11
2.06
2.42
-0.94
-0.02
0.72
-0.14
1.15

>  <PUBCHEM_SHAPE_SELFOVERLAP>  (1) 
890.764

>  <PUBCHEM_SHAPE_VOLUME>  (1) 
249.3

>  <PUBCHEM_COORDINATE_TYPE>  (1) 
2
5
10

$$$$
