35918
     RDKit          3D

 22 24  0  0  1  0  0  0  0  0999 V2000
   -4.3903   -0.0307    1.9945 F   0  0  0  0  0  0  0  0  0  0  0  0
    3.6834    2.2378    0.2821 O   0  0  0  0  0  0  0  0  0  0  0  0
    5.0765   -0.0898   -0.3141 O   0  0  0  0  0  0  0  0  0  0  0  0
   -1.1831   -1.4605   -0.0114 N   0  0  0  0  0  0  0  0  0  0  0  0
   -0.4754   -2.6612    0.4499 C   0  0  0  0  0  0  0  0  0  0  0  0
   -0.5337   -0.2502    0.5224 C   0  0  0  0  0  0  0  0  0  0  0  0
    0.9329   -2.6990   -0.1519 C   0  0  0  0  0  0  0  0  0  0  0  0
    0.9558   -0.2091    0.2685 C   0  0  0  0  0  0  0  0  0  0  0  0
    1.6651   -1.3900   -0.0102 C   0  0  0  0  0  0  0  0  0  0  0  0
   -2.5896   -1.5016    0.3876 C   0  0  0  0  0  0  0  0  0  0  0  0
    1.6495    1.0040    0.3752 C   0  0  0  0  0  0  0  0  0  0  0  0
    3.0500   -1.3351   -0.2145 C   0  0  0  0  0  0  0  0  0  0  0  0
   -3.3523   -0.3077   -0.1223 C   0  0  0  0  0  0  0  0  0  0  0  0
    3.0298    1.0469    0.1798 C   0  0  0  0  0  0  0  0  0  0  0  0
    3.7289   -0.1208   -0.1170 C   0  0  0  0  0  0  0  0  0  0  0  0
   -4.2203    0.3660    0.7256 C   0  0  0  0  0  0  0  0  0  0  0  0
   -3.1750    0.1021   -1.4364 C   0  0  0  0  0  0  0  0  0  0  0  0
   -4.9251    1.4717    0.2500 C   0  0  0  0  0  0  0  0  0  0  0  0
   -3.8798    1.2079   -1.9121 C   0  0  0  0  0  0  0  0  0  0  0  0
   -4.7548    1.8926   -1.0690 C   0  0  0  0  0  0  0  0  0  0  0  0
    4.1761    2.5979    1.5712 C   0  0  0  0  0  0  0  0  0  0  0  0
    5.5315    0.1287   -1.6481 C   0  0  0  0  0  0  0  0  0  0  0  0
  1 16  1  0
  2 14  1  0
  2 21  1  0
  3 15  1  0
  3 22  1  0
  4  5  1  0
  4  6  1  0
  4 10  1  0
  5  7  1  0
  6  8  1  0
  7  9  1  0
  8  9  2  0
  8 11  1  0
  9 12  1  0
 10 13  1  0
 11 14  2  0
 12 15  2  0
 13 16  2  0
 13 17  1  0
 14 15  1  0
 16 18  1  0
 17 19  2  0
 18 20  2  0
 19 20  1  0
M  END
>  <PUBCHEM_COMPOUND_CID>  (1) 
35918

>  <PUBCHEM_CONFORMER_RMSD>  (1) 
0.8

>  <PUBCHEM_CONFORMER_DIVERSEORDER>  (1) 
2
7
23
13
8
16
24
12
27
22
21
10
25
14
11
15
26
1
19
20
9
3
17
6
18
4
5

>  <PUBCHEM_MMFF94_PARTIAL_CHARGES>  (1) 
28
1 -0.19
10 0.41
11 -0.15
12 -0.15
13 -0.14
14 0.08
15 0.08
16 0.19
17 -0.15
18 -0.15
19 -0.15
2 -0.36
20 -0.15
21 0.28
22 0.28
3 -0.36
31 0.15
32 0.15
33 0.15
34 0.15
35 0.15
36 0.15
4 -0.81
5 0.27
6 0.41
7 0.14
8 -0.14
9 -0.14

>  <PUBCHEM_EFFECTIVE_ROTOR_COUNT>  (1) 
4.8

>  <PUBCHEM_PHARMACOPHORE_FEATURES>  (1) 
6
1 2 acceptor
1 3 acceptor
1 4 cation
6 13 16 17 18 19 20 rings
6 4 5 6 7 8 9 rings
6 8 9 11 12 14 15 rings

>  <PUBCHEM_HEAVY_ATOM_COUNT>  (1) 
22

>  <PUBCHEM_ATOM_DEF_STEREO_COUNT>  (1) 
0

>  <PUBCHEM_ATOM_UDEF_STEREO_COUNT>  (1) 
0

>  <PUBCHEM_BOND_DEF_STEREO_COUNT>  (1) 
0

>  <PUBCHEM_BOND_UDEF_STEREO_COUNT>  (1) 
0

>  <PUBCHEM_ISOTOPIC_ATOM_COUNT>  (1) 
0

>  <PUBCHEM_COMPONENT_COUNT>  (1) 
1

>  <PUBCHEM_CACTVS_TAUTO_COUNT>  (1) 
1

>  <PUBCHEM_CONFORMER_ID>  (1) 
00008C4E00000002

>  <PUBCHEM_MMFF94_ENERGY>  (1) 
79.6532

>  <PUBCHEM_FEATURE_SELFOVERLAP>  (1) 
30.472

>  <PUBCHEM_SHAPE_FINGERPRINT>  (1) 
10498660 4 18336535063082247237
11595378 159 15502366803552596740
11796584 16 13901915462111557844
12363563 72 10591761025869144631
12403259 415 18410295847432992376
12616971 3 16343712057344022602
12730499 353 18335139740103877131
12769317 202 18339634551499854466
12892183 10 12901539139917274094
13540713 4 18056488485605342114
13583140 156 16298925654679077661
14848178 96 18343012328635834784
15788980 27 15985387784851545014
1601671 61 18041000639856210812
18186145 218 18341613741312968770
193927 3 10951765326348458709
19784866 34 18342450461166600593
19862831 5 17703790318720814299
20645477 56 18333735715052111155
20645477 70 17775293811065620390
21033648 144 18272367624446028884
21033648 29 18259981587019713344
21279426 13 18339933627991607438
21709351 56 18343018917252440150
22122407 14 17986126123802341729
22393880 68 18343578577245341718
231179 274 18334294232156249307
23402539 116 16845579699067798274
23402655 69 18271804588271319959
23557571 272 17603878779990319211
23559900 14 18131353029723490778
25 1 18410853235409455695
27216 239 18040996246410602145
312425 83 16128113185972582145
335352 9 18412265026326283750
350125 39 18336834194807006011
474 4 18341609296217035299
495365 180 17774713260352031298
5104073 3 18335416885099439619
633830 44 18060702801082122782
7808743 9 17894922879164177302

>  <PUBCHEM_SHAPE_MULTIPOLES>  (1) 
428.76
12.01
2.61
1.38
0
0.38
0.2
-7.33
2.01
1.04
-0.5
-0.59
-0.58
1.72

>  <PUBCHEM_SHAPE_SELFOVERLAP>  (1) 
921.089

>  <PUBCHEM_SHAPE_VOLUME>  (1) 
239.2

>  <PUBCHEM_COORDINATE_TYPE>  (1) 
2
5
10

$$$$
