35911
     RDKit          3D

 22 23  0  0  1  0  0  0  0  0999 V2000
    0.0013   -0.8080    0.1831 O   0  0  0  0  0  0  0  0  0  0  0  0
    1.2874   -0.2379   -1.6200 O   0  0  0  0  0  0  0  0  0  0  0  0
   -3.6385   -0.1521   -0.1549 N   0  0  0  0  0  0  0  0  0  0  0  0
    2.1908   -0.4633    0.5279 N   0  0  0  0  0  0  0  0  0  0  0  0
   -1.1787   -0.2619   -0.3967 C   0  0  0  0  0  0  0  0  0  0  0  0
   -2.4071   -0.7497    0.3768 C   0  0  0  0  0  0  0  0  0  0  0  0
   -1.0908    1.2620   -0.3945 C   0  0  0  0  0  0  0  0  0  0  0  0
   -3.5911    1.3153   -0.0825 C   0  0  0  0  0  0  0  0  0  0  0  0
   -2.4033    1.8710   -0.8707 C   0  0  0  0  0  0  0  0  0  0  0  0
   -4.8068   -0.6629    0.5618 C   0  0  0  0  0  0  0  0  0  0  0  0
   -6.0917   -0.1329   -0.0723 C   0  0  0  0  0  0  0  0  0  0  0  0
   -7.3272   -0.6725    0.6491 C   0  0  0  0  0  0  0  0  0  0  0  0
    1.1884   -0.4761   -0.4224 C   0  0  0  0  0  0  0  0  0  0  0  0
   -8.6097   -0.1216    0.0463 C   0  0  0  0  0  0  0  0  0  0  0  0
    3.5620   -0.1740    0.3428 C   0  0  0  0  0  0  0  0  0  0  0  0
    4.0070    1.1344    0.4679 C   0  0  0  0  0  0  0  0  0  0  0  0
    4.4424   -1.2030    0.0395 C   0  0  0  0  0  0  0  0  0  0  0  0
    5.3603    1.4198    0.2858 C   0  0  0  0  0  0  0  0  0  0  0  0
    5.7957   -0.9177   -0.1424 C   0  0  0  0  0  0  0  0  0  0  0  0
    3.0738    2.2553    0.7936 C   0  0  0  0  0  0  0  0  0  0  0  0
    3.9813   -2.6178   -0.0990 C   0  0  0  0  0  0  0  0  0  0  0  0
    6.2546    0.3937   -0.0193 C   0  0  0  0  0  0  0  0  0  0  0  0
  1  5  1  0
  1 13  1  0
  2 13  2  0
  3  6  1  0
  3  8  1  0
  3 10  1  0
  4 13  1  0
  4 15  1  0
  5  6  1  0
  5  7  1  0
  7  9  1  0
  8  9  1  0
 10 11  1  0
 11 12  1  0
 12 14  1  0
 15 16  2  0
 15 17  1  0
 16 18  1  0
 16 20  1  0
 17 19  2  0
 17 21  1  0
 18 22  2  0
 19 22  1  0
M  END
>  <PUBCHEM_COMPOUND_CID>  (1) 
35911

>  <PUBCHEM_CONFORMER_RMSD>  (1) 
0.8

>  <PUBCHEM_CONFORMER_DIVERSEORDER>  (1) 
2
56
121
189
39
160
125
24
97
162
214
27
49
17
145
132
87
215
191
41
228
181
220
138
68
55
196
9
226
206
201
61
31
124
217
69
150
28
134
66
127
216
40
19
67
50
183
70
103
8
83
53
12
205
211
200
155
188
14
184
90
107
60
33
137
130
208
47
163
78
32
118
20
114
122
148
92
22
167
15
128
168
35
105
57
170
135
153
65
18
194
149
104
36
100
75
141
109
23
62
182
219
88
221
187
52
174
207
227
136
198
63
171
85
144
222
176
115
48
146
152
147
86
46
230
223
95
203
197
77
139
204
179
154
156
158
99
123
16
5
190
172
94
212
72
192
177
143
111
229
76
106
210
180
117
151
74
119
133
21
30
166
202
4
101
159
120
213
42
25
51
165
126
98
11
224
37
102
93
108
195
161
110
209
96
84
54
43
193
175
169
82
157
91
186
131
199
29
140
112
13
73
173
142
178
26
81
34
185
116
3
1
71
218
89
10
113
64
225
6
44
79
129
164
38
45
7
59
80
58

>  <PUBCHEM_MMFF94_PARTIAL_CHARGES>  (1) 
21
1 -0.43
10 0.27
13 0.78
15 0.12
16 -0.14
17 -0.14
18 -0.15
19 -0.15
2 -0.57
20 0.14
21 0.14
22 -0.15
3 -0.81
4 -0.55
41 0.37
42 0.15
43 0.15
5 0.28
50 0.15
6 0.27
8 0.27

>  <PUBCHEM_EFFECTIVE_ROTOR_COUNT>  (1) 
8.2

>  <PUBCHEM_PHARMACOPHORE_FEATURES>  (1) 
6
1 14 hydrophobe
1 2 acceptor
1 3 cation
1 4 donor
6 15 16 17 18 19 22 rings
6 3 5 6 7 8 9 rings

>  <PUBCHEM_HEAVY_ATOM_COUNT>  (1) 
22

>  <PUBCHEM_ATOM_DEF_STEREO_COUNT>  (1) 
0

>  <PUBCHEM_ATOM_UDEF_STEREO_COUNT>  (1) 
1

>  <PUBCHEM_BOND_DEF_STEREO_COUNT>  (1) 
0

>  <PUBCHEM_BOND_UDEF_STEREO_COUNT>  (1) 
0

>  <PUBCHEM_ISOTOPIC_ATOM_COUNT>  (1) 
0

>  <PUBCHEM_COMPONENT_COUNT>  (1) 
1

>  <PUBCHEM_CACTVS_TAUTO_COUNT>  (1) 
2

>  <PUBCHEM_CONFORMER_ID>  (1) 
00008C4700000002

>  <PUBCHEM_MMFF94_ENERGY>  (1) 
62.0917

>  <PUBCHEM_FEATURE_SELFOVERLAP>  (1) 
30.446

>  <PUBCHEM_SHAPE_FINGERPRINT>  (1) 
10 15 18261948648594166480
10299344 5 17846779620449995047
10354089 29 18273495685058804144
10411042 1 18053667976577910998
11045977 3 18335703892199469523
12107183 9 17620194235302998402
12166972 35 18409732867389114657
12236239 1 16950562160061766283
12516196 113 17967813851486875133
12730499 353 18410293610456859050
12916748 109 18260546710574304328
13073987 5 18341891827903303032
13533116 47 18335700507533722722
1420 363 18260831496902345291
14251764 18 18060142042253158097
14251764 46 17312821588965080026
14341114 176 18412546509360029292
14933364 13 18411420609489986641
15419008 47 17822282492820261469
17844677 252 18340773650057748376
18006028 8 18408603665559120213
18222031 100 16443068279116680070
18335252 98 18335423460630974443
20157964 124 18343022194338990266
20645477 70 18201721705123824766
21033648 29 18336529573803222296
21150785 3 15719115764097941671
21267235 1 18343305826059008166
21315759 40 16774079570500127615
221357 26 18411698773126325776
22224240 67 17847058900561436495
23559900 14 18187645850851911961
3004659 81 16588029034937298919
3411729 13 16154567548191584612
34797466 226 18201444679495349460
3545911 37 18411135844763453960
4073 2 18188213211800608891
4325135 7 18060138752065466661
5104073 3 18338228250722291688
59682541 35 18188209913228490417
59755656 215 17967533446010288523
59755656 520 15339113538091336413
8272917 22 18201722826068110526

>  <PUBCHEM_SHAPE_MULTIPOLES>  (1) 
431.05
20.01
1.89
0.86
28.04
0.16
0.12
-2.66
-2.72
-2.31
-0.05
0.02
0.1
1.03

>  <PUBCHEM_SHAPE_SELFOVERLAP>  (1) 
878.384

>  <PUBCHEM_SHAPE_VOLUME>  (1) 
250.6

>  <PUBCHEM_COORDINATE_TYPE>  (1) 
2
5
10

$$$$
