35914
     RDKit          3D

 21 23  0  0  1  0  0  0  0  0999 V2000
    3.5007   -2.2271   -0.0532 O   0  0  0  0  0  0  0  0  0  0  0  0
    4.8476    0.1418    0.4838 O   0  0  0  0  0  0  0  0  0  0  0  0
   -1.3917    1.4439   -0.2439 N   0  0  0  0  0  0  0  0  0  0  0  0
   -0.6649    2.6216   -0.7338 C   0  0  0  0  0  0  0  0  0  0  0  0
   -0.7078    0.2100   -0.6700 C   0  0  0  0  0  0  0  0  0  0  0  0
    0.7075    2.7049   -0.0581 C   0  0  0  0  0  0  0  0  0  0  0  0
    0.7653    0.1952   -0.3321 C   0  0  0  0  0  0  0  0  0  0  0  0
    1.4526    1.3957   -0.0832 C   0  0  0  0  0  0  0  0  0  0  0  0
   -2.7738    1.4510   -0.7219 C   0  0  0  0  0  0  0  0  0  0  0  0
    1.4694   -1.0165   -0.3299 C   0  0  0  0  0  0  0  0  0  0  0  0
    2.8241    1.3635    0.2004 C   0  0  0  0  0  0  0  0  0  0  0  0
   -3.5583    0.2825   -0.1869 C   0  0  0  0  0  0  0  0  0  0  0  0
    2.8369   -1.0374   -0.0562 C   0  0  0  0  0  0  0  0  0  0  0  0
    3.5130    0.1509    0.2109 C   0  0  0  0  0  0  0  0  0  0  0  0
   -3.5864   -0.9064   -0.9023 C   0  0  0  0  0  0  0  0  0  0  0  0
   -4.2422    0.4111    1.0138 C   0  0  0  0  0  0  0  0  0  0  0  0
   -4.3132   -1.9889   -0.4068 C   0  0  0  0  0  0  0  0  0  0  0  0
   -4.9689   -0.6716    1.5093 C   0  0  0  0  0  0  0  0  0  0  0  0
   -5.0045   -1.8715    0.7990 C   0  0  0  0  0  0  0  0  0  0  0  0
    4.0661   -2.6567   -1.2901 C   0  0  0  0  0  0  0  0  0  0  0  0
    5.2285    0.0038    1.8513 C   0  0  0  0  0  0  0  0  0  0  0  0
  1 13  1  0
  1 20  1  0
  2 14  1  0
  2 21  1  0
  3  4  1  0
  3  5  1  0
  3  9  1  0
  4  6  1  0
  5  7  1  0
  6  8  1  0
  7  8  2  0
  7 10  1  0
  8 11  1  0
  9 12  1  0
 10 13  2  0
 11 14  2  0
 12 15  2  0
 12 16  1  0
 13 14  1  0
 15 17  1  0
 16 18  2  0
 17 19  2  0
 18 19  1  0
M  END
>  <PUBCHEM_COMPOUND_CID>  (1) 
35914

>  <PUBCHEM_CONFORMER_RMSD>  (1) 
0.8

>  <PUBCHEM_CONFORMER_DIVERSEORDER>  (1) 
2
10
7
4
6
3
8
5
9
1
11

>  <PUBCHEM_MMFF94_PARTIAL_CHARGES>  (1) 
28
1 -0.36
10 -0.15
11 -0.15
12 -0.14
13 0.08
14 0.08
15 -0.15
16 -0.15
17 -0.15
18 -0.15
19 -0.15
2 -0.36
20 0.28
21 0.28
3 -0.81
30 0.15
31 0.15
32 0.15
33 0.15
34 0.15
35 0.15
36 0.15
4 0.27
5 0.41
6 0.14
7 -0.14
8 -0.14
9 0.41

>  <PUBCHEM_EFFECTIVE_ROTOR_COUNT>  (1) 
4.8

>  <PUBCHEM_PHARMACOPHORE_FEATURES>  (1) 
6
1 1 acceptor
1 2 acceptor
1 3 cation
6 12 15 16 17 18 19 rings
6 3 4 5 6 7 8 rings
6 7 8 10 11 13 14 rings

>  <PUBCHEM_HEAVY_ATOM_COUNT>  (1) 
21

>  <PUBCHEM_ATOM_DEF_STEREO_COUNT>  (1) 
0

>  <PUBCHEM_ATOM_UDEF_STEREO_COUNT>  (1) 
0

>  <PUBCHEM_BOND_DEF_STEREO_COUNT>  (1) 
0

>  <PUBCHEM_BOND_UDEF_STEREO_COUNT>  (1) 
0

>  <PUBCHEM_ISOTOPIC_ATOM_COUNT>  (1) 
0

>  <PUBCHEM_COMPONENT_COUNT>  (1) 
1

>  <PUBCHEM_CACTVS_TAUTO_COUNT>  (1) 
1

>  <PUBCHEM_CONFORMER_ID>  (1) 
00008C4A00000002

>  <PUBCHEM_MMFF94_ENERGY>  (1) 
79.7509

>  <PUBCHEM_FEATURE_SELFOVERLAP>  (1) 
30.472

>  <PUBCHEM_SHAPE_FINGERPRINT>  (1) 
108634 29 18040724696607954202
11370993 144 17845377656850519531
11552529 35 17345743230918256727
11796584 16 16805868615895154162
12107183 9 18126865806663950241
12363563 72 18040722484752134433
12553582 1 18411142450111912861
12596602 18 16845573161895822739
12633257 1 18337676429108378355
12670543 26 8718558254658473728
12892183 10 17847061068965994088
13103583 49 18059030397121140521
13140716 1 18124863806353411880
13533116 47 18197503025163393827
13540713 4 18126554623440637612
13544653 18 18335138687419892157
13583140 156 17346586483258792329
13911882 115 18343301453502920810
14252887 29 18342738499080186066
14341114 176 18272661116767360739
14787075 74 18187929520989654792
14790565 3 17688596378133348660
14848178 96 9439402415144163575
14849402 71 17843959484799954624
14863182 85 18412832404343514782
15352361 1 18408040727947203783
16126227 98 17768801315496036672
16994733 274 13469535912763241538
17349148 13 17095244692037831378
1813 80 17749114391436295085
18186145 218 8502368966278294485
18785283 64 18265892652157934904
19141452 34 18411984650861005685
193927 3 17895204315617946707
19862831 5 12035445038898776381
200 152 13912320166219910940
20028762 73 18198901598868440143
20281475 54 18410018727732714893
20403669 9 18186803608292810643
21673915 165 18413106182037418287
221490 88 18410294670923176700
22182313 1 18198047094145059724
22950370 63 18339375088220129559
23402539 116 17895185597654871337
235170 7 15791734100650518295
23559900 14 18194113024244709862
26918003 58 18334571343920888929
29717793 49 13839980010610364027
3737641 26 18271815562308686030
392239 28 17560224938256956544
5104073 3 18198900323494177314
9709674 26 18335143111046601531

>  <PUBCHEM_SHAPE_MULTIPOLES>  (1) 
415.45
11.75
2.76
1.2
2.1
0.11
-0.37
-7.05
-4.37
-0.67
0.8
-0.11
-0.26
1.14

>  <PUBCHEM_SHAPE_SELFOVERLAP>  (1) 
889.195

>  <PUBCHEM_SHAPE_VOLUME>  (1) 
231.7

>  <PUBCHEM_COORDINATE_TYPE>  (1) 
2
5
10

$$$$
