35928
     RDKit          3D

 29 31  0  0  0  0  0  0  0  0999 V2000
    5.3699   -2.7567   -1.3727 Cl  0  0  0  0  0  0  0  0  0  0  0  0
    1.4884    0.8074    2.0960 S   0  0  0  0  0  0  0  0  0  0  0  0
    0.2055   -1.6087   -1.2430 O   0  0  0  0  0  0  0  0  0  0  0  0
   -4.4524    2.3024    0.1148 N   0  0  0  0  0  0  0  0  0  0  0  0
   -3.0529   -3.4619    0.7280 N   0  0  0  0  0  0  0  0  0  0  0  0
   -1.2440    0.9207   -1.3552 C   0  0  0  0  0  0  0  0  0  0  0  0
    0.1548    0.7567   -0.8023 C   0  0  0  0  0  0  0  0  0  0  0  0
   -2.1663    1.5253   -0.3092 C   0  0  0  0  0  0  0  0  0  0  0  0
    0.7767   -0.4466   -0.7468 C   0  0  0  0  0  0  0  0  0  0  0  0
    0.7739    2.0288   -0.3306 C   0  0  0  0  0  0  0  0  0  0  0  0
   -3.5690    1.7146   -0.8853 C   0  0  0  0  0  0  0  0  0  0  0  0
    2.1268   -0.6976   -0.1859 C   0  0  0  0  0  0  0  0  0  0  0  0
    1.3469    2.1766    0.9492 C   0  0  0  0  0  0  0  0  0  0  0  0
   -0.5353   -2.2653   -0.2362 C   0  0  0  0  0  0  0  0  0  0  0  0
   -1.1614   -3.5219   -0.8257 C   0  0  0  0  0  0  0  0  0  0  0  0
    2.5330   -0.2369    1.0823 C   0  0  0  0  0  0  0  0  0  0  0  0
   -1.9659   -4.2891    0.2185 C   0  0  0  0  0  0  0  0  0  0  0  0
    0.7451    3.1503   -1.1807 C   0  0  0  0  0  0  0  0  0  0  0  0
    3.0251   -1.4841   -0.9307 C   0  0  0  0  0  0  0  0  0  0  0  0
    1.8561    3.4199    1.3553 C   0  0  0  0  0  0  0  0  0  0  0  0
    3.8025   -0.5693    1.5794 C   0  0  0  0  0  0  0  0  0  0  0  0
    1.2612    4.3811   -0.7716 C   0  0  0  0  0  0  0  0  0  0  0  0
   -4.5670    1.4246    1.2808 C   0  0  0  0  0  0  0  0  0  0  0  0
   -5.7752    2.5637   -0.4556 C   0  0  0  0  0  0  0  0  0  0  0  0
    1.8122    4.5167    0.4972 C   0  0  0  0  0  0  0  0  0  0  0  0
    4.2887   -1.8039   -0.4316 C   0  0  0  0  0  0  0  0  0  0  0  0
    4.6756   -1.3496    0.8239 C   0  0  0  0  0  0  0  0  0  0  0  0
   -3.9023   -2.9936   -0.3686 C   0  0  0  0  0  0  0  0  0  0  0  0
   -3.8505   -4.2036    1.7064 C   0  0  0  0  0  0  0  0  0  0  0  0
  1 26  1  0
  2 13  1  0
  2 16  1  0
  3  9  1  0
  3 14  1  0
  4 11  1  0
  4 23  1  0
  4 24  1  0
  5 17  1  0
  5 28  1  0
  5 29  1  0
  6  7  1  0
  6  8  1  0
  7  9  2  0
  7 10  1  0
  8 11  1  0
  9 12  1  0
 10 13  2  0
 10 18  1  0
 12 16  2  0
 12 19  1  0
 13 20  1  0
 14 15  1  0
 15 17  1  0
 16 21  1  0
 18 22  2  0
 19 26  2  0
 20 25  2  0
 21 27  2  0
 22 25  1  0
 26 27  1  0
M  END
>  <PUBCHEM_COMPOUND_CID>  (1) 
35928

>  <PUBCHEM_CONFORMER_RMSD>  (1) 
1

>  <PUBCHEM_CONFORMER_DIVERSEORDER>  (1) 
1
24
60
50
34
7
33
22
25
42
21
26
59
56
62
52
43
17
61
49
41
53
28
16
31
38
5
11
48
57
14
46
12
51
36
13
20
55
18
37
9
4
29
44
58
47
35
3
40
10
8
39
2
45
32
27
15
54
19
30
23
6

>  <PUBCHEM_MMFF94_PARTIAL_CHARGES>  (1) 
34
1 -0.18
10 0.03
11 0.27
12 0.03
13 0.1
14 0.28
16 0.1
17 0.27
18 -0.15
19 -0.15
2 -0.2
20 -0.15
21 -0.15
22 -0.15
23 0.27
24 0.27
25 -0.15
26 0.18
27 -0.15
28 0.27
29 0.27
3 -0.36
4 -0.81
42 0.15
43 0.15
44 0.15
45 0.15
46 0.15
5 -0.81
53 0.15
54 0.15
6 0.14
7 -0.17
9 0.05

>  <PUBCHEM_EFFECTIVE_ROTOR_COUNT>  (1) 
9.2

>  <PUBCHEM_PHARMACOPHORE_FEATURES>  (1) 
6
1 3 acceptor
1 4 cation
1 5 cation
6 10 13 18 20 22 25 rings
6 12 16 19 21 26 27 rings
7 2 7 9 10 12 13 16 rings

>  <PUBCHEM_HEAVY_ATOM_COUNT>  (1) 
29

>  <PUBCHEM_ATOM_DEF_STEREO_COUNT>  (1) 
0

>  <PUBCHEM_ATOM_UDEF_STEREO_COUNT>  (1) 
0

>  <PUBCHEM_BOND_DEF_STEREO_COUNT>  (1) 
0

>  <PUBCHEM_BOND_UDEF_STEREO_COUNT>  (1) 
0

>  <PUBCHEM_ISOTOPIC_ATOM_COUNT>  (1) 
0

>  <PUBCHEM_COMPONENT_COUNT>  (1) 
1

>  <PUBCHEM_CACTVS_TAUTO_COUNT>  (1) 
1

>  <PUBCHEM_CONFORMER_ID>  (1) 
00008C5800000001

>  <PUBCHEM_MMFF94_ENERGY>  (1) 
91.8993

>  <PUBCHEM_FEATURE_SELFOVERLAP>  (1) 
30.462

>  <PUBCHEM_SHAPE_FINGERPRINT>  (1) 
10006869 2 18053948635030268039
10190108 129 17757574205630399937
10316853 100 18409449147029945559
10439779 11 18337947892843629747
1100329 8 18411135809976597341
11513181 2 18056476381638825831
12058002 1 17415029913550704084
12422481 6 17690529276988374376
12788726 201 16966604348408330468
13140716 1 18412255156148747429
13692114 37 18341041974773306111
13965767 371 17693699130404259907
14955137 171 18341615854326570029
15420108 30 17336188642207997518
16112460 7 18341062882225164649
20028762 73 18272359855346180191
20600515 1 18128552487059391948
20691752 17 18053632847116542484
21421861 104 17975411631158328346
23558518 356 18196914760060501629
283562 15 17764031268338159332
350125 39 17907015432695993580
469060 322 17907591228981025992
57527358 35 15768049529197776189
9981440 41 16335763786666225537

>  <PUBCHEM_SHAPE_MULTIPOLES>  (1) 
586.69
9.43
6.93
1.63
4.82
0.55
0.51
3.91
0.57
3.72
0.35
-0.54
0.07
2.31

>  <PUBCHEM_SHAPE_SELFOVERLAP>  (1) 
1205.006

>  <PUBCHEM_SHAPE_VOLUME>  (1) 
340.9

>  <PUBCHEM_COORDINATE_TYPE>  (1) 
2
5
10

$$$$
