35924
     RDKit          3D

 26 28  0  0  0  0  0  0  0  0999 V2000
    1.2341    1.1733    1.9552 S   0  0  0  0  0  0  0  0  0  0  0  0
   -1.6089    0.3497   -1.1593 O   0  0  0  0  0  0  0  0  0  0  0  0
   -0.3518   -4.1503   -0.0162 N   0  0  0  0  0  0  0  0  0  0  0  0
   -4.7636   -0.3098    0.5911 N   0  0  0  0  0  0  0  0  0  0  0  0
    0.5282   -0.5397   -0.6455 C   0  0  0  0  0  0  0  0  0  0  0  0
    0.0387   -1.9396   -0.9450 C   0  0  0  0  0  0  0  0  0  0  0  0
   -0.2917    0.5303   -0.7553 C   0  0  0  0  0  0  0  0  0  0  0  0
    0.1266   -2.8083    0.2962 C   0  0  0  0  0  0  0  0  0  0  0  0
    1.9550   -0.4577   -0.2218 C   0  0  0  0  0  0  0  0  0  0  0  0
    0.0839    1.9399   -0.4855 C   0  0  0  0  0  0  0  0  0  0  0  0
    2.3713    0.2326    0.9363 C   0  0  0  0  0  0  0  0  0  0  0  0
    0.7160    2.3478    0.7056 C   0  0  0  0  0  0  0  0  0  0  0  0
   -2.4456    0.1415   -0.0413 C   0  0  0  0  0  0  0  0  0  0  0  0
    2.9295   -1.1376   -0.9758 C   0  0  0  0  0  0  0  0  0  0  0  0
   -3.8748   -0.0584   -0.5114 C   0  0  0  0  0  0  0  0  0  0  0  0
   -0.2402    2.9194   -1.4416 C   0  0  0  0  0  0  0  0  0  0  0  0
    3.7222    0.2206    1.3187 C   0  0  0  0  0  0  0  0  0  0  0  0
    0.9915    3.7054    0.9272 C   0  0  0  0  0  0  0  0  0  0  0  0
   -0.3047   -5.0033    1.1725 C   0  0  0  0  0  0  0  0  0  0  0  0
    0.4394   -4.7407   -1.0968 C   0  0  0  0  0  0  0  0  0  0  0  0
    4.2719   -1.1371   -0.5923 C   0  0  0  0  0  0  0  0  0  0  0  0
    4.6671   -0.4621    0.5563 C   0  0  0  0  0  0  0  0  0  0  0  0
    0.0449    4.2669   -1.2168 C   0  0  0  0  0  0  0  0  0  0  0  0
    0.6558    4.6599   -0.0311 C   0  0  0  0  0  0  0  0  0  0  0  0
   -6.1389   -0.5480    0.1265 C   0  0  0  0  0  0  0  0  0  0  0  0
   -4.7557    0.8056    1.5503 C   0  0  0  0  0  0  0  0  0  0  0  0
  1 11  1  0
  1 12  1  0
  2  7  1  0
  2 13  1  0
  3  8  1  0
  3 19  1  0
  3 20  1  0
  4 15  1  0
  4 25  1  0
  4 26  1  0
  5  6  1  0
  5  7  2  0
  5  9  1  0
  6  8  1  0
  7 10  1  0
  9 11  2  0
  9 14  1  0
 10 12  2  0
 10 16  1  0
 11 17  1  0
 12 18  1  0
 13 15  1  0
 14 21  2  0
 16 23  2  0
 17 22  2  0
 18 24  2  0
 21 22  1  0
 23 24  1  0
M  END
>  <PUBCHEM_COMPOUND_CID>  (1) 
35924

>  <PUBCHEM_CONFORMER_RMSD>  (1) 
0.8

>  <PUBCHEM_CONFORMER_DIVERSEORDER>  (1) 
2
36
58
50
60
34
9
61
33
56
57
40
41
43
38
5
62
64
53
17
29
11
26
21
46
24
27
55
23
51
54
16
20
42
47
12
39
63
35
37
44
6
14
25
15
18
28
3
30
13
7
8
45
59
10
1
49
48
19
22
52
32
4
31

>  <PUBCHEM_MMFF94_PARTIAL_CHARGES>  (1) 
34
1 -0.2
10 0.03
11 0.1
12 0.1
13 0.28
14 -0.15
15 0.27
16 -0.15
17 -0.15
18 -0.15
19 0.27
2 -0.36
20 0.27
21 -0.15
22 -0.15
23 -0.15
24 -0.15
25 0.27
26 0.27
3 -0.81
33 0.15
36 0.15
37 0.15
38 0.15
4 -0.81
45 0.15
46 0.15
47 0.15
48 0.15
5 -0.17
6 0.14
7 0.05
8 0.27
9 0.03

>  <PUBCHEM_EFFECTIVE_ROTOR_COUNT>  (1) 
7.2

>  <PUBCHEM_PHARMACOPHORE_FEATURES>  (1) 
6
1 2 acceptor
1 3 cation
1 4 cation
6 10 12 16 18 23 24 rings
6 9 11 14 17 21 22 rings
7 1 5 7 9 10 11 12 rings

>  <PUBCHEM_HEAVY_ATOM_COUNT>  (1) 
26

>  <PUBCHEM_ATOM_DEF_STEREO_COUNT>  (1) 
0

>  <PUBCHEM_ATOM_UDEF_STEREO_COUNT>  (1) 
0

>  <PUBCHEM_BOND_DEF_STEREO_COUNT>  (1) 
0

>  <PUBCHEM_BOND_UDEF_STEREO_COUNT>  (1) 
0

>  <PUBCHEM_ISOTOPIC_ATOM_COUNT>  (1) 
0

>  <PUBCHEM_COMPONENT_COUNT>  (1) 
1

>  <PUBCHEM_CACTVS_TAUTO_COUNT>  (1) 
1

>  <PUBCHEM_CONFORMER_ID>  (1) 
00008C5400000002

>  <PUBCHEM_MMFF94_ENERGY>  (1) 
91.8251

>  <PUBCHEM_FEATURE_SELFOVERLAP>  (1) 
30.462

>  <PUBCHEM_SHAPE_FINGERPRINT>  (1) 
10190108 129 17907893641511244187
10764073 3 16196236551291627713
1100329 8 18338797943415703334
12035758 1 18339633538140858802
12788726 201 18261395482264651528
13140716 1 18266459991841602511
14022347 108 18410862053552054494
14223421 5 17906733600798530446
14713325 29 17976818680146658228
14790565 3 18411426106938135260
14955137 171 18410584993474546743
1813 80 18410015420397199020
20028762 73 18200027473459055911
20600515 1 18343312469624517380
20691752 17 18269249366525095550
20739085 24 18410582789940728033
21033648 29 17774422903367479385
21330990 113 18268714900536656304
21421861 104 17760095020784259795
23558518 356 17907566274883321967
283562 15 18194129521061216934
3178227 256 18337121145993464067
3493558 16 13879693722371358497
3737641 26 18124888849954553095
469060 322 18194135031415067848
57527358 35 15553299588075927530
81228 2 17979322551301198374
9981440 41 17259849154912345640

>  <PUBCHEM_SHAPE_MULTIPOLES>  (1) 
523.09
7.56
6.51
1.49
9.88
2.38
0.3
1.95
2.24
-1.03
-0.69
-0.16
-0.34
0.64

>  <PUBCHEM_SHAPE_SELFOVERLAP>  (1) 
1089.308

>  <PUBCHEM_SHAPE_VOLUME>  (1) 
299.9

>  <PUBCHEM_COORDINATE_TYPE>  (1) 
2
5
10

$$$$
