35922
     RDKit          3D

 22 24  0  0  1  0  0  0  0  0999 V2000
   -5.6658   -2.4426    0.8720 F   0  0  0  0  0  0  0  0  0  0  0  0
    3.5961   -2.3596   -0.1923 O   0  0  0  0  0  0  0  0  0  0  0  0
    5.0989   -0.1484    0.5602 O   0  0  0  0  0  0  0  0  0  0  0  0
   -1.0038    1.6762   -0.2016 N   0  0  0  0  0  0  0  0  0  0  0  0
   -0.1783    2.8296   -0.5806 C   0  0  0  0  0  0  0  0  0  0  0  0
   -0.4014    0.4305   -0.7086 C   0  0  0  0  0  0  0  0  0  0  0  0
    1.1769    2.7560    0.1301 C   0  0  0  0  0  0  0  0  0  0  0  0
    1.0565    0.2778   -0.3400 C   0  0  0  0  0  0  0  0  0  0  0  0
    1.8234    1.3998    0.0183 C   0  0  0  0  0  0  0  0  0  0  0  0
   -2.3676    1.8252   -0.7084 C   0  0  0  0  0  0  0  0  0  0  0  0
    1.6687   -0.9805   -0.4178 C   0  0  0  0  0  0  0  0  0  0  0  0
    3.1802    1.2416    0.3290 C   0  0  0  0  0  0  0  0  0  0  0  0
   -3.2512    0.6819   -0.2850 C   0  0  0  0  0  0  0  0  0  0  0  0
    3.0226   -1.1263   -0.1161 C   0  0  0  0  0  0  0  0  0  0  0  0
    3.7769   -0.0169    0.2591 C   0  0  0  0  0  0  0  0  0  0  0  0
   -3.3468   -0.4425   -1.0926 C   0  0  0  0  0  0  0  0  0  0  0  0
   -3.9572    0.7693    0.9064 C   0  0  0  0  0  0  0  0  0  0  0  0
   -4.1654   -1.5017   -0.7003 C   0  0  0  0  0  0  0  0  0  0  0  0
   -4.7757   -0.2899    1.2986 C   0  0  0  0  0  0  0  0  0  0  0  0
   -4.8798   -1.4253    0.4952 C   0  0  0  0  0  0  0  0  0  0  0  0
    4.1629   -2.7344   -1.4463 C   0  0  0  0  0  0  0  0  0  0  0  0
    5.4298   -0.4200    1.9207 C   0  0  0  0  0  0  0  0  0  0  0  0
  1 20  1  0
  2 14  1  0
  2 21  1  0
  3 15  1  0
  3 22  1  0
  4  5  1  0
  4  6  1  0
  4 10  1  0
  5  7  1  0
  6  8  1  0
  7  9  1  0
  8  9  2  0
  8 11  1  0
  9 12  1  0
 10 13  1  0
 11 14  2  0
 12 15  2  0
 13 16  2  0
 13 17  1  0
 14 15  1  0
 16 18  1  0
 17 19  2  0
 18 20  2  0
 19 20  1  0
M  END
>  <PUBCHEM_COMPOUND_CID>  (1) 
35922

>  <PUBCHEM_CONFORMER_RMSD>  (1) 
0.8

>  <PUBCHEM_CONFORMER_DIVERSEORDER>  (1) 
2
10
7
4
6
3
8
9
5
1
11

>  <PUBCHEM_MMFF94_PARTIAL_CHARGES>  (1) 
28
1 -0.19
10 0.41
11 -0.15
12 -0.15
13 -0.14
14 0.08
15 0.08
16 -0.15
17 -0.15
18 -0.15
19 -0.15
2 -0.36
20 0.19
21 0.28
22 0.28
3 -0.36
31 0.15
32 0.15
33 0.15
34 0.15
35 0.15
36 0.15
4 -0.81
5 0.27
6 0.41
7 0.14
8 -0.14
9 -0.14

>  <PUBCHEM_EFFECTIVE_ROTOR_COUNT>  (1) 
4.8

>  <PUBCHEM_PHARMACOPHORE_FEATURES>  (1) 
6
1 2 acceptor
1 3 acceptor
1 4 cation
6 13 16 17 18 19 20 rings
6 4 5 6 7 8 9 rings
6 8 9 11 12 14 15 rings

>  <PUBCHEM_HEAVY_ATOM_COUNT>  (1) 
22

>  <PUBCHEM_ATOM_DEF_STEREO_COUNT>  (1) 
0

>  <PUBCHEM_ATOM_UDEF_STEREO_COUNT>  (1) 
0

>  <PUBCHEM_BOND_DEF_STEREO_COUNT>  (1) 
0

>  <PUBCHEM_BOND_UDEF_STEREO_COUNT>  (1) 
0

>  <PUBCHEM_ISOTOPIC_ATOM_COUNT>  (1) 
0

>  <PUBCHEM_COMPONENT_COUNT>  (1) 
1

>  <PUBCHEM_CACTVS_TAUTO_COUNT>  (1) 
1

>  <PUBCHEM_CONFORMER_ID>  (1) 
00008C5200000002

>  <PUBCHEM_MMFF94_ENERGY>  (1) 
79.8274

>  <PUBCHEM_FEATURE_SELFOVERLAP>  (1) 
30.472

>  <PUBCHEM_SHAPE_FINGERPRINT>  (1) 
108634 29 18113907082482817346
10928967 22 18335711507177283995
11370993 144 17702667631618223105
11552529 35 17203031006662536039
11796584 16 18040988506288710521
12107183 9 18126865811006546209
12363563 72 18113905970054313745
12553582 1 18412829092153407813
12596602 18 16630522968364015818
12892183 10 17703507714305062864
13103583 49 18057904480023989641
13533116 47 18269280239377825155
13544653 18 18408884010136590421
13583140 156 17203033128291977497
13911882 115 18272086068239459854
14252887 29 18272086063838685698
14341114 176 18201446839478881065
14787075 74 18260551143133872368
14848178 96 9007055755647123151
14849402 71 17701529839506959136
14863182 85 18342181072850613286
15352361 1 18408323293834967147
15475509 84 17988658363141888609
16126227 98 17769644628061235544
16994733 274 13325699996345944874
17349148 13 17240486862447195002
17492 89 18340494460499699707
17780758 139 18201718431862769369
1813 80 17894355470713085941
18186145 218 8213851626382231836
18785283 64 18266454489820308608
193927 3 18040726874213764763
20028762 73 18271241750315044631
20403669 9 18259987093573787043
20645477 56 10807937089717861285
221490 88 18410856525633648260
22950370 63 18339938021120152326
23402539 116 18113611266235472528
23559900 14 18337384925114071364
2838139 119 9223232914442928987
3117164 225 18129113225321239329
316301 35 18264769849085984458
3737641 26 18201163135625484830
5104073 3 18200025119594502762

>  <PUBCHEM_SHAPE_MULTIPOLES>  (1) 
428.76
12.38
2.91
1.22
2.94
0.14
-0.28
-8.62
-4.55
-0.48
0.68
-0.3
-0.37
1.25

>  <PUBCHEM_SHAPE_SELFOVERLAP>  (1) 
920.308

>  <PUBCHEM_SHAPE_VOLUME>  (1) 
239.9

>  <PUBCHEM_COORDINATE_TYPE>  (1) 
2
5
10

$$$$
