35939
     RDKit          3D

 15 16  0  0  0  0  0  0  0  0999 V2000
   -0.1674   -1.0316   -1.5729 O   0  0  0  0  0  0  0  0  0  0  0  0
    1.8855    0.3572   -0.3742 N   0  0  0  0  0  0  0  0  0  0  0  0
    1.9457   -0.7699    0.5670 C   0  0  0  0  0  0  0  0  0  0  0  0
    2.8915    1.3772   -0.0464 C   0  0  0  0  0  0  0  0  0  0  0  0
    3.3269   -1.4271    0.5534 C   0  0  0  0  0  0  0  0  0  0  0  0
    4.3034    0.7904   -0.0799 C   0  0  0  0  0  0  0  0  0  0  0  0
    4.4261   -0.4130    0.8479 C   0  0  0  0  0  0  0  0  0  0  0  0
    0.5459    0.9445   -0.3840 C   0  0  0  0  0  0  0  0  0  0  0  0
   -0.4563   -0.1133   -0.8085 C   0  0  0  0  0  0  0  0  0  0  0  0
   -1.8478   -0.0291   -0.2727 C   0  0  0  0  0  0  0  0  0  0  0  0
   -2.3638    1.2103    0.0276 C   0  0  0  0  0  0  0  0  0  0  0  0
   -2.5583   -1.1944   -0.1004 C   0  0  0  0  0  0  0  0  0  0  0  0
   -3.6633    1.2889    0.5284 C   0  0  0  0  0  0  0  0  0  0  0  0
   -3.8578   -1.1159    0.4002 C   0  0  0  0  0  0  0  0  0  0  0  0
   -4.4103    0.1258    0.7146 C   0  0  0  0  0  0  0  0  0  0  0  0
  1  9  2  0
  2  3  1  0
  2  4  1  0
  2  8  1  0
  3  5  1  0
  4  6  1  0
  5  7  1  0
  6  7  1  0
  8  9  1  0
  9 10  1  0
 10 11  2  0
 10 12  1  0
 11 13  1  0
 12 14  2  0
 13 15  2  0
 14 15  1  0
M  END
>  <PUBCHEM_COMPOUND_CID>  (1) 
35939

>  <PUBCHEM_CONFORMER_RMSD>  (1) 
0.6

>  <PUBCHEM_CONFORMER_DIVERSEORDER>  (1) 
1
43
29
41
27
39
31
38
35
45
36
22
42
37
17
40
16
3
33
4
44
30
25
8
7
26
28
2
13
9
18
19
10
20
21
15
14
12
11
5
6
34
32
23
24

>  <PUBCHEM_MMFF94_PARTIAL_CHARGES>  (1) 
17
1 -0.57
10 0.09
11 -0.15
12 -0.15
13 -0.15
14 -0.15
15 -0.15
2 -0.81
28 0.15
29 0.15
3 0.27
30 0.15
31 0.15
32 0.15
4 0.27
8 0.33
9 0.42

>  <PUBCHEM_EFFECTIVE_ROTOR_COUNT>  (1) 
4.2

>  <PUBCHEM_PHARMACOPHORE_FEATURES>  (1) 
4
1 1 acceptor
1 2 cation
6 10 11 12 13 14 15 rings
6 2 3 4 5 6 7 rings

>  <PUBCHEM_HEAVY_ATOM_COUNT>  (1) 
15

>  <PUBCHEM_ATOM_DEF_STEREO_COUNT>  (1) 
0

>  <PUBCHEM_ATOM_UDEF_STEREO_COUNT>  (1) 
0

>  <PUBCHEM_BOND_DEF_STEREO_COUNT>  (1) 
0

>  <PUBCHEM_BOND_UDEF_STEREO_COUNT>  (1) 
0

>  <PUBCHEM_ISOTOPIC_ATOM_COUNT>  (1) 
0

>  <PUBCHEM_COMPONENT_COUNT>  (1) 
1

>  <PUBCHEM_CACTVS_TAUTO_COUNT>  (1) 
2

>  <PUBCHEM_CONFORMER_ID>  (1) 
00008C6300000001

>  <PUBCHEM_MMFF94_ENERGY>  (1) 
28.5981

>  <PUBCHEM_FEATURE_SELFOVERLAP>  (1) 
20.297

>  <PUBCHEM_SHAPE_FINGERPRINT>  (1) 
10799339 124 18411135818413388720
11401426 45 10015865371213676590
11543360 7 10087634901283469253
12107183 9 17832704565211117009
12251169 10 18410856564172172773
12507560 40 18334853887827478805
12670546 177 9007056863758877873
12670546 56 18412537738788832617
12892183 10 18409449201967851641
13167823 11 18335139799547461394
13296908 3 17095514080760228244
13675066 3 18060133228626799578
14252887 29 17167580488461534952
14341114 176 18408612447880906936
14445660 50 18409450279973013760
14943859 89 16415761937662865446
15219456 202 17988655042835905095
15375462 189 17968369066198882826
15375462 478 18411138039159666941
17834072 33 18335138734374388367
1813 80 16588031177619759686
19050596 39 18408040727651785312
19422 9 18335138704546916076
19862831 5 8646772200736266780
200 152 18338505431069296623
20233049 118 17489869341090346696
20281475 54 17822293517346538526
20432913 95 17530684307497275616
20645477 70 18041824143468270422
20671657 53 13623532363437439807
20871999 31 9439400199642145737
21065198 48 18408886230555392129
21065199 12 18409448076654739169
22485316 2 17603862286688168115
22854114 59 17967249810437615672
231179 274 15123789552693611962
23402539 116 18342450457557390085
23557571 272 13542166351403860341
23559900 14 18057903349930782335
26918003 58 17894629275189104089
42 15 18261112963014782320
4214541 1 18335420140827067425
474 4 17899136289458724772
5104073 3 18408322189675185512
77779 3 18408324384492961848
83771 10 17676483930465458212
90316 7 18260836951722457645

>  <PUBCHEM_SHAPE_MULTIPOLES>  (1) 
297.84
9.44
1.5
0.95
1.51
0
-0.16
-0.11
2.94
0.03
0.08
-0.03
-0.15
-0.53

>  <PUBCHEM_SHAPE_SELFOVERLAP>  (1) 
619.038

>  <PUBCHEM_SHAPE_VOLUME>  (1) 
169.5

>  <PUBCHEM_COORDINATE_TYPE>  (1) 
2
5
10

$$$$
