35930
     RDKit          3D

 20 21  0  0  1  0  0  0  0  0999 V2000
   -3.4285   -2.5207    0.4692 Cl  0  0  0  0  0  0  0  0  0  0  0  0
    0.7201   -1.2301   -0.5013 O   0  0  0  0  0  0  0  0  0  0  0  0
   -0.2156   -0.2955    1.3646 O   0  0  0  0  0  0  0  0  0  0  0  0
    3.9014   -0.0992    0.2083 N   0  0  0  0  0  0  0  0  0  0  0  0
   -1.4153   -0.5467   -0.6299 N   0  0  0  0  0  0  0  0  0  0  0  0
    1.9392   -1.4102    0.2057 C   0  0  0  0  0  0  0  0  0  0  0  0
    2.4948   -0.0469    0.6136 C   0  0  0  0  0  0  0  0  0  0  0  0
    3.9209   -0.8627   -1.0382 C   0  0  0  0  0  0  0  0  0  0  0  0
    2.9969   -2.0242   -0.7082 C   0  0  0  0  0  0  0  0  0  0  0  0
    4.4897    1.2235    0.0617 C   0  0  0  0  0  0  0  0  0  0  0  0
    5.9387    1.1095   -0.4035 C   0  0  0  0  0  0  0  0  0  0  0  0
    4.3972    1.9703    1.3885 C   0  0  0  0  0  0  0  0  0  0  0  0
   -0.3125   -0.6491    0.1957 C   0  0  0  0  0  0  0  0  0  0  0  0
   -2.6871   -0.0125   -0.3213 C   0  0  0  0  0  0  0  0  0  0  0  0
   -2.9182    1.3394   -0.5370 C   0  0  0  0  0  0  0  0  0  0  0  0
   -3.6827   -0.8345    0.1889 C   0  0  0  0  0  0  0  0  0  0  0  0
   -4.1689    1.8794   -0.2367 C   0  0  0  0  0  0  0  0  0  0  0  0
   -1.8604    2.2417   -1.0854 C   0  0  0  0  0  0  0  0  0  0  0  0
   -4.9332   -0.2943    0.4892 C   0  0  0  0  0  0  0  0  0  0  0  0
   -5.1764    1.0626    0.2762 C   0  0  0  0  0  0  0  0  0  0  0  0
  1 16  1  0
  2  6  1  0
  2 13  1  0
  3 13  2  0
  4  7  1  0
  4  8  1  0
  4 10  1  0
  5 13  1  0
  5 14  1  0
  6  7  1  0
  6  9  1  0
  8  9  1  0
 10 11  1  0
 10 12  1  0
 14 15  2  0
 14 16  1  0
 15 17  1  0
 15 18  1  0
 16 19  2  0
 17 20  2  0
 19 20  1  0
M  END
>  <PUBCHEM_COMPOUND_CID>  (1) 
35930

>  <PUBCHEM_CONFORMER_RMSD>  (1) 
0.8

>  <PUBCHEM_CONFORMER_DIVERSEORDER>  (1) 
5
49
48
77
16
80
37
17
67
54
38
43
79
75
8
64
50
58
42
28
76
45
20
81
78
46
57
11
6
65
62
13
34
53
68
47
10
26
44
41
74
29
35
40
56
61
24
12
70
30
55
39
4
22
7
66
63
36
60
51
59
52
32
15
9
23
3
82
2
25
21
33
1
83
19
27
31
14
71
18
73
69
72

>  <PUBCHEM_MMFF94_PARTIAL_CHARGES>  (1) 
21
1 -0.18
10 0.27
13 0.78
14 0.12
15 -0.14
16 0.18
17 -0.15
18 0.14
19 -0.15
2 -0.43
20 -0.15
3 -0.57
35 0.37
36 0.15
4 -0.81
40 0.15
41 0.15
5 -0.55
6 0.28
7 0.27
8 0.27

>  <PUBCHEM_EFFECTIVE_ROTOR_COUNT>  (1) 
6

>  <PUBCHEM_PHARMACOPHORE_FEATURES>  (1) 
6
1 3 acceptor
1 4 cation
1 5 donor
3 10 11 12 hydrophobe
5 4 6 7 8 9 rings
6 14 15 16 17 19 20 rings

>  <PUBCHEM_HEAVY_ATOM_COUNT>  (1) 
20

>  <PUBCHEM_ATOM_DEF_STEREO_COUNT>  (1) 
0

>  <PUBCHEM_ATOM_UDEF_STEREO_COUNT>  (1) 
1

>  <PUBCHEM_BOND_DEF_STEREO_COUNT>  (1) 
0

>  <PUBCHEM_BOND_UDEF_STEREO_COUNT>  (1) 
0

>  <PUBCHEM_ISOTOPIC_ATOM_COUNT>  (1) 
0

>  <PUBCHEM_COMPONENT_COUNT>  (1) 
1

>  <PUBCHEM_CACTVS_TAUTO_COUNT>  (1) 
2

>  <PUBCHEM_CONFORMER_ID>  (1) 
00008C5A00000005

>  <PUBCHEM_MMFF94_ENERGY>  (1) 
63.3516

>  <PUBCHEM_FEATURE_SELFOVERLAP>  (1) 
30.446

>  <PUBCHEM_SHAPE_FINGERPRINT>  (1) 
10498660 4 18188204295469360781
11128504 68 15770056159641035664
11405975 8 18337669707173577338
11595378 159 17240472577133137372
12173636 292 18189048690877754951
12555020 224 10231752263182937417
12596602 18 16081089307452152472
12730499 353 18342464742244498602
12769317 202 17988351663842801456
13081056 2 18411138000430841876
13402501 40 18410852196539287496
13897977 58 18335422361636207421
14251764 18 17749102306447785080
14341114 176 18408892810424151493
14341114 328 17821725052808181008
14528608 73 18130784572698563662
15183329 4 10880002341128538045
15239154 128 18341051835062954641
15961568 22 18113904892250067132
17349148 13 15357697483070098378
17844677 252 18270689675059579937
17959699 21 18342739607007850752
19377110 9 17530963613578941971
20645477 56 18409167701448196831
20645477 70 17560527205292088366
21033648 29 18272080660838731024
21652331 79 18335700516170850629
22289505 5 18130788937103072720
23227448 37 18341609373199262855
23402539 116 17968372441679427023
23402655 69 17989207036422705982
23557571 272 18336553797223105591
23559900 14 18198339559542770866
245318 6 16881340395992458924
34797466 226 17917719010682375229
3545911 37 18411703183725143364
4325135 7 18343018925963616031
474 4 17967819366172207100
5104073 3 18334859372738034811
5281201 14 18200597986569348950
633830 44 18270675364197265311
6442390 28 18408884070735851510
77779 3 18411702049959512655
7808743 9 18191586557188831892
90127 26 18339652152460774723
960060 61 13542466484050859320

>  <PUBCHEM_SHAPE_MULTIPOLES>  (1) 
391.76
13.03
2.41
1.03
5.34
0.04
-0.1
-4.55
-0.68
-0.59
0.13
0.54
-0.19
1.55

>  <PUBCHEM_SHAPE_SELFOVERLAP>  (1) 
804.321

>  <PUBCHEM_SHAPE_VOLUME>  (1) 
228.6

>  <PUBCHEM_COORDINATE_TYPE>  (1) 
2
5
10

$$$$
