35933
     RDKit          3D

 22 24  0  0  1  0  0  0  0  0999 V2000
   -4.1906   -1.4693    1.8419 Cl  0  0  0  0  0  0  0  0  0  0  0  0
    3.7454    2.2085   -0.1840 O   0  0  0  0  0  0  0  0  0  0  0  0
    5.0110   -0.1206    0.6452 O   0  0  0  0  0  0  0  0  0  0  0  0
   -1.2169   -1.3709   -0.2460 N   0  0  0  0  0  0  0  0  0  0  0  0
   -0.4972   -2.6050   -0.5839 C   0  0  0  0  0  0  0  0  0  0  0  0
   -0.4862   -0.1986   -0.7590 C   0  0  0  0  0  0  0  0  0  0  0  0
    0.8418   -2.6471    0.1597 C   0  0  0  0  0  0  0  0  0  0  0  0
    0.9703   -0.1783   -0.3556 C   0  0  0  0  0  0  0  0  0  0  0  0
    1.6174   -1.3610    0.0418 C   0  0  0  0  0  0  0  0  0  0  0  0
   -2.5766   -1.3989   -0.7842 C   0  0  0  0  0  0  0  0  0  0  0  0
    1.7016    1.0144   -0.4385 C   0  0  0  0  0  0  0  0  0  0  0  0
    2.9749   -1.3265    0.3859 C   0  0  0  0  0  0  0  0  0  0  0  0
   -3.3560   -0.1684   -0.4031 C   0  0  0  0  0  0  0  0  0  0  0  0
    3.0551    1.0368   -0.1030 C   0  0  0  0  0  0  0  0  0  0  0  0
    3.6905   -0.1318    0.3109 C   0  0  0  0  0  0  0  0  0  0  0  0
   -4.1073   -0.1233    0.7646 C   0  0  0  0  0  0  0  0  0  0  0  0
   -3.3019    0.9271   -1.2565 C   0  0  0  0  0  0  0  0  0  0  0  0
   -4.8154    1.0350    1.0844 C   0  0  0  0  0  0  0  0  0  0  0  0
   -4.0101    2.0854   -0.9366 C   0  0  0  0  0  0  0  0  0  0  0  0
   -4.7669    2.1394    0.2338 C   0  0  0  0  0  0  0  0  0  0  0  0
    3.7704    3.0280    0.9831 C   0  0  0  0  0  0  0  0  0  0  0  0
    5.9467   -0.3750   -0.4008 C   0  0  0  0  0  0  0  0  0  0  0  0
  1 16  1  0
  2 14  1  0
  2 21  1  0
  3 15  1  0
  3 22  1  0
  4  5  1  0
  4  6  1  0
  4 10  1  0
  5  7  1  0
  6  8  1  0
  7  9  1  0
  8  9  2  0
  8 11  1  0
  9 12  1  0
 10 13  1  0
 11 14  2  0
 12 15  2  0
 13 16  2  0
 13 17  1  0
 14 15  1  0
 16 18  1  0
 17 19  2  0
 18 20  2  0
 19 20  1  0
M  END
>  <PUBCHEM_COMPOUND_CID>  (1) 
35933

>  <PUBCHEM_CONFORMER_RMSD>  (1) 
0.8

>  <PUBCHEM_CONFORMER_DIVERSEORDER>  (1) 
2
13
26
27
7
24
6
12
17
25
5
11
21
18
8
4
23
16
14
3
20
22
10
15
1
19
9

>  <PUBCHEM_MMFF94_PARTIAL_CHARGES>  (1) 
28
1 -0.18
10 0.41
11 -0.15
12 -0.15
13 -0.14
14 0.08
15 0.08
16 0.18
17 -0.15
18 -0.15
19 -0.15
2 -0.36
20 -0.15
21 0.28
22 0.28
3 -0.36
31 0.15
32 0.15
33 0.15
34 0.15
35 0.15
36 0.15
4 -0.81
5 0.27
6 0.41
7 0.14
8 -0.14
9 -0.14

>  <PUBCHEM_EFFECTIVE_ROTOR_COUNT>  (1) 
4.8

>  <PUBCHEM_PHARMACOPHORE_FEATURES>  (1) 
6
1 2 acceptor
1 3 acceptor
1 4 cation
6 13 16 17 18 19 20 rings
6 4 5 6 7 8 9 rings
6 8 9 11 12 14 15 rings

>  <PUBCHEM_HEAVY_ATOM_COUNT>  (1) 
22

>  <PUBCHEM_ATOM_DEF_STEREO_COUNT>  (1) 
0

>  <PUBCHEM_ATOM_UDEF_STEREO_COUNT>  (1) 
0

>  <PUBCHEM_BOND_DEF_STEREO_COUNT>  (1) 
0

>  <PUBCHEM_BOND_UDEF_STEREO_COUNT>  (1) 
0

>  <PUBCHEM_ISOTOPIC_ATOM_COUNT>  (1) 
0

>  <PUBCHEM_COMPONENT_COUNT>  (1) 
1

>  <PUBCHEM_CACTVS_TAUTO_COUNT>  (1) 
1

>  <PUBCHEM_CONFORMER_ID>  (1) 
00008C5D00000002

>  <PUBCHEM_MMFF94_ENERGY>  (1) 
82.8689

>  <PUBCHEM_FEATURE_SELFOVERLAP>  (1) 
30.472

>  <PUBCHEM_SHAPE_FINGERPRINT>  (1) 
11089746 13 18272080591517867244
11370993 144 18188491251214315167
11405975 8 18339355374958498754
11552529 35 17169281531470585715
12390115 104 18267877257565554628
12403259 415 18410294743795436064
12596602 18 14635164411935530917
12670546 177 12103555394561533059
12892183 10 18041000686826674131
13140716 1 18408036308024910051
13544653 18 10881394327049304758
13583140 156 17168128032166883455
13675066 3 18333450953929332590
14178342 30 17603879883913491723
14341114 176 18041286448053963603
14790565 3 18334018328395765228
14848178 96 18271515481164624328
15081414 286 18271532983736175398
1601671 61 18408882902578216958
18186145 218 18273216408593789118
19784866 170 18261112920102162759
20739085 24 18186525401728384964
20775530 9 12831213380194873937
20871999 31 11095883744551015879
21033648 29 18341321258282545880
21033650 10 14045202773645142066
21065199 12 18259708895688700251
21709351 56 18343013398187705910
21864079 5 18411974784566700941
22122407 14 17988092097668692217
22646028 28 10881405331203740877
23402539 116 14549019870917563778
23559900 14 18267863887132077482
27216 239 18408887330910921625
335352 9 18411696574524810326
38570 142 17170422825146827004
474 4 18341328912151422719
49207404 50 18261119577559953715
5104073 3 18334570282821082088
57724786 102 17986402083602576409
59124914 9 18340204090096885200
602551 16 16153721915626464715
6328613 192 18337113458202665580
633830 44 18273211997556732118
7226269 152 17988640787966147768
7808743 9 18122625217548308352
79837 15 18189332540444710730

>  <PUBCHEM_SHAPE_MULTIPOLES>  (1) 
437.9
12.1
2.91
1.16
2.93
0.54
0.24
5.63
2.53
0.35
0.26
-1.23
0
1.01

>  <PUBCHEM_SHAPE_SELFOVERLAP>  (1) 
929.071

>  <PUBCHEM_SHAPE_VOLUME>  (1) 
246.8

>  <PUBCHEM_COORDINATE_TYPE>  (1) 
2
5
10

$$$$
