35936
     RDKit          3D

 28 32  0  0  1  0  0  0  0  0999 V2000
    1.1799    1.6089   -1.5197 O   0  0  0  0  0  0  0  0  0  0  0  0
   -0.4522   -0.0895   -0.2670 N   0  0  0  0  0  0  0  0  0  0  0  0
   -3.2730    0.1757    0.0963 N   0  0  0  0  0  0  0  0  0  0  0  0
    0.9572   -0.1130    0.1477 C   0  0  0  0  0  0  0  0  0  0  0  0
   -1.0465    1.2255    0.0021 C   0  0  0  0  0  0  0  0  0  0  0  0
   -1.2119   -1.1334    0.4320 C   0  0  0  0  0  0  0  0  0  0  0  0
   -2.4993    1.2813   -0.4770 C   0  0  0  0  0  0  0  0  0  0  0  0
   -2.6696   -1.1565   -0.0337 C   0  0  0  0  0  0  0  0  0  0  0  0
    1.6585   -1.4340   -0.0914 C   0  0  0  0  0  0  0  0  0  0  0  0
    1.6894    1.0151   -0.5685 C   0  0  0  0  0  0  0  0  0  0  0  0
    2.8994   -1.6498    0.5415 C   0  0  0  0  0  0  0  0  0  0  0  0
    3.4718   -0.5985    1.4600 C   0  0  0  0  0  0  0  0  0  0  0  0
    3.0645    1.4227   -0.1195 C   0  0  0  0  0  0  0  0  0  0  0  0
    3.8727    0.6913    0.7775 C   0  0  0  0  0  0  0  0  0  0  0  0
   -4.6684    0.2626    0.1556 C   0  0  0  0  0  0  0  0  0  0  0  0
    1.1596   -2.4236   -0.9539 C   0  0  0  0  0  0  0  0  0  0  0  0
    3.6034   -2.8424    0.3138 C   0  0  0  0  0  0  0  0  0  0  0  0
    3.5576    2.6241   -0.6669 C   0  0  0  0  0  0  0  0  0  0  0  0
    5.1437    1.2086    1.1084 C   0  0  0  0  0  0  0  0  0  0  0  0
    1.8673   -3.6076   -1.1699 C   0  0  0  0  0  0  0  0  0  0  0  0
    3.0874   -3.8173   -0.5365 C   0  0  0  0  0  0  0  0  0  0  0  0
   -5.3916    0.9975   -0.8052 C   0  0  0  0  0  0  0  0  0  0  0  0
   -5.3928   -0.3820    1.1782 C   0  0  0  0  0  0  0  0  0  0  0  0
    4.8218    3.1069   -0.3309 C   0  0  0  0  0  0  0  0  0  0  0  0
    5.6154    2.3995    0.5591 C   0  0  0  0  0  0  0  0  0  0  0  0
   -6.7824    1.0846   -0.7457 C   0  0  0  0  0  0  0  0  0  0  0  0
   -6.7837   -0.2949    1.2377 C   0  0  0  0  0  0  0  0  0  0  0  0
   -7.4784    0.4383    0.2757 C   0  0  0  0  0  0  0  0  0  0  0  0
  1 10  2  0
  2  4  1  0
  2  5  1  0
  2  6  1  0
  3  7  1  0
  3  8  1  0
  3 15  1  0
  4  9  1  0
  4 10  1  0
  5  7  1  0
  6  8  1  0
  9 11  2  0
  9 16  1  0
 10 13  1  0
 11 12  1  0
 11 17  1  0
 12 14  1  0
 13 14  2  0
 13 18  1  0
 14 19  1  0
 15 22  2  0
 15 23  1  0
 16 20  2  0
 17 21  2  0
 18 24  2  0
 19 25  2  0
 20 21  1  0
 22 26  1  0
 23 27  2  0
 24 25  1  0
 26 28  2  0
 27 28  1  0
M  END
>  <PUBCHEM_COMPOUND_CID>  (1) 
35936

>  <PUBCHEM_CONFORMER_RMSD>  (1) 
0.8

>  <PUBCHEM_CONFORMER_DIVERSEORDER>  (1) 
1
13
11
8
6
4
9
12
2
7
10
5
3

>  <PUBCHEM_MMFF94_PARTIAL_CHARGES>  (1) 
41
1 -0.57
10 0.42
11 -0.14
12 0.29
13 0.09
14 -0.14
15 0.1
16 -0.15
17 -0.15
18 -0.15
19 -0.15
2 -0.81
20 -0.15
21 -0.15
22 -0.15
23 -0.15
24 -0.15
25 -0.15
26 -0.15
27 -0.15
28 -0.15
3 -0.84
4 0.47
40 0.15
41 0.15
42 0.15
43 0.15
44 0.15
45 0.15
46 0.15
47 0.15
48 0.15
49 0.15
5 0.27
50 0.15
51 0.15
52 0.15
6 0.27
7 0.37
8 0.37
9 -0.14

>  <PUBCHEM_EFFECTIVE_ROTOR_COUNT>  (1) 
3.6

>  <PUBCHEM_PHARMACOPHORE_FEATURES>  (1) 
8
1 1 acceptor
1 2 cation
1 3 cation
6 13 14 18 19 24 25 rings
6 15 22 23 26 27 28 rings
6 2 3 5 6 7 8 rings
6 9 11 16 17 20 21 rings
7 4 9 10 11 12 13 14 rings

>  <PUBCHEM_HEAVY_ATOM_COUNT>  (1) 
28

>  <PUBCHEM_ATOM_DEF_STEREO_COUNT>  (1) 
0

>  <PUBCHEM_ATOM_UDEF_STEREO_COUNT>  (1) 
1

>  <PUBCHEM_BOND_DEF_STEREO_COUNT>  (1) 
0

>  <PUBCHEM_BOND_UDEF_STEREO_COUNT>  (1) 
0

>  <PUBCHEM_ISOTOPIC_ATOM_COUNT>  (1) 
0

>  <PUBCHEM_COMPONENT_COUNT>  (1) 
1

>  <PUBCHEM_CACTVS_TAUTO_COUNT>  (1) 
2

>  <PUBCHEM_CONFORMER_ID>  (1) 
00008C6000000001

>  <PUBCHEM_MMFF94_ENERGY>  (1) 
114.2274

>  <PUBCHEM_FEATURE_SELFOVERLAP>  (1) 
40.618

>  <PUBCHEM_SHAPE_FINGERPRINT>  (1) 
10 15 17968375748983840089
10165383 225 18342735256860315672
10411042 1 17979073778728056470
10554248 39 17631165278790522949
10595046 47 18272367573518071669
10835480 77 18335132065187561293
10906281 52 18114753740368051073
11297750 10 17971467395835566150
11719270 70 18411134757635698176
12422481 6 18114448037918797084
12730499 353 18411989073833256330
12788726 201 16988573368493896353
13073987 5 18341339912248762649
13533116 47 18202280265103393123
13540713 4 18116141169492534893
13955234 65 18413108329795360210
14294032 229 18055354897000651546
14461889 52 18261115235633023667
14790565 3 18050568735822351724
15064986 96 18411133629024995234
15081414 286 18334860502483608509
15183329 4 10879724186594187129
15324884 4 17478580458051152086
15419008 42 17897988154732291149
15475509 35 16443892870315088394
16990366 60 18046344133129420354
16992610 120 18118696637708843012
17492 89 18196091049467500649
17844677 252 18267590113695853473
17913733 40 18341622567349423803
17980427 23 17751076027422314294
19319366 153 18130782369549451070
19377110 9 17989209222819678857
19427546 62 18409729607777611666
1979834 28 18408324397388673076
20157964 124 18411135827488678221
20554085 129 17917417783636445352
21033648 29 17603581886408031597
21033650 10 15051470292675285067
21049683 271 18265623083436918606
21130935 74 18410582756683218571
21197605 99 18189903191427156155
21623969 137 18334860532727207873
21716022 299 14259421650967455820
21859007 373 17314213485535715493
22149856 69 18266481896554374201
22182313 1 17895746301619829541
23081809 10 17704069561311368233
23559900 14 18337676312722534486
239999 70 18261956254052891210
249999 5 18412826872135538518
255183 451 17914059698847507046
3178227 256 18409443675331392010
32027 91 18191587441794469467
3411729 13 18334294288412479674
394071 54 18409453565897224249
397830 11 18187655734510904179
4073 2 18187650241068397491
4093350 32 18411420583920578411
4144715 1 18188218615802896705
4340502 62 18410576214255490509
46194498 28 18337390427019756158
5104073 3 18261117323182418673
513532 50 18202292377011258718
5385378 56 18413393137613522632
59755656 215 18335424551953490596
8272917 22 18411699885533235878
9962374 69 18271231725687250383

>  <PUBCHEM_SHAPE_MULTIPOLES>  (1) 
560.4
16.24
3.7
1.14
30.45
2.56
0.07
-8.05
3.52
-7.81
-1.21
-0.02
0.08
0.86

>  <PUBCHEM_SHAPE_SELFOVERLAP>  (1) 
1237.53

>  <PUBCHEM_SHAPE_VOLUME>  (1) 
297

>  <PUBCHEM_COORDINATE_TYPE>  (1) 
2
5
10

$$$$
