35931
     RDKit          3D

  7  7  0  0  1  0  0  0  0  0999 V2000
   -2.2563    0.4759    0.6162 O   0  0  0  0  0  0  0  0  0  0  0  0
   -1.2874   -1.1933   -0.5965 O   0  0  0  0  0  0  0  0  0  0  0  0
    0.9722    0.7680   -0.9571 N   0  0  0  0  0  0  0  0  0  0  0  0
    0.0539    0.6340    0.2355 C   0  0  0  0  0  0  0  0  0  0  0  0
    1.3404    0.1229    0.0428 C   0  0  0  0  0  0  0  0  0  0  0  0
    2.3833   -0.6636    0.6346 C   0  0  0  0  0  0  0  0  0  0  0  0
   -1.2061   -0.1439    0.0245 C   0  0  0  0  0  0  0  0  0  0  0  0
  1  7  1  0
  2  7  2  0
  3  4  1  0
  3  5  2  0
  4  5  1  0
  4  7  1  0
  5  6  1  0
M  END
>  <PUBCHEM_COMPOUND_CID>  (1) 
35931

>  <PUBCHEM_CONFORMER_RMSD>  (1) 
0.4

>  <PUBCHEM_CONFORMER_DIVERSEORDER>  (1) 
4
3
2
1

>  <PUBCHEM_MMFF94_PARTIAL_CHARGES>  (1) 
9
1 -0.65
12 0.5
2 -0.57
3 -0.66
4 0.11
5 0.39
6 0.06
7 0.72
8 0.1

>  <PUBCHEM_EFFECTIVE_ROTOR_COUNT>  (1) 
1.2

>  <PUBCHEM_PHARMACOPHORE_FEATURES>  (1) 
4
1 1 acceptor
1 2 acceptor
1 3 acceptor
3 1 2 7 anion

>  <PUBCHEM_HEAVY_ATOM_COUNT>  (1) 
7

>  <PUBCHEM_ATOM_DEF_STEREO_COUNT>  (1) 
0

>  <PUBCHEM_ATOM_UDEF_STEREO_COUNT>  (1) 
1

>  <PUBCHEM_BOND_DEF_STEREO_COUNT>  (1) 
0

>  <PUBCHEM_BOND_UDEF_STEREO_COUNT>  (1) 
0

>  <PUBCHEM_ISOTOPIC_ATOM_COUNT>  (1) 
0

>  <PUBCHEM_COMPONENT_COUNT>  (1) 
1

>  <PUBCHEM_CACTVS_TAUTO_COUNT>  (1) 
1

>  <PUBCHEM_CONFORMER_ID>  (1) 
00008C5B00000004

>  <PUBCHEM_MMFF94_ENERGY>  (1) 
32.2977

>  <PUBCHEM_FEATURE_SELFOVERLAP>  (1) 
20.354

>  <PUBCHEM_SHAPE_FINGERPRINT>  (1) 
18185500 45 18336823190567653866
21040471 1 17916883326000088761
24536 1 17386845187092411161
29004967 10 17240763973663377184

>  <PUBCHEM_SHAPE_MULTIPOLES>  (1) 
127.34
2.9
0.98
0.84
0.18
0.1
0.05
0.55
-0.61
0.03
0.13
-0.02
-0.03
-0.39

>  <PUBCHEM_SHAPE_SELFOVERLAP>  (1) 
249.716

>  <PUBCHEM_SHAPE_VOLUME>  (1) 
77.5

>  <PUBCHEM_COORDINATE_TYPE>  (1) 
2
5
10

$$$$
