35958
     RDKit          3D

 31 33  0  0  0  0  0  0  0  0999 V2000
    6.0402   -4.2495   -0.6641 Cl  0  0  0  0  0  0  0  0  0  0  0  0
   -4.5240   -3.0948    2.2119 O   0  0  0  0  0  0  0  0  0  0  0  0
   -3.6651    0.7645   -1.4703 O   0  0  0  0  0  0  0  0  0  0  0  0
   -1.7374    2.2380   -0.0769 O   0  0  0  0  0  0  0  0  0  0  0  0
   -0.7759   -0.3115   -0.5731 O   0  0  0  0  0  0  0  0  0  0  0  0
    0.0232    4.2527    0.6362 O   0  0  0  0  0  0  0  0  0  0  0  0
    4.5387    2.0621    0.6800 O   0  0  0  0  0  0  0  0  0  0  0  0
   -4.3808   -1.6936   -0.2615 N   0  0  0  0  0  0  0  0  0  0  0  0
   -5.1819   -1.1893    0.8625 C   0  0  0  0  0  0  0  0  0  0  0  0
   -4.2983   -3.1597   -0.2030 C   0  0  0  0  0  0  0  0  0  0  0  0
   -4.9435   -1.2561   -1.5373 C   0  0  0  0  0  0  0  0  0  0  0  0
   -4.5824   -1.6682    2.1814 C   0  0  0  0  0  0  0  0  0  0  0  0
   -3.7206   -3.5929    1.1413 C   0  0  0  0  0  0  0  0  0  0  0  0
   -4.9872    0.2618   -1.6123 C   0  0  0  0  0  0  0  0  0  0  0  0
   -3.6376    2.1840   -1.5319 C   0  0  0  0  0  0  0  0  0  0  0  0
   -2.2089    2.6595   -1.3509 C   0  0  0  0  0  0  0  0  0  0  0  0
   -0.3969    1.9750    0.0289 C   0  0  0  0  0  0  0  0  0  0  0  0
    0.0773    0.6910   -0.2227 C   0  0  0  0  0  0  0  0  0  0  0  0
    0.4806    2.9936    0.3883 C   0  0  0  0  0  0  0  0  0  0  0  0
    2.3258    1.4408    0.2459 C   0  0  0  0  0  0  0  0  0  0  0  0
    1.4420    0.4234   -0.1139 C   0  0  0  0  0  0  0  0  0  0  0  0
    1.8452    2.7258    0.4970 C   0  0  0  0  0  0  0  0  0  0  0  0
    3.7487    1.1615    0.3598 C   0  0  0  0  0  0  0  0  0  0  0  0
    4.3217   -0.1942    0.1033 C   0  0  0  0  0  0  0  0  0  0  0  0
    4.7224   -0.5076   -1.1745 C   0  0  0  0  0  0  0  0  0  0  0  0
    4.4268   -1.0739    1.1554 C   0  0  0  0  0  0  0  0  0  0  0  0
   -0.2034   -1.5957   -0.8124 C   0  0  0  0  0  0  0  0  0  0  0  0
   -0.3505    4.5537    1.9793 C   0  0  0  0  0  0  0  0  0  0  0  0
    5.2589   -1.7727   -1.4139 C   0  0  0  0  0  0  0  0  0  0  0  0
    4.9633   -2.3391    0.9161 C   0  0  0  0  0  0  0  0  0  0  0  0
    5.3794   -2.6884   -0.3686 C   0  0  0  0  0  0  0  0  0  0  0  0
  1 31  1  0
  2 12  1  0
  2 13  1  0
  3 14  1  0
  3 15  1  0
  4 16  1  0
  4 17  1  0
  5 18  1  0
  5 27  1  0
  6 19  1  0
  6 28  1  0
  7 23  2  0
  8  9  1  0
  8 10  1  0
  8 11  1  0
  9 12  1  0
 10 13  1  0
 11 14  1  0
 15 16  1  0
 17 18  2  0
 17 19  1  0
 18 21  1  0
 19 22  2  0
 20 21  2  0
 20 22  1  0
 20 23  1  0
 23 24  1  0
 24 25  2  0
 24 26  1  0
 25 29  1  0
 26 30  2  0
 29 31  2  0
 30 31  1  0
M  END
>  <PUBCHEM_COMPOUND_CID>  (1) 
35958

>  <PUBCHEM_CONFORMER_RMSD>  (1) 
1.2

>  <PUBCHEM_CONFORMER_DIVERSEORDER>  (1) 
28
9
81
45
42
21
100
50
3
85
35
71
11
93
34
99
58
37
65
78
92
43
59
84
27
63
91
5
24
98
30
23
18
73
26
20
64
82
54
47
75
53
38
49
67
74
68
25
31
51
32
61
14
19
17
76
40
33
86
77
2
46
1
80
36
96
44
4
83
70
48
15
72
97
79
52
39
16
66
88
94
13
55
7
8
12
57
56
41
62
90
95
22
89
101
60
29
6
10
69
87

>  <PUBCHEM_MMFF94_PARTIAL_CHARGES>  (1) 
37
1 -0.18
10 0.27
11 0.27
12 0.28
13 0.28
14 0.28
15 0.28
16 0.28
17 0.08
18 0.08
19 0.08
2 -0.56
20 0.09
21 -0.15
22 -0.15
23 0.4
24 0.09
25 -0.15
26 -0.15
27 0.28
28 0.28
29 -0.15
3 -0.56
30 -0.15
31 0.18
4 -0.36
48 0.15
49 0.15
5 -0.36
50 0.15
51 0.15
58 0.15
59 0.15
6 -0.36
7 -0.57
8 -0.81
9 0.27

>  <PUBCHEM_EFFECTIVE_ROTOR_COUNT>  (1) 
12.2

>  <PUBCHEM_PHARMACOPHORE_FEATURES>  (1) 
10
1 2 acceptor
1 3 acceptor
1 4 acceptor
1 5 acceptor
1 6 acceptor
1 7 acceptor
1 8 cation
6 17 18 19 20 21 22 rings
6 2 8 9 10 12 13 rings
6 24 25 26 29 30 31 rings

>  <PUBCHEM_HEAVY_ATOM_COUNT>  (1) 
31

>  <PUBCHEM_ATOM_DEF_STEREO_COUNT>  (1) 
0

>  <PUBCHEM_ATOM_UDEF_STEREO_COUNT>  (1) 
0

>  <PUBCHEM_BOND_DEF_STEREO_COUNT>  (1) 
0

>  <PUBCHEM_BOND_UDEF_STEREO_COUNT>  (1) 
0

>  <PUBCHEM_ISOTOPIC_ATOM_COUNT>  (1) 
0

>  <PUBCHEM_COMPONENT_COUNT>  (1) 
1

>  <PUBCHEM_CACTVS_TAUTO_COUNT>  (1) 
1

>  <PUBCHEM_CONFORMER_ID>  (1) 
00008C760000001C

>  <PUBCHEM_MMFF94_ENERGY>  (1) 
112.3073

>  <PUBCHEM_FEATURE_SELFOVERLAP>  (1) 
50.763

>  <PUBCHEM_SHAPE_FINGERPRINT>  (1) 
10462674 296 17402611243601917558
10928967 22 17979644751320996239
11285246 1 17749109989131999561
117089 54 18412265025593651958
12422481 6 17203059494900678183
13165053 137 17331670254834348227
1361 87 18335702710909863950
14866123 147 17912645709202478025
15351339 4 18041547045095266891
16067689 391 18196653986463382214
19246450 95 10591213327888119252
19304144 158 17824527785521428308
20501277 246 18057028315127889376
21279426 13 18334846195878519103
23379529 103 18334575780437268701
23559900 14 18042952341873589709
3089732 80 18409169926062362958
3146122 67 17839752469617687406
4435113 14 18335718138322017311
5104073 3 18059566958595613464
6201320 77 18043558065100714331
7918774 8 18411989065375515478
79837 15 17838904732976800984
9511036 111 17536858989761502490

>  <PUBCHEM_SHAPE_MULTIPOLES>  (1) 
599.64
14.69
5.88
1.74
5.25
1.44
0.35
-17.52
-1.46
-0.4
2.26
-2.14
-0.26
3.3

>  <PUBCHEM_SHAPE_SELFOVERLAP>  (1) 
1251.108

>  <PUBCHEM_SHAPE_VOLUME>  (1) 
342.8

>  <PUBCHEM_COORDINATE_TYPE>  (1) 
2
5
10

$$$$
