35959
     RDKit          3D

 19 20  0  0  0  0  0  0  0  0999 V2000
    2.1206    2.3504   -0.3821 O   0  0  0  0  0  0  0  0  0  0  0  0
    0.5495    0.8460    0.4208 N   0  0  0  0  0  0  0  0  0  0  0  0
   -3.0923    0.2627   -0.0042 C   0  0  0  0  0  0  0  0  0  0  0  0
   -3.8736   -1.0234   -0.2667 C   0  0  0  0  0  0  0  0  0  0  0  0
   -2.3571    0.1847    1.3397 C   0  0  0  0  0  0  0  0  0  0  0  0
   -2.1118    0.5434   -1.1497 C   0  0  0  0  0  0  0  0  0  0  0  0
   -0.5626    1.7682    0.4570 C   0  0  0  0  0  0  0  0  0  0  0  0
   -1.5219    1.4384    1.6042 C   0  0  0  0  0  0  0  0  0  0  0  0
   -1.2872    1.8048   -0.8908 C   0  0  0  0  0  0  0  0  0  0  0  0
   -4.6356   -0.9058   -1.5975 C   0  0  0  0  0  0  0  0  0  0  0  0
   -2.9035   -2.2143   -0.3429 C   0  0  0  0  0  0  0  0  0  0  0  0
   -4.8791   -1.2621    0.8723 C   0  0  0  0  0  0  0  0  0  0  0  0
    1.8141    1.2234   -0.0022 C   0  0  0  0  0  0  0  0  0  0  0  0
    2.8427    0.1515   -0.0058 C   0  0  0  0  0  0  0  0  0  0  0  0
    3.8989    0.2456   -0.8878 C   0  0  0  0  0  0  0  0  0  0  0  0
    2.7082   -0.9036    0.8724 C   0  0  0  0  0  0  0  0  0  0  0  0
    4.8646   -0.7610   -0.8917 C   0  0  0  0  0  0  0  0  0  0  0  0
    3.6739   -1.9101    0.8685 C   0  0  0  0  0  0  0  0  0  0  0  0
    4.7521   -1.8388   -0.0135 C   0  0  0  0  0  0  0  0  0  0  0  0
  1 13  2  0
  2  7  1  0
  2 13  1  0
  3  4  1  0
  3  5  1  0
  3  6  1  0
  4 10  1  0
  4 11  1  0
  4 12  1  0
  5  8  1  0
  6  9  1  0
  7  8  1  0
  7  9  1  0
 13 14  1  0
 14 15  2  0
 14 16  1  0
 15 17  1  0
 16 18  2  0
 17 19  2  0
 18 19  1  0
M  END
>  <PUBCHEM_COMPOUND_CID>  (1) 
35959

>  <PUBCHEM_CONFORMER_RMSD>  (1) 
0.8

>  <PUBCHEM_CONFORMER_DIVERSEORDER>  (1) 
1
4
2
3
7
5
6

>  <PUBCHEM_MMFF94_PARTIAL_CHARGES>  (1) 
16
1 -0.57
13 0.54
14 0.09
15 -0.15
16 -0.15
17 -0.15
18 -0.15
19 -0.15
2 -0.73
39 0.37
40 0.15
41 0.15
42 0.15
43 0.15
44 0.15
7 0.3

>  <PUBCHEM_EFFECTIVE_ROTOR_COUNT>  (1) 
5.2

>  <PUBCHEM_PHARMACOPHORE_FEATURES>  (1) 
5
1 1 acceptor
1 2 donor
4 4 10 11 12 hydrophobe
6 14 15 16 17 18 19 rings
6 3 5 6 7 8 9 rings

>  <PUBCHEM_HEAVY_ATOM_COUNT>  (1) 
19

>  <PUBCHEM_ATOM_DEF_STEREO_COUNT>  (1) 
0

>  <PUBCHEM_ATOM_UDEF_STEREO_COUNT>  (1) 
0

>  <PUBCHEM_BOND_DEF_STEREO_COUNT>  (1) 
0

>  <PUBCHEM_BOND_UDEF_STEREO_COUNT>  (1) 
0

>  <PUBCHEM_ISOTOPIC_ATOM_COUNT>  (1) 
0

>  <PUBCHEM_COMPONENT_COUNT>  (1) 
1

>  <PUBCHEM_CACTVS_TAUTO_COUNT>  (1) 
2

>  <PUBCHEM_CONFORMER_ID>  (1) 
00008C7700000001

>  <PUBCHEM_MMFF94_ENERGY>  (1) 
52.1279

>  <PUBCHEM_FEATURE_SELFOVERLAP>  (1) 
25.371

>  <PUBCHEM_SHAPE_FINGERPRINT>  (1) 
10498660 4 13479138990482646526
10968037 57 18341335491793569239
11046707 91 18342458123124518777
11089746 13 12757149117268957030
11370993 144 13758080670933351454
11578080 2 18199730514703438416
12553582 1 18409728456420174490
12596602 18 13901903423076075678
12633257 1 16988293070243362939
12670546 177 15936698176074363287
12788726 201 17774463645142464713
12824470 246 18342739611086585761
12892183 10 13614248104775084189
13103583 49 17632030735848371219
13533116 47 18199747123783887833
13583140 156 15697433300514471360
14123260 362 11097858488339534921
14178342 30 17701833080833813352
1420 369 18201719556743241262
14251764 30 18042415780252106203
14576447 43 18335143073040508446
14767858 380 18188792625381248452
14848178 5 17988064695339194479
15099037 8 18341898488986557696
15183329 4 18337097987751109853
15188451 53 15769480028749403655
15239191 94 18342176652722363280
15537594 2 18338525243131349895
15880784 105 16415472791885600743
1798214 20 18409724079969857911
1798214 55 8934999282795820450
1813 80 18339658801149381093
18915474 69 18408326575337849878
193927 3 18272939310236193406
19784866 240 18411986844882373357
200 152 18408888429589320544
20281475 54 18410014295468890064
20291156 8 18412261739953362120
20403669 9 18342458131778205527
20645477 70 18187084009095109016
20739085 24 12535345706192605490
20775530 9 18050844713273137095
20871999 31 17385720262322603629
21634736 98 18338237171432622794
21713013 43 17967245390763261687
221490 88 18261679280496824914
22646028 28 18343302552555359306
23503958 8 17702950223407860706
235170 7 16226042297180778407
23559900 14 18337381733811094872
23596394 208 17458343052724104096
23598288 3 17704071772434289037
2838139 119 10809614952651225471
2871803 45 18187361034559482426
3004659 81 18408881854036562375
312423 11 18341063968372368360
339767 52 18411125931810591066
3472631 163 12396304759256201595
351380 3 18342744022023461607
4028521 119 13551475847483639070
4259306 186 18407757040751209975
44062 13 18263076622247175589
46194498 28 16806735177540475343
465052 167 18341901822018297047
559249 180 18269836424335619129
76465 3 18409444752787849802
7970288 3 18201717349273106702
960060 61 17967813855597089910

>  <PUBCHEM_SHAPE_MULTIPOLES>  (1) 
380.16
10.88
2.32
1.34
3.07
0.05
0.05
-7.43
-1.75
0.23
0.08
-0.84
0.05
-0.71

>  <PUBCHEM_SHAPE_SELFOVERLAP>  (1) 
787.409

>  <PUBCHEM_SHAPE_VOLUME>  (1) 
216.4

>  <PUBCHEM_COORDINATE_TYPE>  (1) 
2
5
10

$$$$
