35955
     RDKit          3D

 16 17  0  0  0  0  0  0  0  0999 V2000
   -0.3332    1.0067   -0.9163 S   0  0  0  0  0  0  0  0  0  0  0  0
   -0.1607    0.9921   -2.3550 O   0  0  0  0  0  0  0  0  0  0  0  0
   -0.7417    2.2097   -0.2154 O   0  0  0  0  0  0  0  0  0  0  0  0
   -1.6745   -2.5382    0.1160 O   0  0  0  0  0  0  0  0  0  0  0  0
   -1.3783   -0.2829   -0.4500 N   0  0  0  0  0  0  0  0  0  0  0  0
    1.2012    0.5065   -0.2129 C   0  0  0  0  0  0  0  0  0  0  0  0
    1.4706   -0.8552   -0.0642 C   0  0  0  0  0  0  0  0  0  0  0  0
    0.5235   -1.9041   -0.5668 C   0  0  0  0  0  0  0  0  0  0  0  0
   -0.9216   -1.6333   -0.2352 C   0  0  0  0  0  0  0  0  0  0  0  0
    2.0975    1.4844    0.2207 C   0  0  0  0  0  0  0  0  0  0  0  0
   -2.8340    0.0313   -0.4374 C   0  0  0  0  0  0  0  0  0  0  0  0
    2.6929   -1.2276    0.5107 C   0  0  0  0  0  0  0  0  0  0  0  0
    3.3019    1.0950    0.8017 C   0  0  0  0  0  0  0  0  0  0  0  0
    3.6006   -0.2587    0.9456 C   0  0  0  0  0  0  0  0  0  0  0  0
   -3.2497    0.4961    0.8869 C   0  0  0  0  0  0  0  0  0  0  0  0
   -3.5945    0.8780    1.9717 C   0  0  0  0  0  0  0  0  0  0  0  0
  1  2  2  0
  1  3  2  0
  1  5  1  0
  1  6  1  0
  4  9  2  0
  5  9  1  0
  5 11  1  0
  6  7  2  0
  6 10  1  0
  7  8  1  0
  7 12  1  0
  8  9  1  0
 10 13  2  0
 11 15  1  0
 12 14  2  0
 13 14  1  0
 15 16  3  0
M  END
>  <PUBCHEM_COMPOUND_CID>  (1) 
35955

>  <PUBCHEM_CONFORMER_RMSD>  (1) 
0.6

>  <PUBCHEM_CONFORMER_DIVERSEORDER>  (1) 
1
5
4
8
2
3
6
7

>  <PUBCHEM_MMFF94_PARTIAL_CHARGES>  (1) 
21
1 1.45
10 -0.15
11 0.56
12 -0.15
13 -0.15
14 -0.15
15 -0.2
16 -0.18
19 0.15
2 -0.65
22 0.15
23 0.15
24 0.15
25 0.18
3 -0.65
4 -0.57
5 -0.73
6 -0.01
7 -0.14
8 0.2
9 0.75

>  <PUBCHEM_EFFECTIVE_ROTOR_COUNT>  (1) 
1.4

>  <PUBCHEM_PHARMACOPHORE_FEATURES>  (1) 
6
1 16 hydrophobe
1 2 acceptor
1 3 acceptor
1 4 acceptor
6 1 5 6 7 8 9 rings
6 6 7 10 12 13 14 rings

>  <PUBCHEM_HEAVY_ATOM_COUNT>  (1) 
16

>  <PUBCHEM_ATOM_DEF_STEREO_COUNT>  (1) 
0

>  <PUBCHEM_ATOM_UDEF_STEREO_COUNT>  (1) 
0

>  <PUBCHEM_BOND_DEF_STEREO_COUNT>  (1) 
0

>  <PUBCHEM_BOND_UDEF_STEREO_COUNT>  (1) 
0

>  <PUBCHEM_ISOTOPIC_ATOM_COUNT>  (1) 
0

>  <PUBCHEM_COMPONENT_COUNT>  (1) 
1

>  <PUBCHEM_CACTVS_TAUTO_COUNT>  (1) 
1

>  <PUBCHEM_CONFORMER_ID>  (1) 
00008C7300000001

>  <PUBCHEM_MMFF94_ENERGY>  (1) 
31.6788

>  <PUBCHEM_FEATURE_SELFOVERLAP>  (1) 
30.481

>  <PUBCHEM_SHAPE_FINGERPRINT>  (1) 
11086676 242 18187651267064096200
11132069 177 18263066838538450464
11471102 22 18261679177122282273
12202030 40 14418691562200221491
12251169 10 18409727378488748274
12382932 28 18410571824798725649
12390115 104 17981047724185356824
12491281 212 18272093845712927346
12633257 1 18412255121635606410
13140716 1 18409726304921309554
13172582 1 18333734619545118487
13380535 21 18410859897320183918
15309172 13 18411694361777979898
15775835 57 17632300042865967905
16945 1 18409164385685984726
17844478 74 17822004277184936340
21501502 16 18338790247245726554
22959321 45 18260550064970155710
23184049 59 18408045091496729227
2334 1 18120366811926975526
23388829 49 17689988355442380166
23493267 7 16589138317130474133
23557571 272 16701194130433014335
2748010 2 18337665446713589350
427121 178 17701569271310656395
568465 68 16732988638904959611
6992083 37 18334857272514733559

>  <PUBCHEM_SHAPE_MULTIPOLES>  (1) 
310.53
5.62
2.15
1.41
0.6
0.72
-0.22
-1.23
3.43
0.12
-0.07
0.77
-0.53
-0.33

>  <PUBCHEM_SHAPE_SELFOVERLAP>  (1) 
644.672

>  <PUBCHEM_SHAPE_VOLUME>  (1) 
175.1

>  <PUBCHEM_COORDINATE_TYPE>  (1) 
2
5
10

$$$$
