35952
     RDKit          3D

 30 32  0  0  0  0  0  0  0  0999 V2000
    5.3028    3.3563    0.9676 O   0  0  0  0  0  0  0  0  0  0  0  0
    3.8406   -1.6421   -0.5153 O   0  0  0  0  0  0  0  0  0  0  0  0
    1.1511   -1.5364    0.2492 O   0  0  0  0  0  0  0  0  0  0  0  0
   -0.7569   -2.5168    2.0010 O   0  0  0  0  0  0  0  0  0  0  0  0
    0.3556   -0.1107   -1.9872 O   0  0  0  0  0  0  0  0  0  0  0  0
   -4.9533   -1.4480   -1.3989 O   0  0  0  0  0  0  0  0  0  0  0  0
    5.2261    0.8193   -0.3204 N   0  0  0  0  0  0  0  0  0  0  0  0
    5.7660    2.0077   -0.9955 C   0  0  0  0  0  0  0  0  0  0  0  0
    5.4103    0.9383    1.1326 C   0  0  0  0  0  0  0  0  0  0  0  0
    5.8592   -0.3971   -0.8258 C   0  0  0  0  0  0  0  0  0  0  0  0
    5.1000    3.2648   -0.4430 C   0  0  0  0  0  0  0  0  0  0  0  0
    4.7516    2.2202    1.6345 C   0  0  0  0  0  0  0  0  0  0  0  0
    5.2270   -1.6306   -0.2013 C   0  0  0  0  0  0  0  0  0  0  0  0
    3.1891   -2.7753    0.0421 C   0  0  0  0  0  0  0  0  0  0  0  0
    1.7140   -2.7189   -0.3059 C   0  0  0  0  0  0  0  0  0  0  0  0
   -0.1800   -1.3162    0.0111 C   0  0  0  0  0  0  0  0  0  0  0  0
   -1.1318   -1.8122    0.8970 C   0  0  0  0  0  0  0  0  0  0  0  0
   -0.5708   -0.5989   -1.1157 C   0  0  0  0  0  0  0  0  0  0  0  0
   -2.8840   -0.8703   -0.4742 C   0  0  0  0  0  0  0  0  0  0  0  0
   -2.4870   -1.5886    0.6537 C   0  0  0  0  0  0  0  0  0  0  0  0
   -1.9260   -0.3755   -1.3588 C   0  0  0  0  0  0  0  0  0  0  0  0
   -4.2972   -0.6376   -0.7280 C   0  0  0  0  0  0  0  0  0  0  0  0
   -5.0175    0.5626   -0.2057 C   0  0  0  0  0  0  0  0  0  0  0  0
   -4.3137    1.4784    0.5414 C   0  0  0  0  0  0  0  0  0  0  0  0
   -6.3551    0.7037   -0.4931 C   0  0  0  0  0  0  0  0  0  0  0  0
   -0.5188   -1.7731    3.1945 C   0  0  0  0  0  0  0  0  0  0  0  0
    0.8545    1.2013   -1.7347 C   0  0  0  0  0  0  0  0  0  0  0  0
   -4.9860    2.5990    1.0289 C   0  0  0  0  0  0  0  0  0  0  0  0
   -7.0272    1.8245   -0.0055 C   0  0  0  0  0  0  0  0  0  0  0  0
   -6.3427    2.7721    0.7555 C   0  0  0  0  0  0  0  0  0  0  0  0
  1 11  1  0
  1 12  1  0
  2 13  1  0
  2 14  1  0
  3 15  1  0
  3 16  1  0
  4 17  1  0
  4 26  1  0
  5 18  1  0
  5 27  1  0
  6 22  2  0
  7  8  1  0
  7  9  1  0
  7 10  1  0
  8 11  1  0
  9 12  1  0
 10 13  1  0
 14 15  1  0
 16 17  2  0
 16 18  1  0
 17 20  1  0
 18 21  2  0
 19 20  2  0
 19 21  1  0
 19 22  1  0
 22 23  1  0
 23 24  2  0
 23 25  1  0
 24 28  1  0
 25 29  2  0
 28 30  2  0
 29 30  1  0
M  END
>  <PUBCHEM_COMPOUND_CID>  (1) 
35952

>  <PUBCHEM_CONFORMER_RMSD>  (1) 
1.2

>  <PUBCHEM_CONFORMER_DIVERSEORDER>  (1) 
3
28
14
25
33
2
38
50
6
21
13
24
7
31
23
20
27
1
18
51
49
37
22
46
42
29
5
39
43
48
35
26
8
19
41
16
40
15
17
30
34
32
9
36
12
11
47
44
10
45
4

>  <PUBCHEM_MMFF94_PARTIAL_CHARGES>  (1) 
37
1 -0.56
10 0.27
11 0.28
12 0.28
13 0.28
14 0.28
15 0.28
16 0.08
17 0.08
18 0.08
19 0.09
2 -0.56
20 -0.15
21 -0.15
22 0.4
23 0.09
24 -0.15
25 -0.15
26 0.28
27 0.28
28 -0.15
29 -0.15
3 -0.36
30 -0.15
4 -0.36
47 0.15
48 0.15
49 0.15
5 -0.36
50 0.15
57 0.15
58 0.15
59 0.15
6 -0.57
7 -0.81
8 0.27
9 0.27

>  <PUBCHEM_EFFECTIVE_ROTOR_COUNT>  (1) 
12.2

>  <PUBCHEM_PHARMACOPHORE_FEATURES>  (1) 
10
1 1 acceptor
1 2 acceptor
1 3 acceptor
1 4 acceptor
1 5 acceptor
1 6 acceptor
1 7 cation
6 1 7 8 9 11 12 rings
6 16 17 18 19 20 21 rings
6 23 24 25 28 29 30 rings

>  <PUBCHEM_HEAVY_ATOM_COUNT>  (1) 
30

>  <PUBCHEM_ATOM_DEF_STEREO_COUNT>  (1) 
0

>  <PUBCHEM_ATOM_UDEF_STEREO_COUNT>  (1) 
0

>  <PUBCHEM_BOND_DEF_STEREO_COUNT>  (1) 
0

>  <PUBCHEM_BOND_UDEF_STEREO_COUNT>  (1) 
0

>  <PUBCHEM_ISOTOPIC_ATOM_COUNT>  (1) 
0

>  <PUBCHEM_COMPONENT_COUNT>  (1) 
1

>  <PUBCHEM_CACTVS_TAUTO_COUNT>  (1) 
1

>  <PUBCHEM_CONFORMER_ID>  (1) 
00008C7000000003

>  <PUBCHEM_MMFF94_ENERGY>  (1) 
112.9616

>  <PUBCHEM_FEATURE_SELFOVERLAP>  (1) 
50.763

>  <PUBCHEM_SHAPE_FINGERPRINT>  (1) 
10074138 170 16371301033495158219
10673678 19 18060138734664389310
10693767 8 10519694558360666389
10906281 52 17968396579670262550
11112241 14 18337106881757947882
11456790 92 18115868508532267434
12035758 1 16805334279378017743
12236239 1 18264770953198203303
12422481 6 17458339745430618356
12633257 1 16950840422893790550
12857493 111 17903078077562543635
12925494 130 18409450327397210176
13782708 43 10087924077242160327
13911987 19 15339121260231349373
14020679 6 17240771734616618200
14556957 393 15984832510015206123
14739800 52 18272930501369396169
14790565 3 18342739585263923927
15082195 135 17846782858465121746
15183329 4 17131837568407546816
15840311 113 18339928108784286021
16096371 109 16806147892160118930
20691028 202 18342455886059078625
21033648 29 18263362650622494722
21424621 283 18334580105643597539
21641784 216 15482397460579025003
22122407 14 18271816713280462488
23559900 14 17530688697862057662
2838139 119 18060135423234216749
34797466 226 17775008964202329799
3493558 16 17915749682040826344
3680242 22 17095235926384171762
394071 54 17530966925589915476
44555599 121 18272092634669423345
5104073 3 17967814959393739802
5265222 85 17775277318360328783
6328613 192 18343021047846368941
9981440 41 18265903642925653315

>  <PUBCHEM_SHAPE_MULTIPOLES>  (1) 
577.19
18.21
3.84
1.83
2.09
1.56
-0.98
16.32
0.2
-3.15
-1.28
-0.21
-0.45
-0.24

>  <PUBCHEM_SHAPE_SELFOVERLAP>  (1) 
1210.96

>  <PUBCHEM_SHAPE_VOLUME>  (1) 
326.9

>  <PUBCHEM_COORDINATE_TYPE>  (1) 
2
5
10

$$$$
