35954
     RDKit          3D

 16 17  0  0  0  0  0  0  0  0999 V2000
   -0.3000    1.1866    0.2062 S   0  0  0  0  0  0  0  0  0  0  0  0
   -0.4219    2.2312   -0.7937 O   0  0  0  0  0  0  0  0  0  0  0  0
   -0.5363    1.4537    1.6107 O   0  0  0  0  0  0  0  0  0  0  0  0
   -1.5172   -2.4833   -0.4880 O   0  0  0  0  0  0  0  0  0  0  0  0
   -1.2516   -0.1627   -0.2901 N   0  0  0  0  0  0  0  0  0  0  0  0
    1.3356    0.5485    0.0758 C   0  0  0  0  0  0  0  0  0  0  0  0
   -2.6235    0.1525   -0.7762 C   0  0  0  0  0  0  0  0  0  0  0  0
    1.5510   -0.8177    0.2659 C   0  0  0  0  0  0  0  0  0  0  0  0
    0.4384   -1.7416    0.6636 C   0  0  0  0  0  0  0  0  0  0  0  0
   -0.8375   -1.5319   -0.1109 C   0  0  0  0  0  0  0  0  0  0  0  0
   -3.6127    0.1408    0.3828 C   0  0  0  0  0  0  0  0  0  0  0  0
    2.3761    1.4169   -0.2575 C   0  0  0  0  0  0  0  0  0  0  0  0
    2.8595   -1.3033    0.1431 C   0  0  0  0  0  0  0  0  0  0  0  0
   -5.0386    0.4412   -0.0576 C   0  0  0  0  0  0  0  0  0  0  0  0
    3.6681    0.9135   -0.3877 C   0  0  0  0  0  0  0  0  0  0  0  0
    3.9106   -0.4442   -0.1865 C   0  0  0  0  0  0  0  0  0  0  0  0
  1  2  2  0
  1  3  2  0
  1  5  1  0
  1  6  1  0
  4 10  2  0
  5  7  1  0
  5 10  1  0
  6  8  2  0
  6 12  1  0
  7 11  1  0
  8  9  1  0
  8 13  1  0
  9 10  1  0
 11 14  1  0
 12 15  2  0
 13 16  2  0
 15 16  1  0
M  END
>  <PUBCHEM_COMPOUND_CID>  (1) 
35954

>  <PUBCHEM_CONFORMER_RMSD>  (1) 
0.6

>  <PUBCHEM_CONFORMER_DIVERSEORDER>  (1) 
1
5
9
3
8
6
4
7
2

>  <PUBCHEM_MMFF94_PARTIAL_CHARGES>  (1) 
18
1 1.45
10 0.75
12 -0.15
13 -0.15
15 -0.15
16 -0.15
2 -0.65
23 0.15
24 0.15
28 0.15
29 0.15
3 -0.65
4 -0.57
5 -0.73
6 -0.01
7 0.36
8 -0.14
9 0.2

>  <PUBCHEM_EFFECTIVE_ROTOR_COUNT>  (1) 
2.4

>  <PUBCHEM_PHARMACOPHORE_FEATURES>  (1) 
6
1 14 hydrophobe
1 2 acceptor
1 3 acceptor
1 4 acceptor
6 1 5 6 8 9 10 rings
6 6 8 12 13 15 16 rings

>  <PUBCHEM_HEAVY_ATOM_COUNT>  (1) 
16

>  <PUBCHEM_ATOM_DEF_STEREO_COUNT>  (1) 
0

>  <PUBCHEM_ATOM_UDEF_STEREO_COUNT>  (1) 
0

>  <PUBCHEM_BOND_DEF_STEREO_COUNT>  (1) 
0

>  <PUBCHEM_BOND_UDEF_STEREO_COUNT>  (1) 
0

>  <PUBCHEM_ISOTOPIC_ATOM_COUNT>  (1) 
0

>  <PUBCHEM_COMPONENT_COUNT>  (1) 
1

>  <PUBCHEM_CACTVS_TAUTO_COUNT>  (1) 
1

>  <PUBCHEM_CONFORMER_ID>  (1) 
00008C7200000001

>  <PUBCHEM_MMFF94_ENERGY>  (1) 
28.826

>  <PUBCHEM_FEATURE_SELFOVERLAP>  (1) 
30.481

>  <PUBCHEM_SHAPE_FINGERPRINT>  (1) 
10967382 1 18408884023195467870
11132069 177 18341044198811471602
11471102 20 18408601452732941511
12592029 89 18040996202601119123
13140716 1 18337101375847420482
13221675 6 18409728452177973990
14115302 16 18411425041759190124
14911166 2 18411705374416953374
14993402 34 18413671309813084541
15196674 1 18409449227737791679
15775835 57 18334297586725875390
16945 1 18337093601887854182
17844478 74 17749107772970624445
18186145 218 18409442592018366998
18511873 20 18341332274989385861
20645477 70 18336823096410832343
21267235 1 18409738330660952438
21501502 16 18265328602444381222
2334 1 18193272129482640162
23402539 116 18273489065928729766
23402655 69 18412543214777085764
23493267 7 17458615662872732001
23557571 272 18128828628003271102
23559900 14 18271806882833895368
25 1 18261107487042476994
2748010 2 18193837269953655022
3286 77 13190332500170999612
34934 24 18339356470016806016
353137 74 18337104575455403480
4990 188 18059861662002530111
528886 8 18335133228368681264
53655031 270 18342741771613267633
537710 114 18412265029829856049
53812653 8 18341333297054582217
69090 78 18413105073925066191
7832392 63 18339639065505350846

>  <PUBCHEM_SHAPE_MULTIPOLES>  (1) 
310.53
6.97
2.09
0.87
4.2
0.41
0.17
-0.74
-0.66
-0.2
-0.09
0.18
-0.18
-0.32

>  <PUBCHEM_SHAPE_SELFOVERLAP>  (1) 
637.134

>  <PUBCHEM_SHAPE_VOLUME>  (1) 
178.4

>  <PUBCHEM_COORDINATE_TYPE>  (1) 
2
5
10

$$$$
