35961
     RDKit          3D

 14 15  0  0  0  0  0  0  0  0999 V2000
   -0.9882   -2.4157    0.0736 S   0  0  0  0  0  0  0  0  0  0  0  0
    3.2789   -0.5418    0.2888 O   0  0  0  0  0  0  0  0  0  0  0  0
   -4.4874    0.9059    1.1384 O   0  0  0  0  0  0  0  0  0  0  0  0
   -0.3755    0.0684   -0.2957 N   0  0  0  0  0  0  0  0  0  0  0  0
   -2.6752   -0.4412   -0.5001 N   0  0  0  0  0  0  0  0  0  0  0  0
   -3.1217    0.8332   -0.7545 N   0  0  0  0  0  0  0  0  0  0  0  0
    0.7938   -0.6141   -0.0218 C   0  0  0  0  0  0  0  0  0  0  0  0
    2.0972    0.0737    0.0230 C   0  0  0  0  0  0  0  0  0  0  0  0
   -1.3787   -0.7807   -0.2717 C   0  0  0  0  0  0  0  0  0  0  0  0
    0.6621   -1.9681    0.2054 C   0  0  0  0  0  0  0  0  0  0  0  0
    2.2908    1.4181   -0.1945 C   0  0  0  0  0  0  0  0  0  0  0  0
    3.6809    1.6431   -0.0532 C   0  0  0  0  0  0  0  0  0  0  0  0
    4.2377    0.4201    0.2404 C   0  0  0  0  0  0  0  0  0  0  0  0
   -4.0148    1.3988    0.1218 C   0  0  0  0  0  0  0  0  0  0  0  0
  1  9  1  0
  1 10  1  0
  2  8  1  0
  2 13  1  0
  3 14  2  0
  4  7  1  0
  4  9  2  0
  5  6  1  0
  5  9  1  0
  6 14  1  0
  7  8  1  0
  7 10  2  0
  8 11  2  0
 11 12  1  0
 12 13  2  0
M  END
>  <PUBCHEM_COMPOUND_CID>  (1) 
35961

>  <PUBCHEM_CONFORMER_RMSD>  (1) 
0.6

>  <PUBCHEM_CONFORMER_DIVERSEORDER>  (1) 
2
24
35
17
43
10
39
33
18
7
13
44
34
36
19
40
32
8
9
21
20
26
25
16
30
11
31
15
12
5
14
37
38
41
6
23
3
22
28
29
42
1
4
27

>  <PUBCHEM_MMFF94_PARTIAL_CHARGES>  (1) 
21
1 -0.08
10 -0.11
11 -0.15
12 -0.15
13 -0.01
14 0.57
15 0.15
16 0.15
17 0.15
18 0.4
19 0.15
2 -0.28
20 0.37
21 0.06
3 -0.57
4 -0.57
5 -0.5
6 -0.41
7 0.23
8 0.14
9 0.46

>  <PUBCHEM_EFFECTIVE_ROTOR_COUNT>  (1) 
4

>  <PUBCHEM_PHARMACOPHORE_FEATURES>  (1) 
7
1 2 acceptor
1 3 acceptor
1 5 donor
1 6 donor
3 4 5 9 cation
5 1 4 7 9 10 rings
5 2 8 11 12 13 rings

>  <PUBCHEM_HEAVY_ATOM_COUNT>  (1) 
14

>  <PUBCHEM_ATOM_DEF_STEREO_COUNT>  (1) 
0

>  <PUBCHEM_ATOM_UDEF_STEREO_COUNT>  (1) 
0

>  <PUBCHEM_BOND_DEF_STEREO_COUNT>  (1) 
0

>  <PUBCHEM_BOND_UDEF_STEREO_COUNT>  (1) 
0

>  <PUBCHEM_ISOTOPIC_ATOM_COUNT>  (1) 
0

>  <PUBCHEM_COMPONENT_COUNT>  (1) 
1

>  <PUBCHEM_CACTVS_TAUTO_COUNT>  (1) 
4

>  <PUBCHEM_CONFORMER_ID>  (1) 
00008C7900000002

>  <PUBCHEM_MMFF94_ENERGY>  (1) 
10.0743

>  <PUBCHEM_FEATURE_SELFOVERLAP>  (1) 
37.056

>  <PUBCHEM_SHAPE_FINGERPRINT>  (1) 
10465860 228 18340489950066282898
10608611 8 18195240251191166024
11543360 7 15984528022614525421
122479 349 18408887368695481594
12346645 44 18411416189984450207
12644460 14 18042402443872067986
13380535 76 18410851066377105382
13583140 156 16371272390289428493
14123255 52 18410571756438159293
14123260 362 17703800201841489353
14252887 29 11963671076053709312
14325111 11 18335977683616941286
14897335 6 18411694387558502095
15775835 57 18409729568869431980
1741750 31 18341891930497364218
1798214 20 9511457801790311049
18186145 218 18411697669045066902
200 152 10087643688776007401
204376 136 18408606959281993491
20510252 161 18195247951598257059
20645477 56 18336545009983820636
21499 59 18411693262735824727
21524375 3 18411130351205221263
22182937 141 18340773761832159553
23402539 116 18059848480932618724
23402655 69 18201438116732826740
23500284 214 18410015459162057443
23559900 14 18201717388892351064
25 1 18413387618274663478
5104073 3 18189889984929735344
633830 44 18343302552381319054
6430166 295 18409724067316928176
7364860 26 18197214741661504582
81228 2 17755570891186820675

>  <PUBCHEM_SHAPE_MULTIPOLES>  (1) 
265.28
8.06
2.14
0.74
1.98
0.89
0.06
-5.56
1.17
0.64
0.1
0.42
-0.08
-0.37

>  <PUBCHEM_SHAPE_SELFOVERLAP>  (1) 
553.089

>  <PUBCHEM_SHAPE_VOLUME>  (1) 
152.3

>  <PUBCHEM_COORDINATE_TYPE>  (1) 
2
5
10

$$$$
