35960
     RDKit          3D

 13 13  0  0  0  0  0  0  0  0999 V2000
   -0.2972    2.5820    0.3194 O   0  0  0  0  0  0  0  0  0  0  0  0
   -1.9573   -1.9099    0.2542 O   0  0  0  0  0  0  0  0  0  0  0  0
   -2.4319    0.8174    0.3450 O   0  0  0  0  0  0  0  0  0  0  0  0
    1.4613   -0.6188    0.1717 C   0  0  0  0  0  0  0  0  0  0  0  0
   -0.0812    1.2376    0.2760 C   0  0  0  0  0  0  0  0  0  0  0  0
   -0.9187   -1.0283    0.2423 C   0  0  0  0  0  0  0  0  0  0  0  0
   -1.1538    0.3458    0.2882 C   0  0  0  0  0  0  0  0  0  0  0  0
    1.2263    0.7553    0.2175 C   0  0  0  0  0  0  0  0  0  0  0  0
    0.3888   -1.5106    0.1840 C   0  0  0  0  0  0  0  0  0  0  0  0
    2.8247   -1.1218    0.1107 C   0  0  0  0  0  0  0  0  0  0  0  0
   -0.4428    3.2557   -0.9292 C   0  0  0  0  0  0  0  0  0  0  0  0
   -2.4954   -2.2944   -1.0095 C   0  0  0  0  0  0  0  0  0  0  0  0
    3.8772   -0.5101   -0.4703 C   0  0  0  0  0  0  0  0  0  0  0  0
  1  5  1  0
  1 11  1  0
  2  6  1  0
  2 12  1  0
  3  7  1  0
  4  8  2  0
  4  9  1  0
  4 10  1  0
  5  7  2  0
  5  8  1  0
  6  7  1  0
  6  9  2  0
 10 13  2  0
M  END
>  <PUBCHEM_COMPOUND_CID>  (1) 
35960

>  <PUBCHEM_CONFORMER_RMSD>  (1) 
0.6

>  <PUBCHEM_CONFORMER_DIVERSEORDER>  (1) 
1
2
3

>  <PUBCHEM_MMFF94_PARTIAL_CHARGES>  (1) 
19
1 -0.36
10 -0.18
11 0.28
12 0.28
13 -0.3
14 0.15
15 0.15
16 0.15
17 0.45
2 -0.36
24 0.15
25 0.15
3 -0.53
4 0.03
5 0.08
6 0.08
7 0.08
8 -0.15
9 -0.15

>  <PUBCHEM_EFFECTIVE_ROTOR_COUNT>  (1) 
3

>  <PUBCHEM_PHARMACOPHORE_FEATURES>  (1) 
5
1 1 acceptor
1 13 hydrophobe
1 2 acceptor
1 3 donor
6 4 5 6 7 8 9 rings

>  <PUBCHEM_HEAVY_ATOM_COUNT>  (1) 
13

>  <PUBCHEM_ATOM_DEF_STEREO_COUNT>  (1) 
0

>  <PUBCHEM_ATOM_UDEF_STEREO_COUNT>  (1) 
0

>  <PUBCHEM_BOND_DEF_STEREO_COUNT>  (1) 
0

>  <PUBCHEM_BOND_UDEF_STEREO_COUNT>  (1) 
0

>  <PUBCHEM_ISOTOPIC_ATOM_COUNT>  (1) 
0

>  <PUBCHEM_COMPONENT_COUNT>  (1) 
1

>  <PUBCHEM_CACTVS_TAUTO_COUNT>  (1) 
2

>  <PUBCHEM_CONFORMER_ID>  (1) 
00008C7800000001

>  <PUBCHEM_MMFF94_ENERGY>  (1) 
56.0414

>  <PUBCHEM_FEATURE_SELFOVERLAP>  (1) 
25.371

>  <PUBCHEM_SHAPE_FINGERPRINT>  (1) 
1 1 17040352415718659868
11206711 2 18408600387644752126
12138202 97 18052257298009211510
13024252 1 17240779345198394306
13380535 220 18339643455273144093
13380535 76 17253988650219199273
14817 1 16379231638808755208
15490181 8 16896517590059805521
15669948 3 18337672997508682082
16945 1 18267015068581757266
193761 8 18194966472516294617
19868273 325 18411139155824750966
20588541 1 18199755751655962163
20645477 70 17690545812613340423
20711985 344 18336252458154539490
20871998 184 18271253720076908271
21040471 1 17906168447838122674
21160774 45 18265891363440347117
21524375 3 17612593324168038096
2334 1 18266741461932326906
23402539 116 18270953540828619807
23419403 2 16903489997345168977
23552423 10 17906737256079586171
23559900 14 18200309906629606706
241688 4 18410570712418027058
2748010 2 18339916133950961402
3071541 158 18118676858038265277
3071541 250 18122075452785406374
5255222 1 18269830917849916306
7364860 26 17838055162501456400
81228 2 18410856525427803106

>  <PUBCHEM_SHAPE_MULTIPOLES>  (1) 
249.93
4.08
3.16
0.81
3.4
2.28
-0.15
-2.42
-0.74
-2.06
-0.87
-0.17
0.03
-0.29

>  <PUBCHEM_SHAPE_SELFOVERLAP>  (1) 
515.776

>  <PUBCHEM_SHAPE_VOLUME>  (1) 
145.9

>  <PUBCHEM_COORDINATE_TYPE>  (1) 
2
5
10

$$$$
