35968
     RDKit          3D

 12 12  0  0  1  0  0  0  0  0999 V2000
   -0.3668   -0.7150   -0.9298 O   0  0  0  0  0  0  0  0  0  0  0  0
    0.1743    2.2946   -0.1546 O   0  0  0  0  0  0  0  0  0  0  0  0
   -1.9317   -0.0639    1.5800 O   0  0  0  0  0  0  0  0  0  0  0  0
    0.6182   -0.1069   -0.0650 C   0  0  0  0  0  0  0  0  0  0  0  0
   -0.0672    1.1060    0.5938 C   0  0  0  0  0  0  0  0  0  0  0  0
   -1.5435    0.7684    0.4967 C   0  0  0  0  0  0  0  0  0  0  0  0
   -1.6032    0.0117   -0.8249 C   0  0  0  0  0  0  0  0  0  0  0  0
    1.0158   -1.1664    0.9696 C   0  0  0  0  0  0  0  0  0  0  0  0
    1.8353    0.2512   -0.9194 C   0  0  0  0  0  0  0  0  0  0  0  0
   -2.7651   -0.9540   -0.9708 C   0  0  0  0  0  0  0  0  0  0  0  0
    1.7167   -2.3363    0.3121 C   0  0  0  0  0  0  0  0  0  0  0  0
    2.9172    0.9105   -0.0877 C   0  0  0  0  0  0  0  0  0  0  0  0
  1  4  1  0
  1  7  1  0
  2  5  1  0
  3  6  1  0
  4  5  1  0
  4  8  1  0
  4  9  1  0
  5  6  1  0
  6  7  1  0
  7 10  1  0
  8 11  1  0
  9 12  1  0
M  END
>  <PUBCHEM_COMPOUND_CID>  (1) 
35968

>  <PUBCHEM_CONFORMER_RMSD>  (1) 
0.6

>  <PUBCHEM_CONFORMER_DIVERSEORDER>  (1) 
5
10
16
4
2
12
11
25
19
21
9
18
15
26
17
24
8
22
3
7
14
1
20
6
13
23

>  <PUBCHEM_MMFF94_PARTIAL_CHARGES>  (1) 
9
1 -0.56
2 -0.68
29 0.4
3 -0.68
30 0.4
4 0.28
5 0.28
6 0.28
7 0.28

>  <PUBCHEM_EFFECTIVE_ROTOR_COUNT>  (1) 
3

>  <PUBCHEM_PHARMACOPHORE_FEATURES>  (1) 
8
1 1 acceptor
1 11 hydrophobe
1 12 hydrophobe
1 2 acceptor
1 2 donor
1 3 acceptor
1 3 donor
5 1 4 5 6 7 rings

>  <PUBCHEM_HEAVY_ATOM_COUNT>  (1) 
12

>  <PUBCHEM_ATOM_DEF_STEREO_COUNT>  (1) 
0

>  <PUBCHEM_ATOM_UDEF_STEREO_COUNT>  (1) 
3

>  <PUBCHEM_BOND_DEF_STEREO_COUNT>  (1) 
0

>  <PUBCHEM_BOND_UDEF_STEREO_COUNT>  (1) 
0

>  <PUBCHEM_ISOTOPIC_ATOM_COUNT>  (1) 
0

>  <PUBCHEM_COMPONENT_COUNT>  (1) 
1

>  <PUBCHEM_CACTVS_TAUTO_COUNT>  (1) 
1

>  <PUBCHEM_CONFORMER_ID>  (1) 
00008C8000000005

>  <PUBCHEM_MMFF94_ENERGY>  (1) 
34.9335

>  <PUBCHEM_FEATURE_SELFOVERLAP>  (1) 
40.597

>  <PUBCHEM_SHAPE_FINGERPRINT>  (1) 
12423570 1 16445346561445491587
12491281 212 16987464025337878080
13024252 1 17895483634257467100
137420 1 13899638248728448630
14128692 85 18268139860471797230
16945 1 18335431213030950548
18185500 45 18341323435714660078
20082192 1 17629767768623486558
21040471 1 17057249843658579817
21922407 69 18339919312168913570
22344851 341 17551487256505240587
23236772 104 17988086706666453281
23419403 2 16601459483239174224
23552423 10 18265327322428108430
241688 4 18201438141885601440
29004967 10 18113628879875111584
369184 2 18335142007376994052
5084963 1 18127690641457005637
68250623 7 18266739078104164641

>  <PUBCHEM_SHAPE_MULTIPOLES>  (1) 
229.35
3.43
1.9
1.18
0.16
0.24
0.16
0.42
-0.54
-0.88
0.16
0.44
0.13
-0.56

>  <PUBCHEM_SHAPE_SELFOVERLAP>  (1) 
455.625

>  <PUBCHEM_SHAPE_VOLUME>  (1) 
138.2

>  <PUBCHEM_COORDINATE_TYPE>  (1) 
2
5
10

$$$$
