35962
     RDKit          3D

 22 23  0  0  1  0  0  0  0  0999 V2000
   -4.4238   -3.7544   -1.2845 Cl  0  0  0  0  0  0  0  0  0  0  0  0
   -1.6385   -1.1046   -0.0769 N   0  0  0  0  0  0  0  0  0  0  0  0
    5.0254    2.1854   -1.4602 N   0  0  0  0  0  0  0  0  0  0  0  0
   -3.4916    4.1722    0.3671 N   0  0  0  0  0  0  0  0  0  0  0  0
    1.9566   -1.9072    1.0353 C   0  0  0  0  0  0  0  0  0  0  0  0
    0.4481   -1.5778    1.1128 C   0  0  0  0  0  0  0  0  0  0  0  0
   -0.2359   -1.3986   -0.2440 C   0  0  0  0  0  0  0  0  0  0  0  0
    2.7755   -0.8151    0.3695 C   0  0  0  0  0  0  0  0  0  0  0  0
    2.4962   -2.2056    2.4403 C   0  0  0  0  0  0  0  0  0  0  0  0
   -2.5854   -2.2196   -0.0108 C   0  0  0  0  0  0  0  0  0  0  0  0
   -2.1017    0.2143    0.0348 C   0  0  0  0  0  0  0  0  0  0  0  0
    3.4890   -1.1161   -0.7743 C   0  0  0  0  0  0  0  0  0  0  0  0
    2.7846    0.4492    0.9259 C   0  0  0  0  0  0  0  0  0  0  0  0
   -3.2567   -2.4129   -1.3617 C   0  0  0  0  0  0  0  0  0  0  0  0
   -1.2019    1.2844   -0.0141 C   0  0  0  0  0  0  0  0  0  0  0  0
   -3.4673    0.4712    0.1954 C   0  0  0  0  0  0  0  0  0  0  0  0
    4.2414   -0.1132   -1.3858 C   0  0  0  0  0  0  0  0  0  0  0  0
    3.5369    1.4521    0.3143 C   0  0  0  0  0  0  0  0  0  0  0  0
    4.2653    1.1708   -0.8415 C   0  0  0  0  0  0  0  0  0  0  0  0
   -1.6626    2.5964    0.0964 C   0  0  0  0  0  0  0  0  0  0  0  0
   -3.9280    1.7833    0.3058 C   0  0  0  0  0  0  0  0  0  0  0  0
   -3.0256    2.8458    0.2564 C   0  0  0  0  0  0  0  0  0  0  0  0
  1 14  1  0
  2  7  1  0
  2 10  1  0
  2 11  1  0
  3 19  1  0
  4 22  1  0
  5  6  1  0
  5  8  1  0
  5  9  1  0
  6  7  1  0
  8 12  2  0
  8 13  1  0
 10 14  1  0
 11 15  2  0
 11 16  1  0
 12 17  1  0
 13 18  2  0
 15 20  1  0
 16 21  2  0
 17 19  2  0
 18 19  1  0
 20 22  2  0
 21 22  1  0
M  END
>  <PUBCHEM_COMPOUND_CID>  (1) 
35962

>  <PUBCHEM_CONFORMER_RMSD>  (1) 
0.8

>  <PUBCHEM_CONFORMER_DIVERSEORDER>  (1) 
2
50
150
125
6
27
81
73
148
46
139
52
19
4
74
146
82
65
83
78
79
1
64
95
32
67
69
112
36
130
137
105
11
131
44
56
118
77
104
126
58
103
37
127
66
145
57
90
16
91
75
15
5
71
24
92
96
23
133
123
138
122
8
55
109
144
59
85
134
140
116
3
135
121
70
99
113
84
54
97
141
62
40
147
68
42
107
21
110
142
106
132
20
111
136
100
29
63
108
129
86
7
30
117
53
87
17
22
41
31
93
39
88
34
28
61
89
124
143
45
33
114
119
49
48
76
47
25
80
98
72
151
128
12
120
94
60
43
38
35
26
149
13
9
51
115
102
101
14
18
10

>  <PUBCHEM_MMFF94_PARTIAL_CHARGES>  (1) 
32
1 -0.29
10 0.37
11 0.1
12 -0.15
13 -0.15
14 0.29
15 -0.15
16 -0.15
17 -0.15
18 -0.15
19 0.1
2 -0.84
20 -0.15
21 -0.15
22 0.1
3 -0.9
33 0.15
34 0.15
37 0.15
38 0.15
39 0.15
4 -0.9
40 0.15
41 0.15
42 0.15
43 0.4
44 0.4
45 0.4
46 0.4
5 0.14
7 0.37
8 -0.14

>  <PUBCHEM_EFFECTIVE_ROTOR_COUNT>  (1) 
7

>  <PUBCHEM_PHARMACOPHORE_FEATURES>  (1) 
8
1 2 cation
1 3 cation
1 3 donor
1 4 cation
1 4 donor
1 9 hydrophobe
6 11 15 16 20 21 22 rings
6 8 12 13 17 18 19 rings

>  <PUBCHEM_HEAVY_ATOM_COUNT>  (1) 
22

>  <PUBCHEM_ATOM_DEF_STEREO_COUNT>  (1) 
0

>  <PUBCHEM_ATOM_UDEF_STEREO_COUNT>  (1) 
1

>  <PUBCHEM_BOND_DEF_STEREO_COUNT>  (1) 
0

>  <PUBCHEM_BOND_UDEF_STEREO_COUNT>  (1) 
0

>  <PUBCHEM_ISOTOPIC_ATOM_COUNT>  (1) 
0

>  <PUBCHEM_COMPONENT_COUNT>  (1) 
1

>  <PUBCHEM_CACTVS_TAUTO_COUNT>  (1) 
1

>  <PUBCHEM_CONFORMER_ID>  (1) 
00008C7A00000002

>  <PUBCHEM_MMFF94_ENERGY>  (1) 
88.099

>  <PUBCHEM_FEATURE_SELFOVERLAP>  (1) 
40.596

>  <PUBCHEM_SHAPE_FINGERPRINT>  (1) 
10369192 42 15908800396676555730
10382601 240 17458631060725847792
10498660 4 18409725196698187292
10670039 82 18263367044194931252
10871710 139 18337115665187562405
10940486 97 18124021335391754682
12173636 292 18341321215527960407
12403259 118 17901376797760866217
12553582 1 18196922491197748311
12788726 201 18338507646988117099
13583140 156 16953373470018998499
1454969 45 18341897339127455233
14787075 74 17609217105895294490
14790565 3 18198345044764608265
14840074 17 18339091423759800097
15664445 248 17836065038203000689
15842332 3 18188475879057566443
20465049 17 17975998478615706914
20642791 35 18197209472253025283
21049683 271 17755296018408651583
21864079 5 18336828580735649848
22907989 373 18341035381433595527
23227448 37 18413390916999587597
235170 7 17632030744321839308
23557571 272 18130232669433001014
23558518 356 18188220891528531530
23559900 14 17770499733514131374
25147074 1 18188478099798121586
2637199 183 18191320294690533642
312423 11 18261382339190686778
340366 18 17980477854396121094
38570 142 17824571615877824358
46194498 28 17487631942629176100
474 4 17676499345261469124
5048184 11 18335426716443421376
633830 44 18041288707592136462
7097593 13 17682663039574480923
7399639 24 17629749330582196458
7615 1 18115849850456153642
7808743 9 18411985736797037912

>  <PUBCHEM_SHAPE_MULTIPOLES>  (1) 
439.68
10.01
4.46
1.46
3.94
1.39
0.3
1.51
-3.64
-6.61
-0.22
1.44
-0.99
-3.26

>  <PUBCHEM_SHAPE_SELFOVERLAP>  (1) 
904.778

>  <PUBCHEM_SHAPE_VOLUME>  (1) 
253.3

>  <PUBCHEM_COORDINATE_TYPE>  (1) 
2
5
10

$$$$
