35966
     RDKit          3D

 18 20  0  0  1  0  0  0  0  0999 V2000
    0.0858   -0.3931    2.5764 Cl  0  0  0  0  0  0  0  0  0  0  0  0
   -2.2144   -0.0658    0.4141 N   0  0  0  0  0  0  0  0  0  0  0  0
    0.5940    0.8156    0.1019 C   0  0  0  0  0  0  0  0  0  0  0  0
    1.6100   -1.4669    0.5629 C   0  0  0  0  0  0  0  0  0  0  0  0
    1.9219   -0.3962   -1.7003 C   0  0  0  0  0  0  0  0  0  0  0  0
    3.1119    0.5454    0.3075 C   0  0  0  0  0  0  0  0  0  0  0  0
    0.3882   -0.5542    0.8147 C   0  0  0  0  0  0  0  0  0  0  0  0
    0.7279    0.5321   -1.4202 C   0  0  0  0  0  0  0  0  0  0  0  0
    1.9140    1.4719    0.5814 C   0  0  0  0  0  0  0  0  0  0  0  0
    1.7220   -1.7244   -0.9521 C   0  0  0  0  0  0  0  0  0  0  0  0
    2.9101   -0.7903    1.0409 C   0  0  0  0  0  0  0  0  0  0  0  0
    3.2101    0.2784   -1.2032 C   0  0  0  0  0  0  0  0  0  0  0  0
   -0.5851    1.7724    0.3274 C   0  0  0  0  0  0  0  0  0  0  0  0
   -1.9031    1.2034   -0.2006 C   0  0  0  0  0  0  0  0  0  0  0  0
   -3.0427    2.1873    0.0431 C   0  0  0  0  0  0  0  0  0  0  0  0
   -3.4359   -0.6427   -0.1427 C   0  0  0  0  0  0  0  0  0  0  0  0
   -3.7250   -1.9945    0.5037 C   0  0  0  0  0  0  0  0  0  0  0  0
   -3.2898   -0.7784   -1.6550 C   0  0  0  0  0  0  0  0  0  0  0  0
  1  7  1  0
  2 14  1  0
  2 16  1  0
  3  7  1  0
  3  8  1  0
  3  9  1  0
  3 13  1  0
  4  7  1  0
  4 10  1  0
  4 11  1  0
  5  8  1  0
  5 10  1  0
  5 12  1  0
  6  9  1  0
  6 11  1  0
  6 12  1  0
 13 14  1  0
 14 15  1  0
 16 17  1  0
 16 18  1  0
M  END
>  <PUBCHEM_COMPOUND_CID>  (1) 
35966

>  <PUBCHEM_CONFORMER_RMSD>  (1) 
0.6

>  <PUBCHEM_CONFORMER_DIVERSEORDER>  (1) 
2
9
1
8
7
12
5
6
4
3
10
11

>  <PUBCHEM_MMFF94_PARTIAL_CHARGES>  (1) 
6
1 -0.29
14 0.27
16 0.27
2 -0.9
39 0.36
7 0.29

>  <PUBCHEM_EFFECTIVE_ROTOR_COUNT>  (1) 
5.2

>  <PUBCHEM_PHARMACOPHORE_FEATURES>  (1) 
7
1 2 cation
1 2 donor
3 16 17 18 hydrophobe
6 3 4 5 7 8 10 rings
6 3 4 6 7 9 11 rings
6 3 5 6 8 9 12 rings
6 4 5 6 10 11 12 rings

>  <PUBCHEM_HEAVY_ATOM_COUNT>  (1) 
18

>  <PUBCHEM_ATOM_DEF_STEREO_COUNT>  (1) 
0

>  <PUBCHEM_ATOM_UDEF_STEREO_COUNT>  (1) 
4

>  <PUBCHEM_BOND_DEF_STEREO_COUNT>  (1) 
0

>  <PUBCHEM_BOND_UDEF_STEREO_COUNT>  (1) 
0

>  <PUBCHEM_ISOTOPIC_ATOM_COUNT>  (1) 
0

>  <PUBCHEM_COMPONENT_COUNT>  (1) 
1

>  <PUBCHEM_CACTVS_TAUTO_COUNT>  (1) 
1

>  <PUBCHEM_CONFORMER_ID>  (1) 
00008C7E00000002

>  <PUBCHEM_MMFF94_ENERGY>  (1) 
49.1342

>  <PUBCHEM_FEATURE_SELFOVERLAP>  (1) 
47.975

>  <PUBCHEM_SHAPE_FINGERPRINT>  (1) 
10863032 1 18341892927219732192
10948715 1 18339359781684887848
121448 382 17385723646688027209
12202030 40 17346030078682204839
12491281 212 18335428919618823448
12553582 1 18341614879933138911
12654215 9 12468633937319334132
13296908 3 17775288227054299517
13464513 79 17986395713902747959
13705890 14 17603862333948749454
14115302 16 18118969092045481677
14181834 199 16443067188464161326
16752209 62 18265034874680219085
16945 1 18261673765690368496
17980427 23 18113899364600562092
18186145 218 12468632807526624917
19862831 5 17894620444915775839
20442098 301 17917990577269611325
20645477 70 18056466477960666293
21069387 34 17530682074362370530
21452121 71 18121500146702068226
21501502 16 18334294219387216688
22892500 29 12324512194770183934
23402539 116 18187931651478030756
23419403 2 15448004015402383890
23493267 7 17488190296250106880
23557571 272 18272649008948793161
23559900 14 18127129667847988630
2871803 45 18412260675060059303
296302 2 16877939460076059884
3286 77 18334562556417606656
568465 68 17131821058442335010
7832392 63 18264491672221800021

>  <PUBCHEM_SHAPE_MULTIPOLES>  (1) 
367.32
5.98
1.97
1.75
3.8
0.22
-0.29
-1.19
1.06
1.19
-0.15
-0.44
-0.43
-0.05

>  <PUBCHEM_SHAPE_SELFOVERLAP>  (1) 
759.185

>  <PUBCHEM_SHAPE_VOLUME>  (1) 
212.1

>  <PUBCHEM_COORDINATE_TYPE>  (1) 
2
5
10

$$$$
