35976
     RDKit          3D

 17 19  0  0  1  0  0  0  0  0999 V2000
   -0.6302   -2.8236    0.6406 Cl  0  0  0  0  0  0  0  0  0  0  0  0
    2.5155    0.7108    0.3891 N   0  0  0  0  0  0  0  0  0  0  0  0
   -0.1719   -0.3133   -0.5136 C   0  0  0  0  0  0  0  0  0  0  0  0
   -1.9613   -0.5099    1.2790 C   0  0  0  0  0  0  0  0  0  0  0  0
   -2.6195    0.0442   -1.0938 C   0  0  0  0  0  0  0  0  0  0  0  0
   -1.4126    1.7526    0.3063 C   0  0  0  0  0  0  0  0  0  0  0  0
   -0.5887   -1.0364    0.8019 C   0  0  0  0  0  0  0  0  0  0  0  0
   -1.2689   -0.4987   -1.5933 C   0  0  0  0  0  0  0  0  0  0  0  0
   -0.0664    1.2044   -0.1965 C   0  0  0  0  0  0  0  0  0  0  0  0
   -3.0330   -0.6985    0.1871 C   0  0  0  0  0  0  0  0  0  0  0  0
   -1.8285    0.9958    1.5784 C   0  0  0  0  0  0  0  0  0  0  0  0
   -2.4781    1.5429   -0.7812 C   0  0  0  0  0  0  0  0  0  0  0  0
    1.1818   -0.8055   -1.0445 C   0  0  0  0  0  0  0  0  0  0  0  0
    2.3146   -0.6791   -0.0205 C   0  0  0  0  0  0  0  0  0  0  0  0
    3.6185   -1.2107   -0.6141 C   0  0  0  0  0  0  0  0  0  0  0  0
    2.8946    1.5321   -0.7598 C   0  0  0  0  0  0  0  0  0  0  0  0
    3.5342    0.7930    1.4349 C   0  0  0  0  0  0  0  0  0  0  0  0
  1  7  1  0
  2 14  1  0
  2 16  1  0
  2 17  1  0
  3  7  1  0
  3  8  1  0
  3  9  1  0
  3 13  1  0
  4  7  1  0
  4 10  1  0
  4 11  1  0
  5  8  1  0
  5 10  1  0
  5 12  1  0
  6  9  1  0
  6 11  1  0
  6 12  1  0
 13 14  1  0
 14 15  1  0
M  END
>  <PUBCHEM_COMPOUND_CID>  (1) 
35976

>  <PUBCHEM_CONFORMER_RMSD>  (1) 
0.6

>  <PUBCHEM_CONFORMER_DIVERSEORDER>  (1) 
2
3
5
4
1
9
6
7
10
8

>  <PUBCHEM_MMFF94_PARTIAL_CHARGES>  (1) 
6
1 -0.29
14 0.27
16 0.27
17 0.27
2 -0.81
7 0.29

>  <PUBCHEM_EFFECTIVE_ROTOR_COUNT>  (1) 
4.2

>  <PUBCHEM_PHARMACOPHORE_FEATURES>  (1) 
5
1 2 cation
6 3 4 5 7 8 10 rings
6 3 4 6 7 9 11 rings
6 3 5 6 8 9 12 rings
6 4 5 6 10 11 12 rings

>  <PUBCHEM_HEAVY_ATOM_COUNT>  (1) 
17

>  <PUBCHEM_ATOM_DEF_STEREO_COUNT>  (1) 
0

>  <PUBCHEM_ATOM_UDEF_STEREO_COUNT>  (1) 
4

>  <PUBCHEM_BOND_DEF_STEREO_COUNT>  (1) 
0

>  <PUBCHEM_BOND_UDEF_STEREO_COUNT>  (1) 
0

>  <PUBCHEM_ISOTOPIC_ATOM_COUNT>  (1) 
0

>  <PUBCHEM_COMPONENT_COUNT>  (1) 
1

>  <PUBCHEM_CACTVS_TAUTO_COUNT>  (1) 
1

>  <PUBCHEM_CONFORMER_ID>  (1) 
00008C8800000002

>  <PUBCHEM_MMFF94_ENERGY>  (1) 
64.3513

>  <PUBCHEM_FEATURE_SELFOVERLAP>  (1) 
37.822

>  <PUBCHEM_SHAPE_FINGERPRINT>  (1) 
10863032 1 18060701663364175677
10948715 1 17986396590344919809
11132069 177 18342174505085767075
12491281 212 17632588110316816721
12916754 54 17561361777260956798
12932764 1 17632302284881100500
13024252 1 10881409742108773717
13296908 3 18408887325935498422
13764800 53 18198912594073388042
14223421 5 18191595361423174824
15309172 13 18041290871770201050
15775835 57 17418094347225995608
15852999 172 18338219540439041398
16945 1 18338237196875346557
18186145 218 18335413517776214877
18981168 100 18335433408297445756
200 152 17560508530441456029
20510252 161 18409452509266749409
20525323 117 17918273147225715717
21524375 3 17698458628140736369
23236772 104 18060417993622221153
2334 1 18411704270388941980
23402539 116 18265315352559905063
23419403 2 17408504600277604403
23493267 7 16588884360098879978
23559900 14 18408322168764785678
2748010 2 18335148539784725215
3286 77 17704352147909187410
369184 2 18409169896128882429
45790113 50 18341623602383794327
5084963 1 18271526407587162236
7364860 26 17834107550812549575
74978 22 18259987076446509254
81228 2 18118695549704906210

>  <PUBCHEM_SHAPE_MULTIPOLES>  (1) 
346.74
5.32
2.08
1.46
4.17
0.7
-0.13
-0.8
-0.16
-0.17
-0.25
-0.24
-0.07
0.4

>  <PUBCHEM_SHAPE_SELFOVERLAP>  (1) 
722.18

>  <PUBCHEM_SHAPE_VOLUME>  (1) 
198.4

>  <PUBCHEM_COORDINATE_TYPE>  (1) 
2
5
10

$$$$
