35974
     RDKit          3D

 21 24  0  0  1  0  0  0  0  0999 V2000
    1.0083    2.9925   -0.2985 N   0  0  0  0  0  0  0  0  0  0  0  0
    0.8609    0.1930    0.6562 C   0  0  0  0  0  0  0  0  0  0  0  0
    0.7300   -1.5841   -1.1643 C   0  0  0  0  0  0  0  0  0  0  0  0
    0.0033   -0.3640   -0.5327 C   0  0  0  0  0  0  0  0  0  0  0  0
    1.9377   -2.0834    1.0000 C   0  0  0  0  0  0  0  0  0  0  0  0
    2.9487   -0.4827   -0.6518 C   0  0  0  0  0  0  0  0  0  0  0  0
    1.2175   -0.9094    1.6830 C   0  0  0  0  0  0  0  0  0  0  0  0
    2.2096    0.6801    0.0394 C   0  0  0  0  0  0  0  0  0  0  0  0
    1.0590   -2.6652   -0.1181 C   0  0  0  0  0  0  0  0  0  0  0  0
    2.0642   -1.0814   -1.7607 C   0  0  0  0  0  0  0  0  0  0  0  0
    3.2520   -1.5720    0.3882 C   0  0  0  0  0  0  0  0  0  0  0  0
    0.1777    1.3746    1.3571 C   0  0  0  0  0  0  0  0  0  0  0  0
   -1.4926   -0.5818   -0.3265 C   0  0  0  0  0  0  0  0  0  0  0  0
   -0.1665    2.5052    0.3860 C   0  0  0  0  0  0  0  0  0  0  0  0
   -2.3855   -0.2378   -1.3362 C   0  0  0  0  0  0  0  0  0  0  0  0
   -1.9525   -1.1224    0.8698 C   0  0  0  0  0  0  0  0  0  0  0  0
   -0.8441    3.6540    1.1258 C   0  0  0  0  0  0  0  0  0  0  0  0
   -3.7532   -0.4367   -1.1475 C   0  0  0  0  0  0  0  0  0  0  0  0
   -3.3202   -1.3213    1.0586 C   0  0  0  0  0  0  0  0  0  0  0  0
    0.6665    4.0215   -1.2778 C   0  0  0  0  0  0  0  0  0  0  0  0
   -4.2206   -0.9785    0.0499 C   0  0  0  0  0  0  0  0  0  0  0  0
  1 14  1  0
  1 20  1  0
  2  4  1  0
  2  7  1  0
  2  8  1  0
  2 12  1  0
  3  4  1  0
  3  9  1  0
  3 10  1  0
  4 13  1  0
  5  7  1  0
  5  9  1  0
  5 11  1  0
  6  8  1  0
  6 10  1  0
  6 11  1  0
 12 14  1  0
 13 15  2  0
 13 16  1  0
 14 17  1  0
 15 18  1  0
 16 19  2  0
 18 21  2  0
 19 21  1  0
M  END
>  <PUBCHEM_COMPOUND_CID>  (1) 
35974

>  <PUBCHEM_CONFORMER_RMSD>  (1) 
0.8

>  <PUBCHEM_CONFORMER_DIVERSEORDER>  (1) 
1
12
10
6
9
4
8
3
2
13
5
11
7

>  <PUBCHEM_MMFF94_PARTIAL_CHARGES>  (1) 
16
1 -0.9
13 -0.14
14 0.27
15 -0.15
16 -0.15
18 -0.15
19 -0.15
20 0.27
21 -0.15
39 0.15
4 0.14
40 0.15
44 0.36
45 0.15
46 0.15
50 0.15

>  <PUBCHEM_EFFECTIVE_ROTOR_COUNT>  (1) 
5.2

>  <PUBCHEM_PHARMACOPHORE_FEATURES>  (1) 
7
1 1 cation
1 1 donor
6 13 15 16 18 19 21 rings
6 2 3 4 5 7 9 rings
6 2 3 4 6 8 10 rings
6 2 5 6 7 8 11 rings
6 3 5 6 9 10 11 rings

>  <PUBCHEM_HEAVY_ATOM_COUNT>  (1) 
21

>  <PUBCHEM_ATOM_DEF_STEREO_COUNT>  (1) 
0

>  <PUBCHEM_ATOM_UDEF_STEREO_COUNT>  (1) 
4

>  <PUBCHEM_BOND_DEF_STEREO_COUNT>  (1) 
0

>  <PUBCHEM_BOND_UDEF_STEREO_COUNT>  (1) 
0

>  <PUBCHEM_ISOTOPIC_ATOM_COUNT>  (1) 
0

>  <PUBCHEM_COMPONENT_COUNT>  (1) 
1

>  <PUBCHEM_CACTVS_TAUTO_COUNT>  (1) 
1

>  <PUBCHEM_CONFORMER_ID>  (1) 
00008C8600000001

>  <PUBCHEM_MMFF94_ENERGY>  (1) 
79.4732

>  <PUBCHEM_FEATURE_SELFOVERLAP>  (1) 
47.92

>  <PUBCHEM_SHAPE_FINGERPRINT>  (1) 
10165383 225 17255143640382876745
104564 63 18200033910917790312
10863032 1 16732985336165311914
10948715 1 17614006613031504352
11578080 2 16807539951110971823
11680611 10 17757546357289565834
116883 192 18128538154785102021
12553582 1 18339090302119175715
12788726 201 17902500493964045497
13134695 92 18338783594077433335
13140716 1 18269551654591803393
13681431 1 18412829118049909189
14181834 199 17915725660330411193
14787075 74 17970069044472761538
14955137 171 18124310773189431048
15210252 30 18261114019856916629
15238133 3 18263366897965322861
16945 1 18263640822052033886
17357779 13 17916289559640650685
1813 80 18059031517696362510
20600515 1 18412548690860634731
21041028 32 18341903991108591721
21452121 99 17620468013429223652
21524375 3 17474665530139500101
2255824 54 18268427017705967431
23419403 2 17125307495803982617
23557571 272 18197772202851988574
238 59 17978769531512021559
2748010 2 18269534109703100848
3052486 1 17905042556780242505
31174 14 18264207096727003787
3729539 64 17900851497722948716
404807 78 17028531644436925981
6438718 38 17699841831111546485
6786 2 17324950520700757541
7364860 26 18266457801001950177
7495541 125 18187651361844007707
81228 2 18124312701434587249

>  <PUBCHEM_SHAPE_MULTIPOLES>  (1) 
427.19
5.08
3.9
1.56
4.24
5.69
0.08
-3.58
0.53
-0.75
0.02
-0.04
0.04
-0.25

>  <PUBCHEM_SHAPE_SELFOVERLAP>  (1) 
922.62

>  <PUBCHEM_SHAPE_VOLUME>  (1) 
228.7

>  <PUBCHEM_COORDINATE_TYPE>  (1) 
2
5
10

$$$$
