35970
     RDKit          3D

  9  9  0  0  0  0  0  0  0  0999 V2000
   -1.4733    1.5762    0.5932 S   0  0  0  0  0  0  0  0  0  0  0  0
   -1.4698   -1.5869    0.4955 S   0  0  0  0  0  0  0  0  0  0  0  0
   -2.7359    0.0019    0.2642 S   0  0  0  0  0  0  0  0  0  0  0  0
    1.3920    0.0120    0.3775 N   0  0  0  0  0  0  0  0  0  0  0  0
    0.4944    0.0364   -0.7835 C   0  0  0  0  0  0  0  0  0  0  0  0
   -0.3211    1.3478   -0.8047 C   0  0  0  0  0  0  0  0  0  0  0  0
   -0.3217   -1.2713   -0.8880 C   0  0  0  0  0  0  0  0  0  0  0  0
    2.3187    1.1379    0.3201 C   0  0  0  0  0  0  0  0  0  0  0  0
    2.1167   -1.2539    0.4257 C   0  0  0  0  0  0  0  0  0  0  0  0
  1  3  1  0
  1  6  1  0
  2  3  1  0
  2  7  1  0
  4  5  1  0
  4  8  1  0
  4  9  1  0
  5  6  1  0
  5  7  1  0
M  END
>  <PUBCHEM_COMPOUND_CID>  (1) 
35970

>  <PUBCHEM_CONFORMER_RMSD>  (1) 
0.4

>  <PUBCHEM_CONFORMER_DIVERSEORDER>  (1) 
4
1
2
3
5
7
6

>  <PUBCHEM_MMFF94_PARTIAL_CHARGES>  (1) 
8
1 -0.23
2 -0.23
4 -0.81
5 0.27
6 0.23
7 0.23
8 0.27
9 0.27

>  <PUBCHEM_EFFECTIVE_ROTOR_COUNT>  (1) 
2.2

>  <PUBCHEM_PHARMACOPHORE_FEATURES>  (1) 
2
1 4 cation
6 1 2 3 5 6 7 rings

>  <PUBCHEM_HEAVY_ATOM_COUNT>  (1) 
9

>  <PUBCHEM_ATOM_DEF_STEREO_COUNT>  (1) 
0

>  <PUBCHEM_ATOM_UDEF_STEREO_COUNT>  (1) 
0

>  <PUBCHEM_BOND_DEF_STEREO_COUNT>  (1) 
0

>  <PUBCHEM_BOND_UDEF_STEREO_COUNT>  (1) 
0

>  <PUBCHEM_ISOTOPIC_ATOM_COUNT>  (1) 
0

>  <PUBCHEM_COMPONENT_COUNT>  (1) 
1

>  <PUBCHEM_CACTVS_TAUTO_COUNT>  (1) 
1

>  <PUBCHEM_CONFORMER_ID>  (1) 
00008C8200000004

>  <PUBCHEM_MMFF94_ENERGY>  (1) 
8.5151

>  <PUBCHEM_FEATURE_SELFOVERLAP>  (1) 
10.148

>  <PUBCHEM_SHAPE_FINGERPRINT>  (1) 
137420 1 15533598074878153350
15076042 46 18341894052189960072
16945 1 18335422429975914925
18185500 45 18050289472584733487
20653085 51 13542459903675490026
20653091 64 17462851213422152707
21040471 1 18267319650530019141
241688 4 17832727676793944529
29004967 10 15936403480987771004
5084963 1 18198613341947477305
66348 1 18411143545259988177
75552 356 18336549433741905409

>  <PUBCHEM_SHAPE_MULTIPOLES>  (1) 
191.78
3.38
1.95
0.98
0.15
0.02
0.12
-0.07
-0.91
-0.25
-0.13
-0.03
0.01
-0.06

>  <PUBCHEM_SHAPE_SELFOVERLAP>  (1) 
329.425

>  <PUBCHEM_SHAPE_VOLUME>  (1) 
130.5

>  <PUBCHEM_COORDINATE_TYPE>  (1) 
2
5
10

$$$$
