35972
     RDKit          3D

 18 20  0  0  1  0  0  0  0  0999 V2000
    3.0194   -0.6818    0.3982 N   0  0  0  0  0  0  0  0  0  0  0  0
    0.3538    0.7129    0.2139 C   0  0  0  0  0  0  0  0  0  0  0  0
   -0.9842   -1.3998    0.6788 C   0  0  0  0  0  0  0  0  0  0  0  0
   -1.2744   -0.1705   -1.5292 C   0  0  0  0  0  0  0  0  0  0  0  0
   -2.1522    0.8593    0.6247 C   0  0  0  0  0  0  0  0  0  0  0  0
    0.3668   -0.6789    0.8846 C   0  0  0  0  0  0  0  0  0  0  0  0
    0.0801    0.5352   -1.2962 C   0  0  0  0  0  0  0  0  0  0  0  0
   -0.7869    1.5525    0.8312 C   0  0  0  0  0  0  0  0  0  0  0  0
   -1.2415   -1.5516   -0.8371 C   0  0  0  0  0  0  0  0  0  0  0  0
   -2.1085   -0.5343    1.2904 C   0  0  0  0  0  0  0  0  0  0  0  0
   -2.3952    0.6798   -0.8904 C   0  0  0  0  0  0  0  0  0  0  0  0
    1.6994    1.4138    0.4274 C   0  0  0  0  0  0  0  0  0  0  0  0
   -0.9548   -2.7771    1.3493 C   0  0  0  0  0  0  0  0  0  0  0  0
   -1.5304   -0.3386   -3.0304 C   0  0  0  0  0  0  0  0  0  0  0  0
   -3.2713    1.7040    1.2424 C   0  0  0  0  0  0  0  0  0  0  0  0
    2.8835    0.6540   -0.1826 C   0  0  0  0  0  0  0  0  0  0  0  0
    4.1810    1.4266    0.0510 C   0  0  0  0  0  0  0  0  0  0  0  0
    4.1155   -1.4056   -0.2261 C   0  0  0  0  0  0  0  0  0  0  0  0
  1 16  1  0
  1 18  1  0
  2  6  1  0
  2  7  1  0
  2  8  1  0
  2 12  1  0
  3  6  1  0
  3  9  1  0
  3 10  1  0
  3 13  1  0
  4  7  1  0
  4  9  1  0
  4 11  1  0
  4 14  1  0
  5  8  1  0
  5 10  1  0
  5 11  1  0
  5 15  1  0
 12 16  1  0
 16 17  1  0
M  END
>  <PUBCHEM_COMPOUND_CID>  (1) 
35972

>  <PUBCHEM_CONFORMER_RMSD>  (1) 
0.6

>  <PUBCHEM_CONFORMER_DIVERSEORDER>  (1) 
5
1
2
4
3
6

>  <PUBCHEM_MMFF94_PARTIAL_CHARGES>  (1) 
4
1 -0.9
16 0.27
18 0.27
46 0.36

>  <PUBCHEM_EFFECTIVE_ROTOR_COUNT>  (1) 
4.2

>  <PUBCHEM_PHARMACOPHORE_FEATURES>  (1) 
6
1 1 cation
1 1 donor
6 2 3 4 6 7 9 rings
6 2 3 5 6 8 10 rings
6 2 4 5 7 8 11 rings
6 3 4 5 9 10 11 rings

>  <PUBCHEM_HEAVY_ATOM_COUNT>  (1) 
18

>  <PUBCHEM_ATOM_DEF_STEREO_COUNT>  (1) 
0

>  <PUBCHEM_ATOM_UDEF_STEREO_COUNT>  (1) 
1

>  <PUBCHEM_BOND_DEF_STEREO_COUNT>  (1) 
0

>  <PUBCHEM_BOND_UDEF_STEREO_COUNT>  (1) 
0

>  <PUBCHEM_ISOTOPIC_ATOM_COUNT>  (1) 
0

>  <PUBCHEM_COMPONENT_COUNT>  (1) 
1

>  <PUBCHEM_CACTVS_TAUTO_COUNT>  (1) 
1

>  <PUBCHEM_CONFORMER_ID>  (1) 
00008C8400000005

>  <PUBCHEM_MMFF94_ENERGY>  (1) 
68.2645

>  <PUBCHEM_FEATURE_SELFOVERLAP>  (1) 
42.838

>  <PUBCHEM_SHAPE_FINGERPRINT>  (1) 
10863032 1 18412551989727567843
10948715 1 18199756843005059833
11322862 65 18187090563157505346
12173636 292 18334014973525042756
12403814 3 16877944979035246980
12423570 1 11011618315759207291
12491281 212 17917712387563333633
12592029 89 17417543401690420463
12932764 1 17346038986771593320
13024252 1 12829472775566455905
14614273 12 17604136142567248458
14817 1 12296212758747349263
15309172 13 17968377853332698657
15906896 17 18059860588455826079
16945 1 17986689085875142565
1813 80 16590288638269230963
18186145 218 18186517683856321736
18981168 100 12830306110933370826
19868273 293 17346597460905024164
19868273 325 16081367504909393261
19930381 70 17766289669148125582
20602899 9 17970882626957878255
20645476 183 18265918962768465308
21330990 113 17533797999915302803
21486144 27 18186239537294857028
21524375 3 17986960643836209937
2306618 200 17750218374172563304
23419403 2 17471557198215029061
23559900 14 18410577272009416026
23728640 28 17632293449996398246
2748010 2 17096915880818585110
298252 57 17417530194739792745
5706482 22 17131836409045678565
5845 1 11045879376889689311
598444 67 18188498951705762890
6443956 14 17181665498322393683
68419 9 17555412242892098343
69090 78 17703506588833655505
74978 22 18335701663338308928
81228 2 17460320086026020362
9981440 41 17338681162042990888

>  <PUBCHEM_SHAPE_MULTIPOLES>  (1) 
365.45
5.47
2.14
1.88
7.04
0.85
1.48
-1.22
-0.5
-0.24
-0.92
-1.66
0.39
-0.22

>  <PUBCHEM_SHAPE_SELFOVERLAP>  (1) 
770.185

>  <PUBCHEM_SHAPE_VOLUME>  (1) 
202.2

>  <PUBCHEM_COORDINATE_TYPE>  (1) 
2
5
10

$$$$
