35988
     RDKit          3D

 21 24  0  0  0  0  0  0  0  0999 V2000
    2.2586    0.4964   -0.0347 N   0  0  0  0  0  0  0  0  0  0  0  0
   -2.7228    0.5746   -0.0568 C   0  0  0  0  0  0  0  0  0  0  0  0
   -4.0670   -1.0213    1.3823 C   0  0  0  0  0  0  0  0  0  0  0  0
   -5.2562    0.6520   -0.0796 C   0  0  0  0  0  0  0  0  0  0  0  0
   -4.0532   -1.3016   -1.1222 C   0  0  0  0  0  0  0  0  0  0  0  0
   -2.7810   -0.1812    1.2919 C   0  0  0  0  0  0  0  0  0  0  0  0
   -3.9670    1.4875   -0.1659 C   0  0  0  0  0  0  0  0  0  0  0  0
   -2.7674   -0.4606   -1.2057 C   0  0  0  0  0  0  0  0  0  0  0  0
   -5.2873   -0.0930    1.2653 C   0  0  0  0  0  0  0  0  0  0  0  0
   -4.0903   -2.0368    0.2278 C   0  0  0  0  0  0  0  0  0  0  0  0
   -5.2735   -0.3719   -1.2266 C   0  0  0  0  0  0  0  0  0  0  0  0
   -1.4422    1.4092   -0.1431 C   0  0  0  0  0  0  0  0  0  0  0  0
   -0.2031    0.5287   -0.0018 C   0  0  0  0  0  0  0  0  0  0  0  0
    1.0899    1.3253   -0.1412 C   0  0  0  0  0  0  0  0  0  0  0  0
    3.4872    1.2647   -0.2426 C   0  0  0  0  0  0  0  0  0  0  0  0
    4.7164    0.4080   -0.0941 C   0  0  0  0  0  0  0  0  0  0  0  0
    5.3124    0.2782    1.1524 C   0  0  0  0  0  0  0  0  0  0  0  0
    5.2365   -0.2395   -1.2061 C   0  0  0  0  0  0  0  0  0  0  0  0
    6.4515   -0.5151    1.2900 C   0  0  0  0  0  0  0  0  0  0  0  0
    6.3755   -1.0329   -1.0687 C   0  0  0  0  0  0  0  0  0  0  0  0
    6.9830   -1.1707    0.1794 C   0  0  0  0  0  0  0  0  0  0  0  0
  1 14  1  0
  1 15  1  0
  2  6  1  0
  2  7  1  0
  2  8  1  0
  2 12  1  0
  3  6  1  0
  3  9  1  0
  3 10  1  0
  4  7  1  0
  4  9  1  0
  4 11  1  0
  5  8  1  0
  5 10  1  0
  5 11  1  0
 12 13  1  0
 13 14  1  0
 15 16  1  0
 16 17  2  0
 16 18  1  0
 17 19  1  0
 18 20  2  0
 19 21  2  0
 20 21  1  0
M  END
>  <PUBCHEM_COMPOUND_CID>  (1) 
35988

>  <PUBCHEM_CONFORMER_RMSD>  (1) 
0.8

>  <PUBCHEM_CONFORMER_DIVERSEORDER>  (1) 
1
8
4
5
7
2
6
3

>  <PUBCHEM_MMFF94_PARTIAL_CHARGES>  (1) 
15
1 -0.9
14 0.27
15 0.41
16 -0.14
17 -0.15
18 -0.15
19 -0.15
20 -0.15
21 -0.15
43 0.36
46 0.15
47 0.15
48 0.15
49 0.15
50 0.15

>  <PUBCHEM_EFFECTIVE_ROTOR_COUNT>  (1) 
7.2

>  <PUBCHEM_PHARMACOPHORE_FEATURES>  (1) 
7
1 1 cation
1 1 donor
6 16 17 18 19 20 21 rings
6 2 3 4 6 7 9 rings
6 2 3 5 6 8 10 rings
6 2 4 5 7 8 11 rings
6 3 4 5 9 10 11 rings

>  <PUBCHEM_HEAVY_ATOM_COUNT>  (1) 
21

>  <PUBCHEM_ATOM_DEF_STEREO_COUNT>  (1) 
0

>  <PUBCHEM_ATOM_UDEF_STEREO_COUNT>  (1) 
0

>  <PUBCHEM_BOND_DEF_STEREO_COUNT>  (1) 
0

>  <PUBCHEM_BOND_UDEF_STEREO_COUNT>  (1) 
0

>  <PUBCHEM_ISOTOPIC_ATOM_COUNT>  (1) 
0

>  <PUBCHEM_COMPONENT_COUNT>  (1) 
1

>  <PUBCHEM_CACTVS_TAUTO_COUNT>  (1) 
1

>  <PUBCHEM_CONFORMER_ID>  (1) 
00008C9400000001

>  <PUBCHEM_MMFF94_ENERGY>  (1) 
48.838

>  <PUBCHEM_FEATURE_SELFOVERLAP>  (1) 
48.039

>  <PUBCHEM_SHAPE_FINGERPRINT>  (1) 
10 15 13901903432071606860
10076449 9 8646478598011947153
10670039 82 11097844173941895166
11315181 36 17131830988881464081
11524674 6 18273215300751222503
11545043 162 18272646840291301080
12166972 35 16515693255604131900
12507557 5 11815897860147536011
12516196 113 17489867142024925352
12596602 18 16056879139429342414
12616971 3 18342181102076724308
13288520 33 17385445440745976289
13533116 47 16343430514639690398
13631057 29 10375569505183197349
13668630 136 17530687589575171050
13914758 101 17917709085588155101
1420 363 18408606959366350648
14251752 14 17022615351716212972
14251764 18 15051726496143033800
14528608 73 13045942417578029224
14848160 23 17917990577396315496
14933364 13 12540697003103405596
15183329 4 16370441142619439672
15188451 53 17274532239316149159
15348495 7 17489582407241623818
15716309 27 18272651247154086384
15788980 27 18412827997168952940
15799311 1 17458920249136943802
17093844 174 18131064922731784209
17780758 139 17489872643793323737
17844677 252 18273216396062860800
17857418 61 18408037403816557602
17870717 6 17458344160857237083
18222031 100 18333170566450143356
18927931 339 18260833700410387813
19377110 9 13830129486237675884
19489759 90 18344144778615554505
20281389 69 10592044648635386974
21150785 3 14779274128823996330
21267235 1 17603875533237857729
21623969 137 17203328901726071326
220451 1 16515404058186447872
22061861 79 16805038519545698150
2297311 6 16008749117503355541
23035841 295 17822012003672852873
23081809 10 18131355245188293116
23198884 109 12901544637348727705
23402539 116 18260265252382207245
23522609 53 17751954383112049828
23559900 14 18041559264282309453
2767999 5 10231754479364410870
2916195 48 9871747979645596100
29717793 49 16950282880699528278
300161 21 10952050039857500844
3004659 81 17312823771684192128
312425 54 17418382376338910034
34797466 226 13479142280765224594
351380 3 18261110772992859568
3663271 9 16056879135318913494
5104073 3 17845375612182511953
531348 171 16298652902828229651
53794403 172 8069155841050507566
542803 24 11818989686554847388
543368 44 8358258137836765559
559249 180 18411979148754737581
5718773 13 18127967714820680319
59755656 215 18334574603679786326
960060 61 16081089277824802372

>  <PUBCHEM_SHAPE_MULTIPOLES>  (1) 
427.19
19.88
1.53
1.35
27.94
0.16
-0.12
6.27
-0.86
-0.81
0.09
-0.24
0.35
0.18

>  <PUBCHEM_SHAPE_SELFOVERLAP>  (1) 
912.797

>  <PUBCHEM_SHAPE_VOLUME>  (1) 
230.2

>  <PUBCHEM_COORDINATE_TYPE>  (1) 
2
5
10

$$$$
