35980
     RDKit          3D

 20 22  0  0  1  0  0  0  0  0999 V2000
    0.2210    2.9647    0.3286 Cl  0  0  0  0  0  0  0  0  0  0  0  0
   -2.8877   -0.5912    0.3327 N   0  0  0  0  0  0  0  0  0  0  0  0
   -0.1835    0.3662   -0.5933 C   0  0  0  0  0  0  0  0  0  0  0  0
    1.5763    0.7026    1.2301 C   0  0  0  0  0  0  0  0  0  0  0  0
    2.2820   -0.0310   -1.1078 C   0  0  0  0  0  0  0  0  0  0  0  0
    1.0301   -1.6479    0.3988 C   0  0  0  0  0  0  0  0  0  0  0  0
    0.2086    1.1953    0.6673 C   0  0  0  0  0  0  0  0  0  0  0  0
    0.9303    0.4705   -1.6640 C   0  0  0  0  0  0  0  0  0  0  0  0
   -0.3035   -1.1207   -0.1690 C   0  0  0  0  0  0  0  0  0  0  0  0
    2.6669    0.8025    0.1353 C   0  0  0  0  0  0  0  0  0  0  0  0
    1.4228   -0.7907    1.6196 C   0  0  0  0  0  0  0  0  0  0  0  0
    2.1232   -1.5070   -0.6821 C   0  0  0  0  0  0  0  0  0  0  0  0
   -1.5289    0.8120   -1.1894 C   0  0  0  0  0  0  0  0  0  0  0  0
    2.0110    1.4884    2.4780 C   0  0  0  0  0  0  0  0  0  0  0  0
    3.3697    0.0918   -2.1804 C   0  0  0  0  0  0  0  0  0  0  0  0
    0.8838   -3.1168    0.8110 C   0  0  0  0  0  0  0  0  0  0  0  0
   -2.6800    0.7629   -0.1807 C   0  0  0  0  0  0  0  0  0  0  0  0
   -3.9721    1.2429   -0.8402 C   0  0  0  0  0  0  0  0  0  0  0  0
   -3.2427   -1.5009   -0.7557 C   0  0  0  0  0  0  0  0  0  0  0  0
   -3.9273   -0.5936    1.3610 C   0  0  0  0  0  0  0  0  0  0  0  0
  1  7  1  0
  2 17  1  0
  2 19  1  0
  2 20  1  0
  3  7  1  0
  3  8  1  0
  3  9  1  0
  3 13  1  0
  4  7  1  0
  4 10  1  0
  4 11  1  0
  4 14  1  0
  5  8  1  0
  5 10  1  0
  5 12  1  0
  5 15  1  0
  6  9  1  0
  6 11  1  0
  6 12  1  0
  6 16  1  0
 13 17  1  0
 17 18  1  0
M  END
>  <PUBCHEM_COMPOUND_CID>  (1) 
35980

>  <PUBCHEM_CONFORMER_RMSD>  (1) 
0.6

>  <PUBCHEM_CONFORMER_DIVERSEORDER>  (1) 
1
10
9
6
2
8
7
3
4
5

>  <PUBCHEM_MMFF94_PARTIAL_CHARGES>  (1) 
6
1 -0.29
17 0.27
19 0.27
2 -0.81
20 0.27
7 0.29

>  <PUBCHEM_EFFECTIVE_ROTOR_COUNT>  (1) 
4.2

>  <PUBCHEM_PHARMACOPHORE_FEATURES>  (1) 
5
1 2 cation
6 3 4 5 7 8 10 rings
6 3 4 6 7 9 11 rings
6 3 5 6 8 9 12 rings
6 4 5 6 10 11 12 rings

>  <PUBCHEM_HEAVY_ATOM_COUNT>  (1) 
20

>  <PUBCHEM_ATOM_DEF_STEREO_COUNT>  (1) 
0

>  <PUBCHEM_ATOM_UDEF_STEREO_COUNT>  (1) 
4

>  <PUBCHEM_BOND_DEF_STEREO_COUNT>  (1) 
0

>  <PUBCHEM_BOND_UDEF_STEREO_COUNT>  (1) 
0

>  <PUBCHEM_ISOTOPIC_ATOM_COUNT>  (1) 
0

>  <PUBCHEM_COMPONENT_COUNT>  (1) 
1

>  <PUBCHEM_CACTVS_TAUTO_COUNT>  (1) 
1

>  <PUBCHEM_CONFORMER_ID>  (1) 
00008C8C00000001

>  <PUBCHEM_MMFF94_ENERGY>  (1) 
90.4364

>  <PUBCHEM_FEATURE_SELFOVERLAP>  (1) 
37.698

>  <PUBCHEM_SHAPE_FINGERPRINT>  (1) 
10064457 181 18051728639112027371
10366900 7 18187374280903281403
10863032 1 18114475461079156414
10948715 1 18191022503138756036
11067466 332 18260265256703347011
11086676 242 17274268235907624160
11578080 2 17902769891973313524
12423570 1 17197125671590974630
12596599 1 17847062211828240759
12716301 132 18118682360234464410
13140716 1 18190736428209815171
13224815 77 18260260863511011295
13464513 79 17461748339172834923
14115302 16 18118679911807452909
14178342 30 18336809962511299153
14817 1 10734506102456196130
15001771 113 17686899419310629590
15238133 3 17841998780235548049
15848702 105 17242756400417770990
16945 1 17096101275993945828
17980427 23 17024838603072478204
1813 80 15122695543288603988
18186145 218 18130796676016630535
18981168 100 15409747341532493263
20602899 9 17975455457611564302
20691752 17 18264487458953412535
21503847 285 17561095691484305705
21524375 3 17197670994703467864
23402539 116 18410572899210612444
23419403 2 13612262189381203482
23493267 7 17240494614530978171
23526113 38 18126869272269904566
23559900 14 17897154733097128351
2748010 2 18340753871738482253
298252 57 17459774668566665078
3797600 57 16879649278019507963
394222 165 17095249150420067476
495365 180 18125695951887629005
5337951 7 18130232669749154530
5845 1 14815821168991700488
74978 22 17703785908227166727

>  <PUBCHEM_SHAPE_MULTIPOLES>  (1) 
408.48
5.51
2.48
1.92
5.65
0.38
0.24
0.11
-0.92
-0.37
0.77
-1.33
-0.37
0.58

>  <PUBCHEM_SHAPE_SELFOVERLAP>  (1) 
852.154

>  <PUBCHEM_SHAPE_VOLUME>  (1) 
235.3

>  <PUBCHEM_COORDINATE_TYPE>  (1) 
2
5
10

$$$$
