35998
     RDKit          3D

 14 16  0  0  0  0  0  0  0  0999 V2000
    4.9735    0.7120   -0.0035 N   0  0  0  0  0  0  0  0  0  0  0  0
    0.1469   -0.4808   -0.0050 C   0  0  0  0  0  0  0  0  0  0  0  0
   -1.5443    0.9503   -1.2363 C   0  0  0  0  0  0  0  0  0  0  0  0
   -2.3020   -1.1337   -0.0388 C   0  0  0  0  0  0  0  0  0  0  0  0
   -1.5605    0.8799    1.2828 C   0  0  0  0  0  0  0  0  0  0  0  0
   -0.0999    0.4198   -1.2385 C   0  0  0  0  0  0  0  0  0  0  0  0
   -0.8556   -1.6585   -0.0443 C   0  0  0  0  0  0  0  0  0  0  0  0
   -0.1162    0.3494    1.2738 C   0  0  0  0  0  0  0  0  0  0  0  0
   -2.5200   -0.2378   -1.2695 C   0  0  0  0  0  0  0  0  0  0  0  0
   -1.7821    1.7657    0.0456 C   0  0  0  0  0  0  0  0  0  0  0  0
   -2.5361   -0.3078    1.2370 C   0  0  0  0  0  0  0  0  0  0  0  0
    1.5847   -1.0067   -0.0104 C   0  0  0  0  0  0  0  0  0  0  0  0
    2.5900    0.1404   -0.0104 C   0  0  0  0  0  0  0  0  0  0  0  0
    4.0216   -0.3923    0.0175 C   0  0  0  0  0  0  0  0  0  0  0  0
  1 14  1  0
  2  6  1  0
  2  7  1  0
  2  8  1  0
  2 12  1  0
  3  6  1  0
  3  9  1  0
  3 10  1  0
  4  7  1  0
  4  9  1  0
  4 11  1  0
  5  8  1  0
  5 10  1  0
  5 11  1  0
 12 13  1  0
 13 14  1  0
M  END
>  <PUBCHEM_COMPOUND_CID>  (1) 
35998

>  <PUBCHEM_CONFORMER_RMSD>  (1) 
0.6

>  <PUBCHEM_CONFORMER_DIVERSEORDER>  (1) 
1

>  <PUBCHEM_MMFF94_PARTIAL_CHARGES>  (1) 
4
1 -0.99
14 0.27
36 0.36
37 0.36

>  <PUBCHEM_EFFECTIVE_ROTOR_COUNT>  (1) 
4.2

>  <PUBCHEM_PHARMACOPHORE_FEATURES>  (1) 
6
1 1 cation
1 1 donor
6 2 3 4 6 7 9 rings
6 2 3 5 6 8 10 rings
6 2 4 5 7 8 11 rings
6 3 4 5 9 10 11 rings

>  <PUBCHEM_HEAVY_ATOM_COUNT>  (1) 
14

>  <PUBCHEM_ATOM_DEF_STEREO_COUNT>  (1) 
0

>  <PUBCHEM_ATOM_UDEF_STEREO_COUNT>  (1) 
0

>  <PUBCHEM_BOND_DEF_STEREO_COUNT>  (1) 
0

>  <PUBCHEM_BOND_UDEF_STEREO_COUNT>  (1) 
0

>  <PUBCHEM_ISOTOPIC_ATOM_COUNT>  (1) 
0

>  <PUBCHEM_COMPONENT_COUNT>  (1) 
1

>  <PUBCHEM_CACTVS_TAUTO_COUNT>  (1) 
1

>  <PUBCHEM_CONFORMER_ID>  (1) 
00008C9E00000001

>  <PUBCHEM_MMFF94_ENERGY>  (1) 
28.5553

>  <PUBCHEM_FEATURE_SELFOVERLAP>  (1) 
42.962

>  <PUBCHEM_SHAPE_FINGERPRINT>  (1) 
10948715 1 18050568439633112457
11315181 36 14418131842769127372
12423570 1 11603114790804115431
12491281 212 18042680611428353252
13024252 1 14201400478045313231
13214271 11 17240483611056783422
14142880 1 18114461150095775589
14817 1 8524162137771982657
15061688 2 16662315214200709309
15309172 13 18260551112989960522
15775835 57 18187643553297512104
16945 1 18411136952543399363
18186145 218 17203886362732361026
200 152 18410003364386640830
20525323 117 18187647976913451362
2306618 200 18336260163405126032
23402539 116 11169908407877767875
23419403 2 18049156975982534515
369184 2 18272371923539331123
4175511 318 16774081730647157424

>  <PUBCHEM_SHAPE_MULTIPOLES>  (1) 
283.13
5.76
1.42
1.3
10.07
0
0.02
0.56
0.01
-0.65
-0.01
-0.93
0.23
-0.01

>  <PUBCHEM_SHAPE_SELFOVERLAP>  (1) 
598.191

>  <PUBCHEM_SHAPE_VOLUME>  (1) 
152.5

>  <PUBCHEM_COORDINATE_TYPE>  (1) 
2
5
10

$$$$
