35994
     RDKit          3D

 15 17  0  0  0  0  0  0  0  0999 V2000
    3.6771    0.0471   -0.2819 N   0  0  0  0  0  0  0  0  0  0  0  0
   -0.1035   -0.3335   -0.2438 C   0  0  0  0  0  0  0  0  0  0  0  0
   -2.5043   -1.1163   -0.4639 C   0  0  0  0  0  0  0  0  0  0  0  0
   -1.8081    0.2416    1.5417 C   0  0  0  0  0  0  0  0  0  0  0  0
   -1.9549    1.3290   -0.7270 C   0  0  0  0  0  0  0  0  0  0  0  0
   -1.0311   -1.4722   -0.7299 C   0  0  0  0  0  0  0  0  0  0  0  0
   -0.3369   -0.1182    1.2704 C   0  0  0  0  0  0  0  0  0  0  0  0
   -0.4832    0.9663   -0.9921 C   0  0  0  0  0  0  0  0  0  0  0  0
   -2.7087   -0.9016    1.0449 C   0  0  0  0  0  0  0  0  0  0  0  0
   -2.8546    0.1804   -1.2124 C   0  0  0  0  0  0  0  0  0  0  0  0
   -2.1620    1.5316    0.7832 C   0  0  0  0  0  0  0  0  0  0  0  0
    1.3611   -0.6911   -0.5100 C   0  0  0  0  0  0  0  0  0  0  0  0
    2.2911    0.4021   -0.0009 C   0  0  0  0  0  0  0  0  0  0  0  0
    4.0402   -1.1946    0.4035 C   0  0  0  0  0  0  0  0  0  0  0  0
    4.5779    1.1296    0.1180 C   0  0  0  0  0  0  0  0  0  0  0  0
  1 13  1  0
  1 14  1  0
  1 15  1  0
  2  6  1  0
  2  7  1  0
  2  8  1  0
  2 12  1  0
  3  6  1  0
  3  9  1  0
  3 10  1  0
  4  7  1  0
  4  9  1  0
  4 11  1  0
  5  8  1  0
  5 10  1  0
  5 11  1  0
 12 13  1  0
M  END
>  <PUBCHEM_COMPOUND_CID>  (1) 
35994

>  <PUBCHEM_CONFORMER_RMSD>  (1) 
0.6

>  <PUBCHEM_CONFORMER_DIVERSEORDER>  (1) 
1

>  <PUBCHEM_MMFF94_PARTIAL_CHARGES>  (1) 
4
1 -0.81
13 0.27
14 0.27
15 0.27

>  <PUBCHEM_EFFECTIVE_ROTOR_COUNT>  (1) 
4.2

>  <PUBCHEM_PHARMACOPHORE_FEATURES>  (1) 
5
1 1 cation
6 2 3 4 6 7 9 rings
6 2 3 5 6 8 10 rings
6 2 4 5 7 8 11 rings
6 3 4 5 9 10 11 rings

>  <PUBCHEM_HEAVY_ATOM_COUNT>  (1) 
15

>  <PUBCHEM_ATOM_DEF_STEREO_COUNT>  (1) 
0

>  <PUBCHEM_ATOM_UDEF_STEREO_COUNT>  (1) 
0

>  <PUBCHEM_BOND_DEF_STEREO_COUNT>  (1) 
0

>  <PUBCHEM_BOND_UDEF_STEREO_COUNT>  (1) 
0

>  <PUBCHEM_ISOTOPIC_ATOM_COUNT>  (1) 
0

>  <PUBCHEM_COMPONENT_COUNT>  (1) 
1

>  <PUBCHEM_CACTVS_TAUTO_COUNT>  (1) 
1

>  <PUBCHEM_CONFORMER_ID>  (1) 
00008C9A00000001

>  <PUBCHEM_MMFF94_ENERGY>  (1) 
41.4301

>  <PUBCHEM_FEATURE_SELFOVERLAP>  (1) 
37.888

>  <PUBCHEM_SHAPE_FINGERPRINT>  (1) 
10948715 1 18123754154186731905
11132069 177 17313101943208586060
12173636 292 17989491788032331984
12423570 1 9636526944860249545
12916754 54 18412544306147425054
12932764 1 18410017632874490470
13024252 1 15646773392685773967
13214271 11 17967533492943049108
13296908 3 17894633643350321814
14144814 61 18343302565793728038
14289901 80 18334855052359416136
14817 1 12870090509329412305
15309172 13 18412267229143372454
15775835 57 18411420587877941528
16945 1 18131357435737307831
18186145 218 18059862761978225270
200 152 18272923947111736991
20279233 1 16515399677641481178
20525323 117 18272655631819810559
2306618 200 18273211963223568481
23402539 116 18040430010638485431
23419403 2 17557400374827031967
23559900 14 17458336421763961178
3248919 1 17561365054695387358
369184 2 17676210160617846009
4175511 318 16200437927044464353

>  <PUBCHEM_SHAPE_MULTIPOLES>  (1) 
303.71
6.68
1.48
1.29
9.89
0.07
0.25
0.35
0.29
-0.25
-0.08
-0.97
0.06
-0.07

>  <PUBCHEM_SHAPE_SELFOVERLAP>  (1) 
638.788

>  <PUBCHEM_SHAPE_VOLUME>  (1) 
166.5

>  <PUBCHEM_COORDINATE_TYPE>  (1) 
2
5
10

$$$$
