36006
     RDKit          3D

 16 18  0  0  0  0  0  0  0  0999 V2000
    3.9000    0.1914    0.2962 N   0  0  0  0  0  0  0  0  0  0  0  0
   -0.4147   -0.2430    0.2941 C   0  0  0  0  0  0  0  0  0  0  0  0
   -2.0540    1.3967   -0.7302 C   0  0  0  0  0  0  0  0  0  0  0  0
   -2.5191   -1.0775   -0.8458 C   0  0  0  0  0  0  0  0  0  0  0  0
   -2.6843    0.1342    1.3578 C   0  0  0  0  0  0  0  0  0  0  0  0
   -0.5689    1.1011   -0.4563 C   0  0  0  0  0  0  0  0  0  0  0  0
   -1.0328   -1.3663   -0.5718 C   0  0  0  0  0  0  0  0  0  0  0  0
   -1.1975   -0.1580    1.6258 C   0  0  0  0  0  0  0  0  0  0  0  0
   -2.6459    0.2645   -1.5859 C   0  0  0  0  0  0  0  0  0  0  0  0
   -2.8102    1.4700    0.6066 C   0  0  0  0  0  0  0  0  0  0  0  0
   -3.2732   -0.9918    0.4916 C   0  0  0  0  0  0  0  0  0  0  0  0
    1.0639   -0.5337    0.5647 C   0  0  0  0  0  0  0  0  0  0  0  0
    1.8471   -0.6593   -0.7381 C   0  0  0  0  0  0  0  0  0  0  0  0
    3.3271   -0.9164   -0.4592 C   0  0  0  0  0  0  0  0  0  0  0  0
    3.7506    1.4485   -0.4391 C   0  0  0  0  0  0  0  0  0  0  0  0
    5.3120   -0.0603    0.5896 C   0  0  0  0  0  0  0  0  0  0  0  0
  1 14  1  0
  1 15  1  0
  1 16  1  0
  2  6  1  0
  2  7  1  0
  2  8  1  0
  2 12  1  0
  3  6  1  0
  3  9  1  0
  3 10  1  0
  4  7  1  0
  4  9  1  0
  4 11  1  0
  5  8  1  0
  5 10  1  0
  5 11  1  0
 12 13  1  0
 13 14  1  0
M  END
>  <PUBCHEM_COMPOUND_CID>  (1) 
36006

>  <PUBCHEM_CONFORMER_RMSD>  (1) 
0.6

>  <PUBCHEM_CONFORMER_DIVERSEORDER>  (1) 
2
1
3

>  <PUBCHEM_MMFF94_PARTIAL_CHARGES>  (1) 
4
1 -0.81
14 0.27
15 0.27
16 0.27

>  <PUBCHEM_EFFECTIVE_ROTOR_COUNT>  (1) 
5.2

>  <PUBCHEM_PHARMACOPHORE_FEATURES>  (1) 
5
1 1 cation
6 2 3 4 6 7 9 rings
6 2 3 5 6 8 10 rings
6 2 4 5 7 8 11 rings
6 3 4 5 9 10 11 rings

>  <PUBCHEM_HEAVY_ATOM_COUNT>  (1) 
16

>  <PUBCHEM_ATOM_DEF_STEREO_COUNT>  (1) 
0

>  <PUBCHEM_ATOM_UDEF_STEREO_COUNT>  (1) 
0

>  <PUBCHEM_BOND_DEF_STEREO_COUNT>  (1) 
0

>  <PUBCHEM_BOND_UDEF_STEREO_COUNT>  (1) 
0

>  <PUBCHEM_ISOTOPIC_ATOM_COUNT>  (1) 
0

>  <PUBCHEM_COMPONENT_COUNT>  (1) 
1

>  <PUBCHEM_CACTVS_TAUTO_COUNT>  (1) 
1

>  <PUBCHEM_CONFORMER_ID>  (1) 
00008CA600000002

>  <PUBCHEM_MMFF94_ENERGY>  (1) 
41.6254

>  <PUBCHEM_FEATURE_SELFOVERLAP>  (1) 
37.888

>  <PUBCHEM_SHAPE_FINGERPRINT>  (1) 
10948715 1 17842849815515824833
11132069 177 17894922788837858365
11315181 36 14996282531343171934
12173636 292 17632305523017396817
12403814 3 18412266151064064747
12423570 1 13013740097280791869
12507557 5 18411692214911757272
128620 24 17775002410208472350
12916754 54 18410014368409435574
13024252 1 16008752403311494771
13214271 11 18334862701416614761
13224815 77 18187372047166820484
13296908 3 18335145258799106078
14004511 7 14779261999593707294
14142880 1 18337956667039984513
14289901 80 18410292514907694250
15309172 13 18411423899076498990
16945 1 17987500568844029111
18186145 218 18201165360518699414
19930381 70 17768240576400856544
200 152 18410847785069200287
20325693 3 11887675095525651848
20525323 117 18333455330659243247
20645477 56 18343022146899190721
2306618 200 18342454820432110721
23402539 116 18113891684681844582
23557571 272 18272665540509829236
23559900 14 17676479511450584394
27216 239 18335988592670459777
4175511 318 16415482614660221793
4921388 177 14764346071932616484
5706482 22 15719389495586065145
74978 22 9799400114416726326

>  <PUBCHEM_SHAPE_MULTIPOLES>  (1) 
324.29
7.96
1.45
1.32
11.98
0.28
0.11
0.63
0.63
-0.43
-0.23
-0.93
0
-0.06

>  <PUBCHEM_SHAPE_SELFOVERLAP>  (1) 
677.702

>  <PUBCHEM_SHAPE_VOLUME>  (1) 
179

>  <PUBCHEM_COORDINATE_TYPE>  (1) 
2
5
10

$$$$
