36004
     RDKit          3D

 15 17  0  0  0  0  0  0  0  0999 V2000
    4.5589    0.6409    0.0004 N   0  0  0  0  0  0  0  0  0  0  0  0
   -0.2821   -0.4918   -0.0048 C   0  0  0  0  0  0  0  0  0  0  0  0
   -1.9546    0.9612   -1.2360 C   0  0  0  0  0  0  0  0  0  0  0  0
   -2.7389   -1.1141   -0.0406 C   0  0  0  0  0  0  0  0  0  0  0  0
   -1.9732    0.8890    1.2830 C   0  0  0  0  0  0  0  0  0  0  0  0
   -0.5170    0.4128   -1.2378 C   0  0  0  0  0  0  0  0  0  0  0  0
   -1.2991   -1.6569   -0.0456 C   0  0  0  0  0  0  0  0  0  0  0  0
   -0.5356    0.3406    1.2744 C   0  0  0  0  0  0  0  0  0  0  0  0
   -2.9450   -0.2146   -1.2707 C   0  0  0  0  0  0  0  0  0  0  0  0
   -2.1830    1.7785    0.0464 C   0  0  0  0  0  0  0  0  0  0  0  0
   -2.9634   -0.2864    1.2357 C   0  0  0  0  0  0  0  0  0  0  0  0
    1.1491   -1.0356   -0.0098 C   0  0  0  0  0  0  0  0  0  0  0  0
    2.1685    0.0990   -0.0084 C   0  0  0  0  0  0  0  0  0  0  0  0
    3.5934   -0.4515    0.0200 C   0  0  0  0  0  0  0  0  0  0  0  0
    5.9220    0.1290   -0.0062 C   0  0  0  0  0  0  0  0  0  0  0  0
  1 14  1  0
  1 15  1  0
  2  6  1  0
  2  7  1  0
  2  8  1  0
  2 12  1  0
  3  6  1  0
  3  9  1  0
  3 10  1  0
  4  7  1  0
  4  9  1  0
  4 11  1  0
  5  8  1  0
  5 10  1  0
  5 11  1  0
 12 13  1  0
 13 14  1  0
M  END
>  <PUBCHEM_COMPOUND_CID>  (1) 
36004

>  <PUBCHEM_CONFORMER_RMSD>  (1) 
0.6

>  <PUBCHEM_CONFORMER_DIVERSEORDER>  (1) 
1
2
3

>  <PUBCHEM_MMFF94_PARTIAL_CHARGES>  (1) 
4
1 -0.9
14 0.27
15 0.27
37 0.36

>  <PUBCHEM_EFFECTIVE_ROTOR_COUNT>  (1) 
5.2

>  <PUBCHEM_PHARMACOPHORE_FEATURES>  (1) 
6
1 1 cation
1 1 donor
6 2 3 4 6 7 9 rings
6 2 3 5 6 8 10 rings
6 2 4 5 7 8 11 rings
6 3 4 5 9 10 11 rings

>  <PUBCHEM_HEAVY_ATOM_COUNT>  (1) 
15

>  <PUBCHEM_ATOM_DEF_STEREO_COUNT>  (1) 
0

>  <PUBCHEM_ATOM_UDEF_STEREO_COUNT>  (1) 
0

>  <PUBCHEM_BOND_DEF_STEREO_COUNT>  (1) 
0

>  <PUBCHEM_BOND_UDEF_STEREO_COUNT>  (1) 
0

>  <PUBCHEM_ISOTOPIC_ATOM_COUNT>  (1) 
0

>  <PUBCHEM_COMPONENT_COUNT>  (1) 
1

>  <PUBCHEM_CACTVS_TAUTO_COUNT>  (1) 
1

>  <PUBCHEM_CONFORMER_ID>  (1) 
00008CA400000001

>  <PUBCHEM_MMFF94_ENERGY>  (1) 
30.978

>  <PUBCHEM_FEATURE_SELFOVERLAP>  (1) 
42.962

>  <PUBCHEM_SHAPE_FINGERPRINT>  (1) 
10680689 15 18040438793798989854
11315181 36 14345796067851850132
12423570 1 15626230143439665711
12507557 5 18187642544392070140
13024252 1 14273739547255124143
13214271 11 17168144533225434870
14142880 1 18114180766299207989
15061688 2 16662033730792280629
15309172 13 18187086148289600098
16945 1 18411136948501626663
18186145 218 14045733816787680858
200 152 18409722984705685927
20279233 1 13262394445416928202
20300324 65 17346876767239469144
20325693 3 14117802418357134224
20645477 56 18335985272476123620
2306618 200 18335137574765152697
23402539 116 18131345332361231847
23559900 14 18200582709634531592
27216 239 18186806850460459816
369184 2 18270964548914240691
4175511 318 16128660725698876640
5706482 22 13767922382555361413

>  <PUBCHEM_SHAPE_MULTIPOLES>  (1) 
303.71
8.03
1.37
1.25
17.66
0.01
0.02
0.76
0
-0.93
-0.01
-1.14
0.22
-0.01

>  <PUBCHEM_SHAPE_SELFOVERLAP>  (1) 
635.069

>  <PUBCHEM_SHAPE_VOLUME>  (1) 
166.3

>  <PUBCHEM_COORDINATE_TYPE>  (1) 
2
5
10

$$$$
