36000
     RDKit          3D

 21 24  0  0  1  0  0  0  0  0999 V2000
   -2.6107    1.7880   -0.8965 N   0  0  0  0  0  0  0  0  0  0  0  0
   -0.7071   -0.0864    0.3797 C   0  0  0  0  0  0  0  0  0  0  0  0
    0.7251   -0.6493    0.6556 C   0  0  0  0  0  0  0  0  0  0  0  0
    0.7643   -2.1535    0.2758 C   0  0  0  0  0  0  0  0  0  0  0  0
   -1.0455   -1.8176   -1.4487 C   0  0  0  0  0  0  0  0  0  0  0  0
   -1.6622   -2.3816    0.9254 C   0  0  0  0  0  0  0  0  0  0  0  0
   -1.0966   -0.3199   -1.1023 C   0  0  0  0  0  0  0  0  0  0  0  0
   -1.7066   -0.8819    1.2643 C   0  0  0  0  0  0  0  0  0  0  0  0
    0.3718   -2.3565   -1.1993 C   0  0  0  0  0  0  0  0  0  0  0  0
   -0.2405   -2.9150    1.1613 C   0  0  0  0  0  0  0  0  0  0  0  0
   -2.0376   -2.5761   -0.5521 C   0  0  0  0  0  0  0  0  0  0  0  0
    1.8532    0.1252   -0.0222 C   0  0  0  0  0  0  0  0  0  0  0  0
   -0.8154    1.4060    0.7190 C   0  0  0  0  0  0  0  0  0  0  0  0
    1.8544    1.5964    0.4295 C   0  0  0  0  0  0  0  0  0  0  0  0
    3.2121   -0.5287    0.2397 C   0  0  0  0  0  0  0  0  0  0  0  0
   -2.2250    1.9526    0.4896 C   0  0  0  0  0  0  0  0  0  0  0  0
    3.2189    2.2783    0.2970 C   0  0  0  0  0  0  0  0  0  0  0  0
    4.3370    0.1690   -0.5301 C   0  0  0  0  0  0  0  0  0  0  0  0
    4.0696    1.6509   -0.7980 C   0  0  0  0  0  0  0  0  0  0  0  0
   -2.2884    3.4356    0.8402 C   0  0  0  0  0  0  0  0  0  0  0  0
   -3.9708    2.2645   -1.1278 C   0  0  0  0  0  0  0  0  0  0  0  0
  1 16  1  0
  1 21  1  0
  2  3  1  0
  2  7  1  0
  2  8  1  0
  2 13  1  0
  3  4  1  0
  3 12  1  0
  4  9  1  0
  4 10  1  0
  5  7  1  0
  5  9  1  0
  5 11  1  0
  6  8  1  0
  6 10  1  0
  6 11  1  0
 12 14  1  0
 12 15  1  0
 13 16  1  0
 14 17  1  0
 15 18  1  0
 16 20  1  0
 17 19  1  0
 18 19  1  0
M  END
>  <PUBCHEM_COMPOUND_CID>  (1) 
36000

>  <PUBCHEM_CONFORMER_RMSD>  (1) 
0.8

>  <PUBCHEM_CONFORMER_DIVERSEORDER>  (1) 
1
6
4
8
7
5
2
3

>  <PUBCHEM_MMFF94_PARTIAL_CHARGES>  (1) 
4
1 -0.9
16 0.27
21 0.27
53 0.36

>  <PUBCHEM_EFFECTIVE_ROTOR_COUNT>  (1) 
6.4

>  <PUBCHEM_PHARMACOPHORE_FEATURES>  (1) 
7
1 1 cation
1 1 donor
6 12 14 15 17 18 19 rings
6 2 3 4 5 7 9 rings
6 2 3 4 6 8 10 rings
6 2 5 6 7 8 11 rings
6 4 5 6 9 10 11 rings

>  <PUBCHEM_HEAVY_ATOM_COUNT>  (1) 
21

>  <PUBCHEM_ATOM_DEF_STEREO_COUNT>  (1) 
0

>  <PUBCHEM_ATOM_UDEF_STEREO_COUNT>  (1) 
4

>  <PUBCHEM_BOND_DEF_STEREO_COUNT>  (1) 
0

>  <PUBCHEM_BOND_UDEF_STEREO_COUNT>  (1) 
0

>  <PUBCHEM_ISOTOPIC_ATOM_COUNT>  (1) 
0

>  <PUBCHEM_COMPONENT_COUNT>  (1) 
1

>  <PUBCHEM_CACTVS_TAUTO_COUNT>  (1) 
1

>  <PUBCHEM_CONFORMER_ID>  (1) 
00008CA000000001

>  <PUBCHEM_MMFF94_ENERGY>  (1) 
91.2125

>  <PUBCHEM_FEATURE_SELFOVERLAP>  (1) 
47.964

>  <PUBCHEM_SHAPE_FINGERPRINT>  (1) 
10670039 82 17686917420358481172
10863032 1 18186516570853591867
10948715 1 18334854970364861719
1100329 8 18047750404089671186
11045515 52 17764582514284425943
11725454 13 16734378305913106165
12173636 292 18261956357406061926
12403814 3 18056771046475575186
12553582 1 17764031659254049176
12730499 353 18117843197024826641
12788726 201 18191858131506107795
13024252 1 17825100660621536482
13027679 85 17615410698070465607
13140716 1 18410572860408389136
13464514 151 17979930306247482052
13583140 156 17531817830944805616
14142880 1 18041549360129520716
14251751 93 18411426115696010896
14787075 74 18410567397526304557
15534591 1 18334292076166763950
15848702 105 18340185454534208549
16752209 62 18339632455935817130
16945 1 18341615897297289923
17134986 127 18336540504515803868
19868273 325 17764027260985810074
20510252 161 18264207096130625562
20602899 9 16773795896136126111
21524375 3 18266173942007387764
2255824 54 17763180242080125553
22907989 373 18266472077178265908
2334 1 18339360880864135024
23419403 2 17550436926790778555
23558518 356 18187928434463084530
23559900 14 18273218565743336464
238 59 18195521489818302229
25 1 18267307521516157220
2748010 2 18271241750203508120
298252 57 18130498618144945966
3060560 45 18121209892389899684
350125 39 18336275590964284370
352729 6 18341336617196359272
474 4 18050005485258318409
559249 180 18409448069183318094
5939293 188 17402333672306379912
6138700 20 17692819186152871710
81228 2 18122620819074360880

>  <PUBCHEM_SHAPE_MULTIPOLES>  (1) 
427.19
5.85
4.06
1.29
5.26
0.54
-0.16
4.76
-1.47
-2.99
0.33
-0.64
-0.32
0.18

>  <PUBCHEM_SHAPE_SELFOVERLAP>  (1) 
904.43

>  <PUBCHEM_SHAPE_VOLUME>  (1) 
231.8

>  <PUBCHEM_COORDINATE_TYPE>  (1) 
2
5
10

$$$$
