36018
     RDKit          3D

 23 26  0  0  1  0  0  0  0  0999 V2000
    0.2988   -0.9042    1.9116 O   0  0  0  0  0  0  0  0  0  0  0  0
   -1.8583   -0.2947    0.0918 N   0  0  0  0  0  0  0  0  0  0  0  0
   -4.5820   -1.0222   -0.5493 N   0  0  0  0  0  0  0  0  0  0  0  0
   -0.4502   -0.0968   -0.2460 C   0  0  0  0  0  0  0  0  0  0  0  0
    0.4177   -1.1369    0.5001 C   0  0  0  0  0  0  0  0  0  0  0  0
   -2.7155    0.5894   -0.7074 C   0  0  0  0  0  0  0  0  0  0  0  0
   -2.2483   -1.6971   -0.0993 C   0  0  0  0  0  0  0  0  0  0  0  0
    0.0418    1.3227   -0.0025 C   0  0  0  0  0  0  0  0  0  0  0  0
   -4.1929    0.3802   -0.3575 C   0  0  0  0  0  0  0  0  0  0  0  0
   -3.7255   -1.9053    0.2516 C   0  0  0  0  0  0  0  0  0  0  0  0
    1.8932   -1.2771    0.1451 C   0  0  0  0  0  0  0  0  0  0  0  0
    1.2681    1.7164   -0.5756 C   0  0  0  0  0  0  0  0  0  0  0  0
    2.0466    0.7575   -1.4409 C   0  0  0  0  0  0  0  0  0  0  0  0
    2.6333   -0.4221   -0.6991 C   0  0  0  0  0  0  0  0  0  0  0  0
   -0.6489    2.2413    0.8065 C   0  0  0  0  0  0  0  0  0  0  0  0
   -5.9905   -1.2207   -0.2135 C   0  0  0  0  0  0  0  0  0  0  0  0
    2.5627   -2.3708    0.7424 C   0  0  0  0  0  0  0  0  0  0  0  0
    1.7706    3.0055   -0.3367 C   0  0  0  0  0  0  0  0  0  0  0  0
    4.0009   -0.6951   -0.9189 C   0  0  0  0  0  0  0  0  0  0  0  0
   -0.1413    3.5219    1.0324 C   0  0  0  0  0  0  0  0  0  0  0  0
    1.0673    3.9039    0.4616 C   0  0  0  0  0  0  0  0  0  0  0  0
    3.9157   -2.6184    0.5181 C   0  0  0  0  0  0  0  0  0  0  0  0
    4.6368   -1.7775   -0.3145 C   0  0  0  0  0  0  0  0  0  0  0  0
  1  5  1  0
  2  4  1  0
  2  6  1  0
  2  7  1  0
  3  9  1  0
  3 10  1  0
  3 16  1  0
  4  5  1  0
  4  8  1  0
  5 11  1  0
  6  9  1  0
  7 10  1  0
  8 12  2  0
  8 15  1  0
 11 14  2  0
 11 17  1  0
 12 13  1  0
 12 18  1  0
 13 14  1  0
 14 19  1  0
 15 20  2  0
 17 22  2  0
 18 21  2  0
 19 23  2  0
 20 21  1  0
 22 23  1  0
M  END
>  <PUBCHEM_COMPOUND_CID>  (1) 
36018

>  <PUBCHEM_CONFORMER_RMSD>  (1) 
0.6

>  <PUBCHEM_CONFORMER_DIVERSEORDER>  (1) 
1
4
3
2
5

>  <PUBCHEM_MMFF94_PARTIAL_CHARGES>  (1) 
32
1 -0.68
10 0.27
11 -0.14
12 -0.14
13 0.29
14 -0.14
15 -0.15
16 0.27
17 -0.15
18 -0.15
19 -0.15
2 -0.81
20 -0.15
21 -0.15
22 -0.15
23 -0.15
3 -0.81
36 0.15
4 0.41
40 0.15
41 0.15
42 0.4
43 0.15
44 0.15
45 0.15
46 0.15
47 0.15
5 0.42
6 0.27
7 0.27
8 -0.14
9 0.27

>  <PUBCHEM_EFFECTIVE_ROTOR_COUNT>  (1) 
2.8

>  <PUBCHEM_PHARMACOPHORE_FEATURES>  (1) 
8
1 1 acceptor
1 1 donor
1 2 cation
1 3 cation
6 11 14 17 19 22 23 rings
6 2 3 6 7 9 10 rings
6 8 12 15 18 20 21 rings
7 4 5 8 11 12 13 14 rings

>  <PUBCHEM_HEAVY_ATOM_COUNT>  (1) 
23

>  <PUBCHEM_ATOM_DEF_STEREO_COUNT>  (1) 
2

>  <PUBCHEM_ATOM_UDEF_STEREO_COUNT>  (1) 
0

>  <PUBCHEM_BOND_DEF_STEREO_COUNT>  (1) 
0

>  <PUBCHEM_BOND_UDEF_STEREO_COUNT>  (1) 
0

>  <PUBCHEM_ISOTOPIC_ATOM_COUNT>  (1) 
0

>  <PUBCHEM_COMPONENT_COUNT>  (1) 
1

>  <PUBCHEM_CACTVS_TAUTO_COUNT>  (1) 
1

>  <PUBCHEM_CONFORMER_ID>  (1) 
00008CB200000001

>  <PUBCHEM_MMFF94_ENERGY>  (1) 
80.8324

>  <PUBCHEM_FEATURE_SELFOVERLAP>  (1) 
40.615

>  <PUBCHEM_SHAPE_FINGERPRINT>  (1) 
10411042 1 18411981321559997654
1100329 8 18196094348208950425
11045515 52 18188772734301322052
11265709 11 18412547574385116838
12293681 160 18049750652338272012
12403259 226 18335977636583336901
12553582 1 18268447775040250738
12730499 353 17977674426641906267
12788726 201 18267877081455694250
13004483 165 18268135483989884278
13009979 54 17755283596740726578
13134695 92 18412821417025698765
13140716 1 18271243798681700064
13533116 47 18267866263140210799
13540713 5 17827932728704186790
13590594 115 18337964393986811281
138480 1 18411418448916117548
13955234 65 18125158483816906633
14178000 15 18412824698407281152
14178342 30 17760071927251933490
14787075 74 18335705000807466420
14790565 3 17547292203071260689
14866123 147 17330271667390325619
15042514 8 18051978013091164648
15230672 131 17471575899279609756
15664445 248 18200891616340677638
15927050 60 17692531526591494676
16087824 20 18050571742801268289
17492 89 18122060893221657230
17980427 26 17769079486798598309
1813 80 18059863839355919655
18222031 100 18201715146012483551
200 152 18334296427048210854
20369508 70 18411416254303549367
20600515 1 17989212524910771372
20626108 58 17703216434018314023
20645477 70 18199473336619419375
20775438 99 17762592372954293967
20832881 197 18335422348740775635
21029758 11 18409450280252595082
21033648 29 17345733215117676627
21041028 32 18342175544710828989
21250096 35 18410572864223451062
21267235 1 18336273357381544839
22112679 90 18198078992323997216
221357 26 18334571344147586719
221490 88 18262806305653898747
23402539 116 18268706108807082254
23419403 2 18118655834727648844
23557571 272 18056476154305868278
23559900 14 18338789117890977795
3004659 81 18113900416693606030
3091708 16 9067398083545662368
314173 41 18412268345460518126
3323516 105 18263085581680771607
350125 39 18334576807583467925
463206 1 18409449210537648599
5104073 3 18270127932820378387
5895379 119 16986904309853832417
59755656 215 18265894855127718869
6438718 38 17628631955795436157
6442390 28 17400926795997638033
6443956 14 18410011078559438812
7164475 11 18122064208999089694
7364860 26 18267861855696487557
7471813 234 18343295972496760989
7495541 125 18335987557878948319
81228 2 18055361231818391800
84936 182 18124318469391179161
8863177 126 18043545004558821851
9709674 26 18191586569836571203
9981440 41 17473820005624277737

>  <PUBCHEM_SHAPE_MULTIPOLES>  (1) 
457.5
8.66
4.03
1.08
8.72
4.09
-0.12
-8.32
1.83
-2.25
-1.21
-0.41
0.11
-0.55

>  <PUBCHEM_SHAPE_SELFOVERLAP>  (1) 
991.555

>  <PUBCHEM_SHAPE_VOLUME>  (1) 
248.2

>  <PUBCHEM_COORDINATE_TYPE>  (1) 
2
5
10

$$$$
