36012
     RDKit          3D

 17 19  0  0  1  0  0  0  0  0999 V2000
    5.0600   -1.8553   -0.2281 O   0  0  0  0  0  0  0  0  0  0  0  0
    2.1052    0.2684    0.3425 N   0  0  0  0  0  0  0  0  0  0  0  0
   -0.7973    0.8204    0.1543 C   0  0  0  0  0  0  0  0  0  0  0  0
   -1.4257   -1.5852    0.6474 C   0  0  0  0  0  0  0  0  0  0  0  0
   -3.2057    0.1986    0.6421 C   0  0  0  0  0  0  0  0  0  0  0  0
   -2.1395   -0.5239   -1.5240 C   0  0  0  0  0  0  0  0  0  0  0  0
   -0.3458   -0.5024    0.8177 C   0  0  0  0  0  0  0  0  0  0  0  0
   -2.1210    1.2766    0.8124 C   0  0  0  0  0  0  0  0  0  0  0  0
   -1.0578    0.5562   -1.3477 C   0  0  0  0  0  0  0  0  0  0  0  0
   -2.7311   -1.1059    1.3035 C   0  0  0  0  0  0  0  0  0  0  0  0
   -1.6701   -1.8248   -0.8518 C   0  0  0  0  0  0  0  0  0  0  0  0
   -3.4413   -0.0498   -0.8571 C   0  0  0  0  0  0  0  0  0  0  0  0
    0.2794    1.8952    0.3257 C   0  0  0  0  0  0  0  0  0  0  0  0
    1.6205    1.4806   -0.2840 C   0  0  0  0  0  0  0  0  0  0  0  0
    2.6619    2.5783   -0.0924 C   0  0  0  0  0  0  0  0  0  0  0  0
    3.3620   -0.1709   -0.2561 C   0  0  0  0  0  0  0  0  0  0  0  0
    3.8465   -1.4562    0.3955 C   0  0  0  0  0  0  0  0  0  0  0  0
  1 17  1  0
  2 14  1  0
  2 16  1  0
  3  7  1  0
  3  8  1  0
  3  9  1  0
  3 13  1  0
  4  7  1  0
  4 10  1  0
  4 11  1  0
  5  8  1  0
  5 10  1  0
  5 12  1  0
  6  9  1  0
  6 11  1  0
  6 12  1  0
 13 14  1  0
 14 15  1  0
 16 17  1  0
M  END
>  <PUBCHEM_COMPOUND_CID>  (1) 
36012

>  <PUBCHEM_CONFORMER_RMSD>  (1) 
0.8

>  <PUBCHEM_CONFORMER_DIVERSEORDER>  (1) 
1
3
2

>  <PUBCHEM_MMFF94_PARTIAL_CHARGES>  (1) 
7
1 -0.68
14 0.27
16 0.27
17 0.28
2 -0.9
39 0.36
44 0.4

>  <PUBCHEM_EFFECTIVE_ROTOR_COUNT>  (1) 
6.2

>  <PUBCHEM_PHARMACOPHORE_FEATURES>  (1) 
8
1 1 acceptor
1 1 donor
1 2 cation
1 2 donor
6 3 4 5 7 8 10 rings
6 3 4 6 7 9 11 rings
6 3 5 6 8 9 12 rings
6 4 5 6 10 11 12 rings

>  <PUBCHEM_HEAVY_ATOM_COUNT>  (1) 
17

>  <PUBCHEM_ATOM_DEF_STEREO_COUNT>  (1) 
0

>  <PUBCHEM_ATOM_UDEF_STEREO_COUNT>  (1) 
1

>  <PUBCHEM_BOND_DEF_STEREO_COUNT>  (1) 
0

>  <PUBCHEM_BOND_UDEF_STEREO_COUNT>  (1) 
0

>  <PUBCHEM_ISOTOPIC_ATOM_COUNT>  (1) 
0

>  <PUBCHEM_COMPONENT_COUNT>  (1) 
1

>  <PUBCHEM_CACTVS_TAUTO_COUNT>  (1) 
1

>  <PUBCHEM_CONFORMER_ID>  (1) 
00008CAC00000001

>  <PUBCHEM_MMFF94_ENERGY>  (1) 
45.18

>  <PUBCHEM_FEATURE_SELFOVERLAP>  (1) 
53.111

>  <PUBCHEM_SHAPE_FINGERPRINT>  (1) 
10062212 137 18131627881354059911
10922523 26 17968371363616190709
11578080 2 17487870432829870841
12186901 62 16298381332146453879
12423570 1 14356758525113908239
12553582 1 18336262324248384282
12592029 89 18059866047544220159
12932764 1 17559403654268035264
13024252 1 11892426107319114565
13296908 3 18188491396847655432
15099037 51 18337667512618966021
16945 1 17632027445824118841
18186145 218 17749102313903784192
19930381 70 18122909728698112815
200 152 18201710764934403182
20645477 70 18336253643665623030
21069387 34 18130494314476913606
212916 134 15912785894362163547
21501502 16 18271247247576894085
22802520 49 17968087672452121044
22926399 37 8070025554024637691
23114952 82 17968093187702092372
23419403 2 15876751316238643253
23557571 272 16951123026861519484
23559900 14 18409443730929038000
23566358 27 18118418460237431468
23728640 28 17988642947997177943
2748010 2 17969215814321238721
296302 2 9007064565152171443
369184 2 18127697243296428273
45790113 50 18337403728580924961
5706482 22 17703797977211849507
598444 67 17967250901507203347
7364860 26 18339924926324451576
74978 22 18410009978815423128
9709674 26 18262235659102986042

>  <PUBCHEM_SHAPE_MULTIPOLES>  (1) 
339
6.84
2.26
1.21
7.57
0.35
-0.2
-3
-0.1
1.91
0.1
-1.04
-0.18
-0.11

>  <PUBCHEM_SHAPE_SELFOVERLAP>  (1) 
708.926

>  <PUBCHEM_SHAPE_VOLUME>  (1) 
186.6

>  <PUBCHEM_COORDINATE_TYPE>  (1) 
2
5
10

$$$$
