36020
     RDKit          3D

 19 21  0  0  1  0  0  0  0  0999 V2000
    0.1317    1.3539   -1.8453 O   0  0  0  0  0  0  0  0  0  0  0  0
   -4.3881    2.5181    0.7001 N   0  0  0  0  0  0  0  0  0  0  0  0
   -0.9230    1.0044    0.3242 C   0  0  0  0  0  0  0  0  0  0  0  0
    0.3422    1.4764   -0.4336 C   0  0  0  0  0  0  0  0  0  0  0  0
   -1.2241   -0.4573    0.0192 C   0  0  0  0  0  0  0  0  0  0  0  0
   -2.1017    1.9616    0.0740 C   0  0  0  0  0  0  0  0  0  0  0  0
    1.6891    0.8391   -0.1227 C   0  0  0  0  0  0  0  0  0  0  0  0
   -0.3591   -1.4459    0.5322 C   0  0  0  0  0  0  0  0  0  0  0  0
    0.8142   -1.0588    1.3968 C   0  0  0  0  0  0  0  0  0  0  0  0
    1.9068   -0.3066    0.6718 C   0  0  0  0  0  0  0  0  0  0  0  0
   -3.2803    1.6084    0.9669 C   0  0  0  0  0  0  0  0  0  0  0  0
   -2.3014   -0.8617   -0.7863 C   0  0  0  0  0  0  0  0  0  0  0  0
    2.8131    1.4691   -0.7075 C   0  0  0  0  0  0  0  0  0  0  0  0
   -0.5867   -2.7995    0.2356 C   0  0  0  0  0  0  0  0  0  0  0  0
    3.2277   -0.7698    0.8572 C   0  0  0  0  0  0  0  0  0  0  0  0
   -2.5209   -2.2111   -1.0699 C   0  0  0  0  0  0  0  0  0  0  0  0
   -1.6643   -3.1795   -0.5600 C   0  0  0  0  0  0  0  0  0  0  0  0
    4.1086    0.9911   -0.5186 C   0  0  0  0  0  0  0  0  0  0  0  0
    4.3162   -0.1319    0.2658 C   0  0  0  0  0  0  0  0  0  0  0  0
  1  4  1  0
  2 11  1  0
  3  4  1  0
  3  5  1  0
  3  6  1  0
  4  7  1  0
  5  8  2  0
  5 12  1  0
  6 11  1  0
  7 10  2  0
  7 13  1  0
  8  9  1  0
  8 14  1  0
  9 10  1  0
 10 15  1  0
 12 16  2  0
 13 18  2  0
 14 17  2  0
 15 19  2  0
 16 17  1  0
 18 19  1  0
M  END
>  <PUBCHEM_COMPOUND_CID>  (1) 
36020

>  <PUBCHEM_CONFORMER_RMSD>  (1) 
0.6

>  <PUBCHEM_CONFORMER_DIVERSEORDER>  (1) 
1
7
8
4
6
3
2
5

>  <PUBCHEM_MMFF94_PARTIAL_CHARGES>  (1) 
29
1 -0.68
10 -0.14
11 0.27
12 -0.15
13 -0.15
14 -0.15
15 -0.15
16 -0.15
17 -0.15
18 -0.15
19 -0.15
2 -0.99
28 0.15
29 0.15
3 0.14
30 0.15
31 0.15
32 0.4
33 0.15
34 0.15
35 0.15
36 0.15
37 0.36
38 0.36
4 0.42
5 -0.14
7 -0.14
8 -0.14
9 0.29

>  <PUBCHEM_EFFECTIVE_ROTOR_COUNT>  (1) 
2.6

>  <PUBCHEM_PHARMACOPHORE_FEATURES>  (1) 
7
1 1 acceptor
1 1 donor
1 2 cation
1 2 donor
6 5 8 12 14 16 17 rings
6 7 10 13 15 18 19 rings
7 3 4 5 7 8 9 10 rings

>  <PUBCHEM_HEAVY_ATOM_COUNT>  (1) 
19

>  <PUBCHEM_ATOM_DEF_STEREO_COUNT>  (1) 
2

>  <PUBCHEM_ATOM_UDEF_STEREO_COUNT>  (1) 
0

>  <PUBCHEM_BOND_DEF_STEREO_COUNT>  (1) 
0

>  <PUBCHEM_BOND_UDEF_STEREO_COUNT>  (1) 
0

>  <PUBCHEM_ISOTOPIC_ATOM_COUNT>  (1) 
0

>  <PUBCHEM_COMPONENT_COUNT>  (1) 
1

>  <PUBCHEM_CACTVS_TAUTO_COUNT>  (1) 
1

>  <PUBCHEM_CONFORMER_ID>  (1) 
00008CB400000001

>  <PUBCHEM_MMFF94_ENERGY>  (1) 
57.4854

>  <PUBCHEM_FEATURE_SELFOVERLAP>  (1) 
35.537

>  <PUBCHEM_SHAPE_FINGERPRINT>  (1) 
104564 63 18339644558990256795
10493431 412 18339642243797221137
10863032 1 17988924431669201438
11578080 2 17488180602434989937
12035759 4 18264468677193543023
12173636 292 18341885251876206668
12202030 40 17130736992112892478
12491281 212 18335143124131593402
12553582 1 18051693540317504330
12715332 25 18266736879634959714
12788726 201 18198350743731860151
13140716 1 18334572417504139608
14081887 123 17910659183991170536
14178342 30 18338499942016618496
14617773 55 18337668736520972064
14790565 3 18339647746062251529
15001771 113 18047468108425514359
15309172 13 18264205811867124497
15906896 17 18341056306314093151
16752209 62 18342442773407476383
16945 1 18266455593267479962
19591789 44 17762903164949602350
20261772 1 18335710420428680481
21041028 32 17974580387852372363
21501502 16 18336263535397402552
21524375 3 18336270024576120001
21634736 98 18046061820738243526
22112679 90 18115564016393014754
22620623 9 17988932218202270798
23184049 59 18115594738030715192
23419403 2 17185535659177170608
23557571 272 17988357174238018584
23558518 356 18119536689148586648
23559900 14 18124304167714689832
23728640 28 18412268354192676059
238 59 15440391538210654004
25147074 1 18187080689844940472
2748010 2 16894810065834498354
298252 57 18339366257914932449
3060560 45 18122066390367293687
427121 178 17701559328535381465
6438718 38 18131355249598999743
69090 78 18410294674838582608
6992083 37 18260548939277475604
7364860 26 17764877892359969121
7832392 63 18409450289027276040
81228 2 18191574461753675161
8272917 22 17907582424371811641
90525 40 18410009927207536079
9862522 239 18043518430899601445

>  <PUBCHEM_SHAPE_MULTIPOLES>  (1) 
380.16
6.47
3.16
1.17
3.46
1.12
0.12
-2.67
-0.3
-3.69
0.15
-0.09
-0.03
-1.7

>  <PUBCHEM_SHAPE_SELFOVERLAP>  (1) 
821.628

>  <PUBCHEM_SHAPE_VOLUME>  (1) 
206.3

>  <PUBCHEM_COORDINATE_TYPE>  (1) 
2
5
10

$$$$
