36022
     RDKit          3D

 10 10  0  0  0  0  0  0  0  0999 V2000
    3.3583    0.0949   -0.0011 Cl  0  0  0  0  0  0  0  0  0  0  0  0
   -2.5132   -0.0953   -0.0013 O   0  0  0  0  0  0  0  0  0  0  0  0
   -1.0461   -2.4403    0.0001 O   0  0  0  0  0  0  0  0  0  0  0  0
   -0.4915    1.1820    0.0000 C   0  0  0  0  0  0  0  0  0  0  0  0
   -1.1503   -0.0474    0.0001 C   0  0  0  0  0  0  0  0  0  0  0  0
    0.9026    1.2260    0.0001 C   0  0  0  0  0  0  0  0  0  0  0  0
   -0.4151   -1.2329    0.0004 C   0  0  0  0  0  0  0  0  0  0  0  0
   -1.2618    2.4612    0.0005 C   0  0  0  0  0  0  0  0  0  0  0  0
    1.6380    0.0407    0.0005 C   0  0  0  0  0  0  0  0  0  0  0  0
    0.9792   -1.1889    0.0007 C   0  0  0  0  0  0  0  0  0  0  0  0
  1  9  1  0
  2  5  1  0
  3  7  1  0
  4  5  2  0
  4  6  1  0
  4  8  1  0
  5  7  1  0
  6  9  2  0
  7 10  2  0
  9 10  1  0
M  END
>  <PUBCHEM_COMPOUND_CID>  (1) 
36022

>  <PUBCHEM_CONFORMER_RMSD>  (1) 
0.4

>  <PUBCHEM_CONFORMER_DIVERSEORDER>  (1) 
1

>  <PUBCHEM_MMFF94_PARTIAL_CHARGES>  (1) 
14
1 -0.18
10 -0.15
11 0.15
15 0.15
16 0.45
17 0.45
2 -0.53
3 -0.53
4 -0.14
5 0.08
6 -0.15
7 0.08
8 0.14
9 0.18

>  <PUBCHEM_EFFECTIVE_ROTOR_COUNT>  (1) 
0

>  <PUBCHEM_PHARMACOPHORE_FEATURES>  (1) 
3
1 2 donor
1 3 donor
6 4 5 6 7 9 10 rings

>  <PUBCHEM_HEAVY_ATOM_COUNT>  (1) 
10

>  <PUBCHEM_ATOM_DEF_STEREO_COUNT>  (1) 
0

>  <PUBCHEM_ATOM_UDEF_STEREO_COUNT>  (1) 
0

>  <PUBCHEM_BOND_DEF_STEREO_COUNT>  (1) 
0

>  <PUBCHEM_BOND_UDEF_STEREO_COUNT>  (1) 
0

>  <PUBCHEM_ISOTOPIC_ATOM_COUNT>  (1) 
0

>  <PUBCHEM_COMPONENT_COUNT>  (1) 
1

>  <PUBCHEM_CACTVS_TAUTO_COUNT>  (1) 
15

>  <PUBCHEM_CONFORMER_ID>  (1) 
00008CB600000001

>  <PUBCHEM_MMFF94_ENERGY>  (1) 
21.5138

>  <PUBCHEM_FEATURE_SELFOVERLAP>  (1) 
15.228

>  <PUBCHEM_SHAPE_FINGERPRINT>  (1) 
12423570 1 16979007896104230902
12716758 59 18341338777907540582
16945 1 18410856568461852228
18185500 45 18193276518654100718
193761 8 17834395618547741607
20871998 184 18200879590252939446
21040471 1 18266740182153502244
23402655 69 18195508313470795909
23552423 10 18046350725660521646
2748010 2 18122067502869318444
5084963 1 18130787811140879944

>  <PUBCHEM_SHAPE_MULTIPOLES>  (1) 
195.93
3.26
2.29
0.6
2.25
0.21
0
-0.59
0
-1.22
0
0.05
-0.03
0

>  <PUBCHEM_SHAPE_SELFOVERLAP>  (1) 
401.383

>  <PUBCHEM_SHAPE_VOLUME>  (1) 
115.2

>  <PUBCHEM_COORDINATE_TYPE>  (1) 
2
5
10

$$$$
