36023
     RDKit          3D

 10 10  0  0  0  0  0  0  0  0999 V2000
   -3.0431    1.9177   -0.1408 Br  0  0  0  0  0  0  0  0  0  0  0  0
    3.4747    0.6991   -0.9664 N   0  0  0  0  0  0  0  0  0  0  0  0
    0.4540   -0.2467    0.4960 C   0  0  0  0  0  0  0  0  0  0  0  0
    1.8346    0.0339    0.9850 C   0  0  0  0  0  0  0  0  0  0  0  0
   -0.4823    0.7844    0.4192 C   0  0  0  0  0  0  0  0  0  0  0  0
    0.0992   -1.5407    0.1145 C   0  0  0  0  0  0  0  0  0  0  0  0
   -1.7732    0.5217   -0.0391 C   0  0  0  0  0  0  0  0  0  0  0  0
   -1.1918   -1.8035   -0.3437 C   0  0  0  0  0  0  0  0  0  0  0  0
   -2.1279   -0.7722   -0.4207 C   0  0  0  0  0  0  0  0  0  0  0  0
    2.7559    0.4063   -0.1039 C   0  0  0  0  0  0  0  0  0  0  0  0
  1  7  1  0
  2 10  3  0
  3  4  1  0
  3  5  2  0
  3  6  1  0
  4 10  1  0
  5  7  1  0
  6  8  2  0
  7  9  2  0
  8  9  1  0
M  END
>  <PUBCHEM_COMPOUND_CID>  (1) 
36023

>  <PUBCHEM_CONFORMER_RMSD>  (1) 
0.4

>  <PUBCHEM_CONFORMER_DIVERSEORDER>  (1) 
1
6
3
4
2
5

>  <PUBCHEM_MMFF94_PARTIAL_CHARGES>  (1) 
14
1 -0.11
10 0.36
13 0.15
14 0.15
15 0.15
16 0.15
2 -0.56
3 -0.14
4 0.34
5 -0.15
6 -0.15
7 0.11
8 -0.15
9 -0.15

>  <PUBCHEM_EFFECTIVE_ROTOR_COUNT>  (1) 
1

>  <PUBCHEM_PHARMACOPHORE_FEATURES>  (1) 
3
1 1 hydrophobe
1 2 acceptor
6 3 5 6 7 8 9 rings

>  <PUBCHEM_HEAVY_ATOM_COUNT>  (1) 
10

>  <PUBCHEM_ATOM_DEF_STEREO_COUNT>  (1) 
0

>  <PUBCHEM_ATOM_UDEF_STEREO_COUNT>  (1) 
0

>  <PUBCHEM_BOND_DEF_STEREO_COUNT>  (1) 
0

>  <PUBCHEM_BOND_UDEF_STEREO_COUNT>  (1) 
0

>  <PUBCHEM_ISOTOPIC_ATOM_COUNT>  (1) 
0

>  <PUBCHEM_COMPONENT_COUNT>  (1) 
1

>  <PUBCHEM_CACTVS_TAUTO_COUNT>  (1) 
1

>  <PUBCHEM_CONFORMER_ID>  (1) 
00008CB700000001

>  <PUBCHEM_MMFF94_ENERGY>  (1) 
18.0535

>  <PUBCHEM_FEATURE_SELFOVERLAP>  (1) 
15.223

>  <PUBCHEM_SHAPE_FINGERPRINT>  (1) 
11206711 2 18270102613433987829
11769659 78 11383819459680779949
12138202 97 18130790053082179855
12716758 59 18272367589927853074
12897270 3 18269555099540371462
12932764 1 18201717396611951570
13380535 21 18270404884658338579
14325111 11 18410571760405949144
15775835 57 18186804664591144652
16945 1 18268697467422468939
20645464 45 17631150039512963402
20645476 183 18334296461402525070
20645477 56 18413109480809646080
20653085 51 18261404338112701744
21040471 1 18270102531629272451
21524375 3 18264761069871488393
23552423 10 18263072249934077554
23559900 14 18059855044365086674
2748010 2 18270397175149954671

>  <PUBCHEM_SHAPE_MULTIPOLES>  (1) 
206.76
4.75
1.84
0.86
1.76
0.41
-0.01
-2.94
1.1
-1.24
0.21
0.39
-0.09
-0.35

>  <PUBCHEM_SHAPE_SELFOVERLAP>  (1) 
411.134

>  <PUBCHEM_SHAPE_VOLUME>  (1) 
125

>  <PUBCHEM_COORDINATE_TYPE>  (1) 
2
5
10

$$$$
