36039
     RDKit          3D

 20 22  0  0  1  0  0  0  0  0999 V2000
    0.6148    0.7184   -0.9722 N   0  0  0  0  0  0  0  0  0  0  0  0
    0.3716   -1.8637    0.4927 N   0  0  0  0  0  0  0  0  0  0  0  0
   -1.7873    2.8187    0.5495 N   0  0  0  0  0  0  0  0  0  0  0  0
    0.6051    2.1604   -1.1741 C   0  0  0  0  0  0  0  0  0  0  0  0
   -0.2929   -0.0893   -1.7740 C   0  0  0  0  0  0  0  0  0  0  0  0
    1.7049    0.0762   -0.3855 C   0  0  0  0  0  0  0  0  0  0  0  0
   -1.3333   -0.7395   -0.9087 C   0  0  0  0  0  0  0  0  0  0  0  0
    0.6599    2.8942    0.1654 C   0  0  0  0  0  0  0  0  0  0  0  0
    1.5881   -1.1750    0.2686 C   0  0  0  0  0  0  0  0  0  0  0  0
   -0.9639   -1.6160    0.1224 C   0  0  0  0  0  0  0  0  0  0  0  0
   -0.4780    2.5462    1.1300 C   0  0  0  0  0  0  0  0  0  0  0  0
    2.9880    0.6723   -0.4313 C   0  0  0  0  0  0  0  0  0  0  0  0
   -2.6942   -0.5132   -1.1809 C   0  0  0  0  0  0  0  0  0  0  0  0
    2.7510   -1.7853    0.7975 C   0  0  0  0  0  0  0  0  0  0  0  0
   -1.9835   -2.2446    0.8638 C   0  0  0  0  0  0  0  0  0  0  0  0
    4.1187    0.0559    0.1066 C   0  0  0  0  0  0  0  0  0  0  0  0
    4.0015   -1.1805    0.7162 C   0  0  0  0  0  0  0  0  0  0  0  0
   -3.6869   -1.1438   -0.4344 C   0  0  0  0  0  0  0  0  0  0  0  0
   -3.3313   -2.0127    0.5887 C   0  0  0  0  0  0  0  0  0  0  0  0
   -2.8521    2.4213    1.4597 C   0  0  0  0  0  0  0  0  0  0  0  0
  1  4  1  0
  1  5  1  0
  1  6  1  0
  2  9  1  0
  2 10  1  0
  3 11  1  0
  3 20  1  0
  4  8  1  0
  5  7  1  0
  6  9  2  0
  6 12  1  0
  7 10  2  0
  7 13  1  0
  8 11  1  0
  9 14  1  0
 10 15  1  0
 12 16  2  0
 13 18  2  0
 14 17  2  0
 15 19  2  0
 16 17  1  0
 18 19  1  0
M  END
>  <PUBCHEM_COMPOUND_CID>  (1) 
36039

>  <PUBCHEM_CONFORMER_RMSD>  (1) 
0.6

>  <PUBCHEM_CONFORMER_DIVERSEORDER>  (1) 
1
27
2
30
20
24
3
13
29
35
9
18
8
34
12
31
32
11
16
23
38
4
19
39
5
36
22
37
17
7
26
10
33
21
28
25
6
15
14

>  <PUBCHEM_MMFF94_PARTIAL_CHARGES>  (1) 
29
1 -0.84
10 0.1
11 0.27
12 -0.15
13 -0.15
14 -0.15
15 -0.15
16 -0.15
17 -0.15
18 -0.15
19 -0.15
2 -0.6
20 0.27
27 0.4
3 -0.9
30 0.15
31 0.15
32 0.15
33 0.15
34 0.15
35 0.15
36 0.15
37 0.36
38 0.15
4 0.37
5 0.51
6 0.1
7 -0.14
9 0.1

>  <PUBCHEM_EFFECTIVE_ROTOR_COUNT>  (1) 
4.6

>  <PUBCHEM_PHARMACOPHORE_FEATURES>  (1) 
8
1 1 cation
1 2 cation
1 2 donor
1 3 cation
1 3 donor
6 6 9 12 14 16 17 rings
6 7 10 13 15 18 19 rings
7 1 2 5 6 7 9 10 rings

>  <PUBCHEM_HEAVY_ATOM_COUNT>  (1) 
20

>  <PUBCHEM_ATOM_DEF_STEREO_COUNT>  (1) 
0

>  <PUBCHEM_ATOM_UDEF_STEREO_COUNT>  (1) 
0

>  <PUBCHEM_BOND_DEF_STEREO_COUNT>  (1) 
0

>  <PUBCHEM_BOND_UDEF_STEREO_COUNT>  (1) 
0

>  <PUBCHEM_ISOTOPIC_ATOM_COUNT>  (1) 
0

>  <PUBCHEM_COMPONENT_COUNT>  (1) 
1

>  <PUBCHEM_CACTVS_TAUTO_COUNT>  (1) 
1

>  <PUBCHEM_CONFORMER_ID>  (1) 
00008CC700000001

>  <PUBCHEM_MMFF94_ENERGY>  (1) 
74.8809

>  <PUBCHEM_FEATURE_SELFOVERLAP>  (1) 
40.612

>  <PUBCHEM_SHAPE_FINGERPRINT>  (1) 
10165383 225 16963530092526960917
104564 63 18342462521324101592
1100329 8 18340491062605926208
11578080 2 16771795833278221922
12506688 2 18188205515408695798
12507560 14 18269836574443736071
12788726 201 18342472451146403017
13027679 85 18336259149687063469
13132413 78 18412266129383844229
13134695 92 18198894993075993061
13140716 1 17832425667462885090
14464042 87 18343299237447385345
14787075 74 17903919203719895700
14866123 147 17760925147874219362
15475509 84 18118429421495326499
16945 1 17897716798086878918
17804303 29 17968376861396181119
19591789 44 16825311009569251358
20261772 1 18194978347911035776
20510252 161 18335409141399985030
21041028 32 18341054132859934481
21236236 1 18340769252738951746
23175994 123 18411136969480798958
23419403 2 17910914141650339621
23559900 14 17680699630130282943
23566358 27 18118418241605822390
2748010 2 17392191124317277398
3286 77 18120653793268200047
394222 165 16445595137811874836
427121 178 17413044092740907105
6438718 38 17988928821273457925
7364860 26 18048595120824020558
7471813 234 18057589053346608855
81228 2 18265612087565772814

>  <PUBCHEM_SHAPE_MULTIPOLES>  (1) 
396.65
6.08
3.44
1.34
2.03
2.52
-0.2
-2.76
1.07
-1.66
1.38
-0.53
0.36
-1.04

>  <PUBCHEM_SHAPE_SELFOVERLAP>  (1) 
843.935

>  <PUBCHEM_SHAPE_VOLUME>  (1) 
216.2

>  <PUBCHEM_COORDINATE_TYPE>  (1) 
2
5
10

$$$$
