36037
     RDKit          3D

 20 22  0  0  0  0  0  0  0  0999 V2000
    0.0132   -0.1562   -0.4141 N   0  0  0  0  0  0  0  0  0  0  0  0
    1.9533    1.3736    1.3057 N   0  0  0  0  0  0  0  0  0  0  0  0
   -4.6240   -1.2030    0.9460 N   0  0  0  0  0  0  0  0  0  0  0  0
   -1.2435   -0.7740   -0.8606 C   0  0  0  0  0  0  0  0  0  0  0  0
    1.1124   -1.0508   -0.3279 C   0  0  0  0  0  0  0  0  0  0  0  0
    0.0574    1.2642   -0.3094 C   0  0  0  0  0  0  0  0  0  0  0  0
    2.0346   -0.9695    0.7312 C   0  0  0  0  0  0  0  0  0  0  0  0
   -2.3063   -0.6895    0.2345 C   0  0  0  0  0  0  0  0  0  0  0  0
    1.8252    0.0350    1.8238 C   0  0  0  0  0  0  0  0  0  0  0  0
    1.0324    1.9639    0.4488 C   0  0  0  0  0  0  0  0  0  0  0  0
   -3.6388   -1.3582   -0.1174 C   0  0  0  0  0  0  0  0  0  0  0  0
    1.3232   -2.0429   -1.3079 C   0  0  0  0  0  0  0  0  0  0  0  0
   -0.8644    2.0472   -1.0540 C   0  0  0  0  0  0  0  0  0  0  0  0
    3.1278   -1.8499    0.7920 C   0  0  0  0  0  0  0  0  0  0  0  0
    1.0567    3.3792    0.3997 C   0  0  0  0  0  0  0  0  0  0  0  0
    2.4116   -2.9151   -1.2410 C   0  0  0  0  0  0  0  0  0  0  0  0
    3.3153   -2.8173   -0.1911 C   0  0  0  0  0  0  0  0  0  0  0  0
   -0.8277    3.4427   -1.0719 C   0  0  0  0  0  0  0  0  0  0  0  0
    0.1411    4.1117   -0.3484 C   0  0  0  0  0  0  0  0  0  0  0  0
   -5.8997   -1.7911    0.5621 C   0  0  0  0  0  0  0  0  0  0  0  0
  1  4  1  0
  1  5  1  0
  1  6  1  0
  2  9  1  0
  2 10  1  0
  3 11  1  0
  3 20  1  0
  4  8  1  0
  5  7  2  0
  5 12  1  0
  6 10  2  0
  6 13  1  0
  7  9  1  0
  7 14  1  0
  8 11  1  0
 10 15  1  0
 12 16  2  0
 13 18  2  0
 14 17  2  0
 15 19  2  0
 16 17  1  0
 18 19  1  0
M  END
>  <PUBCHEM_COMPOUND_CID>  (1) 
36037

>  <PUBCHEM_CONFORMER_RMSD>  (1) 
0.6

>  <PUBCHEM_CONFORMER_DIVERSEORDER>  (1) 
1
22
21
9
10
26
19
3
8
5
28
25
15
29
4
7
31
16
27
12
23
11
20
2
13
17
18
6
30
24
14

>  <PUBCHEM_MMFF94_PARTIAL_CHARGES>  (1) 
29
1 -0.57
10 0.1
11 0.27
12 -0.15
13 -0.15
14 -0.15
15 -0.15
16 -0.15
17 -0.15
18 -0.15
19 -0.15
2 -0.87
20 0.27
27 0.4
3 -0.9
30 0.15
31 0.15
32 0.15
33 0.15
34 0.15
35 0.15
36 0.15
37 0.15
38 0.36
4 0.37
5 0.1
6 0.1
7 -0.14
9 0.51

>  <PUBCHEM_EFFECTIVE_ROTOR_COUNT>  (1) 
4.6

>  <PUBCHEM_PHARMACOPHORE_FEATURES>  (1) 
8
1 1 cation
1 2 cation
1 2 donor
1 3 cation
1 3 donor
6 5 7 12 14 16 17 rings
6 6 10 13 15 18 19 rings
7 1 2 5 6 7 9 10 rings

>  <PUBCHEM_HEAVY_ATOM_COUNT>  (1) 
20

>  <PUBCHEM_ATOM_DEF_STEREO_COUNT>  (1) 
0

>  <PUBCHEM_ATOM_UDEF_STEREO_COUNT>  (1) 
0

>  <PUBCHEM_BOND_DEF_STEREO_COUNT>  (1) 
0

>  <PUBCHEM_BOND_UDEF_STEREO_COUNT>  (1) 
0

>  <PUBCHEM_ISOTOPIC_ATOM_COUNT>  (1) 
0

>  <PUBCHEM_COMPONENT_COUNT>  (1) 
1

>  <PUBCHEM_CACTVS_TAUTO_COUNT>  (1) 
1

>  <PUBCHEM_CONFORMER_ID>  (1) 
00008CC500000001

>  <PUBCHEM_MMFF94_ENERGY>  (1) 
84.1444

>  <PUBCHEM_FEATURE_SELFOVERLAP>  (1) 
40.613

>  <PUBCHEM_SHAPE_FINGERPRINT>  (1) 
108634 29 18048008815202389069
12553582 1 18412256246627478590
12788726 201 18117008688694289290
13052359 8 17614841816745921285
13140716 1 18267297638601295529
14363568 33 18340481283244623624
14790565 3 18121501520770349700
14955137 171 18193840564193636256
15420108 30 17910662486514818768
16945 1 18048568672610473640
17357779 13 18197479745707121549
1813 80 18340217310096165751
19591789 44 18122334942347119028
20600515 1 17679554810328167957
20739085 24 18340764952574692930
21049683 271 18263379125346753478
21452121 99 17686891722797612066
21524375 3 17254835798506691613
22182313 1 17771886265802391026
23419403 2 17701234976367242603
23557571 272 17980757147945624814
23559900 14 16618961303789575342
2748010 2 17982979363982273024
3060560 45 18122629623920756756
3091708 16 9140016385637598301
31174 14 18263074565147894047
3380486 145 17557669557248866266
3759504 43 17328586116306992604
4409770 3 17688600364051896327
5283268 108 18409729543474038401
57527585 103 15902945020053924902
6786 2 16604409751961665449
7364860 26 18267592492701508087
81228 2 18121210974805976285
9841814 1 18114180878210632571

>  <PUBCHEM_SHAPE_MULTIPOLES>  (1) 
396.65
6.56
4.99
1.33
11.01
5.17
-0.14
-9.53
-2.11
-0.47
1.13
-0.51
-0.1
1.67

>  <PUBCHEM_SHAPE_SELFOVERLAP>  (1) 
843.317

>  <PUBCHEM_SHAPE_VOLUME>  (1) 
216.6

>  <PUBCHEM_COORDINATE_TYPE>  (1) 
2
5
10

$$$$
