36031
     RDKit          3D

 18 21  0  0  1  0  0  0  0  0999 V2000
   -2.1012   -2.5327   -0.6451 O   0  0  0  0  0  0  0  0  0  0  0  0
   -2.1020    2.5344    0.6409 O   0  0  0  0  0  0  0  0  0  0  0  0
    0.4708   -1.4645   -0.2091 C   0  0  0  0  0  0  0  0  0  0  0  0
    0.4702    1.4650    0.2092 C   0  0  0  0  0  0  0  0  0  0  0  0
   -0.7783   -0.7207    0.2856 C   0  0  0  0  0  0  0  0  0  0  0  0
   -0.7788    0.7203   -0.2851 C   0  0  0  0  0  0  0  0  0  0  0  0
    1.7401   -0.6623   -0.0940 C   0  0  0  0  0  0  0  0  0  0  0  0
    1.7398    0.6629    0.0958 C   0  0  0  0  0  0  0  0  0  0  0  0
    0.8653   -2.7144    0.5701 C   0  0  0  0  0  0  0  0  0  0  0  0
    0.8650    2.7135   -0.5722 C   0  0  0  0  0  0  0  0  0  0  0  0
    2.9281   -1.5768   -0.0742 C   0  0  0  0  0  0  0  0  0  0  0  0
    2.9275    1.5777    0.0773 C   0  0  0  0  0  0  0  0  0  0  0  0
    2.3045   -2.9643    0.1123 C   0  0  0  0  0  0  0  0  0  0  0  0
    2.3041    2.9645   -0.1151 C   0  0  0  0  0  0  0  0  0  0  0  0
   -2.0737   -1.4237   -0.1149 C   0  0  0  0  0  0  0  0  0  0  0  0
   -2.0744    1.4232    0.1151 C   0  0  0  0  0  0  0  0  0  0  0  0
   -3.3529   -0.7113    0.2678 C   0  0  0  0  0  0  0  0  0  0  0  0
   -3.3539    0.7092   -0.2643 C   0  0  0  0  0  0  0  0  0  0  0  0
  1 15  2  0
  2 16  2  0
  3  5  1  0
  3  7  1  0
  3  9  1  0
  4  6  1  0
  4  8  1  0
  4 10  1  0
  5  6  1  0
  5 15  1  0
  6 16  1  0
  7  8  2  0
  7 11  1  0
  8 12  1  0
  9 13  1  0
 10 14  1  0
 11 13  1  0
 12 14  1  0
 15 17  1  0
 16 18  1  0
 17 18  1  0
M  END
>  <PUBCHEM_COMPOUND_CID>  (1) 
36031

>  <PUBCHEM_CONFORMER_RMSD>  (1) 
0.6

>  <PUBCHEM_CONFORMER_DIVERSEORDER>  (1) 
1
8
2
7
6
9
5
4
3

>  <PUBCHEM_MMFF94_PARTIAL_CHARGES>  (1) 
14
1 -0.57
11 0.14
12 0.14
15 0.45
16 0.45
17 0.06
18 0.06
2 -0.57
3 0.14
4 0.14
5 0.06
6 0.06
7 -0.28
8 -0.28

>  <PUBCHEM_EFFECTIVE_ROTOR_COUNT>  (1) 
1.6

>  <PUBCHEM_PHARMACOPHORE_FEATURES>  (1) 
6
1 1 acceptor
1 2 acceptor
5 3 7 9 11 13 rings
5 4 8 10 12 14 rings
6 3 4 5 6 7 8 rings
6 5 6 15 16 17 18 rings

>  <PUBCHEM_HEAVY_ATOM_COUNT>  (1) 
18

>  <PUBCHEM_ATOM_DEF_STEREO_COUNT>  (1) 
0

>  <PUBCHEM_ATOM_UDEF_STEREO_COUNT>  (1) 
4

>  <PUBCHEM_BOND_DEF_STEREO_COUNT>  (1) 
0

>  <PUBCHEM_BOND_UDEF_STEREO_COUNT>  (1) 
0

>  <PUBCHEM_ISOTOPIC_ATOM_COUNT>  (1) 
0

>  <PUBCHEM_COMPONENT_COUNT>  (1) 
1

>  <PUBCHEM_CACTVS_TAUTO_COUNT>  (1) 
6

>  <PUBCHEM_CONFORMER_ID>  (1) 
00008CBF00000001

>  <PUBCHEM_MMFF94_ENERGY>  (1) 
34.5427

>  <PUBCHEM_FEATURE_SELFOVERLAP>  (1) 
30.61

>  <PUBCHEM_SHAPE_FINGERPRINT>  (1) 
10319926 262 17118871290714284832
10411042 1 18049722919355022915
10967382 1 18338516451322219109
11578080 2 17241873312260638798
11680986 33 18408606942102039985
12553582 1 17977386027661203026
13132413 78 18268430144468233838
13140716 1 18267022953983405475
138480 1 18337671902080641666
14178342 30 18340195354175804784
14223421 5 18335986453845071227
14790565 3 17332261801228476848
15042514 8 17327737809100821968
15309172 13 18049732007299333097
15442244 35 18267867189913877057
16945 1 18411419514046420741
193761 8 18410855464423129092
19591789 44 17834120019060061098
19868273 325 18049163271861492023
20028762 73 16471229305851572870
20510252 161 17910399724705868505
20511035 2 18058715927773092958
20905425 154 18271530891501410054
21267235 1 18194973945559384179
21501502 16 18412545414032391137
21524375 3 17982735474026875846
2334 1 17978510067847005067
23402539 116 17478887641958005934
23463225 33 18121783833037868239
23559900 14 18412254026049647825
238 59 17543864286824191215
2748010 2 17978504230886223100
2897 32 18337954617997108253
3091708 16 9576845775521225410
335352 9 18266740177800545589
34934 24 18120086183079875698
350125 39 18410018740411868729
352729 6 17760370294044036962
43471831 8 18192989546245936298
589210 1 18411138039038074561
5939293 188 18196088833216980988
6992083 37 17981897332491428033
7364860 26 18411981364556786048
7832392 63 18267584598245766899
81228 2 17620480108094189130
90316 7 17686326582500729402

>  <PUBCHEM_SHAPE_MULTIPOLES>  (1) 
358.69
4.87
3.92
0.7
2.01
0
0
0
0
-2.07
0
0.06
0
-0.36

>  <PUBCHEM_SHAPE_SELFOVERLAP>  (1) 
785.084

>  <PUBCHEM_SHAPE_VOLUME>  (1) 
193.6

>  <PUBCHEM_COORDINATE_TYPE>  (1) 
2
5
10

$$$$
