36042
     RDKit          3D

 17 19  0  0  0  0  0  0  0  0999 V2000
    1.3330   -2.5818   -0.6313 O   0  0  0  0  0  0  0  0  0  0  0  0
   -0.6778   -1.5676   -0.0739 N   0  0  0  0  0  0  0  0  0  0  0  0
    0.0081    1.2722   -0.8770 N   0  0  0  0  0  0  0  0  0  0  0  0
   -1.5491   -0.4278    0.0760 C   0  0  0  0  0  0  0  0  0  0  0  0
   -1.2453    0.8583   -0.4011 C   0  0  0  0  0  0  0  0  0  0  0  0
    1.2619    0.8860   -0.4008 C   0  0  0  0  0  0  0  0  0  0  0  0
    1.5638   -0.4047    0.0155 C   0  0  0  0  0  0  0  0  0  0  0  0
    0.7119   -1.5735   -0.2746 C   0  0  0  0  0  0  0  0  0  0  0  0
   -2.8423   -0.6273    0.6231 C   0  0  0  0  0  0  0  0  0  0  0  0
   -2.2391    1.8696   -0.3451 C   0  0  0  0  0  0  0  0  0  0  0  0
    2.2391    1.8902   -0.2344 C   0  0  0  0  0  0  0  0  0  0  0  0
    2.8173   -0.6763    0.6013 C   0  0  0  0  0  0  0  0  0  0  0  0
   -1.3218   -2.8922   -0.0626 C   0  0  0  0  0  0  0  0  0  0  0  0
   -3.8012    0.3863    0.6839 C   0  0  0  0  0  0  0  0  0  0  0  0
   -3.5024    1.6396    0.1871 C   0  0  0  0  0  0  0  0  0  0  0  0
    3.4787    1.6180    0.3429 C   0  0  0  0  0  0  0  0  0  0  0  0
    3.7650    0.3309    0.7709 C   0  0  0  0  0  0  0  0  0  0  0  0
  1  8  2  0
  2  4  1  0
  2  8  1  0
  2 13  1  0
  3  5  1  0
  3  6  1  0
  4  5  2  0
  4  9  1  0
  5 10  1  0
  6  7  2  0
  6 11  1  0
  7  8  1  0
  7 12  1  0
  9 14  2  0
 10 15  2  0
 11 16  2  0
 12 17  2  0
 14 15  1  0
 16 17  1  0
M  END
>  <PUBCHEM_COMPOUND_CID>  (1) 
36042

>  <PUBCHEM_CONFORMER_RMSD>  (1) 
0.4

>  <PUBCHEM_CONFORMER_DIVERSEORDER>  (1) 
1
2

>  <PUBCHEM_MMFF94_PARTIAL_CHARGES>  (1) 
26
1 -0.57
10 -0.15
11 -0.15
12 -0.15
13 0.3
14 -0.15
15 -0.15
16 -0.15
17 -0.15
18 0.4
19 0.15
2 -0.48
20 0.15
21 0.15
22 0.15
26 0.15
27 0.15
28 0.15
29 0.15
3 -0.6
4 0.12
5 0.1
6 0.1
7 0.09
8 0.54
9 -0.15

>  <PUBCHEM_EFFECTIVE_ROTOR_COUNT>  (1) 
0.4

>  <PUBCHEM_PHARMACOPHORE_FEATURES>  (1) 
6
1 1 acceptor
1 3 cation
1 3 donor
6 4 5 9 10 14 15 rings
6 6 7 11 12 16 17 rings
7 2 3 4 5 6 7 8 rings

>  <PUBCHEM_HEAVY_ATOM_COUNT>  (1) 
17

>  <PUBCHEM_ATOM_DEF_STEREO_COUNT>  (1) 
0

>  <PUBCHEM_ATOM_UDEF_STEREO_COUNT>  (1) 
0

>  <PUBCHEM_BOND_DEF_STEREO_COUNT>  (1) 
0

>  <PUBCHEM_BOND_UDEF_STEREO_COUNT>  (1) 
0

>  <PUBCHEM_ISOTOPIC_ATOM_COUNT>  (1) 
0

>  <PUBCHEM_COMPONENT_COUNT>  (1) 
1

>  <PUBCHEM_CACTVS_TAUTO_COUNT>  (1) 
2

>  <PUBCHEM_CONFORMER_ID>  (1) 
00008CCA00000001

>  <PUBCHEM_MMFF94_ENERGY>  (1) 
87.8783

>  <PUBCHEM_FEATURE_SELFOVERLAP>  (1) 
30.462

>  <PUBCHEM_SHAPE_FINGERPRINT>  (1) 
10465860 228 18199759037406293969
10608611 8 18265051336614865245
10967382 1 18410293583916713964
1100329 8 15959215383752805253
11132069 177 18410288142261760728
11370993 70 18411412874201424937
11680986 33 18337962177287450055
12035758 1 18270118986103255338
12202030 40 14202215164711624104
12251169 10 18334572464654028792
12382932 28 18409732863204352185
12390115 104 18053674856609136704
12696612 119 18187369830562853476
13140716 1 18192996138857088593
13380535 76 18411415120284502911
13583140 156 17023169535773349121
14178342 30 18192978538693130434
15196674 1 18409448080965640985
15219456 202 18337955567432728965
15309172 13 18410294696598086761
15442244 35 18408597085284211370
15536298 74 18271248209781352767
15775835 57 18339083799491171176
16945 1 18410013247116840934
17804303 29 18409451358526613846
1813 80 16805881776666985106
18186145 218 18130235843471685865
19049666 15 17902791856082383877
200 152 18271511070955495277
20261772 1 18266190606707323955
20510252 161 17984145034927379328
20871998 184 18266465480398324127
21501502 16 18265047114746013008
21524375 3 18342735243094386843
21731228 192 18411701001760535370
23184049 59 18334292058981730480
2334 1 17832991928667059143
23388829 49 17832423481118653743
23402539 116 18198050568715800679
23463225 33 18260547835581760548
2748010 2 18191309269177273207
42630746 31 18341051809868189837
49207404 50 18336846220588282571
495365 180 18053360133979013277
58807428 26 18335134259066186075
69090 78 18410006650453217041
7097593 13 18041824139621605650
7364860 26 18198909110596532558
81228 2 17762880457430920290
84936 31 17345187792593461422
9709674 26 18409453557497401187

>  <PUBCHEM_SHAPE_MULTIPOLES>  (1) 
334.02
6.2
2.7
0.81
0.13
1.42
-0.03
-2.76
-1.87
-0.34
0.43
0.05
-0.04
0.13

>  <PUBCHEM_SHAPE_SELFOVERLAP>  (1) 
738.127

>  <PUBCHEM_SHAPE_VOLUME>  (1) 
176.5

>  <PUBCHEM_COORDINATE_TYPE>  (1) 
2
5
10

$$$$
