36046
     RDKit          3D

 15 17  0  0  0  0  0  0  0  0999 V2000
   -0.5705   -1.7269    0.2218 N   0  0  0  0  0  0  0  0  0  0  0  0
   -0.0002    1.1789   -0.2857 N   0  0  0  0  0  0  0  0  0  0  0  0
    1.6003   -0.7146   -0.2541 C   0  0  0  0  0  0  0  0  0  0  0  0
    0.5609   -1.7117   -0.6756 C   0  0  0  0  0  0  0  0  0  0  0  0
    1.2989    0.6523   -0.1530 C   0  0  0  0  0  0  0  0  0  0  0  0
   -1.5448   -0.7373    0.1640 C   0  0  0  0  0  0  0  0  0  0  0  0
   -1.2870    0.6126   -0.1454 C   0  0  0  0  0  0  0  0  0  0  0  0
    2.9207   -1.1540   -0.0457 C   0  0  0  0  0  0  0  0  0  0  0  0
    2.3412    1.5470    0.1618 C   0  0  0  0  0  0  0  0  0  0  0  0
   -2.8808   -1.1352    0.3914 C   0  0  0  0  0  0  0  0  0  0  0  0
   -2.3823    1.5002   -0.2574 C   0  0  0  0  0  0  0  0  0  0  0  0
    3.9357   -0.2529    0.2684 C   0  0  0  0  0  0  0  0  0  0  0  0
    3.6462    1.1009    0.3696 C   0  0  0  0  0  0  0  0  0  0  0  0
   -3.9439   -0.2402    0.2871 C   0  0  0  0  0  0  0  0  0  0  0  0
   -3.6945    1.0807   -0.0472 C   0  0  0  0  0  0  0  0  0  0  0  0
  1  4  1  0
  1  6  1  0
  2  5  1  0
  2  7  1  0
  3  4  1  0
  3  5  2  0
  3  8  1  0
  5  9  1  0
  6  7  2  0
  6 10  1  0
  7 11  1  0
  8 12  2  0
  9 13  2  0
 10 14  2  0
 11 15  2  0
 12 13  1  0
 14 15  1  0
M  END
>  <PUBCHEM_COMPOUND_CID>  (1) 
36046

>  <PUBCHEM_CONFORMER_RMSD>  (1) 
0.4

>  <PUBCHEM_CONFORMER_DIVERSEORDER>  (1) 
1
2

>  <PUBCHEM_MMFF94_PARTIAL_CHARGES>  (1) 
25
1 -0.87
10 -0.15
11 -0.15
12 -0.15
13 -0.15
14 -0.15
15 -0.15
18 0.4
19 0.4
2 -0.6
20 0.15
21 0.15
22 0.15
23 0.15
24 0.15
25 0.15
26 0.15
27 0.15
3 -0.14
4 0.51
5 0.1
6 0.1
7 0.1
8 -0.15
9 -0.15

>  <PUBCHEM_EFFECTIVE_ROTOR_COUNT>  (1) 
0.6

>  <PUBCHEM_PHARMACOPHORE_FEATURES>  (1) 
7
1 1 cation
1 1 donor
1 2 cation
1 2 donor
6 3 5 8 9 12 13 rings
6 6 7 10 11 14 15 rings
7 1 2 3 4 5 6 7 rings

>  <PUBCHEM_HEAVY_ATOM_COUNT>  (1) 
15

>  <PUBCHEM_ATOM_DEF_STEREO_COUNT>  (1) 
0

>  <PUBCHEM_ATOM_UDEF_STEREO_COUNT>  (1) 
0

>  <PUBCHEM_BOND_DEF_STEREO_COUNT>  (1) 
0

>  <PUBCHEM_BOND_UDEF_STEREO_COUNT>  (1) 
0

>  <PUBCHEM_ISOTOPIC_ATOM_COUNT>  (1) 
0

>  <PUBCHEM_COMPONENT_COUNT>  (1) 
1

>  <PUBCHEM_CACTVS_TAUTO_COUNT>  (1) 
1

>  <PUBCHEM_CONFORMER_ID>  (1) 
00008CCE00000001

>  <PUBCHEM_MMFF94_ENERGY>  (1) 
68.0505

>  <PUBCHEM_FEATURE_SELFOVERLAP>  (1) 
35.537

>  <PUBCHEM_SHAPE_FINGERPRINT>  (1) 
10608611 8 18410571769043642253
10967382 1 18410856538222988406
1100329 8 14591803422937108872
11132069 177 18411696595150294321
11471102 20 18341327821023949356
11543360 7 15123500454023486560
12251169 10 18408320012416707968
12382932 28 18411420609152461017
13380535 76 18411418410197900543
13581323 91 18186519912321986092
13897977 150 18411416185499630869
13922767 16 18342173349834509912
14144814 61 18409449180535245584
14325111 11 18410855464444442485
15196674 1 18410575084663078939
15219456 202 18411983541936426151
15309172 13 18272656757138431591
15375358 24 18410290281445514029
15442244 35 18194964041622742914
15536298 74 18342740697855612726
15653759 3 18113903762092691275
15775835 57 18130507525859554230
16945 1 18192155008198598926
17802600 8 18410851066524415001
17804303 29 18409453553043970558
18175812 5 18408323280565015116
18186145 218 18202010892991042440
200 152 18060409227841993997
20201158 50 18412546470515361111
20510252 161 18342459231469090409
20528008 55 18411978074495916217
20645477 70 18271804566896924935
21249577 43 18410012121888124229
21267235 1 18409739460142392786
21501502 16 18339358685829612270
22854114 59 18343584053164749833
23402539 116 18410845573519654605
23402655 69 18271800182057101429
23463225 33 18334858320375997052
23559900 14 18339641132022969022
2748010 2 18410297986284455927
335352 9 18122344575383225182
5104073 3 18410293605428364201
53812653 166 18412260618993245776
57812782 119 18407758135936013891
69090 78 18342734135245928263
7364860 26 18195808470684883358
84936 31 16629123148433496766
8809292 202 18261398840275105194
9709674 26 18411142449885611279

>  <PUBCHEM_SHAPE_MULTIPOLES>  (1) 
298.73
7.14
1.84
0.69
0.29
0.12
-0.01
-1.13
0.96
-0.07
-0.09
-0.01
0.05
0.41

>  <PUBCHEM_SHAPE_SELFOVERLAP>  (1) 
657.817

>  <PUBCHEM_SHAPE_VOLUME>  (1) 
155.6

>  <PUBCHEM_COORDINATE_TYPE>  (1) 
2
5
10

$$$$
