36041
     RDKit          3D

 22 24  0  0  1  0  0  0  0  0999 V2000
   -4.6289   -2.4097    1.0539 Cl  0  0  0  0  0  0  0  0  0  0  0  0
    1.0419    0.5872   -0.9666 N   0  0  0  0  0  0  0  0  0  0  0  0
    0.4199   -2.0049    0.3626 N   0  0  0  0  0  0  0  0  0  0  0  0
   -1.2023    2.8877    0.5058 N   0  0  0  0  0  0  0  0  0  0  0  0
    1.2059    2.0275   -1.1029 C   0  0  0  0  0  0  0  0  0  0  0  0
    0.1023   -0.0802   -1.8561 C   0  0  0  0  0  0  0  0  0  0  0  0
    1.2574    2.6981    0.2694 C   0  0  0  0  0  0  0  0  0  0  0  0
    2.0142   -0.1974   -0.3469 C   0  0  0  0  0  0  0  0  0  0  0  0
   -1.0567   -0.6402   -1.0836 C   0  0  0  0  0  0  0  0  0  0  0  0
    0.0290    2.4453    1.1490 C   0  0  0  0  0  0  0  0  0  0  0  0
    1.7174   -1.4514    0.2416 C   0  0  0  0  0  0  0  0  0  0  0  0
   -0.8534   -1.5923   -0.0736 C   0  0  0  0  0  0  0  0  0  0  0  0
    3.3561    0.2496   -0.2904 C   0  0  0  0  0  0  0  0  0  0  0  0
   -2.3639   -0.2498   -1.4244 C   0  0  0  0  0  0  0  0  0  0  0  0
    2.7691   -2.2104    0.8094 C   0  0  0  0  0  0  0  0  0  0  0  0
   -1.9816   -2.1285    0.5776 C   0  0  0  0  0  0  0  0  0  0  0  0
    4.3747   -0.5121    0.2842 C   0  0  0  0  0  0  0  0  0  0  0  0
    4.0820   -1.7496    0.8290 C   0  0  0  0  0  0  0  0  0  0  0  0
   -3.4661   -0.7913   -0.7668 C   0  0  0  0  0  0  0  0  0  0  0  0
   -3.2751   -1.7339    0.2348 C   0  0  0  0  0  0  0  0  0  0  0  0
   -1.1752    4.3339    0.2797 C   0  0  0  0  0  0  0  0  0  0  0  0
   -2.3667    2.5223    1.3144 C   0  0  0  0  0  0  0  0  0  0  0  0
  1 20  1  0
  2  5  1  0
  2  6  1  0
  2  8  1  0
  3 11  1  0
  3 12  1  0
  4 10  1  0
  4 21  1  0
  4 22  1  0
  5  7  1  0
  6  9  1  0
  7 10  1  0
  8 11  2  0
  8 13  1  0
  9 12  2  0
  9 14  1  0
 11 15  1  0
 12 16  1  0
 13 17  2  0
 14 19  2  0
 15 18  2  0
 16 20  2  0
 17 18  1  0
 19 20  1  0
M  END
>  <PUBCHEM_COMPOUND_CID>  (1) 
36041

>  <PUBCHEM_CONFORMER_RMSD>  (1) 
0.8

>  <PUBCHEM_CONFORMER_DIVERSEORDER>  (1) 
1
10
7
6
11
2
14
4
15
3
5
13
16
9
8
12

>  <PUBCHEM_MMFF94_PARTIAL_CHARGES>  (1) 
29
1 -0.18
10 0.27
11 0.1
12 0.1
13 -0.15
14 -0.15
15 -0.15
16 -0.15
17 -0.15
18 -0.15
19 -0.15
2 -0.84
20 0.18
21 0.27
22 0.27
3 -0.6
31 0.4
32 0.15
33 0.15
34 0.15
35 0.15
36 0.15
37 0.15
38 0.15
4 -0.81
5 0.37
6 0.51
8 0.1
9 -0.14

>  <PUBCHEM_EFFECTIVE_ROTOR_COUNT>  (1) 
4.6

>  <PUBCHEM_PHARMACOPHORE_FEATURES>  (1) 
7
1 2 cation
1 3 cation
1 3 donor
1 4 cation
6 8 11 13 15 17 18 rings
6 9 12 14 16 19 20 rings
7 2 3 6 8 9 11 12 rings

>  <PUBCHEM_HEAVY_ATOM_COUNT>  (1) 
22

>  <PUBCHEM_ATOM_DEF_STEREO_COUNT>  (1) 
0

>  <PUBCHEM_ATOM_UDEF_STEREO_COUNT>  (1) 
0

>  <PUBCHEM_BOND_DEF_STEREO_COUNT>  (1) 
0

>  <PUBCHEM_BOND_UDEF_STEREO_COUNT>  (1) 
0

>  <PUBCHEM_ISOTOPIC_ATOM_COUNT>  (1) 
0

>  <PUBCHEM_COMPONENT_COUNT>  (1) 
1

>  <PUBCHEM_CACTVS_TAUTO_COUNT>  (1) 
1

>  <PUBCHEM_CONFORMER_ID>  (1) 
00008CC900000001

>  <PUBCHEM_MMFF94_ENERGY>  (1) 
84.2279

>  <PUBCHEM_FEATURE_SELFOVERLAP>  (1) 
35.536

>  <PUBCHEM_SHAPE_FINGERPRINT>  (1) 
10165383 225 17395306066692036101
10382601 240 17699012004432648289
104564 63 18342456989580187292
1100329 8 18339642218196521081
11370993 70 17474104302452653720
12403259 226 18117550941484758175
12506688 2 18261387884098518982
12507560 14 18341050830067507591
12788726 201 18340780281645489604
13132413 78 18340768152336085724
13134695 92 18269259317700472757
13140716 1 18413674608353834009
13583140 156 17906450283956713391
13965767 371 17345479365006350273
14866123 147 17616807739316134674
15475509 84 18335435560381821449
16945 1 17969769968440419318
17138139 8 17407348652790589925
19930381 70 17762335121391672267
20261772 1 18124606283839657512
20510252 161 18334849489913005222
21041028 32 18411981390099788519
21731228 192 17621600510210907560
23175994 123 18411978074438192935
23419403 2 18120057754633204484
23558518 356 17908134387281574518
23559900 14 17679010741678642951
238 59 17404828915519865029
31174 14 18120936376325211487
3286 77 18263646345649268407
392239 28 18196356225665828760
427121 178 17269485231557349425
5895379 119 16771022928111490681
6438718 38 17845368856357210453
7364860 26 18120651589665010454
7471813 234 18129360748470179055
81228 2 18194110816447046262

>  <PUBCHEM_SHAPE_MULTIPOLES>  (1) 
439.68
6.76
4.35
1.35
0.03
5.06
0.31
-5.79
-1.72
1.69
-1.81
0.49
0.18
-0.59

>  <PUBCHEM_SHAPE_SELFOVERLAP>  (1) 
924.555

>  <PUBCHEM_SHAPE_VOLUME>  (1) 
247.7

>  <PUBCHEM_COORDINATE_TYPE>  (1) 
2
5
10

$$$$
