36047
     RDKit          3D

 17 19  0  0  1  0  0  0  0  0999 V2000
    0.5137   -1.6822   -0.2254 N   0  0  0  0  0  0  0  0  0  0  0  0
   -0.0710    1.2680   -0.3771 N   0  0  0  0  0  0  0  0  0  0  0  0
   -0.5873   -1.4433   -1.1427 C   0  0  0  0  0  0  0  0  0  0  0  0
   -1.6319   -0.6289   -0.4429 C   0  0  0  0  0  0  0  0  0  0  0  0
   -1.3383    0.6976   -0.0871 C   0  0  0  0  0  0  0  0  0  0  0  0
    1.4779   -0.6939   -0.0125 C   0  0  0  0  0  0  0  0  0  0  0  0
    1.2237    0.7071   -0.1443 C   0  0  0  0  0  0  0  0  0  0  0  0
   -2.8867   -1.1872   -0.1511 C   0  0  0  0  0  0  0  0  0  0  0  0
    0.6700   -3.0312    0.3067 C   0  0  0  0  0  0  0  0  0  0  0  0
   -2.3448    1.4405    0.5631 C   0  0  0  0  0  0  0  0  0  0  0  0
    2.7991   -1.0976    0.3244 C   0  0  0  0  0  0  0  0  0  0  0  0
    2.3219    1.5928    0.0496 C   0  0  0  0  0  0  0  0  0  0  0  0
   -0.1425    2.6519   -0.8730 C   0  0  0  0  0  0  0  0  0  0  0  0
   -3.8634   -0.4327    0.4923 C   0  0  0  0  0  0  0  0  0  0  0  0
   -3.5925    0.8822    0.8497 C   0  0  0  0  0  0  0  0  0  0  0  0
    3.8453   -0.1966    0.5065 C   0  0  0  0  0  0  0  0  0  0  0  0
    3.6068    1.1536    0.3636 C   0  0  0  0  0  0  0  0  0  0  0  0
  1  3  1  0
  1  6  1  0
  1  9  1  0
  2  5  1  0
  2  7  1  0
  2 13  1  0
  3  4  1  0
  4  5  2  0
  4  8  1  0
  5 10  1  0
  6  7  2  0
  6 11  1  0
  7 12  1  0
  8 14  2  0
 10 15  2  0
 11 16  2  0
 12 17  2  0
 14 15  1  0
 16 17  1  0
M  END
>  <PUBCHEM_COMPOUND_CID>  (1) 
36047

>  <PUBCHEM_CONFORMER_RMSD>  (1) 
0.6

>  <PUBCHEM_CONFORMER_DIVERSEORDER>  (1) 
1
3
2
4

>  <PUBCHEM_MMFF94_PARTIAL_CHARGES>  (1) 
25
1 -0.84
10 -0.15
11 -0.15
12 -0.15
13 0.37
14 -0.15
15 -0.15
16 -0.15
17 -0.15
2 -0.57
20 0.15
24 0.15
25 0.15
26 0.15
3 0.51
30 0.15
31 0.15
32 0.15
33 0.15
4 -0.14
5 0.1
6 0.1
7 0.1
8 -0.15
9 0.37

>  <PUBCHEM_EFFECTIVE_ROTOR_COUNT>  (1) 
0.6

>  <PUBCHEM_PHARMACOPHORE_FEATURES>  (1) 
5
1 1 cation
1 2 cation
6 4 5 8 10 14 15 rings
6 6 7 11 12 16 17 rings
7 1 2 3 4 5 6 7 rings

>  <PUBCHEM_HEAVY_ATOM_COUNT>  (1) 
17

>  <PUBCHEM_ATOM_DEF_STEREO_COUNT>  (1) 
0

>  <PUBCHEM_ATOM_UDEF_STEREO_COUNT>  (1) 
0

>  <PUBCHEM_BOND_DEF_STEREO_COUNT>  (1) 
0

>  <PUBCHEM_BOND_UDEF_STEREO_COUNT>  (1) 
0

>  <PUBCHEM_ISOTOPIC_ATOM_COUNT>  (1) 
0

>  <PUBCHEM_COMPONENT_COUNT>  (1) 
1

>  <PUBCHEM_CACTVS_TAUTO_COUNT>  (1) 
1

>  <PUBCHEM_CONFORMER_ID>  (1) 
00008CCF00000001

>  <PUBCHEM_MMFF94_ENERGY>  (1) 
89.0164

>  <PUBCHEM_FEATURE_SELFOVERLAP>  (1) 
25.389

>  <PUBCHEM_SHAPE_FINGERPRINT>  (1) 
10382601 240 18266474112976621467
10493431 412 18267867366282284632
10967382 1 18410291423711733326
11132069 177 18341887485390699256
11471102 22 18334306361133012795
11680986 33 17761762971491565598
12251169 10 18412827962640292553
12382932 28 18341897338093253001
12696612 119 18409738360846705189
13140716 1 18410854352095191000
13172582 1 18410293639777662636
13221675 6 18410854352200867654
14178342 30 18338809939771122777
14223421 5 18193275191482832483
14790565 3 18264220252017243932
15196674 1 18411981372925187618
15209289 33 18411982455731946850
15209294 21 18059284457295415472
15309172 13 18409727374193832802
15536298 74 18202287978727506470
15775835 57 18201722872478813688
16945 1 18193552272702679270
193761 8 17905321832253058620
19591789 44 18339364037823547950
19784866 170 18335710386031888537
200 152 18201144538733201615
20510252 161 18130790087426353728
20645476 183 17826249654587986204
21267235 1 18411708702658132271
21524375 3 18273214222297342174
22445834 79 18411419475476234699
23184049 59 18410575110538501172
2334 1 18338513144271286876
23388829 49 18340767134866478757
23402539 116 18270668887476104230
23463225 33 18408604768490086884
2748010 2 17619339905951402174
335352 9 18123469371530945524
34934 24 18336259038466377881
43471831 8 18409164389886389682
5104073 3 18412544314299270274
58807428 26 18410565176558980762
7364860 26 18128824036103125806
81228 2 17907835638236568866
84936 31 16127254351521676638

>  <PUBCHEM_SHAPE_MULTIPOLES>  (1) 
339.89
6.17
2.61
0.87
0.14
0.52
-0.07
-0.7
1.97
-0.41
-0.27
0.22
-0.05
-0.35

>  <PUBCHEM_SHAPE_SELFOVERLAP>  (1) 
740.074

>  <PUBCHEM_SHAPE_VOLUME>  (1) 
181.3

>  <PUBCHEM_COORDINATE_TYPE>  (1) 
2
5
10

$$$$
