3604
     RDKit          3D

 14 13  0  0  0  0  0  0  0  0999 V2000
   -4.3643   -0.0222   -0.0070 N   0  0  0  0  0  0  0  0  0  0  0  0
    4.3644    0.0228   -0.0039 N   0  0  0  0  0  0  0  0  0  0  0  0
   -3.0823   -0.7669    0.0139 C   0  0  0  0  0  0  0  0  0  0  0  0
    3.0819    0.7659    0.0333 C   0  0  0  0  0  0  0  0  0  0  0  0
   -1.9297    0.2260    0.0374 C   0  0  0  0  0  0  0  0  0  0  0  0
    1.9296   -0.2273    0.0099 C   0  0  0  0  0  0  0  0  0  0  0  0
   -0.5821   -0.4968    0.0130 C   0  0  0  0  0  0  0  0  0  0  0  0
    0.5819    0.4955    0.0005 C   0  0  0  0  0  0  0  0  0  0  0  0
   -5.5578   -0.9883    0.0019 C   0  0  0  0  0  0  0  0  0  0  0  0
   -4.4841    0.8936    1.2194 C   0  0  0  0  0  0  0  0  0  0  0  0
   -4.4686    0.8512   -1.2655 C   0  0  0  0  0  0  0  0  0  0  0  0
    5.5573    0.9880    0.0510 C   0  0  0  0  0  0  0  0  0  0  0  0
    4.4740   -0.9378    1.1889 C   0  0  0  0  0  0  0  0  0  0  0  0
    4.4800   -0.8036   -1.2928 C   0  0  0  0  0  0  0  0  0  0  0  0
  1  3  1  0
  1  9  1  0
  1 10  1  0
  1 11  1  0
  2  4  1  0
  2 12  1  0
  2 13  1  0
  2 14  1  0
  3  5  1  0
  4  6  1  0
  5  7  1  0
  6  8  1  0
  7  8  1  0
M  CHG  2   1   1   2   1
M  END
>  <PUBCHEM_COMPOUND_CID>  (1) 
3604

>  <PUBCHEM_CONFORMER_RMSD>  (1) 
0.8

>  <PUBCHEM_CONFORMER_DIVERSEORDER>  (1) 
1
7
24
18
8
4
25
16
19
23
11
10
6
2
17
3
15
13
5
22
9
20
12
21
14

>  <PUBCHEM_MMFF94_PARTIAL_CHARGES>  (1) 
10
1 -1.01
10 0.5
11 0.5
12 0.5
13 0.5
14 0.5
2 -1.01
3 0.5
4 0.5
9 0.5

>  <PUBCHEM_EFFECTIVE_ROTOR_COUNT>  (1) 
7

>  <PUBCHEM_PHARMACOPHORE_FEATURES>  (1) 
3
1 1 cation
1 2 cation
4 5 6 7 8 hydrophobe

>  <PUBCHEM_HEAVY_ATOM_COUNT>  (1) 
14

>  <PUBCHEM_ATOM_DEF_STEREO_COUNT>  (1) 
0

>  <PUBCHEM_ATOM_UDEF_STEREO_COUNT>  (1) 
0

>  <PUBCHEM_BOND_DEF_STEREO_COUNT>  (1) 
0

>  <PUBCHEM_BOND_UDEF_STEREO_COUNT>  (1) 
0

>  <PUBCHEM_ISOTOPIC_ATOM_COUNT>  (1) 
0

>  <PUBCHEM_COMPONENT_COUNT>  (1) 
1

>  <PUBCHEM_CACTVS_TAUTO_COUNT>  (1) 
1

>  <PUBCHEM_CONFORMER_ID>  (1) 
00000E1400000001

>  <PUBCHEM_MMFF94_ENERGY>  (1) 
44.9886

>  <PUBCHEM_FEATURE_SELFOVERLAP>  (1) 
15.223

>  <PUBCHEM_SHAPE_FINGERPRINT>  (1) 
10680689 15 17821731641646410217
10912923 1 18411138038916749163
11287383 113 18410575123454947690
12091667 2 17458344147618978729
13533116 47 15913055279074819710
14123238 8 18410573998036353027
1420 363 18409173233714396219
14251718 22 18408603694690097643
17834072 33 18333728043850091499
17834076 25 17704074010275039968
17844677 252 17894633651392026957
19489759 90 17203608173052164995
200 152 17131835365247234987
20281389 69 17603862257283345605
20645477 70 17989213603628519454
220451 1 18187090545961590946
22485316 2 18186799197176677146
23402539 116 18187076257042941869
23402655 69 18060138752044374214
300161 21 18409160043800978970
42788 4 18413671322529207344
522135 26 17458344135404015898
5374978 207 18272364274751197032
542803 24 17989489619052599136
57483677 66 18408320008042963715
90127 26 17530686510990019781

>  <PUBCHEM_SHAPE_MULTIPOLES>  (1) 
278.15
15.25
1.11
1.06
0
0
0.05
0
0.06
0
-0.03
0
0
0

>  <PUBCHEM_SHAPE_SELFOVERLAP>  (1) 
500.411

>  <PUBCHEM_SHAPE_VOLUME>  (1) 
183.8

>  <PUBCHEM_COORDINATE_TYPE>  (1) 
2
5
10

$$$$
