36051
     RDKit          3D

 20 20  0  0  1  0  0  0  0  0999 V2000
   -1.0552    1.2678   -0.0770 O   0  0  0  0  0  0  0  0  0  0  0  0
   -1.9777    0.8607    1.9903 O   0  0  0  0  0  0  0  0  0  0  0  0
    2.3774    0.7961   -0.3403 N   0  0  0  0  0  0  0  0  0  0  0  0
   -2.9307   -0.2086    0.0072 C   0  0  0  0  0  0  0  0  0  0  0  0
    2.6078   -0.5616   -0.8536 C   0  0  0  0  0  0  0  0  0  0  0  0
    3.6474    1.4831   -0.0664 C   0  0  0  0  0  0  0  0  0  0  0  0
    3.4093   -1.3998    0.1436 C   0  0  0  0  0  0  0  0  0  0  0  0
    4.4827    0.7118    0.9567 C   0  0  0  0  0  0  0  0  0  0  0  0
    4.7271   -0.7232    0.5041 C   0  0  0  0  0  0  0  0  0  0  0  0
   -2.1415   -1.3183   -0.7484 C   0  0  0  0  0  0  0  0  0  0  0  0
    1.5704    1.5694   -1.2836 C   0  0  0  0  0  0  0  0  0  0  0  0
   -3.6956    0.6397   -1.0490 C   0  0  0  0  0  0  0  0  0  0  0  0
   -1.2597   -2.2152    0.1320 C   0  0  0  0  0  0  0  0  0  0  0  0
    0.8268    2.6840   -0.5547 C   0  0  0  0  0  0  0  0  0  0  0  0
   -3.9272   -0.8471    0.9937 C   0  0  0  0  0  0  0  0  0  0  0  0
   -1.9521    0.6910    0.7770 C   0  0  0  0  0  0  0  0  0  0  0  0
   -0.0872    2.1296    0.5297 C   0  0  0  0  0  0  0  0  0  0  0  0
   -0.4761   -3.2188   -0.7172 C   0  0  0  0  0  0  0  0  0  0  0  0
   -4.5217    1.7941   -0.4914 C   0  0  0  0  0  0  0  0  0  0  0  0
    0.3759   -4.1346    0.1473 C   0  0  0  0  0  0  0  0  0  0  0  0
  1 16  1  0
  1 17  1  0
  2 16  2  0
  3  5  1  0
  3  6  1  0
  3 11  1  0
  4 10  1  0
  4 12  1  0
  4 15  1  0
  4 16  1  0
  5  7  1  0
  6  8  1  0
  7  9  1  0
  8  9  1  0
 10 13  1  0
 11 14  1  0
 12 19  1  0
 13 18  1  0
 14 17  1  0
 18 20  1  0
M  END
>  <PUBCHEM_COMPOUND_CID>  (1) 
36051

>  <PUBCHEM_CONFORMER_RMSD>  (1) 
1.4

>  <PUBCHEM_CONFORMER_DIVERSEORDER>  (1) 
1
14
38
37
10
3
32
34
6
27
19
20
26
11
21
35
7
36
24
25
29
28
33
30
12
4
40
39
17
5
23
16
2
18
8
13
41
9
31
15
22

>  <PUBCHEM_MMFF94_PARTIAL_CHARGES>  (1) 
9
1 -0.43
11 0.27
16 0.66
17 0.28
2 -0.57
3 -0.81
4 0.06
5 0.27
6 0.27

>  <PUBCHEM_EFFECTIVE_ROTOR_COUNT>  (1) 
11.2

>  <PUBCHEM_PHARMACOPHORE_FEATURES>  (1) 
7
1 15 hydrophobe
1 19 hydrophobe
1 2 acceptor
1 20 hydrophobe
1 3 cation
5 4 10 12 13 18 hydrophobe
6 3 5 6 7 8 9 rings

>  <PUBCHEM_HEAVY_ATOM_COUNT>  (1) 
20

>  <PUBCHEM_ATOM_DEF_STEREO_COUNT>  (1) 
0

>  <PUBCHEM_ATOM_UDEF_STEREO_COUNT>  (1) 
1

>  <PUBCHEM_BOND_DEF_STEREO_COUNT>  (1) 
0

>  <PUBCHEM_BOND_UDEF_STEREO_COUNT>  (1) 
0

>  <PUBCHEM_ISOTOPIC_ATOM_COUNT>  (1) 
0

>  <PUBCHEM_COMPONENT_COUNT>  (1) 
1

>  <PUBCHEM_CACTVS_TAUTO_COUNT>  (1) 
1

>  <PUBCHEM_CONFORMER_ID>  (1) 
00008CD300000001

>  <PUBCHEM_MMFF94_ENERGY>  (1) 
17.4426

>  <PUBCHEM_FEATURE_SELFOVERLAP>  (1) 
35.557

>  <PUBCHEM_SHAPE_FINGERPRINT>  (1) 
10366900 7 17275102864444979280
11045977 3 17916858140866195248
11370993 70 18413100645892716798
12553582 1 18341630229835304244
12592029 89 18337119986336066883
12670545 2 18187638068392264024
14081887 123 18058437884960542456
14251751 93 18261668268454197307
15006816 218 18267586814459772606
17834072 14 18412539903468544396
17859628 97 18408317770359643299
17977361 122 18411414012156716134
20621476 13 18339077069267018270
20715895 44 18192142707892785589
21665056 4 18265612263896964791
22113638 7 18410568517932663102
23402539 116 18271513248092405558
23557571 272 17843410832533814486
23559900 14 18273777147245681780
539174 4 17482294620423131186
57005193 9 18411974780408935604
6438718 38 17772757301801373686
7064713 232 18272932687612797200

>  <PUBCHEM_SHAPE_MULTIPOLES>  (1) 
394.87
8.61
3.77
1.18
2.93
3.59
-0.2
-2
-1.03
-0.07
0.48
-0.38
-0.25
-0.02

>  <PUBCHEM_SHAPE_SELFOVERLAP>  (1) 
759.154

>  <PUBCHEM_SHAPE_VOLUME>  (1) 
241.6

>  <PUBCHEM_COORDINATE_TYPE>  (1) 
2
5
10

$$$$
