36055
     RDKit          3D

 24 26  0  0  1  0  0  0  0  0999 V2000
   -1.1560   -1.2280   -1.2060 O   0  0  0  0  0  0  0  0  0  0  0  0
    7.0852   -0.6522   -0.2060 O   0  0  0  0  0  0  0  0  0  0  0  0
   -2.5117    1.6505    0.1769 N   0  0  0  0  0  0  0  0  0  0  0  0
   -2.6948    0.3379   -0.2895 N   0  0  0  0  0  0  0  0  0  0  0  0
    0.8683    0.7555   -0.6725 N   0  0  0  0  0  0  0  0  0  0  0  0
   -1.1441    1.9210    0.1289 C   0  0  0  0  0  0  0  0  0  0  0  0
   -0.4528    0.9080   -0.4138 C   0  0  0  0  0  0  0  0  0  0  0  0
   -1.4583   -0.1455   -0.7300 C   0  0  0  0  0  0  0  0  0  0  0  0
   -3.8570   -0.4288   -0.0252 C   0  0  0  0  0  0  0  0  0  0  0  0
   -3.4891    2.6656   -0.2038 C   0  0  0  0  0  0  0  0  0  0  0  0
   -0.6034    3.2292    0.6007 C   0  0  0  0  0  0  0  0  0  0  0  0
   -4.0971   -1.6110   -0.7324 C   0  0  0  0  0  0  0  0  0  0  0  0
   -4.7717   -0.0092    0.9455 C   0  0  0  0  0  0  0  0  0  0  0  0
   -5.2406   -2.3661   -0.4714 C   0  0  0  0  0  0  0  0  0  0  0  0
   -5.9151   -0.7642    1.2067 C   0  0  0  0  0  0  0  0  0  0  0  0
    1.5713    0.2289    0.2814 C   0  0  0  0  0  0  0  0  0  0  0  0
   -6.1496   -1.9427    0.4981 C   0  0  0  0  0  0  0  0  0  0  0  0
    3.0222   -0.0019    0.1530 C   0  0  0  0  0  0  0  0  0  0  0  0
    3.7132   -0.5678    1.2111 C   0  0  0  0  0  0  0  0  0  0  0  0
    3.6633    0.3516   -1.0225 C   0  0  0  0  0  0  0  0  0  0  0  0
    5.0855   -0.7870    1.0901 C   0  0  0  0  0  0  0  0  0  0  0  0
    5.0355    0.1323   -1.1435 C   0  0  0  0  0  0  0  0  0  0  0  0
    5.7466   -0.4369   -0.0872 C   0  0  0  0  0  0  0  0  0  0  0  0
    7.7503   -1.2393    0.9114 C   0  0  0  0  0  0  0  0  0  0  0  0
  1  8  2  0
  2 23  1  0
  2 24  1  0
  3  4  1  0
  3  6  1  0
  3 10  1  0
  4  8  1  0
  4  9  1  0
  5  7  1  0
  5 16  2  0
  6  7  2  0
  6 11  1  0
  7  8  1  0
  9 12  2  0
  9 13  1  0
 12 14  1  0
 13 15  2  0
 14 17  2  0
 15 17  1  0
 16 18  1  0
 18 19  2  0
 18 20  1  0
 19 21  1  0
 20 22  2  0
 21 23  2  0
 22 23  1  0
M  END
>  <PUBCHEM_COMPOUND_CID>  (1) 
36055

>  <PUBCHEM_CONFORMER_RMSD>  (1) 
0.8

>  <PUBCHEM_CONFORMER_DIVERSEORDER>  (1) 
2
1
6
5
3
4

>  <PUBCHEM_MMFF94_PARTIAL_CHARGES>  (1) 
34
1 -0.57
10 0.37
11 0.14
12 -0.15
13 -0.15
14 -0.15
15 -0.15
16 0.3
17 -0.15
18 0.09
19 -0.15
2 -0.36
20 -0.15
21 -0.15
22 -0.15
23 0.08
24 0.28
3 -0.49
31 0.15
32 0.15
33 0.15
34 0.15
35 0.06
36 0.15
37 0.15
38 0.15
39 0.15
4 -0.16
40 0.15
5 -0.62
6 -0.04
7 0.19
8 0.62
9 0.12

>  <PUBCHEM_EFFECTIVE_ROTOR_COUNT>  (1) 
4

>  <PUBCHEM_PHARMACOPHORE_FEATURES>  (1) 
6
1 1 acceptor
1 2 acceptor
1 5 acceptor
5 3 4 6 7 8 rings
6 18 19 20 21 22 23 rings
6 9 12 13 14 15 17 rings

>  <PUBCHEM_HEAVY_ATOM_COUNT>  (1) 
24

>  <PUBCHEM_ATOM_DEF_STEREO_COUNT>  (1) 
0

>  <PUBCHEM_ATOM_UDEF_STEREO_COUNT>  (1) 
0

>  <PUBCHEM_BOND_DEF_STEREO_COUNT>  (1) 
0

>  <PUBCHEM_BOND_UDEF_STEREO_COUNT>  (1) 
0

>  <PUBCHEM_ISOTOPIC_ATOM_COUNT>  (1) 
0

>  <PUBCHEM_COMPONENT_COUNT>  (1) 
1

>  <PUBCHEM_CACTVS_TAUTO_COUNT>  (1) 
1

>  <PUBCHEM_CONFORMER_ID>  (1) 
00008CD700000002

>  <PUBCHEM_MMFF94_ENERGY>  (1) 
94.6454

>  <PUBCHEM_FEATURE_SELFOVERLAP>  (1) 
30.45

>  <PUBCHEM_SHAPE_FINGERPRINT>  (1) 
10 15 16702301274069852466
10299344 5 18260271858184359290
10411042 1 18339359781832477077
10595046 47 18261114054791212756
11089746 13 9511455615931538714
11315181 36 18187365415310287796
11524674 6 16702304568030506191
11545043 162 18201431459248752920
11963148 33 18410288133810191078
12166972 35 17822294604490476508
12236239 1 18113902641739392316
12596602 18 18334011684202573240
12760667 363 18334295392182450347
12788726 201 18334572417456757923
13257819 101 12175358946253876209
13288520 33 18407760352798508599
13533116 47 18115313400777963868
13540713 5 11748584663537332357
13631057 29 18335135384315670001
13668630 136 17022623082868589226
13862211 1 18340205293078228687
15183329 4 14779536890137613831
15348495 7 16630240423850965835
15716309 27 18409450297253213666
1577012 14 17967541134481393564
17492 89 18265331699580395498
17780758 139 17918277545826011393
17844677 252 18413390938717380808
1813 80 18259993694848785765
18927931 339 18413951681162587623
200 152 17603303747703310324
20281389 69 12175627265092001138
21033648 29 16773503387419996089
21054139 6 18040996229056919834
21267235 1 18409172121117159566
21298829 104 9799422130182371571
21637258 2 17967807275580656467
21792934 111 18343858931409901833
22182313 1 17773892921530144949
22950370 63 18411422847104592229
2297311 6 18272658930745298484
23035841 295 18335704957119574819
23081809 10 17603874365027891124
23198884 109 7925918075594341915
23522609 53 18119562961326795765
23559900 14 17459758218678709157
23569914 152 13555914507211347811
23845131 108 17124539899576642993
2767999 5 10087646987406226075
2838139 119 12031792439970931579
3004659 81 17821723961912692570
312425 54 16845584127380157919
335352 9 18411416212235052437
34797466 226 17774731948266913532
351380 3 18334294296723170595
397830 11 18059843013565923440
4015057 19 15936705825522381508
4409770 3 18335977564033603741
465052 167 18338242668605873919
469060 322 18271542917494592729
5104073 3 17845378739304006722
57724786 102 15051152593944030034
7970288 3 18337387248982054835
8863177 126 17899143990614531795

>  <PUBCHEM_SHAPE_MULTIPOLES>  (1) 
467.23
18.29
2.43
1.12
19.22
1.61
0.05
-12.68
3.76
-3.72
0.17
0.36
-0.21
-0.84

>  <PUBCHEM_SHAPE_SELFOVERLAP>  (1) 
1009.216

>  <PUBCHEM_SHAPE_VOLUME>  (1) 
258

>  <PUBCHEM_COORDINATE_TYPE>  (1) 
2
5
10

$$$$
