36053
     RDKit          3D

 29 31  0  0  1  0  0  0  0  0999 V2000
   -2.4141   -1.4338   -0.1153 O   0  0  0  0  0  0  0  0  0  0  0  0
   -0.3929   -1.3124   -1.3836 O   0  0  0  0  0  0  0  0  0  0  0  0
    7.9631   -0.1245    0.0418 O   0  0  0  0  0  0  0  0  0  0  0  0
    6.3231    0.7727    1.3591 O   0  0  0  0  0  0  0  0  0  0  0  0
   -3.8720    1.7199   -0.1604 N   0  0  0  0  0  0  0  0  0  0  0  0
   -4.0228    0.3217   -0.0828 N   0  0  0  0  0  0  0  0  0  0  0  0
   -0.4419    0.6858   -0.1906 N   0  0  0  0  0  0  0  0  0  0  0  0
    5.8219   -0.4485   -0.5794 N   0  0  0  0  0  0  0  0  0  0  0  0
   -2.5031    1.9915   -0.1561 C   0  0  0  0  0  0  0  0  0  0  0  0
   -1.7813    0.8641   -0.1668 C   0  0  0  0  0  0  0  0  0  0  0  0
   -2.7512   -0.2616   -0.1489 C   0  0  0  0  0  0  0  0  0  0  0  0
   -5.2219   -0.3111    0.3295 C   0  0  0  0  0  0  0  0  0  0  0  0
   -4.7805    2.4689   -1.0228 C   0  0  0  0  0  0  0  0  0  0  0  0
   -1.9929    3.3928   -0.1896 C   0  0  0  0  0  0  0  0  0  0  0  0
   -6.2362    0.4323    0.9410 C   0  0  0  0  0  0  0  0  0  0  0  0
   -5.3995   -1.6836    0.1289 C   0  0  0  0  0  0  0  0  0  0  0  0
    0.1873   -0.3994   -0.8012 C   0  0  0  0  0  0  0  0  0  0  0  0
    1.6722   -0.4121   -0.7436 C   0  0  0  0  0  0  0  0  0  0  0  0
   -7.4162   -0.1905    1.3478 C   0  0  0  0  0  0  0  0  0  0  0  0
   -6.5796   -2.3064    0.5355 C   0  0  0  0  0  0  0  0  0  0  0  0
   -7.5878   -1.5599    1.1450 C   0  0  0  0  0  0  0  0  0  0  0  0
    2.3714   -1.0686   -1.7346 C   0  0  0  0  0  0  0  0  0  0  0  0
    2.3028    0.2325    0.2999 C   0  0  0  0  0  0  0  0  0  0  0  0
    4.4278   -0.4366   -0.6348 C   0  0  0  0  0  0  0  0  0  0  0  0
    3.7652   -1.0810   -1.6795 C   0  0  0  0  0  0  0  0  0  0  0  0
    3.6966    0.2202    0.3548 C   0  0  0  0  0  0  0  0  0  0  0  0
    6.6586    0.1302    0.3716 C   0  0  0  0  0  0  0  0  0  0  0  0
    8.9521    0.4096    0.9295 C   0  0  0  0  0  0  0  0  0  0  0  0
    9.2520   -0.6119    2.0057 C   0  0  0  0  0  0  0  0  0  0  0  0
  1 11  2  0
  2 17  2  0
  3 27  1  0
  3 28  1  0
  4 27  2  0
  5  6  1  0
  5  9  1  0
  5 13  1  0
  6 11  1  0
  6 12  1  0
  7 10  1  0
  7 17  1  0
  8 24  1  0
  8 27  1  0
  9 10  2  0
  9 14  1  0
 10 11  1  0
 12 15  2  0
 12 16  1  0
 15 19  1  0
 16 20  2  0
 17 18  1  0
 18 22  2  0
 18 23  1  0
 19 21  2  0
 20 21  1  0
 22 25  1  0
 23 26  2  0
 24 25  2  0
 24 26  1  0
 28 29  1  0
M  END
>  <PUBCHEM_COMPOUND_CID>  (1) 
36053

>  <PUBCHEM_CONFORMER_RMSD>  (1) 
1

>  <PUBCHEM_CONFORMER_DIVERSEORDER>  (1) 
2
6
7
18
16
5
1
17
21
23
4
8
3
10
11
25
13
19
24
15
14
22
20
12
9

>  <PUBCHEM_MMFF94_PARTIAL_CHARGES>  (1) 
39
1 -0.57
10 0.12
11 0.62
12 0.12
13 0.37
14 0.14
15 -0.15
16 -0.15
17 0.54
18 0.09
19 -0.15
2 -0.57
20 -0.15
21 -0.15
22 -0.15
23 -0.15
24 0.12
25 -0.15
26 -0.15
27 0.78
28 0.28
3 -0.43
36 0.37
37 0.15
38 0.15
39 0.15
4 -0.57
40 0.15
41 0.15
42 0.15
43 0.15
44 0.15
45 0.15
46 0.37
5 -0.49
6 -0.16
7 -0.54
8 -0.55
9 -0.04

>  <PUBCHEM_EFFECTIVE_ROTOR_COUNT>  (1) 
8

>  <PUBCHEM_PHARMACOPHORE_FEATURES>  (1) 
8
1 1 acceptor
1 2 acceptor
1 4 acceptor
1 7 donor
1 8 donor
5 5 6 9 10 11 rings
6 12 15 16 19 20 21 rings
6 18 22 23 24 25 26 rings

>  <PUBCHEM_HEAVY_ATOM_COUNT>  (1) 
29

>  <PUBCHEM_ATOM_DEF_STEREO_COUNT>  (1) 
0

>  <PUBCHEM_ATOM_UDEF_STEREO_COUNT>  (1) 
0

>  <PUBCHEM_BOND_DEF_STEREO_COUNT>  (1) 
0

>  <PUBCHEM_BOND_UDEF_STEREO_COUNT>  (1) 
0

>  <PUBCHEM_ISOTOPIC_ATOM_COUNT>  (1) 
0

>  <PUBCHEM_COMPONENT_COUNT>  (1) 
1

>  <PUBCHEM_CACTVS_TAUTO_COUNT>  (1) 
5

>  <PUBCHEM_CONFORMER_ID>  (1) 
00008CD500000002

>  <PUBCHEM_MMFF94_ENERGY>  (1) 
106.9894

>  <PUBCHEM_FEATURE_SELFOVERLAP>  (1) 
40.63

>  <PUBCHEM_SHAPE_FINGERPRINT>  (1) 
10 15 18343017818431629162
10190206 1 7997706293763704791
10369192 42 16487258755106715445
10533779 47 17703506590332529698
106641 1 18273216425715720394
11386260 185 11602829033714427958
11408170 108 16009305410362950866
11408170 132 8646768903109556730
12166972 35 17386012801203822877
12236239 1 17313108539945933061
13073987 5 18338798897399538054
13383668 251 16987696047839408329
13383668 90 12540694860490206739
13540713 4 17984994695264377077
14150022 121 17917438596784815529
14461889 52 18412268341708979962
15183329 4 8214151737105748589
15347590 135 18343586222234355618
15419008 47 18131067130445669448
15461852 350 17167580475587130982
15690457 1 16732699467848202674
1768 4 17131827699316193984
17686467 74 17967814994043738644
18608769 82 18343584061691653635
19611394 137 18338237171221782736
2026 5 15502922027782973826
20721686 146 13901367893264186155
21095123 293 14261360149590234739
21130935 74 18199476480251318566
21315759 40 17240484702426901890
21792934 111 18411983577140793985
21792961 116 17846218800958406806
22224240 67 17632298986483718383
23559900 14 18195818362089070639
23569943 247 16663443257950679370
23576562 1 11095580300569063275
249057 25 17458638791403646468
3092352 35 18040718079228836754
3178227 256 17703789237232879864
3383291 50 18113624512136621563
3418910 222 18340499923482601932
3711267 37 14764357062780554802
4093350 32 14979966852576422764
4616759 239 18201443575736689043
5104073 3 18200037209510923547
5758199 1 16272208591945576142
59682541 35 18202284731589942490
9663363 56 18409166624403065387
9953998 17 18131072645420507987

>  <PUBCHEM_SHAPE_MULTIPOLES>  (1) 
553.41
26.39
2.18
1.38
36.49
1.51
0.02
-7.22
15.53
-4.83
-0.25
1.75
-0.38
1.54

>  <PUBCHEM_SHAPE_SELFOVERLAP>  (1) 
1190.034

>  <PUBCHEM_SHAPE_VOLUME>  (1) 
304

>  <PUBCHEM_COORDINATE_TYPE>  (1) 
2
5
10

$$$$
