36056
     RDKit          3D

 11 10  0  0  0  0  0  0  0  0999 V2000
   -0.5457    2.4974   -0.5308 O   0  0  0  0  0  0  0  0  0  0  0  0
    1.7651    0.0879    0.2580 C   0  0  0  0  0  0  0  0  0  0  0  0
    0.5719   -0.0661   -0.6949 C   0  0  0  0  0  0  0  0  0  0  0  0
    3.1154   -0.1842   -0.4081 C   0  0  0  0  0  0  0  0  0  0  0  0
   -0.7732    0.1775   -0.0450 C   0  0  0  0  0  0  0  0  0  0  0  0
   -1.5603   -0.7849    0.4725 C   0  0  0  0  0  0  0  0  0  0  0  0
    4.2615   -0.0292    0.5799 C   0  0  0  0  0  0  0  0  0  0  0  0
   -1.2513   -2.2530    0.5777 C   0  0  0  0  0  0  0  0  0  0  0  0
   -1.2556    1.6080   -0.0575 C   0  0  0  0  0  0  0  0  0  0  0  0
   -1.7156   -3.0058   -0.6591 C   0  0  0  0  0  0  0  0  0  0  0  0
   -2.6122    1.9525    0.5073 C   0  0  0  0  0  0  0  0  0  0  0  0
  1  9  2  0
  2  3  1  0
  2  4  1  0
  3  5  1  0
  4  7  1  0
  5  6  2  0
  5  9  1  0
  6  8  1  0
  8 10  1  0
  9 11  1  0
M  END
>  <PUBCHEM_COMPOUND_CID>  (1) 
36056

>  <PUBCHEM_CONFORMER_RMSD>  (1) 
0.6

>  <PUBCHEM_CONFORMER_DIVERSEORDER>  (1) 
1
43
92
101
80
86
105
104
66
82
74
106
9
70
20
103
63
100
89
85
56
46
97
98
71
64
17
102
88
76
59
22
87
30
78
62
107
81
26
8
91
94
95
49
18
48
83
67
77
38
41
57
93
12
25
96
40
36
24
51
45
33
5
54
73
90
14
99
61
10
68
15
21
28
53
7
79
50
37
84
52
65
35
6
29
47
72
60
39
44
2
19
32
3
58
16
69
4
34
42
23
31
75
13
55
11
27

>  <PUBCHEM_MMFF94_PARTIAL_CHARGES>  (1) 
8
1 -0.57
11 0.06
18 0.15
3 0.14
5 -0.12
6 -0.29
8 0.14
9 0.49

>  <PUBCHEM_EFFECTIVE_ROTOR_COUNT>  (1) 
5

>  <PUBCHEM_PHARMACOPHORE_FEATURES>  (1) 
4
1 1 acceptor
1 10 hydrophobe
1 7 hydrophobe
4 2 3 4 5 hydrophobe

>  <PUBCHEM_HEAVY_ATOM_COUNT>  (1) 
11

>  <PUBCHEM_ATOM_DEF_STEREO_COUNT>  (1) 
0

>  <PUBCHEM_ATOM_UDEF_STEREO_COUNT>  (1) 
0

>  <PUBCHEM_BOND_DEF_STEREO_COUNT>  (1) 
0

>  <PUBCHEM_BOND_UDEF_STEREO_COUNT>  (1) 
1

>  <PUBCHEM_ISOTOPIC_ATOM_COUNT>  (1) 
0

>  <PUBCHEM_COMPONENT_COUNT>  (1) 
1

>  <PUBCHEM_CACTVS_TAUTO_COUNT>  (1) 
5

>  <PUBCHEM_CONFORMER_ID>  (1) 
00008CD800000001

>  <PUBCHEM_MMFF94_ENERGY>  (1) 
5.5993

>  <PUBCHEM_FEATURE_SELFOVERLAP>  (1) 
20.297

>  <PUBCHEM_SHAPE_FINGERPRINT>  (1) 
1 1 17762058735629408255
13380535 76 18269272370174832094
15669948 3 18334864926373204534
20524608 308 18412829057920431810
20645477 70 17040340888249172279
20711985 344 18338783619800167219
20711985 365 18337110176003086655
20871998 184 18411149034170442927
21524375 3 18119809114475658825
23402539 116 18342446054788793247
23557571 272 18200606886047814124
23598294 1 18335140890711819402
257057 1 17980757465398664527
2748010 2 18121804749945383247
3086196 2 18338788035342876546
58734987 24 18412538821205078183
6333449 129 18410854334878547672
6338986 31 18051970617126293822
7364860 26 17259060697563676301
81228 2 18409450327302115171
88987 49 18337968826286851164

>  <PUBCHEM_SHAPE_MULTIPOLES>  (1) 
220.51
5.04
3
0.84
7.49
0.93
0
-0.03
-0.92
-3.64
0.32
0.02
0.12
-0.23

>  <PUBCHEM_SHAPE_SELFOVERLAP>  (1) 
405.151

>  <PUBCHEM_SHAPE_VOLUME>  (1) 
140.6

>  <PUBCHEM_COORDINATE_TYPE>  (1) 
2
5
10

$$$$
