36067
     RDKit          3D

 11 11  0  0  0  0  0  0  0  0999 V2000
    3.6619    0.7604   -0.6294 Br  0  0  0  0  0  0  0  0  0  0  0  0
    2.2832   -2.2393   -0.0584 Cl  0  0  0  0  0  0  0  0  0  0  0  0
   -3.8787   -0.2972   -1.2926 S   0  0  0  0  0  0  0  0  0  0  0  0
   -2.1859    0.0092    0.8840 N   0  0  0  0  0  0  0  0  0  0  0  0
   -0.8399    0.1619    0.5371 C   0  0  0  0  0  0  0  0  0  0  0  0
   -0.0188   -0.9593    0.4167 C   0  0  0  0  0  0  0  0  0  0  0  0
   -0.3184    1.4358    0.3114 C   0  0  0  0  0  0  0  0  0  0  0  0
    1.3238   -0.8065    0.0706 C   0  0  0  0  0  0  0  0  0  0  0  0
    1.0242    1.5884   -0.0348 C   0  0  0  0  0  0  0  0  0  0  0  0
    1.8453    0.4672   -0.1552 C   0  0  0  0  0  0  0  0  0  0  0  0
   -2.8966   -0.1206   -0.0495 C   0  0  0  0  0  0  0  0  0  0  0  0
  1 10  1  0
  2  8  1  0
  3 11  2  0
  4  5  1  0
  4 11  2  0
  5  6  2  0
  5  7  1  0
  6  8  1  0
  7  9  2  0
  8 10  2  0
  9 10  1  0
M  END
>  <PUBCHEM_COMPOUND_CID>  (1) 
36067

>  <PUBCHEM_CONFORMER_RMSD>  (1) 
0.4

>  <PUBCHEM_CONFORMER_DIVERSEORDER>  (1) 
1
3
6
5
2
4

>  <PUBCHEM_MMFF94_PARTIAL_CHARGES>  (1) 
14
1 -0.11
10 0.11
11 0.57
12 0.15
13 0.15
14 0.15
2 -0.18
3 -0.27
4 -0.48
5 0.18
6 -0.15
7 -0.15
8 0.18
9 -0.15

>  <PUBCHEM_EFFECTIVE_ROTOR_COUNT>  (1) 
1

>  <PUBCHEM_PHARMACOPHORE_FEATURES>  (1) 
4
1 1 hydrophobe
1 3 acceptor
1 4 acceptor
6 5 6 7 8 9 10 rings

>  <PUBCHEM_HEAVY_ATOM_COUNT>  (1) 
11

>  <PUBCHEM_ATOM_DEF_STEREO_COUNT>  (1) 
0

>  <PUBCHEM_ATOM_UDEF_STEREO_COUNT>  (1) 
0

>  <PUBCHEM_BOND_DEF_STEREO_COUNT>  (1) 
0

>  <PUBCHEM_BOND_UDEF_STEREO_COUNT>  (1) 
0

>  <PUBCHEM_ISOTOPIC_ATOM_COUNT>  (1) 
0

>  <PUBCHEM_COMPONENT_COUNT>  (1) 
1

>  <PUBCHEM_CACTVS_TAUTO_COUNT>  (1) 
1

>  <PUBCHEM_CONFORMER_ID>  (1) 
00008CE300000001

>  <PUBCHEM_MMFF94_ENERGY>  (1) 
24.9353

>  <PUBCHEM_FEATURE_SELFOVERLAP>  (1) 
20.302

>  <PUBCHEM_SHAPE_FINGERPRINT>  (1) 
11206711 2 17972046837888274062
11401426 45 18411412947194665812
12138202 97 17677055762179483651
12423570 1 17624150299187291714
12897270 3 18409730698651533121
12932764 1 17775288248724321417
13380535 76 18335143128585160514
14251717 144 18411696578229212894
14576447 43 18129086978717804791
14617773 55 18057334885292067768
14911166 2 18337958986258501260
14993402 34 18131070462880555716
15477762 27 18340760524869729087
15757776 16 18343297084872165678
16945 1 18410302436039541928
18186145 218 17458629956470918203
18511873 20 11386365954480479924
20201158 50 18334296478371033827
20645476 183 17388841943886015470
20645477 70 18336544928596077079
21293036 1 18409450327244040877
21501502 16 18267028241309991400
23402539 116 18202568367341423868
23402655 69 18337380566349981045
23552423 10 18118133471956386682
2748010 2 18191875517834454012
53812654 25 18059278912186810670
63268167 104 18410577283812928739
6338986 31 17976241453221162051
8030462 33 18344149189457017369
81539 233 18040156240759231150

>  <PUBCHEM_SHAPE_MULTIPOLES>  (1) 
233.06
5.91
1.76
0.95
2.92
0.58
-0.18
0.24
-2.51
-1.52
0.03
0.57
0
-0.32

>  <PUBCHEM_SHAPE_SELFOVERLAP>  (1) 
454.53

>  <PUBCHEM_SHAPE_VOLUME>  (1) 
145.8

>  <PUBCHEM_COORDINATE_TYPE>  (1) 
2
5
10

$$$$
