36066
     RDKit          3D

 11 11  0  0  0  0  0  0  0  0999 V2000
   -3.4339    0.5291    0.0004 O   0  0  0  0  0  0  0  0  0  0  0  0
    3.4480    0.3896    0.0003 O   0  0  0  0  0  0  0  0  0  0  0  0
    2.5469   -1.6122    0.0002 O   0  0  0  0  0  0  0  0  0  0  0  0
    0.0164   -0.5519   -0.0001 N   0  0  0  0  0  0  0  0  0  0  0  0
    2.4246   -0.3534    0.0000 N   0  0  0  0  0  0  0  0  0  0  0  0
   -1.0910    0.2554   -0.0001 C   0  0  0  0  0  0  0  0  0  0  0  0
    1.1482    0.2212   -0.0003 C   0  0  0  0  0  0  0  0  0  0  0  0
   -0.6595    1.5636    0.0000 C   0  0  0  0  0  0  0  0  0  0  0  0
    0.7570    1.5420   -0.0001 C   0  0  0  0  0  0  0  0  0  0  0  0
   -2.4323   -0.2367   -0.0001 C   0  0  0  0  0  0  0  0  0  0  0  0
   -2.7243   -1.7466   -0.0001 C   0  0  0  0  0  0  0  0  0  0  0  0
  1 10  2  0
  2  5  1  0
  3  5  2  0
  4  6  1  0
  4  7  1  0
  5  7  1  0
  6  8  2  0
  6 10  1  0
  7  9  2  0
  8  9  1  0
 10 11  1  0
M  CHG  2   2  -1   5   1
M  END
>  <PUBCHEM_COMPOUND_CID>  (1) 
36066

>  <PUBCHEM_CONFORMER_RMSD>  (1) 
0.4

>  <PUBCHEM_CONFORMER_DIVERSEORDER>  (1) 
1
3
2
4

>  <PUBCHEM_MMFF94_PARTIAL_CHARGES>  (1) 
14
1 -0.57
10 0.59
11 0.06
12 0.27
13 0.15
14 0.15
2 -0.52
3 -0.52
4 0.03
5 0.96
6 -0.24
7 -0.07
8 -0.15
9 -0.15

>  <PUBCHEM_EFFECTIVE_ROTOR_COUNT>  (1) 
2

>  <PUBCHEM_PHARMACOPHORE_FEATURES>  (1) 
7
1 1 acceptor
1 2 acceptor
1 2 anion
1 3 acceptor
1 4 cation
1 4 donor
5 4 6 7 8 9 rings

>  <PUBCHEM_HEAVY_ATOM_COUNT>  (1) 
11

>  <PUBCHEM_ATOM_DEF_STEREO_COUNT>  (1) 
0

>  <PUBCHEM_ATOM_UDEF_STEREO_COUNT>  (1) 
0

>  <PUBCHEM_BOND_DEF_STEREO_COUNT>  (1) 
0

>  <PUBCHEM_BOND_UDEF_STEREO_COUNT>  (1) 
0

>  <PUBCHEM_ISOTOPIC_ATOM_COUNT>  (1) 
0

>  <PUBCHEM_COMPONENT_COUNT>  (1) 
1

>  <PUBCHEM_CACTVS_TAUTO_COUNT>  (1) 
7

>  <PUBCHEM_CONFORMER_ID>  (1) 
00008CE200000001

>  <PUBCHEM_MMFF94_ENERGY>  (1) 
15.8693

>  <PUBCHEM_FEATURE_SELFOVERLAP>  (1) 
35.602

>  <PUBCHEM_SHAPE_FINGERPRINT>  (1) 
10857977 72 18341320163102561480
11062470 55 18410573980893589005
12932764 1 17240751900547250689
14128692 85 18337394940887907301
14325111 11 18410574002368269569
16945 1 18410575071852289893
18186145 218 11314302824124322814
20201158 50 18408321098721862411
20281407 28 18411703183677592744
20871998 22 18343032081142670278
21501925 9 18267856358138264403
23552423 10 18261394515453911101
2748010 2 18266454493819194549
29004967 10 18412263956040500912
3312278 4 18410859875386203731

>  <PUBCHEM_SHAPE_MULTIPOLES>  (1) 
198.8
5
1.65
0.57
0.27
0.15
0
1.57
0
-0.15
0
-0.05
-0.02
0

>  <PUBCHEM_SHAPE_SELFOVERLAP>  (1) 
413.459

>  <PUBCHEM_SHAPE_VOLUME>  (1) 
113.8

>  <PUBCHEM_COORDINATE_TYPE>  (1) 
2
5
10

$$$$
