36074
     RDKit          3D

 12 12  0  0  0  0  0  0  0  0999 V2000
    0.9760    0.5635   -1.6916 S   0  0  0  0  0  0  0  0  0  0  0  0
    2.6988    0.8375    0.9271 O   0  0  0  0  0  0  0  0  0  0  0  0
    2.0688   -1.3436    1.2865 N   0  0  0  0  0  0  0  0  0  0  0  0
   -1.1558    1.0340    0.0409 C   0  0  0  0  0  0  0  0  0  0  0  0
   -0.4745    0.1081   -0.7494 C   0  0  0  0  0  0  0  0  0  0  0  0
   -2.2834    0.6400    0.7612 C   0  0  0  0  0  0  0  0  0  0  0  0
   -0.9209   -1.2116   -0.8191 C   0  0  0  0  0  0  0  0  0  0  0  0
   -0.7166    2.4594    0.1493 C   0  0  0  0  0  0  0  0  0  0  0  0
   -2.7298   -0.6797    0.6913 C   0  0  0  0  0  0  0  0  0  0  0  0
   -2.0486   -1.6055   -0.0989 C   0  0  0  0  0  0  0  0  0  0  0  0
    2.2287   -0.5427   -0.9865 C   0  0  0  0  0  0  0  0  0  0  0  0
    2.3573   -0.2593    0.4892 C   0  0  0  0  0  0  0  0  0  0  0  0
  1  5  1  0
  1 11  1  0
  2 12  2  0
  3 12  1  0
  4  5  2  0
  4  6  1  0
  4  8  1  0
  5  7  1  0
  6  9  2  0
  7 10  2  0
  9 10  1  0
 11 12  1  0
M  END
>  <PUBCHEM_COMPOUND_CID>  (1) 
36074

>  <PUBCHEM_CONFORMER_RMSD>  (1) 
0.6

>  <PUBCHEM_CONFORMER_DIVERSEORDER>  (1) 
5
2
26
1
4
42
31
29
39
19
24
7
33
45
28
38
30
43
25
9
20
23
12
40
44
41
27
17
18
15
13
32
36
11
35
3
21
8
14
10
16
22
37
6
34

>  <PUBCHEM_MMFF94_PARTIAL_CHARGES>  (1) 
18
1 -0.33
10 -0.15
11 0.29
12 0.57
13 0.15
14 0.15
18 0.15
2 -0.57
21 0.15
22 0.37
23 0.37
3 -0.8
4 -0.14
5 0.1
6 -0.15
7 -0.15
8 0.14
9 -0.15

>  <PUBCHEM_EFFECTIVE_ROTOR_COUNT>  (1) 
3

>  <PUBCHEM_PHARMACOPHORE_FEATURES>  (1) 
3
1 2 acceptor
1 3 donor
6 4 5 6 7 9 10 rings

>  <PUBCHEM_HEAVY_ATOM_COUNT>  (1) 
12

>  <PUBCHEM_ATOM_DEF_STEREO_COUNT>  (1) 
0

>  <PUBCHEM_ATOM_UDEF_STEREO_COUNT>  (1) 
0

>  <PUBCHEM_BOND_DEF_STEREO_COUNT>  (1) 
0

>  <PUBCHEM_BOND_UDEF_STEREO_COUNT>  (1) 
0

>  <PUBCHEM_ISOTOPIC_ATOM_COUNT>  (1) 
0

>  <PUBCHEM_COMPONENT_COUNT>  (1) 
1

>  <PUBCHEM_CACTVS_TAUTO_COUNT>  (1) 
2

>  <PUBCHEM_CONFORMER_ID>  (1) 
00008CEA00000005

>  <PUBCHEM_MMFF94_ENERGY>  (1) 
29.6896

>  <PUBCHEM_FEATURE_SELFOVERLAP>  (1) 
15.223

>  <PUBCHEM_SHAPE_FINGERPRINT>  (1) 
10857977 72 18201733872217080287
11031198 65 14764359244539063140
12382932 28 18340204201612852682
12696612 119 18129380560985750376
14817 1 15018528257927438188
15076042 46 18192994824628763778
15775835 57 18340212899064058562
16945 1 18339927000297374095
17834069 17 15841270453681999380
20645464 45 17489312966320275158
20653085 51 11527950092348067659
21922407 69 17967829235922618260
22445834 79 18114186293673704242
23388829 49 17126189566343827831
23552423 10 17760662755716045549
25610 171 18201719509572382793
2748010 2 17910708417665339127
369184 2 18411409605567483335
5084963 1 17843706390301502997
528862 383 17836081552151884197
54338 74 18270952561602521455

>  <PUBCHEM_SHAPE_MULTIPOLES>  (1) 
239.95
4.03
1.87
1.35
0.84
0.71
-0.19
-0.91
1.29
-0.68
0.15
0.76
-0.09
-0.28

>  <PUBCHEM_SHAPE_SELFOVERLAP>  (1) 
477.002

>  <PUBCHEM_SHAPE_VOLUME>  (1) 
143.3

>  <PUBCHEM_COORDINATE_TYPE>  (1) 
2
5
10

$$$$
