36072
     RDKit          3D

 26 28  0  0  1  0  0  0  0  0999 V2000
    0.8516   -2.5952   -0.0833 O   0  0  0  0  0  0  0  0  0  0  0  0
    4.5088   -0.4760   -0.4188 O   0  0  0  0  0  0  0  0  0  0  0  0
    3.2342   -1.9362   -1.5996 O   0  0  0  0  0  0  0  0  0  0  0  0
   -1.3702    2.8176    1.5878 O   0  0  0  0  0  0  0  0  0  0  0  0
   -0.1475   -0.4999   -0.4148 N   0  0  0  0  0  0  0  0  0  0  0  0
   -2.4087    0.9018    0.9152 N   0  0  0  0  0  0  0  0  0  0  0  0
    2.2426   -0.7188    0.2596 C   0  0  0  0  0  0  0  0  0  0  0  0
    2.6068   -1.1160    1.6910 C   0  0  0  0  0  0  0  0  0  0  0  0
    1.5680   -0.7383    2.7559 C   0  0  0  0  0  0  0  0  0  0  0  0
    0.9263   -1.3631   -0.1261 C   0  0  0  0  0  0  0  0  0  0  0  0
   -1.4950   -0.9824   -0.4247 C   0  0  0  0  0  0  0  0  0  0  0  0
    0.0148    0.8032   -0.9599 C   0  0  0  0  0  0  0  0  0  0  0  0
    1.3044    0.7598    2.9262 C   0  0  0  0  0  0  0  0  0  0  0  0
   -2.5481   -0.3066    0.2097 C   0  0  0  0  0  0  0  0  0  0  0  0
   -0.6183    1.9270   -0.4258 C   0  0  0  0  0  0  0  0  0  0  0  0
    3.3470   -1.1256   -0.6891 C   0  0  0  0  0  0  0  0  0  0  0  0
   -1.7690   -2.2238   -1.0354 C   0  0  0  0  0  0  0  0  0  0  0  0
    0.8299    0.9673   -2.0967 C   0  0  0  0  0  0  0  0  0  0  0  0
   -1.4598    1.8896    0.7834 C   0  0  0  0  0  0  0  0  0  0  0  0
    0.3005    1.0807    4.0222 C   0  0  0  0  0  0  0  0  0  0  0  0
   -3.8215   -0.9021    0.2677 C   0  0  0  0  0  0  0  0  0  0  0  0
   -0.4106    3.1923   -1.0032 C   0  0  0  0  0  0  0  0  0  0  0  0
   -3.0450   -2.7871   -1.0029 C   0  0  0  0  0  0  0  0  0  0  0  0
    1.0245    2.2228   -2.6726 C   0  0  0  0  0  0  0  0  0  0  0  0
   -4.0718   -2.1286   -0.3430 C   0  0  0  0  0  0  0  0  0  0  0  0
    0.4058    3.3375   -2.1227 C   0  0  0  0  0  0  0  0  0  0  0  0
  1 10  2  0
  2 16  1  0
  3 16  2  0
  4 19  2  0
  5 10  1  0
  5 11  1  0
  5 12  1  0
  6 14  1  0
  6 19  1  0
  7  8  1  0
  7 10  1  0
  7 16  1  0
  8  9  1  0
  9 13  1  0
 11 14  2  0
 11 17  1  0
 12 15  2  0
 12 18  1  0
 13 20  1  0
 14 21  1  0
 15 19  1  0
 15 22  1  0
 17 23  2  0
 18 24  2  0
 21 25  2  0
 22 26  2  0
 23 25  1  0
 24 26  1  0
M  END
>  <PUBCHEM_COMPOUND_CID>  (1) 
36072

>  <PUBCHEM_CONFORMER_RMSD>  (1) 
0.8

>  <PUBCHEM_CONFORMER_DIVERSEORDER>  (1) 
1
52
66
56
103
14
30
94
55
74
95
100
98
65
60
13
93
38
53
36
67
32
69
87
86
61
73
31
84
81
44
8
54
88
20
72
27
24
11
104
89
22
25
68
19
23
4
102
58
16
51
50
96
10
6
46
80
40
45
34
85
2
77
33
99
57
9
15
64
71
26
75
5
18
82
12
28
62
29
37
101
3
91
7
59
70
47
49
90
97
21
17
42
78
35
63
43
92
76
79
48
83
41
39

>  <PUBCHEM_MMFF94_PARTIAL_CHARGES>  (1) 
32
1 -0.57
10 0.57
11 0.12
12 0.12
14 0.12
15 0.09
16 0.66
17 -0.15
18 -0.15
19 0.54
2 -0.65
21 -0.15
22 -0.15
23 -0.15
24 -0.15
25 -0.15
26 -0.15
3 -0.57
34 0.15
35 0.15
36 0.37
4 -0.57
40 0.15
41 0.15
42 0.15
43 0.15
44 0.15
45 0.15
46 0.5
5 -0.29
6 -0.55
7 0.12

>  <PUBCHEM_EFFECTIVE_ROTOR_COUNT>  (1) 
6.4

>  <PUBCHEM_PHARMACOPHORE_FEATURES>  (1) 
12
1 1 acceptor
1 2 acceptor
1 20 hydrophobe
1 3 acceptor
1 4 acceptor
1 6 donor
1 7 anion
3 2 3 16 anion
4 7 8 9 13 hydrophobe
6 11 14 17 21 23 25 rings
6 12 15 18 22 24 26 rings
7 5 6 11 12 14 15 19 rings

>  <PUBCHEM_HEAVY_ATOM_COUNT>  (1) 
26

>  <PUBCHEM_ATOM_DEF_STEREO_COUNT>  (1) 
0

>  <PUBCHEM_ATOM_UDEF_STEREO_COUNT>  (1) 
1

>  <PUBCHEM_BOND_DEF_STEREO_COUNT>  (1) 
0

>  <PUBCHEM_BOND_UDEF_STEREO_COUNT>  (1) 
0

>  <PUBCHEM_ISOTOPIC_ATOM_COUNT>  (1) 
0

>  <PUBCHEM_COMPONENT_COUNT>  (1) 
1

>  <PUBCHEM_CACTVS_TAUTO_COUNT>  (1) 
2

>  <PUBCHEM_CONFORMER_ID>  (1) 
00008CE800000001

>  <PUBCHEM_MMFF94_ENERGY>  (1) 
113.0365

>  <PUBCHEM_FEATURE_SELFOVERLAP>  (1) 
61.235

>  <PUBCHEM_SHAPE_FINGERPRINT>  (1) 
10165383 225 17550401634975714668
11244481 83 16342588433790978174
11578080 2 18264466534026533149
12156800 1 16053272728104519232
12633257 1 17632850911071604779
12788726 201 16954467526663976341
13004483 165 18042954385866156423
13009979 54 18269575938379073223
133893 2 17248329902147682607
13681431 1 18044359741983140407
13911987 19 16298971830431893646
14863182 85 17408503496028092535
14955137 171 18190770624412384527
16945 1 18270111297451892471
1813 80 18261386784312591255
18981168 100 17910647914228886216
20567600 347 17105934427556250639
20600515 1 17972569320612580738
21033648 29 18130776829595352267
22112679 90 18264514843469966821
23419403 2 17185249739014543893
238 59 16335473365568191840
34934 24 17605564249131481997
35225 105 17396655893350676545
394222 165 17320969172327901723
513532 50 12761590078825179595
70251023 43 17024854979719481162
81228 2 18192694675408771351
9981440 41 16894002496066810676

>  <PUBCHEM_SHAPE_MULTIPOLES>  (1) 
501.63
5.27
3.7
3.09
2.2
3.09
-3.43
-4.85
1.38
-0.22
1.74
-1.99
0.58
-1.29

>  <PUBCHEM_SHAPE_SELFOVERLAP>  (1) 
1082.818

>  <PUBCHEM_SHAPE_VOLUME>  (1) 
273.5

>  <PUBCHEM_COORDINATE_TYPE>  (1) 
2
5
10

$$$$
