36087
     RDKit          3D

 22 22  0  0  0  0  0  0  0  0999 V2000
   -2.6242   -0.5886    0.0304 O   0  0  0  0  0  0  0  0  0  0  0  0
    5.0745   -0.5572   -0.7015 O   0  0  0  0  0  0  0  0  0  0  0  0
   -1.1901    1.1816   -0.1693 O   0  0  0  0  0  0  0  0  0  0  0  0
   -6.1579    0.4224    0.3470 N   0  0  0  0  0  0  0  0  0  0  0  0
   -0.4242   -1.0352   -0.1615 N   0  0  0  0  0  0  0  0  0  0  0  0
   -5.0115   -0.4691    0.2526 C   0  0  0  0  0  0  0  0  0  0  0  0
   -6.2600    1.2639   -0.8478 C   0  0  0  0  0  0  0  0  0  0  0  0
   -7.3941   -0.3411    0.5342 C   0  0  0  0  0  0  0  0  0  0  0  0
   -3.7243    0.3259    0.1019 C   0  0  0  0  0  0  0  0  0  0  0  0
   -7.4127    2.2467   -0.7304 C   0  0  0  0  0  0  0  0  0  0  0  0
   -7.3130   -1.2229    1.7688 C   0  0  0  0  0  0  0  0  0  0  0  0
    7.0987    0.2889    0.2579 C   0  0  0  0  0  0  0  0  0  0  0  0
    7.7987    1.5030    0.8614 C   0  0  0  0  0  0  0  0  0  0  0  0
    5.6728    0.6141   -0.1639 C   0  0  0  0  0  0  0  0  0  0  0  0
    9.2074    1.1628    1.3207 C   0  0  0  0  0  0  0  0  0  0  0  0
    3.7155   -0.6753   -0.5668 C   0  0  0  0  0  0  0  0  0  0  0  0
    0.9592   -0.9149   -0.2968 C   0  0  0  0  0  0  0  0  0  0  0  0
   -1.3831   -0.0264   -0.1076 C   0  0  0  0  0  0  0  0  0  0  0  0
    3.1415   -1.9372   -0.4662 C   0  0  0  0  0  0  0  0  0  0  0  0
    2.9259    0.4681   -0.5339 C   0  0  0  0  0  0  0  0  0  0  0  0
    1.7583   -2.0575   -0.3307 C   0  0  0  0  0  0  0  0  0  0  0  0
    1.5428    0.3480   -0.3984 C   0  0  0  0  0  0  0  0  0  0  0  0
  1  9  1  0
  1 18  1  0
  2 14  1  0
  2 16  1  0
  3 18  2  0
  4  6  1  0
  4  7  1  0
  4  8  1  0
  5 17  1  0
  5 18  1  0
  6  9  1  0
  7 10  1  0
  8 11  1  0
 12 13  1  0
 12 14  1  0
 13 15  1  0
 16 19  2  0
 16 20  1  0
 17 21  2  0
 17 22  1  0
 19 21  1  0
 20 22  2  0
M  END
>  <PUBCHEM_COMPOUND_CID>  (1) 
36087

>  <PUBCHEM_CONFORMER_RMSD>  (1) 
1

>  <PUBCHEM_CONFORMER_DIVERSEORDER>  (1) 
1
75
51
7
44
60
84
6
73
61
8
22
63
72
36
52
70
27
37
21
31
59
76
45
16
46
68
11
89
39
15
9
67
32
71
54
69
66
78
62
13
86
24
19
35
53
43
33
77
47
85
56
26
18
28
50
74
80
30
34
29
57
87
20
58
17
83
41
25
55
5
65
82
88
10
12
79
40
4
42
38
2
3
49
64
23
48
14
81

>  <PUBCHEM_MMFF94_PARTIAL_CHARGES>  (1) 
22
1 -0.43
14 0.28
16 0.08
17 0.12
18 0.78
19 -0.15
2 -0.36
20 -0.15
21 -0.15
22 -0.15
3 -0.57
4 -0.81
46 0.37
47 0.15
48 0.15
49 0.15
5 -0.55
50 0.15
6 0.27
7 0.27
8 0.27
9 0.28

>  <PUBCHEM_EFFECTIVE_ROTOR_COUNT>  (1) 
12

>  <PUBCHEM_PHARMACOPHORE_FEATURES>  (1) 
6
1 15 hydrophobe
1 2 acceptor
1 3 acceptor
1 4 cation
1 5 donor
6 16 17 19 20 21 22 rings

>  <PUBCHEM_HEAVY_ATOM_COUNT>  (1) 
22

>  <PUBCHEM_ATOM_DEF_STEREO_COUNT>  (1) 
0

>  <PUBCHEM_ATOM_UDEF_STEREO_COUNT>  (1) 
0

>  <PUBCHEM_BOND_DEF_STEREO_COUNT>  (1) 
0

>  <PUBCHEM_BOND_UDEF_STEREO_COUNT>  (1) 
0

>  <PUBCHEM_ISOTOPIC_ATOM_COUNT>  (1) 
0

>  <PUBCHEM_COMPONENT_COUNT>  (1) 
1

>  <PUBCHEM_CACTVS_TAUTO_COUNT>  (1) 
2

>  <PUBCHEM_CONFORMER_ID>  (1) 
00008CF700000001

>  <PUBCHEM_MMFF94_ENERGY>  (1) 
47.3215

>  <PUBCHEM_FEATURE_SELFOVERLAP>  (1) 
30.446

>  <PUBCHEM_SHAPE_FINGERPRINT>  (1) 
10 15 18260830432262126432
106641 1 17967812786846636632
10835480 77 18336544920390933245
11315181 36 17060620006560757671
11638347 137 17676482840356252842
12091667 2 18409168810383196191
125118 31 18260270741746408124
12592606 108 11602824618065301065
12838862 33 18270665529064996452
13073987 5 18336549304808587819
13533116 47 15912772665457268950
14216079 64 11746925491885486840
14251764 18 13623531247210107670
14251764 46 15140679189763193507
14428016 86 18060703893000796090
14461889 52 18187372046681998410
14598715 104 18336532846689815965
14729087 3 18408319969599196325
15690457 1 14779260938989993288
17093844 174 18113057117782942033
1818759 1 12540693687800434880
18335252 114 16773793710958036856
20735858 18 18260548939868228082
21130935 74 18188492367685000739
21150785 3 14764629720357833760
220451 1 14979676555710577255
22224240 67 18409447007804247506
23081809 10 16056599795057019759
300161 21 18413107247400220103
33532 11 11530474533097987912
34797466 226 17060346210711240132
4073 2 17749120972006908275
4340502 62 17240482503388192762
444769 64 11746938694288128089
5104073 3 18263649463367874586
5470011 282 11167941386276897784
5758199 1 18131635595078595050
59682541 35 18408887368953775930
636775 72 18337106758096440421

>  <PUBCHEM_SHAPE_MULTIPOLES>  (1) 
425.18
27.85
1.79
1.03
4.38
0.02
-0.33
-13.05
-9.91
-0.52
0.16
-0.34
0
3.15

>  <PUBCHEM_SHAPE_SELFOVERLAP>  (1) 
840.456

>  <PUBCHEM_SHAPE_VOLUME>  (1) 
254.7

>  <PUBCHEM_COORDINATE_TYPE>  (1) 
2
5
10

$$$$
