36080
     RDKit          3D

 16 16  0  0  0  0  0  0  0  0999 V2000
   -3.1887   -0.0386    0.4579 O   0  0  0  0  0  0  0  0  0  0  0  0
   -2.6229   -1.4820   -1.2549 O   0  0  0  0  0  0  0  0  0  0  0  0
    0.0051    1.8410    0.0187 N   0  0  0  0  0  0  0  0  0  0  0  0
   -0.9279    0.7625    0.5503 C   0  0  0  0  0  0  0  0  0  0  0  0
    1.3788    1.6822    0.6543 C   0  0  0  0  0  0  0  0  0  0  0  0
    0.1269    1.7068   -1.4925 C   0  0  0  0  0  0  0  0  0  0  0  0
   -0.5574    3.2127    0.3625 C   0  0  0  0  0  0  0  0  0  0  0  0
   -2.3027    0.9439   -0.0621 C   0  0  0  0  0  0  0  0  0  0  0  0
    2.0100    0.3521    0.3652 C   0  0  0  0  0  0  0  0  0  0  0  0
    1.7868   -0.7175    1.2252 C   0  0  0  0  0  0  0  0  0  0  0  0
    2.8124    0.2007   -0.7604 C   0  0  0  0  0  0  0  0  0  0  0  0
    2.3734   -1.9542    0.9565 C   0  0  0  0  0  0  0  0  0  0  0  0
    3.3988   -1.0361   -1.0291 C   0  0  0  0  0  0  0  0  0  0  0  0
    3.1793   -2.1135   -0.1706 C   0  0  0  0  0  0  0  0  0  0  0  0
   -3.2522   -1.2126   -0.2406 C   0  0  0  0  0  0  0  0  0  0  0  0
   -4.2195   -2.1475    0.4199 C   0  0  0  0  0  0  0  0  0  0  0  0
  1  8  1  0
  1 15  1  0
  2 15  2  0
  3  4  1  0
  3  5  1  0
  3  6  1  0
  3  7  1  0
  4  8  1  0
  5  9  1  0
  9 10  2  0
  9 11  1  0
 10 12  1  0
 11 13  2  0
 12 14  2  0
 13 14  1  0
 15 16  1  0
M  CHG  1   3   1
M  END
>  <PUBCHEM_COMPOUND_CID>  (1) 
36080

>  <PUBCHEM_CONFORMER_RMSD>  (1) 
0.8

>  <PUBCHEM_CONFORMER_DIVERSEORDER>  (1) 
11
3
21
2
22
18
5
8
16
1
17
4
20
19
23
10
7
12
14
9
6
15
13

>  <PUBCHEM_MMFF94_PARTIAL_CHARGES>  (1) 
21
1 -0.43
10 -0.15
11 -0.15
12 -0.15
13 -0.15
14 -0.15
15 0.66
16 0.06
2 -0.57
29 0.15
3 -1.01
30 0.15
31 0.15
32 0.15
33 0.15
4 0.5
5 0.65
6 0.5
7 0.5
8 0.28
9 -0.14

>  <PUBCHEM_EFFECTIVE_ROTOR_COUNT>  (1) 
6

>  <PUBCHEM_PHARMACOPHORE_FEATURES>  (1) 
3
1 2 acceptor
1 3 cation
6 9 10 11 12 13 14 rings

>  <PUBCHEM_HEAVY_ATOM_COUNT>  (1) 
16

>  <PUBCHEM_ATOM_DEF_STEREO_COUNT>  (1) 
0

>  <PUBCHEM_ATOM_UDEF_STEREO_COUNT>  (1) 
0

>  <PUBCHEM_BOND_DEF_STEREO_COUNT>  (1) 
0

>  <PUBCHEM_BOND_UDEF_STEREO_COUNT>  (1) 
0

>  <PUBCHEM_ISOTOPIC_ATOM_COUNT>  (1) 
0

>  <PUBCHEM_COMPONENT_COUNT>  (1) 
1

>  <PUBCHEM_CACTVS_TAUTO_COUNT>  (1) 
1

>  <PUBCHEM_CONFORMER_ID>  (1) 
00008CF00000000B

>  <PUBCHEM_MMFF94_ENERGY>  (1) 
49.3596

>  <PUBCHEM_FEATURE_SELFOVERLAP>  (1) 
15.223

>  <PUBCHEM_SHAPE_FINGERPRINT>  (1) 
10618630 7 18409446964295190986
11725454 13 14563672079144381340
12403259 327 15123515839013449175
12553582 1 18410856538381477979
12841375 7 18413666919982066127
13533116 47 18124041397779561003
14251705 54 18338236089048539011
14251731 5 18411703170750966983
14252887 29 18272370935564893624
14863182 85 18121502620286264732
15279307 12 17613444337551472768
15375462 189 18336838540886096177
16752209 62 17977088073148555505
18186145 218 10809618165064684177
18522851 12 18337122158914428427
18981168 100 8573576736828457628
20291156 8 18411703196763175451
20442098 301 18060131080916473799
20602899 9 17541361454609651181
20645477 70 18122333847293709687
20871998 22 18341047497035456401
21634736 98 18335428924335666758
21731516 1 18411697656028315480
2255824 54 17905326578435059389
23379529 103 18199765669179392270
23402539 116 18114183004382785614
23557571 272 18267282271471976896
23598291 2 18267886019652324601
314173 41 18409735092577065835
49207404 50 10447368812640041567
568465 68 16772660006515199494
603831 33 18115879511985050486
7364860 26 18053384580705924433
94968 8 18336267937079686434

>  <PUBCHEM_SHAPE_MULTIPOLES>  (1) 
312.55
6.61
3.09
1.18
3.79
1.04
0.2
-6.11
0.56
0.79
-0.22
-0.4
-0.03
-0.18

>  <PUBCHEM_SHAPE_SELFOVERLAP>  (1) 
625.647

>  <PUBCHEM_SHAPE_VOLUME>  (1) 
185.8

>  <PUBCHEM_COORDINATE_TYPE>  (1) 
2
5
10

$$$$
