36095
     RDKit          3D

 33 36  0  0  1  0  0  0  0  0999 V2000
    0.8306   -3.4444    0.5675 P   0  0  0  0  0  0  0  0  0  0  0  0
   -1.7567   -0.6088   -0.7973 O   0  0  0  0  0  0  0  0  0  0  0  0
    0.7408   -2.0072    1.3225 O   0  0  0  0  0  0  0  0  0  0  0  0
   -0.6494   -3.4191   -0.1076 O   0  0  0  0  0  0  0  0  0  0  0  0
   -4.5376   -0.6776   -0.5525 O   0  0  0  0  0  0  0  0  0  0  0  0
    0.6811   -4.5136    1.7700 O   0  0  0  0  0  0  0  0  0  0  0  0
    1.9855   -3.6477   -0.3636 O   0  0  0  0  0  0  0  0  0  0  0  0
    1.6493    4.9470    0.9713 O   0  0  0  0  0  0  0  0  0  0  0  0
   -6.1314   -0.3201    1.0771 O   0  0  0  0  0  0  0  0  0  0  0  0
    3.9642   -0.6865   -0.6964 O   0  0  0  0  0  0  0  0  0  0  0  0
   -0.2076    0.9017    0.1736 N   0  0  0  0  0  0  0  0  0  0  0  0
    2.2087    1.0618   -0.0625 N   0  0  0  0  0  0  0  0  0  0  0  0
   -0.5887    3.0375    0.7499 N   0  0  0  0  0  0  0  0  0  0  0  0
    3.1060    3.2427    0.3804 N   0  0  0  0  0  0  0  0  0  0  0  0
    4.5150    1.5216   -0.2083 N   0  0  0  0  0  0  0  0  0  0  0  0
   -0.5290   -1.4047    1.0755 C   0  0  0  0  0  0  0  0  0  0  0  0
   -1.4781   -2.5008    0.6235 C   0  0  0  0  0  0  0  0  0  0  0  0
   -0.4800   -0.4981   -0.1454 C   0  0  0  0  0  0  0  0  0  0  0  0
   -2.4359   -1.7871   -0.3137 C   0  0  0  0  0  0  0  0  0  0  0  0
   -3.7103   -1.3405    0.3878 C   0  0  0  0  0  0  0  0  0  0  0  0
    0.9871    1.5364    0.1953 C   0  0  0  0  0  0  0  0  0  0  0  0
   -1.1377    1.8568    0.5183 C   0  0  0  0  0  0  0  0  0  0  0  0
    0.7469    2.8333    0.5464 C   0  0  0  0  0  0  0  0  0  0  0  0
    1.8414    3.7787    0.6574 C   0  0  0  0  0  0  0  0  0  0  0  0
   -5.7360   -0.2089   -0.0752 C   0  0  0  0  0  0  0  0  0  0  0  0
    3.2453    1.9799    0.0493 C   0  0  0  0  0  0  0  0  0  0  0  0
   -6.4935    0.4662   -1.1958 C   0  0  0  0  0  0  0  0  0  0  0  0
   -7.8517    0.9886   -0.7342 C   0  0  0  0  0  0  0  0  0  0  0  0
    4.7905    0.2125   -0.5657 C   0  0  0  0  0  0  0  0  0  0  0  0
   -8.5899    1.6935   -1.8604 C   0  0  0  0  0  0  0  0  0  0  0  0
    6.2804    0.0133   -0.7835 C   0  0  0  0  0  0  0  0  0  0  0  0
    6.6250   -1.4194   -1.1794 C   0  0  0  0  0  0  0  0  0  0  0  0
    8.1157   -1.5872   -1.4242 C   0  0  0  0  0  0  0  0  0  0  0  0
  1  3  1  0
  1  4  1  0
  1  6  1  0
  1  7  2  0
  2 18  1  0
  2 19  1  0
  3 16  1  0
  4 17  1  0
  5 20  1  0
  5 25  1  0
  8 24  2  0
  9 25  2  0
 10 29  2  0
 11 18  1  0
 11 21  1  0
 11 22  1  0
 12 21  1  0
 12 26  1  0
 13 22  2  0
 13 23  1  0
 14 24  1  0
 14 26  2  0
 15 26  1  0
 15 29  1  0
 16 17  1  0
 16 18  1  0
 17 19  1  0
 19 20  1  0
 21 23  2  0
 23 24  1  0
 25 27  1  0
 27 28  1  0
 28 30  1  0
 29 31  1  0
 31 32  1  0
 32 33  1  0
M  END
>  <PUBCHEM_COMPOUND_CID>  (1) 
36095

>  <PUBCHEM_CONFORMER_RMSD>  (1) 
1

>  <PUBCHEM_CONFORMER_DIVERSEORDER>  (1) 
1
20
81
29
56
12
75
50
28
71
31
64
27
40
33
79
34
25
67
37
47
11
43
9
80
4
58
19
74
16
35
57
3
15
32
68
59
78
46
51
66
49
69
45
26
48
5
18
61
30
53
41
36
77
44
76
52
62
73
6
60
2
38
39
24
54
23
72
8
70
14
42
65
63
13
22
55
10
7
21
17

>  <PUBCHEM_MMFF94_PARTIAL_CHARGES>  (1) 
33
1 1.51
10 -0.57
11 0.05
12 -0.53
13 -0.57
14 -0.66
15 -0.49
16 0.28
17 0.28
18 0.54
19 0.28
2 -0.56
20 0.28
21 -0.07
22 0.04
23 0.14
24 0.87
25 0.66
26 0.56
27 0.06
29 0.57
3 -0.55
31 0.06
4 -0.55
40 0.15
41 0.5
42 0.4
45 0.37
5 -0.43
6 -0.77
7 -0.7
8 -0.57
9 -0.57

>  <PUBCHEM_EFFECTIVE_ROTOR_COUNT>  (1) 
11

>  <PUBCHEM_PHARMACOPHORE_FEATURES>  (1) 
16
1 10 acceptor
1 12 donor
1 14 donor
1 15 donor
1 2 acceptor
1 30 hydrophobe
1 33 hydrophobe
1 6 acceptor
1 7 acceptor
1 8 acceptor
1 9 acceptor
3 11 13 22 cation
5 1 3 4 16 17 rings
5 11 13 21 22 23 rings
5 2 16 17 18 19 rings
6 12 14 21 23 24 26 rings

>  <PUBCHEM_HEAVY_ATOM_COUNT>  (1) 
33

>  <PUBCHEM_ATOM_DEF_STEREO_COUNT>  (1) 
4

>  <PUBCHEM_ATOM_UDEF_STEREO_COUNT>  (1) 
0

>  <PUBCHEM_BOND_DEF_STEREO_COUNT>  (1) 
0

>  <PUBCHEM_BOND_UDEF_STEREO_COUNT>  (1) 
0

>  <PUBCHEM_ISOTOPIC_ATOM_COUNT>  (1) 
0

>  <PUBCHEM_COMPONENT_COUNT>  (1) 
1

>  <PUBCHEM_CACTVS_TAUTO_COUNT>  (1) 
9

>  <PUBCHEM_CONFORMER_ID>  (1) 
00008CFF00000001

>  <PUBCHEM_MMFF94_ENERGY>  (1) 
52.6003

>  <PUBCHEM_FEATURE_SELFOVERLAP>  (1) 
81.932

>  <PUBCHEM_SHAPE_FINGERPRINT>  (1) 
10483366 6 18411419479575977538
10675989 125 18412259566800838993
10816530 90 18262226738577205411
11297010 23 18341883083792981359
11578080 2 17242439535274714119
12202916 173 18272091587489272486
12788726 201 18337114467498673282
12838862 33 18411689994492500546
13944108 23 18263073328524841333
14117953 113 18131357388772438134
14725015 67 18340201904728638706
14790565 3 18264204902004217521
14866123 147 18269852938416489304
14931854 50 18335994069302570782
15052358 14 18409450310206486087
15351339 4 18262798437505895418
15420108 30 17483141257430687273
15439362 3 18195243553710546852
15927050 60 17692829090320783448
18335252 114 18412821365549706599
18393751 57 9151168715362874828
20642791 13 18058744511261015392
20832881 197 18412269471042298544
21033648 29 18121487214866977969
21279426 13 18410857706739091941
21585483 110 18407754833781442063
22121540 332 17751054957003779175
22440779 20 16376672281030676274
23559900 14 18198343051577711256
24893992 56 18408039633342752319
3178227 256 18336559282481834209
335352 9 18412547630172329724
3383291 50 18411702084767975562
484989 97 18335710471862513369
5265222 85 18042413593754699124
552612 73 17823686474795143261
59682541 35 9439395835475442493
59755656 215 18335136471491197445
6138700 20 18412269423808409190
6371380 46 18337106864593987456
9709674 26 17834679670942816330

>  <PUBCHEM_SHAPE_MULTIPOLES>  (1) 
605.25
17.93
5.35
1.25
15.85
0.8
0.13
1.62
13.22
-4.04
-2.49
0.43
-0.29
2.35

>  <PUBCHEM_SHAPE_SELFOVERLAP>  (1) 
1274.792

>  <PUBCHEM_SHAPE_VOLUME>  (1) 
342.6

>  <PUBCHEM_COORDINATE_TYPE>  (1) 
2
5
10

$$$$
