36097
     RDKit          3D

 22 21  0  0  1  0  0  0  0  0999 V2000
    1.3208   -0.8493   -0.3146 O   0  0  0  0  0  0  0  0  0  0  0  0
    1.7077    0.0239    1.7845 O   0  0  0  0  0  0  0  0  0  0  0  0
   -2.2387    1.7126   -0.4607 O   0  0  0  0  0  0  0  0  0  0  0  0
    4.6917    4.0634    0.6669 O   0  0  0  0  0  0  0  0  0  0  0  0
    4.1217    3.1440   -1.3311 O   0  0  0  0  0  0  0  0  0  0  0  0
   -2.9006   -0.4978   -0.7223 N   0  0  0  0  0  0  0  0  0  0  0  0
   -0.9088   -1.4860    0.4231 C   0  0  0  0  0  0  0  0  0  0  0  0
    0.5741   -1.9175    0.2624 C   0  0  0  0  0  0  0  0  0  0  0  0
   -1.7726   -2.5673    1.1169 C   0  0  0  0  0  0  0  0  0  0  0  0
    0.7444   -3.1905   -0.5829 C   0  0  0  0  0  0  0  0  0  0  0  0
   -1.5854   -1.0496   -0.8937 C   0  0  0  0  0  0  0  0  0  0  0  0
    2.2133   -3.5996   -0.7384 C   0  0  0  0  0  0  0  0  0  0  0  0
   -1.1902   -3.0680    2.4317 C   0  0  0  0  0  0  0  0  0  0  0  0
    2.3542   -4.8389   -1.6090 C   0  0  0  0  0  0  0  0  0  0  0  0
    1.8372    0.0605    0.5689 C   0  0  0  0  0  0  0  0  0  0  0  0
   -3.1211    0.8602   -0.5166 C   0  0  0  0  0  0  0  0  0  0  0  0
   -4.5982    1.1777   -0.3685 C   0  0  0  0  0  0  0  0  0  0  0  0
    2.5929    1.1215   -0.2018 C   0  0  0  0  0  0  0  0  0  0  0  0
   -4.8549    2.6646   -0.1422 C   0  0  0  0  0  0  0  0  0  0  0  0
    3.2818    2.1391    0.6995 C   0  0  0  0  0  0  0  0  0  0  0  0
   -6.3364    2.9541    0.0360 C   0  0  0  0  0  0  0  0  0  0  0  0
    4.0670    3.1429   -0.1081 C   0  0  0  0  0  0  0  0  0  0  0  0
  1  8  1  0
  1 15  1  0
  2 15  2  0
  3 16  2  0
  4 22  1  0
  5 22  2  0
  6 11  1  0
  6 16  1  0
  7  8  1  0
  7  9  1  0
  7 11  1  0
  8 10  1  0
  9 13  1  0
 10 12  1  0
 12 14  1  0
 15 18  1  0
 16 17  1  0
 17 19  1  0
 18 20  1  0
 19 21  1  0
 20 22  1  0
M  END
>  <PUBCHEM_COMPOUND_CID>  (1) 
36097

>  <PUBCHEM_CONFORMER_RMSD>  (1) 
1

>  <PUBCHEM_CONFORMER_DIVERSEORDER>  (1) 
1
30
54
171
124
7
136
288
276
61
195
168
238
204
83
226
101
164
106
199
93
198
229
287
42
243
231
81
240
4
263
190
47
87
100
128
260
94
109
206
254
104
257
270
112
151
185
180
156
223
108
25
178
88
258
163
250
236
118
274
271
76
275
6
222
35
172
154
209
152
230
267
111
117
264
45
248
177
62
63
97
3
214
278
105
262
170
184
179
249
279
211
36
9
208
82
34
19
268
28
148
242
58
135
102
98
149
43
253
40
67
8
281
29
259
189
269
69
31
205
72
302
290
169
103
18
221
216
146
130
186
251
121
10
132
37
192
174
84
215
48
175
122
33
225
282
187
113
23
167
228
74
197
14
252
27
165
71
79
99
219
59
16
277
131
301
75
239
256
55
142
212
68
181
114
266
255
272
218
60
237
141
66
50
57
78
273
293
299
73
233
232
15
140
11
194
5
265
201
213
182
158
96
247
41
245
120
65
153
134
292
115
176
150
116
291
91
210
227
296
21
297
147
110
193
53
56
280
77
13
32
49
90
95
145
188
127
139
144
203
137
70
125
202
200
133
284
159
107
20
162
261
129
26
235
22
44
285
298
220
207
289
123
38
196
52
246
161
80
51
157
191
2
241
119
234
283
155
224
17
217
126
12
86
143
300
294
166
39
46
295
244
89
183
286
173
138
24
85
160
64
92

>  <PUBCHEM_MMFF94_PARTIAL_CHARGES>  (1) 
16
1 -0.43
11 0.3
15 0.66
16 0.57
17 0.06
18 0.06
2 -0.57
20 0.06
22 0.66
3 -0.57
36 0.37
4 -0.65
5 -0.57
51 0.5
6 -0.73
8 0.28

>  <PUBCHEM_EFFECTIVE_ROTOR_COUNT>  (1) 
14

>  <PUBCHEM_PHARMACOPHORE_FEATURES>  (1) 
9
1 13 hydrophobe
1 14 hydrophobe
1 2 acceptor
1 21 hydrophobe
1 3 acceptor
1 4 acceptor
1 5 acceptor
1 6 donor
3 4 5 22 anion

>  <PUBCHEM_HEAVY_ATOM_COUNT>  (1) 
22

>  <PUBCHEM_ATOM_DEF_STEREO_COUNT>  (1) 
0

>  <PUBCHEM_ATOM_UDEF_STEREO_COUNT>  (1) 
2

>  <PUBCHEM_BOND_DEF_STEREO_COUNT>  (1) 
0

>  <PUBCHEM_BOND_UDEF_STEREO_COUNT>  (1) 
0

>  <PUBCHEM_ISOTOPIC_ATOM_COUNT>  (1) 
0

>  <PUBCHEM_COMPONENT_COUNT>  (1) 
1

>  <PUBCHEM_CACTVS_TAUTO_COUNT>  (1) 
2

>  <PUBCHEM_CONFORMER_ID>  (1) 
00008D0100000001

>  <PUBCHEM_MMFF94_ENERGY>  (1) 
19.0423

>  <PUBCHEM_FEATURE_SELFOVERLAP>  (1) 
45.73

>  <PUBCHEM_SHAPE_FINGERPRINT>  (1) 
12107183 9 18262498382938577472
12617007 42 17770498634023804047
12788726 201 17757531324645846547
13590594 115 17621048559774103177
14114211 68 18340222833434969717
14251764 75 18412268354589159481
14508225 48 16542413892246796086
15081414 286 18052812551201740700
15142526 21 18334012757928625385
15163728 17 18337399343356096988
15775530 1 18335996327780706531
16120349 67 18338534022213710812
16988056 13 17978220565629738012
18785283 64 18338233765254856514
21033650 10 17611482109435460372
21365058 113 17767697052931973231
21503847 285 18052252891678694667
23558518 356 18187927326356714803
23559900 14 18195243309450662463
23598288 3 17975398429077752618
474 4 18336817590436656697
56616090 278 18189892007400440867
633830 44 18336819776759548903
7288768 16 18114457955072286161
7808743 9 18337666550451885353
9981440 41 18268701873942760026
9999458 23 18045503019739262207

>  <PUBCHEM_SHAPE_MULTIPOLES>  (1) 
418.42
10.09
6.67
1.45
15.55
0.41
-0.65
14.09
1.91
-9.75
0.67
-0.53
-1.39
2.12

>  <PUBCHEM_SHAPE_SELFOVERLAP>  (1) 
795.674

>  <PUBCHEM_SHAPE_VOLUME>  (1) 
254.8

>  <PUBCHEM_COORDINATE_TYPE>  (1) 
2
5
10

$$$$
