36098
     RDKit          3D

  9  9  0  0  0  0  0  0  0  0999 V2000
    1.3697    1.3401    0.2391 S   0  0  0  0  0  0  0  0  0  0  0  0
    0.5579   -1.0671   -0.2394 N   0  0  0  0  0  0  0  0  0  0  0  0
   -0.5468   -0.2388   -0.2747 C   0  0  0  0  0  0  0  0  0  0  0  0
   -1.8631   -0.8478   -0.5555 C   0  0  0  0  0  0  0  0  0  0  0  0
   -0.3051    1.0986   -0.0401 C   0  0  0  0  0  0  0  0  0  0  0  0
    1.6234   -0.3433    0.0228 C   0  0  0  0  0  0  0  0  0  0  0  0
   -2.5925   -1.2994    0.7136 C   0  0  0  0  0  0  0  0  0  0  0  0
   -1.2387    2.2422   -0.0047 C   0  0  0  0  0  0  0  0  0  0  0  0
    2.9953   -0.8845    0.1388 C   0  0  0  0  0  0  0  0  0  0  0  0
  1  5  1  0
  1  6  1  0
  2  3  1  0
  2  6  2  0
  3  4  1  0
  3  5  2  0
  4  7  1  0
  5  8  1  0
  6  9  1  0
M  END
>  <PUBCHEM_COMPOUND_CID>  (1) 
36098

>  <PUBCHEM_CONFORMER_RMSD>  (1) 
0.4

>  <PUBCHEM_CONFORMER_DIVERSEORDER>  (1) 
2
1
4
3

>  <PUBCHEM_MMFF94_PARTIAL_CHARGES>  (1) 
8
1 -0.08
2 -0.57
3 0.05
4 0.18
5 -0.14
6 0.2
8 0.18
9 0.18

>  <PUBCHEM_EFFECTIVE_ROTOR_COUNT>  (1) 
1

>  <PUBCHEM_PHARMACOPHORE_FEATURES>  (1) 
3
1 2 acceptor
1 7 hydrophobe
5 1 2 3 5 6 rings

>  <PUBCHEM_HEAVY_ATOM_COUNT>  (1) 
9

>  <PUBCHEM_ATOM_DEF_STEREO_COUNT>  (1) 
0

>  <PUBCHEM_ATOM_UDEF_STEREO_COUNT>  (1) 
0

>  <PUBCHEM_BOND_DEF_STEREO_COUNT>  (1) 
0

>  <PUBCHEM_BOND_UDEF_STEREO_COUNT>  (1) 
0

>  <PUBCHEM_ISOTOPIC_ATOM_COUNT>  (1) 
0

>  <PUBCHEM_COMPONENT_COUNT>  (1) 
1

>  <PUBCHEM_CACTVS_TAUTO_COUNT>  (1) 
1

>  <PUBCHEM_CONFORMER_ID>  (1) 
00008D0200000002

>  <PUBCHEM_MMFF94_ENERGY>  (1) 
3.6705

>  <PUBCHEM_FEATURE_SELFOVERLAP>  (1) 
15.223

>  <PUBCHEM_SHAPE_FINGERPRINT>  (1) 
10857977 72 18339630218089012042
12423570 1 13699473346618828809
161256 15 18341897458352480068
16945 1 18338235938349650044
20871998 184 18200873972272023574
20871998 22 18342751710051903310
21040471 1 17907858397062516060
23552423 10 18260828202651827852
241688 4 18409446985733325361
2748010 2 18341320141796835228
29004967 10 18191021411836878027
5084963 1 17989199361047200650

>  <PUBCHEM_SHAPE_MULTIPOLES>  (1) 
184.08
3.55
2.02
0.73
0.66
1.12
0.03
-1.82
0.49
-0.57
0.1
-0.2
-0.08
0.19

>  <PUBCHEM_SHAPE_SELFOVERLAP>  (1) 
353.916

>  <PUBCHEM_SHAPE_VOLUME>  (1) 
115.8

>  <PUBCHEM_COORDINATE_TYPE>  (1) 
2
5
10

$$$$
