36092
     RDKit          3D

 22 23  0  0  1  0  0  0  0  0999 V2000
    3.9553   -2.8273   -0.1104 Cl  0  0  0  0  0  0  0  0  0  0  0  0
    0.0053   -0.8007    0.1880 O   0  0  0  0  0  0  0  0  0  0  0  0
    1.2910   -0.2385   -1.6179 O   0  0  0  0  0  0  0  0  0  0  0  0
   -3.6352   -0.1507   -0.1541 N   0  0  0  0  0  0  0  0  0  0  0  0
    2.1944   -0.4516    0.5313 N   0  0  0  0  0  0  0  0  0  0  0  0
   -1.1752   -0.2589   -0.3949 C   0  0  0  0  0  0  0  0  0  0  0  0
   -2.4032   -0.7441    0.3809 C   0  0  0  0  0  0  0  0  0  0  0  0
   -1.0891    1.2651   -0.4007 C   0  0  0  0  0  0  0  0  0  0  0  0
   -3.5895    1.3171   -0.0894 C   0  0  0  0  0  0  0  0  0  0  0  0
   -2.4022    1.8700   -0.8804 C   0  0  0  0  0  0  0  0  0  0  0  0
   -4.8030   -0.6591    0.5650 C   0  0  0  0  0  0  0  0  0  0  0  0
   -6.0885   -0.1339   -0.0720 C   0  0  0  0  0  0  0  0  0  0  0  0
   -7.3235   -0.6711    0.6520 C   0  0  0  0  0  0  0  0  0  0  0  0
    1.1921   -0.4706   -0.4191 C   0  0  0  0  0  0  0  0  0  0  0  0
   -8.6065   -0.1249    0.0461 C   0  0  0  0  0  0  0  0  0  0  0  0
    3.5653   -0.1618    0.3450 C   0  0  0  0  0  0  0  0  0  0  0  0
    3.9963    1.1525    0.4654 C   0  0  0  0  0  0  0  0  0  0  0  0
    4.4582   -1.1817    0.0465 C   0  0  0  0  0  0  0  0  0  0  0  0
    5.3465    1.4523    0.2838 C   0  0  0  0  0  0  0  0  0  0  0  0
    3.0508    2.2646    0.7862 C   0  0  0  0  0  0  0  0  0  0  0  0
    5.8083   -0.8818   -0.1351 C   0  0  0  0  0  0  0  0  0  0  0  0
    6.2525    0.4351   -0.0165 C   0  0  0  0  0  0  0  0  0  0  0  0
  1 18  1  0
  2  6  1  0
  2 14  1  0
  3 14  2  0
  4  7  1  0
  4  9  1  0
  4 11  1  0
  5 14  1  0
  5 16  1  0
  6  7  1  0
  6  8  1  0
  8 10  1  0
  9 10  1  0
 11 12  1  0
 12 13  1  0
 13 15  1  0
 16 17  2  0
 16 18  1  0
 17 19  1  0
 17 20  1  0
 18 21  2  0
 19 22  2  0
 21 22  1  0
M  END
>  <PUBCHEM_COMPOUND_CID>  (1) 
36092

>  <PUBCHEM_CONFORMER_RMSD>  (1) 
0.8

>  <PUBCHEM_CONFORMER_DIVERSEORDER>  (1) 
2
20
46
277
209
171
56
16
204
281
228
99
271
19
108
244
38
248
184
37
145
41
258
83
33
221
26
67
34
206
231
49
107
52
14
253
264
143
158
152
173
57
234
219
235
199
276
90
136
251
122
273
97
192
183
4
132
147
47
189
40
196
29
100
150
218
103
28
48
245
155
88
71
115
257
260
133
167
124
267
243
272
61
81
21
84
198
262
220
128
210
161
202
227
31
169
131
287
119
32
239
288
130
159
11
194
91
197
73
114
68
224
129
89
17
230
290
85
113
51
164
24
265
222
200
160
190
256
109
186
187
74
211
69
36
156
238
59
98
144
182
170
42
87
247
181
275
50
191
157
64
185
77
104
229
207
96
195
55
241
106
216
226
269
180
138
102
266
284
105
93
225
135
217
215
268
117
188
18
44
66
289
249
75
9
65
270
203
259
232
82
279
172
116
121
25
165
263
177
125
250
86
140
15
27
62
118
139
53
154
233
178
237
70
246
280
7
95
254
213
146
112
92
201
39
78
282
168
126
6
141
151
120
255
205
252
193
283
149
127
236
208
285
5
80
240
162
142
72
176
137
63
8
101
54
58
166
286
79
179
123
242
45
3
214
22
13
10
111
110
175
30
134
43
1
174
274
223
12
76
212
35
291
23
60
148
163
153
278
94
261

>  <PUBCHEM_MMFF94_PARTIAL_CHARGES>  (1) 
21
1 -0.18
11 0.27
14 0.78
16 0.12
17 -0.14
18 0.18
19 -0.15
2 -0.43
20 0.14
21 -0.15
22 -0.15
3 -0.57
4 -0.81
41 0.37
42 0.15
46 0.15
47 0.15
5 -0.55
6 0.28
7 0.27
9 0.27

>  <PUBCHEM_EFFECTIVE_ROTOR_COUNT>  (1) 
8.2

>  <PUBCHEM_PHARMACOPHORE_FEATURES>  (1) 
6
1 15 hydrophobe
1 3 acceptor
1 4 cation
1 5 donor
6 16 17 18 19 21 22 rings
6 4 6 7 8 9 10 rings

>  <PUBCHEM_HEAVY_ATOM_COUNT>  (1) 
22

>  <PUBCHEM_ATOM_DEF_STEREO_COUNT>  (1) 
1

>  <PUBCHEM_ATOM_UDEF_STEREO_COUNT>  (1) 
0

>  <PUBCHEM_BOND_DEF_STEREO_COUNT>  (1) 
0

>  <PUBCHEM_BOND_UDEF_STEREO_COUNT>  (1) 
0

>  <PUBCHEM_ISOTOPIC_ATOM_COUNT>  (1) 
0

>  <PUBCHEM_COMPONENT_COUNT>  (1) 
1

>  <PUBCHEM_CACTVS_TAUTO_COUNT>  (1) 
2

>  <PUBCHEM_CONFORMER_ID>  (1) 
00008CFC00000002

>  <PUBCHEM_MMFF94_ENERGY>  (1) 
60.4311

>  <PUBCHEM_FEATURE_SELFOVERLAP>  (1) 
30.446

>  <PUBCHEM_SHAPE_FINGERPRINT>  (1) 
10 15 18261667177907167856
10299344 5 17846498149768251679
10354089 29 18273214210071556976
10411042 1 18053385402079049046
11045977 3 18335422421533491947
12107183 9 17620476814059910874
12166972 35 18409732867383852905
12236239 1 16877941620270458248
12516196 113 17967532380794588781
12730499 353 18410575089728524002
12916748 109 18260828185572139968
13073987 5 18270398287577951216
13533116 47 18409165476444641394
1420 363 18260831501181462347
14251764 18 18131636686348266169
14251764 46 17240482519908236914
14341114 176 18412546509370585292
14933364 13 18411420609474181857
15419008 47 17822282497120510013
17844677 252 18340774745321842632
18006028 8 18408322190577154285
18222031 100 16370729210117865726
18335252 98 18335423456357112635
20157964 124 18342740719367560866
20645477 70 18202004279622706230
21033648 29 18336529573808510048
21150785 3 15719115764066273679
21267235 1 18343023255860329790
21315759 40 16773798095528672207
221357 26 18411698777426574320
22224240 67 17846777425579438087
23559900 14 18260828245327311241
255183 451 17844259423856719438
3004659 81 16588029034937279431
3411729 13 16154567543896610820
34797466 226 18273502273528002644
3545911 37 18411135844752897960
4073 2 18188494686798425035
4325135 7 18060138752070754405
5104073 3 18338228250574644080
59682541 35 18188209917549837969
59755656 215 17967533445994464275
59755656 520 15482665776187371245
8272917 22 18273217470163160126

>  <PUBCHEM_SHAPE_MULTIPOLES>  (1) 
432.92
19.97
1.98
0.86
28.56
0.08
-0.12
2.64
2.71
-2.63
0.04
0.02
-0.1
1.05

>  <PUBCHEM_SHAPE_SELFOVERLAP>  (1) 
874.921

>  <PUBCHEM_SHAPE_VOLUME>  (1) 
253.8

>  <PUBCHEM_COORDINATE_TYPE>  (1) 
2
5
10

$$$$
