36104
     RDKit          3D

 14 15  0  0  0  0  0  0  0  0999 V2000
   -3.8302   -1.8479    0.3462 N   0  0  0  0  0  0  0  0  0  0  0  0
    4.8166   -0.3088    0.0430 N   0  0  0  0  0  0  0  0  0  0  0  0
   -0.8021    0.2513   -0.0431 C   0  0  0  0  0  0  0  0  0  0  0  0
    0.6375    0.1077   -0.0199 C   0  0  0  0  0  0  0  0  0  0  0  0
   -1.6176   -0.8616    0.1617 C   0  0  0  0  0  0  0  0  0  0  0  0
    1.4381    1.1706    0.3983 C   0  0  0  0  0  0  0  0  0  0  0  0
    1.2247   -1.0935   -0.4174 C   0  0  0  0  0  0  0  0  0  0  0  0
   -1.3742    1.5029   -0.2706 C   0  0  0  0  0  0  0  0  0  0  0  0
   -3.0053   -0.7229    0.1393 C   0  0  0  0  0  0  0  0  0  0  0  0
    3.4132   -0.1688    0.0213 C   0  0  0  0  0  0  0  0  0  0  0  0
    2.8259    1.0323    0.4188 C   0  0  0  0  0  0  0  0  0  0  0  0
    2.6126   -1.2317   -0.3968 C   0  0  0  0  0  0  0  0  0  0  0  0
   -2.7619    1.6417   -0.2930 C   0  0  0  0  0  0  0  0  0  0  0  0
   -3.5774    0.5287   -0.0880 C   0  0  0  0  0  0  0  0  0  0  0  0
  1  9  1  0
  2 10  1  0
  3  4  1  0
  3  5  2  0
  3  8  1  0
  4  6  2  0
  4  7  1  0
  5  9  1  0
  6 11  1  0
  7 12  2  0
  8 13  2  0
  9 14  2  0
 10 11  2  0
 10 12  1  0
 13 14  1  0
M  END
>  <PUBCHEM_COMPOUND_CID>  (1) 
36104

>  <PUBCHEM_CONFORMER_RMSD>  (1) 
0.4

>  <PUBCHEM_CONFORMER_DIVERSEORDER>  (1) 
1
2

>  <PUBCHEM_MMFF94_PARTIAL_CHARGES>  (1) 
24
1 -0.9
10 0.1
11 -0.15
12 -0.15
13 -0.15
14 -0.15
15 0.15
16 0.15
17 0.15
18 0.15
19 0.15
2 -0.9
20 0.15
21 0.15
22 0.15
23 0.4
24 0.4
25 0.4
26 0.4
5 -0.15
6 -0.15
7 -0.15
8 -0.15
9 0.1

>  <PUBCHEM_EFFECTIVE_ROTOR_COUNT>  (1) 
1

>  <PUBCHEM_PHARMACOPHORE_FEATURES>  (1) 
6
1 1 cation
1 1 donor
1 2 cation
1 2 donor
6 3 5 8 9 13 14 rings
6 4 6 7 10 11 12 rings

>  <PUBCHEM_HEAVY_ATOM_COUNT>  (1) 
14

>  <PUBCHEM_ATOM_DEF_STEREO_COUNT>  (1) 
0

>  <PUBCHEM_ATOM_UDEF_STEREO_COUNT>  (1) 
0

>  <PUBCHEM_BOND_DEF_STEREO_COUNT>  (1) 
0

>  <PUBCHEM_BOND_UDEF_STEREO_COUNT>  (1) 
0

>  <PUBCHEM_ISOTOPIC_ATOM_COUNT>  (1) 
0

>  <PUBCHEM_COMPONENT_COUNT>  (1) 
1

>  <PUBCHEM_CACTVS_TAUTO_COUNT>  (1) 
1

>  <PUBCHEM_CONFORMER_ID>  (1) 
00008D0800000001

>  <PUBCHEM_MMFF94_ENERGY>  (1) 
65.8854

>  <PUBCHEM_FEATURE_SELFOVERLAP>  (1) 
30.446

>  <PUBCHEM_SHAPE_FINGERPRINT>  (1) 
10608611 8 18412257324569194025
11471102 20 18273209764495607948
11615757 297 17418094334029753584
12032990 46 18412266155053096408
12500047 106 18262230007010466037
12932764 1 17530958043059183905
13214271 11 18413383233160559789
13296908 3 18412827975467172095
13760787 19 18041561343336001074
14144814 61 18411981329996626752
14252887 29 17418102001126768574
14325111 11 18411698785615445632
15196674 1 18411138060396873000
15219456 202 18342454846080432585
15309172 13 17203330013500271047
15653759 3 18408323280565079952
16945 1 18269829968472304525
17804303 29 18411984671534079844
17834074 16 18412546496142837606
17844478 74 18411422829893139577
18175812 5 18412261748427388853
18186145 218 18271531892292119212
19026448 5 17458345217566904412
19141452 34 18271813479793093507
1986462 14 18335139782383299429
200 152 17704062993720927181
20201158 50 18342457006433106246
20279233 1 18341333314266028455
20645477 56 18261673654369787757
20645477 70 17774156773686399262
20871998 184 18343586257010681991
21267235 1 18410583893709880119
21501502 16 18408892853384672749
221490 88 18410580616997804578
23402539 116 18114455716935161598
23402655 69 18128807556603768053
23557571 272 18411424985903600821
23559900 14 18267863874853609550
2748010 2 18412822473698501093
2871803 45 18335695079074693023
3312278 4 18341333296975454473
474 4 16299808640400762804
5104073 3 18412261739937558336
573450 72 17968927605162764976
57812782 119 18413103952848775100
6333449 129 18410008815137839773
69090 78 18342733001606527863
7364860 26 18122340181811698186
77779 3 18409731751013466204
8809292 202 18335143106709300035
9709674 26 18410580582295739982

>  <PUBCHEM_SHAPE_MULTIPOLES>  (1) 
278.15
7.54
1.67
0.68
2.34
0.01
0.01
1.2
-0.29
-1
0.01
0.02
-0.01
0.62

>  <PUBCHEM_SHAPE_SELFOVERLAP>  (1) 
605.993

>  <PUBCHEM_SHAPE_VOLUME>  (1) 
151.7

>  <PUBCHEM_COORDINATE_TYPE>  (1) 
2
5
10

$$$$
