36108
     RDKit          3D

 12 11  0  0  0  0  0  0  0  0999 V2000
    0.6240   -0.2726    0.0084 O   0  0  0  0  0  0  0  0  0  0  0  0
   -3.0582    0.4738   -0.0168 C   0  0  0  0  0  0  0  0  0  0  0  0
   -1.7701   -0.3480   -0.0107 C   0  0  0  0  0  0  0  0  0  0  0  0
   -4.3272   -0.3833   -0.0135 C   0  0  0  0  0  0  0  0  0  0  0  0
    3.0139   -0.4274    0.0221 C   0  0  0  0  0  0  0  0  0  0  0  0
   -0.5374    0.5460    0.0191 C   0  0  0  0  0  0  0  0  0  0  0  0
    4.3301    0.3466    0.0339 C   0  0  0  0  0  0  0  0  0  0  0  0
    1.8123    0.5068    0.0351 C   0  0  0  0  0  0  0  0  0  0  0  0
   -5.6161    0.4390   -0.0446 C   0  0  0  0  0  0  0  0  0  0  0  0
    5.5309   -0.5974   -0.0218 C   0  0  0  0  0  0  0  0  0  0  0  0
   -6.8452   -0.4542    0.0332 C   0  0  0  0  0  0  0  0  0  0  0  0
    6.8429    0.1706   -0.0444 C   0  0  0  0  0  0  0  0  0  0  0  0
  1  6  1  0
  1  8  1  0
  2  3  1  0
  2  4  1  0
  3  6  1  0
  4  9  1  0
  5  7  1  0
  5  8  1  0
  7 10  1  0
  9 11  1  0
 10 12  1  0
M  END
>  <PUBCHEM_COMPOUND_CID>  (1) 
36108

>  <PUBCHEM_CONFORMER_RMSD>  (1) 
0.8

>  <PUBCHEM_CONFORMER_DIVERSEORDER>  (1) 
1
307
114
291
106
258
391
189
309
237
253
303
246
118
88
365
17
311
407
9
243
343
419
415
13
191
374
329
79
344
162
28
233
211
165
195
360
350
161
35
405
314
385
22
4
420
152
101
142
412
259
270
254
327
27
400
383
398
282
103
12
96
67
399
298
29
264
174
98
242
148
55
125
287
357
104
276
268
64
320
5
353
42
73
395
58
315
38
247
421
209
381
208
105
157
36
139
339
3
417
387
245
325
213
292
201
56
262
240
86
416
120
312
302
100
116
384
352
49
322
283
380
14
2
393
80
43
308
239
304
184
378
342
274
186
236
367
177
15
53
154
375
145
318
250
47
7
138
273
337
130
266
134
335
347
297
44
238
272
382
370
326
358
91
403
183
296
404
127
271
151
133
89
288
411
135
317
170
180
192
176
122
10
269
340
221
413
83
62
115
379
76
82
396
136
132
146
389
85
364
95
25
284
140
230
332
355
252
188
109
319
232
256
227
241
30
369
171
349
294
48
168
69
285
78
267
275
54
263
156
280
173
373
265
11
60
129
234
321
207
299
289
346
226
204
414
158
34
33
313
217
117
410
206
99
31
197
74
219
324
334
366
338
222
257
24
153
128
166
205
402
196
8
21
84
281
46
90
244
61
328
323
175
231
37
26
187
137
351
97
143
108
295
279
293
57
185
179
362
212
215
368
198
310
199
406
331
6
306
193
112
93
40
301
345
20
92
141
277
113
50
121
110
172
223
126
333
363
225
251
203
359
330
18
150
66
102
228
224
149
418
147
261
41
181
163
409
348
278
190
316
107
218
87
164
144
59
111
286
16
52
160
167
388
305
194
392
155
336
390
397
214
249
341
182
75
32
169
123
386
408
19
131
394
77
65
63
81
401
235
354
94
23
377
372
119
124
300
255
202
371
376
178
248
220
159
290
361
51
71
68
260
356
70
72
200
216
39
210
45
229

>  <PUBCHEM_MMFF94_PARTIAL_CHARGES>  (1) 
3
1 -0.56
6 0.28
8 0.28

>  <PUBCHEM_EFFECTIVE_ROTOR_COUNT>  (1) 
9

>  <PUBCHEM_PHARMACOPHORE_FEATURES>  (1) 
4
1 1 acceptor
1 11 hydrophobe
1 12 hydrophobe
4 2 3 4 9 hydrophobe

>  <PUBCHEM_HEAVY_ATOM_COUNT>  (1) 
12

>  <PUBCHEM_ATOM_DEF_STEREO_COUNT>  (1) 
0

>  <PUBCHEM_ATOM_UDEF_STEREO_COUNT>  (1) 
0

>  <PUBCHEM_BOND_DEF_STEREO_COUNT>  (1) 
0

>  <PUBCHEM_BOND_UDEF_STEREO_COUNT>  (1) 
0

>  <PUBCHEM_ISOTOPIC_ATOM_COUNT>  (1) 
0

>  <PUBCHEM_COMPONENT_COUNT>  (1) 
1

>  <PUBCHEM_CACTVS_TAUTO_COUNT>  (1) 
1

>  <PUBCHEM_CONFORMER_ID>  (1) 
00008D0C00000001

>  <PUBCHEM_MMFF94_ENERGY>  (1) 
0.2657

>  <PUBCHEM_FEATURE_SELFOVERLAP>  (1) 
20.298

>  <PUBCHEM_SHAPE_FINGERPRINT>  (1) 
10968037 39 18334013900146884319
12091667 2 18113618985167032913
12714333 28 12612753518703628444
13533116 47 18338511942203216522
14123238 8 18409448080949680196
1420 363 18343304764284240183
14251718 22 18260829288988422801
14251764 46 18409729564532136715
17834076 25 18410575084663078918
187816 3 16081089272865346257
20645477 70 18338797793735855030
20767249 213 18413671322550319356
21130983 4 11095880484249007594
23402539 116 17846492639124712101
23521765 1 18341894095129018372
33684 2 18410572881344869067
42788 4 18410573985452235425
4463277 17 18410573985383929996
57583515 80 9727633912730206365
8209 1 18410573989451699708

>  <PUBCHEM_SHAPE_MULTIPOLES>  (1) 
241.09
19.28
0.8
0.61
0.08
0.01
0
-1.59
-0.17
-0.04
0
0
0
0.02

>  <PUBCHEM_SHAPE_SELFOVERLAP>  (1) 
424.642

>  <PUBCHEM_SHAPE_VOLUME>  (1) 
158.9

>  <PUBCHEM_COORDINATE_TYPE>  (1) 
2
5
10

$$$$
