36101
     RDKit          3D

 13 12  0  0  1  0  0  0  0  0999 V2000
   -0.8261   -1.2170    0.0610 P   0  0  0  0  0  0  0  0  0  0  0  0
    0.8310    1.2243    0.0598 P   0  0  0  0  0  0  0  0  0  0  0  0
    0.0159   -0.0052    0.7177 O   0  0  0  0  0  0  0  0  0  0  0  0
   -2.1221   -0.4703   -0.5541 O   0  0  0  0  0  0  0  0  0  0  0  0
    2.1195    0.4880   -0.5839 O   0  0  0  0  0  0  0  0  0  0  0  0
   -0.0633   -2.0444   -0.9325 O   0  0  0  0  0  0  0  0  0  0  0  0
    0.0314    2.0588   -0.8972 O   0  0  0  0  0  0  0  0  0  0  0  0
   -1.4147   -2.1453    1.4624 C   0  0  0  0  0  0  0  0  0  0  0  0
    1.4730    2.1090    1.4646 C   0  0  0  0  0  0  0  0  0  0  0  0
   -2.8730    0.4444    0.2242 C   0  0  0  0  0  0  0  0  0  0  0  0
    2.8482   -0.4367    0.2041 C   0  0  0  0  0  0  0  0  0  0  0  0
   -4.0169    0.9793   -0.6108 C   0  0  0  0  0  0  0  0  0  0  0  0
    3.9972   -0.9848   -0.6152 C   0  0  0  0  0  0  0  0  0  0  0  0
  1  3  1  0
  1  4  1  0
  1  6  2  0
  1  8  1  0
  2  3  1  0
  2  5  1  0
  2  7  2  0
  2  9  1  0
  4 10  1  0
  5 11  1  0
 10 12  1  0
 11 13  1  0
M  END
>  <PUBCHEM_COMPOUND_CID>  (1) 
36101

>  <PUBCHEM_CONFORMER_RMSD>  (1) 
0.6

>  <PUBCHEM_CONFORMER_DIVERSEORDER>  (1) 
1
65
88
14
82
89
51
101
119
129
15
19
132
128
45
20
78
56
93
136
94
64
133
2
67
95
139
74
110
109
61
39
127
130
98
143
11
12
121
62
55
99
21
100
59
117
91
24
137
32
104
112
125
34
35
107
80
17
120
90
86
60
81
6
108
103
38
54
75
25
57
126
115
18
58
68
113
148
10
49
77
42
48
79
33
92
145
46
85
97
66
63
8
72
122
50
28
9
40
102
138
26
52
47
134
36
4
135
149
124
16
70
118
131
76
22
83
114
27
146
7
111
116
69
41
13
87
43
84
31
53
96
37
23
5
73
105
3
71
123
147
141
44
140
142
106
29
144
30

>  <PUBCHEM_MMFF94_PARTIAL_CHARGES>  (1) 
9
1 1.24
10 0.28
11 0.28
2 1.24
3 -0.54
4 -0.55
5 -0.55
6 -0.7
7 -0.7

>  <PUBCHEM_EFFECTIVE_ROTOR_COUNT>  (1) 
6

>  <PUBCHEM_PHARMACOPHORE_FEATURES>  (1) 
2
1 6 acceptor
1 7 acceptor

>  <PUBCHEM_HEAVY_ATOM_COUNT>  (1) 
13

>  <PUBCHEM_ATOM_DEF_STEREO_COUNT>  (1) 
0

>  <PUBCHEM_ATOM_UDEF_STEREO_COUNT>  (1) 
2

>  <PUBCHEM_BOND_DEF_STEREO_COUNT>  (1) 
0

>  <PUBCHEM_BOND_UDEF_STEREO_COUNT>  (1) 
0

>  <PUBCHEM_ISOTOPIC_ATOM_COUNT>  (1) 
0

>  <PUBCHEM_COMPONENT_COUNT>  (1) 
1

>  <PUBCHEM_CACTVS_TAUTO_COUNT>  (1) 
1

>  <PUBCHEM_CONFORMER_ID>  (1) 
00008D0500000001

>  <PUBCHEM_MMFF94_ENERGY>  (1) 
4.9799

>  <PUBCHEM_FEATURE_SELFOVERLAP>  (1) 
10.149

>  <PUBCHEM_SHAPE_FINGERPRINT>  (1) 
10130415 120 18409448072765927674
12932764 1 17770231753435024920
13549 16 18411138000262043278
14648413 74 18117563052738579652
18511873 20 18410856546754894358
19973954 147 17972883845488935345
20201158 50 18271248231393527838
20233049 118 18336542720639768164
20511035 2 18267589189528805261
20653085 51 18272083950588344667
207724 885 18186525422875926541
21028194 46 18411138078178077025
21069387 34 16774082881545204303
21524375 3 18409162195706311823
22713019 99 18343299236830038079
22802520 49 18264491856725708129
2748010 2 18266741470348181506
81228 2 18055935207586053208

>  <PUBCHEM_SHAPE_MULTIPOLES>  (1) 
245.89
5.68
2.37
1.19
0.11
0.03
0.35
-0.05
-1.42
0
0.49
-0.01
0.01
1.03

>  <PUBCHEM_SHAPE_SELFOVERLAP>  (1) 
422.739

>  <PUBCHEM_SHAPE_VOLUME>  (1) 
165.4

>  <PUBCHEM_COORDINATE_TYPE>  (1) 
2
5
10

$$$$
