36107
     RDKit          3D

 22 22  0  0  0  0  0  0  0  0999 V2000
    2.1955   -0.8780    2.6636 Cl  0  0  0  0  0  0  0  0  0  0  0  0
    4.6557   -0.6678   -2.1235 Cl  0  0  0  0  0  0  0  0  0  0  0  0
   -1.3437    2.3185   -0.0978 O   0  0  0  0  0  0  0  0  0  0  0  0
   -3.5943    0.6904    0.2802 O   0  0  0  0  0  0  0  0  0  0  0  0
   -0.0587   -2.0829    1.0814 O   0  0  0  0  0  0  0  0  0  0  0  0
   -4.0780   -0.7169   -1.4828 O   0  0  0  0  0  0  0  0  0  0  0  0
    0.8859    2.8094    0.6238 C   0  0  0  0  0  0  0  0  0  0  0  0
   -0.0177    2.5198   -0.5664 C   0  0  0  0  0  0  0  0  0  0  0  0
    2.3286    3.0526    0.1900 C   0  0  0  0  0  0  0  0  0  0  0  0
   -2.3920   -1.6636    1.4168 C   0  0  0  0  0  0  0  0  0  0  0  0
   -3.7688   -1.5949    0.7642 C   0  0  0  0  0  0  0  0  0  0  0  0
   -1.3090   -2.0208    0.4094 C   0  0  0  0  0  0  0  0  0  0  0  0
   -2.2386    2.0426   -1.1685 C   0  0  0  0  0  0  0  0  0  0  0  0
   -3.6281    1.8142   -0.6056 C   0  0  0  0  0  0  0  0  0  0  0  0
    3.2190    3.3839    1.3769 C   0  0  0  0  0  0  0  0  0  0  0  0
   -3.8391   -0.5226   -0.2990 C   0  0  0  0  0  0  0  0  0  0  0  0
    1.0526   -1.7460    0.3528 C   0  0  0  0  0  0  0  0  0  0  0  0
    2.1656   -1.1795    0.9652 C   0  0  0  0  0  0  0  0  0  0  0  0
    1.0437   -1.9827   -1.0181 C   0  0  0  0  0  0  0  0  0  0  0  0
    3.2820   -0.8460    0.1986 C   0  0  0  0  0  0  0  0  0  0  0  0
    2.1601   -1.6491   -1.7847 C   0  0  0  0  0  0  0  0  0  0  0  0
    3.2793   -1.0806   -1.1764 C   0  0  0  0  0  0  0  0  0  0  0  0
  1 18  1  0
  2 22  1  0
  3  8  1  0
  3 13  1  0
  4 14  1  0
  4 16  1  0
  5 12  1  0
  5 17  1  0
  6 16  2  0
  7  8  1  0
  7  9  1  0
  9 15  1  0
 10 11  1  0
 10 12  1  0
 11 16  1  0
 13 14  1  0
 17 18  2  0
 17 19  1  0
 18 20  1  0
 19 21  2  0
 20 22  2  0
 21 22  1  0
M  END
>  <PUBCHEM_COMPOUND_CID>  (1) 
36107

>  <PUBCHEM_CONFORMER_RMSD>  (1) 
1.2

>  <PUBCHEM_CONFORMER_DIVERSEORDER>  (1) 
1
198
76
204
12
85
2
88
179
158
139
39
32
53
214
117
163
166
142
150
187
114
50
106
168
167
3
203
62
49
146
200
190
131
6
155
135
119
148
162
70
128
153
197
136
206
177
20
4
186
191
57
217
84
157
36
71
202
17
169
212
218
77
37
161
149
81
26
185
28
195
109
165
92
156
124
48
145
120
193
58
104
143
68
144
99
205
108
9
201
95
159
10
174
154
111
23
130
103
216
18
127
125
194
129
61
105
112
102
16
8
126
7
5
118
178
30
171
29
147
43
122
192
52
113
133
176
170
210
66
69
213
13
35
24
82
31
96
91
67
55
33
41
151
138
207
215
172
44
97
27
38
63
34
173
211
110
182
101
14
141
184
54
15
80
83
164
116
180
56
65
25
115
19
60
134
208
181
199
98
21
152
160
196
74
73
42
209
132
123
51
90
93
79
87
75
140
183
46
189
188
100
59
45
137
72
11
107
89
64
94
78
22
121
40
86
175
47

>  <PUBCHEM_MMFF94_PARTIAL_CHARGES>  (1) 
21
1 -0.18
11 0.06
12 0.28
13 0.28
14 0.28
16 0.66
17 0.08
18 0.18
19 -0.15
2 -0.18
20 -0.15
21 -0.15
22 0.18
3 -0.56
4 -0.43
42 0.15
43 0.15
44 0.15
5 -0.36
6 -0.57
8 0.28

>  <PUBCHEM_EFFECTIVE_ROTOR_COUNT>  (1) 
12

>  <PUBCHEM_PHARMACOPHORE_FEATURES>  (1) 
5
1 15 hydrophobe
1 3 acceptor
1 5 acceptor
1 6 acceptor
6 17 18 19 20 21 22 rings

>  <PUBCHEM_HEAVY_ATOM_COUNT>  (1) 
22

>  <PUBCHEM_ATOM_DEF_STEREO_COUNT>  (1) 
0

>  <PUBCHEM_ATOM_UDEF_STEREO_COUNT>  (1) 
0

>  <PUBCHEM_BOND_DEF_STEREO_COUNT>  (1) 
0

>  <PUBCHEM_BOND_UDEF_STEREO_COUNT>  (1) 
0

>  <PUBCHEM_ISOTOPIC_ATOM_COUNT>  (1) 
0

>  <PUBCHEM_COMPONENT_COUNT>  (1) 
1

>  <PUBCHEM_CACTVS_TAUTO_COUNT>  (1) 
1

>  <PUBCHEM_CONFORMER_ID>  (1) 
00008D0B00000001

>  <PUBCHEM_MMFF94_ENERGY>  (1) 
37.3833

>  <PUBCHEM_FEATURE_SELFOVERLAP>  (1) 
25.373

>  <PUBCHEM_SHAPE_FINGERPRINT>  (1) 
10498660 4 18263928730984634743
10759866 29 17532100405786779250
11578080 2 16952219136948725772
12422481 6 18125415731300170248
12553582 1 18265893549731967221
12596599 1 18059853905412945057
12788726 201 18050573936711508849
13402501 40 18337957891078926268
14251757 17 18340216270946039328
15006816 218 18121218942017971401
15848702 105 18041858241793407982
17357779 13 18343309145177366318
20905425 154 18191585461296749849
21141583 151 18195253212948719942
238918 7 18053657264195855672
6287921 2 17845927519711581415
6823239 73 18341611495061105312
9862522 239 17837473516866970112

>  <PUBCHEM_SHAPE_MULTIPOLES>  (1) 
433.01
7.97
4.12
1.98
3.45
4.03
-0.34
-0.61
2.43
-1.45
-0.69
-1.76
-0.69
2.16

>  <PUBCHEM_SHAPE_SELFOVERLAP>  (1) 
843.275

>  <PUBCHEM_SHAPE_VOLUME>  (1) 
262.3

>  <PUBCHEM_COORDINATE_TYPE>  (1) 
2
5
10

$$$$
