36100
     RDKit          3D

 14 15  0  0  1  0  0  0  0  0999 V2000
    1.1472   -2.7906   -0.6324 O   0  0  0  0  0  0  0  0  0  0  0  0
    1.5548    1.2868    0.2282 C   0  0  0  0  0  0  0  0  0  0  0  0
    2.6378    0.3357    0.7600 C   0  0  0  0  0  0  0  0  0  0  0  0
    0.1949    0.6169    0.1503 C   0  0  0  0  0  0  0  0  0  0  0  0
    2.5923   -1.0072    0.0469 C   0  0  0  0  0  0  0  0  0  0  0  0
    1.2516   -1.7023    0.2835 C   0  0  0  0  0  0  0  0  0  0  0  0
    0.0559   -0.7860    0.1417 C   0  0  0  0  0  0  0  0  0  0  0  0
   -0.9549    1.4226    0.0703 C   0  0  0  0  0  0  0  0  0  0  0  0
    1.9447    1.8706   -1.1357 C   0  0  0  0  0  0  0  0  0  0  0  0
   -1.2340   -1.3429    0.0785 C   0  0  0  0  0  0  0  0  0  0  0  0
   -2.3642   -0.5299   -0.0033 C   0  0  0  0  0  0  0  0  0  0  0  0
   -2.2245    0.8530   -0.0089 C   0  0  0  0  0  0  0  0  0  0  0  0
   -0.8805    2.9175    0.0972 C   0  0  0  0  0  0  0  0  0  0  0  0
   -3.7210   -1.1443   -0.0761 C   0  0  0  0  0  0  0  0  0  0  0  0
  1  6  1  0
  2  3  1  0
  2  4  1  0
  2  9  1  0
  3  5  1  0
  4  7  2  0
  4  8  1  0
  5  6  1  0
  6  7  1  0
  7 10  1  0
  8 12  2  0
  8 13  1  0
 10 11  2  0
 11 12  1  0
 11 14  1  0
M  END
>  <PUBCHEM_COMPOUND_CID>  (1) 
36100

>  <PUBCHEM_CONFORMER_RMSD>  (1) 
0.4

>  <PUBCHEM_CONFORMER_DIVERSEORDER>  (1) 
2
1
4
3

>  <PUBCHEM_MMFF94_PARTIAL_CHARGES>  (1) 
14
1 -0.68
10 -0.15
11 -0.14
12 -0.15
13 0.14
14 0.14
2 0.14
24 0.15
25 0.15
29 0.4
4 -0.14
6 0.42
7 -0.14
8 -0.14

>  <PUBCHEM_EFFECTIVE_ROTOR_COUNT>  (1) 
0.8

>  <PUBCHEM_PHARMACOPHORE_FEATURES>  (1) 
4
1 1 acceptor
1 1 donor
6 2 3 4 5 6 7 rings
6 4 7 8 10 11 12 rings

>  <PUBCHEM_HEAVY_ATOM_COUNT>  (1) 
14

>  <PUBCHEM_ATOM_DEF_STEREO_COUNT>  (1) 
0

>  <PUBCHEM_ATOM_UDEF_STEREO_COUNT>  (1) 
2

>  <PUBCHEM_BOND_DEF_STEREO_COUNT>  (1) 
0

>  <PUBCHEM_BOND_UDEF_STEREO_COUNT>  (1) 
0

>  <PUBCHEM_ISOTOPIC_ATOM_COUNT>  (1) 
0

>  <PUBCHEM_COMPONENT_COUNT>  (1) 
1

>  <PUBCHEM_CACTVS_TAUTO_COUNT>  (1) 
1

>  <PUBCHEM_CONFORMER_ID>  (1) 
00008D0400000002

>  <PUBCHEM_MMFF94_ENERGY>  (1) 
37.0787

>  <PUBCHEM_FEATURE_SELFOVERLAP>  (1) 
20.318

>  <PUBCHEM_SHAPE_FINGERPRINT>  (1) 
10967382 1 18266457796416819627
11471102 20 18337946909169056959
11680986 33 18195805159322438379
12423570 1 15898992894653945908
12524768 44 18051408461725744498
12696612 119 18335423417828786666
13140716 1 18337672026323554883
13380535 220 18049449136378980444
14251717 144 18267577091133868783
15001771 113 18340211777993418881
15490181 7 17183912908778734833
16945 1 18339359647844251216
17990270 104 18337953381141660954
193761 8 18195245520746740673
19973954 147 18267021661177162995
20201158 50 18408036321173848475
20511035 2 17984411941185267149
20588541 1 18262800812516989923
20645476 183 17317613424053374644
20645477 70 18336540621039278407
21501502 16 18338801091615974032
22721475 48 18337677420791987202
22802520 49 17696476178378813926
2334 1 18194120952142460347
23388829 49 18411408535978162893
23402539 116 18055630874624646604
23419403 2 15959120318988919345
23463225 33 18335979852211298985
23552423 10 18334579018626221451
23559900 14 17262436203126719750
241688 4 17903358104564998112
2748010 2 18266457796353516080
2897 32 18409167671293702996
5084963 1 18343866601972935880
528886 8 18267017443477171442
589210 1 18267586797306056065
7364860 26 18342177778104034532
81228 2 18191589644864012537

>  <PUBCHEM_SHAPE_MULTIPOLES>  (1) 
282.24
4.26
2.82
0.78
2.04
0.46
0.08
-0.98
0.01
-0.43
0.36
-0.32
0.11
-0.22

>  <PUBCHEM_SHAPE_SELFOVERLAP>  (1) 
595.14

>  <PUBCHEM_SHAPE_VOLUME>  (1) 
159.9

>  <PUBCHEM_COORDINATE_TYPE>  (1) 
2
5
10

$$$$
