36110
     RDKit          3D

 19 22  0  0  0  0  0  0  0  0999 V2000
   -1.5357    2.1982    0.0001 S   0  0  0  0  0  0  0  0  0  0  0  0
   -0.5378   -0.1762    0.0004 C   0  0  0  0  0  0  0  0  0  0  0  0
   -0.1654    1.1661    0.0004 C   0  0  0  0  0  0  0  0  0  0  0  0
    0.4977   -1.1476    0.0003 C   0  0  0  0  0  0  0  0  0  0  0  0
    1.1879    1.5617    0.0003 C   0  0  0  0  0  0  0  0  0  0  0  0
    1.8543   -0.7767    0.0001 C   0  0  0  0  0  0  0  0  0  0  0  0
    2.1989    0.5875    0.0001 C   0  0  0  0  0  0  0  0  0  0  0  0
   -1.9800   -0.3395    0.0002 C   0  0  0  0  0  0  0  0  0  0  0  0
   -2.6431    0.8885    0.0000 C   0  0  0  0  0  0  0  0  0  0  0  0
    0.1676   -2.6157    0.0005 C   0  0  0  0  0  0  0  0  0  0  0  0
    2.8735   -1.7438   -0.0001 C   0  0  0  0  0  0  0  0  0  0  0  0
    1.5423    3.0213    0.0001 C   0  0  0  0  0  0  0  0  0  0  0  0
    3.5554    0.9526   -0.0002 C   0  0  0  0  0  0  0  0  0  0  0  0
   -2.7725   -1.5173    0.0002 C   0  0  0  0  0  0  0  0  0  0  0  0
   -4.0502    0.9718   -0.0004 C   0  0  0  0  0  0  0  0  0  0  0  0
    4.2162   -1.3663   -0.0005 C   0  0  0  0  0  0  0  0  0  0  0  0
    4.5571   -0.0183   -0.0005 C   0  0  0  0  0  0  0  0  0  0  0  0
   -4.1677   -1.4401   -0.0002 C   0  0  0  0  0  0  0  0  0  0  0  0
   -4.7986   -0.2059   -0.0006 C   0  0  0  0  0  0  0  0  0  0  0  0
  1  3  1  0
  1  9  1  0
  2  3  2  0
  2  4  1  0
  2  8  1  0
  3  5  1  0
  4  6  2  0
  4 10  1  0
  5  7  2  0
  5 12  1  0
  6  7  1  0
  6 11  1  0
  7 13  1  0
  8  9  2  0
  8 14  1  0
  9 15  1  0
 11 16  2  0
 13 17  2  0
 14 18  2  0
 15 19  2  0
 16 17  1  0
 18 19  1  0
M  END
>  <PUBCHEM_COMPOUND_CID>  (1) 
36110

>  <PUBCHEM_CONFORMER_RMSD>  (1) 
0.4

>  <PUBCHEM_CONFORMER_DIVERSEORDER>  (1) 
1

>  <PUBCHEM_MMFF94_PARTIAL_CHARGES>  (1) 
23
1 -0.08
10 0.14
11 -0.15
12 0.14
13 -0.15
14 -0.15
15 -0.15
16 -0.15
17 -0.15
18 -0.15
19 -0.15
23 0.15
27 0.15
28 0.15
29 0.15
3 0.04
30 0.15
31 0.15
32 0.15
33 0.15
4 -0.14
5 -0.14
9 0.04

>  <PUBCHEM_EFFECTIVE_ROTOR_COUNT>  (1) 
0

>  <PUBCHEM_PHARMACOPHORE_FEATURES>  (1) 
4
5 1 2 3 8 9 rings
6 2 3 4 5 6 7 rings
6 6 7 11 13 16 17 rings
6 8 9 14 15 18 19 rings

>  <PUBCHEM_HEAVY_ATOM_COUNT>  (1) 
19

>  <PUBCHEM_ATOM_DEF_STEREO_COUNT>  (1) 
0

>  <PUBCHEM_ATOM_UDEF_STEREO_COUNT>  (1) 
0

>  <PUBCHEM_BOND_DEF_STEREO_COUNT>  (1) 
0

>  <PUBCHEM_BOND_UDEF_STEREO_COUNT>  (1) 
0

>  <PUBCHEM_ISOTOPIC_ATOM_COUNT>  (1) 
0

>  <PUBCHEM_COMPONENT_COUNT>  (1) 
1

>  <PUBCHEM_CACTVS_TAUTO_COUNT>  (1) 
1

>  <PUBCHEM_CONFORMER_ID>  (1) 
00008D0E00000001

>  <PUBCHEM_MMFF94_ENERGY>  (1) 
71.7493

>  <PUBCHEM_FEATURE_SELFOVERLAP>  (1) 
20.438

>  <PUBCHEM_SHAPE_FINGERPRINT>  (1) 
10062212 137 18411694392048641599
10616163 171 18411983524983748047
10967382 1 18410575110527847718
11132069 177 18410289190196682338
11471102 20 18410289220250903869
11680986 33 18118971527133358234
11806522 49 18409448093839830900
12011746 2 18410014338355045334
12032990 46 18411984620305565766
12236239 1 17847062203496476567
12403259 226 18409161121432049661
12553582 1 18337381652369928219
13140716 1 17978220892368570376
13221675 6 18410854356448290735
13583140 156 14333120828523090175
138480 1 18338517555050569877
13862211 1 18410568479119909418
14115302 16 17822020829777970094
14178342 30 18196646303066777464
14790565 3 18265624349751014452
15196674 1 18410575080368111619
15209289 33 18409449197905135771
15442244 35 18411702045527336873
15536298 74 18342738541681816360
16945 1 18338517572651639684
17357779 13 18114726192822621597
17492 89 18339360893586104047
17804303 29 18411421708769681189
1813 80 17385725793987305900
18186145 218 17676479579853478347
19141452 34 18343022199061141119
19591789 44 18339079281264943758
200 152 18130782365691963335
20028762 73 18129939100087660119
20261772 1 18131348639396651815
20510252 161 18272088258134730560
20645477 70 18335978783123157855
21029758 11 18412824681179945777
21267235 1 18411146817824984335
21421861 104 17753611239301236379
221490 88 18263650726193806179
2334 1 18410855430517090860
23366157 5 18041558177903328092
23402539 116 18342167865330324982
23463225 33 18409730659738286748
23557571 272 18129388098958978860
23559900 14 18412538834105979856
2748010 2 18339355263120582892
2871803 45 18335416842170695903
3004659 81 18187086114467944950
335352 9 18338516327169185541
34934 24 18265609897348755535
350125 39 18410015454967914405
3886686 26 16748993942646658690
4214541 1 18410856525660093189
5104073 3 18411699876563351153
7364860 26 18268991050033566144
8809292 202 18260834808369791939
9709674 26 18337113474675516331
9981440 41 17473257060145431712

>  <PUBCHEM_SHAPE_MULTIPOLES>  (1) 
394.86
8.45
2.7
0.62
1.75
0.64
0
-1.86
0
-0.53
0
0.01
0.01
0

>  <PUBCHEM_SHAPE_SELFOVERLAP>  (1) 
887.958

>  <PUBCHEM_SHAPE_VOLUME>  (1) 
209.6

>  <PUBCHEM_COORDINATE_TYPE>  (1) 
2
5
10

$$$$
