36114
     RDKit          3D

 23 27  0  0  1  0  0  0  0  0999 V2000
   -1.2759   -0.0079   -1.0240 C   0  0  0  0  0  0  0  0  0  0  0  0
    0.0903    0.6219   -0.7907 C   0  0  0  0  0  0  0  0  0  0  0  0
    1.0123   -0.3149   -0.2474 C   0  0  0  0  0  0  0  0  0  0  0  0
   -1.0314   -1.4324   -0.5595 C   0  0  0  0  0  0  0  0  0  0  0  0
    0.3033   -1.5941   -0.1113 C   0  0  0  0  0  0  0  0  0  0  0  0
    2.3365    0.0973    0.0406 C   0  0  0  0  0  0  0  0  0  0  0  0
   -2.3579    0.6685   -0.2511 C   0  0  0  0  0  0  0  0  0  0  0  0
    0.4392    1.9296   -1.0783 C   0  0  0  0  0  0  0  0  0  0  0  0
    2.6829    1.4503   -0.2506 C   0  0  0  0  0  0  0  0  0  0  0  0
   -1.9470   -2.4778   -0.5746 C   0  0  0  0  0  0  0  0  0  0  0  0
    0.6992   -2.8452    0.3400 C   0  0  0  0  0  0  0  0  0  0  0  0
    1.7381    2.3358   -0.8032 C   0  0  0  0  0  0  0  0  0  0  0  0
    3.3519   -0.7171    0.5954 C   0  0  0  0  0  0  0  0  0  0  0  0
   -3.4642    1.1966   -0.9165 C   0  0  0  0  0  0  0  0  0  0  0  0
   -2.2631    0.7723    1.1365 C   0  0  0  0  0  0  0  0  0  0  0  0
   -1.5315   -3.7231   -0.1158 C   0  0  0  0  0  0  0  0  0  0  0  0
   -0.2202   -3.9039    0.3386 C   0  0  0  0  0  0  0  0  0  0  0  0
    3.9805    1.9204    0.0100 C   0  0  0  0  0  0  0  0  0  0  0  0
    4.6376   -0.2300    0.8479 C   0  0  0  0  0  0  0  0  0  0  0  0
    4.9522    1.0875    0.5551 C   0  0  0  0  0  0  0  0  0  0  0  0
   -4.4760    1.8288   -0.1939 C   0  0  0  0  0  0  0  0  0  0  0  0
   -3.2751    1.4045    1.8591 C   0  0  0  0  0  0  0  0  0  0  0  0
   -4.3815    1.9327    1.1937 C   0  0  0  0  0  0  0  0  0  0  0  0
  1  2  1  0
  1  4  1  0
  1  7  1  0
  2  3  1  0
  2  8  2  0
  3  5  1  0
  3  6  2  0
  4  5  2  0
  4 10  1  0
  5 11  1  0
  6  9  1  0
  6 13  1  0
  7 14  2  0
  7 15  1  0
  8 12  1  0
  9 12  2  0
  9 18  1  0
 10 16  2  0
 11 17  2  0
 13 19  2  0
 14 21  1  0
 15 22  2  0
 16 17  1  0
 18 20  2  0
 19 20  1  0
 21 23  2  0
 22 23  1  0
M  END
>  <PUBCHEM_COMPOUND_CID>  (1) 
36114

>  <PUBCHEM_CONFORMER_RMSD>  (1) 
0.6

>  <PUBCHEM_CONFORMER_DIVERSEORDER>  (1) 
1
2

>  <PUBCHEM_MMFF94_PARTIAL_CHARGES>  (1) 
34
1 0.43
10 -0.15
11 -0.15
12 -0.15
13 -0.15
14 -0.15
15 -0.15
16 -0.15
17 -0.15
18 -0.15
19 -0.15
2 -0.14
20 -0.15
21 -0.15
22 -0.15
23 -0.15
25 0.15
26 0.15
27 0.15
28 0.15
29 0.15
30 0.15
31 0.15
32 0.15
33 0.15
34 0.15
35 0.15
36 0.15
37 0.15
38 0.15
39 0.15
4 -0.14
7 -0.14
8 -0.15

>  <PUBCHEM_EFFECTIVE_ROTOR_COUNT>  (1) 
1.2

>  <PUBCHEM_PHARMACOPHORE_FEATURES>  (1) 
5
5 1 2 3 4 5 rings
6 2 3 6 8 9 12 rings
6 4 5 10 11 16 17 rings
6 6 9 13 18 19 20 rings
6 7 14 15 21 22 23 rings

>  <PUBCHEM_HEAVY_ATOM_COUNT>  (1) 
23

>  <PUBCHEM_ATOM_DEF_STEREO_COUNT>  (1) 
0

>  <PUBCHEM_ATOM_UDEF_STEREO_COUNT>  (1) 
1

>  <PUBCHEM_BOND_DEF_STEREO_COUNT>  (1) 
0

>  <PUBCHEM_BOND_UDEF_STEREO_COUNT>  (1) 
0

>  <PUBCHEM_ISOTOPIC_ATOM_COUNT>  (1) 
0

>  <PUBCHEM_COMPONENT_COUNT>  (1) 
1

>  <PUBCHEM_CACTVS_TAUTO_COUNT>  (1) 
1

>  <PUBCHEM_CONFORMER_ID>  (1) 
00008D1200000001

>  <PUBCHEM_MMFF94_ENERGY>  (1) 
84.7286

>  <PUBCHEM_FEATURE_SELFOVERLAP>  (1) 
25.553

>  <PUBCHEM_SHAPE_FINGERPRINT>  (1) 
10382601 240 18194689154920149027
10493431 412 18410853252520259408
10967382 1 18263913355075743502
1100329 8 18410852192069993504
11370993 70 18411700959127321633
11578080 2 16339250277913479022
11640471 11 17773882991497255689
11725454 13 16879601827711218301
12236239 1 17845363376395932109
12390115 104 18340780328895287524
12592029 89 18335984160490810273
12633257 1 18337658755697458242
12788726 201 18052265286427108687
13004483 165 17834114525971463219
13140716 1 18336544915463385370
13540713 5 17970906894119050364
13583140 156 16588288476362801772
138480 1 17473538054016778119
14081887 123 17693080173865879624
14178342 30 18120358020556227632
14787075 74 18130782413084381039
14790565 3 18264779770402442212
14866123 147 18408878543002373338
15309172 13 18408322159620963069
15420108 30 18197770004029342399
15475509 84 17035033507336282507
16945 1 18337112241760965541
17138139 8 17842239780015286343
17868525 174 16967746741553943203
19591789 44 17977945679528264038
20157964 124 18194399980017266021
204376 136 18411139108627434097
20510252 161 18124874817969232547
20739085 24 18117571634473796308
20775438 99 15535264560876727199
21033648 29 18339343189678312152
21524375 3 18201998802969386237
21731228 192 18409174307028828883
23184049 59 18334296431385207204
23419403 2 17268681647566460071
23558518 356 18045220698353209690
23559900 14 18201725055335069556
23569917 315 18341608192342875687
25147074 1 17898292951328989332
283562 15 18122617520571495843
3091708 16 9194095890756631335
335352 9 18409722929646512854
350125 39 18265615557904609613
392239 28 18129676300197282507
4340502 62 18270412607484290697
474 4 18341331072514626529
5104073 3 18264754619490136520
58807428 26 18409450249939962763
633830 44 18059018267738156453
6992083 37 18188207718668890100
81228 2 17834978720756877719
9981440 41 16552514942203837088

>  <PUBCHEM_SHAPE_MULTIPOLES>  (1) 
473.33
8.1
3.95
1.18
3.1
4.63
-0.27
-6.59
-2.7
-1.65
0.01
-0.78
-0.51
-1.04

>  <PUBCHEM_SHAPE_SELFOVERLAP>  (1) 
1087.239

>  <PUBCHEM_SHAPE_VOLUME>  (1) 
226.2

>  <PUBCHEM_COORDINATE_TYPE>  (1) 
2
5
10

$$$$
