36113
     RDKit          3D

 21 24  0  0  1  0  0  0  0  0999 V2000
   -4.6757    0.2457    1.1115 N   0  0  0  0  0  0  0  0  0  0  0  0
    0.8408   -0.0297   -1.0282 C   0  0  0  0  0  0  0  0  0  0  0  0
   -0.2061    1.0349   -0.7110 C   0  0  0  0  0  0  0  0  0  0  0  0
    0.1074   -1.3060   -0.6242 C   0  0  0  0  0  0  0  0  0  0  0  0
   -1.3791    0.4344   -0.1988 C   0  0  0  0  0  0  0  0  0  0  0  0
   -1.1870   -0.9993   -0.1457 C   0  0  0  0  0  0  0  0  0  0  0  0
    2.1061    0.1680   -0.2651 C   0  0  0  0  0  0  0  0  0  0  0  0
   -0.1163    2.4063   -0.8881 C   0  0  0  0  0  0  0  0  0  0  0  0
    0.5562   -2.6148   -0.7019 C   0  0  0  0  0  0  0  0  0  0  0  0
   -2.4703    1.2113    0.1543 C   0  0  0  0  0  0  0  0  0  0  0  0
   -2.0390   -2.0079    0.2737 C   0  0  0  0  0  0  0  0  0  0  0  0
    3.3169    0.3058   -0.9447 C   0  0  0  0  0  0  0  0  0  0  0  0
    2.0805    0.2160    1.1291 C   0  0  0  0  0  0  0  0  0  0  0  0
   -1.2165    3.1877   -0.5313 C   0  0  0  0  0  0  0  0  0  0  0  0
   -2.3812    2.5963   -0.0140 C   0  0  0  0  0  0  0  0  0  0  0  0
   -0.3032   -3.6297   -0.2784 C   0  0  0  0  0  0  0  0  0  0  0  0
   -1.5875   -3.3293    0.2058 C   0  0  0  0  0  0  0  0  0  0  0  0
    4.5009    0.4910   -0.2308 C   0  0  0  0  0  0  0  0  0  0  0  0
    3.2645    0.4014    1.8429 C   0  0  0  0  0  0  0  0  0  0  0  0
    4.4746    0.5390    1.1628 C   0  0  0  0  0  0  0  0  0  0  0  0
   -3.6862    0.6789    0.6821 C   0  0  0  0  0  0  0  0  0  0  0  0
  1 21  3  0
  2  3  1  0
  2  4  1  0
  2  7  1  0
  3  5  1  0
  3  8  2  0
  4  6  2  0
  4  9  1  0
  5  6  1  0
  5 10  2  0
  6 11  1  0
  7 12  2  0
  7 13  1  0
  8 14  1  0
  9 16  2  0
 10 15  1  0
 10 21  1  0
 11 17  2  0
 12 18  1  0
 13 19  2  0
 14 15  2  0
 16 17  1  0
 18 20  2  0
 19 20  1  0
M  END
>  <PUBCHEM_COMPOUND_CID>  (1) 
36113

>  <PUBCHEM_CONFORMER_RMSD>  (1) 
0.6

>  <PUBCHEM_CONFORMER_DIVERSEORDER>  (1) 
2
1

>  <PUBCHEM_MMFF94_PARTIAL_CHARGES>  (1) 
31
1 -0.56
10 0.07
11 -0.15
12 -0.15
13 -0.15
14 -0.15
15 -0.15
16 -0.15
17 -0.15
18 -0.15
19 -0.15
2 0.43
20 -0.15
21 0.48
23 0.15
24 0.15
25 0.15
26 0.15
27 0.15
28 0.15
29 0.15
3 -0.14
30 0.15
31 0.15
32 0.15
33 0.15
34 0.15
4 -0.14
7 -0.14
8 -0.15
9 -0.15

>  <PUBCHEM_EFFECTIVE_ROTOR_COUNT>  (1) 
1.2

>  <PUBCHEM_PHARMACOPHORE_FEATURES>  (1) 
5
1 1 acceptor
5 2 3 4 5 6 rings
6 3 5 8 10 14 15 rings
6 4 6 9 11 16 17 rings
6 7 12 13 18 19 20 rings

>  <PUBCHEM_HEAVY_ATOM_COUNT>  (1) 
21

>  <PUBCHEM_ATOM_DEF_STEREO_COUNT>  (1) 
0

>  <PUBCHEM_ATOM_UDEF_STEREO_COUNT>  (1) 
1

>  <PUBCHEM_BOND_DEF_STEREO_COUNT>  (1) 
0

>  <PUBCHEM_BOND_UDEF_STEREO_COUNT>  (1) 
0

>  <PUBCHEM_ISOTOPIC_ATOM_COUNT>  (1) 
0

>  <PUBCHEM_COMPONENT_COUNT>  (1) 
1

>  <PUBCHEM_CACTVS_TAUTO_COUNT>  (1) 
1

>  <PUBCHEM_CONFORMER_ID>  (1) 
00008D1100000002

>  <PUBCHEM_MMFF94_ENERGY>  (1) 
68.7274

>  <PUBCHEM_FEATURE_SELFOVERLAP>  (1) 
25.533

>  <PUBCHEM_SHAPE_FINGERPRINT>  (1) 
10165383 225 18272382935972803840
10319926 262 18198038431723518856
10369192 42 16409286042859364224
10906281 52 18115606850577266953
10967382 1 18337406967260546903
1100329 8 14810774445232842736
12236239 1 17530971280633732628
12553582 1 17977107086989926054
12633257 1 18272639178074692712
12788726 201 18117001198371097146
12930653 34 18194688060115432229
13140716 1 18266185122186989561
13538477 17 18187357766453347692
13583140 156 16805316712782533077
13878862 14 17114658519932682537
14178342 30 18193008015048966481
14223421 5 18049446933387922053
14787075 74 17846208990857951209
14790565 3 18265918937273604813
14863182 85 18191894282900160847
15042514 8 18336270140456093866
15230672 131 18265614274797059086
15295992 7 17561073739974865296
15309172 13 18410569548582441020
15375462 189 17676485094407117144
16110190 28 17829299430316448594
16945 1 18409163307485721621
19591789 44 18194410978594678158
19784866 170 18337680694058570905
20028762 73 18129107904279070951
20261772 1 18335708259928027848
20510252 161 18342179908044453265
20600515 1 18269284619458685101
21344244 78 17189810680619136091
21524375 3 18128810859227519998
21650355 55 18193262203781252298
21731228 192 18267850706108970010
22112679 90 18116716411879292052
22149856 69 17759263808287659049
22182313 1 18118131260407042517
22224240 67 18344146990845348689
22956985 138 17826233986838473723
23184049 29 17905324383358267342
2334 1 17906183093819091869
23402539 116 18342166813184592007
23419403 2 17127937583420789462
23557571 272 18127137587968181484
23559900 14 17830180108194463661
2748010 2 18047200644117459253
350125 39 18122633746999456134
352729 6 18337966682850263445
394222 165 17243900948920353389
427121 178 18129677313192580275
43471831 8 18263929830343268567
465052 167 17750250226135113329
484985 159 14566149025175180336
495365 180 17763447431895772901
5265222 85 18341061813401196598
5845 1 9784885551644404142
58807428 26 18410576167185268099
6442390 28 18342464698735273186
7097593 13 18115567272442429226
7364860 26 17547567085229804853
7471813 234 17624121012280560863
81228 2 18125419046281458534
84936 182 17768527188210719712
90316 7 18261944245482372396

>  <PUBCHEM_SHAPE_MULTIPOLES>  (1) 
427.19
6.65
3.73
1.2
3.84
2.17
-0.32
-2.47
-2.91
-3.02
0.74
0.76
-0.19
0.27

>  <PUBCHEM_SHAPE_SELFOVERLAP>  (1) 
969.389

>  <PUBCHEM_SHAPE_VOLUME>  (1) 
222

>  <PUBCHEM_COORDINATE_TYPE>  (1) 
2
5
10

$$$$
