36125
     RDKit          3D

 20 21  0  0  1  0  0  0  0  0999 V2000
   -1.9446    5.2168    0.1594 Cl  0  0  0  0  0  0  0  0  0  0  0  0
    1.9553    0.0198   -1.0524 O   0  0  0  0  0  0  0  0  0  0  0  0
   -1.3778    1.2346   -0.0520 N   0  0  0  0  0  0  0  0  0  0  0  0
   -0.3829    0.4370   -0.7679 C   0  0  0  0  0  0  0  0  0  0  0  0
   -2.7297    0.8246   -0.4299 C   0  0  0  0  0  0  0  0  0  0  0  0
   -1.1816    2.6586   -0.3214 C   0  0  0  0  0  0  0  0  0  0  0  0
    1.0242    0.8295   -0.3464 C   0  0  0  0  0  0  0  0  0  0  0  0
   -2.9866   -0.6240   -0.1097 C   0  0  0  0  0  0  0  0  0  0  0  0
   -2.1639    3.4829    0.4962 C   0  0  0  0  0  0  0  0  0  0  0  0
   -2.7024   -1.5949   -1.0600 C   0  0  0  0  0  0  0  0  0  0  0  0
   -3.5045   -0.9682    1.1311 C   0  0  0  0  0  0  0  0  0  0  0  0
   -2.9408   -2.9369   -0.7636 C   0  0  0  0  0  0  0  0  0  0  0  0
   -3.7428   -2.3102    1.4276 C   0  0  0  0  0  0  0  0  0  0  0  0
    3.1484   -0.2366   -0.4289 C   0  0  0  0  0  0  0  0  0  0  0  0
   -3.4610   -3.2946    0.4802 C   0  0  0  0  0  0  0  0  0  0  0  0
    3.6781    0.6974    0.4540 C   0  0  0  0  0  0  0  0  0  0  0  0
    3.8172   -1.4279   -0.6863 C   0  0  0  0  0  0  0  0  0  0  0  0
    4.8932    0.4369    1.0879 C   0  0  0  0  0  0  0  0  0  0  0  0
    5.0321   -1.6885   -0.0524 C   0  0  0  0  0  0  0  0  0  0  0  0
    5.5701   -0.7560    0.8346 C   0  0  0  0  0  0  0  0  0  0  0  0
  1  9  1  0
  2  7  1  0
  2 14  1  0
  3  4  1  0
  3  5  1  0
  3  6  1  0
  4  7  1  0
  5  8  1  0
  6  9  1  0
  8 10  2  0
  8 11  1  0
 10 12  1  0
 11 13  2  0
 12 15  2  0
 13 15  1  0
 14 16  2  0
 14 17  1  0
 16 18  1  0
 17 19  2  0
 18 20  2  0
 19 20  1  0
M  END
>  <PUBCHEM_COMPOUND_CID>  (1) 
36125

>  <PUBCHEM_CONFORMER_RMSD>  (1) 
0.8

>  <PUBCHEM_CONFORMER_DIVERSEORDER>  (1) 
1
56
17
103
14
30
109
79
50
70
99
85
130
116
61
16
75
106
86
110
119
12
128
28
98
63
97
60
15
121
53
83
107
123
105
81
24
95
52
80
89
136
78
113
118
112
67
59
96
122
35
87
18
21
33
38
91
6
2
137
23
68
101
27
31
139
29
71
93
82
11
51
74
84
19
76
77
108
43
9
104
3
42
125
92
7
39
47
49
36
90
13
45
138
26
57
44
73
34
100
117
69
48
54
66
134
102
4
32
25
5
20
58
46
120
41
111
22
133
64
127
94
72
129
131
55
114
126
135
37
132
124
65
115
40
62
88
10
8

>  <PUBCHEM_MMFF94_PARTIAL_CHARGES>  (1) 
30
1 -0.29
10 -0.15
11 -0.15
12 -0.15
13 -0.15
14 0.08
15 -0.15
16 -0.15
17 -0.15
18 -0.15
19 -0.15
2 -0.36
20 -0.15
3 -0.81
31 0.15
32 0.15
33 0.15
34 0.15
35 0.15
36 0.15
37 0.15
38 0.15
39 0.15
4 0.27
40 0.15
5 0.41
6 0.27
7 0.28
8 -0.14
9 0.29

>  <PUBCHEM_EFFECTIVE_ROTOR_COUNT>  (1) 
8

>  <PUBCHEM_PHARMACOPHORE_FEATURES>  (1) 
4
1 2 acceptor
1 3 cation
6 14 16 17 18 19 20 rings
6 8 10 11 12 13 15 rings

>  <PUBCHEM_HEAVY_ATOM_COUNT>  (1) 
20

>  <PUBCHEM_ATOM_DEF_STEREO_COUNT>  (1) 
0

>  <PUBCHEM_ATOM_UDEF_STEREO_COUNT>  (1) 
0

>  <PUBCHEM_BOND_DEF_STEREO_COUNT>  (1) 
0

>  <PUBCHEM_BOND_UDEF_STEREO_COUNT>  (1) 
0

>  <PUBCHEM_ISOTOPIC_ATOM_COUNT>  (1) 
0

>  <PUBCHEM_COMPONENT_COUNT>  (1) 
1

>  <PUBCHEM_CACTVS_TAUTO_COUNT>  (1) 
1

>  <PUBCHEM_CONFORMER_ID>  (1) 
00008D1D00000001

>  <PUBCHEM_MMFF94_ENERGY>  (1) 
61.2307

>  <PUBCHEM_FEATURE_SELFOVERLAP>  (1) 
20.297

>  <PUBCHEM_SHAPE_FINGERPRINT>  (1) 
11036077 51 18122341281433758009
11056379 131 18339091410378870308
11357001 24 18410862031829246309
11370993 144 17560532702575783650
11552529 35 18336820918867493052
12293681 160 18051947283381715549
12363563 72 18262806301174243583
12523318 42 18339630149638424578
12553582 1 18196668486435613895
12633257 1 17060064803626272723
12788726 201 18262820530353208156
12969540 37 17470448899042363751
13004483 165 18411143571351837689
13140716 1 18410298055426341293
13544653 18 18263641925642266966
13583140 156 17916855847200268580
13955234 65 17402061488119143947
14178342 30 18263930951493126924
1420 369 18261113027645591762
14565420 104 17337044689647115905
14844126 61 18409726249097102467
15042514 8 18409174298961224561
15475509 35 16960164444954606499
15842332 3 17824289079696552076
17349148 13 17385441033946241042
17780758 139 18335130978069783090
18927931 339 18411700989229334358
193927 3 17895481435049946018
21065198 57 18268988696770990684
21065199 12 18272082769741207490
21650355 55 18411702114679330317
21796203 349 17685811250644179154
23366157 5 17544484506278004301
23559900 14 18410566289140100268
312423 11 18114195137539030524
4015057 19 18128795578156452093
4073 2 18338796694587873346
5104073 3 18341040810683558490
5364581 5 18270945943506864096
59755656 520 18048874091750856725
6371380 46 17475798650419195662
79837 15 18051983515134870281
90316 7 18341626944427461229
9709674 26 18199749150729163006

>  <PUBCHEM_SHAPE_MULTIPOLES>  (1) 
402.61
11.06
5.03
1.12
16.56
6.55
0.15
-7.36
2.99
-8.25
0.55
-0.25
-0.46
0.61

>  <PUBCHEM_SHAPE_SELFOVERLAP>  (1) 
825.701

>  <PUBCHEM_SHAPE_VOLUME>  (1) 
233

>  <PUBCHEM_COORDINATE_TYPE>  (1) 
2
5
10

$$$$
