36128
     RDKit          3D

 14 15  0  0  1  0  0  0  0  0999 V2000
    3.1054    0.1554    1.1197 O   0  0  0  0  0  0  0  0  0  0  0  0
   -1.5192   -0.1794    0.2198 N   0  0  0  0  0  0  0  0  0  0  0  0
    2.7742    0.3161   -1.0869 N   0  0  0  0  0  0  0  0  0  0  0  0
    4.1230    0.1025   -0.8718 N   0  0  0  0  0  0  0  0  0  0  0  0
   -0.1443   -0.4772   -0.1808 C   0  0  0  0  0  0  0  0  0  0  0  0
   -1.8927    1.1798   -0.1963 C   0  0  0  0  0  0  0  0  0  0  0  0
   -2.4440   -1.1777   -0.3350 C   0  0  0  0  0  0  0  0  0  0  0  0
   -3.3116    1.5254    0.2581 C   0  0  0  0  0  0  0  0  0  0  0  0
   -3.8810   -0.9092    0.1150 C   0  0  0  0  0  0  0  0  0  0  0  0
   -4.3216    0.5034   -0.2512 C   0  0  0  0  0  0  0  0  0  0  0  0
    0.8134    0.5331    0.4769 C   0  0  0  0  0  0  0  0  0  0  0  0
    0.1686   -1.9214    0.2108 C   0  0  0  0  0  0  0  0  0  0  0  0
    2.2598    0.3340    0.0920 C   0  0  0  0  0  0  0  0  0  0  0  0
    4.2701    0.0152    0.4296 C   0  0  0  0  0  0  0  0  0  0  0  0
  1 13  1  0
  1 14  1  0
  2  5  1  0
  2  6  1  0
  2  7  1  0
  3  4  1  0
  3 13  2  0
  4 14  2  0
  5 11  1  0
  5 12  1  0
  6  8  1  0
  7  9  1  0
  8 10  1  0
  9 10  1  0
 11 13  1  0
M  END
>  <PUBCHEM_COMPOUND_CID>  (1) 
36128

>  <PUBCHEM_CONFORMER_RMSD>  (1) 
0.6

>  <PUBCHEM_CONFORMER_DIVERSEORDER>  (1) 
8
56
71
14
36
66
5
57
41
70
4
68
11
60
3
30
6
59
45
50
58
7
9
52
37
67
15
33
21
23
29
35
53
24
19
10
55
32
34
54
27
26
43
20
31
25
47
28
49
1
51
48
39
22
38
16
42
40
46
18
72
61
2
69
12
62
64
13
17
63
65
44

>  <PUBCHEM_MMFF94_PARTIAL_CHARGES>  (1) 
11
1 -0.28
11 0.18
13 0.3
14 0.33
2 -0.81
3 -0.34
31 0.15
4 -0.34
5 0.27
6 0.27
7 0.27

>  <PUBCHEM_EFFECTIVE_ROTOR_COUNT>  (1) 
4.2

>  <PUBCHEM_PHARMACOPHORE_FEATURES>  (1) 
3
1 2 cation
5 1 3 4 13 14 rings
6 2 6 7 8 9 10 rings

>  <PUBCHEM_HEAVY_ATOM_COUNT>  (1) 
14

>  <PUBCHEM_ATOM_DEF_STEREO_COUNT>  (1) 
0

>  <PUBCHEM_ATOM_UDEF_STEREO_COUNT>  (1) 
1

>  <PUBCHEM_BOND_DEF_STEREO_COUNT>  (1) 
0

>  <PUBCHEM_BOND_UDEF_STEREO_COUNT>  (1) 
0

>  <PUBCHEM_ISOTOPIC_ATOM_COUNT>  (1) 
0

>  <PUBCHEM_COMPONENT_COUNT>  (1) 
1

>  <PUBCHEM_CACTVS_TAUTO_COUNT>  (1) 
1

>  <PUBCHEM_CONFORMER_ID>  (1) 
00008D2000000008

>  <PUBCHEM_MMFF94_ENERGY>  (1) 
12.9991

>  <PUBCHEM_FEATURE_SELFOVERLAP>  (1) 
15.223

>  <PUBCHEM_SHAPE_FINGERPRINT>  (1) 
11132069 177 18409164402939739253
11615757 297 16587744252192315469
12236239 1 17821444669021941896
12346645 44 18409728430961587459
13380535 21 18340493244802129571
13380535 76 18408040689308686259
14123238 8 16630524054890254740
14144814 61 18259981582829896864
14325111 11 18410854356369046074
14897335 6 18338511941954854391
14943859 89 18342455941323388915
14993402 34 17967534600928567012
15219456 202 18059582338841494375
15536298 74 18269836428235421742
15775835 57 18408322163868217283
18186145 218 17703794725388863162
19422 9 17821446872050079538
1986462 14 18343303669352357925
200 152 14779545712527902131
20233049 118 18410853257232296096
20279233 1 17561084713294552758
20645477 56 18131062779458525504
20645477 70 16415487017249347724
20711983 171 18260832596318904318
21501502 16 18266454305078094843
23048698 100 16877942741494422764
23402539 116 18341885311942016900
23557571 272 18130799970768288631
23559900 14 18202283611436680896
265663 24 17748542640915373394
42 15 18334288743604562298
4990 188 17917434202721319990
573450 72 18334846199872715107
57812782 119 17775284979937665196
633830 44 18272367581153406277
6430166 295 18410007719493872320
69090 78 17346311630720602071
7364860 26 18126565613513348959
81539 233 18041556940725867595

>  <PUBCHEM_SHAPE_MULTIPOLES>  (1) 
267.3
8.7
1.41
0.84
2.45
0.32
0.03
-1.29
0.35
-1.19
-0.06
0.58
-0.04
-0.09

>  <PUBCHEM_SHAPE_SELFOVERLAP>  (1) 
543.742

>  <PUBCHEM_SHAPE_VOLUME>  (1) 
156.9

>  <PUBCHEM_COORDINATE_TYPE>  (1) 
2
5
10

$$$$
