36139
     RDKit          3D

 48 55  0  0  1  0  0  0  0  0999 V2000
   -2.4400    0.6393   -1.5172 O   0  0  0  0  0  0  0  0  0  0  0  0
    2.0944   -0.2033    1.1844 O   0  0  0  0  0  0  0  0  0  0  0  0
   -2.8448    3.1570   -0.1865 O   0  0  0  0  0  0  0  0  0  0  0  0
   -5.0447    3.4943    1.3685 O   0  0  0  0  0  0  0  0  0  0  0  0
    2.8967   -2.9020    1.4285 O   0  0  0  0  0  0  0  0  0  0  0  0
    5.2511   -3.7277    0.3224 O   0  0  0  0  0  0  0  0  0  0  0  0
   -5.2156   -2.4775   -1.0669 N   0  0  0  0  0  0  0  0  0  0  0  0
    5.0591    2.6829    0.0966 N   0  0  0  0  0  0  0  0  0  0  0  0
   -3.9058   -1.6804   -0.7136 C   0  0  0  0  0  0  0  0  0  0  0  0
    3.7794    1.7750   -0.0649 C   0  0  0  0  0  0  0  0  0  0  0  0
   -6.1368   -2.5089    0.1512 C   0  0  0  0  0  0  0  0  0  0  0  0
    6.0801    2.2961   -0.9699 C   0  0  0  0  0  0  0  0  0  0  0  0
   -4.2272   -0.2649   -0.2410 C   0  0  0  0  0  0  0  0  0  0  0  0
    4.1355    0.2918    0.0352 C   0  0  0  0  0  0  0  0  0  0  0  0
   -6.4566   -1.1118    0.6769 C   0  0  0  0  0  0  0  0  0  0  0  0
    6.4613    0.8205   -0.8932 C   0  0  0  0  0  0  0  0  0  0  0  0
    3.0646    2.0733   -1.4193 C   0  0  0  0  0  0  0  0  0  0  0  0
   -3.0808   -2.4376    0.3755 C   0  0  0  0  0  0  0  0  0  0  0  0
   -5.3893   -0.0548    0.5301 C   0  0  0  0  0  0  0  0  0  0  0  0
    5.3922   -0.1433   -0.4371 C   0  0  0  0  0  0  0  0  0  0  0  0
   -5.9183   -1.8237   -2.2709 C   0  0  0  0  0  0  0  0  0  0  0  0
   -4.9084   -3.9191   -1.4951 C   0  0  0  0  0  0  0  0  0  0  0  0
    4.7286    4.1768   -0.0405 C   0  0  0  0  0  0  0  0  0  0  0  0
    5.6451    2.5217    1.5131 C   0  0  0  0  0  0  0  0  0  0  0  0
   -3.3811    0.8291   -0.5339 C   0  0  0  0  0  0  0  0  0  0  0  0
    3.2632   -0.6556    0.6132 C   0  0  0  0  0  0  0  0  0  0  0  0
    1.5866    1.7591   -1.4472 C   0  0  0  0  0  0  0  0  0  0  0  0
   -1.6824   -1.9092    0.6019 C   0  0  0  0  0  0  0  0  0  0  0  0
   -5.6459    1.2157    1.0660 C   0  0  0  0  0  0  0  0  0  0  0  0
    5.7336   -1.5040   -0.3621 C   0  0  0  0  0  0  0  0  0  0  0  0
   -3.6486    2.0745    0.0338 C   0  0  0  0  0  0  0  0  0  0  0  0
   -4.7734    2.2722    0.8313 C   0  0  0  0  0  0  0  0  0  0  0  0
    3.6495   -1.9975    0.7351 C   0  0  0  0  0  0  0  0  0  0  0  0
    4.8680   -2.4243    0.2198 C   0  0  0  0  0  0  0  0  0  0  0  0
    0.6967    2.4192   -0.5878 C   0  0  0  0  0  0  0  0  0  0  0  0
   -0.6840    2.1396   -0.5910 C   0  0  0  0  0  0  0  0  0  0  0  0
   -1.1671    1.1523   -1.4524 C   0  0  0  0  0  0  0  0  0  0  0  0
    1.0711    0.8503   -2.3703 C   0  0  0  0  0  0  0  0  0  0  0  0
   -0.6488   -2.2428   -0.2812 C   0  0  0  0  0  0  0  0  0  0  0  0
   -1.4002   -1.0754    1.6906 C   0  0  0  0  0  0  0  0  0  0  0  0
   -1.5533    2.8986    0.3671 C   0  0  0  0  0  0  0  0  0  0  0  0
   -0.2916    0.5535   -2.3721 C   0  0  0  0  0  0  0  0  0  0  0  0
    0.9067   -0.8719    0.9725 C   0  0  0  0  0  0  0  0  0  0  0  0
    0.6369   -1.7243   -0.1015 C   0  0  0  0  0  0  0  0  0  0  0  0
   -0.1163   -0.5582    1.8718 C   0  0  0  0  0  0  0  0  0  0  0  0
   -4.4960    3.7731    2.6552 C   0  0  0  0  0  0  0  0  0  0  0  0
    3.1817   -3.0483    2.8166 C   0  0  0  0  0  0  0  0  0  0  0  0
    4.8746   -4.5995   -0.7417 C   0  0  0  0  0  0  0  0  0  0  0  0
  1 25  1  0
  1 37  1  0
  2 26  1  0
  2 43  1  0
  3 31  1  0
  3 41  1  0
  4 32  1  0
  4 46  1  0
  5 33  1  0
  5 47  1  0
  6 34  1  0
  6 48  1  0
  7  9  1  0
  7 11  1  0
  7 21  1  0
  7 22  1  0
  8 10  1  0
  8 12  1  0
  8 23  1  0
  8 24  1  0
  9 13  1  0
  9 18  1  0
 10 14  1  0
 10 17  1  0
 11 15  1  0
 12 16  1  0
 13 19  2  0
 13 25  1  0
 14 20  1  0
 14 26  2  0
 15 19  1  0
 16 20  1  0
 17 27  1  0
 18 28  1  0
 19 29  1  0
 20 30  2  0
 25 31  2  0
 26 33  1  0
 27 35  2  0
 27 38  1  0
 28 39  2  0
 28 40  1  0
 29 32  2  0
 30 34  1  0
 31 32  1  0
 33 34  2  0
 35 36  1  0
 36 37  2  0
 36 41  1  0
 37 42  1  0
 38 42  2  0
 39 44  1  0
 40 45  2  0
 43 44  2  0
 43 45  1  0
M  CHG  2   7   1   8   1
M  END
>  <PUBCHEM_COMPOUND_CID>  (1) 
36139

>  <PUBCHEM_CONFORMER_RMSD>  (1) 
1

>  <PUBCHEM_CONFORMER_DIVERSEORDER>  (1) 
3
4
5
9
1
8
7
10
2
11
6

>  <PUBCHEM_MMFF94_PARTIAL_CHARGES>  (1) 
57
1 -0.17
10 0.65
11 0.5
12 0.5
13 -0.14
14 -0.14
15 0.14
16 0.14
17 0.14
18 0.14
19 -0.14
2 -0.17
20 -0.14
21 0.5
22 0.5
23 0.5
24 0.5
25 0.08
26 0.08
27 -0.14
28 -0.14
29 -0.15
3 -0.36
30 -0.15
31 0.08
32 0.08
33 0.08
34 0.08
35 -0.15
36 -0.14
37 0.08
38 -0.15
39 -0.15
4 -0.36
40 -0.15
41 0.42
42 -0.15
43 0.08
44 -0.15
45 -0.15
46 0.28
47 0.28
48 0.28
5 -0.36
6 -0.36
7 -1.01
75 0.15
76 0.15
77 0.15
78 0.15
79 0.15
8 -1.01
80 0.15
83 0.15
84 0.15
85 0.15
9 0.65

>  <PUBCHEM_EFFECTIVE_ROTOR_COUNT>  (1) 
5.4

>  <PUBCHEM_PHARMACOPHORE_FEATURES>  (1) 
15
1 1 acceptor
1 2 acceptor
1 3 acceptor
1 4 acceptor
1 5 acceptor
1 6 acceptor
1 7 cation
1 8 cation
6 13 19 25 29 31 32 rings
6 14 20 26 30 33 34 rings
6 27 35 36 37 38 42 rings
6 28 39 40 43 44 45 rings
6 7 9 11 13 15 19 rings
6 8 10 12 14 16 20 rings
7 1 3 25 31 36 37 41 rings

>  <PUBCHEM_HEAVY_ATOM_COUNT>  (1) 
48

>  <PUBCHEM_ATOM_DEF_STEREO_COUNT>  (1) 
0

>  <PUBCHEM_ATOM_UDEF_STEREO_COUNT>  (1) 
2

>  <PUBCHEM_BOND_DEF_STEREO_COUNT>  (1) 
0

>  <PUBCHEM_BOND_UDEF_STEREO_COUNT>  (1) 
0

>  <PUBCHEM_ISOTOPIC_ATOM_COUNT>  (1) 
0

>  <PUBCHEM_COMPONENT_COUNT>  (1) 
1

>  <PUBCHEM_CACTVS_TAUTO_COUNT>  (1) 
1

>  <PUBCHEM_CONFORMER_ID>  (1) 
00008D2B00000003

>  <PUBCHEM_MMFF94_ENERGY>  (1) 
239.5052

>  <PUBCHEM_FEATURE_SELFOVERLAP>  (1) 
76.21

>  <PUBCHEM_SHAPE_FINGERPRINT>  (1) 
11513181 2 18412830183228686030
11578080 2 16772978938318332517
12422481 6 18338522915517083527
12633046 712 18200859700280841257
131258 43 17841986991130588495
1361 2 18261955249526311798
13782708 43 17313945191671191490
13811026 1 18335978739756740613
14118638 360 18411979191140167802
14394314 77 18409737283480807753
14856354 85 17988365961925806951
15001296 14 18335136466737326704
15276724 80 18410855469261597519
15484559 13 16238094920416560279
15840311 113 18334300821443365293
15968369 153 18264790890077474577
16112460 7 18335989683338802785
3383291 50 18043814401575559411
3633792 109 18115009897398717501
392239 28 18189337866177153665
4112364 45 18052274903508387625
4144715 1 18188223060551073707
469060 322 16443060625242365438
50677037 204 18335419123046509769
57527585 103 16444488964330802451
57816373 69 18266740173421026700
77296 10 18412549803267441073
86090 222 17313115116068728720

>  <PUBCHEM_SHAPE_MULTIPOLES>  (1) 
942.64
16.74
5.44
2
0.07
0.67
0.2
1.85
0.15
-1.7
0.97
0.78
-0.04
-3.73

>  <PUBCHEM_SHAPE_SELFOVERLAP>  (1) 
2079.845

>  <PUBCHEM_SHAPE_VOLUME>  (1) 
505.6

>  <PUBCHEM_COORDINATE_TYPE>  (1) 
2
5
10

$$$$
