36133
     RDKit          3D

 20 21  0  0  1  0  0  0  0  0999 V2000
    0.2354    0.2713    0.9953 O   0  0  0  0  0  0  0  0  0  0  0  0
   -0.8940    0.6422   -1.0061 N   0  0  0  0  0  0  0  0  0  0  0  0
   -4.3354    0.1428    0.3273 N   0  0  0  0  0  0  0  0  0  0  0  0
    1.4030   -0.0404   -1.0662 C   0  0  0  0  0  0  0  0  0  0  0  0
    1.3381   -1.5193   -1.4672 C   0  0  0  0  0  0  0  0  0  0  0  0
    1.8491   -2.4300   -0.3553 C   0  0  0  0  0  0  0  0  0  0  0  0
    2.6791    0.3393   -0.3484 C   0  0  0  0  0  0  0  0  0  0  0  0
    3.3020   -2.1071   -0.0218 C   0  0  0  0  0  0  0  0  0  0  0  0
    3.5535   -0.6335    0.1715 C   0  0  0  0  0  0  0  0  0  0  0  0
    0.2043    0.3094   -0.2319 C   0  0  0  0  0  0  0  0  0  0  0  0
    2.9903    1.6994   -0.1781 C   0  0  0  0  0  0  0  0  0  0  0  0
    4.7241   -0.2279    0.8321 C   0  0  0  0  0  0  0  0  0  0  0  0
   -2.1781    0.9962   -0.4457 C   0  0  0  0  0  0  0  0  0  0  0  0
   -3.0578   -0.2321   -0.2647 C   0  0  0  0  0  0  0  0  0  0  0  0
    4.1509    2.0889    0.4896 C   0  0  0  0  0  0  0  0  0  0  0  0
    5.0180    1.1253    0.9942 C   0  0  0  0  0  0  0  0  0  0  0  0
   -5.1728   -1.0395    0.5397 C   0  0  0  0  0  0  0  0  0  0  0  0
   -5.0328    1.1120   -0.5203 C   0  0  0  0  0  0  0  0  0  0  0  0
   -4.4483   -2.0417    1.4176 C   0  0  0  0  0  0  0  0  0  0  0  0
   -6.3286    1.5448    0.1385 C   0  0  0  0  0  0  0  0  0  0  0  0
  1 10  2  0
  2 10  1  0
  2 13  1  0
  3 14  1  0
  3 17  1  0
  3 18  1  0
  4  5  1  0
  4  7  1  0
  4 10  1  0
  5  6  1  0
  6  8  1  0
  7  9  2  0
  7 11  1  0
  8  9  1  0
  9 12  1  0
 11 15  2  0
 12 16  2  0
 13 14  1  0
 15 16  1  0
 17 19  1  0
 18 20  1  0
M  END
>  <PUBCHEM_COMPOUND_CID>  (1) 
36133

>  <PUBCHEM_CONFORMER_RMSD>  (1) 
0.8

>  <PUBCHEM_CONFORMER_DIVERSEORDER>  (1) 
3
136
140
70
65
114
45
24
98
119
141
49
117
137
121
86
104
21
108
41
38
67
1
91
131
134
100
102
51
115
144
76
30
111
96
123
43
109
64
130
139
90
77
39
99
129
25
14
89
17
75
31
68
101
95
126
42
125
8
13
59
97
78
20
48
124
60
116
5
9
132
72
58
135
12
66
53
93
92
87
127
62
19
110
61
113
40
143
81
82
22
37
63
94
44
107
2
88
105
106
122
47
54
18
15
85
79
118
73
50
33
103
4
35
71
142
138
23
36
16
133
27
74
55
11
6
28
7
83
128
84
26
56
10
120
69
29
52
112
34
46
32
57
80

>  <PUBCHEM_MMFF94_PARTIAL_CHARGES>  (1) 
21
1 -0.57
10 0.57
11 -0.15
12 -0.15
13 0.3
14 0.27
15 -0.15
16 -0.15
17 0.27
18 0.27
2 -0.73
28 0.15
29 0.15
3 -0.81
30 0.37
35 0.15
36 0.15
4 0.2
7 -0.14
8 0.14
9 -0.14

>  <PUBCHEM_EFFECTIVE_ROTOR_COUNT>  (1) 
7.8

>  <PUBCHEM_PHARMACOPHORE_FEATURES>  (1) 
5
1 1 acceptor
1 2 donor
1 3 cation
6 4 5 6 7 8 9 rings
6 7 9 11 12 15 16 rings

>  <PUBCHEM_HEAVY_ATOM_COUNT>  (1) 
20

>  <PUBCHEM_ATOM_DEF_STEREO_COUNT>  (1) 
0

>  <PUBCHEM_ATOM_UDEF_STEREO_COUNT>  (1) 
1

>  <PUBCHEM_BOND_DEF_STEREO_COUNT>  (1) 
0

>  <PUBCHEM_BOND_UDEF_STEREO_COUNT>  (1) 
0

>  <PUBCHEM_ISOTOPIC_ATOM_COUNT>  (1) 
0

>  <PUBCHEM_COMPONENT_COUNT>  (1) 
1

>  <PUBCHEM_CACTVS_TAUTO_COUNT>  (1) 
2

>  <PUBCHEM_CONFORMER_ID>  (1) 
00008D2500000003

>  <PUBCHEM_MMFF94_ENERGY>  (1) 
34.0891

>  <PUBCHEM_FEATURE_SELFOVERLAP>  (1) 
25.392

>  <PUBCHEM_SHAPE_FINGERPRINT>  (1) 
10498660 4 12823022971828804395
10670039 82 13542471951127463827
10835480 77 18411131421111332045
11045977 3 18409168805054487786
11405975 8 18335144155166532329
12107183 9 17551801313504656065
12236239 1 17346589772829045236
12596602 18 17203335537329789283
12916748 109 12247674985479858213
13533116 47 18265897964973853411
13583140 156 18273210932958873033
14341114 176 18410014303679016421
146900 427 17774726458090212985
14790565 3 17905612460185593476
15183329 4 8862674511685118823
15210252 30 13398632783852934778
15348495 7 18334576875701603569
15375358 24 18410014330013101831
15475509 35 17024008391064322650
1601671 61 15554733278203082600
17349148 13 14923944539843332001
18222031 100 12613023986291349008
19784866 9 18202278113277174928
20157964 124 18272648996728490653
20645477 70 18130787807130899215
21065199 12 18410013213152637461
21637258 2 15285902630342458328
21859007 373 17387962085486800333
23402539 116 17967245416828477269
23557571 272 17604427392921290773
23559900 14 18334301937390524919
239999 70 18272940388484286910
26918003 58 18408602544034579153
300161 21 17918267641547173445
4073 2 18187088368703186059
42630746 31 18272366456341239270
4340502 62 18341894103787778159
465052 167 18186796972926956450
5104073 3 18409737231739883211
5924683 9 18337392755667789107
59755656 215 17989214716140814396
8272917 22 18343581811619076358
90127 26 17702960140629882221
9995097 60 18337105666588398805
9999458 23 18409728465943623534

>  <PUBCHEM_SHAPE_MULTIPOLES>  (1) 
395.76
13.73
2.27
1.12
16.26
0.74
0
-3.42
4.15
-0.73
0.15
-0.03
0.27
1.58

>  <PUBCHEM_SHAPE_SELFOVERLAP>  (1) 
810.242

>  <PUBCHEM_SHAPE_VOLUME>  (1) 
228.6

>  <PUBCHEM_COORDINATE_TYPE>  (1) 
2
5
10

$$$$
