36135
     RDKit          3D

 19 20  0  0  1  0  0  0  0  0999 V2000
   -0.7598   -1.7820   -1.1457 O   0  0  0  0  0  0  0  0  0  0  0  0
    1.7792   -1.9489   -0.3420 N   0  0  0  0  0  0  0  0  0  0  0  0
   -1.3953   -1.0009    0.9531 N   0  0  0  0  0  0  0  0  0  0  0  0
   -4.9224   -0.1889    0.0752 N   0  0  0  0  0  0  0  0  0  0  0  0
    0.9195   -0.9887    0.3497 C   0  0  0  0  0  0  0  0  0  0  0  0
    1.2651    0.4428   -0.0715 C   0  0  0  0  0  0  0  0  0  0  0  0
    2.7476    0.7149   -0.0323 C   0  0  0  0  0  0  0  0  0  0  0  0
    3.1764   -1.7777    0.0744 C   0  0  0  0  0  0  0  0  0  0  0  0
    3.6631   -0.3518   -0.0067 C   0  0  0  0  0  0  0  0  0  0  0  0
   -0.4869   -1.3126   -0.0440 C   0  0  0  0  0  0  0  0  0  0  0  0
    3.2200    2.0329   -0.0792 C   0  0  0  0  0  0  0  0  0  0  0  0
   -2.8202   -1.1967    0.8137 C   0  0  0  0  0  0  0  0  0  0  0  0
    5.0380   -0.0811    0.0080 C   0  0  0  0  0  0  0  0  0  0  0  0
   -3.4920    0.0395    0.2339 C   0  0  0  0  0  0  0  0  0  0  0  0
   -5.5801    0.9906   -0.4699 C   0  0  0  0  0  0  0  0  0  0  0  0
    4.5904    2.2905   -0.0750 C   0  0  0  0  0  0  0  0  0  0  0  0
    5.4984    1.2348   -0.0292 C   0  0  0  0  0  0  0  0  0  0  0  0
   -5.3772    2.1855    0.4574 C   0  0  0  0  0  0  0  0  0  0  0  0
   -7.0638    0.6979   -0.6698 C   0  0  0  0  0  0  0  0  0  0  0  0
  1 10  2  0
  2  5  1  0
  2  8  1  0
  3 10  1  0
  3 12  1  0
  4 14  1  0
  4 15  1  0
  5  6  1  0
  5 10  1  0
  6  7  1  0
  7  9  2  0
  7 11  1  0
  8  9  1  0
  9 13  1  0
 11 16  2  0
 12 14  1  0
 13 17  2  0
 15 18  1  0
 15 19  1  0
 16 17  1  0
M  END
>  <PUBCHEM_COMPOUND_CID>  (1) 
36135

>  <PUBCHEM_CONFORMER_RMSD>  (1) 
0.8

>  <PUBCHEM_CONFORMER_DIVERSEORDER>  (1) 
1
91
69
130
59
43
89
78
103
2
92
15
6
95
116
68
117
48
65
128
122
64
96
121
102
40
49
12
66
80
4
42
120
63
90
19
77
110
62
88
73
104
99
82
61
18
84
45
31
112
97
119
67
47
129
127
107
41
36
33
11
53
94
111
37
50
98
87
51
14
132
22
34
81
79
26
20
83
16
23
71
85
106
108
86
70
13
114
74
131
101
52
93
35
126
125
44
46
28
24
100
75
118
25
38
56
29
124
55
21
60
10
54
9
113
58
76
3
105
39
123
109
5
32
7
115
72
57
17
27
8
30

>  <PUBCHEM_MMFF94_PARTIAL_CHARGES>  (1) 
24
1 -0.57
10 0.57
11 -0.15
12 0.3
13 -0.15
14 0.27
15 0.27
16 -0.15
17 -0.15
2 -0.9
25 0.36
26 0.15
29 0.37
3 -0.73
30 0.15
34 0.36
35 0.15
36 0.15
4 -0.9
5 0.33
6 0.14
7 -0.14
8 0.41
9 -0.14

>  <PUBCHEM_EFFECTIVE_ROTOR_COUNT>  (1) 
6.8

>  <PUBCHEM_PHARMACOPHORE_FEATURES>  (1) 
9
1 1 acceptor
1 2 cation
1 2 donor
1 3 donor
1 4 cation
1 4 donor
3 15 18 19 hydrophobe
6 2 5 6 7 8 9 rings
6 7 9 11 13 16 17 rings

>  <PUBCHEM_HEAVY_ATOM_COUNT>  (1) 
19

>  <PUBCHEM_ATOM_DEF_STEREO_COUNT>  (1) 
0

>  <PUBCHEM_ATOM_UDEF_STEREO_COUNT>  (1) 
1

>  <PUBCHEM_BOND_DEF_STEREO_COUNT>  (1) 
0

>  <PUBCHEM_BOND_UDEF_STEREO_COUNT>  (1) 
0

>  <PUBCHEM_ISOTOPIC_ATOM_COUNT>  (1) 
0

>  <PUBCHEM_COMPONENT_COUNT>  (1) 
1

>  <PUBCHEM_CACTVS_TAUTO_COUNT>  (1) 
2

>  <PUBCHEM_CONFORMER_ID>  (1) 
00008D2700000001

>  <PUBCHEM_MMFF94_ENERGY>  (1) 
26.931

>  <PUBCHEM_FEATURE_SELFOVERLAP>  (1) 
45.692

>  <PUBCHEM_SHAPE_FINGERPRINT>  (1) 
10411042 1 17761772867424451938
10595046 47 18342171155839652599
11089746 13 18413102883612856532
12403259 118 18044092582327638544
12596602 18 14057015922606203613
12633257 1 16298669489912792573
13103583 49 12468641586988482341
13167372 99 18340206280672734953
13402501 40 18333446539210004309
13551218 46 8862942780070287873
13740256 8 9223232944586840769
13785724 45 17834392320225005042
14123256 34 9007064594716269929
14251751 18 10231759989675739153
14251764 38 18340774719663283033
14528608 73 18272086110840732989
15183329 4 18411419492724987657
15188451 53 15358274796348732369
17959699 21 18411419497114575681
20157964 124 18411699864042659615
20281389 69 17967530147627956933
21304253 335 18333737943929122292
21421861 104 17676754385057403946
22289505 5 18342460326986216472
22950370 63 8790880792164453051
23402655 69 18344144791336744071
23559900 14 18338519620950958091
270888 7 18265051513009412644
2838139 119 18410570678549256069
2916195 48 18114181922124737233
29717793 49 17561090167966380734
335352 9 18411421696744655142
351380 180 18408886226529463009
351380 3 8934999261505873233
4072396 5 18410845556777823850
4073 2 17895481422085929914
4325135 7 18411979196574501327
5104073 3 18041002821673347283
59682541 52 17489042478513499716
5969126 39 18192993953880213203
59755656 215 18336833005000299268
8272917 22 18412265013109338694

>  <PUBCHEM_SHAPE_MULTIPOLES>  (1) 
370.2
15.8
2.33
0.79
20.32
0.46
0.01
9.88
1.4
-1.11
0.03
0.48
-0.13
0.11

>  <PUBCHEM_SHAPE_SELFOVERLAP>  (1) 
757.834

>  <PUBCHEM_SHAPE_VOLUME>  (1) 
213.5

>  <PUBCHEM_COORDINATE_TYPE>  (1) 
2
5
10

$$$$
