36132
     RDKit          3D

 21 22  0  0  0  0  0  0  0  0999 V2000
    4.6846    3.4758    0.4731 Cl  0  0  0  0  0  0  0  0  0  0  0  0
   -0.4988   -1.2434   -1.8151 O   0  0  0  0  0  0  0  0  0  0  0  0
   -4.4083    0.3151   -0.0097 N   0  0  0  0  0  0  0  0  0  0  0  0
   -1.0382   -1.2058    0.4398 N   0  0  0  0  0  0  0  0  0  0  0  0
   -2.9654    0.2846    0.1918 C   0  0  0  0  0  0  0  0  0  0  0  0
   -2.4722   -1.1529    0.2681 C   0  0  0  0  0  0  0  0  0  0  0  0
   -4.8848    1.6951   -0.1221 C   0  0  0  0  0  0  0  0  0  0  0  0
   -5.0972   -0.3714    1.0850 C   0  0  0  0  0  0  0  0  0  0  0  0
    1.2804   -1.3245   -0.2900 C   0  0  0  0  0  0  0  0  0  0  0  0
   -4.1894    2.4323   -1.2479 C   0  0  0  0  0  0  0  0  0  0  0  0
   -6.5948   -0.4090    0.8610 C   0  0  0  0  0  0  0  0  0  0  0  0
    2.0759   -0.1809   -0.1119 C   0  0  0  0  0  0  0  0  0  0  0  0
   -0.1383   -1.2480   -0.6279 C   0  0  0  0  0  0  0  0  0  0  0  0
    3.4448   -0.3337    0.2127 C   0  0  0  0  0  0  0  0  0  0  0  0
    1.8269   -2.6006   -0.1502 C   0  0  0  0  0  0  0  0  0  0  0  0
    1.5424    1.1111   -0.2487 C   0  0  0  0  0  0  0  0  0  0  0  0
    3.9781   -1.6257    0.3498 C   0  0  0  0  0  0  0  0  0  0  0  0
    3.1732   -2.7508    0.1691 C   0  0  0  0  0  0  0  0  0  0  0  0
    4.2401    0.8101    0.3908 C   0  0  0  0  0  0  0  0  0  0  0  0
    2.3472    2.2363   -0.0683 C   0  0  0  0  0  0  0  0  0  0  0  0
    3.6936    2.0862    0.2506 C   0  0  0  0  0  0  0  0  0  0  0  0
  1 21  1  0
  2 13  2  0
  3  5  1  0
  3  7  1  0
  3  8  1  0
  4  6  1  0
  4 13  1  0
  5  6  1  0
  7 10  1  0
  8 11  1  0
  9 12  2  0
  9 13  1  0
  9 15  1  0
 12 14  1  0
 12 16  1  0
 14 17  2  0
 14 19  1  0
 15 18  2  0
 16 20  2  0
 17 18  1  0
 19 21  2  0
 20 21  1  0
M  END
>  <PUBCHEM_COMPOUND_CID>  (1) 
36132

>  <PUBCHEM_CONFORMER_RMSD>  (1) 
0.8

>  <PUBCHEM_CONFORMER_DIVERSEORDER>  (1) 
2
16
32
43
3
47
49
39
34
51
17
46
7
29
44
27
42
36
23
40
9
33
50
38
12
11
35
26
45
53
41
22
15
10
31
48
6
37
25
52
24
30
18
1
14
20
28
5
19
13
8
21
4

>  <PUBCHEM_MMFF94_PARTIAL_CHARGES>  (1) 
24
1 -0.18
13 0.54
15 -0.15
16 -0.15
17 -0.15
18 -0.15
19 -0.15
2 -0.57
20 -0.15
21 0.18
3 -0.81
30 0.37
37 0.15
38 0.15
39 0.15
4 -0.73
40 0.15
41 0.15
42 0.15
5 0.27
6 0.3
7 0.27
8 0.27
9 0.09

>  <PUBCHEM_EFFECTIVE_ROTOR_COUNT>  (1) 
7

>  <PUBCHEM_PHARMACOPHORE_FEATURES>  (1) 
5
1 2 acceptor
1 3 cation
1 4 donor
6 12 14 16 19 20 21 rings
6 9 12 14 15 17 18 rings

>  <PUBCHEM_HEAVY_ATOM_COUNT>  (1) 
21

>  <PUBCHEM_ATOM_DEF_STEREO_COUNT>  (1) 
0

>  <PUBCHEM_ATOM_UDEF_STEREO_COUNT>  (1) 
0

>  <PUBCHEM_BOND_DEF_STEREO_COUNT>  (1) 
0

>  <PUBCHEM_BOND_UDEF_STEREO_COUNT>  (1) 
0

>  <PUBCHEM_ISOTOPIC_ATOM_COUNT>  (1) 
0

>  <PUBCHEM_COMPONENT_COUNT>  (1) 
1

>  <PUBCHEM_CACTVS_TAUTO_COUNT>  (1) 
2

>  <PUBCHEM_CONFORMER_ID>  (1) 
00008D2400000002

>  <PUBCHEM_MMFF94_ENERGY>  (1) 
50.4058

>  <PUBCHEM_FEATURE_SELFOVERLAP>  (1) 
25.398

>  <PUBCHEM_SHAPE_FINGERPRINT>  (1) 
10411042 1 18051697638465787190
12403259 415 18260551087425683861
12422481 6 18117812518073263064
12507557 5 18340486647784909227
12507560 40 18333733498811920351
12596602 18 16081370812514726681
12616971 3 18060133220248024247
12769317 202 18272363213488560784
13583140 156 18335713736354721987
13675066 3 18113623361295842735
13878862 14 18264747918613420685
14251764 38 18268710511470723137
14341114 176 18336273375067283547
14790565 3 18047193235542408700
15081414 286 18270685234448751622
15188451 53 16226896704542951603
15196674 1 18409167675963437537
15475509 35 16805871915152997442
16992752 21 17615411360235304522
17844677 252 18339367357922496843
17868525 174 18045771300307329802
18785283 64 18333731334227485540
19433438 28 18114186298580458259
20157964 124 18411980256851018511
20715895 44 17911240512574297329
20739085 24 18187362156174084188
21033648 29 17530956974187113285
21033650 10 14835861563994385587
21065198 57 18335140856510654491
21065199 12 18260834812722703491
21315764 268 18334293137593346319
21792934 111 18041010506277343497
23559900 14 18267584611157633803
335352 9 18412265069481347270
3459 39 17842535599987995952
350125 39 18409164412221101620
351380 180 18335139761530922571
3545911 37 18410862070299348683
4325135 7 18201999950432607479
474 4 18412260679260171930
5104073 3 18334299721788891281
8272917 22 18413113861660515598
960060 61 8142079828406267531

>  <PUBCHEM_SHAPE_MULTIPOLES>  (1) 
418.21
13
3.44
0.97
18.4
1.36
0.21
5.85
-3.39
-4.47
0.16
0.77
0.01
1.32

>  <PUBCHEM_SHAPE_SELFOVERLAP>  (1) 
866.502

>  <PUBCHEM_SHAPE_VOLUME>  (1) 
241.6

>  <PUBCHEM_COORDINATE_TYPE>  (1) 
2
5
10

$$$$
