36149
     RDKit          3D

 13 14  0  0  0  0  0  0  0  0999 V2000
    0.1942    1.0298   -0.4548 N   0  0  0  0  0  0  0  0  0  0  0  0
    0.1670   -1.1916   -0.3845 N   0  0  0  0  0  0  0  0  0  0  0  0
    2.2349   -0.0425   -0.8453 N   0  0  0  0  0  0  0  0  0  0  0  0
    4.4466    0.1200    0.1188 N   0  0  0  0  0  0  0  0  0  0  0  0
    2.6058    0.0174    1.4615 N   0  0  0  0  0  0  0  0  0  0  0  0
   -1.1044    0.6883   -0.1762 C   0  0  0  0  0  0  0  0  0  0  0  0
   -1.0955   -0.7034   -0.1377 C   0  0  0  0  0  0  0  0  0  0  0  0
    0.9144   -0.1266   -0.5699 C   0  0  0  0  0  0  0  0  0  0  0  0
   -2.2510    1.4537    0.0387 C   0  0  0  0  0  0  0  0  0  0  0  0
   -2.2927   -1.3887    0.1297 C   0  0  0  0  0  0  0  0  0  0  0  0
   -3.4337    0.7553    0.3037 C   0  0  0  0  0  0  0  0  0  0  0  0
   -3.4562   -0.6405    0.3488 C   0  0  0  0  0  0  0  0  0  0  0  0
    3.0709    0.0288    0.1671 C   0  0  0  0  0  0  0  0  0  0  0  0
  1  6  1  0
  1  8  1  0
  2  7  1  0
  2  8  2  0
  3  8  1  0
  3 13  2  3
  4 13  1  0
  5 13  1  0
  6  7  2  0
  6  9  1  0
  7 10  1  0
  9 11  2  0
 10 12  2  0
 11 12  1  0
M  END
>  <PUBCHEM_COMPOUND_CID>  (1) 
36149

>  <PUBCHEM_CONFORMER_RMSD>  (1) 
0.4

>  <PUBCHEM_CONFORMER_DIVERSEORDER>  (1) 
1
3
2

>  <PUBCHEM_MMFF94_PARTIAL_CHARGES>  (1) 
22
1 0.03
10 -0.15
11 -0.15
12 -0.15
13 0.55
14 0.27
15 0.15
16 0.15
17 0.15
18 0.15
19 0.4
2 -0.57
20 0.4
21 0.4
22 0.4
3 -0.58
4 -0.85
5 -0.85
6 -0.15
7 0.23
8 0.31
9 -0.15

>  <PUBCHEM_EFFECTIVE_ROTOR_COUNT>  (1) 
1

>  <PUBCHEM_PHARMACOPHORE_FEATURES>  (1) 
7
1 1 donor
1 4 donor
1 5 donor
4 1 2 3 8 cation
4 3 4 5 13 cation
5 1 2 6 7 8 rings
6 6 7 9 10 11 12 rings

>  <PUBCHEM_HEAVY_ATOM_COUNT>  (1) 
13

>  <PUBCHEM_ATOM_DEF_STEREO_COUNT>  (1) 
0

>  <PUBCHEM_ATOM_UDEF_STEREO_COUNT>  (1) 
0

>  <PUBCHEM_BOND_DEF_STEREO_COUNT>  (1) 
0

>  <PUBCHEM_BOND_UDEF_STEREO_COUNT>  (1) 
0

>  <PUBCHEM_ISOTOPIC_ATOM_COUNT>  (1) 
0

>  <PUBCHEM_COMPONENT_COUNT>  (1) 
1

>  <PUBCHEM_CACTVS_TAUTO_COUNT>  (1) 
3

>  <PUBCHEM_CONFORMER_ID>  (1) 
00008D3500000001

>  <PUBCHEM_MMFF94_ENERGY>  (1) 
36.276

>  <PUBCHEM_FEATURE_SELFOVERLAP>  (1) 
35.724

>  <PUBCHEM_SHAPE_FINGERPRINT>  (1) 
10857977 72 18413108376897146577
11132069 177 18411141320503956053
12119455 92 17131829841776861246
12251169 10 18334014999125872548
12932764 1 17489584563041010190
13024252 1 13912322378692310965
14144814 61 18187085048387322291
14325111 11 18412267203040941028
15219456 202 18059864908871367726
16945 1 18410020931330187679
17846911 113 18342455911664923193
18186145 218 15195566805773842788
200 152 15502371244479980994
20279233 1 17988931058587409559
20510252 161 18271530805808091297
20645464 45 17918278649200108863
20645477 70 15068883257738525442
20871998 184 18201445826120235815
21119208 17 12463573976007410256
22445834 79 17749382637929447634
23402539 116 18341606041106604855
23463225 33 18187365402530673006
23559900 14 18270967834711993518
2748010 2 18048891693090500095
53812653 166 18201439151308066673
6333449 129 18273494572398497927
7364860 26 17984425139657217302
77492 1 17603590733207237054
90316 7 17968089777044618709

>  <PUBCHEM_SHAPE_MULTIPOLES>  (1) 
242.63
6.54
1.25
0.84
4.18
0
0.15
0.27
1.31
-1.06
-0.03
0.43
0
0.04

>  <PUBCHEM_SHAPE_SELFOVERLAP>  (1) 
530.175

>  <PUBCHEM_SHAPE_VOLUME>  (1) 
131.5

>  <PUBCHEM_COORDINATE_TYPE>  (1) 
2
5
10

$$$$
