36150
     RDKit          3D

 15 15  0  0  0  0  0  0  0  0999 V2000
   -3.7113    2.5965   -0.0014 Cl  0  0  0  0  0  0  0  0  0  0  0  0
    2.5342   -0.1046    0.0007 O   0  0  0  0  0  0  0  0  0  0  0  0
    1.1005    1.6772    0.0002 O   0  0  0  0  0  0  0  0  0  0  0  0
    0.3246   -0.5356    0.0012 N   0  0  0  0  0  0  0  0  0  0  0  0
   -1.8904   -1.5303    0.0003 C   0  0  0  0  0  0  0  0  0  0  0  0
   -1.0663   -0.4049    0.0016 C   0  0  0  0  0  0  0  0  0  0  0  0
   -3.2770   -1.3795   -0.0010 C   0  0  0  0  0  0  0  0  0  0  0  0
   -1.6290    0.8715    0.0016 C   0  0  0  0  0  0  0  0  0  0  0  0
   -1.3155   -2.9093   -0.0005 C   0  0  0  0  0  0  0  0  0  0  0  0
   -3.8396   -0.1030   -0.0012 C   0  0  0  0  0  0  0  0  0  0  0  0
   -3.0156    1.0224    0.0002 C   0  0  0  0  0  0  0  0  0  0  0  0
    1.2896    0.4669    0.0009 C   0  0  0  0  0  0  0  0  0  0  0  0
    3.6428    0.8024   -0.0006 C   0  0  0  0  0  0  0  0  0  0  0  0
    4.9073    0.0662   -0.0007 C   0  0  0  0  0  0  0  0  0  0  0  0
    5.9459   -0.5358   -0.0010 C   0  0  0  0  0  0  0  0  0  0  0  0
  1 11  1  0
  2 12  1  0
  2 13  1  0
  3 12  2  0
  4  6  1  0
  4 12  1  0
  5  6  2  0
  5  7  1  0
  5  9  1  0
  6  8  1  0
  7 10  2  0
  8 11  2  0
 10 11  1  0
 13 14  1  0
 14 15  3  0
M  END
>  <PUBCHEM_COMPOUND_CID>  (1) 
36150

>  <PUBCHEM_CONFORMER_RMSD>  (1) 
0.6

>  <PUBCHEM_CONFORMER_DIVERSEORDER>  (1) 
1
21
31
30
29
27
24
3
8
19
10
22
13
16
7
14
25
12
2
26
15
9
11
23
20
5
4
28
17
18
6

>  <PUBCHEM_MMFF94_PARTIAL_CHARGES>  (1) 
20
1 -0.18
10 -0.15
11 0.18
12 0.78
13 0.48
14 -0.2
15 -0.18
16 0.15
17 0.15
2 -0.43
21 0.37
22 0.15
25 0.18
3 -0.57
4 -0.55
5 -0.14
6 0.12
7 -0.15
8 -0.15
9 0.14

>  <PUBCHEM_EFFECTIVE_ROTOR_COUNT>  (1) 
4

>  <PUBCHEM_PHARMACOPHORE_FEATURES>  (1) 
4
1 15 hydrophobe
1 3 acceptor
1 4 donor
6 5 6 7 8 10 11 rings

>  <PUBCHEM_HEAVY_ATOM_COUNT>  (1) 
15

>  <PUBCHEM_ATOM_DEF_STEREO_COUNT>  (1) 
0

>  <PUBCHEM_ATOM_UDEF_STEREO_COUNT>  (1) 
0

>  <PUBCHEM_BOND_DEF_STEREO_COUNT>  (1) 
0

>  <PUBCHEM_BOND_UDEF_STEREO_COUNT>  (1) 
0

>  <PUBCHEM_ISOTOPIC_ATOM_COUNT>  (1) 
0

>  <PUBCHEM_COMPONENT_COUNT>  (1) 
1

>  <PUBCHEM_CACTVS_TAUTO_COUNT>  (1) 
2

>  <PUBCHEM_CONFORMER_ID>  (1) 
00008D3600000001

>  <PUBCHEM_MMFF94_ENERGY>  (1) 
34.309

>  <PUBCHEM_FEATURE_SELFOVERLAP>  (1) 
20.297

>  <PUBCHEM_SHAPE_FINGERPRINT>  (1) 
10680689 15 18408610287728602346
124424 183 17846778524816518800
12500047 106 18413384328503664642
13167823 11 18333448759908101602
13675066 3 18131629019757698600
14251731 8 18412546488249046876
14508225 48 18196638817370888109
14965852 173 18267021837344753070
15042514 8 18265055924041240923
15375358 24 18130791144452363206
17804303 29 18340488962345143568
200 152 17203888582492007135
20279233 1 17917721214143068326
20510252 161 18343587347942872729
20645477 56 18411141307672035433
20645477 70 16845303692090877822
21065198 57 18341047514800732072
21267235 1 18336553797244328099
2306618 200 18202010940752563553
23175994 123 17274829072848146280
23402539 116 18343014523885862295
23557571 272 18271815622501414796
23559900 14 18272647961836719984
23590187 130 18410016524693858948
3071541 12 17691971462660845727
4214541 1 18410855460539884772
5104073 3 18411418453617046808
559249 180 18336261246190630290
573450 72 18334848420829775466
58051976 100 18260829332238977614
6327066 14 17971184834074614901
77779 3 18409730699031354268
9709674 26 18343027713483047574

>  <PUBCHEM_SHAPE_MULTIPOLES>  (1) 
293.84
10.3
2.38
0.6
16.94
0.52
0
-1.59
0.01
-3.11
0
-0.04
0
0

>  <PUBCHEM_SHAPE_SELFOVERLAP>  (1) 
594.242

>  <PUBCHEM_SHAPE_VOLUME>  (1) 
171.9

>  <PUBCHEM_COORDINATE_TYPE>  (1) 
2
5
10

$$$$
