36158
     RDKit          3D

  7  6  0  0  0  0  0  0  0  0999 V2000
   -1.7165    1.0939    0.1181 S   0  0  0  0  0  0  0  0  0  0  0  0
    1.7175    1.0925    0.1186 S   0  0  0  0  0  0  0  0  0  0  0  0
    0.0001   -0.1093   -0.0404 P   0  0  0  0  0  0  0  0  0  0  0  0
   -0.0018   -1.1644    1.1964 O   0  0  0  0  0  0  0  0  0  0  0  0
   -0.0010   -0.8261   -1.3664 O   0  0  0  0  0  0  0  0  0  0  0  0
   -3.1106   -0.0431   -0.0131 C   0  0  0  0  0  0  0  0  0  0  0  0
    3.1122   -0.0436   -0.0131 C   0  0  0  0  0  0  0  0  0  0  0  0
  1  3  1  0
  1  6  1  0
  2  3  1  0
  2  7  1  0
  3  4  1  0
  3  5  2  0
M  END
>  <PUBCHEM_COMPOUND_CID>  (1) 
36158

>  <PUBCHEM_CONFORMER_RMSD>  (1) 
0.4

>  <PUBCHEM_CONFORMER_DIVERSEORDER>  (1) 
1
6
2
5
3
4

>  <PUBCHEM_MMFF94_PARTIAL_CHARGES>  (1) 
8
1 -0.48
14 0.5
2 -0.48
3 1.47
4 -0.77
5 -0.7
6 0.23
7 0.23

>  <PUBCHEM_EFFECTIVE_ROTOR_COUNT>  (1) 
2

>  <PUBCHEM_PHARMACOPHORE_FEATURES>  (1) 
0

>  <PUBCHEM_HEAVY_ATOM_COUNT>  (1) 
7

>  <PUBCHEM_ATOM_DEF_STEREO_COUNT>  (1) 
0

>  <PUBCHEM_ATOM_UDEF_STEREO_COUNT>  (1) 
0

>  <PUBCHEM_BOND_DEF_STEREO_COUNT>  (1) 
0

>  <PUBCHEM_BOND_UDEF_STEREO_COUNT>  (1) 
0

>  <PUBCHEM_ISOTOPIC_ATOM_COUNT>  (1) 
0

>  <PUBCHEM_COMPONENT_COUNT>  (1) 
1

>  <PUBCHEM_CACTVS_TAUTO_COUNT>  (1) 
1

>  <PUBCHEM_CONFORMER_ID>  (1) 
00008D3E00000001

>  <PUBCHEM_MMFF94_ENERGY>  (1) 
-7.4521

>  <PUBCHEM_FEATURE_SELFOVERLAP>  (1) 
0

>  <PUBCHEM_SHAPE_FINGERPRINT>  (1) 
11062470 55 9007059071340497033
14325111 11 18410293614013367384
16714656 1 17917987312952236221
20651381 17 18413390938242217713
24536 1 17899403470820677576
5084963 1 18409730659733401769
5943 1 9293323688168494623

>  <PUBCHEM_SHAPE_MULTIPOLES>  (1) 
143.87
4.4
1.23
0.97
0.01
0.14
-0.02
0.51
0.01
0
0.06
0
-0.33
0

>  <PUBCHEM_SHAPE_SELFOVERLAP>  (1) 
213.369

>  <PUBCHEM_SHAPE_VOLUME>  (1) 
108.7

>  <PUBCHEM_COORDINATE_TYPE>  (1) 
2
5
10

$$$$
