36155
     RDKit          3D

 28 29  0  0  0  0  0  0  0  0999 V2000
    5.3699   -0.8111    1.5525 S   0  0  0  0  0  0  0  0  0  0  0  0
   -5.3700   -0.8118   -1.5522 S   0  0  0  0  0  0  0  0  0  0  0  0
    3.8617   -0.9668    0.9425 O   0  0  0  0  0  0  0  0  0  0  0  0
   -3.8619   -0.9673   -0.9421 O   0  0  0  0  0  0  0  0  0  0  0  0
    6.0483   -2.0898    1.4706 O   0  0  0  0  0  0  0  0  0  0  0  0
    5.2714   -0.0847    2.8045 O   0  0  0  0  0  0  0  0  0  0  0  0
   -6.0485   -2.0905   -1.4696 O   0  0  0  0  0  0  0  0  0  0  0  0
   -5.2715   -0.0859   -2.8044 O   0  0  0  0  0  0  0  0  0  0  0  0
    6.1915    0.2485    0.4046 C   0  0  0  0  0  0  0  0  0  0  0  0
   -6.1915    0.2485   -0.4046 C   0  0  0  0  0  0  0  0  0  0  0  0
    7.4800    1.9131   -1.3967 C   0  0  0  0  0  0  0  0  0  0  0  0
   -7.4797    1.9139    1.3960 C   0  0  0  0  0  0  0  0  0  0  0  0
    6.1504    1.6197    0.5989 C   0  0  0  0  0  0  0  0  0  0  0  0
   -6.1503    1.6195   -0.5996 C   0  0  0  0  0  0  0  0  0  0  0  0
    6.8635   -0.3076   -0.6717 C   0  0  0  0  0  0  0  0  0  0  0  0
   -6.8635   -0.3072    0.6719 C   0  0  0  0  0  0  0  0  0  0  0  0
    6.7990    2.4577   -0.3081 C   0  0  0  0  0  0  0  0  0  0  0  0
   -6.7989    2.4579    0.3071 C   0  0  0  0  0  0  0  0  0  0  0  0
    7.5123    0.5305   -1.5786 C   0  0  0  0  0  0  0  0  0  0  0  0
   -7.5121    0.5313    1.5784 C   0  0  0  0  0  0  0  0  0  0  0  0
    8.1741    2.8089   -2.3664 C   0  0  0  0  0  0  0  0  0  0  0  0
   -8.1737    2.8101    2.3653 C   0  0  0  0  0  0  0  0  0  0  0  0
    2.9212   -1.7725    1.6382 C   0  0  0  0  0  0  0  0  0  0  0  0
   -2.9214   -1.7735   -1.6375 C   0  0  0  0  0  0  0  0  0  0  0  0
    1.6460   -1.7721    0.9219 C   0  0  0  0  0  0  0  0  0  0  0  0
   -1.6463   -1.7729   -0.9213 C   0  0  0  0  0  0  0  0  0  0  0  0
    0.5985   -1.7730    0.3354 C   0  0  0  0  0  0  0  0  0  0  0  0
   -0.5987   -1.7732   -0.3349 C   0  0  0  0  0  0  0  0  0  0  0  0
  1  3  1  0
  1  5  2  0
  1  6  2  0
  1  9  1  0
  2  4  1  0
  2  7  2  0
  2  8  2  0
  2 10  1  0
  3 23  1  0
  4 24  1  0
  9 13  2  0
  9 15  1  0
 10 14  2  0
 10 16  1  0
 11 17  2  0
 11 19  1  0
 11 21  1  0
 12 18  2  0
 12 20  1  0
 12 22  1  0
 13 17  1  0
 14 18  1  0
 15 19  2  0
 16 20  2  0
 23 25  1  0
 24 26  1  0
 25 27  3  0
 26 28  3  0
 27 28  1  0
M  END
>  <PUBCHEM_COMPOUND_CID>  (1) 
36155

>  <PUBCHEM_CONFORMER_RMSD>  (1) 
0.8

>  <PUBCHEM_CONFORMER_DIVERSEORDER>  (1) 
1
26
25
10
8
17
28
6
22
19
13
11
16
23
7
5
27
3
9
18
12
24
2
4
14
15
20
21

>  <PUBCHEM_MMFF94_PARTIAL_CHARGES>  (1) 
34
1 1.49
10 -0.01
11 -0.14
12 -0.14
13 -0.15
14 -0.15
15 -0.15
16 -0.15
17 -0.15
18 -0.15
19 -0.15
2 1.49
20 -0.15
21 0.14
22 0.14
23 0.48
24 0.48
25 -0.2
26 -0.2
29 0.15
3 -0.46
30 0.15
31 0.15
32 0.15
33 0.15
34 0.15
35 0.15
36 0.15
4 -0.46
5 -0.65
6 -0.65
7 -0.65
8 -0.65
9 -0.01

>  <PUBCHEM_EFFECTIVE_ROTOR_COUNT>  (1) 
6

>  <PUBCHEM_PHARMACOPHORE_FEATURES>  (1) 
6
1 5 acceptor
1 6 acceptor
1 7 acceptor
1 8 acceptor
6 10 12 14 16 18 20 rings
6 9 11 13 15 17 19 rings

>  <PUBCHEM_HEAVY_ATOM_COUNT>  (1) 
28

>  <PUBCHEM_ATOM_DEF_STEREO_COUNT>  (1) 
0

>  <PUBCHEM_ATOM_UDEF_STEREO_COUNT>  (1) 
0

>  <PUBCHEM_BOND_DEF_STEREO_COUNT>  (1) 
0

>  <PUBCHEM_BOND_UDEF_STEREO_COUNT>  (1) 
0

>  <PUBCHEM_ISOTOPIC_ATOM_COUNT>  (1) 
0

>  <PUBCHEM_COMPONENT_COUNT>  (1) 
1

>  <PUBCHEM_CACTVS_TAUTO_COUNT>  (1) 
1

>  <PUBCHEM_CONFORMER_ID>  (1) 
00008D3B00000001

>  <PUBCHEM_MMFF94_ENERGY>  (1) 
33.2532

>  <PUBCHEM_FEATURE_SELFOVERLAP>  (1) 
30.481

>  <PUBCHEM_SHAPE_FINGERPRINT>  (1) 
10049733 16 16845301510005093505
10906281 52 18410572885640667850
10981352 41 10231768790733725748
11115154 58 18343015568264756514
11475781 23 16773783814952648754
11478447 62 11887683845239924924
12013929 112 17131844122427498332
12539765 74 18341056237537270198
12559415 36 18338536182323791085
14026016 13 16082514330941239166
14359421 15 7997103702132976217
14647877 103 18130790023856029057
14664723 55 17060622179682491073
14849402 71 18114183081201918301
14919807 6 16988854834353267836
15150950 15 14346090762806867310
15183329 4 18411972581264296149
15519825 34 12179845017513179412
15554971 5 18338780278205211018
1577012 14 18412541020070058718
16990366 60 11747234475821532767
1754908 1 14923943440104909321
1768 124 9007068967847376456
1768 4 17530966925373072100
17852330 134 13613698263499790961
21095123 293 18411423878161130729
21585481 104 18272944817186029628
21647283 7 17095791123420516084
21781055 127 18341606007148209506
23522609 53 18410572889935349314
2747138 104 15574710262119082126
3711267 37 18411131442069132528
397830 11 15791730801878186443
3986486 107 18270691965295514412
4169191 19 18041273344151032823
42767 39 7997970176148169329
4403749 210 16226037895831057291
5109719 28 17240482520409656790
5911458 16 18411142432668747305
5937810 71 18342178907443439948
6703917 75 18412825820133100951
9689198 14 18410018736080036586

>  <PUBCHEM_SHAPE_MULTIPOLES>  (1) 
548.71
34.45
3.2
2.5
0.01
1.41
0
26.85
-0.01
0
0
0
0.3
-8.14

>  <PUBCHEM_SHAPE_SELFOVERLAP>  (1) 
1120.801

>  <PUBCHEM_SHAPE_VOLUME>  (1) 
314

>  <PUBCHEM_COORDINATE_TYPE>  (1) 
2
5
10

$$$$
