36154
     RDKit          3D

 13 14  0  0  1  0  0  0  0  0999 V2000
   -2.8416   -0.1128    1.1046 O   0  0  0  0  0  0  0  0  0  0  0  0
    2.8689    0.9918   -0.3588 N   0  0  0  0  0  0  0  0  0  0  0  0
   -2.4604   -0.3473   -1.0873 N   0  0  0  0  0  0  0  0  0  0  0  0
   -3.8126   -0.1196   -0.9109 N   0  0  0  0  0  0  0  0  0  0  0  0
    1.8742    0.1587    0.3324 C   0  0  0  0  0  0  0  0  0  0  0  0
    0.4580    0.4555   -0.1339 C   0  0  0  0  0  0  0  0  0  0  0  0
    2.3229   -1.2578    0.0060 C   0  0  0  0  0  0  0  0  0  0  0  0
    3.8412   -1.1655   -0.0243 C   0  0  0  0  0  0  0  0  0  0  0  0
    4.1507    0.3226   -0.1114 C   0  0  0  0  0  0  0  0  0  0  0  0
   -0.5377   -0.5236    0.5280 C   0  0  0  0  0  0  0  0  0  0  0  0
    0.0987    1.9166    0.1689 C   0  0  0  0  0  0  0  0  0  0  0  0
   -1.9730   -0.3294    0.1034 C   0  0  0  0  0  0  0  0  0  0  0  0
   -3.9892    0.0109    0.3832 C   0  0  0  0  0  0  0  0  0  0  0  0
  1 12  1  0
  1 13  1  0
  2  5  1  0
  2  9  1  0
  3  4  1  0
  3 12  2  0
  4 13  2  0
  5  6  1  0
  5  7  1  0
  6 10  1  0
  6 11  1  0
  7  8  1  0
  8  9  1  0
 10 12  1  0
M  END
>  <PUBCHEM_COMPOUND_CID>  (1) 
36154

>  <PUBCHEM_CONFORMER_RMSD>  (1) 
0.6

>  <PUBCHEM_CONFORMER_DIVERSEORDER>  (1) 
1
94
46
68
73
93
40
85
5
86
54
97
43
89
36
96
47
91
24
79
77
17
82
9
42
62
2
88
14
90
87
21
37
30
23
53
84
22
65
83
31
59
95
45
44
58
28
56
38
74
16
48
66
80
49
20
60
75
19
57
18
26
63
81
25
55
6
12
64
35
3
11
4
13
70
50
61
92
29
32
7
10
52
41
78
15
69
34
33
8
39
71
27
51
72
67
76

>  <PUBCHEM_MMFF94_PARTIAL_CHARGES>  (1) 
11
1 -0.28
10 0.18
12 0.3
13 0.33
2 -0.9
20 0.36
28 0.15
3 -0.34
4 -0.34
5 0.27
9 0.27

>  <PUBCHEM_EFFECTIVE_ROTOR_COUNT>  (1) 
4

>  <PUBCHEM_PHARMACOPHORE_FEATURES>  (1) 
5
1 11 hydrophobe
1 2 cation
1 2 donor
5 1 3 4 12 13 rings
5 2 5 7 8 9 rings

>  <PUBCHEM_HEAVY_ATOM_COUNT>  (1) 
13

>  <PUBCHEM_ATOM_DEF_STEREO_COUNT>  (1) 
0

>  <PUBCHEM_ATOM_UDEF_STEREO_COUNT>  (1) 
2

>  <PUBCHEM_BOND_DEF_STEREO_COUNT>  (1) 
0

>  <PUBCHEM_BOND_UDEF_STEREO_COUNT>  (1) 
0

>  <PUBCHEM_ISOTOPIC_ATOM_COUNT>  (1) 
0

>  <PUBCHEM_COMPONENT_COUNT>  (1) 
1

>  <PUBCHEM_CACTVS_TAUTO_COUNT>  (1) 
1

>  <PUBCHEM_CONFORMER_ID>  (1) 
00008D3A00000001

>  <PUBCHEM_MMFF94_ENERGY>  (1) 
11.8989

>  <PUBCHEM_FEATURE_SELFOVERLAP>  (1) 
25.371

>  <PUBCHEM_SHAPE_FINGERPRINT>  (1) 
10130415 120 18409165510967351392
10219947 1 18342178868783128198
11062470 55 18131634490928816258
11401426 45 18341324556985934920
11471102 20 18335419075875280772
12032990 46 18261117369624906322
12932764 1 17847055584223964353
13296908 3 18113340820729263074
14144814 61 18202566180786111331
14251717 144 18342736308467887430
14252887 29 18201449060072236786
14943859 89 14417853643924055192
14993402 34 18060136565431273438
18186145 218 17530685394213691520
190213 19 18408605867969929810
1986462 14 16588024615110151987
200 152 18341327812687131296
20201158 50 18260550013288370306
20279233 1 17748828522533966882
20281475 54 18201717345077729014
20645477 70 18335698300062957086
20671657 53 18113903711043720172
22485316 2 18272928327957247134
23402539 116 18343577421766880324
23402655 69 18410571764727387780
23559900 14 18040154020545917498
573450 72 16988561260580382243
581208 293 18342736317337208346

>  <PUBCHEM_SHAPE_MULTIPOLES>  (1) 
246.72
7.98
1.27
0.85
0.8
0.39
0.03
-1.32
0.58
-0.86
-0.02
0.6
-0.05
-0.12

>  <PUBCHEM_SHAPE_SELFOVERLAP>  (1) 
505.369

>  <PUBCHEM_SHAPE_VOLUME>  (1) 
144.6

>  <PUBCHEM_COORDINATE_TYPE>  (1) 
2
5
10

$$$$
