3615
     RDKit          3D

  9  9  0  0  1  0  0  0  0  0999 V2000
    1.3553   -0.8841   -0.6810 N   0  0  0  0  0  0  0  0  0  0  0  0
   -3.2981   -0.2862    0.3993 N   0  0  0  0  0  0  0  0  0  0  0  0
    2.4757    0.7158    0.3760 N   0  0  0  0  0  0  0  0  0  0  0  0
   -1.9605    0.2779    0.1952 C   0  0  0  0  0  0  0  0  0  0  0  0
   -0.9018   -0.8272    0.3705 C   0  0  0  0  0  0  0  0  0  0  0  0
    0.5117   -0.3392    0.2198 C   0  0  0  0  0  0  0  0  0  0  0  0
   -1.9170    0.9204   -1.1912 C   0  0  0  0  0  0  0  0  0  0  0  0
    1.1954    0.6352    0.8637 C   0  0  0  0  0  0  0  0  0  0  0  0
    2.5393   -0.2127   -0.5523 C   0  0  0  0  0  0  0  0  0  0  0  0
  1  6  1  0
  1  9  1  0
  2  4  1  0
  3  8  1  0
  3  9  2  0
  4  5  1  0
  4  7  1  0
  5  6  1  0
  6  8  2  0
M  END
>  <PUBCHEM_COMPOUND_CID>  (1) 
3615

>  <PUBCHEM_CONFORMER_RMSD>  (1) 
0.4

>  <PUBCHEM_CONFORMER_DIVERSEORDER>  (1) 
1
20
14
15
11
8
18
22
21
5
12
19
3
9
6
10
16
17
4
13
2
7

>  <PUBCHEM_MMFF94_PARTIAL_CHARGES>  (1) 
13
1 0.03
16 0.27
17 0.36
18 0.36
19 0.15
2 -0.99
20 0.15
3 -0.57
4 0.27
5 0.18
6 -0.33
8 0.08
9 0.04

>  <PUBCHEM_EFFECTIVE_ROTOR_COUNT>  (1) 
2

>  <PUBCHEM_PHARMACOPHORE_FEATURES>  (1) 
5
1 1 donor
1 2 cation
1 2 donor
3 1 3 9 cation
5 1 3 6 8 9 rings

>  <PUBCHEM_HEAVY_ATOM_COUNT>  (1) 
9

>  <PUBCHEM_ATOM_DEF_STEREO_COUNT>  (1) 
0

>  <PUBCHEM_ATOM_UDEF_STEREO_COUNT>  (1) 
1

>  <PUBCHEM_BOND_DEF_STEREO_COUNT>  (1) 
0

>  <PUBCHEM_BOND_UDEF_STEREO_COUNT>  (1) 
0

>  <PUBCHEM_ISOTOPIC_ATOM_COUNT>  (1) 
0

>  <PUBCHEM_COMPONENT_COUNT>  (1) 
1

>  <PUBCHEM_CACTVS_TAUTO_COUNT>  (1) 
2

>  <PUBCHEM_CONFORMER_ID>  (1) 
00000E1F00000001

>  <PUBCHEM_MMFF94_ENERGY>  (1) 
-0.0339

>  <PUBCHEM_FEATURE_SELFOVERLAP>  (1) 
25.371

>  <PUBCHEM_SHAPE_FINGERPRINT>  (1) 
10857977 72 17894633694842378793
11062470 55 8718828669672169699
12897270 3 17917704712614875261
12932764 1 18408036312356976059
14390081 3 18186514380615215885
15310529 11 17275387590526985041
21040471 1 17822287955258336746
23235685 24 18273493498271688537
29004967 10 17846503621013163970
5084963 1 18186526475079454635

>  <PUBCHEM_SHAPE_MULTIPOLES>  (1) 
170.27
4.31
1
0.96
1.18
0.29
-0.04
0.33
-0.12
0.61
0.05
-0.49
-0.03
-0.05

>  <PUBCHEM_SHAPE_SELFOVERLAP>  (1) 
340.727

>  <PUBCHEM_SHAPE_VOLUME>  (1) 
102.7

>  <PUBCHEM_COORDINATE_TYPE>  (1) 
2
5
10

$$$$
