36157
     RDKit          3D

 24 26  0  0  1  0  0  0  0  0999 V2000
   -4.2955   -3.7665    0.2841 Cl  0  0  0  0  0  0  0  0  0  0  0  0
   -4.1161    2.4662   -0.0432 S   0  0  0  0  0  0  0  0  0  0  0  0
    7.5959    0.4438    0.5908 O   0  0  0  0  0  0  0  0  0  0  0  0
   -0.6786    0.4614   -1.5168 O   0  0  0  0  0  0  0  0  0  0  0  0
   -1.6518    3.2597    0.4815 O   0  0  0  0  0  0  0  0  0  0  0  0
    4.1219   -0.3134   -0.4711 N   0  0  0  0  0  0  0  0  0  0  0  0
    1.2606   -0.1815   -0.4115 N   0  0  0  0  0  0  0  0  0  0  0  0
   -2.0647    0.9368    0.5221 N   0  0  0  0  0  0  0  0  0  0  0  0
    3.4232    0.1524    0.7359 C   0  0  0  0  0  0  0  0  0  0  0  0
    3.3670    0.0567   -1.6771 C   0  0  0  0  0  0  0  0  0  0  0  0
    2.0156   -0.4410    0.8178 C   0  0  0  0  0  0  0  0  0  0  0  0
    1.9621   -0.5439   -1.6421 C   0  0  0  0  0  0  0  0  0  0  0  0
    5.4763    0.2352   -0.5244 C   0  0  0  0  0  0  0  0  0  0  0  0
    6.3020   -0.1476    0.7061 C   0  0  0  0  0  0  0  0  0  0  0  0
   -0.0641    0.2495   -0.4683 C   0  0  0  0  0  0  0  0  0  0  0  0
   -0.7599    0.4657    0.8518 C   0  0  0  0  0  0  0  0  0  0  0  0
    6.4943   -1.6516    0.8530 C   0  0  0  0  0  0  0  0  0  0  0  0
   -3.1678    0.0564    0.3184 C   0  0  0  0  0  0  0  0  0  0  0  0
   -2.3929    2.2946    0.3663 C   0  0  0  0  0  0  0  0  0  0  0  0
   -4.3575    0.7131    0.0041 C   0  0  0  0  0  0  0  0  0  0  0  0
   -3.1310   -1.3300    0.4085 C   0  0  0  0  0  0  0  0  0  0  0  0
   -5.5308    0.0117   -0.2266 C   0  0  0  0  0  0  0  0  0  0  0  0
   -4.3080   -2.0471    0.1781 C   0  0  0  0  0  0  0  0  0  0  0  0
   -5.5002   -1.3806   -0.1374 C   0  0  0  0  0  0  0  0  0  0  0  0
  1 23  1  0
  2 19  1  0
  2 20  1  0
  3 14  1  0
  4 15  2  0
  5 19  2  0
  6  9  1  0
  6 10  1  0
  6 13  1  0
  7 11  1  0
  7 12  1  0
  7 15  1  0
  8 16  1  0
  8 18  1  0
  8 19  1  0
  9 11  1  0
 10 12  1  0
 13 14  1  0
 14 17  1  0
 15 16  1  0
 18 20  2  0
 18 21  1  0
 20 22  1  0
 21 23  2  0
 22 24  2  0
 23 24  1  0
M  END
>  <PUBCHEM_COMPOUND_CID>  (1) 
36157

>  <PUBCHEM_CONFORMER_RMSD>  (1) 
0.8

>  <PUBCHEM_CONFORMER_DIVERSEORDER>  (1) 
2
142
82
81
61
96
78
47
27
123
64
135
124
93
107
99
129
26
131
71
126
38
92
94
139
62
97
40
106
68
141
80
136
37
69
100
7
31
128
116
143
77
32
134
54
114
104
75
59
112
105
41
125
109
117
89
138
108
98
102
58
87
101
25
34
79
140
115
118
137
110
74
83
11
18
55
95
33
30
91
113
8
43
48
65
51
29
42
111
130
14
84
132
45
46
56
52
17
6
50
122
60
53
24
88
19
66
10
103
36
76
73
28
86
23
72
21
9
39
133
16
121
70
120
49
13
119
15
5
67
35
4
127
57
22
63
12
20
3
85
90
1
44

>  <PUBCHEM_MMFF94_PARTIAL_CHARGES>  (1) 
27
1 -0.18
10 0.27
11 0.3
12 0.3
13 0.27
14 0.28
15 0.57
16 0.36
18 0.12
19 0.77
2 -0.24
20 0.1
21 -0.15
22 -0.15
23 0.18
24 -0.15
3 -0.68
4 -0.57
41 0.4
42 0.15
43 0.15
44 0.15
5 -0.57
6 -0.81
7 -0.66
8 -0.48
9 0.27

>  <PUBCHEM_EFFECTIVE_ROTOR_COUNT>  (1) 
6.2

>  <PUBCHEM_PHARMACOPHORE_FEATURES>  (1) 
7
1 3 acceptor
1 3 donor
1 4 acceptor
1 6 cation
5 2 8 18 19 20 rings
6 18 20 21 22 23 24 rings
6 6 7 9 10 11 12 rings

>  <PUBCHEM_HEAVY_ATOM_COUNT>  (1) 
24

>  <PUBCHEM_ATOM_DEF_STEREO_COUNT>  (1) 
0

>  <PUBCHEM_ATOM_UDEF_STEREO_COUNT>  (1) 
1

>  <PUBCHEM_BOND_DEF_STEREO_COUNT>  (1) 
0

>  <PUBCHEM_BOND_UDEF_STEREO_COUNT>  (1) 
0

>  <PUBCHEM_ISOTOPIC_ATOM_COUNT>  (1) 
0

>  <PUBCHEM_COMPONENT_COUNT>  (1) 
1

>  <PUBCHEM_CACTVS_TAUTO_COUNT>  (1) 
1

>  <PUBCHEM_CONFORMER_ID>  (1) 
00008D3D00000002

>  <PUBCHEM_MMFF94_ENERGY>  (1) 
51.9249

>  <PUBCHEM_FEATURE_SELFOVERLAP>  (1) 
35.584

>  <PUBCHEM_SHAPE_FINGERPRINT>  (1) 
10 15 17917986201267681290
10319926 262 18342160160169266768
10411042 1 18194401332989811139
10595046 47 18334577941201412000
11315181 36 18186522115650907813
12107183 9 17542217957256033064
12166972 35 17749392589564293156
12236239 1 17894352180788982230
12596602 18 18409162195985809216
12616971 3 17385737880088469788
12788726 201 18334292042418845577
13403585 85 18413669110494689720
13583140 156 18060131007843845030
13631057 29 18409727404622958251
13782708 43 17702962335542930630
13914758 101 16805598123282045245
13964095 4 8358262553527304512
14211702 104 18261120677177895282
14251732 16 18412260671223891408
14844126 61 18337393837662191467
14910302 57 18266753380408779159
15183329 4 16805324388364019898
15188451 53 18334008411010199862
15483637 11 11205652946318087543
17349148 13 17458070369228898320
1768 4 16486401222896005266
17857418 61 17967530164776275186
18927931 339 18412549821001451727
19489759 90 18335421253133757441
200 152 16950000335310720445
20511986 3 17749657541690474137
21033648 29 17060044909342779441
21054139 6 18113615724723061314
21623969 137 16917354740345548942
21728266 224 18335137596255761499
21792961 116 17489877012687602158
22224240 67 15913329109046582183
23081809 10 17676214567750131708
23402539 116 18334294270763118613
23557571 272 18201442454444288129
23559900 14 18338790221565905697
335352 9 18410851076274827773
3633792 109 17604137126478736535
4015057 19 15502668159922397141
4280585 95 18409163350999994349
5104073 3 18272658990563669817
5283156 175 18186802474305354299
559249 180 18113616773011228483
67856867 119 18188777265782099724
7495541 125 18201439216244396152

>  <PUBCHEM_SHAPE_MULTIPOLES>  (1) 
467.08
16.81
2.74
1.14
24.65
0.61
0.4
5.36
-2.5
-5.8
-0.54
1.15
0.02
-0.32

>  <PUBCHEM_SHAPE_SELFOVERLAP>  (1) 
961.837

>  <PUBCHEM_SHAPE_VOLUME>  (1) 
271.5

>  <PUBCHEM_COORDINATE_TYPE>  (1) 
2
5
10

$$$$
