36162
     RDKit          3D

 17 19  0  0  1  0  0  0  0  0999 V2000
   -0.0262    0.3404   -0.7769 N   0  0  0  0  0  0  0  0  0  0  0  0
   -3.0020   -0.1704    0.4882 N   0  0  0  0  0  0  0  0  0  0  0  0
   -4.8076    1.2301    0.8759 N   0  0  0  0  0  0  0  0  0  0  0  0
   -4.8078    0.0588   -1.0793 N   0  0  0  0  0  0  0  0  0  0  0  0
    2.7585    1.1167    0.9129 C   0  0  0  0  0  0  0  0  0  0  0  0
    3.0416   -0.6771   -0.8029 C   0  0  0  0  0  0  0  0  0  0  0  0
    1.2615   -0.9525    1.0543 C   0  0  0  0  0  0  0  0  0  0  0  0
    1.1897    1.0572   -1.1435 C   0  0  0  0  0  0  0  0  0  0  0  0
    3.7780    0.3136    0.1022 C   0  0  0  0  0  0  0  0  0  0  0  0
    1.9917    0.1604    1.8229 C   0  0  0  0  0  0  0  0  0  0  0  0
    2.1942   -1.6429    0.0403 C   0  0  0  0  0  0  0  0  0  0  0  0
    1.8239    1.8971   -0.0225 C   0  0  0  0  0  0  0  0  0  0  0  0
    2.2009    0.1122   -1.8092 C   0  0  0  0  0  0  0  0  0  0  0  0
   -0.0698   -0.4396    0.4543 C   0  0  0  0  0  0  0  0  0  0  0  0
   -1.0418   -1.6001    0.1990 C   0  0  0  0  0  0  0  0  0  0  0  0
   -2.3514   -1.1279   -0.4076 C   0  0  0  0  0  0  0  0  0  0  0  0
   -4.1333    0.3241    0.0918 C   0  0  0  0  0  0  0  0  0  0  0  0
  1  8  1  0
  1 14  1  0
  2 16  1  0
  2 17  2  3
  3 17  1  0
  4 17  1  0
  5  9  1  0
  5 10  1  0
  5 12  1  0
  6  9  1  0
  6 11  1  0
  6 13  1  0
  7 10  1  0
  7 11  1  0
  7 14  1  0
  8 12  1  0
  8 13  1  0
 14 15  1  0
 15 16  1  0
M  END
>  <PUBCHEM_COMPOUND_CID>  (1) 
36162

>  <PUBCHEM_CONFORMER_RMSD>  (1) 
0.6

>  <PUBCHEM_CONFORMER_DIVERSEORDER>  (1) 
2
27
6
21
29
19
28
8
22
14
26
24
3
1
23
12
25
10
20
18
13
17
5
4
30
9
15
16
7
11

>  <PUBCHEM_MMFF94_PARTIAL_CHARGES>  (1) 
13
1 -0.9
14 0.27
16 0.25
17 0.55
2 -0.7
3 -0.85
33 0.36
38 0.4
39 0.4
4 -0.85
40 0.4
41 0.4
8 0.27

>  <PUBCHEM_EFFECTIVE_ROTOR_COUNT>  (1) 
4.4

>  <PUBCHEM_PHARMACOPHORE_FEATURES>  (1) 
9
1 1 cation
1 1 donor
1 3 donor
1 4 donor
4 2 3 4 17 cation
6 5 6 7 9 10 11 rings
6 5 6 8 9 12 13 rings
7 1 5 7 8 10 12 14 rings
7 1 6 7 8 11 13 14 rings

>  <PUBCHEM_HEAVY_ATOM_COUNT>  (1) 
17

>  <PUBCHEM_ATOM_DEF_STEREO_COUNT>  (1) 
0

>  <PUBCHEM_ATOM_UDEF_STEREO_COUNT>  (1) 
3

>  <PUBCHEM_BOND_DEF_STEREO_COUNT>  (1) 
0

>  <PUBCHEM_BOND_UDEF_STEREO_COUNT>  (1) 
0

>  <PUBCHEM_ISOTOPIC_ATOM_COUNT>  (1) 
0

>  <PUBCHEM_COMPONENT_COUNT>  (1) 
1

>  <PUBCHEM_CACTVS_TAUTO_COUNT>  (1) 
2

>  <PUBCHEM_CONFORMER_ID>  (1) 
00008D4200000002

>  <PUBCHEM_MMFF94_ENERGY>  (1) 
45.0787

>  <PUBCHEM_FEATURE_SELFOVERLAP>  (1) 
55.593

>  <PUBCHEM_SHAPE_FINGERPRINT>  (1) 
10064457 181 14996292451931811696
10382601 240 16806168894629414564
10646746 165 18060420201130091689
10948715 1 17912359033679436608
10980938 120 17822007605805826067
11086676 242 17313370228303781248
12500047 106 17917426574669836015
13134695 92 17132113516093500920
13464514 151 17898869099574720364
14178342 30 18189606318760587210
1601671 61 18040719151583082948
16945 1 15937514031330370178
18186145 218 18343022177401512823
200 152 12607408788729069779
20233049 118 18113335306118017988
20645477 70 15985111816017743854
21503847 285 18041003942121753461
22892500 29 17632571673751301128
23402539 116 17561360660685523473
23419403 2 16699473162838745258
23557571 272 17774158045397618827
23559900 14 17060345084870925246
296302 2 18341896354719672500
3060560 45 18342737407984965582
347723 3 17095532777612964014
5281201 14 17275393096907277533
633830 44 18059858338109195423
74978 22 18338802324577731399
7832392 63 18409730702783048151

>  <PUBCHEM_SHAPE_MULTIPOLES>  (1) 
329.93
7.84
1.57
1.41
12.1
0.01
-0.02
-1.88
0.01
-0.39
0.08
-0.7
-0.16
-0.18

>  <PUBCHEM_SHAPE_SELFOVERLAP>  (1) 
689.324

>  <PUBCHEM_SHAPE_VOLUME>  (1) 
175.5

>  <PUBCHEM_COORDINATE_TYPE>  (1) 
2
5
10

$$$$
