36160
     RDKit          3D

 21 22  0  0  0  0  0  0  0  0999 V2000
    0.5945    1.1816   -2.7652 Br  0  0  0  0  0  0  0  0  0  0  0  0
    0.5917    0.8839    2.8729 Br  0  0  0  0  0  0  0  0  0  0  0  0
    3.5712   -0.6842    2.8526 Br  0  0  0  0  0  0  0  0  0  0  0  0
    3.5736   -0.3806   -2.9070 Br  0  0  0  0  0  0  0  0  0  0  0  0
    5.0595   -1.3128   -0.0678 Br  0  0  0  0  0  0  0  0  0  0  0  0
   -2.9576    3.1835    0.1639 Br  0  0  0  0  0  0  0  0  0  0  0  0
   -2.1270   -3.3399   -0.1715 Br  0  0  0  0  0  0  0  0  0  0  0  0
   -5.2916   -1.9383   -0.0994 Br  0  0  0  0  0  0  0  0  0  0  0  0
   -0.3231    1.5141    0.0788 O   0  0  0  0  0  0  0  0  0  0  0  0
    0.9015    0.8708    0.0454 C   0  0  0  0  0  0  0  0  0  0  0  0
   -1.4448    0.7402    0.0374 C   0  0  0  0  0  0  0  0  0  0  0  0
    1.5046    0.6181   -1.1772 C   0  0  0  0  0  0  0  0  0  0  0  0
    1.5035    0.4905    1.2354 C   0  0  0  0  0  0  0  0  0  0  0  0
    2.7380   -0.1579    1.2019 C   0  0  0  0  0  0  0  0  0  0  0  0
    2.7390   -0.0306   -1.2109 C   0  0  0  0  0  0  0  0  0  0  0  0
    3.3558   -0.4185   -0.0213 C   0  0  0  0  0  0  0  0  0  0  0  0
   -2.7198    1.3053    0.0666 C   0  0  0  0  0  0  0  0  0  0  0  0
   -1.2972   -0.6449   -0.0343 C   0  0  0  0  0  0  0  0  0  0  0  0
   -2.4247   -1.4650   -0.0768 C   0  0  0  0  0  0  0  0  0  0  0  0
   -3.8473    0.4851    0.0242 C   0  0  0  0  0  0  0  0  0  0  0  0
   -3.6998   -0.9001   -0.0475 C   0  0  0  0  0  0  0  0  0  0  0  0
  1 12  1  0
  2 13  1  0
  3 14  1  0
  4 15  1  0
  5 16  1  0
  6 17  1  0
  7 19  1  0
  8 21  1  0
  9 10  1  0
  9 11  1  0
 10 12  2  0
 10 13  1  0
 11 17  2  0
 11 18  1  0
 12 15  1  0
 13 14  2  0
 14 16  1  0
 15 16  2  0
 17 20  1  0
 18 19  2  0
 19 21  1  0
 20 21  2  0
M  END
>  <PUBCHEM_COMPOUND_CID>  (1) 
36160

>  <PUBCHEM_CONFORMER_RMSD>  (1) 
0.6

>  <PUBCHEM_CONFORMER_DIVERSEORDER>  (1) 
1
2
3

>  <PUBCHEM_MMFF94_PARTIAL_CHARGES>  (1) 
23
1 -0.11
10 0.08
11 0.08
12 0.11
13 0.11
14 0.11
15 0.11
16 0.11
17 0.11
18 -0.15
19 0.11
2 -0.11
20 -0.15
21 0.11
22 0.15
23 0.15
3 -0.11
4 -0.11
5 -0.11
6 -0.11
7 -0.11
8 -0.11
9 -0.17

>  <PUBCHEM_EFFECTIVE_ROTOR_COUNT>  (1) 
2

>  <PUBCHEM_PHARMACOPHORE_FEATURES>  (1) 
11
1 1 hydrophobe
1 2 hydrophobe
1 3 hydrophobe
1 4 hydrophobe
1 5 hydrophobe
1 6 hydrophobe
1 7 hydrophobe
1 8 hydrophobe
1 9 acceptor
6 10 12 13 14 15 16 rings
6 11 17 18 19 20 21 rings

>  <PUBCHEM_HEAVY_ATOM_COUNT>  (1) 
21

>  <PUBCHEM_ATOM_DEF_STEREO_COUNT>  (1) 
0

>  <PUBCHEM_ATOM_UDEF_STEREO_COUNT>  (1) 
0

>  <PUBCHEM_BOND_DEF_STEREO_COUNT>  (1) 
0

>  <PUBCHEM_BOND_UDEF_STEREO_COUNT>  (1) 
0

>  <PUBCHEM_ISOTOPIC_ATOM_COUNT>  (1) 
0

>  <PUBCHEM_COMPONENT_COUNT>  (1) 
1

>  <PUBCHEM_CACTVS_TAUTO_COUNT>  (1) 
1

>  <PUBCHEM_CONFORMER_ID>  (1) 
00008D4000000001

>  <PUBCHEM_MMFF94_ENERGY>  (1) 
73.6141

>  <PUBCHEM_FEATURE_SELFOVERLAP>  (1) 
55.83

>  <PUBCHEM_SHAPE_FINGERPRINT>  (1) 
11471102 22 16200435754080876808
11582403 64 16837075947068611337
11725454 13 17127008393095497281
11796584 16 18126850383230921302
12236239 1 17821733801376955477
12403259 327 18057579058514651682
12553582 1 18338521966582817455
12633257 1 16916788543064828047
12714826 92 18201454583246860855
12788726 201 18334870449695839969
13009979 54 18113333085598716721
13134695 92 16128378108619613208
13583140 156 17560504115251927454
14022347 108 18265054811665225651
14294032 229 18118965785939613845
15842332 3 17749395814826087145
16752209 62 18334283280717287467
16945 1 18411419483960765041
17804303 29 18343300379449581307
1813 80 17096635510171053650
19049666 15 17560522772595395873
19862831 5 17095241453542799563
20511986 3 17967526900521743036
20600515 1 18129664080457117136
20645477 70 15285355102614478280
21065201 7 18271246019168599171
21781051 124 18188784971771476299
22112679 90 17749661896618929504
23175994 123 17060342885583886529
23419403 2 15955755057873417209
23526113 38 17273972450174028593
23557571 272 18131071536633214865
23559900 14 18058453089266050414
23598288 3 18041860432221765721
23598291 2 17748836184744982668
238 59 14996830134629702899
2748010 2 14977997481343616976
3060560 45 15213293166565067482
474 4 16952262147099881196
59755656 215 18341047424859802119
602551 16 18412822465367061858
7471813 234 16733248089526863308
77492 1 17749393628629711233
81228 2 16555691169129422584

>  <PUBCHEM_SHAPE_MULTIPOLES>  (1) 
473.84
9.23
2.74
2.71
1.54
0.14
0.38
-0.39
4.79
-4.27
-0.56
4.06
-0.12
-0.69

>  <PUBCHEM_SHAPE_SELFOVERLAP>  (1) 
903.053

>  <PUBCHEM_SHAPE_VOLUME>  (1) 
307.3

>  <PUBCHEM_COORDINATE_TYPE>  (1) 
2
5
10

$$$$
