36170
     RDKit          3D

 17 19  0  0  1  0  0  0  0  0999 V2000
    0.3596   -0.9564    0.3670 N   0  0  0  0  0  0  0  0  0  0  0  0
   -1.1723    0.7020   -0.1604 N   0  0  0  0  0  0  0  0  0  0  0  0
   -4.7584   -0.1451    0.3049 N   0  0  0  0  0  0  0  0  0  0  0  0
    3.1421    0.5393    1.1070 C   0  0  0  0  0  0  0  0  0  0  0  0
    3.0802   -0.2726   -1.2632 C   0  0  0  0  0  0  0  0  0  0  0  0
    3.9790    0.2646   -0.1457 C   0  0  0  0  0  0  0  0  0  0  0  0
    1.2110    1.2484   -0.4106 C   0  0  0  0  0  0  0  0  0  0  0  0
    2.0795    1.5996    0.7999 C   0  0  0  0  0  0  0  0  0  0  0  0
    2.0163    0.7702   -1.6212 C   0  0  0  0  0  0  0  0  0  0  0  0
    1.7094   -1.4980    0.5171 C   0  0  0  0  0  0  0  0  0  0  0  0
    2.5013   -0.7631    1.6009 C   0  0  0  0  0  0  0  0  0  0  0  0
    2.4380   -1.5940   -0.8249 C   0  0  0  0  0  0  0  0  0  0  0  0
    0.1194    0.2459   -0.0386 C   0  0  0  0  0  0  0  0  0  0  0  0
   -2.3168   -0.0930    0.1774 C   0  0  0  0  0  0  0  0  0  0  0  0
   -3.6075    0.6892   -0.0161 C   0  0  0  0  0  0  0  0  0  0  0  0
   -4.7770   -1.3444   -0.5350 C   0  0  0  0  0  0  0  0  0  0  0  0
   -6.0036    0.6076    0.1414 C   0  0  0  0  0  0  0  0  0  0  0  0
  1 10  1  0
  1 13  2  0
  2 13  1  0
  2 14  1  0
  3 15  1  0
  3 16  1  0
  3 17  1  0
  4  6  1  0
  4  8  1  0
  4 11  1  0
  5  6  1  0
  5  9  1  0
  5 12  1  0
  7  8  1  0
  7  9  1  0
  7 13  1  0
 10 11  1  0
 10 12  1  0
 14 15  1  0
M  END
>  <PUBCHEM_COMPOUND_CID>  (1) 
36170

>  <PUBCHEM_CONFORMER_RMSD>  (1) 
0.6

>  <PUBCHEM_CONFORMER_DIVERSEORDER>  (1) 
2
95
98
53
77
28
63
30
84
16
72
81
69
57
101
93
25
68
37
102
43
99
9
94
52
1
100
91
92
13
103
42
61
82
31
15
64
80
78
73
59
23
18
44
60
54
40
36
7
38
56
6
49
96
85
22
20
79
89
75
39
67
71
58
90
62
50
27
35
19
51
5
34
41
66
17
87
74
55
4
76
83
10
47
86
48
11
21
12
97
3
46
26
88
8
70
32
24
45
33
65
14
29

>  <PUBCHEM_MMFF94_PARTIAL_CHARGES>  (1) 
11
1 -0.7
10 0.25
13 0.44
14 0.37
15 0.27
16 0.27
17 0.27
2 -0.82
3 -0.81
32 0.4
7 0.06

>  <PUBCHEM_EFFECTIVE_ROTOR_COUNT>  (1) 
5

>  <PUBCHEM_PHARMACOPHORE_FEATURES>  (1) 
7
1 2 donor
1 3 cation
3 1 2 13 cation
6 4 5 6 10 11 12 rings
6 4 5 6 7 8 9 rings
7 1 4 7 8 10 11 13 rings
7 1 5 7 9 10 12 13 rings

>  <PUBCHEM_HEAVY_ATOM_COUNT>  (1) 
17

>  <PUBCHEM_ATOM_DEF_STEREO_COUNT>  (1) 
0

>  <PUBCHEM_ATOM_UDEF_STEREO_COUNT>  (1) 
2

>  <PUBCHEM_BOND_DEF_STEREO_COUNT>  (1) 
0

>  <PUBCHEM_BOND_UDEF_STEREO_COUNT>  (1) 
0

>  <PUBCHEM_ISOTOPIC_ATOM_COUNT>  (1) 
0

>  <PUBCHEM_COMPONENT_COUNT>  (1) 
1

>  <PUBCHEM_CACTVS_TAUTO_COUNT>  (1) 
2

>  <PUBCHEM_CONFORMER_ID>  (1) 
00008D4A00000002

>  <PUBCHEM_MMFF94_ENERGY>  (1) 
42.2297

>  <PUBCHEM_FEATURE_SELFOVERLAP>  (1) 
45.597

>  <PUBCHEM_SHAPE_FINGERPRINT>  (1) 
12616999 72 17385450903285123686
13464513 79 18335421283456965436
14252887 29 18059860558021841840
15788980 27 15357690895117611371
16945 1 18042103458935767464
18186145 218 18131634465565200881
20645477 70 15719390607739937241
22646028 1 18259981583315141411
23402655 69 18334014965330493885
23557571 272 17275107180876711929
23559900 14 17846784009384182815
239999 70 17989210373137470055
300161 21 18410848859581098901
3060560 45 18272936020417988302
4047638 21 16272206409875089352
4990 188 18202571674022883279
522135 26 14405185058058571951
54040823 5 17240486896938944952
542803 24 15285359509999899461
9999458 23 17168145676372362516

>  <PUBCHEM_SHAPE_MULTIPOLES>  (1) 
334.91
10.16
1.48
1.24
20.13
0.22
-0.05
0.16
0.01
-0.47
0
-1.36
0.03
-0.13

>  <PUBCHEM_SHAPE_SELFOVERLAP>  (1) 
696.571

>  <PUBCHEM_SHAPE_VOLUME>  (1) 
184.1

>  <PUBCHEM_COORDINATE_TYPE>  (1) 
2
5
10

$$$$
