36178
     RDKit          3D

 22 25  0  0  1  0  0  0  0  0999 V2000
    1.6504    0.1086    0.9296 N   0  0  0  0  0  0  0  0  0  0  0  0
    0.4181   -0.9020   -0.7543 N   0  0  0  0  0  0  0  0  0  0  0  0
   -3.1881   -1.4631   -0.1075 N   0  0  0  0  0  0  0  0  0  0  0  0
    4.7515   -0.7104    0.4413 C   0  0  0  0  0  0  0  0  0  0  0  0
    4.1867    1.5441   -0.4963 C   0  0  0  0  0  0  0  0  0  0  0  0
    5.3267    0.5926   -0.1214 C   0  0  0  0  0  0  0  0  0  0  0  0
    2.8004   -0.4869   -1.1951 C   0  0  0  0  0  0  0  0  0  0  0  0
    3.8876   -1.3985   -0.6205 C   0  0  0  0  0  0  0  0  0  0  0  0
    3.3104    0.9046   -1.5782 C   0  0  0  0  0  0  0  0  0  0  0  0
    2.8731    0.6579    1.5135 C   0  0  0  0  0  0  0  0  0  0  0  0
    3.9437   -0.4175    1.7110 C   0  0  0  0  0  0  0  0  0  0  0  0
    3.3656    1.8900    0.7514 C   0  0  0  0  0  0  0  0  0  0  0  0
    1.5975   -0.3984   -0.2569 C   0  0  0  0  0  0  0  0  0  0  0  0
   -0.8149   -0.8701   -0.0233 C   0  0  0  0  0  0  0  0  0  0  0  0
   -1.9374   -1.4793   -0.8582 C   0  0  0  0  0  0  0  0  0  0  0  0
   -3.9707   -0.3110   -0.0453 C   0  0  0  0  0  0  0  0  0  0  0  0
   -3.6010   -2.6888    0.5624 C   0  0  0  0  0  0  0  0  0  0  0  0
   -4.9293   -0.1527    0.9671 C   0  0  0  0  0  0  0  0  0  0  0  0
   -3.8138    0.7105   -0.9944 C   0  0  0  0  0  0  0  0  0  0  0  0
   -5.7128    0.9998    1.0288 C   0  0  0  0  0  0  0  0  0  0  0  0
   -4.5972    1.8630   -0.9327 C   0  0  0  0  0  0  0  0  0  0  0  0
   -5.5466    2.0075    0.0790 C   0  0  0  0  0  0  0  0  0  0  0  0
  1 10  1  0
  1 13  2  0
  2 13  1  0
  2 14  1  0
  3 15  1  0
  3 16  1  0
  3 17  1  0
  4  6  1  0
  4  8  1  0
  4 11  1  0
  5  6  1  0
  5  9  1  0
  5 12  1  0
  7  8  1  0
  7  9  1  0
  7 13  1  0
 10 11  1  0
 10 12  1  0
 14 15  1  0
 16 18  2  0
 16 19  1  0
 18 20  1  0
 19 21  2  0
 20 22  2  0
 21 22  1  0
M  END
>  <PUBCHEM_COMPOUND_CID>  (1) 
36178

>  <PUBCHEM_CONFORMER_RMSD>  (1) 
0.8

>  <PUBCHEM_CONFORMER_DIVERSEORDER>  (1) 
9
50
22
2
76
58
68
7
4
24
38
26
31
32
51
30
57
60
40
54
44
41
48
56
64
55
79
19
6
72
36
42
27
80
14
73
43
81
39
35
82
11
52
10
20
61
66
62
29
46
49
69
45
25
70
23
75
53
18
78
37
17
3
28
59
12
33
77
8
34
71
74
1
63
13
15
65
67
47
21
5
16

>  <PUBCHEM_MMFF94_PARTIAL_CHARGES>  (1) 
21
1 -0.7
10 0.25
13 0.44
14 0.37
15 0.37
16 0.1
17 0.37
18 -0.15
19 -0.15
2 -0.82
20 -0.15
21 -0.15
22 -0.15
3 -0.84
37 0.4
45 0.15
46 0.15
47 0.15
48 0.15
49 0.15
7 0.06

>  <PUBCHEM_EFFECTIVE_ROTOR_COUNT>  (1) 
6

>  <PUBCHEM_PHARMACOPHORE_FEATURES>  (1) 
8
1 2 donor
1 3 cation
3 1 2 13 cation
6 16 18 19 20 21 22 rings
6 4 5 6 10 11 12 rings
6 4 5 6 7 8 9 rings
7 1 4 7 8 10 11 13 rings
7 1 5 7 9 10 12 13 rings

>  <PUBCHEM_HEAVY_ATOM_COUNT>  (1) 
22

>  <PUBCHEM_ATOM_DEF_STEREO_COUNT>  (1) 
0

>  <PUBCHEM_ATOM_UDEF_STEREO_COUNT>  (1) 
2

>  <PUBCHEM_BOND_DEF_STEREO_COUNT>  (1) 
0

>  <PUBCHEM_BOND_UDEF_STEREO_COUNT>  (1) 
0

>  <PUBCHEM_ISOTOPIC_ATOM_COUNT>  (1) 
0

>  <PUBCHEM_COMPONENT_COUNT>  (1) 
1

>  <PUBCHEM_CACTVS_TAUTO_COUNT>  (1) 
2

>  <PUBCHEM_CONFORMER_ID>  (1) 
00008D5200000009

>  <PUBCHEM_MMFF94_ENERGY>  (1) 
70.7619

>  <PUBCHEM_FEATURE_SELFOVERLAP>  (1) 
50.674

>  <PUBCHEM_SHAPE_FINGERPRINT>  (1) 
11089746 13 16200425862734420394
11370993 144 18410575054988912623
11405975 8 18408882936273622298
11552529 35 16733843032718261427
11595378 159 17168139010092879285
12107183 9 17826216411625810075
12596602 18 16877670080081039745
12616971 3 17385725815472444822
12633257 1 18260829306690668293
13583140 156 18130504231694076023
14251758 9 18334854970164525279
146900 427 14273753866470536886
15142383 8 17822283540374880492
15183329 4 14404904653283287273
15238133 3 18341047502073981832
15788980 27 18260265252439885203
1601671 61 18341895212295645980
17349148 13 15339122342336565886
17844677 252 18337678632067684267
17857418 61 9727638293248941989
19377110 9 17096093609572358935
20645477 56 18410012122547617791
21033648 29 17988917907445074019
21315759 148 17604162483617545171
21421861 104 18115577146435605954
21503847 285 17822012021222065268
22289505 5 17632581539607658336
23559900 14 18272938189534942630
239999 70 11314317135451127746
2838139 119 17560795473571151337
341906 21 18410851092352234577
3737641 26 15575542541013193138
465052 167 11891330950735461864
5104073 3 18261670462760330554
542803 24 18187365441053386378
633830 44 18408598188748252926
90127 26 18337960085501155691
960060 61 13758075199018428480

>  <PUBCHEM_SHAPE_MULTIPOLES>  (1) 
437.81
15.01
2.12
1.39
9.61
0.21
0.15
-5.02
1.87
1.99
-0.05
-0.77
-0.16
0.34

>  <PUBCHEM_SHAPE_SELFOVERLAP>  (1) 
935.723

>  <PUBCHEM_SHAPE_VOLUME>  (1) 
234.3

>  <PUBCHEM_COORDINATE_TYPE>  (1) 
2
5
10

$$$$
