36176
     RDKit          3D

 21 24  0  0  1  0  0  0  0  0999 V2000
   -2.1873   -1.2243   -0.6807 N   0  0  0  0  0  0  0  0  0  0  0  0
   -0.1384   -0.5783    0.1913 N   0  0  0  0  0  0  0  0  0  0  0  0
    2.6489   -0.3227   -0.4545 N   0  0  0  0  0  0  0  0  0  0  0  0
   -4.4673    0.0314    1.2560 C   0  0  0  0  0  0  0  0  0  0  0  0
   -4.0455    1.4336   -0.7780 C   0  0  0  0  0  0  0  0  0  0  0  0
   -4.9933    1.1868    0.3994 C   0  0  0  0  0  0  0  0  0  0  0  0
   -2.0879    0.8130    0.7444 C   0  0  0  0  0  0  0  0  0  0  0  0
   -3.0892    0.3892    1.8218 C   0  0  0  0  0  0  0  0  0  0  0  0
   -2.6582    1.8214   -0.2561 C   0  0  0  0  0  0  0  0  0  0  0  0
   -3.6285   -1.0892   -0.8867 C   0  0  0  0  0  0  0  0  0  0  0  0
   -4.4088   -1.2522    0.4195 C   0  0  0  0  0  0  0  0  0  0  0  0
   -3.9770    0.1830   -1.6622 C   0  0  0  0  0  0  0  0  0  0  0  0
   -1.4930   -0.4006    0.0314 C   0  0  0  0  0  0  0  0  0  0  0  0
    0.5888   -1.6443   -0.4336 C   0  0  0  0  0  0  0  0  0  0  0  0
    2.0586   -1.5868   -0.0282 C   0  0  0  0  0  0  0  0  0  0  0  0
    3.9596    0.0196   -0.2052 C   0  0  0  0  0  0  0  0  0  0  0  0
    4.8228   -0.8533    0.4920 C   0  0  0  0  0  0  0  0  0  0  0  0
    4.4865    1.2558   -0.6376 C   0  0  0  0  0  0  0  0  0  0  0  0
    6.1499   -0.5063    0.7450 C   0  0  0  0  0  0  0  0  0  0  0  0
    5.8137    1.6027   -0.3847 C   0  0  0  0  0  0  0  0  0  0  0  0
    6.6454    0.7216    0.3066 C   0  0  0  0  0  0  0  0  0  0  0  0
  1 10  1  0
  1 13  2  0
  2 13  1  0
  2 14  1  0
  3 15  1  0
  3 16  1  0
  4  6  1  0
  4  8  1  0
  4 11  1  0
  5  6  1  0
  5  9  1  0
  5 12  1  0
  7  8  1  0
  7  9  1  0
  7 13  1  0
 10 11  1  0
 10 12  1  0
 14 15  1  0
 16 17  2  0
 16 18  1  0
 17 19  1  0
 18 20  2  0
 19 21  2  0
 20 21  1  0
M  END
>  <PUBCHEM_COMPOUND_CID>  (1) 
36176

>  <PUBCHEM_CONFORMER_RMSD>  (1) 
0.8

>  <PUBCHEM_CONFORMER_DIVERSEORDER>  (1) 
1
31
42
3
56
27
36
53
28
21
55
29
18
30
25
15
52
44
46
32
20
7
48
14
26
6
35
34
23
51
2
24
37
9
17
33
10
41
54
49
8
50
12
5
43
45
47
40
39
4
22
16
38
19
13
11

>  <PUBCHEM_MMFF94_PARTIAL_CHARGES>  (1) 
21
1 -0.7
10 0.25
13 0.44
14 0.37
15 0.37
16 0.1
17 -0.15
18 -0.15
19 -0.15
2 -0.82
20 -0.15
21 -0.15
3 -0.87
36 0.4
41 0.4
42 0.15
43 0.15
44 0.15
45 0.15
46 0.15
7 0.06

>  <PUBCHEM_EFFECTIVE_ROTOR_COUNT>  (1) 
6

>  <PUBCHEM_PHARMACOPHORE_FEATURES>  (1) 
9
1 2 donor
1 3 cation
1 3 donor
3 1 2 13 cation
6 16 17 18 19 20 21 rings
6 4 5 6 10 11 12 rings
6 4 5 6 7 8 9 rings
7 1 4 7 8 10 11 13 rings
7 1 5 7 9 10 12 13 rings

>  <PUBCHEM_HEAVY_ATOM_COUNT>  (1) 
21

>  <PUBCHEM_ATOM_DEF_STEREO_COUNT>  (1) 
0

>  <PUBCHEM_ATOM_UDEF_STEREO_COUNT>  (1) 
2

>  <PUBCHEM_BOND_DEF_STEREO_COUNT>  (1) 
0

>  <PUBCHEM_BOND_UDEF_STEREO_COUNT>  (1) 
0

>  <PUBCHEM_ISOTOPIC_ATOM_COUNT>  (1) 
0

>  <PUBCHEM_COMPONENT_COUNT>  (1) 
1

>  <PUBCHEM_CACTVS_TAUTO_COUNT>  (1) 
2

>  <PUBCHEM_CONFORMER_ID>  (1) 
00008D5000000001

>  <PUBCHEM_MMFF94_ENERGY>  (1) 
60.8201

>  <PUBCHEM_FEATURE_SELFOVERLAP>  (1) 
55.75

>  <PUBCHEM_SHAPE_FINGERPRINT>  (1) 
10291535 26 17095792232107713141
10670039 82 18128836187488830700
11315181 36 17489583480587971193
12107183 9 17686330972247248610
12166972 35 18113340838442330676
12236239 1 18411979165940024274
12507557 5 18040155123471622501
12523318 42 16443357519330841881
12596602 18 17167581609617090360
12760667 363 8286211534910239880
13167372 99 18410009910718601080
13288520 33 8070024472030365771
13631057 29 18199742708410711199
13785724 45 17832417606601373586
13914758 101 14273727465718108799
15183329 4 17560808697923051438
15188451 53 15502665956778130643
15348495 7 16732989764592845456
15788980 27 17967814942455930382
17093844 174 11458418063608099678
17349148 13 12612760107188975795
17844677 252 17967255295342993924
1813 80 9367348180208550530
19489759 90 16153706531222213477
20281389 69 18408602587480176320
20325693 3 15195567888443153021
21033648 29 17241030102890946060
2215653 11 9943522968930006617
22950370 63 9511462238781535190
23272321 79 18410576214582388626
23402539 116 18187362129691649406
23559900 14 18123187905287425294
2767999 5 18273212002453176552
2838139 119 18342451552526481252
314173 85 12829205564424360574
34797466 226 15410894102316987008
351380 180 18186801379220549472
4325135 7 18272369793372761119
5104073 3 18114751408554315947
542803 24 18410011039967893706
543368 44 17775567550194411681
5924683 9 16153718677400491283

>  <PUBCHEM_SHAPE_MULTIPOLES>  (1) 
417.23
16.45
1.73
1.21
23.11
0.14
0.13
4.36
1.42
-0.09
-0.25
-1.43
0.07
-0.5

>  <PUBCHEM_SHAPE_SELFOVERLAP>  (1) 
893.842

>  <PUBCHEM_SHAPE_VOLUME>  (1) 
221.1

>  <PUBCHEM_COORDINATE_TYPE>  (1) 
2
5
10

$$$$
