36182
     RDKit          3D

 19 19  0  0  0  0  0  0  0  0999 V2000
   -4.6011    0.3058   -0.1810 O   0  0  0  0  0  0  0  0  0  0  0  0
   -4.0092   -1.8206    0.5013 O   0  0  0  0  0  0  0  0  0  0  0  0
    3.5171   -2.0915   -0.1856 C   0  0  0  0  0  0  0  0  0  0  0  0
    2.1093    2.6970    0.0959 C   0  0  0  0  0  0  0  0  0  0  0  0
    2.4405   -1.0672   -0.0579 C   0  0  0  0  0  0  0  0  0  0  0  0
    1.7599    1.2469    0.0787 C   0  0  0  0  0  0  0  0  0  0  0  0
    2.7668    0.2889   -0.0412 C   0  0  0  0  0  0  0  0  0  0  0  0
    1.1076   -1.4653    0.0453 C   0  0  0  0  0  0  0  0  0  0  0  0
    0.4270    0.8487    0.1818 C   0  0  0  0  0  0  0  0  0  0  0  0
    0.1008   -0.5074    0.1652 C   0  0  0  0  0  0  0  0  0  0  0  0
    4.5057   -2.0568    0.9952 C   0  0  0  0  0  0  0  0  0  0  0  0
    4.2867   -1.9746   -1.5148 C   0  0  0  0  0  0  0  0  0  0  0  0
    2.7784    3.1568   -1.2132 C   0  0  0  0  0  0  0  0  0  0  0  0
    2.9968    3.0745    1.2970 C   0  0  0  0  0  0  0  0  0  0  0  0
   -1.2888   -0.9233    0.2735 C   0  0  0  0  0  0  0  0  0  0  0  0
   -2.3598   -0.1408    0.0141 C   0  0  0  0  0  0  0  0  0  0  0  0
   -3.7298   -0.6850    0.1510 C   0  0  0  0  0  0  0  0  0  0  0  0
   -5.9873   -0.0431   -0.1043 C   0  0  0  0  0  0  0  0  0  0  0  0
   -6.8205    1.1569   -0.5011 C   0  0  0  0  0  0  0  0  0  0  0  0
  1 17  1  0
  1 18  1  0
  2 17  2  0
  3  5  1  0
  3 11  1  0
  3 12  1  0
  4  6  1  0
  4 13  1  0
  4 14  1  0
  5  7  2  0
  5  8  1  0
  6  7  1  0
  6  9  2  0
  8 10  2  0
  9 10  1  0
 10 15  1  0
 15 16  2  0
 16 17  1  0
 18 19  1  0
M  END
>  <PUBCHEM_COMPOUND_CID>  (1) 
36182

>  <PUBCHEM_CONFORMER_RMSD>  (1) 
0.8

>  <PUBCHEM_CONFORMER_DIVERSEORDER>  (1) 
1
15
4
7
20
9
6
17
19
5
14
2
13
12
11
18
3
16
8
10

>  <PUBCHEM_MMFF94_PARTIAL_CHARGES>  (1) 
19
1 -0.43
10 0.03
15 -0.18
16 -0.14
17 0.71
18 0.28
2 -0.57
22 0.15
23 0.15
24 0.15
3 0.14
37 0.15
38 0.15
4 0.14
5 -0.14
6 -0.14
7 -0.15
8 -0.15
9 -0.15

>  <PUBCHEM_EFFECTIVE_ROTOR_COUNT>  (1) 
6

>  <PUBCHEM_PHARMACOPHORE_FEATURES>  (1) 
4
1 2 acceptor
3 3 11 12 hydrophobe
3 4 13 14 hydrophobe
6 5 6 7 8 9 10 rings

>  <PUBCHEM_HEAVY_ATOM_COUNT>  (1) 
19

>  <PUBCHEM_ATOM_DEF_STEREO_COUNT>  (1) 
0

>  <PUBCHEM_ATOM_UDEF_STEREO_COUNT>  (1) 
0

>  <PUBCHEM_BOND_DEF_STEREO_COUNT>  (1) 
0

>  <PUBCHEM_BOND_UDEF_STEREO_COUNT>  (1) 
1

>  <PUBCHEM_ISOTOPIC_ATOM_COUNT>  (1) 
0

>  <PUBCHEM_COMPONENT_COUNT>  (1) 
1

>  <PUBCHEM_CACTVS_TAUTO_COUNT>  (1) 
1

>  <PUBCHEM_CONFORMER_ID>  (1) 
00008D5600000001

>  <PUBCHEM_MMFF94_ENERGY>  (1) 
43.596

>  <PUBCHEM_FEATURE_SELFOVERLAP>  (1) 
20.297

>  <PUBCHEM_SHAPE_FINGERPRINT>  (1) 
11089746 13 18335412440583585031
11405975 8 18408605872871805723
12549972 3 17822586000308404283
12616971 3 18060418019835240687
12617007 42 18342466902655117038
12730499 353 18193850450986597747
13590594 115 18193287303349344569
13878862 14 18265030536489411885
13955234 65 18341333400239260378
14170010 4 18413385441053337656
14178000 15 18272937098602557000
15042514 8 17833828275254616594
15081414 286 18334580183154060173
15420108 30 17913468406725905200
17844677 252 18409174312088531267
1813 80 18129673984856884470
18186145 218 17894904144648856331
18222031 100 18201443519659578518
20369508 70 18409446968906935738
20612939 158 18410862061904560285
20645477 70 18413389860464136271
20832881 197 18188209797285576387
21033648 29 17531235142302971125
21065198 57 18335422396122793283
21065201 7 17240481438209715267
21304303 172 17914621557810123952
21304303 282 16624306497788861644
21403212 168 17916571172895410216
21452121 103 18338789117252707152
21478907 32 17905327325764832098
21503847 285 18260547823007958593
221357 26 18337388241234953885
221490 88 18336557125907604491
22289505 5 18410295813210696532
2255824 54 18409733993134477514
23419403 2 18117248451496611076
23559900 14 18413386540443854147
29717793 49 17846216623214809095
312423 11 18129681758557519769
3411729 13 18337101384896388544
350125 39 18408885113996296549
3886686 26 16388709232285033770
495365 180 18270676579530201856
5104073 3 18409732902465830467
59755656 215 18410575128183094292
633830 44 18187920725081378771
67856867 119 18271516602324518817
7364860 26 18271529796991644032
7471813 234 17846493708139214641
7495541 125 18186243922055838435
81228 2 17906749003363624274
8863177 126 17969804023595234651
90127 26 18041003964471958745
9709674 26 18262804106741536643
9841814 1 18335137579592844506
9971528 1 18131069295018988866
9981440 41 17835794579611858272
9999458 23 18333449837391277887

>  <PUBCHEM_SHAPE_MULTIPOLES>  (1) 
379.27
12.55
3.33
0.99
26.35
2.65
0.12
-1.6
1.48
-5.56
0.02
-1.11
0.18
0.74

>  <PUBCHEM_SHAPE_SELFOVERLAP>  (1) 
765.601

>  <PUBCHEM_SHAPE_VOLUME>  (1) 
224.3

>  <PUBCHEM_COORDINATE_TYPE>  (1) 
2
5
10

$$$$
