36180
     RDKit          3D

  9  9  0  0  0  0  0  0  0  0999 V2000
    1.7372    1.3211    0.0035 O   0  0  0  0  0  0  0  0  0  0  0  0
   -2.0195   -1.1822    0.0115 O   0  0  0  0  0  0  0  0  0  0  0  0
    2.1020   -0.0265    0.0018 N   0  0  0  0  0  0  0  0  0  0  0  0
    0.3488    1.4687    0.0016 N   0  0  0  0  0  0  0  0  0  0  0  0
   -2.3857    1.0676   -0.0044 N   0  0  0  0  0  0  0  0  0  0  0  0
    0.9433   -0.6832   -0.0020 C   0  0  0  0  0  0  0  0  0  0  0  0
   -0.1166    0.2209   -0.0019 C   0  0  0  0  0  0  0  0  0  0  0  0
    0.9168   -2.1525   -0.0048 C   0  0  0  0  0  0  0  0  0  0  0  0
   -1.5262   -0.0338   -0.0053 C   0  0  0  0  0  0  0  0  0  0  0  0
  1  3  1  0
  1  4  1  0
  2  9  2  0
  3  6  2  0
  4  7  2  0
  5  9  1  0
  6  7  1  0
  6  8  1  0
  7  9  1  0
M  END
>  <PUBCHEM_COMPOUND_CID>  (1) 
36180

>  <PUBCHEM_CONFORMER_RMSD>  (1) 
0.4

>  <PUBCHEM_CONFORMER_DIVERSEORDER>  (1) 
1
2
3

>  <PUBCHEM_MMFF94_PARTIAL_CHARGES>  (1) 
11
1 0.24
13 0.37
14 0.37
2 -0.57
3 -0.41
4 -0.41
5 -0.8
6 0.11
7 0.2
8 0.18
9 0.72

>  <PUBCHEM_EFFECTIVE_ROTOR_COUNT>  (1) 
1

>  <PUBCHEM_PHARMACOPHORE_FEATURES>  (1) 
5
1 2 acceptor
1 3 acceptor
1 4 acceptor
1 5 donor
5 1 3 4 6 7 rings

>  <PUBCHEM_HEAVY_ATOM_COUNT>  (1) 
9

>  <PUBCHEM_ATOM_DEF_STEREO_COUNT>  (1) 
0

>  <PUBCHEM_ATOM_UDEF_STEREO_COUNT>  (1) 
0

>  <PUBCHEM_BOND_DEF_STEREO_COUNT>  (1) 
0

>  <PUBCHEM_BOND_UDEF_STEREO_COUNT>  (1) 
0

>  <PUBCHEM_ISOTOPIC_ATOM_COUNT>  (1) 
0

>  <PUBCHEM_COMPONENT_COUNT>  (1) 
1

>  <PUBCHEM_CACTVS_TAUTO_COUNT>  (1) 
2

>  <PUBCHEM_CONFORMER_ID>  (1) 
00008D5400000001

>  <PUBCHEM_MMFF94_ENERGY>  (1) 
9.0039

>  <PUBCHEM_FEATURE_SELFOVERLAP>  (1) 
25.422

>  <PUBCHEM_SHAPE_FINGERPRINT>  (1) 
18185500 45 18340485560678369083
21040471 1 18194682798574285540
23552423 10 18335426729085204055
2748010 2 18338517542249206700
29004967 10 18336270045934703842
5084963 1 18058456580378214058

>  <PUBCHEM_SHAPE_MULTIPOLES>  (1) 
158.53
2.77
1.83
0.56
1.08
0.45
0
-0.13
0
-0.53
0
-0.01
0.03
0.01

>  <PUBCHEM_SHAPE_SELFOVERLAP>  (1) 
324.634

>  <PUBCHEM_SHAPE_VOLUME>  (1) 
93

>  <PUBCHEM_COORDINATE_TYPE>  (1) 
2
5
10

$$$$
