36196
     RDKit          3D

 12 13  0  0  0  0  0  0  0  0999 V2000
    0.9332    1.3745    0.0001 N   0  0  0  0  0  0  0  0  0  0  0  0
    2.1291    0.8024    0.0000 N   0  0  0  0  0  0  0  0  0  0  0  0
   -0.1810   -0.7280    0.0000 C   0  0  0  0  0  0  0  0  0  0  0  0
   -0.2187    0.6789   -0.0002 C   0  0  0  0  0  0  0  0  0  0  0  0
    1.0593   -1.3501    0.0001 C   0  0  0  0  0  0  0  0  0  0  0  0
   -1.3878   -1.4459    0.0000 C   0  0  0  0  0  0  0  0  0  0  0  0
   -1.4469    1.3484   -0.0002 C   0  0  0  0  0  0  0  0  0  0  0  0
    2.1734   -0.5413   -0.0003 C   0  0  0  0  0  0  0  0  0  0  0  0
    1.2339   -2.8305    0.0002 C   0  0  0  0  0  0  0  0  0  0  0  0
   -2.6092   -0.7702    0.0000 C   0  0  0  0  0  0  0  0  0  0  0  0
   -2.6383    0.6235    0.0001 C   0  0  0  0  0  0  0  0  0  0  0  0
    0.9529    2.8384    0.0002 C   0  0  0  0  0  0  0  0  0  0  0  0
  1  2  2  0
  1  4  1  0
  1 12  1  0
  2  8  1  0
  3  4  2  0
  3  5  1  0
  3  6  1  0
  4  7  1  0
  5  8  2  0
  5  9  1  0
  6 10  2  0
  7 11  2  0
 10 11  1  0
M  CHG  1   1   1
M  END
>  <PUBCHEM_COMPOUND_CID>  (1) 
36196

>  <PUBCHEM_CONFORMER_RMSD>  (1) 
0.4

>  <PUBCHEM_CONFORMER_DIVERSEORDER>  (1) 
1

>  <PUBCHEM_MMFF94_PARTIAL_CHARGES>  (1) 
16
1 0.1
10 -0.15
11 -0.15
12 0.49
13 0.15
14 0.15
15 0.15
19 0.15
2 -0.26
23 0.15
4 0.36
5 -0.14
6 -0.15
7 -0.15
8 0.16
9 0.14

>  <PUBCHEM_EFFECTIVE_ROTOR_COUNT>  (1) 
0

>  <PUBCHEM_PHARMACOPHORE_FEATURES>  (1) 
2
6 1 2 3 4 5 8 rings
6 3 4 6 7 10 11 rings

>  <PUBCHEM_HEAVY_ATOM_COUNT>  (1) 
12

>  <PUBCHEM_ATOM_DEF_STEREO_COUNT>  (1) 
0

>  <PUBCHEM_ATOM_UDEF_STEREO_COUNT>  (1) 
0

>  <PUBCHEM_BOND_DEF_STEREO_COUNT>  (1) 
0

>  <PUBCHEM_BOND_UDEF_STEREO_COUNT>  (1) 
0

>  <PUBCHEM_ISOTOPIC_ATOM_COUNT>  (1) 
0

>  <PUBCHEM_COMPONENT_COUNT>  (1) 
1

>  <PUBCHEM_CACTVS_TAUTO_COUNT>  (1) 
1

>  <PUBCHEM_CONFORMER_ID>  (1) 
00008D6400000001

>  <PUBCHEM_MMFF94_ENERGY>  (1) 
40.0557

>  <PUBCHEM_FEATURE_SELFOVERLAP>  (1) 
10.181

>  <PUBCHEM_SHAPE_FINGERPRINT>  (1) 
10967382 1 18338517439175318151
12524768 44 18126567812599531271
16945 1 18410575097780108871
17990270 104 18410292484584551195
193761 8 17834114139465967716
21040471 1 17834394901230304324
2334 1 17906171011785840135
23463225 33 18335133164313553914
23552423 10 18410012165069938327
23559900 14 18198633125691028046
241688 4 17978229357253141187
2748010 2 18122904231249717455
5084963 1 17986959737280988427
528886 8 18411414054995340099
63268167 104 18338237051004649153
66348 1 18267867181345060879
7364860 26 18342176673917605346

>  <PUBCHEM_SHAPE_MULTIPOLES>  (1) 
236.99
3.24
2.85
0.6
1.02
0.83
0
-0.8
0
-1.09
0
0.02
-0.02
0

>  <PUBCHEM_SHAPE_SELFOVERLAP>  (1) 
514.965

>  <PUBCHEM_SHAPE_VOLUME>  (1) 
130.8

>  <PUBCHEM_COORDINATE_TYPE>  (1) 
2
5
10

$$$$
