36197
     RDKit          3D

 17 18  0  0  0  0  0  0  0  0999 V2000
    1.0095   -0.3024   -0.0386 O   0  0  0  0  0  0  0  0  0  0  0  0
    5.5330    0.2445    0.0536 O   0  0  0  0  0  0  0  0  0  0  0  0
   -1.0701   -1.9821   -0.2621 O   0  0  0  0  0  0  0  0  0  0  0  0
    1.6540    1.8793    0.2661 O   0  0  0  0  0  0  0  0  0  0  0  0
   -0.3125    0.1771    0.0222 N   0  0  0  0  0  0  0  0  0  0  0  0
   -2.6888   -0.2933   -0.0520 C   0  0  0  0  0  0  0  0  0  0  0  0
    3.3167    0.2077    0.0408 C   0  0  0  0  0  0  0  0  0  0  0  0
   -3.7056   -1.1445    0.3807 C   0  0  0  0  0  0  0  0  0  0  0  0
   -2.9880    1.0168   -0.4262 C   0  0  0  0  0  0  0  0  0  0  0  0
   -1.3168   -0.7715   -0.1125 C   0  0  0  0  0  0  0  0  0  0  0  0
   -5.0216   -0.6858    0.4391 C   0  0  0  0  0  0  0  0  0  0  0  0
   -4.3040    1.4754   -0.3677 C   0  0  0  0  0  0  0  0  0  0  0  0
    3.7474   -1.1067   -0.1403 C   0  0  0  0  0  0  0  0  0  0  0  0
   -5.3208    0.6241    0.0650 C   0  0  0  0  0  0  0  0  0  0  0  0
    1.9366    0.6964    0.1027 C   0  0  0  0  0  0  0  0  0  0  0  0
    4.4100    1.0029    0.1552 C   0  0  0  0  0  0  0  0  0  0  0  0
    5.1211   -1.0379   -0.1261 C   0  0  0  0  0  0  0  0  0  0  0  0
  1  5  1  0
  1 15  1  0
  2 16  1  0
  2 17  1  0
  3 10  2  0
  4 15  2  0
  5 10  1  0
  6  8  2  0
  6  9  1  0
  6 10  1  0
  7 13  1  0
  7 15  1  0
  7 16  2  0
  8 11  1  0
  9 12  2  0
 11 14  2  0
 12 14  1  0
 13 17  2  0
M  END
>  <PUBCHEM_COMPOUND_CID>  (1) 
36197

>  <PUBCHEM_CONFORMER_RMSD>  (1) 
0.6

>  <PUBCHEM_CONFORMER_DIVERSEORDER>  (1) 
1
81
166
163
127
46
192
165
101
169
119
277
195
28
79
175
278
39
18
47
260
221
53
42
268
105
65
212
161
14
67
32
230
26
148
154
208
153
4
217
171
248
82
77
3
137
88
252
264
6
178
120
263
200
29
181
207
27
133
10
136
94
151
22
189
194
274
152
64
35
224
98
24
237
69
91
172
123
266
167
84
155
280
2
255
21
239
281
99
220
140
63
55
129
102
232
269
227
66
244
9
276
245
159
107
132
271
93
108
246
118
90
33
139
141
17
228
25
144
147
8
23
117
75
109
145
190
146
143
240
198
275
256
7
70
40
12
138
37
41
249
251
19
134
111
58
78
235
106
20
135
177
115
209
15
272
83
103
116
243
87
199
185
44
233
74
16
254
59
186
54
238
158
122
43
49
95
234
50
11
128
92
242
259
202
100
262
57
5
112
216
174
38
36
247
61
48
236
203
241
60
13
131
225
51
130
191
229
80
142
231
110
210
188
250
113
214
114
71
193
205
215
201
45
223
187
219
97
265
89
86
222
124
196
85
72
279
211
162
197
270
73
62
182
180
179
183
253
149
56
213
206
31
261
164
68
121
157
257
204
96
76
226
34
52
126
125
267
273
30
218
150
160
258
156
104
176
168
173
170
184

>  <PUBCHEM_MMFF94_PARTIAL_CHARGES>  (1) 
26
1 -0.19
10 0.54
11 -0.15
12 -0.15
13 -0.15
14 -0.15
15 0.81
16 -0.01
17 -0.01
18 0.15
19 0.15
2 -0.28
20 0.15
21 0.15
22 0.15
23 0.15
24 0.15
25 0.37
26 0.15
3 -0.57
4 -0.57
5 -0.39
6 0.09
7 -0.09
8 -0.15
9 -0.15

>  <PUBCHEM_EFFECTIVE_ROTOR_COUNT>  (1) 
5

>  <PUBCHEM_PHARMACOPHORE_FEATURES>  (1) 
6
1 2 acceptor
1 3 acceptor
1 4 acceptor
1 5 donor
5 2 7 13 16 17 rings
6 6 8 9 11 12 14 rings

>  <PUBCHEM_HEAVY_ATOM_COUNT>  (1) 
17

>  <PUBCHEM_ATOM_DEF_STEREO_COUNT>  (1) 
0

>  <PUBCHEM_ATOM_UDEF_STEREO_COUNT>  (1) 
0

>  <PUBCHEM_BOND_DEF_STEREO_COUNT>  (1) 
0

>  <PUBCHEM_BOND_UDEF_STEREO_COUNT>  (1) 
0

>  <PUBCHEM_ISOTOPIC_ATOM_COUNT>  (1) 
0

>  <PUBCHEM_COMPONENT_COUNT>  (1) 
1

>  <PUBCHEM_CACTVS_TAUTO_COUNT>  (1) 
2

>  <PUBCHEM_CONFORMER_ID>  (1) 
00008D6500000001

>  <PUBCHEM_MMFF94_ENERGY>  (1) 
34.333

>  <PUBCHEM_FEATURE_SELFOVERLAP>  (1) 
30.447

>  <PUBCHEM_SHAPE_FINGERPRINT>  (1) 
12107183 9 17540525825640036153
12236239 1 17458346338057607036
12916748 109 18334861610262904049
13167823 11 18409164432751543099
13533116 47 16630250208514369198
13675066 3 18411980299278315746
14123238 8 18411138043243410118
14251731 8 18408886221917958645
14341114 176 18335426776583032353
15042514 8 18191592059126860363
15099037 51 18413951684908993327
15196674 1 18410011043883059396
15242433 33 18411420626928422582
17834072 33 18410856594337216132
17834072 8 18341334414020262446
17834076 25 15410897357659376678
17844677 252 18335427871573183773
1813 80 16732704934988039006
19433438 28 18334858346499267881
200 152 17632574946648119297
20645477 56 18411132580024066441
20645477 70 18272655602367430662
21065198 57 18338516451269445736
21267235 1 18409456885674900018
21279426 13 18195247711069175294
23218964 4 18409165485123635854
23402539 116 18060132146358422717
23536379 177 18260547805748818928
23559900 14 18131346445227344464
300161 21 17988636428700766946
3004659 81 18261114029100738054
351380 180 18412543223820759237
3545911 37 18409167693106039161
42 15 18334577949084510214
4214541 1 18410011048088212961
42788 4 18410012134709664114
5104073 3 18410291432243497128
542803 24 16487258780797033848
6430166 295 18410009931512780117
77779 3 18335702770949241216
90127 26 18113626693942629320

>  <PUBCHEM_SHAPE_MULTIPOLES>  (1) 
321.39
13.61
1.57
0.64
3.75
0.01
0
0.41
0.46
-0.3
-0.04
-0.16
0
0.56

>  <PUBCHEM_SHAPE_SELFOVERLAP>  (1) 
692.654

>  <PUBCHEM_SHAPE_VOLUME>  (1) 
177.3

>  <PUBCHEM_COORDINATE_TYPE>  (1) 
2
5
10

$$$$
