36206
     RDKit          3D

 17 18  0  0  1  0  0  0  0  0999 V2000
    0.2703   -0.3396   -1.7301 S   0  0  0  0  0  0  0  0  0  0  0  0
    0.5570   -1.6759   -2.3546 O   0  0  0  0  0  0  0  0  0  0  0  0
   -1.8690    2.6813    0.6013 O   0  0  0  0  0  0  0  0  0  0  0  0
   -1.2029    2.1453   -1.5047 O   0  0  0  0  0  0  0  0  0  0  0  0
   -0.9900   -0.6336   -0.4791 C   0  0  0  0  0  0  0  0  0  0  0  0
   -1.7523    0.4093    0.0473 C   0  0  0  0  0  0  0  0  0  0  0  0
    1.5877   -0.0733   -0.5197 C   0  0  0  0  0  0  0  0  0  0  0  0
   -1.1956   -1.9402   -0.0361 C   0  0  0  0  0  0  0  0  0  0  0  0
   -2.7200    0.1458    1.0166 C   0  0  0  0  0  0  0  0  0  0  0  0
    2.3406   -1.1533   -0.0826 C   0  0  0  0  0  0  0  0  0  0  0  0
    1.8282    1.2075   -0.0441 C   0  0  0  0  0  0  0  0  0  0  0  0
   -2.1635   -2.2038    0.9330 C   0  0  0  0  0  0  0  0  0  0  0  0
   -2.9256   -1.1608    1.4597 C   0  0  0  0  0  0  0  0  0  0  0  0
    3.3567   -0.9477    0.8509 C   0  0  0  0  0  0  0  0  0  0  0  0
    2.8443    1.4130    0.8891 C   0  0  0  0  0  0  0  0  0  0  0  0
   -1.5747    1.7907   -0.3835 C   0  0  0  0  0  0  0  0  0  0  0  0
    3.6086    0.3353    1.3365 C   0  0  0  0  0  0  0  0  0  0  0  0
  1  2  2  0
  1  5  1  0
  1  7  1  0
  3 16  1  0
  4 16  2  0
  5  6  2  0
  5  8  1  0
  6  9  1  0
  6 16  1  0
  7 10  2  0
  7 11  1  0
  8 12  2  0
  9 13  2  0
 10 14  1  0
 11 15  2  0
 12 13  1  0
 14 17  2  0
 15 17  1  0
M  END
>  <PUBCHEM_COMPOUND_CID>  (1) 
36206

>  <PUBCHEM_CONFORMER_RMSD>  (1) 
0.6

>  <PUBCHEM_CONFORMER_DIVERSEORDER>  (1) 
1
15
8
10
14
4
7
16
2
6
5
9
3
11
12
13

>  <PUBCHEM_MMFF94_PARTIAL_CHARGES>  (1) 
27
1 0.37
10 -0.15
11 -0.15
12 -0.15
13 -0.15
14 -0.15
15 -0.15
16 0.63
17 -0.15
18 0.15
19 0.15
2 -0.5
20 0.15
21 0.15
22 0.15
23 0.15
24 0.15
25 0.15
26 0.15
27 0.5
3 -0.65
4 -0.57
5 0.06
6 0.09
7 0.06
8 -0.15
9 -0.15

>  <PUBCHEM_EFFECTIVE_ROTOR_COUNT>  (1) 
3

>  <PUBCHEM_PHARMACOPHORE_FEATURES>  (1) 
6
1 2 acceptor
1 3 acceptor
1 4 acceptor
3 3 4 16 anion
6 5 6 8 9 12 13 rings
6 7 10 11 14 15 17 rings

>  <PUBCHEM_HEAVY_ATOM_COUNT>  (1) 
17

>  <PUBCHEM_ATOM_DEF_STEREO_COUNT>  (1) 
0

>  <PUBCHEM_ATOM_UDEF_STEREO_COUNT>  (1) 
1

>  <PUBCHEM_BOND_DEF_STEREO_COUNT>  (1) 
0

>  <PUBCHEM_BOND_UDEF_STEREO_COUNT>  (1) 
0

>  <PUBCHEM_ISOTOPIC_ATOM_COUNT>  (1) 
0

>  <PUBCHEM_COMPONENT_COUNT>  (1) 
1

>  <PUBCHEM_CACTVS_TAUTO_COUNT>  (1) 
1

>  <PUBCHEM_CONFORMER_ID>  (1) 
00008D6E00000001

>  <PUBCHEM_MMFF94_ENERGY>  (1) 
52.7997

>  <PUBCHEM_FEATURE_SELFOVERLAP>  (1) 
30.504

>  <PUBCHEM_SHAPE_FINGERPRINT>  (1) 
10366900 7 18410851109722157530
10764073 3 8858477877940018957
11640471 11 14907614532817509754
12077114 3 18336253544876243224
12251169 10 18340772640624214098
12382932 28 18267313203699711939
12400797 245 18192434297131888394
12633257 1 18340495482042079184
12716301 132 18047499749533954095
13083527 12 17549264083239777803
14223421 5 18408881871511739792
14817 1 10492328194817680511
15309172 13 17561085842834158126
15775835 57 17560516317417597706
15852999 172 17534616015539938029
16945 1 18411140268089178086
18981168 100 16702030802540670332
19049666 15 18125447410293025398
19765921 60 14692568788729844967
20361792 2 15140958474053674350
20871999 31 10303799978648002033
21421861 104 17036159419911580067
21524375 3 17979062791663110637
21731516 1 15140680267625989338
22959321 28 18269265940983284312
23388829 49 17551797344875902271
23419403 2 16960941794736475647
27216 239 18059560425833941312
2748010 2 18124889966387178317
5845 1 13138090480983028702
598444 67 17829326887097358718
7097593 13 18187923933252877994
81228 2 18190482518448903777
84936 182 16965461393186011349
90316 7 18334299798787169617

>  <PUBCHEM_SHAPE_MULTIPOLES>  (1) 
336.09
5.27
2.44
1.67
2.89
0.84
-0.71
-0.54
3.24
-1.41
-0.04
0.05
-0.35
0.66

>  <PUBCHEM_SHAPE_SELFOVERLAP>  (1) 
712.216

>  <PUBCHEM_SHAPE_VOLUME>  (1) 
186.6

>  <PUBCHEM_COORDINATE_TYPE>  (1) 
2
5
10

$$$$
