3620
     RDKit          3D

 10 10  0  0  0  0  0  0  0  0999 V2000
    2.3979    0.7627   -0.0012 O   0  0  0  0  0  0  0  0  0  0  0  0
    2.2600   -1.4911    0.0007 O   0  0  0  0  0  0  0  0  0  0  0  0
   -0.3936    0.9437   -0.0008 N   0  0  0  0  0  0  0  0  0  0  0  0
    0.2412   -0.2365   -0.0004 C   0  0  0  0  0  0  0  0  0  0  0  0
   -1.7302    1.0391   -0.0007 C   0  0  0  0  0  0  0  0  0  0  0  0
   -0.4868   -1.4177    0.0003 C   0  0  0  0  0  0  0  0  0  0  0  0
    0.3817    2.1841    0.0020 C   0  0  0  0  0  0  0  0  0  0  0  0
   -2.5094   -0.1090   -0.0002 C   0  0  0  0  0  0  0  0  0  0  0  0
   -1.8767   -1.3485    0.0005 C   0  0  0  0  0  0  0  0  0  0  0  0
    1.7158   -0.3267   -0.0002 C   0  0  0  0  0  0  0  0  0  0  0  0
  1 10  1  0
  2 10  2  0
  3  4  2  0
  3  5  1  0
  3  7  1  0
  4  6  1  0
  4 10  1  0
  5  8  2  0
  6  9  2  0
  8  9  1  0
M  CHG  2   1  -1   3   1
M  END
>  <PUBCHEM_COMPOUND_CID>  (1) 
3620

>  <PUBCHEM_CONFORMER_RMSD>  (1) 
0.4

>  <PUBCHEM_CONFORMER_DIVERSEORDER>  (1) 
1

>  <PUBCHEM_MMFF94_PARTIAL_CHARGES>  (1) 
14
1 -0.9
10 0.98
11 0.15
12 0.15
16 0.15
17 0.15
2 -0.9
3 -0.21
4 0.18
5 0.21
6 -0.15
7 0.49
8 -0.15
9 -0.15

>  <PUBCHEM_EFFECTIVE_ROTOR_COUNT>  (1) 
1

>  <PUBCHEM_PHARMACOPHORE_FEATURES>  (1) 
4
1 1 acceptor
1 2 acceptor
3 1 2 10 anion
6 3 4 5 6 8 9 rings

>  <PUBCHEM_HEAVY_ATOM_COUNT>  (1) 
10

>  <PUBCHEM_ATOM_DEF_STEREO_COUNT>  (1) 
0

>  <PUBCHEM_ATOM_UDEF_STEREO_COUNT>  (1) 
0

>  <PUBCHEM_BOND_DEF_STEREO_COUNT>  (1) 
0

>  <PUBCHEM_BOND_UDEF_STEREO_COUNT>  (1) 
0

>  <PUBCHEM_ISOTOPIC_ATOM_COUNT>  (1) 
0

>  <PUBCHEM_COMPONENT_COUNT>  (1) 
1

>  <PUBCHEM_CACTVS_TAUTO_COUNT>  (1) 
1

>  <PUBCHEM_CONFORMER_ID>  (1) 
00000E2400000001

>  <PUBCHEM_MMFF94_ENERGY>  (1) 
35.8684

>  <PUBCHEM_FEATURE_SELFOVERLAP>  (1) 
20.359

>  <PUBCHEM_SHAPE_FINGERPRINT>  (1) 
10857977 72 18339631347470076216
12524768 44 18342461417391016558
16945 1 18266458887428183525
18185500 45 18409449210526079055
21040471 1 18194401091447742849
23552423 10 18260832596240081662
241688 4 18338234856028473713
2748010 2 18411135801265174471
29004967 10 18336830895643933594
369184 2 18410008819111118579
5084963 1 18057597659970485330
66348 1 18411700984575202816

>  <PUBCHEM_SHAPE_MULTIPOLES>  (1) 
189.08
3.19
1.95
0.59
0.34
0.5
0
-0.58
0
0.22
0
-0.05
0
0

>  <PUBCHEM_SHAPE_SELFOVERLAP>  (1) 
396.394

>  <PUBCHEM_SHAPE_VOLUME>  (1) 
107.3

>  <PUBCHEM_COORDINATE_TYPE>  (1) 
2
5
10

$$$$
