36209
     RDKit          3D

 14 13  0  0  0  0  0  0  0  0999 V2000
    0.0001   -0.0001   -0.0974 N   0  0  0  0  0  0  0  0  0  0  0  0
    0.0995    1.4313    0.4099 C   0  0  0  0  0  0  0  0  0  0  0  0
    1.1900   -0.8019    0.4099 C   0  0  0  0  0  0  0  0  0  0  0  0
   -1.2894   -0.6294    0.4099 C   0  0  0  0  0  0  0  0  0  0  0  0
    0.0002   -0.0001   -1.6194 C   0  0  0  0  0  0  0  0  0  0  0  0
   -1.1099    2.2170   -0.0745 C   0  0  0  0  0  0  0  0  0  0  0  0
    2.4752   -0.1473   -0.0744 C   0  0  0  0  0  0  0  0  0  0  0  0
   -1.3653   -2.0698   -0.0745 C   0  0  0  0  0  0  0  0  0  0  0  0
   -1.0313    3.6761    0.3729 C   0  0  0  0  0  0  0  0  0  0  0  0
    3.6995   -0.9451    0.3729 C   0  0  0  0  0  0  0  0  0  0  0  0
   -2.6683   -2.7308    0.3729 C   0  0  0  0  0  0  0  0  0  0  0  0
   -2.2170    4.4802   -0.1361 C   0  0  0  0  0  0  0  0  0  0  0  0
    4.9887   -0.3202   -0.1360 C   0  0  0  0  0  0  0  0  0  0  0  0
   -2.7719   -4.1598   -0.1360 C   0  0  0  0  0  0  0  0  0  0  0  0
  1  2  1  0
  1  3  1  0
  1  4  1  0
  1  5  1  0
  2  6  1  0
  3  7  1  0
  4  8  1  0
  6  9  1  0
  7 10  1  0
  8 11  1  0
  9 12  1  0
 10 13  1  0
 11 14  1  0
M  CHG  1   1   1
M  END
>  <PUBCHEM_COMPOUND_CID>  (1) 
36209

>  <PUBCHEM_CONFORMER_RMSD>  (1) 
0.8

>  <PUBCHEM_CONFORMER_DIVERSEORDER>  (1) 
1
34
22
10
19
9
31
17
5
6
27
37
18
32
23
12
35
7
20
38
24
28
25
11
16
33
14
36
2
8
21
39
26
15
3
30
13
4
29

>  <PUBCHEM_MMFF94_PARTIAL_CHARGES>  (1) 
5
1 -1.01
2 0.5
3 0.5
4 0.5
5 0.5

>  <PUBCHEM_EFFECTIVE_ROTOR_COUNT>  (1) 
9

>  <PUBCHEM_PHARMACOPHORE_FEATURES>  (1) 
4
1 1 cation
1 12 hydrophobe
1 13 hydrophobe
1 14 hydrophobe

>  <PUBCHEM_HEAVY_ATOM_COUNT>  (1) 
14

>  <PUBCHEM_ATOM_DEF_STEREO_COUNT>  (1) 
0

>  <PUBCHEM_ATOM_UDEF_STEREO_COUNT>  (1) 
0

>  <PUBCHEM_BOND_DEF_STEREO_COUNT>  (1) 
0

>  <PUBCHEM_BOND_UDEF_STEREO_COUNT>  (1) 
0

>  <PUBCHEM_ISOTOPIC_ATOM_COUNT>  (1) 
0

>  <PUBCHEM_COMPONENT_COUNT>  (1) 
1

>  <PUBCHEM_CACTVS_TAUTO_COUNT>  (1) 
1

>  <PUBCHEM_CONFORMER_ID>  (1) 
00008D7100000001

>  <PUBCHEM_MMFF94_ENERGY>  (1) 
28.7695

>  <PUBCHEM_FEATURE_SELFOVERLAP>  (1) 
20.297

>  <PUBCHEM_SHAPE_FINGERPRINT>  (1) 
11056379 131 18410584985417738998
12532896 13 17980478966791819396
12788726 201 18267564858745139359
13134695 92 18049719916998290407
136203 1 18410575054619420178
13955234 65 17328589930312402395
14178342 30 18263628603497961202
14817 1 13282214344591966719
15906896 17 18198329680853616246
17539 30 18413099563445024278
18785283 64 17038659738937209176
204376 136 17905329524529683272
20645477 70 17544462515819355271
20671657 1 17402058184693791607
20671657 53 18124319568961043523
21426921 1 18410577271582238802
21499 59 17760643672681152716
21524375 3 17480847637673251704
22112679 90 18122655943358838883
2255824 54 17404591459357470047
23402539 116 18272646836349313111
23419403 2 16817370830482550140
23557571 272 18201163153137468476
23558518 356 18261116245087383810
3091708 16 9203934320543138019
458136 41 17475523771995657073
474229 33 18192998106469730889
57672749 33 17693655222552425544
58734987 43 18050572047194495114
633830 44 17479730520842777972
68521 5 18410858776027654070
7364860 26 17546165667555932027
77188 2 18194683906375024647
81228 2 18410855438653325497
81539 233 17473259877564667628
9999458 23 17258501041718250652

>  <PUBCHEM_SHAPE_MULTIPOLES>  (1) 
283.13
5.82
5.82
0.87
9.72
3.58
-0.28
-3.58
0.26
-9.72
0.26
0
0
0

>  <PUBCHEM_SHAPE_SELFOVERLAP>  (1) 
509.553

>  <PUBCHEM_SHAPE_VOLUME>  (1) 
183.8

>  <PUBCHEM_COORDINATE_TYPE>  (1) 
2
5
10

$$$$
