36200
     RDKit          3D

 18 18  0  0  0  0  0  0  0  0999 V2000
   -2.8780    1.8376    0.8083 O   0  0  0  0  0  0  0  0  0  0  0  0
    1.8976    3.7234   -0.0781 O   0  0  0  0  0  0  0  0  0  0  0  0
    3.6649    2.4534    0.5773 O   0  0  0  0  0  0  0  0  0  0  0  0
   -0.2071   -3.6240   -0.3242 O   0  0  0  0  0  0  0  0  0  0  0  0
    1.6572   -2.2819    0.2067 N   0  0  0  0  0  0  0  0  0  0  0  0
   -3.9556   -0.0223   -0.0685 N   0  0  0  0  0  0  0  0  0  0  0  0
   -0.5545    0.5353   -0.6848 C   0  0  0  0  0  0  0  0  0  0  0  0
   -1.9502    0.7675   -1.1557 C   0  0  0  0  0  0  0  0  0  0  0  0
   -0.1019   -0.7646   -0.4587 C   0  0  0  0  0  0  0  0  0  0  0  0
    1.2041   -0.9817   -0.0192 C   0  0  0  0  0  0  0  0  0  0  0  0
    0.2988    1.6180   -0.4714 C   0  0  0  0  0  0  0  0  0  0  0  0
    1.6046    1.4009   -0.0318 C   0  0  0  0  0  0  0  0  0  0  0  0
    2.0573    0.1011    0.1942 C   0  0  0  0  0  0  0  0  0  0  0  0
   -2.9588    0.9425   -0.0288 C   0  0  0  0  0  0  0  0  0  0  0  0
    2.4943    2.5298    0.1904 C   0  0  0  0  0  0  0  0  0  0  0  0
    0.9529   -3.4830    0.0491 C   0  0  0  0  0  0  0  0  0  0  0  0
   -5.0281   -0.0728    0.8972 C   0  0  0  0  0  0  0  0  0  0  0  0
    1.8026   -4.6793    0.3980 C   0  0  0  0  0  0  0  0  0  0  0  0
  1 14  2  0
  2 15  1  0
  3 15  2  0
  4 16  2  0
  5 10  1  0
  5 16  1  0
  6 14  1  0
  6 17  1  0
  7  8  1  0
  7  9  2  0
  7 11  1  0
  8 14  1  0
  9 10  1  0
 10 13  2  0
 11 12  2  0
 12 13  1  0
 12 15  1  0
 16 18  1  0
M  END
>  <PUBCHEM_COMPOUND_CID>  (1) 
36200

>  <PUBCHEM_CONFORMER_RMSD>  (1) 
0.8

>  <PUBCHEM_CONFORMER_DIVERSEORDER>  (1) 
4
39
42
5
28
25
41
9
38
37
18
12
6
19
35
36
3
40
10
21
17
13
33
8
32
20
14
34
29
11
31
22
7
24
1
16
30
2
26
27
23
15

>  <PUBCHEM_MMFF94_PARTIAL_CHARGES>  (1) 
24
1 -0.57
10 0.12
11 -0.15
12 0.09
13 -0.15
14 0.57
15 0.63
16 0.57
17 0.3
18 0.06
2 -0.65
21 0.15
22 0.15
23 0.15
24 0.37
25 0.37
3 -0.57
32 0.5
4 -0.57
5 -0.55
6 -0.73
7 -0.14
8 0.2
9 -0.15

>  <PUBCHEM_EFFECTIVE_ROTOR_COUNT>  (1) 
6

>  <PUBCHEM_PHARMACOPHORE_FEATURES>  (1) 
8
1 1 acceptor
1 2 acceptor
1 3 acceptor
1 4 acceptor
1 5 donor
1 6 donor
3 2 3 15 anion
6 7 9 10 11 12 13 rings

>  <PUBCHEM_HEAVY_ATOM_COUNT>  (1) 
18

>  <PUBCHEM_ATOM_DEF_STEREO_COUNT>  (1) 
0

>  <PUBCHEM_ATOM_UDEF_STEREO_COUNT>  (1) 
0

>  <PUBCHEM_BOND_DEF_STEREO_COUNT>  (1) 
0

>  <PUBCHEM_BOND_UDEF_STEREO_COUNT>  (1) 
0

>  <PUBCHEM_ISOTOPIC_ATOM_COUNT>  (1) 
0

>  <PUBCHEM_COMPONENT_COUNT>  (1) 
1

>  <PUBCHEM_CACTVS_TAUTO_COUNT>  (1) 
4

>  <PUBCHEM_CONFORMER_ID>  (1) 
00008D6800000004

>  <PUBCHEM_MMFF94_ENERGY>  (1) 
45.4171

>  <PUBCHEM_FEATURE_SELFOVERLAP>  (1) 
40.655

>  <PUBCHEM_SHAPE_FINGERPRINT>  (1) 
10090160 65 18339636875805402357
114674 6 18114189579904441627
12532896 13 18196936793052897444
12553582 1 17763745386566961847
12788726 201 17110155470139006640
13052359 8 17905037406496691422
13140716 1 18339072791479344482
13533116 47 18337121047535958505
136203 1 17617657004531087792
138480 1 18194401078615828859
14787075 74 17698726136321273029
14790565 3 18410863123178830964
14863182 85 18044115633654571055
14866123 147 18122055666535978522
15309172 13 18336821017383131357
15906896 17 17695344068085930974
16945 1 18266444439126752988
17859628 70 18337962203574446115
18915476 22 18263060181460727893
19591789 44 18409731772620282118
201361 129 18343308045855986969
20510252 161 17257641747822719392
20645477 70 18261941965461140207
21041028 32 17618225005265900300
21524375 3 18129943510723127781
21650355 55 17329426143053534595
2255824 54 18412267203098963351
23419403 2 16525038997155559842
23557571 272 16687094701782803862
23559900 14 18194111924833542561
25147074 1 17248067153777651564
2748010 2 18262241135165040078
283562 15 16749301285942600544
3091708 16 9619969738122150170
31174 14 18336266722110025663
33824 294 18408886261216359387
3421961 26 18265055734877446443
352729 6 17906725157241070668
458136 41 18336560377218569701
54173680 148 17400352842300996710
58807428 26 18339908424848850648
59755656 520 18194681690689481956
6438718 38 17195183946794018559
6442390 28 18194412318571349979
7097593 13 18125450704907475113
7364860 26 18410575041829470063
81228 2 17323507970388445276

>  <PUBCHEM_SHAPE_MULTIPOLES>  (1) 
336.99
6.05
5.33
0.83
9.15
1.9
-0.05
1.74
1.93
-7.35
0.66
0.43
-0.04
0.33

>  <PUBCHEM_SHAPE_SELFOVERLAP>  (1) 
696.887

>  <PUBCHEM_SHAPE_VOLUME>  (1) 
192.2

>  <PUBCHEM_COORDINATE_TYPE>  (1) 
2
5
10

$$$$
