36213
     RDKit          3D

 17 17  0  0  0  0  0  0  0  0999 V2000
   -1.2238    1.7586   -0.1278 N   0  0  0  0  0  0  0  0  0  0  0  0
    0.0053   -0.2447   -0.6596 N   0  0  0  0  0  0  0  0  0  0  0  0
    2.3355   -0.2588   -0.6641 N   0  0  0  0  0  0  0  0  0  0  0  0
   -2.3274   -0.2274   -0.6568 N   0  0  0  0  0  0  0  0  0  0  0  0
    4.0493   -1.6038    0.2631 N   0  0  0  0  0  0  0  0  0  0  0  0
   -4.0716   -1.5410    0.2777 N   0  0  0  0  0  0  0  0  0  0  0  0
    2.3838   -0.9083    1.6490 N   0  0  0  0  0  0  0  0  0  0  0  0
   -2.3897   -0.8729    1.6573 N   0  0  0  0  0  0  0  0  0  0  0  0
    4.8021   -1.5114   -0.8898 N   0  0  0  0  0  0  0  0  0  0  0  0
   -4.6026   -1.8017   -0.9692 N   0  0  0  0  0  0  0  0  0  0  0  0
   -0.0449    2.3929    0.0406 C   0  0  0  0  0  0  0  0  0  0  0  0
    1.1828    1.7843   -0.1211 C   0  0  0  0  0  0  0  0  0  0  0  0
    1.1403    0.4546   -0.4739 C   0  0  0  0  0  0  0  0  0  0  0  0
   -1.1266    0.4605   -0.4727 C   0  0  0  0  0  0  0  0  0  0  0  0
   -0.1069    3.8338    0.4222 C   0  0  0  0  0  0  0  0  0  0  0  0
    2.8766   -0.8755    0.3583 C   0  0  0  0  0  0  0  0  0  0  0  0
   -2.8824   -0.8391    0.3666 C   0  0  0  0  0  0  0  0  0  0  0  0
  1 11  2  0
  1 14  1  0
  2 13  1  0
  2 14  2  0
  3 13  1  0
  3 16  2  0
  4 14  1  0
  4 17  2  0
  5  9  1  0
  5 16  1  0
  6 10  1  0
  6 17  1  0
  7 16  1  0
  8 17  1  0
 11 12  1  0
 11 15  1  0
 12 13  2  0
M  END
>  <PUBCHEM_COMPOUND_CID>  (1) 
36213

>  <PUBCHEM_CONFORMER_RMSD>  (1) 
0.6

>  <PUBCHEM_CONFORMER_DIVERSEORDER>  (1) 
1
34
31
18
33
3
17
27
22
35
13
25
7
15
8
12
16
21
28
23
4
9
30
32
10
6
26
20
29
19
24
11
5
14
2

>  <PUBCHEM_MMFF94_PARTIAL_CHARGES>  (1) 
28
1 -0.62
10 -0.71
11 0.17
12 -0.15
13 0.49
14 0.8
15 0.14
16 0.55
17 0.55
18 0.15
2 -0.62
22 0.4
23 0.4
24 0.4
25 0.4
26 0.4
27 0.4
28 0.36
29 0.36
3 -0.63
30 0.36
31 0.36
4 -0.63
5 -0.46
6 -0.46
7 -0.85
8 -0.85
9 -0.71

>  <PUBCHEM_EFFECTIVE_ROTOR_COUNT>  (1) 
4

>  <PUBCHEM_PHARMACOPHORE_FEATURES>  (1) 
10
1 10 donor
1 5 donor
1 6 donor
1 7 donor
1 8 donor
1 9 donor
4 1 2 4 14 cation
4 3 5 7 16 cation
4 4 6 8 17 cation
6 1 2 11 12 13 14 rings

>  <PUBCHEM_HEAVY_ATOM_COUNT>  (1) 
17

>  <PUBCHEM_ATOM_DEF_STEREO_COUNT>  (1) 
0

>  <PUBCHEM_ATOM_UDEF_STEREO_COUNT>  (1) 
0

>  <PUBCHEM_BOND_DEF_STEREO_COUNT>  (1) 
0

>  <PUBCHEM_BOND_UDEF_STEREO_COUNT>  (1) 
1

>  <PUBCHEM_ISOTOPIC_ATOM_COUNT>  (1) 
0

>  <PUBCHEM_COMPONENT_COUNT>  (1) 
1

>  <PUBCHEM_CACTVS_TAUTO_COUNT>  (1) 
37

>  <PUBCHEM_CONFORMER_ID>  (1) 
00008D7500000001

>  <PUBCHEM_MMFF94_ENERGY>  (1) 
57.4744

>  <PUBCHEM_FEATURE_SELFOVERLAP>  (1) 
53.926

>  <PUBCHEM_SHAPE_FINGERPRINT>  (1) 
11357001 24 18193844738611859992
12363563 72 18410576188554395071
12507560 14 18343304807656107807
12553582 1 18335140886253652963
12788726 201 18118683214664086865
13140716 1 18342740676175665209
13533116 47 18120942965338047123
136203 1 18196091036451347208
14252887 29 18342172319205856834
14787075 74 18116152345672281936
16945 1 18123750842292401004
17841504 4 18337955704998516897
18222031 100 18201433709637601247
20369508 70 18262506126337031647
20645477 70 18191017005580630319
20671657 53 18411703231349481429
20832881 197 18261109678092801467
20871998 184 18129375999814625084
20871998 22 18412542145425499124
21296965 67 18410851075040581061
21452121 199 18336258020295767960
21524375 3 17121706917646762693
22112679 90 18269016239689696617
2748010 2 18341314644091289252
3071541 236 17904190430419912820
6049 1 17845360060791553200
7364860 26 18195244653073890412
7970288 3 18411415111632349886
81228 2 18124595280023110189

>  <PUBCHEM_SHAPE_MULTIPOLES>  (1) 
300.04
7.22
3.09
1.08
0.18
3.67
0.34
-8.5
-0.74
-0.14
0.33
-0.04
-0.4
-0.1

>  <PUBCHEM_SHAPE_SELFOVERLAP>  (1) 
615.37

>  <PUBCHEM_SHAPE_VOLUME>  (1) 
165.4

>  <PUBCHEM_COORDINATE_TYPE>  (1) 
2
5
10

$$$$
