36218
     RDKit          3D

 16 17  0  0  0  0  0  0  0  0999 V2000
   -0.2094    2.7896    0.0001 Cl  0  0  0  0  0  0  0  0  0  0  0  0
   -3.4852   -2.5303    0.0002 Cl  0  0  0  0  0  0  0  0  0  0  0  0
   -4.9662    0.3465    0.0002 Cl  0  0  0  0  0  0  0  0  0  0  0  0
    5.4850   -0.4135    0.0006 Cl  0  0  0  0  0  0  0  0  0  0  0  0
   -0.4534    0.0635   -0.0008 C   0  0  0  0  0  0  0  0  0  0  0  0
    0.9889   -0.0513   -0.0003 C   0  0  0  0  0  0  0  0  0  0  0  0
   -1.0960    1.3040   -0.0001 C   0  0  0  0  0  0  0  0  0  0  0  0
   -1.2120   -1.1092   -0.0008 C   0  0  0  0  0  0  0  0  0  0  0  0
    1.6843   -0.1067   -1.2082 C   0  0  0  0  0  0  0  0  0  0  0  0
    1.6839   -0.1074    1.2078 C   0  0  0  0  0  0  0  0  0  0  0  0
   -2.6053   -1.0421   -0.0002 C   0  0  0  0  0  0  0  0  0  0  0  0
   -2.4893    1.3710    0.0006 C   0  0  0  0  0  0  0  0  0  0  0  0
   -3.2439    0.1980    0.0005 C   0  0  0  0  0  0  0  0  0  0  0  0
    3.0747   -0.2185   -1.2079 C   0  0  0  0  0  0  0  0  0  0  0  0
    3.0743   -0.2190    1.2080 C   0  0  0  0  0  0  0  0  0  0  0  0
    3.7697   -0.2745    0.0002 C   0  0  0  0  0  0  0  0  0  0  0  0
  1  7  1  0
  2 11  1  0
  3 13  1  0
  4 16  1  0
  5  6  1  0
  5  7  2  0
  5  8  1  0
  6  9  2  0
  6 10  1  0
  7 12  1  0
  8 11  2  0
  9 14  1  0
 10 15  2  0
 11 13  1  0
 12 13  2  0
 14 16  2  0
 15 16  1  0
M  END
>  <PUBCHEM_COMPOUND_CID>  (1) 
36218

>  <PUBCHEM_CONFORMER_RMSD>  (1) 
0.6

>  <PUBCHEM_CONFORMER_DIVERSEORDER>  (1) 
1

>  <PUBCHEM_MMFF94_PARTIAL_CHARGES>  (1) 
20
1 -0.18
10 -0.15
11 0.18
12 -0.15
13 0.18
14 -0.15
15 -0.15
16 0.18
17 0.15
18 0.15
19 0.15
2 -0.18
20 0.15
21 0.15
22 0.15
3 -0.18
4 -0.18
7 0.18
8 -0.15
9 -0.15

>  <PUBCHEM_EFFECTIVE_ROTOR_COUNT>  (1) 
1

>  <PUBCHEM_PHARMACOPHORE_FEATURES>  (1) 
2
6 5 7 8 11 12 13 rings
6 6 9 10 14 15 16 rings

>  <PUBCHEM_HEAVY_ATOM_COUNT>  (1) 
16

>  <PUBCHEM_ATOM_DEF_STEREO_COUNT>  (1) 
0

>  <PUBCHEM_ATOM_UDEF_STEREO_COUNT>  (1) 
0

>  <PUBCHEM_BOND_DEF_STEREO_COUNT>  (1) 
0

>  <PUBCHEM_BOND_UDEF_STEREO_COUNT>  (1) 
0

>  <PUBCHEM_ISOTOPIC_ATOM_COUNT>  (1) 
0

>  <PUBCHEM_COMPONENT_COUNT>  (1) 
1

>  <PUBCHEM_CACTVS_TAUTO_COUNT>  (1) 
1

>  <PUBCHEM_CONFORMER_ID>  (1) 
00008D7A00000001

>  <PUBCHEM_MMFF94_ENERGY>  (1) 
44.2443

>  <PUBCHEM_FEATURE_SELFOVERLAP>  (1) 
10.149

>  <PUBCHEM_SHAPE_FINGERPRINT>  (1) 
11132069 177 18412545405595450345
12236239 1 17676489427965561730
12553582 1 18334566967270034851
13103583 49 17609256594847709195
13140716 1 18339647871011149729
13214271 11 18201997737627475949
13288520 33 18410294692493049494
13296908 3 18341891952098749211
13538477 17 18186237333665300363
13581323 91 18336541629923485008
14115302 16 17894636971459352871
14386348 63 17917996070227035510
14911166 2 18410005534183758973
15219456 202 17704066322151685576
15342168 16 15840117087902508808
15375462 189 17967811656621281129
16945 1 18410855443602504769
17804303 29 18341612650781516433
17834072 33 18186524319733801102
18175812 5 17847056709558123812
18186145 218 15647052702582385414
19049666 15 17558557906714361534
19141452 34 17846217782782463839
200 152 16805321089311716956
20279233 1 17775570831444015119
20344682 1 17846498106312261372
20510252 161 18198342862187726105
20600515 1 18343032072547909165
21267235 1 18334867112058013931
21501502 16 18194403523027083861
2297311 6 18341903961286160452
23175994 123 16917071053376207040
232386 152 18335140933587554599
23366157 5 17826230980339857741
23402539 116 18412538816799263446
23557571 272 18201441329168137724
23559900 14 18270965640136724942
26918003 58 17132115744749186082
2748010 2 18194113256331342133
474 4 17169282627241146932
5104073 3 18340206396357004904
5902787 121 18337106881910837777
67856867 119 18115874164978088564
69090 78 17346309397796479119
7364860 26 17982734370067735273
77492 1 17676207957267987618
81228 2 18198358272614760673

>  <PUBCHEM_SHAPE_MULTIPOLES>  (1) 
336.75
9.13
1.97
0.98
3.58
0.52
0
-2.65
0
-2.17
0
0.85
-0.06
0

>  <PUBCHEM_SHAPE_SELFOVERLAP>  (1) 
693.895

>  <PUBCHEM_SHAPE_VOLUME>  (1) 
185.8

>  <PUBCHEM_COORDINATE_TYPE>  (1) 
2
5
10

$$$$
