36215
     RDKit          3D

 17 17  0  0  0  0  0  0  0  0999 V2000
   -0.1521   -0.1111   -0.6463 N   0  0  0  0  0  0  0  0  0  0  0  0
   -1.2413    1.9346    0.0140 N   0  0  0  0  0  0  0  0  0  0  0  0
    2.1633   -0.2970   -0.6666 N   0  0  0  0  0  0  0  0  0  0  0  0
   -2.4782    0.0646   -0.6304 N   0  0  0  0  0  0  0  0  0  0  0  0
    3.7676   -1.8286    0.1621 N   0  0  0  0  0  0  0  0  0  0  0  0
   -4.3066   -1.1830    0.2308 N   0  0  0  0  0  0  0  0  0  0  0  0
    2.1667   -1.0908    1.6015 N   0  0  0  0  0  0  0  0  0  0  0  0
   -2.5812   -0.7174    1.6397 N   0  0  0  0  0  0  0  0  0  0  0  0
    4.5219   -1.7246   -0.9888 N   0  0  0  0  0  0  0  0  0  0  0  0
   -4.8557   -1.3292   -1.0267 N   0  0  0  0  0  0  0  0  0  0  0  0
    1.1616    1.7956    0.0111 C   0  0  0  0  0  0  0  0  0  0  0  0
    1.0293    0.4955   -0.4233 C   0  0  0  0  0  0  0  0  0  0  0  0
    2.4749    2.4467    0.2501 C   0  0  0  0  0  0  0  0  0  0  0  0
   -0.0217    2.4753    0.2158 C   0  0  0  0  0  0  0  0  0  0  0  0
   -1.2331    0.6567   -0.4108 C   0  0  0  0  0  0  0  0  0  0  0  0
    2.6567   -1.0169    0.3115 C   0  0  0  0  0  0  0  0  0  0  0  0
   -3.0721   -0.5703    0.3564 C   0  0  0  0  0  0  0  0  0  0  0  0
  1 12  2  0
  1 15  1  0
  2 14  1  0
  2 15  2  0
  3 12  1  0
  3 16  2  0
  4 15  1  0
  4 17  2  0
  5  9  1  0
  5 16  1  0
  6 10  1  0
  6 17  1  0
  7 16  1  0
  8 17  1  0
 11 12  1  0
 11 13  1  0
 11 14  2  0
M  END
>  <PUBCHEM_COMPOUND_CID>  (1) 
36215

>  <PUBCHEM_CONFORMER_RMSD>  (1) 
0.6

>  <PUBCHEM_CONFORMER_DIVERSEORDER>  (1) 
1
34
30
31
15
9
28
17
20
22
26
24
27
2
36
14
18
11
29
4
21
6
25
13
5
33
7
23
35
37
8
16
32
3
10
19
12

>  <PUBCHEM_MMFF94_PARTIAL_CHARGES>  (1) 
28
1 -0.62
10 -0.71
11 -0.14
12 0.49
13 0.14
14 0.16
15 0.8
16 0.55
17 0.55
2 -0.62
21 0.15
22 0.4
23 0.4
24 0.4
25 0.4
26 0.4
27 0.4
28 0.36
29 0.36
3 -0.63
30 0.36
31 0.36
4 -0.63
5 -0.46
6 -0.46
7 -0.85
8 -0.85
9 -0.71

>  <PUBCHEM_EFFECTIVE_ROTOR_COUNT>  (1) 
4

>  <PUBCHEM_PHARMACOPHORE_FEATURES>  (1) 
10
1 10 donor
1 5 donor
1 6 donor
1 7 donor
1 8 donor
1 9 donor
4 1 2 4 15 cation
4 3 5 7 16 cation
4 4 6 8 17 cation
6 1 2 11 12 14 15 rings

>  <PUBCHEM_HEAVY_ATOM_COUNT>  (1) 
17

>  <PUBCHEM_ATOM_DEF_STEREO_COUNT>  (1) 
0

>  <PUBCHEM_ATOM_UDEF_STEREO_COUNT>  (1) 
0

>  <PUBCHEM_BOND_DEF_STEREO_COUNT>  (1) 
0

>  <PUBCHEM_BOND_UDEF_STEREO_COUNT>  (1) 
1

>  <PUBCHEM_ISOTOPIC_ATOM_COUNT>  (1) 
0

>  <PUBCHEM_COMPONENT_COUNT>  (1) 
1

>  <PUBCHEM_CACTVS_TAUTO_COUNT>  (1) 
37

>  <PUBCHEM_CONFORMER_ID>  (1) 
00008D7700000001

>  <PUBCHEM_MMFF94_ENERGY>  (1) 
58.5161

>  <PUBCHEM_FEATURE_SELFOVERLAP>  (1) 
53.925

>  <PUBCHEM_SHAPE_FINGERPRINT>  (1) 
11806522 49 18334858316550463260
12363563 72 18410858737293996223
12553582 1 18334579001478442923
13140716 1 18271808960580331993
13533116 47 18199468934594672651
14252887 29 18342172297704653096
15375462 189 18042131963895142192
16945 1 17978504239650828628
17841504 4 18410857667778652081
18186145 218 17676758838896102829
18222031 100 18202277004949136311
19766037 51 18187657894024606042
20279233 1 17750510861761730769
20645477 70 18336538430299690655
20871998 22 18412823586147920988
20871999 31 17240482459958088703
21501502 16 18411708677199909201
21501925 9 18340477945759375585
23559900 14 18040433334294319605
2748010 2 18339345397417680508
33824 294 18192990650099997617
5493415 88 18338794520632801456
7364860 26 18341048626991578764
7970288 3 18412259510766278407
81228 2 17837201576702046272
81539 233 18045216300201677948

>  <PUBCHEM_SHAPE_MULTIPOLES>  (1) 
300.04
7.61
2.52
1.06
4.27
1.27
-0.29
-6.47
0.97
-2
-0.13
0.13
-0.41
0.17

>  <PUBCHEM_SHAPE_SELFOVERLAP>  (1) 
616.714

>  <PUBCHEM_SHAPE_VOLUME>  (1) 
164.9

>  <PUBCHEM_COORDINATE_TYPE>  (1) 
2
5
10

$$$$
