36211
     RDKit          3D

 24 26  0  0  1  0  0  0  0  0999 V2000
   -1.7441   -2.1248    0.4595 O   0  0  0  0  0  0  0  0  0  0  0  0
    6.4008    1.3295    1.1225 O   0  0  0  0  0  0  0  0  0  0  0  0
    7.2038   -0.2407   -0.3114 O   0  0  0  0  0  0  0  0  0  0  0  0
   -1.8011    1.2702   -0.2395 N   0  0  0  0  0  0  0  0  0  0  0  0
   -2.4929    0.1068    0.1295 N   0  0  0  0  0  0  0  0  0  0  0  0
    0.8254   -1.1949   -0.3789 N   0  0  0  0  0  0  0  0  0  0  0  0
   -0.4889    0.8976   -0.5213 C   0  0  0  0  0  0  0  0  0  0  0  0
   -0.2624   -0.4025   -0.2811 C   0  0  0  0  0  0  0  0  0  0  0  0
   -1.5751   -0.9474    0.1837 C   0  0  0  0  0  0  0  0  0  0  0  0
   -3.9058   -0.0020    0.1045 C   0  0  0  0  0  0  0  0  0  0  0  0
   -2.0911    2.5089    0.4762 C   0  0  0  0  0  0  0  0  0  0  0  0
    0.5159    1.8978   -0.9861 C   0  0  0  0  0  0  0  0  0  0  0  0
    2.1741   -0.8241   -0.2223 C   0  0  0  0  0  0  0  0  0  0  0  0
   -4.5408   -1.0779    0.7325 C   0  0  0  0  0  0  0  0  0  0  0  0
   -4.6753    0.9666   -0.5474 C   0  0  0  0  0  0  0  0  0  0  0  0
    3.1735   -1.5040   -0.9212 C   0  0  0  0  0  0  0  0  0  0  0  0
    2.5170    0.2242    0.6340 C   0  0  0  0  0  0  0  0  0  0  0  0
   -5.9314   -1.1844    0.7088 C   0  0  0  0  0  0  0  0  0  0  0  0
   -6.0658    0.8603   -0.5712 C   0  0  0  0  0  0  0  0  0  0  0  0
   -6.6939   -0.2153    0.0569 C   0  0  0  0  0  0  0  0  0  0  0  0
    4.5103   -1.1373   -0.7647 C   0  0  0  0  0  0  0  0  0  0  0  0
    3.8536    0.5911    0.7906 C   0  0  0  0  0  0  0  0  0  0  0  0
    4.8502   -0.0897    0.0912 C   0  0  0  0  0  0  0  0  0  0  0  0
    6.2440    0.2919    0.2554 C   0  0  0  0  0  0  0  0  0  0  0  0
  1  9  2  0
  2 24  1  0
  3 24  2  0
  4  5  1  0
  4  7  1  0
  4 11  1  0
  5  9  1  0
  5 10  1  0
  6  8  1  0
  6 13  1  0
  7  8  2  0
  7 12  1  0
  8  9  1  0
 10 14  2  0
 10 15  1  0
 13 16  2  0
 13 17  1  0
 14 18  1  0
 15 19  2  0
 16 21  1  0
 17 22  2  0
 18 20  2  0
 19 20  1  0
 21 23  2  0
 22 23  1  0
 23 24  1  0
M  END
>  <PUBCHEM_COMPOUND_CID>  (1) 
36211

>  <PUBCHEM_CONFORMER_RMSD>  (1) 
0.8

>  <PUBCHEM_CONFORMER_DIVERSEORDER>  (1) 
2
1
5
6
15
3
13
10
14
7
4
9
8
11
12

>  <PUBCHEM_MMFF94_PARTIAL_CHARGES>  (1) 
35
1 -0.57
10 0.12
11 0.37
12 0.14
13 0.1
14 -0.15
15 -0.15
16 -0.15
17 -0.15
18 -0.15
19 -0.15
2 -0.65
20 -0.15
21 -0.15
22 -0.15
23 0.09
24 0.63
28 0.4
3 -0.57
32 0.15
33 0.15
34 0.15
35 0.15
36 0.15
37 0.15
38 0.15
39 0.15
4 -0.49
40 0.15
41 0.5
5 -0.16
6 -0.6
7 -0.04
8 0.11
9 0.62

>  <PUBCHEM_EFFECTIVE_ROTOR_COUNT>  (1) 
4

>  <PUBCHEM_PHARMACOPHORE_FEATURES>  (1) 
9
1 1 acceptor
1 2 acceptor
1 3 acceptor
1 6 cation
1 6 donor
3 2 3 24 anion
5 4 5 7 8 9 rings
6 10 14 15 18 19 20 rings
6 13 16 17 21 22 23 rings

>  <PUBCHEM_HEAVY_ATOM_COUNT>  (1) 
24

>  <PUBCHEM_ATOM_DEF_STEREO_COUNT>  (1) 
0

>  <PUBCHEM_ATOM_UDEF_STEREO_COUNT>  (1) 
0

>  <PUBCHEM_BOND_DEF_STEREO_COUNT>  (1) 
0

>  <PUBCHEM_BOND_UDEF_STEREO_COUNT>  (1) 
0

>  <PUBCHEM_ISOTOPIC_ATOM_COUNT>  (1) 
0

>  <PUBCHEM_COMPONENT_COUNT>  (1) 
1

>  <PUBCHEM_CACTVS_TAUTO_COUNT>  (1) 
3

>  <PUBCHEM_CONFORMER_ID>  (1) 
00008D7300000002

>  <PUBCHEM_MMFF94_ENERGY>  (1) 
100.2822

>  <PUBCHEM_FEATURE_SELFOVERLAP>  (1) 
45.728

>  <PUBCHEM_SHAPE_FINGERPRINT>  (1) 
10 15 18338790209160811632
11315181 36 18186526509513357905
11578080 2 14475583416779820433
11646440 116 18410866468825804177
12011746 2 18412824676869024188
12166972 35 17240204339662267724
12236239 1 16877942733184056586
12516196 113 18412825789503067077
12730499 353 18131634474466722766
12916748 109 18341896277637023586
13402501 40 18413669119269084912
13533116 47 15626230065888058262
13782708 43 18128546968237796942
13914758 101 15285631058489505292
14341114 176 18343022198960862320
15183329 4 7997977872697239708
15338160 23 17203059465458991017
15849732 13 18412262852713947759
15927050 60 17621321664287393436
17980427 23 17417547856020153073
19489759 90 17458345230546719355
21033648 29 18058996320866737297
21033650 10 16228028973174046607
21236236 1 18200315416656052793
21267235 1 18335427871546335757
21792961 116 18131079204315551862
221357 26 17846498106707900120
22224240 67 18201432610584830994
23198884 109 15410896270842960995
23402539 116 18410006646295601407
23536379 177 14418131812139892887
23559900 14 18411978087481278993
23569914 152 16831488079374417071
283562 15 18339362947123147705
3004659 81 17821734948560472372
3009799 131 18187079542940940525
335352 9 18261109682793853221
3411729 13 17824267222835128164
34797466 226 17275390910753229852
350125 39 18410293635820792644
3545911 37 18342738516286532942
4073 2 18335142046332880674
4325135 7 16630807703584588941
5104073 3 18269554932126318370
59682541 35 18340768251077889138
59755656 215 18341334414300285558
59755656 520 17168140165270725346
7226269 152 18333448742675290113

>  <PUBCHEM_SHAPE_MULTIPOLES>  (1) 
461.36
17.4
1.83
0.91
5.58
0.44
0
-0.45
1.83
-0.73
0
0.32
0.07
1.4

>  <PUBCHEM_SHAPE_SELFOVERLAP>  (1) 
1004.977

>  <PUBCHEM_SHAPE_VOLUME>  (1) 
251.1

>  <PUBCHEM_COORDINATE_TYPE>  (1) 
2
5
10

$$$$
