36224
     RDKit          3D

 10 10  0  0  0  0  0  0  0  0999 V2000
   -0.1384   -0.6288    0.2147 N   0  0  0  0  0  0  0  0  0  0  0  0
    0.1812    2.1368   -0.1254 N   0  0  0  0  0  0  0  0  0  0  0  0
    2.2494   -0.9051    0.5534 C   0  0  0  0  0  0  0  0  0  0  0  0
    1.0701   -0.0360    0.2857 C   0  0  0  0  0  0  0  0  0  0  0  0
    2.8859   -1.4356   -0.7296 C   0  0  0  0  0  0  0  0  0  0  0  0
    1.2270    1.3223    0.1185 C   0  0  0  0  0  0  0  0  0  0  0  0
   -1.1842    0.1857   -0.0289 C   0  0  0  0  0  0  0  0  0  0  0  0
   -1.0272    1.5440   -0.1961 C   0  0  0  0  0  0  0  0  0  0  0  0
   -2.4946   -0.4333   -0.1091 C   0  0  0  0  0  0  0  0  0  0  0  0
   -2.7692   -1.7499    0.0166 C   0  0  0  0  0  0  0  0  0  0  0  0
  1  4  2  0
  1  7  1  0
  2  6  2  0
  2  8  1  0
  3  4  1  0
  3  5  1  0
  4  6  1  0
  7  8  2  0
  7  9  1  0
  9 10  2  0
M  END
>  <PUBCHEM_COMPOUND_CID>  (1) 
36224

>  <PUBCHEM_CONFORMER_RMSD>  (1) 
0.4

>  <PUBCHEM_CONFORMER_DIVERSEORDER>  (1) 
1
7
3
5
4
2
6

>  <PUBCHEM_MMFF94_PARTIAL_CHARGES>  (1) 
14
1 -0.62
10 -0.3
16 0.15
17 0.15
18 0.15
19 0.15
2 -0.62
20 0.15
3 0.14
4 0.17
6 0.16
7 0.34
8 0.16
9 -0.18

>  <PUBCHEM_EFFECTIVE_ROTOR_COUNT>  (1) 
2

>  <PUBCHEM_PHARMACOPHORE_FEATURES>  (1) 
5
1 1 acceptor
1 10 hydrophobe
1 2 acceptor
1 5 hydrophobe
6 1 2 4 6 7 8 rings

>  <PUBCHEM_HEAVY_ATOM_COUNT>  (1) 
10

>  <PUBCHEM_ATOM_DEF_STEREO_COUNT>  (1) 
0

>  <PUBCHEM_ATOM_UDEF_STEREO_COUNT>  (1) 
0

>  <PUBCHEM_BOND_DEF_STEREO_COUNT>  (1) 
0

>  <PUBCHEM_BOND_UDEF_STEREO_COUNT>  (1) 
0

>  <PUBCHEM_ISOTOPIC_ATOM_COUNT>  (1) 
0

>  <PUBCHEM_COMPONENT_COUNT>  (1) 
1

>  <PUBCHEM_CACTVS_TAUTO_COUNT>  (1) 
2

>  <PUBCHEM_CONFORMER_ID>  (1) 
00008D8000000001

>  <PUBCHEM_MMFF94_ENERGY>  (1) 
20.7717

>  <PUBCHEM_FEATURE_SELFOVERLAP>  (1) 
25.375

>  <PUBCHEM_SHAPE_FINGERPRINT>  (1) 
12716758 59 17835799695054829530
14128692 85 18409174307033947716
161256 15 18410571833536645508
16945 1 18120929508287350752
17990270 104 18265329693381885603
20645477 70 18121490526218236703
20711978 78 18199737218930147829
20871998 184 18129376016783653454
20871998 22 18412546521991834082
21040471 1 16967169501573797361
21061003 4 16844720920715990538
23552423 10 18259704510057507932
241688 4 18408601431284810393
2748010 2 18337659880251181773
29004967 10 18263919019989692977
7364860 26 18127129899137808584

>  <PUBCHEM_SHAPE_MULTIPOLES>  (1) 
195.83
4.01
2.08
0.71
0.04
0.55
0.02
-2.91
0.35
0.13
0.17
-0.23
-0.11
0.25

>  <PUBCHEM_SHAPE_SELFOVERLAP>  (1) 
396.628

>  <PUBCHEM_SHAPE_VOLUME>  (1) 
113.9

>  <PUBCHEM_COORDINATE_TYPE>  (1) 
2
5
10

$$$$
