36237
     RDKit          3D

 22 23  0  0  0  0  0  0  0  0999 V2000
    7.0143   -0.1946    0.4809 Cl  0  0  0  0  0  0  0  0  0  0  0  0
    0.4223   -0.3329    0.5815 O   0  0  0  0  0  0  0  0  0  0  0  0
    0.6506   -0.4122   -1.7374 O   0  0  0  0  0  0  0  0  0  0  0  0
   -1.7254    3.1105    0.1777 O   0  0  0  0  0  0  0  0  0  0  0  0
    0.2147    2.1239    0.4646 O   0  0  0  0  0  0  0  0  0  0  0  0
   -5.6598   -1.6789   -0.1567 O   0  0  0  0  0  0  0  0  0  0  0  0
   -5.7475    0.5127   -0.2468 O   0  0  0  0  0  0  0  0  0  0  0  0
   -1.0281    2.0764    0.3055 N   0  0  0  0  0  0  0  0  0  0  0  0
   -5.1012   -0.5558   -0.1252 N   0  0  0  0  0  0  0  0  0  0  0  0
   -0.9632   -0.3690    0.4025 C   0  0  0  0  0  0  0  0  0  0  0  0
   -1.6682    0.8070    0.2689 C   0  0  0  0  0  0  0  0  0  0  0  0
   -3.6939   -0.4922    0.0544 C   0  0  0  0  0  0  0  0  0  0  0  0
   -3.0505    0.7449    0.0927 C   0  0  0  0  0  0  0  0  0  0  0  0
   -1.5728   -1.6051    0.3686 C   0  0  0  0  0  0  0  0  0  0  0  0
   -2.9551   -1.6671    0.1922 C   0  0  0  0  0  0  0  0  0  0  0  0
    2.5812   -0.3242   -0.3407 C   0  0  0  0  0  0  0  0  0  0  0  0
    1.1517   -0.3645   -0.6051 C   0  0  0  0  0  0  0  0  0  0  0  0
    3.4439    0.2699   -1.2615 C   0  0  0  0  0  0  0  0  0  0  0  0
    3.0891   -0.8780    0.8345 C   0  0  0  0  0  0  0  0  0  0  0  0
    4.8148    0.3102   -1.0074 C   0  0  0  0  0  0  0  0  0  0  0  0
    4.4601   -0.8376    1.0888 C   0  0  0  0  0  0  0  0  0  0  0  0
    5.3230   -0.2434    0.1678 C   0  0  0  0  0  0  0  0  0  0  0  0
  1 22  1  0
  2 10  1  0
  2 17  1  0
  3 17  2  0
  4  8  1  0
  5  8  2  0
  6  9  1  0
  7  9  2  0
  8 11  1  0
  9 12  1  0
 10 11  2  0
 10 14  1  0
 11 13  1  0
 12 13  2  0
 12 15  1  0
 14 15  2  0
 16 17  1  0
 16 18  2  0
 16 19  1  0
 18 20  1  0
 19 21  2  0
 20 22  2  0
 21 22  1  0
M  CHG  4   4  -1   6  -1   8   1   9   1
M  END
>  <PUBCHEM_COMPOUND_CID>  (1) 
36237

>  <PUBCHEM_CONFORMER_RMSD>  (1) 
0.8

>  <PUBCHEM_CONFORMER_DIVERSEORDER>  (1) 
1
14
12
9
5
4
13
7
11
10
2
8
3
6

>  <PUBCHEM_MMFF94_PARTIAL_CHARGES>  (1) 
29
1 -0.18
10 0.08
11 0.13
12 0.13
13 -0.15
14 -0.15
15 -0.15
16 0.09
17 0.63
18 -0.15
19 -0.15
2 -0.23
20 -0.15
21 -0.15
22 0.18
23 0.15
24 0.15
25 0.15
26 0.15
27 0.15
28 0.15
29 0.15
3 -0.57
4 -0.52
5 -0.52
6 -0.52
7 -0.52
8 0.91
9 0.91

>  <PUBCHEM_EFFECTIVE_ROTOR_COUNT>  (1) 
5

>  <PUBCHEM_PHARMACOPHORE_FEATURES>  (1) 
9
1 3 acceptor
1 4 acceptor
1 4 anion
1 5 acceptor
1 6 acceptor
1 6 anion
1 7 acceptor
6 10 11 12 13 14 15 rings
6 16 18 19 20 21 22 rings

>  <PUBCHEM_HEAVY_ATOM_COUNT>  (1) 
22

>  <PUBCHEM_ATOM_DEF_STEREO_COUNT>  (1) 
0

>  <PUBCHEM_ATOM_UDEF_STEREO_COUNT>  (1) 
0

>  <PUBCHEM_BOND_DEF_STEREO_COUNT>  (1) 
0

>  <PUBCHEM_BOND_UDEF_STEREO_COUNT>  (1) 
0

>  <PUBCHEM_ISOTOPIC_ATOM_COUNT>  (1) 
0

>  <PUBCHEM_COMPONENT_COUNT>  (1) 
1

>  <PUBCHEM_CACTVS_TAUTO_COUNT>  (1) 
1

>  <PUBCHEM_CONFORMER_ID>  (1) 
00008D8D00000001

>  <PUBCHEM_MMFF94_ENERGY>  (1) 
79.508

>  <PUBCHEM_FEATURE_SELFOVERLAP>  (1) 
45.837

>  <PUBCHEM_SHAPE_FINGERPRINT>  (1) 
10 15 17988349452540870322
10366900 7 18342179972938052186
10906281 52 18269577016795386705
10968037 39 18408603677563157931
11315181 36 17967538986823360064
11963148 33 18343294898772028519
12107183 9 17540808396555983418
12166972 35 17749391485794420068
12236239 1 17894630357299608730
12403259 415 17131540675115149296
12516196 113 18342457066694536850
12788726 201 18336824199868963041
13288520 33 18411136944111700875
13533116 47 18260260816403852882
13583140 156 17916569957118600946
13862211 1 18411980295437457675
13914758 101 16878216463997252540
17492 89 18265895744365641354
18222031 100 18060139872698568031
19489759 90 18411419501177512098
200 152 18186236238337993518
20344682 1 17775288252929500999
20374829 77 18413388761184233667
20511986 3 17895462709271655550
21033648 29 17131537355152850536
21065198 48 18187926119760373226
21267235 1 18409737278341152603
22224240 67 16630240376600882206
2297311 6 18272097080303231974
23402539 116 18413385441111399015
23536379 177 16805319990063924239
23557571 272 18059866021325945292
23559900 14 18334855073713108760
26918003 58 17821450179190897194
29717793 49 18260834787354008358
3004659 81 18113335323561507618
3009799 131 18411127027433082845
335352 9 18410851071832083005
34797466 226 18060149773336865180
3633792 109 17604138229768483727
5374978 207 18410571799545860664
59755656 215 18411987923468512182
67856867 119 18115310106785785740
7226269 152 18334856100305140529
8863177 126 17899708048780480275

>  <PUBCHEM_SHAPE_MULTIPOLES>  (1) 
409.44
13.67
1.84
1
6.15
1.25
-0.24
-3.17
0.31
-2.07
0.35
0.98
-0.04
-0.61

>  <PUBCHEM_SHAPE_SELFOVERLAP>  (1) 
883.183

>  <PUBCHEM_SHAPE_VOLUME>  (1) 
225.3

>  <PUBCHEM_COORDINATE_TYPE>  (1) 
2
5
10

$$$$
