36234
     RDKit          3D

 19 18  0  0  0  0  0  0  0  0999 V2000
    1.4017   -1.9614   -0.9259 Cl  0  0  0  0  0  0  0  0  0  0  0  0
   -3.6710   -0.6148    0.4065 O   0  0  0  0  0  0  0  0  0  0  0  0
    3.3955   -0.9743    1.8323 O   0  0  0  0  0  0  0  0  0  0  0  0
    3.2804    1.3130   -0.7269 O   0  0  0  0  0  0  0  0  0  0  0  0
    4.1731   -1.4407   -0.1657 O   0  0  0  0  0  0  0  0  0  0  0  0
    1.6283    0.6576   -2.0116 O   0  0  0  0  0  0  0  0  0  0  0  0
   -2.2312   -0.3827   -1.3798 O   0  0  0  0  0  0  0  0  0  0  0  0
   -1.6398    2.1847    0.2942 O   0  0  0  0  0  0  0  0  0  0  0  0
    0.5161    2.5039    0.6073 O   0  0  0  0  0  0  0  0  0  0  0  0
   -0.2720    0.4044    0.4479 N   0  0  0  0  0  0  0  0  0  0  0  0
    3.2869   -1.0337    0.5977 N   0  0  0  0  0  0  0  0  0  0  0  0
    2.3221    0.5725   -0.9870 N   0  0  0  0  0  0  0  0  0  0  0  0
   -0.4812    1.7865    0.4647 N   0  0  0  0  0  0  0  0  0  0  0  0
    0.9865   -0.0595    1.0323 C   0  0  0  0  0  0  0  0  0  0  0  0
    1.9821   -0.5539   -0.0220 C   0  0  0  0  0  0  0  0  0  0  0  0
   -1.3976   -0.4155    0.9077 C   0  0  0  0  0  0  0  0  0  0  0  0
   -2.4438   -0.4646   -0.1777 C   0  0  0  0  0  0  0  0  0  0  0  0
   -4.7802   -0.6779   -0.4959 C   0  0  0  0  0  0  0  0  0  0  0  0
   -6.0560   -0.8437    0.3018 C   0  0  0  0  0  0  0  0  0  0  0  0
  1 15  1  0
  2 17  1  0
  2 18  1  0
  3 11  1  0
  4 12  1  0
  5 11  2  0
  6 12  2  0
  7 17  2  0
  8 13  1  0
  9 13  2  0
 10 13  1  0
 10 14  1  0
 10 16  1  0
 11 15  1  0
 12 15  1  0
 14 15  1  0
 16 17  1  0
 18 19  1  0
M  CHG  6   3  -1   4  -1   8  -1  11   1  12   1  13   1
M  END
>  <PUBCHEM_COMPOUND_CID>  (1) 
36234

>  <PUBCHEM_CONFORMER_RMSD>  (1) 
0.8

>  <PUBCHEM_CONFORMER_DIVERSEORDER>  (1) 
1
80
35
156
4
143
33
111
98
93
109
63
22
103
30
106
142
155
150
47
7
18
74
114
140
104
23
36
97
135
24
107
16
148
55
130
20
115
50
67
83
128
84
53
99
105
141
153
102
54
42
139
72
44
9
144
34
75
119
125
57
90
138
27
49
100
62
25
79
151
134
66
127
17
78
94
37
108
152
81
43
87
136
82
147
116
70
124
126
41
122
85
145
13
65
132
146
133
117
113
76
11
38
31
26
101
121
123
71
5
88
12
64
15
69
14
40
39
91
56
131
21
48
96
112
45
154
68
61
51
95
60
3
19
8
92
89
86
77
2
73
32
46
6
137
129
59
29
118
10
52
28
58
149
110
120

>  <PUBCHEM_MMFF94_PARTIAL_CHARGES>  (1) 
18
1 -0.29
10 -0.53
11 0.8
12 0.8
13 1.03
14 0.27
15 0.77
16 0.33
17 0.66
18 0.28
2 -0.43
3 -0.52
4 -0.52
5 -0.52
6 -0.52
7 -0.57
8 -0.52
9 -0.52

>  <PUBCHEM_EFFECTIVE_ROTOR_COUNT>  (1) 
9

>  <PUBCHEM_PHARMACOPHORE_FEATURES>  (1) 
9
1 3 acceptor
1 3 anion
1 4 acceptor
1 4 anion
1 5 acceptor
1 6 acceptor
1 7 acceptor
1 8 acceptor
1 9 acceptor

>  <PUBCHEM_HEAVY_ATOM_COUNT>  (1) 
19

>  <PUBCHEM_ATOM_DEF_STEREO_COUNT>  (1) 
0

>  <PUBCHEM_ATOM_UDEF_STEREO_COUNT>  (1) 
0

>  <PUBCHEM_BOND_DEF_STEREO_COUNT>  (1) 
0

>  <PUBCHEM_BOND_UDEF_STEREO_COUNT>  (1) 
0

>  <PUBCHEM_ISOTOPIC_ATOM_COUNT>  (1) 
0

>  <PUBCHEM_COMPONENT_COUNT>  (1) 
1

>  <PUBCHEM_CACTVS_TAUTO_COUNT>  (1) 
1

>  <PUBCHEM_CONFORMER_ID>  (1) 
00008D8A00000001

>  <PUBCHEM_MMFF94_ENERGY>  (1) 
52.3118

>  <PUBCHEM_FEATURE_SELFOVERLAP>  (1) 
45.923

>  <PUBCHEM_SHAPE_FINGERPRINT>  (1) 
12553582 1 18201716280073305575
12616999 72 18340216266376785271
13675066 3 16271933740130143527
14115302 16 18041001769163759267
14178342 30 17844532097732582208
14252887 29 16343709837104763591
14863182 85 18273219677185922654
16945 1 16702018673368422916
18186145 218 17313105246038365155
200 152 18260547801258854563
20369508 70 18341047518847727545
20645477 70 18259424130419238387
20671657 53 17531523183677950406
21069387 34 17531249396613630618
23402539 116 18337384942140784115
23419403 2 17900784328460373868
23557571 272 18059577923314225714
23559900 14 17458345277401236218
3060560 45 18130233768870529095
465052 167 18270688679292318839
633830 44 12396303677409661915
7164475 11 18337114441043028093
7495541 125 18189338030103348483
81228 2 18198354961173727385

>  <PUBCHEM_SHAPE_MULTIPOLES>  (1) 
326
8.9
1.91
1.31
11.26
1
0.17
-4.08
-0.39
-0.83
0.01
-0.92
-0.1
-0.49

>  <PUBCHEM_SHAPE_SELFOVERLAP>  (1) 
632.801

>  <PUBCHEM_SHAPE_VOLUME>  (1) 
197.9

>  <PUBCHEM_COORDINATE_TYPE>  (1) 
2
5
10

$$$$
