36242
     RDKit          3D

 18 20  0  0  1  0  0  0  0  0999 V2000
   -3.8492   -2.6125    0.5443 Cl  0  0  0  0  0  0  0  0  0  0  0  0
   -3.7915    2.6530   -0.6397 Cl  0  0  0  0  0  0  0  0  0  0  0  0
    0.9483    2.2049    0.7374 O   0  0  0  0  0  0  0  0  0  0  0  0
    0.9414   -2.2525   -0.5817 O   0  0  0  0  0  0  0  0  0  0  0  0
    0.5269   -0.0094    0.0307 N   0  0  0  0  0  0  0  0  0  0  0  0
    2.7352    0.6952    0.2967 C   0  0  0  0  0  0  0  0  0  0  0  0
    2.7351   -0.7581   -0.1147 C   0  0  0  0  0  0  0  0  0  0  0  0
    3.3050   -0.3495    1.2134 C   0  0  0  0  0  0  0  0  0  0  0  0
    1.3056    1.0896    0.3891 C   0  0  0  0  0  0  0  0  0  0  0  0
    1.3029   -1.1295   -0.2637 C   0  0  0  0  0  0  0  0  0  0  0  0
    3.7049    1.6341   -0.3436 C   0  0  0  0  0  0  0  0  0  0  0  0
    3.7091   -1.2221   -1.1488 C   0  0  0  0  0  0  0  0  0  0  0  0
   -0.8649   -0.0002    0.0056 C   0  0  0  0  0  0  0  0  0  0  0  0
   -1.5524    1.1831   -0.2720 C   0  0  0  0  0  0  0  0  0  0  0  0
   -1.5785   -1.1738    0.2576 C   0  0  0  0  0  0  0  0  0  0  0  0
   -2.9732   -1.1643    0.2322 C   0  0  0  0  0  0  0  0  0  0  0  0
   -2.9470    1.1928   -0.2975 C   0  0  0  0  0  0  0  0  0  0  0  0
   -3.6575    0.0192   -0.0454 C   0  0  0  0  0  0  0  0  0  0  0  0
  1 16  1  0
  2 17  1  0
  3  9  2  0
  4 10  2  0
  5  9  1  0
  5 10  1  0
  5 13  1  0
  6  7  1  0
  6  8  1  0
  6  9  1  0
  6 11  1  0
  7  8  1  0
  7 10  1  0
  7 12  1  0
 13 14  2  0
 13 15  1  0
 14 17  1  0
 15 16  2  0
 16 18  1  0
 17 18  2  0
M  END
>  <PUBCHEM_COMPOUND_CID>  (1) 
36242

>  <PUBCHEM_CONFORMER_RMSD>  (1) 
0.6

>  <PUBCHEM_CONFORMER_DIVERSEORDER>  (1) 
2
1
3

>  <PUBCHEM_MMFF94_PARTIAL_CHARGES>  (1) 
23
1 -0.18
10 0.63
11 0.09
12 0.09
13 0.12
14 -0.15
15 -0.15
16 0.18
17 0.18
18 -0.15
19 0.1
2 -0.18
20 0.1
27 0.15
28 0.15
29 0.15
3 -0.57
4 -0.57
5 -0.24
6 -0.09
7 -0.09
8 -0.2
9 0.63

>  <PUBCHEM_EFFECTIVE_ROTOR_COUNT>  (1) 
1.4

>  <PUBCHEM_PHARMACOPHORE_FEATURES>  (1) 
4
1 3 acceptor
1 4 acceptor
6 13 14 15 16 17 18 rings
6 5 6 7 8 9 10 rings

>  <PUBCHEM_HEAVY_ATOM_COUNT>  (1) 
18

>  <PUBCHEM_ATOM_DEF_STEREO_COUNT>  (1) 
0

>  <PUBCHEM_ATOM_UDEF_STEREO_COUNT>  (1) 
2

>  <PUBCHEM_BOND_DEF_STEREO_COUNT>  (1) 
0

>  <PUBCHEM_BOND_UDEF_STEREO_COUNT>  (1) 
0

>  <PUBCHEM_ISOTOPIC_ATOM_COUNT>  (1) 
0

>  <PUBCHEM_COMPONENT_COUNT>  (1) 
1

>  <PUBCHEM_CACTVS_TAUTO_COUNT>  (1) 
1

>  <PUBCHEM_CONFORMER_ID>  (1) 
00008D9200000002

>  <PUBCHEM_MMFF94_ENERGY>  (1) 
58.2464

>  <PUBCHEM_FEATURE_SELFOVERLAP>  (1) 
20.297

>  <PUBCHEM_SHAPE_FINGERPRINT>  (1) 
10608611 8 18410852157509652045
10616163 171 18409730685719139039
10646746 165 18408319973609028020
10967382 1 18196653123184328914
1100329 8 16468400713203144216
11132069 177 18411131416098459400
12032990 46 18343309158331384494
12403259 226 18340484581689517843
12500047 106 18262798441705436285
12654215 9 18271239413915196788
13134695 92 16988556871424330544
13140716 1 18411411787537678560
13224815 77 18335422404190209023
13296908 3 18272091586665728374
13675066 3 18202273711041289106
13760787 19 17967817094023705146
14178342 30 18262222353051606203
14289901 80 18114181972878458897
15196674 1 18411138051801644170
15219456 202 18413108355221817607
15375358 24 18270388400204643345
16945 1 18194404394573038112
18186145 218 18270966738930784817
19049666 15 18340486647568605323
200 152 17703782644268273663
20261772 1 17986396809040560015
20510252 161 18411704326476458425
20645477 56 18189337879700384861
20645477 70 17560518400286865078
21267235 1 18410864247684360739
21501502 16 18334292084672380497
221490 88 18412271644348770622
22943178 12 18342736316767353243
2334 1 18341047510104740584
23402539 116 18188480406459218767
23557571 272 18411426102505394485
23558518 356 18114183077207566017
23559900 14 18268709407827333614
25 1 18122337978835938101
2748010 2 18343017796339705092
2871803 45 18336260245321039759
335352 9 18194399983303891964
495365 180 17701514252362979689
5104073 3 18411417319175754128
6049 1 18342462564358164217
6438718 38 16199040396669416601
69090 78 18341043048108454343
7097593 13 17679562476997707490
81228 2 18113623421799619641
8809292 202 18408327670211768491
9709674 26 18412824660095499551

>  <PUBCHEM_SHAPE_MULTIPOLES>  (1) 
357.45
7.89
2.66
0.89
1.03
0.17
-0.01
0.06
0.43
2.36
0.15
-0.52
-0.07
1.12

>  <PUBCHEM_SHAPE_SELFOVERLAP>  (1) 
768.534

>  <PUBCHEM_SHAPE_VOLUME>  (1) 
203.3

>  <PUBCHEM_COORDINATE_TYPE>  (1) 
2
5
10

$$$$
