36240
     RDKit          3D

  9  8  0  0  0  0  0  0  0  0999 V2000
   -3.9393   -0.0660   -0.0301 Cl  0  0  0  0  0  0  0  0  0  0  0  0
    2.4273    0.7658    0.0065 O   0  0  0  0  0  0  0  0  0  0  0  0
   -1.2925   -1.1937    0.0257 O   0  0  0  0  0  0  0  0  0  0  0  0
    1.3749   -1.2851   -0.0093 O   0  0  0  0  0  0  0  0  0  0  0  0
    0.0889    0.7802    0.0329 C   0  0  0  0  0  0  0  0  0  0  0  0
   -1.2337    0.0343    0.0043 C   0  0  0  0  0  0  0  0  0  0  0  0
    1.3399   -0.0630    0.0153 C   0  0  0  0  0  0  0  0  0  0  0  0
   -2.4657    0.9145   -0.0099 C   0  0  0  0  0  0  0  0  0  0  0  0
    3.7002    0.1129   -0.0354 C   0  0  0  0  0  0  0  0  0  0  0  0
  1  8  1  0
  2  7  1  0
  2  9  1  0
  3  6  2  0
  4  7  2  0
  5  6  1  0
  5  7  1  0
  6  8  1  0
M  END
>  <PUBCHEM_COMPOUND_CID>  (1) 
36240

>  <PUBCHEM_CONFORMER_RMSD>  (1) 
0.6

>  <PUBCHEM_CONFORMER_DIVERSEORDER>  (1) 
1
38
21
26
11
18
33
20
2
39
22
13
34
27
42
30
47
9
35
25
32
41
45
6
23
14
36
46
31
5
44
16
19
40
29
24
37
10
4
43
28
12
8
3
15
7
17

>  <PUBCHEM_MMFF94_PARTIAL_CHARGES>  (1) 
9
1 -0.29
2 -0.43
3 -0.57
4 -0.57
5 0.12
6 0.45
7 0.66
8 0.35
9 0.28

>  <PUBCHEM_EFFECTIVE_ROTOR_COUNT>  (1) 
4

>  <PUBCHEM_PHARMACOPHORE_FEATURES>  (1) 
3
1 3 acceptor
1 4 acceptor
1 5 anion

>  <PUBCHEM_HEAVY_ATOM_COUNT>  (1) 
9

>  <PUBCHEM_ATOM_DEF_STEREO_COUNT>  (1) 
0

>  <PUBCHEM_ATOM_UDEF_STEREO_COUNT>  (1) 
0

>  <PUBCHEM_BOND_DEF_STEREO_COUNT>  (1) 
0

>  <PUBCHEM_BOND_UDEF_STEREO_COUNT>  (1) 
0

>  <PUBCHEM_ISOTOPIC_ATOM_COUNT>  (1) 
0

>  <PUBCHEM_COMPONENT_COUNT>  (1) 
1

>  <PUBCHEM_CACTVS_TAUTO_COUNT>  (1) 
5

>  <PUBCHEM_CONFORMER_ID>  (1) 
00008D9000000001

>  <PUBCHEM_MMFF94_ENERGY>  (1) 
9.2201

>  <PUBCHEM_FEATURE_SELFOVERLAP>  (1) 
15.231

>  <PUBCHEM_SHAPE_FINGERPRINT>  (1) 
11062470 55 18409166614726538397
12932764 1 16486678187376501209
13380535 76 18410012139010419378
14325111 11 18410573942676668257
14390081 3 18343580741681901416
20645477 70 18267297639171209215
20719005 15 18410573989467523945
21293036 1 18273495680236387581
23235685 24 18410568491893580293
23402539 116 18273205392171570989
23402655 69 18341885252514374141
29004967 10 17749116573121373392
3248919 1 16733278867167521681
5460574 1 9295287244411356265

>  <PUBCHEM_SHAPE_MULTIPOLES>  (1) 
169.48
6.25
1.08
0.59
0.36
0.17
0
-0.4
-0.11
0.05
0
0.05
-0.02
0

>  <PUBCHEM_SHAPE_SELFOVERLAP>  (1) 
309.145

>  <PUBCHEM_SHAPE_VOLUME>  (1) 
108.2

>  <PUBCHEM_COORDINATE_TYPE>  (1) 
2
5
10

$$$$
