36243
     RDKit          3D

  9  8  0  0  1  0  0  0  0  0999 V2000
    2.4691    1.1662   -0.0997 Cl  0  0  0  0  0  0  0  0  0  0  0  0
    1.2338   -0.9508    1.4721 Cl  0  0  0  0  0  0  0  0  0  0  0  0
    1.5457   -1.2570   -1.3916 Cl  0  0  0  0  0  0  0  0  0  0  0  0
   -0.4506    1.5959    0.6115 O   0  0  0  0  0  0  0  0  0  0  0  0
   -1.5800   -1.0775    0.8457 O   0  0  0  0  0  0  0  0  0  0  0  0
   -0.2119    0.5711   -0.3605 C   0  0  0  0  0  0  0  0  0  0  0  0
   -1.4371   -0.3705   -0.3814 C   0  0  0  0  0  0  0  0  0  0  0  0
    1.1702   -0.0702   -0.0866 C   0  0  0  0  0  0  0  0  0  0  0  0
   -2.7392    0.3928   -0.6095 C   0  0  0  0  0  0  0  0  0  0  0  0
  1  8  1  0
  2  8  1  0
  3  8  1  0
  4  6  1  0
  5  7  1  0
  6  7  1  0
  6  8  1  0
  7  9  1  0
M  END
>  <PUBCHEM_COMPOUND_CID>  (1) 
36243

>  <PUBCHEM_CONFORMER_RMSD>  (1) 
0.4

>  <PUBCHEM_CONFORMER_DIVERSEORDER>  (1) 
1
4
5
9
12
7
10
11
6
3
8
2

>  <PUBCHEM_MMFF94_PARTIAL_CHARGES>  (1) 
10
1 -0.29
15 0.4
16 0.4
2 -0.29
3 -0.29
4 -0.68
5 -0.68
6 0.28
7 0.28
8 0.87

>  <PUBCHEM_EFFECTIVE_ROTOR_COUNT>  (1) 
2

>  <PUBCHEM_PHARMACOPHORE_FEATURES>  (1) 
4
1 4 acceptor
1 4 donor
1 5 acceptor
1 5 donor

>  <PUBCHEM_HEAVY_ATOM_COUNT>  (1) 
9

>  <PUBCHEM_ATOM_DEF_STEREO_COUNT>  (1) 
0

>  <PUBCHEM_ATOM_UDEF_STEREO_COUNT>  (1) 
2

>  <PUBCHEM_BOND_DEF_STEREO_COUNT>  (1) 
0

>  <PUBCHEM_BOND_UDEF_STEREO_COUNT>  (1) 
0

>  <PUBCHEM_ISOTOPIC_ATOM_COUNT>  (1) 
0

>  <PUBCHEM_COMPONENT_COUNT>  (1) 
1

>  <PUBCHEM_CACTVS_TAUTO_COUNT>  (1) 
1

>  <PUBCHEM_CONFORMER_ID>  (1) 
00008D9300000001

>  <PUBCHEM_MMFF94_ENERGY>  (1) 
15.2783

>  <PUBCHEM_FEATURE_SELFOVERLAP>  (1) 
20.301

>  <PUBCHEM_SHAPE_FINGERPRINT>  (1) 
12897270 3 18202290225042927244
137420 1 16970515285650421994
18185500 45 17677882431709448274
20711985 344 18050010991063247252
21040471 1 17385724686017481799
23211744 41 18118406386931400908
23552333 60 18187918439604675280
23552423 10 18200317589302420919
24536 1 18200025127852114348
29004967 10 18200605798740300610
5084963 1 17203042985078047014

>  <PUBCHEM_SHAPE_MULTIPOLES>  (1) 
179.09
3.34
1.47
1.29
1.19
0.16
-0.11
0.43
0.51
-0.5
-0.07
-0.47
-0.55
0.19

>  <PUBCHEM_SHAPE_SELFOVERLAP>  (1) 
307.641

>  <PUBCHEM_SHAPE_VOLUME>  (1) 
119.6

>  <PUBCHEM_COORDINATE_TYPE>  (1) 
2
5
10

$$$$
