36247
     RDKit          3D

 18 17  0  0  0  0  0  0  0  0999 V2000
   -9.3832    0.6064    0.2055 O   0  0  0  0  0  0  0  0  0  0  0  0
   -8.3816   -1.3374   -0.4242 O   0  0  0  0  0  0  0  0  0  0  0  0
    1.9041   -0.4728    0.0128 C   0  0  0  0  0  0  0  0  0  0  0  0
    3.1877    0.3422    0.1877 C   0  0  0  0  0  0  0  0  0  0  0  0
    0.6638    0.4158    0.1318 C   0  0  0  0  0  0  0  0  0  0  0  0
    4.4301   -0.5375    0.0374 C   0  0  0  0  0  0  0  0  0  0  0  0
    5.7138    0.2711    0.2449 C   0  0  0  0  0  0  0  0  0  0  0  0
   -0.6521   -0.3442   -0.0653 C   0  0  0  0  0  0  0  0  0  0  0  0
    6.9549   -0.6080    0.0579 C   0  0  0  0  0  0  0  0  0  0  0  0
   -1.8924    0.5308    0.1326 C   0  0  0  0  0  0  0  0  0  0  0  0
    8.3058    0.1206    0.1920 C   0  0  0  0  0  0  0  0  0  0  0  0
   -3.2109   -0.2269   -0.0610 C   0  0  0  0  0  0  0  0  0  0  0  0
   -4.4913    0.5865    0.1539 C   0  0  0  0  0  0  0  0  0  0  0  0
   -5.7715   -0.2107   -0.1161 C   0  0  0  0  0  0  0  0  0  0  0  0
    8.4679    1.2439   -0.8318 C   0  0  0  0  0  0  0  0  0  0  0  0
    9.4936   -0.8394    0.1250 C   0  0  0  0  0  0  0  0  0  0  0  0
   -7.0333    0.6251    0.1034 C   0  0  0  0  0  0  0  0  0  0  0  0
   -8.3052   -0.1657   -0.0865 C   0  0  0  0  0  0  0  0  0  0  0  0
  1 18  1  0
  2 18  2  0
  3  4  1  0
  3  5  1  0
  4  6  1  0
  5  8  1  0
  6  7  1  0
  7  9  1  0
  8 10  1  0
  9 11  1  0
 10 12  1  0
 11 15  1  0
 11 16  1  0
 12 13  1  0
 13 14  1  0
 14 17  1  0
 17 18  1  0
M  END
>  <PUBCHEM_COMPOUND_CID>  (1) 
36247

>  <PUBCHEM_CONFORMER_RMSD>  (1) 
1.4

>  <PUBCHEM_CONFORMER_DIVERSEORDER>  (1) 
1
31
24
17
5
36
23
34
28
16
26
18
20
3
32
35
6
8
2
9
15
14
22
39
38
13
12
30
29
19
10
4
33
37
11
7
21
25
27
40

>  <PUBCHEM_MMFF94_PARTIAL_CHARGES>  (1) 
5
1 -0.65
17 0.06
18 0.66
2 -0.57
50 0.5

>  <PUBCHEM_EFFECTIVE_ROTOR_COUNT>  (1) 
13

>  <PUBCHEM_PHARMACOPHORE_FEATURES>  (1) 
4
1 1 acceptor
1 2 acceptor
3 1 2 18 anion
3 11 15 16 hydrophobe

>  <PUBCHEM_HEAVY_ATOM_COUNT>  (1) 
18

>  <PUBCHEM_ATOM_DEF_STEREO_COUNT>  (1) 
0

>  <PUBCHEM_ATOM_UDEF_STEREO_COUNT>  (1) 
0

>  <PUBCHEM_BOND_DEF_STEREO_COUNT>  (1) 
0

>  <PUBCHEM_BOND_UDEF_STEREO_COUNT>  (1) 
0

>  <PUBCHEM_ISOTOPIC_ATOM_COUNT>  (1) 
0

>  <PUBCHEM_COMPONENT_COUNT>  (1) 
1

>  <PUBCHEM_CACTVS_TAUTO_COUNT>  (1) 
1

>  <PUBCHEM_CONFORMER_ID>  (1) 
00008D9700000001

>  <PUBCHEM_MMFF94_ENERGY>  (1) 
4.5686

>  <PUBCHEM_FEATURE_SELFOVERLAP>  (1) 
20.354

>  <PUBCHEM_SHAPE_FINGERPRINT>  (1) 
11315181 36 18408326588723853497
12091667 2 17966969414616015145
14123256 10 18410855455833194498
14202775 3 18412549803669504654
14251764 18 18201721738633834304
14251764 46 18410293605396682219
14428016 248 18409454690957745925
16120349 18 18040436629336316508
20621476 8 11455891356059692705
21095086 128 18410009923408408506
21150785 3 18409729560226600432
21362267 20 18409448120117628963
21362267 313 17896591800397397288
22224240 67 16732984232622084650
232437 2 18409166602153022290
23521765 1 18341894090834051080
23581129 1 18409448080949641227
246663 6 16487256573146926888
28498 318 12031791357733760576
33684 2 18410855455833194506
67123 10 18410573993741385732
8209 1 18410573985151451145

>  <PUBCHEM_SHAPE_MULTIPOLES>  (1) 
358.69
37.53
0.97
0.67
7.26
0.01
0.03
-1.05
1.98
-0.41
0.09
-0.3
0.04
-0.85

>  <PUBCHEM_SHAPE_SELFOVERLAP>  (1) 
653.495

>  <PUBCHEM_SHAPE_VOLUME>  (1) 
229

>  <PUBCHEM_COORDINATE_TYPE>  (1) 
2
5
10

$$$$
