36249
     RDKit          3D

 16 17  0  0  0  0  0  0  0  0999 V2000
    0.9877    1.4823   -0.7357 O   0  0  0  0  0  0  0  0  0  0  0  0
   -3.9241   -1.7777    0.2384 O   0  0  0  0  0  0  0  0  0  0  0  0
   -2.1740   -0.2203   -0.0357 C   0  0  0  0  0  0  0  0  0  0  0  0
   -0.3037    1.2744   -0.3600 C   0  0  0  0  0  0  0  0  0  0  0  0
   -0.8499   -0.0078   -0.4198 C   0  0  0  0  0  0  0  0  0  0  0  0
   -2.9518    0.8492    0.4080 C   0  0  0  0  0  0  0  0  0  0  0  0
   -1.0817    2.3439    0.0837 C   0  0  0  0  0  0  0  0  0  0  0  0
    1.9426    0.5888   -0.2800 C   0  0  0  0  0  0  0  0  0  0  0  0
   -2.4057    2.1313    0.4678 C   0  0  0  0  0  0  0  0  0  0  0  0
   -2.7438   -1.5570   -0.0984 C   0  0  0  0  0  0  0  0  0  0  0  0
    1.9242    0.2021    1.0478 C   0  0  0  0  0  0  0  0  0  0  0  0
    2.8901    0.1067   -1.1647 C   0  0  0  0  0  0  0  0  0  0  0  0
    2.8865   -0.6974    1.5067 C   0  0  0  0  0  0  0  0  0  0  0  0
    3.8523   -0.7929   -0.7057 C   0  0  0  0  0  0  0  0  0  0  0  0
   -1.8991   -2.7306   -0.5825 C   0  0  0  0  0  0  0  0  0  0  0  0
    3.8504   -1.1949    0.6300 C   0  0  0  0  0  0  0  0  0  0  0  0
  1  4  1  0
  1  8  1  0
  2 10  2  0
  3  5  2  0
  3  6  1  0
  3 10  1  0
  4  5  1  0
  4  7  2  0
  6  9  2  0
  7  9  1  0
  8 11  2  0
  8 12  1  0
 10 15  1  0
 11 13  1  0
 12 14  2  0
 13 16  2  0
 14 16  1  0
M  END
>  <PUBCHEM_COMPOUND_CID>  (1) 
36249

>  <PUBCHEM_CONFORMER_RMSD>  (1) 
0.6

>  <PUBCHEM_CONFORMER_DIVERSEORDER>  (1) 
1
12
14
11
2
13
8
9
4
22
25
26
16
23
20
7
24
21
17
6
19
18
3
5
10
15

>  <PUBCHEM_MMFF94_PARTIAL_CHARGES>  (1) 
25
1 -0.17
10 0.42
11 -0.15
12 -0.15
13 -0.15
14 -0.15
15 0.06
16 -0.15
17 0.15
18 0.15
19 0.15
2 -0.57
20 0.15
21 0.15
22 0.15
23 0.15
24 0.15
28 0.15
3 0.09
4 0.08
5 -0.15
6 -0.15
7 -0.15
8 0.08
9 -0.15

>  <PUBCHEM_EFFECTIVE_ROTOR_COUNT>  (1) 
3

>  <PUBCHEM_PHARMACOPHORE_FEATURES>  (1) 
4
1 1 acceptor
1 2 acceptor
6 3 4 5 6 7 9 rings
6 8 11 12 13 14 16 rings

>  <PUBCHEM_HEAVY_ATOM_COUNT>  (1) 
16

>  <PUBCHEM_ATOM_DEF_STEREO_COUNT>  (1) 
0

>  <PUBCHEM_ATOM_UDEF_STEREO_COUNT>  (1) 
0

>  <PUBCHEM_BOND_DEF_STEREO_COUNT>  (1) 
0

>  <PUBCHEM_BOND_UDEF_STEREO_COUNT>  (1) 
0

>  <PUBCHEM_ISOTOPIC_ATOM_COUNT>  (1) 
0

>  <PUBCHEM_COMPONENT_COUNT>  (1) 
1

>  <PUBCHEM_CACTVS_TAUTO_COUNT>  (1) 
2

>  <PUBCHEM_CONFORMER_ID>  (1) 
00008D9900000001

>  <PUBCHEM_MMFF94_ENERGY>  (1) 
55.1072

>  <PUBCHEM_FEATURE_SELFOVERLAP>  (1) 
20.297

>  <PUBCHEM_SHAPE_FINGERPRINT>  (1) 
10366900 7 17561074766245435440
10616163 171 18410579452967202566
10618630 7 18338514248025264263
11471102 22 16200147664960096800
11578080 2 17823674491193452260
12346177 29 18342446007354248877
12500047 106 18197491827339640752
12553582 1 18268149944965415591
12824470 246 18041274447973471331
13538477 17 18334295327462561188
14178342 30 18265318539557403698
15279307 12 18116716205599627042
15375462 189 18113626685146765024
15653759 3 17704352143598460920
15669948 3 18408608036970709788
15885798 251 18339644555148794763
16752209 62 18336532851195013351
16945 1 18339641122895224125
17804303 29 18272092681824256072
18186145 218 12396576295825873220
18522851 12 18114751425670933058
19049666 15 17273143371314844028
19422 9 18260274027364013076
20281475 54 18335138644733976022
20291156 8 18335702814083809867
20361792 2 17385722469962212812
20442098 301 18411136935368804962
20645477 70 17689992758380249871
21634736 98 18188779469236868270
21650355 55 18341323418630191273
21731516 1 18187361043117703560
22646028 28 18260827107245477682
23184049 29 18339918311431165904
232386 152 18410293614208267068
23402539 116 18201147768612379397
23557571 272 18272370897559118856
23559900 14 18343863312323860244
23598291 2 17968111801810577036
23598294 1 18411144623281111265
23728640 28 18339642239892488051
465052 167 17969808361738407033
568465 68 17203607069287956150
58807428 26 18053677871511953289
5902787 121 18413105061309365056
602551 16 18342173333092808970
603831 33 18040441001238132980
6338986 31 18053932124796063607
7364860 26 17981892148297577005
74978 22 18409163294648604252
77492 1 17894919486087310956
90525 40 18189899712270920171

>  <PUBCHEM_SHAPE_MULTIPOLES>  (1) 
317.53
6.95
2.48
1.07
2.92
0.5
-0.14
2.97
-0.67
-2.75
0.16
0.96
0.06
-0.57

>  <PUBCHEM_SHAPE_SELFOVERLAP>  (1) 
684.923

>  <PUBCHEM_SHAPE_VOLUME>  (1) 
174.8

>  <PUBCHEM_COORDINATE_TYPE>  (1) 
2
5
10

$$$$
