36255
     RDKit          3D

 29 30  0  0  0  0  0  0  0  0999 V2000
    7.8285    1.0779    1.1398 Br  0  0  0  0  0  0  0  0  0  0  0  0
    3.7736   -3.6503   -0.2600 Br  0  0  0  0  0  0  0  0  0  0  0  0
   -0.4501    2.3230    1.2934 S   0  0  0  0  0  0  0  0  0  0  0  0
   -3.3590   -2.6526    2.1867 O   0  0  0  0  0  0  0  0  0  0  0  0
   -3.3953    3.8978   -0.0494 O   0  0  0  0  0  0  0  0  0  0  0  0
   -2.1189    3.3150   -1.7377 O   0  0  0  0  0  0  0  0  0  0  0  0
   -4.5428   -2.0345   -1.7282 O   0  0  0  0  0  0  0  0  0  0  0  0
   -5.8209   -1.4543   -0.0402 O   0  0  0  0  0  0  0  0  0  0  0  0
    4.4190   -0.5654   -0.6483 N   0  0  0  0  0  0  0  0  0  0  0  0
   -2.7473    3.0380   -0.6899 N   0  0  0  0  0  0  0  0  0  0  0  0
   -4.7482   -1.3728   -0.6837 N   0  0  0  0  0  0  0  0  0  0  0  0
   -2.0131   -3.2544    0.4303 N   0  0  0  0  0  0  0  0  0  0  0  0
    3.2717    0.1154   -0.1909 C   0  0  0  0  0  0  0  0  0  0  0  0
    5.6672   -0.4736    0.0828 C   0  0  0  0  0  0  0  0  0  0  0  0
    4.3688   -1.3544   -1.8632 C   0  0  0  0  0  0  0  0  0  0  0  0
    2.3221    0.5736   -1.1043 C   0  0  0  0  0  0  0  0  0  0  0  0
    3.0868    0.3306    1.1749 C   0  0  0  0  0  0  0  0  0  0  0  0
    1.0021    1.4617    0.7142 C   0  0  0  0  0  0  0  0  0  0  0  0
    6.1419    0.9642    0.1688 C   0  0  0  0  0  0  0  0  0  0  0  0
    3.3431   -2.4655   -1.7471 C   0  0  0  0  0  0  0  0  0  0  0  0
    1.1872    1.2466   -0.6517 C   0  0  0  0  0  0  0  0  0  0  0  0
    1.9520    1.0039    1.6273 C   0  0  0  0  0  0  0  0  0  0  0  0
   -1.7489    1.2504    0.6825 C   0  0  0  0  0  0  0  0  0  0  0  0
   -2.7238    1.6976   -0.2093 C   0  0  0  0  0  0  0  0  0  0  0  0
   -2.7535   -0.9468    0.6798 C   0  0  0  0  0  0  0  0  0  0  0  0
   -1.7633   -0.0718    1.1270 C   0  0  0  0  0  0  0  0  0  0  0  0
   -3.7287   -0.4996   -0.2119 C   0  0  0  0  0  0  0  0  0  0  0  0
   -3.7137    0.8224   -0.6566 C   0  0  0  0  0  0  0  0  0  0  0  0
   -2.7365   -2.3219    1.1647 C   0  0  0  0  0  0  0  0  0  0  0  0
  1 19  1  0
  2 20  1  0
  3 18  1  0
  3 23  1  0
  4 29  2  0
  5 10  1  0
  6 10  2  0
  7 11  1  0
  8 11  2  0
  9 13  1  0
  9 14  1  0
  9 15  1  0
 10 24  1  0
 11 27  1  0
 12 29  1  0
 13 16  2  0
 13 17  1  0
 14 19  1  0
 15 20  1  0
 16 21  1  0
 17 22  2  0
 18 21  2  0
 18 22  1  0
 23 24  2  0
 23 26  1  0
 24 28  1  0
 25 26  2  0
 25 27  1  0
 25 29  1  0
 27 28  2  0
M  CHG  4   5  -1   7  -1  10   1  11   1
M  END
>  <PUBCHEM_COMPOUND_CID>  (1) 
36255

>  <PUBCHEM_CONFORMER_RMSD>  (1) 
1

>  <PUBCHEM_CONFORMER_DIVERSEORDER>  (1) 
3
11
10
31
23
40
24
22
39
12
44
43
35
20
5
28
49
54
47
45
21
15
48
55
8
19
52
13
50
27
42
46
25
56
36
6
32
51
53
18
16
26
38
14
7
33
34
1
17
30
37
2
4
9
29
41

>  <PUBCHEM_MMFF94_PARTIAL_CHARGES>  (1) 
37
1 -0.23
10 0.91
11 0.91
12 -0.8
13 0.1
14 0.37
15 0.37
16 -0.15
17 -0.15
18 0.1
19 0.23
2 -0.23
20 0.23
21 -0.15
22 -0.15
23 0.1
24 0.13
25 0.09
26 -0.15
27 0.13
28 -0.15
29 0.54
3 -0.2
34 0.15
35 0.15
4 -0.57
40 0.15
41 0.15
42 0.15
43 0.15
44 0.37
45 0.37
5 -0.52
6 -0.52
7 -0.52
8 -0.52
9 -0.84

>  <PUBCHEM_EFFECTIVE_ROTOR_COUNT>  (1) 
10

>  <PUBCHEM_PHARMACOPHORE_FEATURES>  (1) 
13
1 1 hydrophobe
1 12 donor
1 2 hydrophobe
1 4 acceptor
1 5 acceptor
1 5 anion
1 6 acceptor
1 7 acceptor
1 7 anion
1 8 acceptor
1 9 cation
6 13 16 17 18 21 22 rings
6 23 24 25 26 27 28 rings

>  <PUBCHEM_HEAVY_ATOM_COUNT>  (1) 
29

>  <PUBCHEM_ATOM_DEF_STEREO_COUNT>  (1) 
0

>  <PUBCHEM_ATOM_UDEF_STEREO_COUNT>  (1) 
0

>  <PUBCHEM_BOND_DEF_STEREO_COUNT>  (1) 
0

>  <PUBCHEM_BOND_UDEF_STEREO_COUNT>  (1) 
0

>  <PUBCHEM_ISOTOPIC_ATOM_COUNT>  (1) 
0

>  <PUBCHEM_COMPONENT_COUNT>  (1) 
1

>  <PUBCHEM_CACTVS_TAUTO_COUNT>  (1) 
2

>  <PUBCHEM_CONFORMER_ID>  (1) 
00008D9F00000003

>  <PUBCHEM_MMFF94_ENERGY>  (1) 
106.6605

>  <PUBCHEM_FEATURE_SELFOVERLAP>  (1) 
66.134

>  <PUBCHEM_SHAPE_FINGERPRINT>  (1) 
10835480 77 18272082735329624664
11796584 16 18055636110289623886
12373685 5 18194942085955537140
12596602 18 15769784576069323410
12788726 201 18334284362906667241
13402501 40 18272654549435687823
13583140 156 17917701388537489900
14659021 117 18339631339143950479
14790565 3 17477493001753491801
14910302 57 18188773812722852268
19958102 18 18116994386368050845
20511986 3 17531508928966338568
22393880 68 18266467499302173806
23557571 272 18410853265674947016
23559900 14 18263356065630982841
23572383 38 18340769230911070798
2838139 119 12685083804605293687
339767 52 18187643643761214618
4073 2 18341896247588622648
4280585 95 18114736139956660100
44062 13 18267588996508478167
463206 1 18200593721519923375
508706 21 18335994077238500607
59755656 520 17913211958524693913
9709674 26 18410579478414622731
9862886 166 18409444821465193576

>  <PUBCHEM_SHAPE_MULTIPOLES>  (1) 
563.27
14.54
4.11
1.67
15.41
1.02
0.03
2.15
0
-2.66
0.44
-0.04
0.32
2.72

>  <PUBCHEM_SHAPE_SELFOVERLAP>  (1) 
1144.608

>  <PUBCHEM_SHAPE_VOLUME>  (1) 
337.2

>  <PUBCHEM_COORDINATE_TYPE>  (1) 
2
5
10

$$$$
