36257
     RDKit          3D

 29 30  0  0  1  0  0  0  0  0999 V2000
    7.3529   -3.2311    0.2181 Cl  0  0  0  0  0  0  0  0  0  0  0  0
   -5.1628    2.6040    1.1278 O   0  0  0  0  0  0  0  0  0  0  0  0
   -1.3458   -3.1281   -1.1369 O   0  0  0  0  0  0  0  0  0  0  0  0
   -1.3623   -3.1779    1.0577 O   0  0  0  0  0  0  0  0  0  0  0  0
   -6.6668   -0.6191    1.0788 O   0  0  0  0  0  0  0  0  0  0  0  0
   -6.6494   -0.5704   -1.1158 O   0  0  0  0  0  0  0  0  0  0  0  0
    5.8696    0.5156   -0.0533 N   0  0  0  0  0  0  0  0  0  0  0  0
   -0.4499   -0.0675    0.0348 N   0  0  0  0  0  0  0  0  0  0  0  0
   -1.6848   -2.6467   -0.0306 N   0  0  0  0  0  0  0  0  0  0  0  0
   -6.0557   -0.5387   -0.0125 N   0  0  0  0  0  0  0  0  0  0  0  0
   -5.1621    2.6453   -1.1650 N   0  0  0  0  0  0  0  0  0  0  0  0
    4.4699    0.6849   -0.0237 C   0  0  0  0  0  0  0  0  0  0  0  0
    1.7010    1.0194    0.0356 C   0  0  0  0  0  0  0  0  0  0  0  0
    6.4791   -0.6617    0.5330 C   0  0  0  0  0  0  0  0  0  0  0  0
    6.7184    1.5229   -0.6579 C   0  0  0  0  0  0  0  0  0  0  0  0
    0.2086    1.1998    0.0677 C   0  0  0  0  0  0  0  0  0  0  0  0
    3.7569    0.8108   -1.2160 C   0  0  0  0  0  0  0  0  0  0  0  0
    3.7985    0.7262    1.1982 C   0  0  0  0  0  0  0  0  0  0  0  0
    2.3724    0.9780   -1.1864 C   0  0  0  0  0  0  0  0  0  0  0  0
    2.4140    0.8935    1.2279 C   0  0  0  0  0  0  0  0  0  0  0  0
   -1.8572   -0.1987    0.0235 C   0  0  0  0  0  0  0  0  0  0  0  0
    6.5954   -1.7820   -0.4887 C   0  0  0  0  0  0  0  0  0  0  0  0
    7.1130    2.5614    0.3745 C   0  0  0  0  0  0  0  0  0  0  0  0
   -2.4625   -1.4549   -0.0093 C   0  0  0  0  0  0  0  0  0  0  0  0
   -2.6427    0.9537    0.0455 C   0  0  0  0  0  0  0  0  0  0  0  0
   -4.0335    0.8498    0.0345 C   0  0  0  0  0  0  0  0  0  0  0  0
   -4.6390   -0.4062    0.0017 C   0  0  0  0  0  0  0  0  0  0  0  0
   -3.8535   -1.5587   -0.0202 C   0  0  0  0  0  0  0  0  0  0  0  0
   -4.8217    2.0764    0.0569 C   0  0  0  0  0  0  0  0  0  0  0  0
  1 22  1  0
  2 29  2  0
  3  9  1  0
  4  9  2  0
  5 10  1  0
  6 10  2  0
  7 12  1  0
  7 14  1  0
  7 15  1  0
  8 16  1  0
  8 21  1  0
  9 24  1  0
 10 27  1  0
 11 29  1  0
 12 17  2  0
 12 18  1  0
 13 16  1  0
 13 19  2  0
 13 20  1  0
 14 22  1  0
 15 23  1  0
 17 19  1  0
 18 20  2  0
 21 24  2  0
 21 25  1  0
 24 28  1  0
 25 26  2  0
 26 27  1  0
 26 29  1  0
 27 28  2  0
M  CHG  4   3  -1   5  -1   9   1  10   1
M  END
>  <PUBCHEM_COMPOUND_CID>  (1) 
36257

>  <PUBCHEM_CONFORMER_RMSD>  (1) 
1

>  <PUBCHEM_CONFORMER_DIVERSEORDER>  (1) 
1
4
43
35
49
20
44
16
26
37
11
47
33
39
9
41
48
56
5
8
32
42
40
23
30
31
54
14
6
24
34
29
53
21
52
51
28
12
2
3
25
13
7
38
19
22
17
55
15
45
10
46
50
27
18
36

>  <PUBCHEM_MMFF94_PARTIAL_CHARGES>  (1) 
37
1 -0.29
10 0.91
11 -0.8
12 0.1
13 -0.14
14 0.37
15 0.37
16 0.51
17 -0.15
18 -0.15
19 -0.15
2 -0.57
20 -0.15
21 0.1
22 0.29
24 0.13
25 -0.15
26 0.09
27 0.13
28 -0.15
29 0.54
3 -0.52
36 0.15
37 0.15
38 0.15
39 0.15
4 -0.52
40 0.4
46 0.15
47 0.15
48 0.37
49 0.37
5 -0.52
6 -0.52
7 -0.84
8 -0.87
9 0.91

>  <PUBCHEM_EFFECTIVE_ROTOR_COUNT>  (1) 
10

>  <PUBCHEM_PHARMACOPHORE_FEATURES>  (1) 
13
1 11 donor
1 2 acceptor
1 3 acceptor
1 3 anion
1 4 acceptor
1 5 acceptor
1 5 anion
1 6 acceptor
1 7 cation
1 8 cation
1 8 donor
6 12 13 17 18 19 20 rings
6 21 24 25 26 27 28 rings

>  <PUBCHEM_HEAVY_ATOM_COUNT>  (1) 
29

>  <PUBCHEM_ATOM_DEF_STEREO_COUNT>  (1) 
0

>  <PUBCHEM_ATOM_UDEF_STEREO_COUNT>  (1) 
0

>  <PUBCHEM_BOND_DEF_STEREO_COUNT>  (1) 
0

>  <PUBCHEM_BOND_UDEF_STEREO_COUNT>  (1) 
0

>  <PUBCHEM_ISOTOPIC_ATOM_COUNT>  (1) 
0

>  <PUBCHEM_COMPONENT_COUNT>  (1) 
1

>  <PUBCHEM_CACTVS_TAUTO_COUNT>  (1) 
2

>  <PUBCHEM_CONFORMER_ID>  (1) 
00008DA100000001

>  <PUBCHEM_MMFF94_ENERGY>  (1) 
117.0528

>  <PUBCHEM_FEATURE_SELFOVERLAP>  (1) 
66.135

>  <PUBCHEM_SHAPE_FINGERPRINT>  (1) 
10411042 1 17834114531036920827
10835480 77 18342171194389350376
11315181 36 18260268590168051009
11524674 6 17489586774796401806
11578080 2 16807271525036554231
11719270 70 17703791388890559502
11796584 16 18343025489322717966
12236239 1 18040715866213117832
13533116 47 18412544306780070570
14251764 18 18272090517166208520
15021287 119 17312826004202543077
15042514 8 18121501512955387963
15183329 4 18259702285781452306
15849732 13 17749106725046064199
18608769 82 18265619951973275571
19958102 18 18261670394251843798
20681677 155 18334011722530082176
21130935 74 18411139121828931754
21279426 13 18270968920895536342
21641784 216 14562808803866817630
23559900 14 18198899399691580169
3004659 81 18334295345554845570
4015057 19 17131539665444842257
4073 2 18189619513843690458
5265222 85 18197785608014488868
5385378 56 18269849618775956491
559249 180 18409728435119437066
59755656 520 18413101784454988351
7226269 152 18202286892080143217
9831232 110 18267870489488601686

>  <PUBCHEM_SHAPE_MULTIPOLES>  (1) 
544.42
21.54
3.27
1.05
12.71
2.01
0.02
-0.34
0.01
1.43
-0.02
0.03
-0.14
-0.09

>  <PUBCHEM_SHAPE_SELFOVERLAP>  (1) 
1136.057

>  <PUBCHEM_SHAPE_VOLUME>  (1) 
310.9

>  <PUBCHEM_COORDINATE_TYPE>  (1) 
2
5
10

$$$$
