36259
     RDKit          3D

 29 30  0  0  0  0  0  0  0  0999 V2000
    5.7901   -2.2263    3.6890 I   0  0  0  0  0  0  0  0  0  0  0  0
    6.3929    3.5836   -1.4966 I   0  0  0  0  0  0  0  0  0  0  0  0
   -0.7435   -1.5528   -2.1975 S   0  0  0  0  0  0  0  0  0  0  0  0
   -3.3605    3.4505   -0.7364 O   0  0  0  0  0  0  0  0  0  0  0  0
   -3.6875   -3.4372   -1.3374 O   0  0  0  0  0  0  0  0  0  0  0  0
   -2.2579   -3.6365    0.3166 O   0  0  0  0  0  0  0  0  0  0  0  0
   -4.3042    1.3314    2.6884 O   0  0  0  0  0  0  0  0  0  0  0  0
   -5.7351    1.5331    1.0358 O   0  0  0  0  0  0  0  0  0  0  0  0
    4.4374    0.1260    0.2847 N   0  0  0  0  0  0  0  0  0  0  0  0
   -2.9385   -2.9355   -0.4676 N   0  0  0  0  0  0  0  0  0  0  0  0
   -4.6278    1.1601    1.4895 N   0  0  0  0  0  0  0  0  0  0  0  0
   -1.8557    3.2384    0.9810 N   0  0  0  0  0  0  0  0  0  0  0  0
    3.2165   -0.2694   -0.3003 C   0  0  0  0  0  0  0  0  0  0  0  0
    4.7478   -0.2382    1.6530 C   0  0  0  0  0  0  0  0  0  0  0  0
    5.3918    0.9137   -0.4700 C   0  0  0  0  0  0  0  0  0  0  0  0
    2.9212    0.0975   -1.6134 C   0  0  0  0  0  0  0  0  0  0  0  0
    2.3044   -1.0271    0.4345 C   0  0  0  0  0  0  0  0  0  0  0  0
    0.8016   -1.0520   -1.4572 C   0  0  0  0  0  0  0  0  0  0  0  0
    5.2781   -1.6661    1.6935 C   0  0  0  0  0  0  0  0  0  0  0  0
    4.9855    2.3818   -0.4323 C   0  0  0  0  0  0  0  0  0  0  0  0
    1.7138   -0.2940   -2.1919 C   0  0  0  0  0  0  0  0  0  0  0  0
    1.0970   -1.4183   -0.1441 C   0  0  0  0  0  0  0  0  0  0  0  0
   -1.9193   -0.7789   -1.0889 C   0  0  0  0  0  0  0  0  0  0  0  0
   -2.8571   -1.5172   -0.3670 C   0  0  0  0  0  0  0  0  0  0  0  0
   -2.7683    1.2592   -0.1079 C   0  0  0  0  0  0  0  0  0  0  0  0
   -1.8745    0.6094   -0.9592 C   0  0  0  0  0  0  0  0  0  0  0  0
   -3.7064    0.5209    0.6139 C   0  0  0  0  0  0  0  0  0  0  0  0
   -3.7506   -0.8673    0.4844 C   0  0  0  0  0  0  0  0  0  0  0  0
   -2.6913    2.7112    0.0034 C   0  0  0  0  0  0  0  0  0  0  0  0
  1 19  1  0
  2 20  1  0
  3 18  1  0
  3 23  1  0
  4 29  2  0
  5 10  1  0
  6 10  2  0
  7 11  1  0
  8 11  2  0
  9 13  1  0
  9 14  1  0
  9 15  1  0
 10 24  1  0
 11 27  1  0
 12 29  1  0
 13 16  2  0
 13 17  1  0
 14 19  1  0
 15 20  1  0
 16 21  1  0
 17 22  2  0
 18 21  2  0
 18 22  1  0
 23 24  2  0
 23 26  1  0
 24 28  1  0
 25 26  2  0
 25 27  1  0
 25 29  1  0
 27 28  2  0
M  CHG  4   5  -1   7  -1  10   1  11   1
M  END
>  <PUBCHEM_COMPOUND_CID>  (1) 
36259

>  <PUBCHEM_CONFORMER_RMSD>  (1) 
1

>  <PUBCHEM_CONFORMER_DIVERSEORDER>  (1) 
3
46
15
49
13
53
19
14
28
44
10
7
18
26
16
55
27
51
12
47
42
6
41
37
54
50
52
43
23
39
20
25
48
29
17
9
45
4
38
30
35
8
2
24
11
34
33
40
5
21
32
22
1
31
36

>  <PUBCHEM_MMFF94_PARTIAL_CHARGES>  (1) 
37
1 -0.19
10 0.91
11 0.91
12 -0.8
13 0.1
14 0.37
15 0.37
16 -0.15
17 -0.15
18 0.1
19 0.19
2 -0.19
20 0.19
21 -0.15
22 -0.15
23 0.1
24 0.13
25 0.09
26 -0.15
27 0.13
28 -0.15
29 0.54
3 -0.2
34 0.15
35 0.15
4 -0.57
40 0.15
41 0.15
42 0.15
43 0.15
44 0.37
45 0.37
5 -0.52
6 -0.52
7 -0.52
8 -0.52
9 -0.84

>  <PUBCHEM_EFFECTIVE_ROTOR_COUNT>  (1) 
10

>  <PUBCHEM_PHARMACOPHORE_FEATURES>  (1) 
13
1 1 hydrophobe
1 12 donor
1 2 hydrophobe
1 4 acceptor
1 5 acceptor
1 5 anion
1 6 acceptor
1 7 acceptor
1 7 anion
1 8 acceptor
1 9 cation
6 13 16 17 18 21 22 rings
6 23 24 25 26 27 28 rings

>  <PUBCHEM_HEAVY_ATOM_COUNT>  (1) 
29

>  <PUBCHEM_ATOM_DEF_STEREO_COUNT>  (1) 
0

>  <PUBCHEM_ATOM_UDEF_STEREO_COUNT>  (1) 
0

>  <PUBCHEM_BOND_DEF_STEREO_COUNT>  (1) 
0

>  <PUBCHEM_BOND_UDEF_STEREO_COUNT>  (1) 
0

>  <PUBCHEM_ISOTOPIC_ATOM_COUNT>  (1) 
0

>  <PUBCHEM_COMPONENT_COUNT>  (1) 
1

>  <PUBCHEM_CACTVS_TAUTO_COUNT>  (1) 
2

>  <PUBCHEM_CONFORMER_ID>  (1) 
00008DA300000003

>  <PUBCHEM_MMFF94_ENERGY>  (1) 
106.1461

>  <PUBCHEM_FEATURE_SELFOVERLAP>  (1) 
66.134

>  <PUBCHEM_SHAPE_FINGERPRINT>  (1) 
10670039 82 18128824212967087652
10928967 22 16661192643247650826
11552529 35 18116425041583586426
11578080 2 17344660138575647215
11595378 159 18410006680586488732
12107183 9 18045205056525488242
12422481 6 18120920730081540882
12596602 18 18040717017274538888
12633257 1 18411981347155377288
13103583 49 18116134594662358850
13726171 33 18058465347019226992
14341114 328 18410577318389016332
14347329 18 17846510235732421624
14739800 52 18267571594077052408
14950920 106 17968090885498927208
15021287 119 18042105597887828546
15183329 4 12319473069283961036
15513586 35 18055342793709062592
19246450 95 17758093922949487160
21033648 29 18126287437255982101
23559900 14 17845945013852382918
2838139 119 16127806344897214195
3117164 225 18192419785012739506
484985 159 14996837681309046587
5104073 3 18336820979181911746
7808743 9 18272378580759927588
9981440 41 17773293678538978887

>  <PUBCHEM_SHAPE_MULTIPOLES>  (1) 
575.26
15
4.38
2.65
11.23
1.38
1.1
3.99
7.91
3.5
0.97
0.48
-1.4
-7.2

>  <PUBCHEM_SHAPE_SELFOVERLAP>  (1) 
1153.135

>  <PUBCHEM_SHAPE_VOLUME>  (1) 
347.7

>  <PUBCHEM_COORDINATE_TYPE>  (1) 
2
5
10

$$$$
