36254
     RDKit          3D

 29 30  0  0  0  0  0  0  0  0999 V2000
    6.5579    1.6008   -0.9450 Cl  0  0  0  0  0  0  0  0  0  0  0  0
    3.7653   -3.6336   -0.2438 Cl  0  0  0  0  0  0  0  0  0  0  0  0
   -0.4529    2.2521    1.4508 S   0  0  0  0  0  0  0  0  0  0  0  0
   -3.4564   -2.7176    1.9953 O   0  0  0  0  0  0  0  0  0  0  0  0
   -3.3042    3.9117    0.0110 O   0  0  0  0  0  0  0  0  0  0  0  0
   -1.9434    3.3770   -1.6265 O   0  0  0  0  0  0  0  0  0  0  0  0
   -4.4183   -1.9392   -1.9516 O   0  0  0  0  0  0  0  0  0  0  0  0
   -5.7807   -1.4071   -0.3146 O   0  0  0  0  0  0  0  0  0  0  0  0
    4.4856   -0.6208   -0.3325 N   0  0  0  0  0  0  0  0  0  0  0  0
   -2.6309    3.0687   -0.6256 N   0  0  0  0  0  0  0  0  0  0  0  0
   -4.6737   -1.3146   -0.8954 N   0  0  0  0  0  0  0  0  0  0  0  0
   -2.0227   -3.2697    0.2929 N   0  0  0  0  0  0  0  0  0  0  0  0
    3.3219    0.0564    0.0876 C   0  0  0  0  0  0  0  0  0  0  0  0
    5.6929   -0.5715    0.4681 C   0  0  0  0  0  0  0  0  0  0  0  0
    4.4938   -1.3631   -1.5774 C   0  0  0  0  0  0  0  0  0  0  0  0
    2.4283    0.5599   -0.8579 C   0  0  0  0  0  0  0  0  0  0  0  0
    3.0649    0.2226    1.4485 C   0  0  0  0  0  0  0  0  0  0  0  0
    1.0200    1.3955    0.9189 C   0  0  0  0  0  0  0  0  0  0  0  0
    6.1819    0.8591    0.6304 C   0  0  0  0  0  0  0  0  0  0  0  0
    3.4537   -2.4721   -1.5579 C   0  0  0  0  0  0  0  0  0  0  0  0
    1.2773    1.2293   -0.4422 C   0  0  0  0  0  0  0  0  0  0  0  0
    1.9140    0.8923    1.8641 C   0  0  0  0  0  0  0  0  0  0  0  0
   -1.7271    1.2190    0.7300 C   0  0  0  0  0  0  0  0  0  0  0  0
   -2.6473    1.7110   -0.1957 C   0  0  0  0  0  0  0  0  0  0  0  0
   -2.7522   -0.9641    0.5894 C   0  0  0  0  0  0  0  0  0  0  0  0
   -1.7792   -0.1186    1.1225 C   0  0  0  0  0  0  0  0  0  0  0  0
   -3.6727   -0.4721   -0.3362 C   0  0  0  0  0  0  0  0  0  0  0  0
   -3.6201    0.8653   -0.7289 C   0  0  0  0  0  0  0  0  0  0  0  0
   -2.7757   -2.3566    1.0219 C   0  0  0  0  0  0  0  0  0  0  0  0
  1 19  1  0
  2 20  1  0
  3 18  1  0
  3 23  1  0
  4 29  2  0
  5 10  1  0
  6 10  2  0
  7 11  1  0
  8 11  2  0
  9 13  1  0
  9 14  1  0
  9 15  1  0
 10 24  1  0
 11 27  1  0
 12 29  1  0
 13 16  2  0
 13 17  1  0
 14 19  1  0
 15 20  1  0
 16 21  1  0
 17 22  2  0
 18 21  2  0
 18 22  1  0
 23 24  2  0
 23 26  1  0
 24 28  1  0
 25 26  2  0
 25 27  1  0
 25 29  1  0
 27 28  2  0
M  CHG  4   5  -1   7  -1  10   1  11   1
M  END
>  <PUBCHEM_COMPOUND_CID>  (1) 
36254

>  <PUBCHEM_CONFORMER_RMSD>  (1) 
1

>  <PUBCHEM_CONFORMER_DIVERSEORDER>  (1) 
1
14
21
35
41
49
15
45
17
47
2
9
29
10
38
31
48
20
30
42
43
11
40
18
34
8
16
39
13
36
32
22
19
24
6
25
23
37
3
46
33
4
44
7
12
26
27
5
28

>  <PUBCHEM_MMFF94_PARTIAL_CHARGES>  (1) 
37
1 -0.29
10 0.91
11 0.91
12 -0.8
13 0.1
14 0.37
15 0.37
16 -0.15
17 -0.15
18 0.1
19 0.29
2 -0.29
20 0.29
21 -0.15
22 -0.15
23 0.1
24 0.13
25 0.09
26 -0.15
27 0.13
28 -0.15
29 0.54
3 -0.2
34 0.15
35 0.15
4 -0.57
40 0.15
41 0.15
42 0.15
43 0.15
44 0.37
45 0.37
5 -0.52
6 -0.52
7 -0.52
8 -0.52
9 -0.84

>  <PUBCHEM_EFFECTIVE_ROTOR_COUNT>  (1) 
10

>  <PUBCHEM_PHARMACOPHORE_FEATURES>  (1) 
11
1 12 donor
1 4 acceptor
1 5 acceptor
1 5 anion
1 6 acceptor
1 7 acceptor
1 7 anion
1 8 acceptor
1 9 cation
6 13 16 17 18 21 22 rings
6 23 24 25 26 27 28 rings

>  <PUBCHEM_HEAVY_ATOM_COUNT>  (1) 
29

>  <PUBCHEM_ATOM_DEF_STEREO_COUNT>  (1) 
0

>  <PUBCHEM_ATOM_UDEF_STEREO_COUNT>  (1) 
0

>  <PUBCHEM_BOND_DEF_STEREO_COUNT>  (1) 
0

>  <PUBCHEM_BOND_UDEF_STEREO_COUNT>  (1) 
0

>  <PUBCHEM_ISOTOPIC_ATOM_COUNT>  (1) 
0

>  <PUBCHEM_COMPONENT_COUNT>  (1) 
1

>  <PUBCHEM_CACTVS_TAUTO_COUNT>  (1) 
2

>  <PUBCHEM_CONFORMER_ID>  (1) 
00008D9E00000001

>  <PUBCHEM_MMFF94_ENERGY>  (1) 
105.4701

>  <PUBCHEM_FEATURE_SELFOVERLAP>  (1) 
55.985

>  <PUBCHEM_SHAPE_FINGERPRINT>  (1) 
11796584 16 17984419642673337654
12788726 201 18335125489270273857
13402501 40 18273495675836211167
13583140 156 17774427322530234364
14251757 17 18339646646544952962
14790565 3 17477773377213293481
14910302 57 18191300486095837980
15064986 266 18335433343392920689
15361156 5 18341051908272973813
15475509 8 18410008845941219141
19315092 285 16556204890710950967
19958102 18 18117555132955763525
20511986 3 17459170972316678400
22393880 68 18267027150731228630
23557571 272 18411412912809028336
23559900 14 18263637540602327753
2838139 119 12396570858312925863
312425 83 18042415621179755268
329604 57 18411421752262796664
44062 13 18268712697370933687
463206 1 18201433748387713487
508706 21 18336835199301865119
59755656 520 17914053089209622153
9709674 26 18411419501050794658

>  <PUBCHEM_SHAPE_MULTIPOLES>  (1) 
555.12
13.5
4.08
1.66
10.27
0.69
-0.09
3.28
3.31
-2.66
0.57
-0.16
0.14
1.43

>  <PUBCHEM_SHAPE_SELFOVERLAP>  (1) 
1139.303

>  <PUBCHEM_SHAPE_VOLUME>  (1) 
324.3

>  <PUBCHEM_COORDINATE_TYPE>  (1) 
2
5
10

$$$$
