36261
     RDKit          3D

 22 24  0  0  0  0  0  0  0  0999 V2000
    2.1250   -2.1590    1.3018 F   0  0  0  0  0  0  0  0  0  0  0  0
   -2.3772   -2.4009    0.4388 O   0  0  0  0  0  0  0  0  0  0  0  0
   -4.2825   -0.8054   -0.7997 O   0  0  0  0  0  0  0  0  0  0  0  0
   -0.1094    3.5488   -0.1052 N   0  0  0  0  0  0  0  0  0  0  0  0
   -0.6241    0.8223    0.3727 C   0  0  0  0  0  0  0  0  0  0  0  0
    0.5930    1.3993    0.7532 C   0  0  0  0  0  0  0  0  0  0  0  0
    1.6818    0.6291    1.4238 C   0  0  0  0  0  0  0  0  0  0  0  0
   -1.5946    1.6289   -0.2569 C   0  0  0  0  0  0  0  0  0  0  0  0
    2.6658   -0.0054    0.4626 C   0  0  0  0  0  0  0  0  0  0  0  0
   -0.9058   -0.5349    0.5989 C   0  0  0  0  0  0  0  0  0  0  0  0
   -2.8222    1.0686   -0.6472 C   0  0  0  0  0  0  0  0  0  0  0  0
   -2.1293   -1.0812    0.2069 C   0  0  0  0  0  0  0  0  0  0  0  0
    0.7955    2.7464    0.4946 C   0  0  0  0  0  0  0  0  0  0  0  0
   -3.0853   -0.2812   -0.4148 C   0  0  0  0  0  0  0  0  0  0  0  0
   -1.2786    2.9729   -0.4653 C   0  0  0  0  0  0  0  0  0  0  0  0
    2.8241   -1.3796    0.4650 C   0  0  0  0  0  0  0  0  0  0  0  0
    3.3840    0.8070   -0.3964 C   0  0  0  0  0  0  0  0  0  0  0  0
    3.7309   -1.9609   -0.4212 C   0  0  0  0  0  0  0  0  0  0  0  0
    4.2909    0.2257   -1.2827 C   0  0  0  0  0  0  0  0  0  0  0  0
    4.4644   -1.1583   -1.2950 C   0  0  0  0  0  0  0  0  0  0  0  0
   -2.0018   -3.3200   -0.5848 C   0  0  0  0  0  0  0  0  0  0  0  0
   -5.3446   -0.7620    0.1511 C   0  0  0  0  0  0  0  0  0  0  0  0
  1 16  1  0
  2 12  1  0
  2 21  1  0
  3 14  1  0
  3 22  1  0
  4 13  2  0
  4 15  1  0
  5  6  2  0
  5  8  1  0
  5 10  1  0
  6  7  1  0
  6 13  1  0
  7  9  1  0
  8 11  1  0
  8 15  2  0
  9 16  2  0
  9 17  1  0
 10 12  2  0
 11 14  2  0
 12 14  1  0
 16 18  1  0
 17 19  2  0
 18 20  2  0
 19 20  1  0
M  END
>  <PUBCHEM_COMPOUND_CID>  (1) 
36261

>  <PUBCHEM_CONFORMER_RMSD>  (1) 
0.6

>  <PUBCHEM_CONFORMER_DIVERSEORDER>  (1) 
1
40
56
43
23
53
41
54
25
33
28
34
24
55
47
57
44
51
18
29
22
38
52
20
30
39
50
17
31
19
46
49
58
27
37
48
32
4
15
16
3
26
13
42
21
14
45
2
36
35
8
7
9
10
5
6
11
12

>  <PUBCHEM_MMFF94_PARTIAL_CHARGES>  (1) 
28
1 -0.19
10 -0.15
11 -0.15
12 0.08
13 0.16
14 0.08
15 0.16
16 0.19
17 -0.15
18 -0.15
19 -0.15
2 -0.36
20 -0.15
21 0.28
22 0.28
25 0.15
26 0.15
27 0.15
28 0.15
29 0.15
3 -0.36
30 0.15
31 0.15
32 0.15
4 -0.62
6 -0.14
7 0.29
9 -0.14

>  <PUBCHEM_EFFECTIVE_ROTOR_COUNT>  (1) 
4

>  <PUBCHEM_PHARMACOPHORE_FEATURES>  (1) 
6
1 2 acceptor
1 3 acceptor
1 4 acceptor
6 4 5 6 8 13 15 rings
6 5 8 10 11 12 14 rings
6 9 16 17 18 19 20 rings

>  <PUBCHEM_HEAVY_ATOM_COUNT>  (1) 
22

>  <PUBCHEM_ATOM_DEF_STEREO_COUNT>  (1) 
0

>  <PUBCHEM_ATOM_UDEF_STEREO_COUNT>  (1) 
0

>  <PUBCHEM_BOND_DEF_STEREO_COUNT>  (1) 
0

>  <PUBCHEM_BOND_UDEF_STEREO_COUNT>  (1) 
0

>  <PUBCHEM_ISOTOPIC_ATOM_COUNT>  (1) 
0

>  <PUBCHEM_COMPONENT_COUNT>  (1) 
1

>  <PUBCHEM_CACTVS_TAUTO_COUNT>  (1) 
1

>  <PUBCHEM_CONFORMER_ID>  (1) 
00008DA500000001

>  <PUBCHEM_MMFF94_ENERGY>  (1) 
85.8872

>  <PUBCHEM_FEATURE_SELFOVERLAP>  (1) 
30.478

>  <PUBCHEM_SHAPE_FINGERPRINT>  (1) 
10498660 4 18334293137160855764
10693767 8 18057294277199607175
12054548 360 18410857706744275766
12173636 292 17976814294668947468
12403259 327 14836403670096777879
12553582 1 18410565210728613219
12788726 201 18335702685049850176
13140716 1 18048865592321327249
13533116 47 17915738889631510315
13965767 371 11237795536530870070
14022347 108 18260256469590688905
14790565 3 17979358551849383817
14866123 147 18055079761669482977
15210252 30 17895195553705594620
15475509 8 18271538494316496165
15635459 17 18272653458782974470
16752209 62 18266166232551355297
16945 1 18336529608315727241
19319366 153 17894908542284567570
19591789 44 18338230458599010985
20871999 31 18336828593531186253
21197605 99 15090866223358204194
21634736 98 18335709334371445638
22182313 1 18265308725552487261
22393880 68 18265623070440740318
22907989 373 18116706327170007245
22950370 63 18411144619255195161
23379529 103 18129961009137537934
23557571 272 18342727499827528400
23559900 14 18268423714739213512
26353 1 17968088776301363157
2748010 2 17974839880943609025
2871803 45 18409171013126405958
3004659 81 18187644661657940054
314173 41 18337955700318174351
352729 6 17761197831068153561
4280585 95 18338228371334666708
474 4 8430322337455481261
7364860 26 18123464148962197713
9709674 26 18341885337722376360

>  <PUBCHEM_SHAPE_MULTIPOLES>  (1) 
428.76
8.4
3.54
1.1
0.23
0.77
-0.04
-4.94
2.67
1.08
0.18
-0.76
-0.11
0.26

>  <PUBCHEM_SHAPE_SELFOVERLAP>  (1) 
941.361

>  <PUBCHEM_SHAPE_VOLUME>  (1) 
234.6

>  <PUBCHEM_COORDINATE_TYPE>  (1) 
2
5
10

$$$$
