36265
     RDKit          3D

 22 24  0  0  0  0  0  0  0  0999 V2000
    5.3698    1.8115   -1.3459 F   0  0  0  0  0  0  0  0  0  0  0  0
   -2.4886    2.4027    0.7837 O   0  0  0  0  0  0  0  0  0  0  0  0
   -4.3460    1.0852   -0.8051 O   0  0  0  0  0  0  0  0  0  0  0  0
   -0.3613   -3.4849   -0.5007 N   0  0  0  0  0  0  0  0  0  0  0  0
   -0.8291   -0.8412    0.3473 C   0  0  0  0  0  0  0  0  0  0  0  0
    0.3404   -1.5159    0.7165 C   0  0  0  0  0  0  0  0  0  0  0  0
    1.3997   -0.8979    1.5675 C   0  0  0  0  0  0  0  0  0  0  0  0
   -1.7753   -1.5066   -0.4594 C   0  0  0  0  0  0  0  0  0  0  0  0
   -1.0869    0.4772    0.7570 C   0  0  0  0  0  0  0  0  0  0  0  0
    2.4693   -0.1675    0.7816 C   0  0  0  0  0  0  0  0  0  0  0  0
   -2.9556   -0.8470   -0.8401 C   0  0  0  0  0  0  0  0  0  0  0  0
   -2.2634    1.1231    0.3726 C   0  0  0  0  0  0  0  0  0  0  0  0
    0.5215   -2.8167    0.2719 C   0  0  0  0  0  0  0  0  0  0  0  0
   -3.1957    0.4624   -0.4241 C   0  0  0  0  0  0  0  0  0  0  0  0
   -1.4844   -2.8161   -0.8466 C   0  0  0  0  0  0  0  0  0  0  0  0
    2.2984    1.1753    0.4978 C   0  0  0  0  0  0  0  0  0  0  0  0
    3.5920   -0.8610    0.3670 C   0  0  0  0  0  0  0  0  0  0  0  0
    3.2838    1.8476   -0.2254 C   0  0  0  0  0  0  0  0  0  0  0  0
    4.5774   -0.1887   -0.3559 C   0  0  0  0  0  0  0  0  0  0  0  0
    4.4234    1.1656   -0.6521 C   0  0  0  0  0  0  0  0  0  0  0  0
   -2.0149    3.4478   -0.0631 C   0  0  0  0  0  0  0  0  0  0  0  0
   -5.4744    0.9451    0.0557 C   0  0  0  0  0  0  0  0  0  0  0  0
  1 20  1  0
  2 12  1  0
  2 21  1  0
  3 14  1  0
  3 22  1  0
  4 13  2  0
  4 15  1  0
  5  6  2  0
  5  8  1  0
  5  9  1  0
  6  7  1  0
  6 13  1  0
  7 10  1  0
  8 11  1  0
  8 15  2  0
  9 12  2  0
 10 16  2  0
 10 17  1  0
 11 14  2  0
 12 14  1  0
 16 18  1  0
 17 19  2  0
 18 20  2  0
 19 20  1  0
M  END
>  <PUBCHEM_COMPOUND_CID>  (1) 
36265

>  <PUBCHEM_CONFORMER_RMSD>  (1) 
0.6

>  <PUBCHEM_CONFORMER_DIVERSEORDER>  (1) 
1
25
27
7
26
11
20
30
15
13
29
16
19
8
12
28
14
9
6
10
5
24
21
23
4
3
18
22
17
2

>  <PUBCHEM_MMFF94_PARTIAL_CHARGES>  (1) 
28
1 -0.19
10 -0.14
11 -0.15
12 0.08
13 0.16
14 0.08
15 0.16
16 -0.15
17 -0.15
18 -0.15
19 -0.15
2 -0.36
20 0.19
21 0.28
22 0.28
25 0.15
26 0.15
27 0.15
28 0.15
29 0.15
3 -0.36
30 0.15
31 0.15
32 0.15
4 -0.62
6 -0.14
7 0.29
9 -0.15

>  <PUBCHEM_EFFECTIVE_ROTOR_COUNT>  (1) 
4

>  <PUBCHEM_PHARMACOPHORE_FEATURES>  (1) 
6
1 2 acceptor
1 3 acceptor
1 4 acceptor
6 10 16 17 18 19 20 rings
6 4 5 6 8 13 15 rings
6 5 8 9 11 12 14 rings

>  <PUBCHEM_HEAVY_ATOM_COUNT>  (1) 
22

>  <PUBCHEM_ATOM_DEF_STEREO_COUNT>  (1) 
0

>  <PUBCHEM_ATOM_UDEF_STEREO_COUNT>  (1) 
0

>  <PUBCHEM_BOND_DEF_STEREO_COUNT>  (1) 
0

>  <PUBCHEM_BOND_UDEF_STEREO_COUNT>  (1) 
0

>  <PUBCHEM_ISOTOPIC_ATOM_COUNT>  (1) 
0

>  <PUBCHEM_COMPONENT_COUNT>  (1) 
1

>  <PUBCHEM_CACTVS_TAUTO_COUNT>  (1) 
1

>  <PUBCHEM_CONFORMER_ID>  (1) 
00008DA900000001

>  <PUBCHEM_MMFF94_ENERGY>  (1) 
85.918

>  <PUBCHEM_FEATURE_SELFOVERLAP>  (1) 
30.478

>  <PUBCHEM_SHAPE_FINGERPRINT>  (1) 
10498660 4 18410284839447792745
10681291 71 18410858763232384067
10871710 139 18408888425563930917
11640471 11 17895467141730743526
11796584 16 13758063091843231837
12173636 292 18341320145811831436
13583140 156 17098882856161674875
13994607 96 17823152265908206672
14251751 93 18340765927759317340
1454969 45 18411416242305033111
14767858 380 18269255977028371519
14787075 74 18260261967644738771
14790565 3 18342742884437767017
14840074 17 18187372017129008061
15183329 4 18338527357262386686
15342168 16 17385730235289159070
15475509 35 11453880444220212845
15575132 122 18260267408904553605
16752209 62 18272075081137902665
17492 54 18262500590308556965
20775438 99 17052414505020813351
20871999 31 18270395138929430535
21250096 35 9655568617346541545
21524375 3 18335135345777216850
21756936 100 17604714511943652096
21857420 4 15257711396017221989
22620623 9 17488170690020144663
23366157 5 17904201430205756307
23402655 69 18335984268118206732
23557571 272 18197787810842484566
23558518 356 17905604403132219305
23559900 14 18059287773374223352
26353 1 17050457434236857119
2637199 183 18336551525512499282
2748010 2 17839430604772896459
350125 39 18125716795031678619
4028521 119 18336825385422490716
44154327 71 18338790135555283043
474 4 18260265205126848738
59755656 520 16950562220666277210
633830 44 17676203611336383074
7832392 63 18335978783244438084

>  <PUBCHEM_SHAPE_MULTIPOLES>  (1) 
428.76
9.24
3.5
1.06
3.08
0.62
-0.07
-6.23
2.7
-1.28
0.49
0.4
0.06
-1.23

>  <PUBCHEM_SHAPE_SELFOVERLAP>  (1) 
940.328

>  <PUBCHEM_SHAPE_VOLUME>  (1) 
235.5

>  <PUBCHEM_COORDINATE_TYPE>  (1) 
2
5
10

$$$$
