36279
     RDKit          3D

 20 21  0  0  0  0  0  0  0  0999 V2000
   -0.8441   -2.6067   -0.1284 O   0  0  0  0  0  0  0  0  0  0  0  0
    3.0022    0.9940   -1.5392 O   0  0  0  0  0  0  0  0  0  0  0  0
   -3.5202    2.1951    0.2945 O   0  0  0  0  0  0  0  0  0  0  0  0
    0.7386   -0.3139   -2.0243 O   0  0  0  0  0  0  0  0  0  0  0  0
   -0.8824   -0.2185   -0.3409 C   0  0  0  0  0  0  0  0  0  0  0  0
    1.6584   -0.1059    0.1160 C   0  0  0  0  0  0  0  0  0  0  0  0
    0.5365   -0.2168   -0.8059 C   0  0  0  0  0  0  0  0  0  0  0  0
   -1.4922   -1.4122   -0.0275 C   0  0  0  0  0  0  0  0  0  0  0  0
   -1.5289    0.9940   -0.2435 C   0  0  0  0  0  0  0  0  0  0  0  0
    2.8535    0.4951   -0.2795 C   0  0  0  0  0  0  0  0  0  0  0  0
   -2.8546    1.0127    0.1900 C   0  0  0  0  0  0  0  0  0  0  0  0
   -2.8178   -1.3932    0.4063 C   0  0  0  0  0  0  0  0  0  0  0  0
    1.5268   -0.6117    1.4094 C   0  0  0  0  0  0  0  0  0  0  0  0
   -3.4991   -0.1809    0.5148 C   0  0  0  0  0  0  0  0  0  0  0  0
    3.9168    0.5903    0.6184 C   0  0  0  0  0  0  0  0  0  0  0  0
    2.5902   -0.5165    2.3070 C   0  0  0  0  0  0  0  0  0  0  0  0
    3.7852    0.0844    1.9116 C   0  0  0  0  0  0  0  0  0  0  0  0
   -0.9322   -3.2876   -1.3782 C   0  0  0  0  0  0  0  0  0  0  0  0
    2.6371    2.3572   -1.7429 C   0  0  0  0  0  0  0  0  0  0  0  0
   -4.8738    2.1411    0.7422 C   0  0  0  0  0  0  0  0  0  0  0  0
  1  8  1  0
  1 18  1  0
  2 10  1  0
  2 19  1  0
  3 11  1  0
  3 20  1  0
  4  7  2  0
  5  7  1  0
  5  8  2  0
  5  9  1  0
  6  7  1  0
  6 10  2  0
  6 13  1  0
  8 12  1  0
  9 11  2  0
 10 15  1  0
 11 14  1  0
 12 14  2  0
 13 16  2  0
 15 17  2  0
 16 17  1  0
M  END
>  <PUBCHEM_COMPOUND_CID>  (1) 
36279

>  <PUBCHEM_CONFORMER_RMSD>  (1) 
0.8

>  <PUBCHEM_CONFORMER_DIVERSEORDER>  (1) 
1
13
27
11
28
26
29
31
12
20
18
21
22
10
6
14
16
30
19
23
24
25
4
17
7
3
8
15
9
5
2

>  <PUBCHEM_MMFF94_PARTIAL_CHARGES>  (1) 
27
1 -0.36
10 0.08
11 0.08
12 -0.15
13 -0.15
14 -0.15
15 -0.15
16 -0.15
17 -0.15
18 0.28
19 0.28
2 -0.36
20 0.28
21 0.15
22 0.15
23 0.15
24 0.15
25 0.15
26 0.15
27 0.15
3 -0.36
4 -0.57
5 0.09
6 0.09
7 0.4
8 0.08
9 -0.15

>  <PUBCHEM_EFFECTIVE_ROTOR_COUNT>  (1) 
5

>  <PUBCHEM_PHARMACOPHORE_FEATURES>  (1) 
6
1 1 acceptor
1 2 acceptor
1 3 acceptor
1 4 acceptor
6 5 8 9 11 12 14 rings
6 6 10 13 15 16 17 rings

>  <PUBCHEM_HEAVY_ATOM_COUNT>  (1) 
20

>  <PUBCHEM_ATOM_DEF_STEREO_COUNT>  (1) 
0

>  <PUBCHEM_ATOM_UDEF_STEREO_COUNT>  (1) 
0

>  <PUBCHEM_BOND_DEF_STEREO_COUNT>  (1) 
0

>  <PUBCHEM_BOND_UDEF_STEREO_COUNT>  (1) 
0

>  <PUBCHEM_ISOTOPIC_ATOM_COUNT>  (1) 
0

>  <PUBCHEM_COMPONENT_COUNT>  (1) 
1

>  <PUBCHEM_CACTVS_TAUTO_COUNT>  (1) 
1

>  <PUBCHEM_CONFORMER_ID>  (1) 
00008DB700000001

>  <PUBCHEM_MMFF94_ENERGY>  (1) 
96.9487

>  <PUBCHEM_FEATURE_SELFOVERLAP>  (1) 
30.457

>  <PUBCHEM_SHAPE_FINGERPRINT>  (1) 
11640471 11 18114751537176662756
11725454 13 17274521157957659593
12173636 292 18341894134110772005
12236239 1 17968092053323966275
12251169 10 17822569417381859009
12500047 106 18130780179279699418
12553582 1 17548981512440154710
12633257 1 16877940516601234968
12788726 201 18046912855513144699
12892183 10 16878240705204394001
13538477 17 18263356069915056214
13878862 14 17331966019990465145
13965767 371 18045785580815840593
14739800 52 18123743416864029072
14787075 74 16743417755644430950
15527383 91 16515965869847032352
15669948 3 18266463302507156879
15842332 3 18115299120074585622
16752209 62 18341889740475597295
16945 1 18199744911221921047
1813 80 17313941897605582410
18186145 218 16845579711852388857
18219364 16 15697157507938008438
20715895 44 17536584107369472053
212916 134 18201423745392245081
21427221 339 18113898226006629168
22112679 90 18189887798269128582
22445834 79 17676480670469327074
2255824 54 17095808823560978572
23419403 2 16473151741912959554
23557571 272 17775004647385325552
23558518 356 17320162113598005852
23559900 14 18270694051499490238
23598288 3 18262806309901367211
23598291 2 18041561442046318142
23622692 88 18187636956317487720
238 59 14836113386342466480
25 1 16415765214733617690
38570 142 17388571382295143156
392239 28 17103425303203774672
495365 180 17346311531973270766
7097593 13 17968365763242405682
7364860 26 17769658590450722791
7615 1 18043517507565444158
77492 1 17967811695075734122
7808743 9 18270961370565043712
81228 2 17628348582749441111
84936 182 17485651455598612929
88987 49 18200591518190436278

>  <PUBCHEM_SHAPE_MULTIPOLES>  (1) 
388.11
7.56
2.58
1.81
2.19
1.01
0.06
-4.81
2.93
2.32
-1.08
-2.08
0
-1.66

>  <PUBCHEM_SHAPE_SELFOVERLAP>  (1) 
833.285

>  <PUBCHEM_SHAPE_VOLUME>  (1) 
215.4

>  <PUBCHEM_COORDINATE_TYPE>  (1) 
2
5
10

$$$$
