36276
     RDKit          3D

 27 29  0  0  1  0  0  0  0  0999 V2000
   -1.4707   -0.2083    2.2464 O   0  0  0  0  0  0  0  0  0  0  0  0
   -0.8933   -0.9817   -2.5219 O   0  0  0  0  0  0  0  0  0  0  0  0
   -3.2270    0.6546    0.6918 C   0  0  0  0  0  0  0  0  0  0  0  0
   -4.8251    0.2182   -1.6825 C   0  0  0  0  0  0  0  0  0  0  0  0
   -2.5256    0.7591    2.0465 C   0  0  0  0  0  0  0  0  0  0  0  0
   -2.6584    0.0093   -0.3468 C   0  0  0  0  0  0  0  0  0  0  0  0
   -3.3286   -0.1310   -1.6935 C   0  0  0  0  0  0  0  0  0  0  0  0
   -4.5748    1.3355    0.5516 C   0  0  0  0  0  0  0  0  0  0  0  0
   -5.0481    1.5056   -0.8921 C   0  0  0  0  0  0  0  0  0  0  0  0
   -1.3134   -0.5596   -0.1497 C   0  0  0  0  0  0  0  0  0  0  0  0
   -0.7915   -0.6400    1.1441 C   0  0  0  0  0  0  0  0  0  0  0  0
    2.5599   -2.3036    0.5776 C   0  0  0  0  0  0  0  0  0  0  0  0
    3.7419   -1.5342   -0.1214 C   0  0  0  0  0  0  0  0  0  0  0  0
   -5.3649    0.3430   -3.1055 C   0  0  0  0  0  0  0  0  0  0  0  0
    1.2214   -1.6987    0.3242 C   0  0  0  0  0  0  0  0  0  0  0  0
   -1.8962    2.1507    2.2249 C   0  0  0  0  0  0  0  0  0  0  0  0
   -3.4961    0.4906    3.2092 C   0  0  0  0  0  0  0  0  0  0  0  0
    0.4597   -1.2176    1.3843 C   0  0  0  0  0  0  0  0  0  0  0  0
   -0.5298   -1.0478   -1.2079 C   0  0  0  0  0  0  0  0  0  0  0  0
    3.8710   -0.0405    0.2682 C   0  0  0  0  0  0  0  0  0  0  0  0
    0.7282   -1.6099   -0.9730 C   0  0  0  0  0  0  0  0  0  0  0  0
    2.5523   -3.8031    0.1931 C   0  0  0  0  0  0  0  0  0  0  0  0
    4.8891    0.7610   -0.5517 C   0  0  0  0  0  0  0  0  0  0  0  0
    5.0784   -2.2610    0.1042 C   0  0  0  0  0  0  0  0  0  0  0  0
    4.9472    2.2418   -0.1589 C   0  0  0  0  0  0  0  0  0  0  0  0
    5.9410    3.0528   -0.9914 C   0  0  0  0  0  0  0  0  0  0  0  0
    5.9535    4.5146   -0.5699 C   0  0  0  0  0  0  0  0  0  0  0  0
  1  5  1  0
  1 11  1  0
  2 19  1  0
  3  5  1  0
  3  6  2  0
  3  8  1  0
  4  7  1  0
  4  9  1  0
  4 14  1  0
  5 16  1  0
  5 17  1  0
  6  7  1  0
  6 10  1  0
  8  9  1  0
 10 11  2  0
 10 19  1  0
 11 18  1  0
 12 13  1  0
 12 15  1  0
 12 22  1  0
 13 20  1  0
 13 24  1  0
 15 18  2  0
 15 21  1  0
 19 21  2  0
 20 23  1  0
 23 25  1  0
 25 26  1  0
 26 27  1  0
M  END
>  <PUBCHEM_COMPOUND_CID>  (1) 
36276

>  <PUBCHEM_CONFORMER_RMSD>  (1) 
0.8

>  <PUBCHEM_CONFORMER_DIVERSEORDER>  (1) 
8
101
175
104
132
2
14
99
152
159
154
172
28
138
146
109
111
21
97
177
60
64
54
171
26
149
151
106
22
88
147
141
77
63
38
143
87
116
119
133
122
11
67
93
123
73
125
158
48
103
148
85
163
130
170
65
92
40
61
164
75
150
173
32
72
43
144
90
47
134
37
107
127
83
142
166
82
15
98
80
70
105
58
140
131
7
169
174
167
110
52
89
124
86
56
9
129
165
55
160
114
91
145
13
126
41
162
113
4
157
128
121
62
76
12
94
153
84
78
23
168
176
1
136
57
161
10
49
27
79
17
18
108
155
120
74
3
71
51
33
20
36
66
115
81
118
24
112
6
5
96
59
50
156
34
45
69
30
44
68
102
46
19
117
100
42
53
31
139
137
35
16
135
29
25
39
95

>  <PUBCHEM_MMFF94_PARTIAL_CHARGES>  (1) 
17
1 -0.36
10 0.03
11 0.08
12 0.14
15 -0.14
18 -0.15
19 0.08
2 -0.53
21 -0.15
3 -0.28
46 0.15
49 0.15
5 0.42
6 -0.17
60 0.45
7 0.14
8 0.14

>  <PUBCHEM_EFFECTIVE_ROTOR_COUNT>  (1) 
7.2

>  <PUBCHEM_PHARMACOPHORE_FEATURES>  (1) 
11
1 1 acceptor
1 2 donor
1 22 hydrophobe
1 24 hydrophobe
1 27 hydrophobe
3 12 13 20 hydrophobe
3 23 25 26 hydrophobe
3 5 16 17 hydrophobe
6 1 3 5 6 10 11 rings
6 10 11 15 18 19 21 rings
6 3 4 6 7 8 9 rings

>  <PUBCHEM_HEAVY_ATOM_COUNT>  (1) 
27

>  <PUBCHEM_ATOM_DEF_STEREO_COUNT>  (1) 
0

>  <PUBCHEM_ATOM_UDEF_STEREO_COUNT>  (1) 
3

>  <PUBCHEM_BOND_DEF_STEREO_COUNT>  (1) 
0

>  <PUBCHEM_BOND_UDEF_STEREO_COUNT>  (1) 
0

>  <PUBCHEM_ISOTOPIC_ATOM_COUNT>  (1) 
0

>  <PUBCHEM_COMPONENT_COUNT>  (1) 
1

>  <PUBCHEM_CACTVS_TAUTO_COUNT>  (1) 
20

>  <PUBCHEM_CONFORMER_ID>  (1) 
00008DB400000008

>  <PUBCHEM_MMFF94_ENERGY>  (1) 
66.9379

>  <PUBCHEM_FEATURE_SELFOVERLAP>  (1) 
56.118

>  <PUBCHEM_SHAPE_FINGERPRINT>  (1) 
10319926 262 15936407841065352984
10615611 76 17987253148246342608
10670039 82 17060338479348100926
10794284 68 17128765653896244859
10906281 52 17560530495790314043
11112241 14 18113899389890194365
11578080 2 18040722454893079249
12236239 1 17773583941214052942
12788726 201 17202747212730948567
13140716 1 14925101213354562943
13583140 156 18118698620701293059
13590594 115 18050295769929812786
14289278 72 14780649510712615456
14556957 393 17917139512347322901
14840074 17 17988375801321861993
14848178 96 18339366366070173920
15021287 119 18126572206831428150
15131766 46 18343308076089894849
15324884 4 17313685740622708131
15629462 23 16748722341441395678
15728490 83 9869823843246710436
16752209 62 16558456492323455703
1768 210 18057043734403450616
19246450 95 11387456631144315950
21033648 144 18334018311009823166
21033648 29 17167587080919829588
21033650 10 15984840219988261242
21267235 1 16558165161351102615
212916 134 15357977820085963475
21641784 216 17417806223735265769
22122407 14 18264780865054535240
22907989 373 17704080615560610875
23522609 53 17917722271180023793
23559900 14 15937541329847851818
23929065 36 16298387998505403025
249057 25 17988639654084166810
2838139 119 18335135354330507476
38570 142 18126594356309661052
474 4 18411139130535066778
495365 180 17168982279508367434
5104073 3 14419291787905786087
56633871 153 10954000607977185728
6034566 193 18118974822006660324
633830 44 18128559123110989634
6371009 1 18413101750480508424
6608658 132 17846506919691193640
6700243 42 15482680073780519320
7226269 152 15575000486139028823
7237137 82 17059762343892540617
7288768 16 18043261343500948360

>  <PUBCHEM_SHAPE_MULTIPOLES>  (1) 
543.91
13.59
3.72
2.6
9.71
1.96
0.41
12.03
-5.62
9.9
-0.27
-5.29
0.58
-1.78

>  <PUBCHEM_SHAPE_SELFOVERLAP>  (1) 
1129.56

>  <PUBCHEM_SHAPE_VOLUME>  (1) 
310.9

>  <PUBCHEM_COORDINATE_TYPE>  (1) 
2
5
10

$$$$
