36274
     RDKit          3D

 17 18  0  0  0  0  0  0  0  0999 V2000
   -2.4107   -3.8298   -0.4205 Cl  0  0  0  0  0  0  0  0  0  0  0  0
   -2.2692    1.0581    0.3335 N   0  0  0  0  0  0  0  0  0  0  0  0
    1.7940   -1.2722    0.0848 N   0  0  0  0  0  0  0  0  0  0  0  0
   -0.2214   -0.0793    0.2139 N   0  0  0  0  0  0  0  0  0  0  0  0
   -2.2974   -1.2587   -0.0242 N   0  0  0  0  0  0  0  0  0  0  0  0
   -0.2188   -2.4508   -0.1514 N   0  0  0  0  0  0  0  0  0  0  0  0
    2.1416    1.6467   -1.6352 N   0  0  0  0  0  0  0  0  0  0  0  0
   -1.6300    2.3512    0.5508 C   0  0  0  0  0  0  0  0  0  0  0  0
   -2.3223    3.6379    0.1981 C   0  0  0  0  0  0  0  0  0  0  0  0
   -1.1333    3.1846   -0.5973 C   0  0  0  0  0  0  0  0  0  0  0  0
   -1.5613   -0.1520    0.1662 C   0  0  0  0  0  0  0  0  0  0  0  0
    2.6132   -0.0920    0.2886 C   0  0  0  0  0  0  0  0  0  0  0  0
    0.3818   -1.2669    0.0472 C   0  0  0  0  0  0  0  0  0  0  0  0
    4.0843   -0.5135    0.2652 C   0  0  0  0  0  0  0  0  0  0  0  0
    2.2595    0.5262    1.6440 C   0  0  0  0  0  0  0  0  0  0  0  0
   -1.5589   -2.3700   -0.1755 C   0  0  0  0  0  0  0  0  0  0  0  0
    2.3488    0.8806   -0.7883 C   0  0  0  0  0  0  0  0  0  0  0  0
  1 16  1  0
  2  8  1  0
  2 11  1  0
  3 12  1  0
  3 13  1  0
  4 11  2  0
  4 13  1  0
  5 11  1  0
  5 16  2  0
  6 13  2  0
  6 16  1  0
  7 17  3  0
  8  9  1  0
  8 10  1  0
  9 10  1  0
 12 14  1  0
 12 15  1  0
 12 17  1  0
M  END
>  <PUBCHEM_COMPOUND_CID>  (1) 
36274

>  <PUBCHEM_CONFORMER_RMSD>  (1) 
0.6

>  <PUBCHEM_CONFORMER_DIVERSEORDER>  (1) 
1
89
168
157
14
10
131
130
167
21
127
93
96
138
132
142
104
2
81
145
154
121
113
114
153
98
13
46
165
163
30
68
133
8
152
172
136
69
116
95
112
106
34
159
161
72
101
171
97
134
65
120
99
160
12
29
140
124
78
115
170
110
20
90
92
147
164
54
61
75
41
70
166
162
144
84
76
19
79
85
122
74
146
149
108
118
77
62
143
137
86
37
55
169
26
15
40
88
82
18
158
125
67
60
63
27
128
47
51
117
6
105
57
71
23
64
151
102
66
135
49
83
36
156
9
39
100
44
58
80
53
123
28
126
139
24
173
107
32
33
42
43
87
25
73
148
109
50
150
52
94
155
91
59
129
16
5
119
35
31
22
141
38
56
17
103
4
48
111
45
3
7
11

>  <PUBCHEM_MMFF94_PARTIAL_CHARGES>  (1) 
22
1 -0.18
10 -0.2
11 0.72
12 0.57
13 0.72
16 0.8
17 0.36
18 0.1
19 0.1
2 -0.67
20 0.1
21 0.1
22 0.1
23 0.4
24 0.4
3 -0.87
4 -0.62
5 -0.62
6 -0.62
7 -0.56
8 0.07
9 -0.2

>  <PUBCHEM_EFFECTIVE_ROTOR_COUNT>  (1) 
4.6

>  <PUBCHEM_PHARMACOPHORE_FEATURES>  (1) 
7
1 2 donor
1 3 donor
1 7 acceptor
3 12 14 15 hydrophobe
4 2 4 5 11 cation
4 3 4 6 13 cation
6 4 5 6 11 13 16 rings

>  <PUBCHEM_HEAVY_ATOM_COUNT>  (1) 
17

>  <PUBCHEM_ATOM_DEF_STEREO_COUNT>  (1) 
0

>  <PUBCHEM_ATOM_UDEF_STEREO_COUNT>  (1) 
0

>  <PUBCHEM_BOND_DEF_STEREO_COUNT>  (1) 
0

>  <PUBCHEM_BOND_UDEF_STEREO_COUNT>  (1) 
0

>  <PUBCHEM_ISOTOPIC_ATOM_COUNT>  (1) 
0

>  <PUBCHEM_COMPONENT_COUNT>  (1) 
1

>  <PUBCHEM_CACTVS_TAUTO_COUNT>  (1) 
9

>  <PUBCHEM_CONFORMER_ID>  (1) 
00008DB200000001

>  <PUBCHEM_MMFF94_ENERGY>  (1) 
45.9388

>  <PUBCHEM_FEATURE_SELFOVERLAP>  (1) 
35.564

>  <PUBCHEM_SHAPE_FINGERPRINT>  (1) 
1 1 17620190936493814277
12553582 1 18050857915817514395
13009979 54 18188486995086562226
13140716 1 18337390572932651739
14178342 30 18336811036401433650
16945 1 18411697686161937706
19868273 325 18194681698878138955
20671657 1 17261033221497869949
21524375 3 18120373159851365139
23402539 116 18271513269699273327
23419403 2 16531383466699477932
23557571 272 18200310051777169418
23559900 14 17916023457333281810
2748010 2 17905900179648561143
305870 269 17977663113101995162
3060560 45 17476074627394584263
3071541 250 17691131856352054855
3091708 16 9274024901417389499
350125 39 18124041130757832691
6992083 37 18114739326948377180
7364860 26 17260464773933438761
81228 2 18342457101291847083
84936 182 17337012807571516728

>  <PUBCHEM_SHAPE_MULTIPOLES>  (1) 
321.84
4.98
4.64
1.01
3.92
1.28
-0.02
-1
0.15
-5.92
-0.63
0.71
0.41
-0.73

>  <PUBCHEM_SHAPE_SELFOVERLAP>  (1) 
652.626

>  <PUBCHEM_SHAPE_VOLUME>  (1) 
183.9

>  <PUBCHEM_COORDINATE_TYPE>  (1) 
2
5
10

$$$$
