36278
     RDKit          3D

 28 31  0  0  0  0  0  0  0  0999 V2000
   -0.4126   -2.4325    1.2864 O   0  0  0  0  0  0  0  0  0  0  0  0
   -0.3895    4.2998   -1.3078 O   0  0  0  0  0  0  0  0  0  0  0  0
   -3.6113   -1.2601   -0.5612 O   0  0  0  0  0  0  0  0  0  0  0  0
   -5.1018   -1.7603    1.0746 O   0  0  0  0  0  0  0  0  0  0  0  0
   -1.7206   -0.4861    1.0665 N   0  0  0  0  0  0  0  0  0  0  0  0
    0.5118   -0.4107    0.1753 C   0  0  0  0  0  0  0  0  0  0  0  0
   -0.2606    0.8932   -0.0235 C   0  0  0  0  0  0  0  0  0  0  0  0
   -0.5744   -1.2767    0.9171 C   0  0  0  0  0  0  0  0  0  0  0  0
   -1.5445    0.7860    0.5136 C   0  0  0  0  0  0  0  0  0  0  0  0
    1.7048   -0.2380    1.0551 C   0  0  0  0  0  0  0  0  0  0  0  0
    0.8765   -1.0613   -1.1174 C   0  0  0  0  0  0  0  0  0  0  0  0
    0.1412    2.0699   -0.6436 C   0  0  0  0  0  0  0  0  0  0  0  0
   -2.9340   -0.9296    1.7117 C   0  0  0  0  0  0  0  0  0  0  0  0
   -2.4516    1.8321    0.4592 C   0  0  0  0  0  0  0  0  0  0  0  0
    2.4339   -1.3531    1.4670 C   0  0  0  0  0  0  0  0  0  0  0  0
    2.1475   -0.8712   -1.6586 C   0  0  0  0  0  0  0  0  0  0  0  0
    2.0901    1.0383    1.4641 C   0  0  0  0  0  0  0  0  0  0  0  0
   -0.0538   -1.8591   -1.7826 C   0  0  0  0  0  0  0  0  0  0  0  0
   -0.7612    3.1346   -0.7072 C   0  0  0  0  0  0  0  0  0  0  0  0
   -2.0475    3.0164   -0.1591 C   0  0  0  0  0  0  0  0  0  0  0  0
    3.5492   -1.1919    2.2890 C   0  0  0  0  0  0  0  0  0  0  0  0
    2.4886   -1.4793   -2.8666 C   0  0  0  0  0  0  0  0  0  0  0  0
    3.2054    1.1996    2.2861 C   0  0  0  0  0  0  0  0  0  0  0  0
    0.2874   -2.4674   -2.9907 C   0  0  0  0  0  0  0  0  0  0  0  0
   -3.9962   -1.3589    0.7326 C   0  0  0  0  0  0  0  0  0  0  0  0
    3.9349    0.0844    2.6985 C   0  0  0  0  0  0  0  0  0  0  0  0
    1.5586   -2.2774   -3.5326 C   0  0  0  0  0  0  0  0  0  0  0  0
    0.9298    4.3592   -1.8458 C   0  0  0  0  0  0  0  0  0  0  0  0
  1  8  2  0
  2 19  1  0
  2 28  1  0
  3 25  1  0
  4 25  2  0
  5  8  1  0
  5  9  1  0
  5 13  1  0
  6  7  1  0
  6  8  1  0
  6 10  1  0
  6 11  1  0
  7  9  2  0
  7 12  1  0
  9 14  1  0
 10 15  2  0
 10 17  1  0
 11 16  2  0
 11 18  1  0
 12 19  2  0
 13 25  1  0
 14 20  2  0
 15 21  1  0
 16 22  1  0
 17 23  2  0
 18 24  2  0
 19 20  1  0
 21 26  2  0
 22 27  2  0
 23 26  1  0
 24 27  1  0
M  END
>  <PUBCHEM_COMPOUND_CID>  (1) 
36278

>  <PUBCHEM_CONFORMER_RMSD>  (1) 
0.8

>  <PUBCHEM_CONFORMER_DIVERSEORDER>  (1) 
1
4
6
2
5
3

>  <PUBCHEM_MMFF94_PARTIAL_CHARGES>  (1) 
42
1 -0.57
10 -0.14
11 -0.14
12 -0.15
13 0.36
14 -0.15
15 -0.15
16 -0.15
17 -0.15
18 -0.15
19 0.08
2 -0.36
20 -0.15
21 -0.15
22 -0.15
23 -0.15
24 -0.15
25 0.66
26 -0.15
27 -0.15
28 0.28
29 0.15
3 -0.65
32 0.15
33 0.15
34 0.15
35 0.15
36 0.15
37 0.15
38 0.15
39 0.15
4 -0.57
40 0.15
41 0.15
42 0.15
43 0.15
47 0.5
5 -0.48
6 0.49
7 -0.14
8 0.57
9 0.12

>  <PUBCHEM_EFFECTIVE_ROTOR_COUNT>  (1) 
5.4

>  <PUBCHEM_PHARMACOPHORE_FEATURES>  (1) 
9
1 1 acceptor
1 2 acceptor
1 3 acceptor
1 4 acceptor
3 3 4 25 anion
5 5 6 7 8 9 rings
6 10 15 17 21 23 26 rings
6 11 16 18 22 24 27 rings
6 7 9 12 14 19 20 rings

>  <PUBCHEM_HEAVY_ATOM_COUNT>  (1) 
28

>  <PUBCHEM_ATOM_DEF_STEREO_COUNT>  (1) 
0

>  <PUBCHEM_ATOM_UDEF_STEREO_COUNT>  (1) 
0

>  <PUBCHEM_BOND_DEF_STEREO_COUNT>  (1) 
0

>  <PUBCHEM_BOND_UDEF_STEREO_COUNT>  (1) 
0

>  <PUBCHEM_ISOTOPIC_ATOM_COUNT>  (1) 
0

>  <PUBCHEM_COMPONENT_COUNT>  (1) 
1

>  <PUBCHEM_CACTVS_TAUTO_COUNT>  (1) 
1

>  <PUBCHEM_CONFORMER_ID>  (1) 
00008DB600000001

>  <PUBCHEM_MMFF94_ENERGY>  (1) 
104.8443

>  <PUBCHEM_FEATURE_SELFOVERLAP>  (1) 
45.815

>  <PUBCHEM_SHAPE_FINGERPRINT>  (1) 
1100329 8 17538003954325843352
11421498 54 16157698892434406017
11578080 2 17629786507429065048
11582403 64 17116017614945273864
11640471 11 16302652852904755580
11725454 13 17693624075576253720
11763715 3 17822580412619268146
12160290 23 17901120633221739529
12422481 6 18060126657095202507
13009979 54 17313959489074157074
13140716 1 18262227837983871369
13583140 156 18053922001653495474
13911987 19 16961491512803104088
14022347 108 18117590437945912203
14787075 74 15584928049277113305
14817 1 12981128513117041564
14840074 17 18055058011485785728
14863182 85 17487633041908844271
15238133 3 17894916188201105411
15420108 30 17483110840693784057
15664445 248 18264514873840471711
16945 1 18264204884190748467
17980427 23 18338788018268898593
17980427 26 15882595246319982678
18915476 22 17203040764569470203
20600515 1 18335420205420057801
21133665 82 17541688413791830180
22149856 69 17272038599466403083
22182313 1 18201159850133388487
229495 10 18055039199845502138
23419403 2 17630617716839519086
25222932 49 17538580094266496051
266924 78 16746175318058985710
3380486 77 18261391204298085059
376196 1 16975000829383759656
394222 165 17760945325814757289
4340502 62 14206246000019976297
46194498 28 18267314295629208047
469060 322 17545267242291924024
484985 159 16666508721542311546
497634 4 17096910405637389386
59444896 2 17334760367712206325
59554788 248 17845351320105876834
6287921 2 17774736345437334727
81228 2 18265064535402742233
9841814 1 18115605875434347531
9925002 15 17266350923311930125
9981440 41 17031691881134965094

>  <PUBCHEM_SHAPE_MULTIPOLES>  (1) 
547.77
5.69
4.25
3.34
2.54
3.76
1.5
-1.99
-4.8
1.49
3.97
-3.12
-1.27
2.85

>  <PUBCHEM_SHAPE_SELFOVERLAP>  (1) 
1222.423

>  <PUBCHEM_SHAPE_VOLUME>  (1) 
291.3

>  <PUBCHEM_COORDINATE_TYPE>  (1) 
2
5
10

$$$$
