36271
     RDKit          3D

 22 24  0  0  0  0  0  0  0  0999 V2000
    5.6580    1.9389   -1.4724 Cl  0  0  0  0  0  0  0  0  0  0  0  0
   -2.4797    2.4135    0.8006 O   0  0  0  0  0  0  0  0  0  0  0  0
   -4.3386    1.1355   -0.8183 O   0  0  0  0  0  0  0  0  0  0  0  0
   -0.4084   -3.4828   -0.5341 N   0  0  0  0  0  0  0  0  0  0  0  0
   -0.8533   -0.8438    0.3404 C   0  0  0  0  0  0  0  0  0  0  0  0
    0.3053   -1.5360    0.7113 C   0  0  0  0  0  0  0  0  0  0  0  0
    1.3645   -0.9398    1.5780 C   0  0  0  0  0  0  0  0  0  0  0  0
   -1.8003   -1.4891   -0.4815 C   0  0  0  0  0  0  0  0  0  0  0  0
   -1.0997    0.4727    0.7632 C   0  0  0  0  0  0  0  0  0  0  0  0
    2.4488   -0.2127    0.8093 C   0  0  0  0  0  0  0  0  0  0  0  0
   -2.9700   -0.8119   -0.8642 C   0  0  0  0  0  0  0  0  0  0  0  0
   -2.2656    1.1363    0.3767 C   0  0  0  0  0  0  0  0  0  0  0  0
    0.4754   -2.8335    0.2533 C   0  0  0  0  0  0  0  0  0  0  0  0
   -3.1986    0.4954   -0.4351 C   0  0  0  0  0  0  0  0  0  0  0  0
   -1.5211   -2.7974   -0.8814 C   0  0  0  0  0  0  0  0  0  0  0  0
    2.2953    1.1352    0.5395 C   0  0  0  0  0  0  0  0  0  0  0  0
    3.5662   -0.9144    0.3940 C   0  0  0  0  0  0  0  0  0  0  0  0
    3.2932    1.8041   -0.1695 C   0  0  0  0  0  0  0  0  0  0  0  0
    4.5640   -0.2454   -0.3149 C   0  0  0  0  0  0  0  0  0  0  0  0
    4.4275    1.1139   -0.5966 C   0  0  0  0  0  0  0  0  0  0  0  0
   -1.9872    3.4628   -0.0301 C   0  0  0  0  0  0  0  0  0  0  0  0
   -5.4757    0.9985    0.0317 C   0  0  0  0  0  0  0  0  0  0  0  0
  1 20  1  0
  2 12  1  0
  2 21  1  0
  3 14  1  0
  3 22  1  0
  4 13  2  0
  4 15  1  0
  5  6  2  0
  5  8  1  0
  5  9  1  0
  6  7  1  0
  6 13  1  0
  7 10  1  0
  8 11  1  0
  8 15  2  0
  9 12  2  0
 10 16  2  0
 10 17  1  0
 11 14  2  0
 12 14  1  0
 16 18  1  0
 17 19  2  0
 18 20  2  0
 19 20  1  0
M  END
>  <PUBCHEM_COMPOUND_CID>  (1) 
36271

>  <PUBCHEM_CONFORMER_RMSD>  (1) 
0.6

>  <PUBCHEM_CONFORMER_DIVERSEORDER>  (1) 
1
27
31
7
21
19
29
6
32
22
11
28
15
34
30
33
8
10
9
12
5
16
14
13
20
4
25
23
3
2
26
24
17
18

>  <PUBCHEM_MMFF94_PARTIAL_CHARGES>  (1) 
28
1 -0.18
10 -0.14
11 -0.15
12 0.08
13 0.16
14 0.08
15 0.16
16 -0.15
17 -0.15
18 -0.15
19 -0.15
2 -0.36
20 0.18
21 0.28
22 0.28
25 0.15
26 0.15
27 0.15
28 0.15
29 0.15
3 -0.36
30 0.15
31 0.15
32 0.15
4 -0.62
6 -0.14
7 0.29
9 -0.15

>  <PUBCHEM_EFFECTIVE_ROTOR_COUNT>  (1) 
4

>  <PUBCHEM_PHARMACOPHORE_FEATURES>  (1) 
6
1 2 acceptor
1 3 acceptor
1 4 acceptor
6 10 16 17 18 19 20 rings
6 4 5 6 8 13 15 rings
6 5 8 9 11 12 14 rings

>  <PUBCHEM_HEAVY_ATOM_COUNT>  (1) 
22

>  <PUBCHEM_ATOM_DEF_STEREO_COUNT>  (1) 
0

>  <PUBCHEM_ATOM_UDEF_STEREO_COUNT>  (1) 
0

>  <PUBCHEM_BOND_DEF_STEREO_COUNT>  (1) 
0

>  <PUBCHEM_BOND_UDEF_STEREO_COUNT>  (1) 
0

>  <PUBCHEM_ISOTOPIC_ATOM_COUNT>  (1) 
0

>  <PUBCHEM_COMPONENT_COUNT>  (1) 
1

>  <PUBCHEM_CACTVS_TAUTO_COUNT>  (1) 
1

>  <PUBCHEM_CONFORMER_ID>  (1) 
00008DAF00000001

>  <PUBCHEM_MMFF94_ENERGY>  (1) 
86.5999

>  <PUBCHEM_FEATURE_SELFOVERLAP>  (1) 
30.478

>  <PUBCHEM_SHAPE_FINGERPRINT>  (1) 
10498660 4 18410284839437243249
10871710 139 18408606954829453013
11640471 11 17895748612412499854
11796584 16 13758061987994425781
12173636 292 18341319046305478428
12788726 201 18059863835092997360
13583140 156 17098600281668081179
13994607 96 17823432641378551352
14251751 93 18341047398425229924
1454969 45 18411417341795496863
14767858 380 18269255977007253015
14790565 3 18342742888716910073
14840074 17 18187653492079364397
15183329 4 18338808832239058382
15342168 16 17458349671173677662
15475509 35 11381821750654858853
15575132 122 18260267408867656325
16752209 62 18272073981631543153
17492 54 18262783164786391333
20775438 99 17052414505031343351
20871999 31 18270395134623894230
21250096 35 9655568617351816313
21524375 3 18335416820743391002
21756936 100 17604997086437265264
21857420 4 15257710292200096893
22620623 9 17487889215006497743
23366157 5 17904202529701566315
23402655 69 18335983168617121956
23557571 272 18197224860962903286
23558518 356 17905604398832003233
23559900 14 18059569252614330728
25265897 201 17907058189105586164
26353 1 17050456334725229335
2637199 183 18336831900977595162
2748010 2 17839429500992668643
350125 39 18126278641210133899
4028521 119 18336825385464688732
44154327 71 18338790131265603491
474 4 18187926136154388674
633830 44 17676483986827852730

>  <PUBCHEM_SHAPE_MULTIPOLES>  (1) 
437.9
9.81
3.54
1.12
5.33
0.53
-0.02
-7.15
3.44
-1.54
0.48
0.49
0.05
-1.44

>  <PUBCHEM_SHAPE_SELFOVERLAP>  (1) 
948.286

>  <PUBCHEM_SHAPE_VOLUME>  (1) 
243.2

>  <PUBCHEM_COORDINATE_TYPE>  (1) 
2
5
10

$$$$
