3627
     RDKit          3D

 22 24  0  0  1  0  0  0  0  0999 V2000
   -3.5377   -4.5179   -0.2366 Cl  0  0  0  0  0  0  0  0  0  0  0  0
    1.0562    0.3336   -0.3754 N   0  0  0  0  0  0  0  0  0  0  0  0
    4.1040   -0.9101    0.0675 N   0  0  0  0  0  0  0  0  0  0  0  0
    1.9531    1.4554   -0.0856 C   0  0  0  0  0  0  0  0  0  0  0  0
   -0.1641    0.4016    0.4305 C   0  0  0  0  0  0  0  0  0  0  0  0
    1.6540   -0.9991   -0.2717 C   0  0  0  0  0  0  0  0  0  0  0  0
    3.0427    1.2193    0.9644 C   0  0  0  0  0  0  0  0  0  0  0  0
    3.0383   -1.1380   -0.9160 C   0  0  0  0  0  0  0  0  0  0  0  0
    4.2830    0.5059    0.4110 C   0  0  0  0  0  0  0  0  0  0  0  0
   -1.0186   -0.8458    0.2607 C   0  0  0  0  0  0  0  0  0  0  0  0
   -0.9609    1.6744    0.1847 C   0  0  0  0  0  0  0  0  0  0  0  0
    5.3712   -1.4617   -0.4219 C   0  0  0  0  0  0  0  0  0  0  0  0
   -1.9739   -0.8700   -0.7350 C   0  0  0  0  0  0  0  0  0  0  0  0
   -0.8137   -1.9156    1.1082 C   0  0  0  0  0  0  0  0  0  0  0  0
   -1.7195    2.1958    1.2130 C   0  0  0  0  0  0  0  0  0  0  0  0
   -0.9011    2.2696   -1.0591 C   0  0  0  0  0  0  0  0  0  0  0  0
   -2.7581   -2.0131   -0.8898 C   0  0  0  0  0  0  0  0  0  0  0  0
   -1.5978   -3.0589    0.9533 C   0  0  0  0  0  0  0  0  0  0  0  0
   -2.4498    3.3626    0.9880 C   0  0  0  0  0  0  0  0  0  0  0  0
   -1.6315    3.4366   -1.2840 C   0  0  0  0  0  0  0  0  0  0  0  0
   -2.5700   -3.1077   -0.0458 C   0  0  0  0  0  0  0  0  0  0  0  0
   -2.4058    3.9830   -0.2604 C   0  0  0  0  0  0  0  0  0  0  0  0
  1 21  1  0
  2  4  1  0
  2  5  1  0
  2  6  1  0
  3  8  1  0
  3  9  1  0
  3 12  1  0
  4  7  1  0
  5 10  1  0
  5 11  1  0
  6  8  1  0
  7  9  1  0
 10 13  2  0
 10 14  1  0
 11 15  2  0
 11 16  1  0
 13 17  1  0
 14 18  2  0
 15 19  1  0
 16 20  2  0
 17 21  2  0
 18 21  1  0
 19 22  2  0
 20 22  1  0
M  END
>  <PUBCHEM_COMPOUND_CID>  (1) 
3627

>  <PUBCHEM_CONFORMER_RMSD>  (1) 
0.8

>  <PUBCHEM_CONFORMER_DIVERSEORDER>  (1) 
1
18
13
16
9
3
14
17
10
7
11
4
12
15
6
2
8
5

>  <PUBCHEM_MMFF94_PARTIAL_CHARGES>  (1) 
30
1 -0.18
10 -0.14
11 -0.14
12 0.27
13 -0.15
14 -0.15
15 -0.15
16 -0.15
17 -0.15
18 -0.15
19 -0.15
2 -0.81
20 -0.15
21 0.18
22 -0.15
3 -0.81
37 0.15
38 0.15
39 0.15
4 0.27
40 0.15
41 0.15
42 0.15
43 0.15
44 0.15
45 0.15
5 0.56
6 0.27
8 0.27
9 0.27

>  <PUBCHEM_EFFECTIVE_ROTOR_COUNT>  (1) 
4.4

>  <PUBCHEM_PHARMACOPHORE_FEATURES>  (1) 
5
1 2 cation
1 3 cation
6 10 13 14 17 18 21 rings
6 11 15 16 19 20 22 rings
7 2 3 4 6 7 8 9 rings

>  <PUBCHEM_HEAVY_ATOM_COUNT>  (1) 
22

>  <PUBCHEM_ATOM_DEF_STEREO_COUNT>  (1) 
0

>  <PUBCHEM_ATOM_UDEF_STEREO_COUNT>  (1) 
1

>  <PUBCHEM_BOND_DEF_STEREO_COUNT>  (1) 
0

>  <PUBCHEM_BOND_UDEF_STEREO_COUNT>  (1) 
0

>  <PUBCHEM_ISOTOPIC_ATOM_COUNT>  (1) 
0

>  <PUBCHEM_COMPONENT_COUNT>  (1) 
1

>  <PUBCHEM_CACTVS_TAUTO_COUNT>  (1) 
1

>  <PUBCHEM_CONFORMER_ID>  (1) 
00000E2B00000001

>  <PUBCHEM_MMFF94_ENERGY>  (1) 
76.6582

>  <PUBCHEM_FEATURE_SELFOVERLAP>  (1) 
25.373

>  <PUBCHEM_SHAPE_FINGERPRINT>  (1) 
10411042 1 18266462203112145038
1100329 8 18337673126700598817
11045515 52 18192146216706642063
11101153 10 18191877936587325116
11578080 2 16557316410645020867
116883 192 18410572924389546228
121448 382 18124853708410909061
12403259 226 18270960262684754386
12500047 106 18265616468769998804
12549972 3 17774703291690636016
12553582 1 17976279133032202530
12643181 29 17980768139395371542
12730499 353 17616539454500695661
12788726 201 18336255799549626547
13004483 165 18268422602263575506
13134695 92 17836922670152221431
13140716 1 18339930427655272859
13540713 4 18131066031545152184
13681431 1 17832147503810897081
13690498 29 18270420359784534270
138480 1 16320903410180321535
13911987 19 17179703952851895748
13955234 65 17114670069215013307
14178342 30 18336535050424043026
14223421 5 18269549593619378856
14790565 3 17547296606097911288
14866123 147 18339080372033825323
14955137 171 17330842829632063536
15042514 8 18410863178743763547
15309172 13 17977108959242310528
15927050 60 18050570642677574414
17539 30 18411695491481102943
1813 80 17983314895016763119
18785283 64 17110439144059987875
19591789 44 18049726213509555507
20600515 1 17679284523978133084
20739085 24 17981070787452692051
21033648 29 18051122602263424736
21049683 271 17467917814516276213
21120745 212 18122651558324369668
21304303 282 17759757590846801749
21478907 32 18410292549019792059
21524375 3 18047199548536879633
2255824 54 17187005839335545879
23419403 2 17697008686036707233
23526113 38 17682391803984114611
23557571 272 18265600147482875832
23558518 356 18334579057724220848
23559900 14 18339632426182055018
283562 15 18335697295335788402
3091708 16 9202529140556736489
3380486 145 17625230363255801462
350125 39 18266465308446918009
3729539 64 17187585844857885990
3886686 26 17833509502929575714
59025328 239 17269440495315073495
59755656 520 18124595280075559180
6442390 28 18195254308598306361
6443956 14 17978508964256954187
6669772 16 17693661420122246894
7164475 11 18336830900345193220
7364860 26 17256805023763258657
7399639 24 17985253321769654552
77188 2 18122627420734077781
81228 2 18336266829110025537
9709674 26 18343581824572673398
9925002 15 18189355578722801733
9981440 41 16910820394408424312

>  <PUBCHEM_SHAPE_MULTIPOLES>  (1) 
444.66
7.14
5.76
1.14
10.16
1.81
0.03
-6.19
-0.46
-8.35
-0.27
-0.31
0.37
0.29

>  <PUBCHEM_SHAPE_SELFOVERLAP>  (1) 
936.542

>  <PUBCHEM_SHAPE_VOLUME>  (1) 
250.4

>  <PUBCHEM_COORDINATE_TYPE>  (1) 
2
5
10

$$$$
