36277
     RDKit          3D

 14 15  0  0  0  0  0  0  0  0999 V2000
   -0.1040    1.8743   -0.9333 O   0  0  0  0  0  0  0  0  0  0  0  0
    3.9220   -0.7667    0.3333 N   0  0  0  0  0  0  0  0  0  0  0  0
   -1.1634   -0.0249    0.0270 C   0  0  0  0  0  0  0  0  0  0  0  0
   -1.9799    0.7506    1.0632 C   0  0  0  0  0  0  0  0  0  0  0  0
   -2.0070   -0.3791   -1.1996 C   0  0  0  0  0  0  0  0  0  0  0  0
   -3.2568    0.0074    1.4463 C   0  0  0  0  0  0  0  0  0  0  0  0
   -3.2841   -1.1195   -0.8113 C   0  0  0  0  0  0  0  0  0  0  0  0
   -4.0951   -0.3406    0.2199 C   0  0  0  0  0  0  0  0  0  0  0  0
    0.0312    0.7806   -0.3895 C   0  0  0  0  0  0  0  0  0  0  0  0
    1.3956    0.2379   -0.1350 C   0  0  0  0  0  0  0  0  0  0  0  0
    1.5760   -1.1226   -0.1301 C   0  0  0  0  0  0  0  0  0  0  0  0
    2.4268    1.1168    0.0846 C   0  0  0  0  0  0  0  0  0  0  0  0
    2.8630   -1.5767    0.1097 C   0  0  0  0  0  0  0  0  0  0  0  0
    3.6756    0.5625    0.3149 C   0  0  0  0  0  0  0  0  0  0  0  0
  1  9  2  0
  2 13  2  0
  2 14  1  0
  3  4  1  0
  3  5  1  0
  3  9  1  0
  4  6  1  0
  5  7  1  0
  6  8  1  0
  7  8  1  0
  9 10  1  0
 10 11  2  0
 10 12  1  0
 11 13  1  0
 12 14  2  0
M  END
>  <PUBCHEM_COMPOUND_CID>  (1) 
36277

>  <PUBCHEM_CONFORMER_RMSD>  (1) 
0.6

>  <PUBCHEM_CONFORMER_DIVERSEORDER>  (1) 
3
15
6
16
4
2
17
11
18
9
7
5
1
13
14
12
10
8

>  <PUBCHEM_MMFF94_PARTIAL_CHARGES>  (1) 
13
1 -0.57
10 0.09
11 -0.15
12 -0.15
13 0.16
14 0.16
2 -0.62
26 0.15
27 0.15
28 0.15
29 0.15
3 0.06
9 0.42

>  <PUBCHEM_EFFECTIVE_ROTOR_COUNT>  (1) 
3.2

>  <PUBCHEM_PHARMACOPHORE_FEATURES>  (1) 
4
1 1 acceptor
1 2 acceptor
6 2 10 11 12 13 14 rings
6 3 4 5 6 7 8 rings

>  <PUBCHEM_HEAVY_ATOM_COUNT>  (1) 
14

>  <PUBCHEM_ATOM_DEF_STEREO_COUNT>  (1) 
0

>  <PUBCHEM_ATOM_UDEF_STEREO_COUNT>  (1) 
0

>  <PUBCHEM_BOND_DEF_STEREO_COUNT>  (1) 
0

>  <PUBCHEM_BOND_UDEF_STEREO_COUNT>  (1) 
0

>  <PUBCHEM_ISOTOPIC_ATOM_COUNT>  (1) 
0

>  <PUBCHEM_COMPONENT_COUNT>  (1) 
1

>  <PUBCHEM_CACTVS_TAUTO_COUNT>  (1) 
2

>  <PUBCHEM_CONFORMER_ID>  (1) 
00008DB500000003

>  <PUBCHEM_MMFF94_ENERGY>  (1) 
29.7345

>  <PUBCHEM_FEATURE_SELFOVERLAP>  (1) 
20.297

>  <PUBCHEM_SHAPE_FINGERPRINT>  (1) 
10219947 1 18334013925552801692
10618630 7 18187647976992514244
11132069 177 18273206491630366506
11543360 7 14057012628155024226
11578080 2 17843087477326005449
12032990 46 18040156210087681674
12119455 92 12967130480170422589
12251169 10 18060139825332523858
12932764 1 18272654540924789868
13296908 3 18040994025052537189
13581323 91 17203610389070712175
13764800 53 15051744070642936891
14144814 61 18060701684337923731
14251717 144 18410008862087236734
14252887 29 18334020483941580130
14445660 50 17988928868175096507
15375358 24 17821440279090553257
15375462 189 18273495680115068562
15501101 241 18410009957520305044
15669948 3 17060334175711723287
15775835 57 17775574138779673739
16945 1 18335423512328818164
17844478 74 18187366493557874260
19050596 39 18060137652089764794
19422 9 18060421321926690798
200 152 18343011208033939999
20201158 50 17603585226990728363
20279233 1 17313101964393330699
20281407 28 18187366510547709350
20281475 54 18412262822506894350
20361792 2 18186803577874436285
20645477 70 18335689512449002575
20671657 53 16370727019647641044
20711985 344 17242156964411715340
20871998 22 18267592316618639014
20871999 31 13695871463170944363
21061003 4 18040438802009285301
22445834 79 18201440255146511499
22485316 2 18333729117697339043
2255824 54 18340490088032964972
23402539 116 17894904110156950324
23557571 272 15864064382114057876
23559900 14 16343160042520067316
26918003 58 18334294279627450939
2748010 2 18120925119368597908
474 4 17983849262232049912
581208 293 18408601487498835754
77492 1 18130793394782994037
81228 2 17604707738153154597
90316 7 17632022965994135233

>  <PUBCHEM_SHAPE_MULTIPOLES>  (1) 
277.26
7.37
1.43
1.07
0.04
0.05
-0.05
1.6
-1.49
0.61
0.17
-0.86
-0.12
-0.6

>  <PUBCHEM_SHAPE_SELFOVERLAP>  (1) 
581.308

>  <PUBCHEM_SHAPE_VOLUME>  (1) 
153.9

>  <PUBCHEM_COORDINATE_TYPE>  (1) 
2
5
10

$$$$
