36290
     RDKit          3D

 33 34  0  0  0  0  0  0  0  0999 V2000
   -6.9229   -0.4612   -0.9656 S   0  0  0  0  0  0  0  0  0  0  0  0
   -7.8373    0.6656   -0.9406 O   0  0  0  0  0  0  0  0  0  0  0  0
   -6.8888   -1.3268   -2.1300 O   0  0  0  0  0  0  0  0  0  0  0  0
    5.9508    0.6684   -0.0336 O   0  0  0  0  0  0  0  0  0  0  0  0
   -1.2167    2.9499   -0.0760 O   0  0  0  0  0  0  0  0  0  0  0  0
    5.6856    2.5543    1.2595 O   0  0  0  0  0  0  0  0  0  0  0  0
   -7.1487   -1.4151    0.4531 N   0  0  0  0  0  0  0  0  0  0  0  0
    7.5974   -1.6524   -0.1382 N   0  0  0  0  0  0  0  0  0  0  0  0
   -0.3411    0.7746   -0.1585 N   0  0  0  0  0  0  0  0  0  0  0  0
   -6.2076   -2.5392    0.6899 C   0  0  0  0  0  0  0  0  0  0  0  0
   -7.5011   -0.7110    1.7123 C   0  0  0  0  0  0  0  0  0  0  0  0
   -5.2885    0.1833   -0.7421 C   0  0  0  0  0  0  0  0  0  0  0  0
    8.0153   -0.3691   -0.6827 C   0  0  0  0  0  0  0  0  0  0  0  0
    7.7886   -2.7202   -1.1227 C   0  0  0  0  0  0  0  0  0  0  0  0
    8.3351   -1.9593    1.0898 C   0  0  0  0  0  0  0  0  0  0  0  0
    7.3735    0.7748    0.0861 C   0  0  0  0  0  0  0  0  0  0  0  0
   -6.8699   -3.6514    1.4852 C   0  0  0  0  0  0  0  0  0  0  0  0
   -9.0059   -0.5548    1.8514 C   0  0  0  0  0  0  0  0  0  0  0  0
   -5.1018    1.3973   -0.0811 C   0  0  0  0  0  0  0  0  0  0  0  0
   -4.1879   -0.5239   -1.2260 C   0  0  0  0  0  0  0  0  0  0  0  0
    7.0325   -2.4249   -2.4068 C   0  0  0  0  0  0  0  0  0  0  0  0
    7.8586   -3.2641    1.7049 C   0  0  0  0  0  0  0  0  0  0  0  0
   -2.7137    1.1968   -0.3878 C   0  0  0  0  0  0  0  0  0  0  0  0
   -3.8144    1.9040    0.0961 C   0  0  0  0  0  0  0  0  0  0  0  0
   -2.9006   -0.0172   -1.0489 C   0  0  0  0  0  0  0  0  0  0  0  0
   -1.3713    1.7243   -0.2028 C   0  0  0  0  0  0  0  0  0  0  0  0
    1.0465    0.9867    0.0323 C   0  0  0  0  0  0  0  0  0  0  0  0
    3.7793    1.4046    0.4057 C   0  0  0  0  0  0  0  0  0  0  0  0
    5.2037    1.6230    0.6011 C   0  0  0  0  0  0  0  0  0  0  0  0
    1.5366    2.2810    0.2069 C   0  0  0  0  0  0  0  0  0  0  0  0
    1.9227   -0.0985    0.0443 C   0  0  0  0  0  0  0  0  0  0  0  0
    2.9029    2.4898    0.3936 C   0  0  0  0  0  0  0  0  0  0  0  0
    3.2890    0.1104    0.2310 C   0  0  0  0  0  0  0  0  0  0  0  0
  1  2  2  0
  1  3  2  0
  1  7  1  0
  1 12  1  0
  4 16  1  0
  4 29  1  0
  5 26  2  0
  6 29  2  0
  7 10  1  0
  7 11  1  0
  8 13  1  0
  8 14  1  0
  8 15  1  0
  9 26  1  0
  9 27  1  0
 10 17  1  0
 11 18  1  0
 12 19  2  0
 12 20  1  0
 13 16  1  0
 14 21  1  0
 15 22  1  0
 19 24  1  0
 20 25  2  0
 23 24  2  0
 23 25  1  0
 23 26  1  0
 27 30  2  0
 27 31  1  0
 28 29  1  0
 28 32  2  0
 28 33  1  0
 30 32  1  0
 31 33  2  0
M  END
>  <PUBCHEM_COMPOUND_CID>  (1) 
36290

>  <PUBCHEM_CONFORMER_RMSD>  (1) 
1.2

>  <PUBCHEM_CONFORMER_DIVERSEORDER>  (1) 
5
19
12
9
6
3
18
23
13
25
20
27
17
1
11
14
24
22
26
7
21
4
15
16
2
8
10
28

>  <PUBCHEM_MMFF94_PARTIAL_CHARGES>  (1) 
38
1 1.45
10 0.36
11 0.36
12 -0.01
13 0.27
14 0.27
15 0.27
16 0.28
19 -0.15
2 -0.65
20 -0.15
23 0.09
24 -0.15
25 -0.15
26 0.54
27 0.12
28 0.09
29 0.63
3 -0.65
30 -0.15
31 -0.15
32 -0.15
33 -0.15
4 -0.43
5 -0.57
52 0.15
53 0.15
6 -0.57
60 0.15
61 0.15
62 0.37
63 0.15
64 0.15
65 0.15
66 0.15
7 -0.85
8 -0.81
9 -0.55

>  <PUBCHEM_EFFECTIVE_ROTOR_COUNT>  (1) 
14

>  <PUBCHEM_PHARMACOPHORE_FEATURES>  (1) 
8
1 2 acceptor
1 3 acceptor
1 5 acceptor
1 6 acceptor
1 8 cation
1 9 donor
6 12 19 20 23 24 25 rings
6 27 28 30 31 32 33 rings

>  <PUBCHEM_HEAVY_ATOM_COUNT>  (1) 
33

>  <PUBCHEM_ATOM_DEF_STEREO_COUNT>  (1) 
0

>  <PUBCHEM_ATOM_UDEF_STEREO_COUNT>  (1) 
0

>  <PUBCHEM_BOND_DEF_STEREO_COUNT>  (1) 
0

>  <PUBCHEM_BOND_UDEF_STEREO_COUNT>  (1) 
0

>  <PUBCHEM_ISOTOPIC_ATOM_COUNT>  (1) 
0

>  <PUBCHEM_COMPONENT_COUNT>  (1) 
1

>  <PUBCHEM_CACTVS_TAUTO_COUNT>  (1) 
3

>  <PUBCHEM_CONFORMER_ID>  (1) 
00008DC200000005

>  <PUBCHEM_MMFF94_ENERGY>  (1) 
74.3852

>  <PUBCHEM_FEATURE_SELFOVERLAP>  (1) 
40.616

>  <PUBCHEM_SHAPE_FINGERPRINT>  (1) 
10533779 1 15193908666095857091
10533779 47 18201731638802938371
11315181 36 10953457419637343341
11621639 254 8574430882277435739
11991303 11 16154003395621031058
12522641 24 17131822206295719768
12539747 164 18261117331720021049
13782708 43 18334856066346465068
13811026 1 18412262818043174030
14344974 204 18120660390549762155
15461852 350 15068341220386763809
15510794 2 18409448094778886455
15510800 12 18411426111201038206
15773879 343 18041003938159882274
1754908 1 16200425875614164446
1818759 1 18335425663975330760
20105231 36 18113058251385400267
2026 5 18267583516769265206
20982279 24 18336282162338808562
21033648 29 11959735966486905273
21130935 74 17916579998467126981
21267235 1 18410856576836204165
21792934 111 9007060129136718252
21895439 516 17458355151689577702
23522609 53 18196681561071430384
23569943 247 18044650894207231850
23576562 1 13913188844936033791
25025965 108 18059275635686596455
2747138 104 18336543910335725233
3918712 181 8213842796858607350
4169191 19 7853579027996511215
4625314 4 18260545628296014701
49967989 163 16515975890280080707
504579 68 14706932864785754906
5470011 282 17748828536115084420
6289498 60 11024108746318806638
636775 72 10879727472650987619
9831232 110 18199748056124159572
9962374 69 17988629835308841820
999808 66 18409732893849222339

>  <PUBCHEM_SHAPE_MULTIPOLES>  (1) 
638.68
33.51
3.61
1.6
8.91
1.88
0.27
27.47
-3.72
3.18
-1.08
-0.58
1.3
2.73

>  <PUBCHEM_SHAPE_SELFOVERLAP>  (1) 
1300.141

>  <PUBCHEM_SHAPE_VOLUME>  (1) 
372.1

>  <PUBCHEM_COORDINATE_TYPE>  (1) 
2
5
10

$$$$
