36297
     RDKit          3D

 15 16  0  0  0  0  0  0  0  0999 V2000
    1.3241    2.5728    0.4015 Cl  0  0  0  0  0  0  0  0  0  0  0  0
   -2.7159   -0.4986    1.0260 O   0  0  0  0  0  0  0  0  0  0  0  0
   -0.4876   -0.8018    1.5858 O   0  0  0  0  0  0  0  0  0  0  0  0
   -2.4986    0.3419   -1.0629 N   0  0  0  0  0  0  0  0  0  0  0  0
    1.2376    0.0397   -0.6287 C   0  0  0  0  0  0  0  0  0  0  0  0
   -1.2586    0.0897   -0.5470 C   0  0  0  0  0  0  0  0  0  0  0  0
   -0.0858    0.2947   -1.1485 C   0  0  0  0  0  0  0  0  0  0  0  0
    1.9679    0.9989    0.0877 C   0  0  0  0  0  0  0  0  0  0  0  0
    1.8082   -1.2203   -0.8540 C   0  0  0  0  0  0  0  0  0  0  0  0
   -3.2860   -0.0208   -0.1042 C   0  0  0  0  0  0  0  0  0  0  0  0
   -1.3669   -0.4619    0.8213 C   0  0  0  0  0  0  0  0  0  0  0  0
    3.2433    0.7027    0.5689 C   0  0  0  0  0  0  0  0  0  0  0  0
    3.0836   -1.5162   -0.3728 C   0  0  0  0  0  0  0  0  0  0  0  0
    3.8011   -0.5548    0.3386 C   0  0  0  0  0  0  0  0  0  0  0  0
   -4.7665    0.0340   -0.1117 C   0  0  0  0  0  0  0  0  0  0  0  0
  1  8  1  0
  2 10  1  0
  2 11  1  0
  3 11  2  0
  4  6  1  0
  4 10  2  0
  5  7  1  0
  5  8  2  0
  5  9  1  0
  6  7  2  0
  6 11  1  0
  8 12  1  0
  9 13  2  0
 10 15  1  0
 12 14  2  0
 13 14  1  0
M  END
>  <PUBCHEM_COMPOUND_CID>  (1) 
36297

>  <PUBCHEM_CONFORMER_RMSD>  (1) 
0.6

>  <PUBCHEM_CONFORMER_DIVERSEORDER>  (1) 
1
2

>  <PUBCHEM_MMFF94_PARTIAL_CHARGES>  (1) 
20
1 -0.18
10 0.54
11 0.71
12 -0.15
13 -0.15
14 -0.15
15 0.06
16 0.15
17 0.15
18 0.15
19 0.15
2 -0.3
23 0.15
3 -0.57
4 -0.62
5 0.03
6 0.19
7 -0.18
8 0.18
9 -0.15

>  <PUBCHEM_EFFECTIVE_ROTOR_COUNT>  (1) 
1.2

>  <PUBCHEM_PHARMACOPHORE_FEATURES>  (1) 
3
1 3 acceptor
5 2 4 6 10 11 rings
6 5 8 9 12 13 14 rings

>  <PUBCHEM_HEAVY_ATOM_COUNT>  (1) 
15

>  <PUBCHEM_ATOM_DEF_STEREO_COUNT>  (1) 
0

>  <PUBCHEM_ATOM_UDEF_STEREO_COUNT>  (1) 
0

>  <PUBCHEM_BOND_DEF_STEREO_COUNT>  (1) 
0

>  <PUBCHEM_BOND_UDEF_STEREO_COUNT>  (1) 
1

>  <PUBCHEM_ISOTOPIC_ATOM_COUNT>  (1) 
0

>  <PUBCHEM_COMPONENT_COUNT>  (1) 
1

>  <PUBCHEM_CACTVS_TAUTO_COUNT>  (1) 
1

>  <PUBCHEM_CONFORMER_ID>  (1) 
00008DC900000001

>  <PUBCHEM_MMFF94_ENERGY>  (1) 
36.7693

>  <PUBCHEM_FEATURE_SELFOVERLAP>  (1) 
15.223

>  <PUBCHEM_SHAPE_FINGERPRINT>  (1) 
10219947 1 18273213097490300598
10465860 250 18114452380341606584
11471102 22 18342455928960635478
12236239 1 16988841683374183182
12251169 10 18201999949424850558
12507560 14 18342453699519570758
13134695 92 18341324539917257804
13538477 17 16630516379836379806
13581323 91 16660358186297483462
14115302 16 16877951529023975118
15219456 202 18188211008666521068
15279308 132 17748826315036710970
15375462 478 17561083579207116536
15775835 57 17060337465593504688
16752209 62 15719654516701229781
16945 1 18343303695059014180
1813 80 17559414465639333398
18186145 218 18040711463976725333
18522853 295 16950568770048200347
19049666 15 18116142277614870972
200 152 18060414716493687023
20201158 50 18334014973646251650
20233049 118 15502365725420690967
20279233 1 18187086152304953498
20559304 39 16343708707591401902
20645477 70 18342454807431313983
23048698 100 17632859724249017162
23175994 123 18336833004942367780
23402539 116 18342166757640005037
23559900 14 17530966878529494494
3286 77 18408321098964299797
474 4 17345174804965649912
537710 114 15841833356633497155
57426455 114 17894628171055545787
57812782 119 18334575745956197879
69090 78 18335978744526916223
7364860 26 17169568495468033748
77492 1 17060616707118467804
81228 2 18049454638638729592

>  <PUBCHEM_SHAPE_MULTIPOLES>  (1) 
293.84
7.05
1.58
1.13
4.77
0.94
-0.14
-0.98
-0.49
-1.64
-0.02
0.32
-0.15
0.39

>  <PUBCHEM_SHAPE_SELFOVERLAP>  (1) 
628.743

>  <PUBCHEM_SHAPE_VOLUME>  (1) 
164.2

>  <PUBCHEM_COORDINATE_TYPE>  (1) 
2
5
10

$$$$
