363
     RDKit          3D

  4  3  0  0  0  0  0  0  0  0999 V2000
   -1.3539    0.5578   -0.0008 O   0  0  0  0  0  0  0  0  0  0  0  0
    1.3705    0.6330    0.0006 N   0  0  0  0  0  0  0  0  0  0  0  0
    0.7404   -0.6769   -0.0011 C   0  0  0  0  0  0  0  0  0  0  0  0
   -0.7569   -0.5139    0.0013 C   0  0  0  0  0  0  0  0  0  0  0  0
  1  4  2  0
  2  3  1  0
  3  4  1  0
M  END
>  <PUBCHEM_COMPOUND_CID>  (1) 
363

>  <PUBCHEM_CONFORMER_RMSD>  (1) 
0.4

>  <PUBCHEM_CONFORMER_DIVERSEORDER>  (1) 
1
2
3

>  <PUBCHEM_MMFF94_PARTIAL_CHARGES>  (1) 
7
1 -0.57
2 -0.99
3 0.33
4 0.45
7 0.36
8 0.36
9 0.06

>  <PUBCHEM_EFFECTIVE_ROTOR_COUNT>  (1) 
1

>  <PUBCHEM_PHARMACOPHORE_FEATURES>  (1) 
3
1 1 acceptor
1 2 cation
1 2 donor

>  <PUBCHEM_HEAVY_ATOM_COUNT>  (1) 
4

>  <PUBCHEM_ATOM_DEF_STEREO_COUNT>  (1) 
0

>  <PUBCHEM_ATOM_UDEF_STEREO_COUNT>  (1) 
0

>  <PUBCHEM_BOND_DEF_STEREO_COUNT>  (1) 
0

>  <PUBCHEM_BOND_UDEF_STEREO_COUNT>  (1) 
0

>  <PUBCHEM_ISOTOPIC_ATOM_COUNT>  (1) 
0

>  <PUBCHEM_COMPONENT_COUNT>  (1) 
1

>  <PUBCHEM_CACTVS_TAUTO_COUNT>  (1) 
3

>  <PUBCHEM_CONFORMER_ID>  (1) 
0000016B00000001

>  <PUBCHEM_MMFF94_ENERGY>  (1) 
-0.0296

>  <PUBCHEM_FEATURE_SELFOVERLAP>  (1) 
15.223

>  <PUBCHEM_SHAPE_FINGERPRINT>  (1) 
139733 1 9221783788214277442
20096714 4 18411420596256970488
21015797 1 9150909285693476455
5943 1 15682270360631091498

>  <PUBCHEM_SHAPE_MULTIPOLES>  (1) 
71.47
1.68
0.92
0.57
0.01
0.04
0
-0.35
0
0.07
0
0
0.03
0

>  <PUBCHEM_SHAPE_SELFOVERLAP>  (1) 
119.483

>  <PUBCHEM_SHAPE_VOLUME>  (1) 
48.5

>  <PUBCHEM_COORDINATE_TYPE>  (1) 
2
5
10

$$$$
