36304
     RDKit          3D

 16 17  0  0  0  0  0  0  0  0999 V2000
   -0.5361    2.3861   -0.0002 Cl  0  0  0  0  0  0  0  0  0  0  0  0
   -3.6816    2.0387    0.0010 Cl  0  0  0  0  0  0  0  0  0  0  0  0
   -4.9078   -0.9065   -0.0019 Cl  0  0  0  0  0  0  0  0  0  0  0  0
    5.5211    0.0932   -0.0005 Cl  0  0  0  0  0  0  0  0  0  0  0  0
   -0.4219   -0.3233    0.0003 C   0  0  0  0  0  0  0  0  0  0  0  0
    1.0214   -0.2211    0.0002 C   0  0  0  0  0  0  0  0  0  0  0  0
   -1.2539    0.7995    0.0007 C   0  0  0  0  0  0  0  0  0  0  0  0
   -0.9858   -1.6016    0.0001 C   0  0  0  0  0  0  0  0  0  0  0  0
    1.7168   -0.1715   -1.2079 C   0  0  0  0  0  0  0  0  0  0  0  0
    1.7174   -0.1731    1.2081 C   0  0  0  0  0  0  0  0  0  0  0  0
   -2.6401    0.6448    0.0005 C   0  0  0  0  0  0  0  0  0  0  0  0
   -2.3720   -1.7564   -0.0001 C   0  0  0  0  0  0  0  0  0  0  0  0
   -3.1991   -0.6332    0.0001 C   0  0  0  0  0  0  0  0  0  0  0  0
    3.1083   -0.0740   -1.2081 C   0  0  0  0  0  0  0  0  0  0  0  0
    3.1089   -0.0755    1.2078 C   0  0  0  0  0  0  0  0  0  0  0  0
    3.8043   -0.0260   -0.0003 C   0  0  0  0  0  0  0  0  0  0  0  0
  1  7  1  0
  2 11  1  0
  3 13  1  0
  4 16  1  0
  5  6  1  0
  5  7  2  0
  5  8  1  0
  6  9  2  0
  6 10  1  0
  7 11  1  0
  8 12  2  0
  9 14  1  0
 10 15  2  0
 11 13  2  0
 12 13  1  0
 14 16  2  0
 15 16  1  0
M  END
>  <PUBCHEM_COMPOUND_CID>  (1) 
36304

>  <PUBCHEM_CONFORMER_RMSD>  (1) 
0.6

>  <PUBCHEM_CONFORMER_DIVERSEORDER>  (1) 
1

>  <PUBCHEM_MMFF94_PARTIAL_CHARGES>  (1) 
20
1 -0.18
10 -0.15
11 0.18
12 -0.15
13 0.18
14 -0.15
15 -0.15
16 0.18
17 0.15
18 0.15
19 0.15
2 -0.18
20 0.15
21 0.15
22 0.15
3 -0.18
4 -0.18
7 0.18
8 -0.15
9 -0.15

>  <PUBCHEM_EFFECTIVE_ROTOR_COUNT>  (1) 
1

>  <PUBCHEM_PHARMACOPHORE_FEATURES>  (1) 
2
6 5 7 8 11 12 13 rings
6 6 9 10 14 15 16 rings

>  <PUBCHEM_HEAVY_ATOM_COUNT>  (1) 
16

>  <PUBCHEM_ATOM_DEF_STEREO_COUNT>  (1) 
0

>  <PUBCHEM_ATOM_UDEF_STEREO_COUNT>  (1) 
0

>  <PUBCHEM_BOND_DEF_STEREO_COUNT>  (1) 
0

>  <PUBCHEM_BOND_UDEF_STEREO_COUNT>  (1) 
0

>  <PUBCHEM_ISOTOPIC_ATOM_COUNT>  (1) 
0

>  <PUBCHEM_COMPONENT_COUNT>  (1) 
1

>  <PUBCHEM_CACTVS_TAUTO_COUNT>  (1) 
1

>  <PUBCHEM_CONFORMER_ID>  (1) 
00008DD000000001

>  <PUBCHEM_MMFF94_ENERGY>  (1) 
46.8904

>  <PUBCHEM_FEATURE_SELFOVERLAP>  (1) 
10.149

>  <PUBCHEM_SHAPE_FINGERPRINT>  (1) 
10498660 4 18338517439170446293
11132069 177 18411704244777458709
12236239 1 17748543749238540050
12500047 106 18342734105054654046
13140716 1 18122630711206911259
13214271 11 18273210889566179573
13288520 33 18410857663705068446
13581323 91 18408317783228558530
13862211 1 18338515348291675199
14115302 16 17677054654025153898
14386348 63 17847066596704863966
15042514 8 18265900344597446563
15219456 202 17846781775911609086
15375358 24 17988922253983560828
16752209 62 18335975420264206227
16945 1 18410575119687715367
17804303 29 18342174509797511305
18175812 5 17704069642077028686
18186145 218 17632581513399985371
19141452 34 17632297930153898167
19422 9 17894348865011088819
200 152 16226042310197074735
20279233 1 17775009002719774590
20344682 1 17846501443475242740
20510252 161 18343586205254751113
20645477 56 18412829053783661625
20871999 31 18410291406795647373
21029758 27 18187931720234339477
21267235 1 18335147513266637242
2297311 6 18342186561507327420
23175994 123 16988851591911227696
23402539 116 18413383228844376620
23557571 272 18272093794511033556
23559900 14 18272092631039133310
26918003 58 14779265314912989764
2748010 2 18340475785802496689
3268164 11 18342728620808406085
34797466 226 18058745718479044580
43471831 8 18262514793375820163
474 4 17024603402479603364
5104073 3 18338797814819899450
69090 78 17489583493837104039
7364860 26 17983577686885813897
77492 1 17676205775382494178
81228 2 18340785744622422073

>  <PUBCHEM_SHAPE_MULTIPOLES>  (1) 
336.75
9.24
1.79
0.98
4.09
0.8
0
-0.45
0
-2.27
0
0.86
-0.04
0

>  <PUBCHEM_SHAPE_SELFOVERLAP>  (1) 
694.375

>  <PUBCHEM_SHAPE_VOLUME>  (1) 
185.4

>  <PUBCHEM_COORDINATE_TYPE>  (1) 
2
5
10

$$$$
