36306
     RDKit          3D

  6  5  0  0  1  0  0  0  0  0999 V2000
    2.7253    0.3732    0.1917 Br  0  0  0  0  0  0  0  0  0  0  0  0
    0.1419   -1.7578    0.3174 Cl  0  0  0  0  0  0  0  0  0  0  0  0
   -2.2786    0.5468    0.7652 Cl  0  0  0  0  0  0  0  0  0  0  0  0
    0.0202   -0.2146   -0.5924 C   0  0  0  0  0  0  0  0  0  0  0  0
    0.8418    0.8765    0.0867 C   0  0  0  0  0  0  0  0  0  0  0  0
   -1.4508    0.1759   -0.7686 C   0  0  0  0  0  0  0  0  0  0  0  0
  1  5  1  0
  2  4  1  0
  3  6  1  0
  4  5  1  0
  4  6  1  0
M  END
>  <PUBCHEM_COMPOUND_CID>  (1) 
36306

>  <PUBCHEM_CONFORMER_RMSD>  (1) 
0.4

>  <PUBCHEM_CONFORMER_DIVERSEORDER>  (1) 
1
10
6
5
11
18
13
12
15
4
9
17
3
16
14
8
7
2

>  <PUBCHEM_MMFF94_PARTIAL_CHARGES>  (1) 
6
1 -0.23
2 -0.29
3 -0.29
4 0.29
5 0.23
6 0.29

>  <PUBCHEM_EFFECTIVE_ROTOR_COUNT>  (1) 
2

>  <PUBCHEM_PHARMACOPHORE_FEATURES>  (1) 
1
1 1 hydrophobe

>  <PUBCHEM_HEAVY_ATOM_COUNT>  (1) 
6

>  <PUBCHEM_ATOM_DEF_STEREO_COUNT>  (1) 
0

>  <PUBCHEM_ATOM_UDEF_STEREO_COUNT>  (1) 
1

>  <PUBCHEM_BOND_DEF_STEREO_COUNT>  (1) 
0

>  <PUBCHEM_BOND_UDEF_STEREO_COUNT>  (1) 
0

>  <PUBCHEM_ISOTOPIC_ATOM_COUNT>  (1) 
0

>  <PUBCHEM_COMPONENT_COUNT>  (1) 
1

>  <PUBCHEM_CACTVS_TAUTO_COUNT>  (1) 
1

>  <PUBCHEM_CONFORMER_ID>  (1) 
00008DD200000001

>  <PUBCHEM_MMFF94_ENERGY>  (1) 
5.6954

>  <PUBCHEM_FEATURE_SELFOVERLAP>  (1) 
5.074

>  <PUBCHEM_SHAPE_FINGERPRINT>  (1) 
14390081 3 16845851295498577808
16714656 1 18113893892532177684
20096714 4 17988926669257524245
20653085 51 16701755933049756632
21040471 1 18409728491043474934
24536 1 17981309398903285928
29004967 10 17749391425379845824
5084963 1 18269823358549401509
5460574 1 8070035488378899988
5943 1 16666570637574526551

>  <PUBCHEM_SHAPE_MULTIPOLES>  (1) 
133.16
3.44
1.38
0.92
1.07
0.77
0.01
-1.17
-0.65
0.07
-0.21
-0.31
-0.04
-0.1

>  <PUBCHEM_SHAPE_SELFOVERLAP>  (1) 
204.898

>  <PUBCHEM_SHAPE_VOLUME>  (1) 
97.5

>  <PUBCHEM_COORDINATE_TYPE>  (1) 
2
5
10

$$$$
