36317
     RDKit          3D

 15 16  0  0  0  0  0  0  0  0999 V2000
   -0.5505   -2.4263    0.0397 O   0  0  0  0  0  0  0  0  0  0  0  0
    4.6430    1.1314    0.0909 O   0  0  0  0  0  0  0  0  0  0  0  0
   -1.5224    0.8289   -0.6473 N   0  0  0  0  0  0  0  0  0  0  0  0
    0.8654   -0.5874    0.0334 C   0  0  0  0  0  0  0  0  0  0  0  0
   -0.4583   -1.1895    0.0125 C   0  0  0  0  0  0  0  0  0  0  0  0
   -1.6738   -0.3501   -0.0260 C   0  0  0  0  0  0  0  0  0  0  0  0
    1.0542    0.6618    0.6243 C   0  0  0  0  0  0  0  0  0  0  0  0
    1.9461   -1.2594   -0.5379 C   0  0  0  0  0  0  0  0  0  0  0  0
    2.3237    1.2392    0.6439 C   0  0  0  0  0  0  0  0  0  0  0  0
    3.2158   -0.6821   -0.5182 C   0  0  0  0  0  0  0  0  0  0  0  0
    3.4046    0.5674    0.0727 C   0  0  0  0  0  0  0  0  0  0  0  0
   -2.8297   -0.8124    0.5535 C   0  0  0  0  0  0  0  0  0  0  0  0
   -3.9436    0.0175    0.4898 C   0  0  0  0  0  0  0  0  0  0  0  0
   -3.8482    1.2526   -0.1419 C   0  0  0  0  0  0  0  0  0  0  0  0
   -2.6262    1.6084   -0.6894 C   0  0  0  0  0  0  0  0  0  0  0  0
  1  5  2  0
  2 11  1  0
  3  6  2  0
  3 15  1  0
  4  5  1  0
  4  7  2  0
  4  8  1  0
  5  6  1  0
  6 12  1  0
  7  9  1  0
  8 10  2  0
  9 11  2  0
 10 11  1  0
 12 13  2  0
 13 14  1  0
 14 15  2  0
M  END
>  <PUBCHEM_COMPOUND_CID>  (1) 
36317

>  <PUBCHEM_CONFORMER_RMSD>  (1) 
0.6

>  <PUBCHEM_CONFORMER_DIVERSEORDER>  (1) 
2
4
3
5
1

>  <PUBCHEM_MMFF94_PARTIAL_CHARGES>  (1) 
24
1 -0.57
10 -0.15
11 0.08
12 -0.15
13 -0.15
14 -0.15
15 0.16
16 0.15
17 0.15
18 0.15
19 0.15
2 -0.53
20 0.15
21 0.15
22 0.15
23 0.15
24 0.45
3 -0.62
4 0.09
5 0.4
6 0.4
7 -0.15
8 -0.15
9 -0.15

>  <PUBCHEM_EFFECTIVE_ROTOR_COUNT>  (1) 
2

>  <PUBCHEM_PHARMACOPHORE_FEATURES>  (1) 
5
1 1 acceptor
1 2 donor
1 3 acceptor
6 3 6 12 13 14 15 rings
6 4 7 8 9 10 11 rings

>  <PUBCHEM_HEAVY_ATOM_COUNT>  (1) 
15

>  <PUBCHEM_ATOM_DEF_STEREO_COUNT>  (1) 
0

>  <PUBCHEM_ATOM_UDEF_STEREO_COUNT>  (1) 
0

>  <PUBCHEM_BOND_DEF_STEREO_COUNT>  (1) 
0

>  <PUBCHEM_BOND_UDEF_STEREO_COUNT>  (1) 
0

>  <PUBCHEM_ISOTOPIC_ATOM_COUNT>  (1) 
0

>  <PUBCHEM_COMPONENT_COUNT>  (1) 
1

>  <PUBCHEM_CACTVS_TAUTO_COUNT>  (1) 
4

>  <PUBCHEM_CONFORMER_ID>  (1) 
00008DDD00000002

>  <PUBCHEM_MMFF94_ENERGY>  (1) 
46.6338

>  <PUBCHEM_FEATURE_SELFOVERLAP>  (1) 
25.371

>  <PUBCHEM_SHAPE_FINGERPRINT>  (1) 
10498660 4 18187641358664722037
10608611 8 18411417319181222816
11031198 65 18131354107042565086
11132069 177 18040720247105763405
11471102 20 18202002105751607964
11543360 7 14476672057296574704
12346645 44 18409167671504654243
12654215 9 18343017745026872860
13214271 11 18334575763494672375
13764800 53 18187369800877910017
14325111 11 18410292493005427299
15196674 1 18411138017436637537
15219456 202 18411984641411202094
15309172 13 18411423903724744907
15775835 57 18410293601233713699
16945 1 18336537334724288258
17844478 74 18335148604483456833
18186145 218 18201165359980466566
200 152 17704065210066372733
20233049 118 18411135840437254040
20281475 54 9079116691185119550
20510252 161 18411421691869471529
20645477 56 18410291458377485256
20645477 70 17845941732122718342
21249577 43 18410293596981126261
21501502 16 18341885355182288222
21524375 3 18411978065964348163
23402539 116 18412252956792753812
23402655 69 17988923344889605117
23559900 14 18272091570409148750
25 1 18272932695917894602
2748010 2 18409448051111684685
276578 36 17530683178132061874
5104073 3 18409168787816402355
53812653 166 18410854343463071186
633830 44 18200877253785228405
69090 78 18343580767678649503
7364860 26 18120651331909249267
81228 2 17834943540500869339

>  <PUBCHEM_SHAPE_MULTIPOLES>  (1) 
291.97
7.55
1.77
0.79
0.9
0.4
0
-2.91
-0.11
-0.13
0.08
-0.08
-0.08
0.77

>  <PUBCHEM_SHAPE_SELFOVERLAP>  (1) 
638.267

>  <PUBCHEM_SHAPE_VOLUME>  (1) 
157.4

>  <PUBCHEM_COORDINATE_TYPE>  (1) 
2
5
10

$$$$
