36318
     RDKit          3D

 19 21  0  0  0  0  0  0  0  0999 V2000
    2.0008   -2.9133    0.0918 O   0  0  0  0  0  0  0  0  0  0  0  0
   -1.8688   -0.4216   -0.3175 N   0  0  0  0  0  0  0  0  0  0  0  0
   -4.5563    0.3995    0.1363 N   0  0  0  0  0  0  0  0  0  0  0  0
    0.1813    0.5761   -0.4538 N   0  0  0  0  0  0  0  0  0  0  0  0
    0.0417   -1.7491   -0.1069 N   0  0  0  0  0  0  0  0  0  0  0  0
   -2.7751   -1.2878    0.4314 C   0  0  0  0  0  0  0  0  0  0  0  0
   -2.5133    0.4989   -1.2500 C   0  0  0  0  0  0  0  0  0  0  0  0
   -3.8592   -0.4506    1.1125 C   0  0  0  0  0  0  0  0  0  0  0  0
   -3.6028    1.2971   -0.5322 C   0  0  0  0  0  0  0  0  0  0  0  0
    1.5557    0.5778   -0.4503 C   0  0  0  0  0  0  0  0  0  0  0  0
    2.2401    1.9078   -0.6414 C   0  0  0  0  0  0  0  0  0  0  0  0
    3.0923    2.3320    0.5560 C   0  0  0  0  0  0  0  0  0  0  0  0
    4.4439    1.6241    0.6393 C   0  0  0  0  0  0  0  0  0  0  0  0
    4.3726    0.1184    0.8901 C   0  0  0  0  0  0  0  0  0  0  0  0
    2.2313   -0.5754   -0.2757 C   0  0  0  0  0  0  0  0  0  0  0  0
    3.7336   -0.6732   -0.2524 C   0  0  0  0  0  0  0  0  0  0  0  0
   -0.5268   -0.5867   -0.2840 C   0  0  0  0  0  0  0  0  0  0  0  0
    1.4241   -1.8427   -0.0821 C   0  0  0  0  0  0  0  0  0  0  0  0
   -5.6151    1.1687    0.7887 C   0  0  0  0  0  0  0  0  0  0  0  0
  1 18  2  0
  2  6  1  0
  2  7  1  0
  2 17  1  0
  3  8  1  0
  3  9  1  0
  3 19  1  0
  4 10  1  0
  4 17  1  0
  5 17  2  0
  5 18  1  0
  6  8  1  0
  7  9  1  0
 10 11  1  0
 10 15  2  0
 11 12  1  0
 12 13  1  0
 13 14  1  0
 14 16  1  0
 15 16  1  0
 15 18  1  0
M  END
>  <PUBCHEM_COMPOUND_CID>  (1) 
36318

>  <PUBCHEM_CONFORMER_RMSD>  (1) 
0.6

>  <PUBCHEM_CONFORMER_DIVERSEORDER>  (1) 
3
18
19
16
20
21
7
13
11
6
2
14
12
15
9
10
8
1
4
5
17

>  <PUBCHEM_MMFF94_PARTIAL_CHARGES>  (1) 
17
1 -0.57
10 -0.04
11 0.14
15 -0.12
16 0.14
17 0.55
18 0.77
19 0.27
2 -0.79
3 -0.81
38 0.4
4 -0.55
5 -0.66
6 0.37
7 0.37
8 0.27
9 0.27

>  <PUBCHEM_EFFECTIVE_ROTOR_COUNT>  (1) 
3.2

>  <PUBCHEM_PHARMACOPHORE_FEATURES>  (1) 
7
1 1 acceptor
1 3 cation
1 4 donor
1 5 donor
6 2 3 6 7 8 9 rings
6 4 5 10 15 17 18 rings
7 10 11 12 13 14 15 16 rings

>  <PUBCHEM_HEAVY_ATOM_COUNT>  (1) 
19

>  <PUBCHEM_ATOM_DEF_STEREO_COUNT>  (1) 
0

>  <PUBCHEM_ATOM_UDEF_STEREO_COUNT>  (1) 
0

>  <PUBCHEM_BOND_DEF_STEREO_COUNT>  (1) 
0

>  <PUBCHEM_BOND_UDEF_STEREO_COUNT>  (1) 
0

>  <PUBCHEM_ISOTOPIC_ATOM_COUNT>  (1) 
0

>  <PUBCHEM_COMPONENT_COUNT>  (1) 
1

>  <PUBCHEM_CACTVS_TAUTO_COUNT>  (1) 
3

>  <PUBCHEM_CONFORMER_ID>  (1) 
00008DDE00000003

>  <PUBCHEM_MMFF94_ENERGY>  (1) 
45.9166

>  <PUBCHEM_FEATURE_SELFOVERLAP>  (1) 
35.567

>  <PUBCHEM_SHAPE_FINGERPRINT>  (1) 
10411042 1 17836086663474904518
10498660 4 14620526566827788851
10608611 8 18334011658063296709
11089746 13 17846492625775755249
11132069 177 18040997375612435285
12236239 1 17632856404640068263
12390115 104 18124608732261464964
12403259 415 18260544507119341092
12633257 1 17313104197887139953
13140716 1 18336542836914920226
13675066 3 18408044026081134479
13922767 16 18412260653616812564
14178342 30 18114750463746308971
14790565 3 18046635770151409188
15219456 202 18333731303893663119
18186145 218 18272939357702249796
193927 3 11891324318631068017
19784866 170 18333733528539198316
19784866 34 18201715206067906296
19784866 9 18413670214285337528
20157964 124 18341048520092000765
20645477 56 18259703372503000469
20645477 70 18201436939347447998
21065199 12 18334018272465757323
21452121 103 18336826399161282305
21503847 285 18202008702911110432
21524375 3 18198339765663803798
21637258 2 14924207310859831496
22182313 1 17823125736258956997
22854114 111 18411139147113373765
22854114 59 18409168835314158297
23184049 59 18334851749382047796
23557571 272 13469821763741348781
23559900 14 17677339290224706871
2838139 119 15481532283036935928
335352 9 18411699864243139582
3545911 37 18408609136814516903
474 4 18342174505133467208
49207404 50 18189064238121348067
5104073 3 18335700580521267315
58807428 26 18263910172747518562
602551 16 16443357506335170105
633830 44 18272932769206762748
7364860 26 18341612569035057318
7808743 9 17832427866919215932
8272917 22 18272092651770255670
960060 61 10664102267899910464

>  <PUBCHEM_SHAPE_MULTIPOLES>  (1) 
365.22
10.27
2.31
0.96
7.36
0.49
0.03
-4.54
3.14
-1.83
0.13
0.34
-0.19
0.44

>  <PUBCHEM_SHAPE_SELFOVERLAP>  (1) 
763.23

>  <PUBCHEM_SHAPE_VOLUME>  (1) 
204.4

>  <PUBCHEM_COORDINATE_TYPE>  (1) 
2
5
10

$$$$
