36316
     RDKit          3D

 17 18  0  0  0  0  0  0  0  0999 V2000
    4.1095    0.1467    0.3813 O   0  0  0  0  0  0  0  0  0  0  0  0
   -1.6125   -2.4461   -0.3267 O   0  0  0  0  0  0  0  0  0  0  0  0
   -4.4200    1.6037    0.0565 N   0  0  0  0  0  0  0  0  0  0  0  0
    0.1114   -0.8974   -0.0093 C   0  0  0  0  0  0  0  0  0  0  0  0
    2.7986   -0.1953    0.2520 C   0  0  0  0  0  0  0  0  0  0  0  0
   -1.2900   -1.2628   -0.1447 C   0  0  0  0  0  0  0  0  0  0  0  0
    0.4672    0.4357    0.1949 C   0  0  0  0  0  0  0  0  0  0  0  0
    1.0991   -1.8796   -0.0828 C   0  0  0  0  0  0  0  0  0  0  0  0
   -2.3906   -0.2550   -0.0739 C   0  0  0  0  0  0  0  0  0  0  0  0
    1.8109    0.7868    0.3254 C   0  0  0  0  0  0  0  0  0  0  0  0
    2.4428   -1.5284    0.0480 C   0  0  0  0  0  0  0  0  0  0  0  0
    4.4868    1.4508   -0.0579 C   0  0  0  0  0  0  0  0  0  0  0  0
   -2.8027    0.3515   -1.2321 C   0  0  0  0  0  0  0  0  0  0  0  0
   -2.9476    0.0262    1.1466 C   0  0  0  0  0  0  0  0  0  0  0  0
    5.9272    1.4172   -0.5226 C   0  0  0  0  0  0  0  0  0  0  0  0
   -3.8259    1.2783   -1.1134 C   0  0  0  0  0  0  0  0  0  0  0  0
   -3.9641    0.9676    1.1589 C   0  0  0  0  0  0  0  0  0  0  0  0
  1  5  1  0
  1 12  1  0
  2  6  2  0
  3 16  2  0
  3 17  1  0
  4  6  1  0
  4  7  2  0
  4  8  1  0
  5 10  2  0
  5 11  1  0
  6  9  1  0
  7 10  1  0
  8 11  2  0
  9 13  2  0
  9 14  1  0
 12 15  1  0
 13 16  1  0
 14 17  2  0
M  END
>  <PUBCHEM_COMPOUND_CID>  (1) 
36316

>  <PUBCHEM_CONFORMER_RMSD>  (1) 
0.6

>  <PUBCHEM_CONFORMER_DIVERSEORDER>  (1) 
1
3
17
12
18
13
14
7
2
4
8
9
6
15
19
5
10
16
11

>  <PUBCHEM_MMFF94_PARTIAL_CHARGES>  (1) 
24
1 -0.36
10 -0.15
11 -0.15
12 0.28
13 -0.15
14 -0.15
16 0.16
17 0.16
18 0.15
19 0.15
2 -0.57
20 0.15
21 0.15
24 0.15
25 0.15
29 0.15
3 -0.62
30 0.15
4 0.09
5 0.08
6 0.4
7 -0.15
8 -0.15
9 0.09

>  <PUBCHEM_EFFECTIVE_ROTOR_COUNT>  (1) 
4

>  <PUBCHEM_PHARMACOPHORE_FEATURES>  (1) 
5
1 1 acceptor
1 2 acceptor
1 3 acceptor
6 3 9 13 14 16 17 rings
6 4 5 7 8 10 11 rings

>  <PUBCHEM_HEAVY_ATOM_COUNT>  (1) 
17

>  <PUBCHEM_ATOM_DEF_STEREO_COUNT>  (1) 
0

>  <PUBCHEM_ATOM_UDEF_STEREO_COUNT>  (1) 
0

>  <PUBCHEM_BOND_DEF_STEREO_COUNT>  (1) 
0

>  <PUBCHEM_BOND_UDEF_STEREO_COUNT>  (1) 
0

>  <PUBCHEM_ISOTOPIC_ATOM_COUNT>  (1) 
0

>  <PUBCHEM_COMPONENT_COUNT>  (1) 
1

>  <PUBCHEM_CACTVS_TAUTO_COUNT>  (1) 
1

>  <PUBCHEM_CONFORMER_ID>  (1) 
00008DDC00000001

>  <PUBCHEM_MMFF94_ENERGY>  (1) 
60.1653

>  <PUBCHEM_FEATURE_SELFOVERLAP>  (1) 
25.373

>  <PUBCHEM_SHAPE_FINGERPRINT>  (1) 
10014705 185 18335697264780055909
11089746 13 17560791139933156688
11543360 7 15123500458624266240
11796584 16 13038909906457009828
12390115 104 18339656623590061146
12507560 40 17968098581980191755
12892183 10 16805603620950622585
13214271 11 17748826340911886095
13583140 156 16515953843769720501
13675066 3 17313101921696904146
14123255 352 18334292084883520068
14123260 362 18060142041694066761
14251764 75 17413046300476216273
14252887 29 12324230651765099728
14848178 96 18200584929996162392
15196674 1 18411418401666001178
15239154 128 18334575784954061332
15342168 16 18340773646073959037
1601671 61 18335702763129920812
17834072 32 18336827584583182236
17870717 6 13758357773755089613
18186145 218 18271527477240065703
18927931 339 8502387645502729424
19784866 170 18040718056603818588
19784866 34 18410855456176228802
200 152 8502652593381630513
20112054 13 18113901550221417965
20281389 69 18261671558578656456
20325693 3 15554448496608001365
204376 136 18410292497490578043
20612939 158 18270401586149881134
20645477 56 18335420183618231533
20645477 70 18270398270071521574
231179 274 18334294249641683836
23402539 116 9439412319443859824
23402655 69 18060416885051374621
23403322 49 10519985963253987021
23557571 272 18129951203104195302
23559900 14 18131355246116363536
25 1 18342172245859304626
27216 239 18186522107604240305
293599 30 18411704309560566784
296302 2 18408885122437933824
350125 39 18267307723521947651
474 4 18271805662461504323
4921388 177 15123505947808748629
5104073 3 18334569188058141450
633830 44 17986680268481441919
76465 3 8862938368558327092

>  <PUBCHEM_SHAPE_MULTIPOLES>  (1) 
333.13
10.29
1.97
0.98
8.22
0.71
0.02
-7.43
0.44
0.21
0.23
-0.99
-0.22
-0.18

>  <PUBCHEM_SHAPE_SELFOVERLAP>  (1) 
714.284

>  <PUBCHEM_SHAPE_VOLUME>  (1) 
182.8

>  <PUBCHEM_COORDINATE_TYPE>  (1) 
2
5
10

$$$$
