36315
     RDKit          3D

 25 26  0  0  1  0  0  0  0  0999 V2000
   -3.8462   -0.7361    1.9473 O   0  0  0  0  0  0  0  0  0  0  0  0
   -0.6987    1.2452    0.9669 O   0  0  0  0  0  0  0  0  0  0  0  0
   -3.9721   -1.6692   -0.2003 O   0  0  0  0  0  0  0  0  0  0  0  0
    0.3547   -2.8359   -1.0722 O   0  0  0  0  0  0  0  0  0  0  0  0
   -0.0136   -0.6840   -0.1781 N   0  0  0  0  0  0  0  0  0  0  0  0
   -1.7704   -2.2416   -0.5201 N   0  0  0  0  0  0  0  0  0  0  0  0
    5.4701    0.4984    0.3729 N   0  0  0  0  0  0  0  0  0  0  0  0
   -2.3413    0.1153   -0.3863 C   0  0  0  0  0  0  0  0  0  0  0  0
   -3.3572    1.0007    0.3536 C   0  0  0  0  0  0  0  0  0  0  0  0
   -2.2930    0.5453   -1.8633 C   0  0  0  0  0  0  0  0  0  0  0  0
   -0.9459    0.3047    0.2093 C   0  0  0  0  0  0  0  0  0  0  0  0
   -3.4607    0.6305    1.8292 C   0  0  0  0  0  0  0  0  0  0  0  0
   -2.7970   -1.3315   -0.3274 C   0  0  0  0  0  0  0  0  0  0  0  0
   -0.4013   -1.9771   -0.6103 C   0  0  0  0  0  0  0  0  0  0  0  0
   -4.4986    1.4966    2.5305 C   0  0  0  0  0  0  0  0  0  0  0  0
   -1.7801    1.9412   -1.9927 C   0  0  0  0  0  0  0  0  0  0  0  0
    1.3943   -0.3803   -0.0353 C   0  0  0  0  0  0  0  0  0  0  0  0
    1.8277    0.9350   -0.1483 C   0  0  0  0  0  0  0  0  0  0  0  0
    2.2968   -1.4077    0.2111 C   0  0  0  0  0  0  0  0  0  0  0  0
   -2.4721    2.9367   -2.5581 C   0  0  0  0  0  0  0  0  0  0  0  0
    4.0980    0.2023    0.2350 C   0  0  0  0  0  0  0  0  0  0  0  0
    3.1849    1.2274   -0.0126 C   0  0  0  0  0  0  0  0  0  0  0  0
    3.6539   -1.1151    0.3469 C   0  0  0  0  0  0  0  0  0  0  0  0
    5.8951    1.7803    0.8988 C   0  0  0  0  0  0  0  0  0  0  0  0
    6.4728   -0.4810    0.0036 C   0  0  0  0  0  0  0  0  0  0  0  0
  1 12  1  0
  2 11  2  0
  3 13  2  0
  4 14  2  0
  5 11  1  0
  5 14  1  0
  5 17  1  0
  6 13  1  0
  6 14  1  0
  7 21  1  0
  7 24  1  0
  7 25  1  0
  8  9  1  0
  8 10  1  0
  8 11  1  0
  8 13  1  0
  9 12  1  0
 10 16  1  0
 12 15  1  0
 16 20  2  0
 17 18  2  0
 17 19  1  0
 18 22  1  0
 19 23  2  0
 21 22  2  0
 21 23  1  0
M  END
>  <PUBCHEM_COMPOUND_CID>  (1) 
36315

>  <PUBCHEM_CONFORMER_RMSD>  (1) 
0.8

>  <PUBCHEM_CONFORMER_DIVERSEORDER>  (1) 
2
11
1
23
16
13
21
4
9
10
17
3
18
8
14
22
7
15
5
12
6
20
19

>  <PUBCHEM_MMFF94_PARTIAL_CHARGES>  (1) 
32
1 -0.68
10 0.14
11 0.57
12 0.28
13 0.57
14 0.69
16 -0.29
17 0.12
18 -0.15
19 -0.15
2 -0.57
20 -0.3
21 0.1
22 -0.15
23 -0.15
24 0.37
25 0.37
3 -0.57
31 0.37
35 0.15
36 0.4
37 0.15
38 0.15
39 0.15
4 -0.57
40 0.15
41 0.15
42 0.15
5 -0.24
6 -0.49
7 -0.84
8 0.12

>  <PUBCHEM_EFFECTIVE_ROTOR_COUNT>  (1) 
6.6

>  <PUBCHEM_PHARMACOPHORE_FEATURES>  (1) 
10
1 1 acceptor
1 1 donor
1 2 acceptor
1 20 hydrophobe
1 3 acceptor
1 4 acceptor
1 6 donor
1 7 cation
6 17 18 19 21 22 23 rings
6 5 6 8 11 13 14 rings

>  <PUBCHEM_HEAVY_ATOM_COUNT>  (1) 
25

>  <PUBCHEM_ATOM_DEF_STEREO_COUNT>  (1) 
0

>  <PUBCHEM_ATOM_UDEF_STEREO_COUNT>  (1) 
2

>  <PUBCHEM_BOND_DEF_STEREO_COUNT>  (1) 
0

>  <PUBCHEM_BOND_UDEF_STEREO_COUNT>  (1) 
0

>  <PUBCHEM_ISOTOPIC_ATOM_COUNT>  (1) 
0

>  <PUBCHEM_COMPONENT_COUNT>  (1) 
1

>  <PUBCHEM_CACTVS_TAUTO_COUNT>  (1) 
3

>  <PUBCHEM_CONFORMER_ID>  (1) 
00008DDB00000002

>  <PUBCHEM_MMFF94_ENERGY>  (1) 
108.7822

>  <PUBCHEM_FEATURE_SELFOVERLAP>  (1) 
50.787

>  <PUBCHEM_SHAPE_FINGERPRINT>  (1) 
10366900 7 17458337572113732768
10675989 125 16747589861555453372
10680689 15 18040711463876459484
12035758 1 17604447185059368633
12390115 104 17845671316401600826
12403259 415 18408598159326936500
12403814 3 18259703410941538621
12422481 6 18113913627680679677
12892183 10 17313100805142518474
13583140 156 17603860074996360064
14142880 1 18273496775927847157
14790565 3 18131078142757205160
15183329 4 18272371937373987390
15196674 1 18343581859022134362
15880784 105 13406794441485435540
16945 1 18198361588856526991
18186145 218 18342736282898277454
18927931 339 17095527287716163146
20645477 56 18410009931976951950
21033648 144 18200859786776162700
21033648 29 18335965507559282648
21267235 1 18340492269834309190
21756936 100 17489870418784025562
22182313 1 18189900807819923124
23402539 116 17203324503600561928
3380486 145 18261116253730286845
350125 39 18341046431793558253
376196 1 17030753761087290245
469060 322 18114743836516442379
4921388 177 13758064242504193892
497634 4 18201154450726566277
5104073 3 18341890823197772826
542803 24 17346601889591001184
59554788 62 18335431123601710439
59755656 520 17775289335013547415
633830 44 17632298926327438710
9981440 41 17897702307130738693

>  <PUBCHEM_SHAPE_MULTIPOLES>  (1) 
476.07
11.28
2.53
1.89
17.12
0.07
0.31
2.86
4.84
-1.3
-1.43
-3.39
1.23
0.86

>  <PUBCHEM_SHAPE_SELFOVERLAP>  (1) 
1007.002

>  <PUBCHEM_SHAPE_VOLUME>  (1) 
264.2

>  <PUBCHEM_COORDINATE_TYPE>  (1) 
2
5
10

$$$$
