3631
     RDKit          3D

 19 22  0  0  1  0  0  0  0  0999 V2000
    4.5624   -0.2514   -0.2699 O   0  0  0  0  0  0  0  0  0  0  0  0
   -1.2434    1.5554    1.4789 N   0  0  0  0  0  0  0  0  0  0  0  0
    2.3875   -0.4196   -1.0246 N   0  0  0  0  0  0  0  0  0  0  0  0
   -0.9429    0.3737    0.6376 C   0  0  0  0  0  0  0  0  0  0  0  0
   -1.7492    0.4582   -0.6948 C   0  0  0  0  0  0  0  0  0  0  0  0
   -1.3488   -0.7515   -1.5675 C   0  0  0  0  0  0  0  0  0  0  0  0
   -1.5797    1.8046   -1.4188 C   0  0  0  0  0  0  0  0  0  0  0  0
   -1.4648   -0.8895    1.4026 C   0  0  0  0  0  0  0  0  0  0  0  0
    0.5636    0.1794    0.3680 C   0  0  0  0  0  0  0  0  0  0  0  0
    0.1385   -0.6787   -1.9647 C   0  0  0  0  0  0  0  0  0  0  0  0
   -1.8769    2.9539   -0.4643 C   0  0  0  0  0  0  0  0  0  0  0  0
    1.0314   -0.2750   -0.8156 C   0  0  0  0  0  0  0  0  0  0  0  0
   -1.5964   -2.0435   -0.8149 C   0  0  0  0  0  0  0  0  0  0  0  0
   -1.0304    2.8337    0.7971 C   0  0  0  0  0  0  0  0  0  0  0  0
   -1.6562   -2.1141    0.5276 C   0  0  0  0  0  0  0  0  0  0  0  0
    1.5246    0.4677    1.4220 C   0  0  0  0  0  0  0  0  0  0  0  0
   -1.9177   -3.4050    1.2446 C   0  0  0  0  0  0  0  0  0  0  0  0
    2.8436    0.3345    1.2359 C   0  0  0  0  0  0  0  0  0  0  0  0
    3.3548   -0.1330   -0.0792 C   0  0  0  0  0  0  0  0  0  0  0  0
  1 19  2  0
  2  4  1  0
  2 14  1  0
  3 12  1  0
  3 19  1  0
  4  5  1  0
  4  8  1  0
  4  9  1  0
  5  6  1  0
  5  7  1  0
  6 10  1  0
  6 13  1  0
  7 11  1  0
  8 15  1  0
  9 12  2  0
  9 16  1  0
 10 12  1  0
 11 14  1  0
 13 15  2  0
 15 17  1  0
 16 18  2  0
 18 19  1  0
M  END
>  <PUBCHEM_COMPOUND_CID>  (1) 
3631

>  <PUBCHEM_CONFORMER_RMSD>  (1) 
0.6

>  <PUBCHEM_CONFORMER_DIVERSEORDER>  (1) 
1
2
3
4

>  <PUBCHEM_MMFF94_PARTIAL_CHARGES>  (1) 
21
1 -0.57
10 0.14
12 -0.03
13 -0.29
14 0.27
15 -0.28
16 -0.15
17 0.14
18 -0.14
19 0.62
2 -0.9
28 0.36
3 -0.54
31 0.15
34 0.15
35 0.37
39 0.15
4 0.41
6 0.14
8 0.14
9 -0.14

>  <PUBCHEM_EFFECTIVE_ROTOR_COUNT>  (1) 
1.2

>  <PUBCHEM_PHARMACOPHORE_FEATURES>  (1) 
8
1 1 acceptor
1 2 cation
1 2 donor
1 3 donor
6 2 4 5 7 11 14 rings
6 3 9 12 16 18 19 rings
6 4 5 6 8 13 15 rings
6 4 5 6 9 10 12 rings

>  <PUBCHEM_HEAVY_ATOM_COUNT>  (1) 
19

>  <PUBCHEM_ATOM_DEF_STEREO_COUNT>  (1) 
0

>  <PUBCHEM_ATOM_UDEF_STEREO_COUNT>  (1) 
3

>  <PUBCHEM_BOND_DEF_STEREO_COUNT>  (1) 
0

>  <PUBCHEM_BOND_UDEF_STEREO_COUNT>  (1) 
0

>  <PUBCHEM_ISOTOPIC_ATOM_COUNT>  (1) 
0

>  <PUBCHEM_COMPONENT_COUNT>  (1) 
1

>  <PUBCHEM_CACTVS_TAUTO_COUNT>  (1) 
2

>  <PUBCHEM_CONFORMER_ID>  (1) 
00000E2F00000001

>  <PUBCHEM_MMFF94_ENERGY>  (1) 
34.224

>  <PUBCHEM_FEATURE_SELFOVERLAP>  (1) 
42.088

>  <PUBCHEM_SHAPE_FINGERPRINT>  (1) 
10863032 1 18120927309385193749
10948715 1 18049157765797860237
12138202 97 18270955726829927228
12403814 3 17987799743138250168
12423570 1 11946833563065661661
13024252 1 18186798076016055215
13294875 104 17333633991301506976
13299463 15 16486390119356232356
13583140 156 18271224085735976970
13681431 1 17760077815213492653
141345 1 17974571299521725405
14617773 55 17169576157615550494
14817 1 13986930676128832255
16945 1 17969198157900666839
19765921 60 17768524989335254577
20600515 1 18191042259956331711
20645476 183 18263918843864528068
21524375 3 17910386187005770581
22112679 90 17826830149672754243
2306618 200 16917057867752858790
23419403 2 18053652861885538349
23493267 7 18268998596607135610
23557571 272 18265319780834879848
25 1 17414434983281605848
2748010 2 17487028275932010008
576247 118 18120934176911494427
5845 1 11253693474161936877
6442390 28 18051717459454463513
81228 2 18411984676045201721
84936 31 17042321112831639987
9981440 41 17773005632789520546

>  <PUBCHEM_SHAPE_MULTIPOLES>  (1) 
375.18
4.3
3.06
1.77
6.45
0.4
-0.19
-1
0.02
-3.57
0.8
-0.3
-0.16
0.69

>  <PUBCHEM_SHAPE_SELFOVERLAP>  (1) 
822.328

>  <PUBCHEM_SHAPE_VOLUME>  (1) 
200

>  <PUBCHEM_COORDINATE_TYPE>  (1) 
2
5
10

$$$$
