36326
     RDKit          3D

 12 12  0  0  0  0  0  0  0  0999 V2000
    1.4047   -0.9922   -0.4194 N   0  0  0  0  0  0  0  0  0  0  0  0
    2.9533    0.7463    0.2648 N   0  0  0  0  0  0  0  0  0  0  0  0
   -0.9781   -1.2140    0.0601 C   0  0  0  0  0  0  0  0  0  0  0  0
    0.1247   -0.4190   -0.2523 C   0  0  0  0  0  0  0  0  0  0  0  0
   -2.3890    0.7474    0.0696 C   0  0  0  0  0  0  0  0  0  0  0  0
   -2.2350   -0.6307    0.2210 C   0  0  0  0  0  0  0  0  0  0  0  0
   -0.0294    0.9591   -0.4037 C   0  0  0  0  0  0  0  0  0  0  0  0
   -1.2862    1.5423   -0.2427 C   0  0  0  0  0  0  0  0  0  0  0  0
   -0.8419   -2.6926    0.2269 C   0  0  0  0  0  0  0  0  0  0  0  0
   -3.7326    1.3712    0.2417 C   0  0  0  0  0  0  0  0  0  0  0  0
    2.6290   -0.4239   -0.1723 C   0  0  0  0  0  0  0  0  0  0  0  0
    4.3804    1.0063    0.4062 C   0  0  0  0  0  0  0  0  0  0  0  0
  1  4  1  0
  1 11  1  0
  2 11  2  0
  2 12  1  0
  3  4  2  0
  3  6  1  0
  3  9  1  0
  4  7  1  0
  5  6  2  0
  5  8  1  0
  5 10  1  0
  7  8  2  0
M  END
>  <PUBCHEM_COMPOUND_CID>  (1) 
36326

>  <PUBCHEM_CONFORMER_RMSD>  (1) 
0.6

>  <PUBCHEM_CONFORMER_DIVERSEORDER>  (1) 
1
4
2
3

>  <PUBCHEM_MMFF94_PARTIAL_CHARGES>  (1) 
17
1 -0.55
10 0.14
11 0.44
12 0.25
13 0.15
14 0.15
15 0.15
2 -0.7
22 0.4
23 0.06
3 -0.14
4 0.1
5 -0.14
6 -0.15
7 -0.15
8 -0.15
9 0.14

>  <PUBCHEM_EFFECTIVE_ROTOR_COUNT>  (1) 
2

>  <PUBCHEM_PHARMACOPHORE_FEATURES>  (1) 
3
1 1 donor
3 1 2 11 cation
6 3 4 5 6 7 8 rings

>  <PUBCHEM_HEAVY_ATOM_COUNT>  (1) 
12

>  <PUBCHEM_ATOM_DEF_STEREO_COUNT>  (1) 
0

>  <PUBCHEM_ATOM_UDEF_STEREO_COUNT>  (1) 
0

>  <PUBCHEM_BOND_DEF_STEREO_COUNT>  (1) 
0

>  <PUBCHEM_BOND_UDEF_STEREO_COUNT>  (1) 
0

>  <PUBCHEM_ISOTOPIC_ATOM_COUNT>  (1) 
0

>  <PUBCHEM_COMPONENT_COUNT>  (1) 
1

>  <PUBCHEM_CACTVS_TAUTO_COUNT>  (1) 
2

>  <PUBCHEM_CONFORMER_ID>  (1) 
00008DE600000001

>  <PUBCHEM_MMFF94_ENERGY>  (1) 
39.5708

>  <PUBCHEM_FEATURE_SELFOVERLAP>  (1) 
15.223

>  <PUBCHEM_SHAPE_FINGERPRINT>  (1) 
10608611 8 18342174479685429648
11132069 177 18410292518991788300
11543360 7 16128079105633577845
122479 349 18342457058268210368
12251169 10 18261108595486885252
12382932 28 18410015454904078368
13024252 1 14345783955411163591
13214271 11 18270676588573862500
13380535 76 18413387631275720478
14325111 11 18411700941699473837
15219456 202 18273221880645933318
15775835 57 18335138670208387448
16945 1 18264500640034074687
17846911 113 18411975841065664016
18186145 218 18270404862729912533
193761 8 17905051700649090437
20510252 161 18343306963539682665
20528008 55 18411978052973691436
20645464 45 18343305863959372382
20645477 56 18410295817748159204
20871998 184 18199194055970511815
23402539 116 18268700774858679415
23500284 214 18342744013443868928
23557571 272 18128831900604495638
23559900 14 18342461413982246710
2748010 2 18264224538314899287
53812653 166 18413388717865523153
6333449 129 18411415141632615407
7364860 26 17907297654669823175
75552 356 18335983180990372806

>  <PUBCHEM_SHAPE_MULTIPOLES>  (1) 
236.99
5.99
2.11
0.68
5.11
1.21
0
-3.42
-1.09
-0.96
-0.12
0.04
-0.02
0.25

>  <PUBCHEM_SHAPE_SELFOVERLAP>  (1) 
480.794

>  <PUBCHEM_SHAPE_VOLUME>  (1) 
138.5

>  <PUBCHEM_COORDINATE_TYPE>  (1) 
2
5
10

$$$$
