36329
     RDKit          3D

 14 15  0  0  0  0  0  0  0  0999 V2000
    4.5542    0.8077    0.0001 Cl  0  0  0  0  0  0  0  0  0  0  0  0
   -0.8975   -1.2277    0.0001 O   0  0  0  0  0  0  0  0  0  0  0  0
   -3.7304    0.8138    0.0000 O   0  0  0  0  0  0  0  0  0  0  0  0
   -3.4982   -1.3734   -0.0001 O   0  0  0  0  0  0  0  0  0  0  0  0
   -2.9918   -0.2138    0.0003 N   0  0  0  0  0  0  0  0  0  0  0  0
    0.5640    0.4950   -0.0002 C   0  0  0  0  0  0  0  0  0  0  0  0
   -0.7560    1.0179   -0.0002 C   0  0  0  0  0  0  0  0  0  0  0  0
    0.4225   -0.8889   -0.0001 C   0  0  0  0  0  0  0  0  0  0  0  0
   -1.6027   -0.0664    0.0001 C   0  0  0  0  0  0  0  0  0  0  0  0
    1.8609    1.0375   -0.0001 C   0  0  0  0  0  0  0  0  0  0  0  0
   -1.1434    2.4422    0.0000 C   0  0  0  0  0  0  0  0  0  0  0  0
    1.4910   -1.7837   -0.0001 C   0  0  0  0  0  0  0  0  0  0  0  0
    2.9559    0.1624    0.0003 C   0  0  0  0  0  0  0  0  0  0  0  0
    2.7715   -1.2225   -0.0001 C   0  0  0  0  0  0  0  0  0  0  0  0
  1 13  1  0
  2  8  1  0
  2  9  1  0
  3  5  1  0
  4  5  2  0
  5  9  1  0
  6  7  1  0
  6  8  2  0
  6 10  1  0
  7  9  2  0
  7 11  1  0
  8 12  1  0
 10 13  2  0
 12 14  2  0
 13 14  1  0
M  CHG  2   3  -1   5   1
M  END
>  <PUBCHEM_COMPOUND_CID>  (1) 
36329

>  <PUBCHEM_CONFORMER_RMSD>  (1) 
0.4

>  <PUBCHEM_CONFORMER_DIVERSEORDER>  (1) 
1

>  <PUBCHEM_MMFF94_PARTIAL_CHARGES>  (1) 
16
1 -0.18
10 -0.15
11 0.18
12 -0.15
13 0.18
14 -0.15
15 0.15
19 0.15
2 -0.28
20 0.15
3 -0.52
4 -0.52
5 0.96
7 -0.18
8 0.14
9 0.22

>  <PUBCHEM_EFFECTIVE_ROTOR_COUNT>  (1) 
1

>  <PUBCHEM_PHARMACOPHORE_FEATURES>  (1) 
6
1 2 acceptor
1 3 acceptor
1 3 anion
1 4 acceptor
5 2 6 7 8 9 rings
6 6 8 10 12 13 14 rings

>  <PUBCHEM_HEAVY_ATOM_COUNT>  (1) 
14

>  <PUBCHEM_ATOM_DEF_STEREO_COUNT>  (1) 
0

>  <PUBCHEM_ATOM_UDEF_STEREO_COUNT>  (1) 
0

>  <PUBCHEM_BOND_DEF_STEREO_COUNT>  (1) 
0

>  <PUBCHEM_BOND_UDEF_STEREO_COUNT>  (1) 
0

>  <PUBCHEM_ISOTOPIC_ATOM_COUNT>  (1) 
0

>  <PUBCHEM_COMPONENT_COUNT>  (1) 
1

>  <PUBCHEM_CACTVS_TAUTO_COUNT>  (1) 
1

>  <PUBCHEM_CONFORMER_ID>  (1) 
00008DE900000001

>  <PUBCHEM_MMFF94_ENERGY>  (1) 
25.9629

>  <PUBCHEM_FEATURE_SELFOVERLAP>  (1) 
30.64

>  <PUBCHEM_SHAPE_FINGERPRINT>  (1) 
10608611 8 18338513024139134300
10967382 1 18338797922072547238
11132069 177 18413386535958664320
11471102 20 18410568466144856231
11806522 49 18266737068508272415
12032990 46 18410299146089409219
12932764 1 17274525564826148804
13214271 11 18411697720600628527
13221675 6 18413107264553397006
13380535 76 18408887360596326322
14144814 61 18411982429571538578
14325111 11 18410856551070979968
14576447 43 18128520751683458591
15196674 1 18410856546865806882
15219456 202 18336261232661942365
15442244 35 17978228262300361010
15536298 74 18342740676760662358
15775835 57 18344148098624903852
16945 1 18410575089242934790
193761 8 17978509728428544132
200 152 18130497587532039277
20201158 50 18407478868530529274
20510252 161 18271807891396849248
20588541 1 18411421743229496922
20645477 70 18341046307424701495
21267235 1 18338526334026565231
21501502 16 18266459797998297080
2334 1 17762338411157188032
23402539 116 18411409640180390628
23402655 69 18341320107811442205
23463225 33 18408040702029609508
23552423 10 18189901911484268170
23559900 14 18196365927912962962
25610 137 18410014338075476653
2748010 2 18194964041622690988
3312278 4 18410013243080238963
34934 24 18410285896326050807
449060 62 18413390912693823658
4990 188 17988936565363094246
5104073 3 18410012104681836762
528886 8 18411695525977867762
53812653 166 18343297102611230064
57096353 35 18410575114880850862
7364860 26 18270400469653848686

>  <PUBCHEM_SHAPE_MULTIPOLES>  (1) 
267.39
6.35
1.93
0.59
0.7
0.34
0
0.36
0
-0.29
0
0.09
0.02
0

>  <PUBCHEM_SHAPE_SELFOVERLAP>  (1) 
576.509

>  <PUBCHEM_SHAPE_VOLUME>  (1) 
150

>  <PUBCHEM_COORDINATE_TYPE>  (1) 
2
5
10

$$$$
