36323
     RDKit          3D

 19 20  0  0  0  0  0  0  0  0999 V2000
    0.1309   -1.8986    2.0878 Cl  0  0  0  0  0  0  0  0  0  0  0  0
    1.3180   -3.3360   -0.1169 Cl  0  0  0  0  0  0  0  0  0  0  0  0
   -1.5588   -3.1602    0.0732 Cl  0  0  0  0  0  0  0  0  0  0  0  0
    3.1915    2.1079    2.2190 Cl  0  0  0  0  0  0  0  0  0  0  0  0
   -3.8655    1.3121    2.0514 Cl  0  0  0  0  0  0  0  0  0  0  0  0
    0.0244   -0.9225   -0.5788 C   0  0  0  0  0  0  0  0  0  0  0  0
    1.2883   -0.1355   -0.4918 C   0  0  0  0  0  0  0  0  0  0  0  0
   -1.2398   -0.0263   -0.5901 C   0  0  0  0  0  0  0  0  0  0  0  0
   -0.0403   -2.2195    0.3319 C   0  0  0  0  0  0  0  0  0  0  0  0
    1.6108    0.5391    0.6858 C   0  0  0  0  0  0  0  0  0  0  0  0
   -1.8794    0.1930    0.5977 C   0  0  0  0  0  0  0  0  0  0  0  0
    2.1485   -0.0749   -1.5882 C   0  0  0  0  0  0  0  0  0  0  0  0
   -1.6428    0.4945   -1.7878 C   0  0  0  0  0  0  0  0  0  0  0  0
    2.7935    1.2743    0.7669 C   0  0  0  0  0  0  0  0  0  0  0  0
   -3.0169    1.0005    0.5869 C   0  0  0  0  0  0  0  0  0  0  0  0
    3.3310    0.6602   -1.5073 C   0  0  0  0  0  0  0  0  0  0  0  0
   -2.7801    1.3019   -1.7986 C   0  0  0  0  0  0  0  0  0  0  0  0
    3.6537    1.3348   -0.3298 C   0  0  0  0  0  0  0  0  0  0  0  0
   -3.4670    1.5550   -0.6113 C   0  0  0  0  0  0  0  0  0  0  0  0
  1  9  1  0
  2  9  1  0
  3  9  1  0
  4 14  1  0
  5 15  1  0
  6  7  1  0
  6  8  1  0
  6  9  1  0
  7 10  2  0
  7 12  1  0
  8 11  2  0
  8 13  1  0
 10 14  1  0
 11 15  1  0
 12 16  2  0
 13 17  2  0
 14 18  2  0
 15 19  2  0
 16 18  1  0
 17 19  1  0
M  END
>  <PUBCHEM_COMPOUND_CID>  (1) 
36323

>  <PUBCHEM_CONFORMER_RMSD>  (1) 
0.6

>  <PUBCHEM_CONFORMER_DIVERSEORDER>  (1) 
1
5
2
6
14
7
4
10
16
8
11
13
12
15
3
9

>  <PUBCHEM_MMFF94_PARTIAL_CHARGES>  (1) 
27
1 -0.29
10 -0.15
11 -0.15
12 -0.15
13 -0.15
14 0.18
15 0.18
16 -0.15
17 -0.15
18 -0.15
19 -0.15
2 -0.29
21 0.15
22 0.15
23 0.15
24 0.15
25 0.15
26 0.15
27 0.15
28 0.15
3 -0.29
4 -0.18
5 -0.18
6 0.29
7 -0.14
8 -0.14
9 0.87

>  <PUBCHEM_EFFECTIVE_ROTOR_COUNT>  (1) 
3

>  <PUBCHEM_PHARMACOPHORE_FEATURES>  (1) 
2
6 7 10 12 14 16 18 rings
6 8 11 13 15 17 19 rings

>  <PUBCHEM_HEAVY_ATOM_COUNT>  (1) 
19

>  <PUBCHEM_ATOM_DEF_STEREO_COUNT>  (1) 
0

>  <PUBCHEM_ATOM_UDEF_STEREO_COUNT>  (1) 
0

>  <PUBCHEM_BOND_DEF_STEREO_COUNT>  (1) 
0

>  <PUBCHEM_BOND_UDEF_STEREO_COUNT>  (1) 
0

>  <PUBCHEM_ISOTOPIC_ATOM_COUNT>  (1) 
0

>  <PUBCHEM_COMPONENT_COUNT>  (1) 
1

>  <PUBCHEM_CACTVS_TAUTO_COUNT>  (1) 
1

>  <PUBCHEM_CONFORMER_ID>  (1) 
00008DE300000001

>  <PUBCHEM_MMFF94_ENERGY>  (1) 
58.7672

>  <PUBCHEM_FEATURE_SELFOVERLAP>  (1) 
10.149

>  <PUBCHEM_SHAPE_FINGERPRINT>  (1) 
10165383 225 18192744226151059604
11221954 11 17772741912954781024
12423570 1 13815143443008734214
12788726 201 17608647550492655178
12841375 7 11891328708203500992
13132413 78 17475231297918353062
13134695 92 17837194983726455662
13294875 104 18342168922087335122
13681431 1 17615400368431707550
13878862 14 17758953719864009701
14181834 199 17901915609523271390
14787075 74 17843388829711223621
14955137 171 17981613658323455514
15295992 7 18130799979089223904
15309172 13 18187091649973862461
15534591 1 17846505833127062609
16945 1 18266177223663173518
17357990 137 17273130181559818805
1813 80 17195734355121435790
18186145 218 18343025475630720588
18981168 100 18343295976881594075
19765921 60 18057579084543008593
20510252 161 18051686947468481706
20600515 1 17328573428715585347
20671657 53 11095877164123042061
21041028 32 17550117956633249978
21524375 3 18260827107134746766
21731228 192 18114175354497314344
22079108 93 18201449094764116017
23419403 2 17106845570493061154
23557571 272 17836927068119617678
23559900 14 16444765826528460839
25 1 18130521746696822444
3082319 5 16056878039490531436
350125 39 18408045117103736598
3729539 64 17684965438994109470
3797600 57 16733850668885555724
427121 178 18118431521232920483
4340502 62 18410002231448723831
458136 41 18263665990439095215
474 4 18131344245597901464
495365 180 17972303024572449045
5845 1 16900422003189584818
6049 1 17843134859478366132
633830 44 18059585662856290749
6442390 28 18267043780538767115
70251023 43 17905875986714987871
7097593 13 14851875916176777540
7364860 26 18120927304905837607
7832392 63 16845297098625559473
81228 2 17901390309247859570
84936 182 18198335152599993289
9981440 41 16913381230014059568

>  <PUBCHEM_SHAPE_MULTIPOLES>  (1) 
400.36
6.27
3.15
2.13
0.36
3.38
0.51
-5.57
0.63
-0.19
1.01
0.1
-0.87
0.69

>  <PUBCHEM_SHAPE_SELFOVERLAP>  (1) 
806.523

>  <PUBCHEM_SHAPE_VOLUME>  (1) 
227.8

>  <PUBCHEM_COORDINATE_TYPE>  (1) 
2
5
10

$$$$
