36321
     RDKit          3D

 18 20  0  0  0  0  0  0  0  0999 V2000
   -1.5244    2.9514   -0.0080 O   0  0  0  0  0  0  0  0  0  0  0  0
    2.2229    0.2628   -0.2887 N   0  0  0  0  0  0  0  0  0  0  0  0
    0.1280   -0.6370   -0.4281 N   0  0  0  0  0  0  0  0  0  0  0  0
    0.3773    1.6876   -0.1443 N   0  0  0  0  0  0  0  0  0  0  0  0
    3.1614    1.1053    0.4499 C   0  0  0  0  0  0  0  0  0  0  0  0
    2.8243   -0.7796   -1.1183 C   0  0  0  0  0  0  0  0  0  0  0  0
    4.0558    0.2373    1.3322 C   0  0  0  0  0  0  0  0  0  0  0  0
    3.7132   -1.6777   -0.2612 C   0  0  0  0  0  0  0  0  0  0  0  0
    4.7407   -0.8600    0.5195 C   0  0  0  0  0  0  0  0  0  0  0  0
   -1.2446   -0.5713   -0.4454 C   0  0  0  0  0  0  0  0  0  0  0  0
   -1.9912   -1.8713   -0.6096 C   0  0  0  0  0  0  0  0  0  0  0  0
   -2.8796   -2.2188    0.5862 C   0  0  0  0  0  0  0  0  0  0  0  0
   -4.1957   -1.4435    0.6292 C   0  0  0  0  0  0  0  0  0  0  0  0
   -1.8650    0.6180   -0.3133 C   0  0  0  0  0  0  0  0  0  0  0  0
   -4.0537    0.0635    0.8387 C   0  0  0  0  0  0  0  0  0  0  0  0
   -3.3607    0.7898   -0.3156 C   0  0  0  0  0  0  0  0  0  0  0  0
    0.8902    0.4942   -0.2802 C   0  0  0  0  0  0  0  0  0  0  0  0
   -0.9990    1.8493   -0.1431 C   0  0  0  0  0  0  0  0  0  0  0  0
  1 18  2  0
  2  5  1  0
  2  6  1  0
  2 17  1  0
  3 10  1  0
  3 17  1  0
  4 17  2  0
  4 18  1  0
  5  7  1  0
  6  8  1  0
  7  9  1  0
  8  9  1  0
 10 11  1  0
 10 14  2  0
 11 12  1  0
 12 13  1  0
 13 15  1  0
 14 16  1  0
 14 18  1  0
 15 16  1  0
M  END
>  <PUBCHEM_COMPOUND_CID>  (1) 
36321

>  <PUBCHEM_CONFORMER_RMSD>  (1) 
0.6

>  <PUBCHEM_CONFORMER_DIVERSEORDER>  (1) 
3
13
5
4
12
10
2
6
9
8
7
1
11

>  <PUBCHEM_MMFF94_PARTIAL_CHARGES>  (1) 
13
1 -0.57
10 -0.04
11 0.14
14 -0.12
16 0.14
17 0.55
18 0.77
2 -0.79
3 -0.55
39 0.4
4 -0.66
5 0.37
6 0.37

>  <PUBCHEM_EFFECTIVE_ROTOR_COUNT>  (1) 
3.2

>  <PUBCHEM_PHARMACOPHORE_FEATURES>  (1) 
6
1 1 acceptor
1 3 donor
1 4 donor
6 2 5 6 7 8 9 rings
6 3 4 10 14 17 18 rings
7 10 11 12 13 14 15 16 rings

>  <PUBCHEM_HEAVY_ATOM_COUNT>  (1) 
18

>  <PUBCHEM_ATOM_DEF_STEREO_COUNT>  (1) 
0

>  <PUBCHEM_ATOM_UDEF_STEREO_COUNT>  (1) 
0

>  <PUBCHEM_BOND_DEF_STEREO_COUNT>  (1) 
0

>  <PUBCHEM_BOND_UDEF_STEREO_COUNT>  (1) 
0

>  <PUBCHEM_ISOTOPIC_ATOM_COUNT>  (1) 
0

>  <PUBCHEM_COMPONENT_COUNT>  (1) 
1

>  <PUBCHEM_CACTVS_TAUTO_COUNT>  (1) 
3

>  <PUBCHEM_CONFORMER_ID>  (1) 
00008DE100000003

>  <PUBCHEM_MMFF94_ENERGY>  (1) 
38.4142

>  <PUBCHEM_FEATURE_SELFOVERLAP>  (1) 
30.493

>  <PUBCHEM_SHAPE_FINGERPRINT>  (1) 
10319926 262 18196353855065752314
10618630 7 18335423499401594798
11132069 177 18412829088153767607
11543360 7 14851611024047288259
12032990 46 18409173224818194679
12236239 1 17530969051698400862
12251169 10 18202565111281121776
12553582 1 18267871768407511454
12714826 92 17821721741535809685
13140716 1 18339927124972894393
13296908 3 18410292531818544542
13675066 3 18411979165370026202
14178342 30 18190170197080506754
14420673 8 17977664204657691554
14790565 3 17400930089964332333
15885798 251 18335707177902204627
16945 1 18410578357634172901
17804303 29 18412832369202846268
17834074 16 18340768156889457346
1813 80 17603588551311123054
19049666 15 17985551048459313014
19141452 34 18273216430454007247
19784866 170 18271524316428933424
19784866 240 16370995270741839850
200 152 15068622669340560428
20281475 54 18263084477621157503
20510252 161 18129378207111726232
21065199 12 18342734105349780466
21267235 1 18408895043818136567
21637258 2 16081375215235500627
22959321 94 18334009488893828522
2297311 6 18340782476489647238
23366157 5 17753051879977839125
23402539 116 18271798013335695045
23402655 69 11169907286527319658
23559900 14 18411700946564043190
2748010 2 18340763866275196757
2838139 119 14763236519166980363
3091708 16 9135527096794428353
42 15 18408603647788465730
474 4 13973378302390862610
4990 188 11891324353275383122
5104073 3 18412265051241279408
5902787 121 18189334735087641011
5924683 9 17917140727970604943
633830 44 11098119090044608811
69090 78 18059564763555601414
81228 2 18337403651123943889
8809292 202 18407763629151978987
90316 7 18408326575169349993
9709674 26 18271805653776864886

>  <PUBCHEM_SHAPE_MULTIPOLES>  (1) 
349.62
8.87
2.34
0.96
4.09
0.55
0.1
-3.36
2.62
-1.38
-0.02
0.35
-0.16
0.62

>  <PUBCHEM_SHAPE_SELFOVERLAP>  (1) 
732.803

>  <PUBCHEM_SHAPE_VOLUME>  (1) 
193.9

>  <PUBCHEM_COORDINATE_TYPE>  (1) 
2
5
10

$$$$
