36333
     RDKit          3D

 14 14  0  0  0  0  0  0  0  0999 V2000
    1.4502    0.0214    1.4898 O   0  0  0  0  0  0  0  0  0  0  0  0
    0.4296   -0.0028   -0.6243 N   0  0  0  0  0  0  0  0  0  0  0  0
   -0.9507   -0.0017   -0.3119 C   0  0  0  0  0  0  0  0  0  0  0  0
    2.8240   -0.0033   -0.4915 C   0  0  0  0  0  0  0  0  0  0  0  0
   -1.6149    1.2067   -0.1637 C   0  0  0  0  0  0  0  0  0  0  0  0
   -1.6155   -1.2092   -0.1587 C   0  0  0  0  0  0  0  0  0  0  0  0
    4.0542   -0.0021    0.4134 C   0  0  0  0  0  0  0  0  0  0  0  0
    1.5009   -0.0015    0.2646 C   0  0  0  0  0  0  0  0  0  0  0  0
   -2.9752    1.2079    0.1449 C   0  0  0  0  0  0  0  0  0  0  0  0
   -2.9759   -1.2082    0.1498 C   0  0  0  0  0  0  0  0  0  0  0  0
   -0.9136    2.5166   -0.3254 C   0  0  0  0  0  0  0  0  0  0  0  0
   -0.9151   -2.5201   -0.3152 C   0  0  0  0  0  0  0  0  0  0  0  0
   -3.6556    0.0004    0.3017 C   0  0  0  0  0  0  0  0  0  0  0  0
    5.3575   -0.0043   -0.3734 C   0  0  0  0  0  0  0  0  0  0  0  0
  1  8  2  0
  2  3  1  0
  2  8  1  0
  3  5  2  0
  3  6  1  0
  4  7  1  0
  4  8  1  0
  5  9  1  0
  5 11  1  0
  6 10  2  0
  6 12  1  0
  7 14  1  0
  9 13  2  0
 10 13  1  0
M  END
>  <PUBCHEM_COMPOUND_CID>  (1) 
36333

>  <PUBCHEM_CONFORMER_RMSD>  (1) 
0.6

>  <PUBCHEM_CONFORMER_DIVERSEORDER>  (1) 
1
7
6
5
2
8
4
3

>  <PUBCHEM_MMFF94_PARTIAL_CHARGES>  (1) 
16
1 -0.57
10 -0.15
11 0.14
12 0.14
13 -0.15
19 0.37
2 -0.55
20 0.15
21 0.15
28 0.15
3 0.12
4 0.06
5 -0.14
6 -0.14
8 0.57
9 -0.15

>  <PUBCHEM_EFFECTIVE_ROTOR_COUNT>  (1) 
4

>  <PUBCHEM_PHARMACOPHORE_FEATURES>  (1) 
4
1 1 acceptor
1 14 hydrophobe
1 2 donor
6 3 5 6 9 10 13 rings

>  <PUBCHEM_HEAVY_ATOM_COUNT>  (1) 
14

>  <PUBCHEM_ATOM_DEF_STEREO_COUNT>  (1) 
0

>  <PUBCHEM_ATOM_UDEF_STEREO_COUNT>  (1) 
0

>  <PUBCHEM_BOND_DEF_STEREO_COUNT>  (1) 
0

>  <PUBCHEM_BOND_UDEF_STEREO_COUNT>  (1) 
0

>  <PUBCHEM_ISOTOPIC_ATOM_COUNT>  (1) 
0

>  <PUBCHEM_COMPONENT_COUNT>  (1) 
1

>  <PUBCHEM_CACTVS_TAUTO_COUNT>  (1) 
2

>  <PUBCHEM_CONFORMER_ID>  (1) 
00008DED00000001

>  <PUBCHEM_MMFF94_ENERGY>  (1) 
50.5353

>  <PUBCHEM_FEATURE_SELFOVERLAP>  (1) 
20.297

>  <PUBCHEM_SHAPE_FINGERPRINT>  (1) 
11132069 177 18412547595849585709
12186901 62 18409448051148796404
12236239 1 17676490548862361860
124424 183 17346598582170855482
13024252 1 15574712491570559357
13897977 58 18335989731053162076
14993402 34 18335695066300086871
15219456 202 17988088785525719702
15669948 3 18409157831639906290
15775835 57 18410856516859051939
16945 1 18410573990200708031
17804303 29 18343586277973639800
200 152 15285355136974053769
20279233 1 17704359874719045950
20325693 3 18412269428092534782
20510252 161 18271246010674058625
20645464 45 17989491826887341911
20645477 56 18412825781218944708
20645477 70 14201664335688766144
20871998 184 18341897411234401663
21029758 27 18187935027095458861
2297311 6 18341345435117425124
23175994 123 17060627698098241920
23402539 116 18342731931869521063
23557571 272 18272661130000838092
23559900 14 18200879474921734270
2748010 2 18049736122632058349
3286 77 16558178440588069707
4175511 318 17894623721807044093
43471831 8 18262518091847380371
474 4 17097220656668454636
77492 1 17676210177665840092

>  <PUBCHEM_SHAPE_MULTIPOLES>  (1) 
277.26
7.72
1.98
0.83
10.89
0
-0.15
0.01
-0.19
-1.81
0.29
0.28
0
0.01

>  <PUBCHEM_SHAPE_SELFOVERLAP>  (1) 
560.939

>  <PUBCHEM_SHAPE_VOLUME>  (1) 
163.3

>  <PUBCHEM_COORDINATE_TYPE>  (1) 
2
5
10

$$$$
