36337
     RDKit          3D

 24 27  0  0  0  0  0  0  0  0999 V2000
   -6.1937   -0.2324   -0.0428 F   0  0  0  0  0  0  0  0  0  0  0  0
    3.0252   -3.3256   -0.0378 O   0  0  0  0  0  0  0  0  0  0  0  0
    0.6940   -3.9258    0.0443 O   0  0  0  0  0  0  0  0  0  0  0  0
    1.2552    3.6614    0.0785 O   0  0  0  0  0  0  0  0  0  0  0  0
    1.9758    1.4747   -0.0085 N   0  0  0  0  0  0  0  0  0  0  0  0
   -0.3497    2.0753    0.0524 N   0  0  0  0  0  0  0  0  0  0  0  0
    3.3822    1.8697   -0.0366 C   0  0  0  0  0  0  0  0  0  0  0  0
    1.6402    0.0899   -0.0181 C   0  0  0  0  0  0  0  0  0  0  0  0
    0.2800   -0.2751    0.0122 C   0  0  0  0  0  0  0  0  0  0  0  0
   -0.6998    0.8292    0.0268 C   0  0  0  0  0  0  0  0  0  0  0  0
    2.6209   -0.9177   -0.0426 C   0  0  0  0  0  0  0  0  0  0  0  0
   -0.1110   -1.6227    0.0453 C   0  0  0  0  0  0  0  0  0  0  0  0
    2.2096   -2.2358   -0.0230 C   0  0  0  0  0  0  0  0  0  0  0  0
    0.8817   -2.5782    0.0229 C   0  0  0  0  0  0  0  0  0  0  0  0
    0.9734    2.4614    0.0444 C   0  0  0  0  0  0  0  0  0  0  0  0
    3.7385    2.6488    1.2228 C   0  0  0  0  0  0  0  0  0  0  0  0
    3.6852    2.6795   -1.2911 C   0  0  0  0  0  0  0  0  0  0  0  0
   -2.1487    0.5493    0.0086 C   0  0  0  0  0  0  0  0  0  0  0  0
    2.0573   -4.3938    0.0037 C   0  0  0  0  0  0  0  0  0  0  0  0
   -2.8351    0.3934    1.2076 C   0  0  0  0  0  0  0  0  0  0  0  0
   -2.8142    0.4440   -1.2078 C   0  0  0  0  0  0  0  0  0  0  0  0
   -4.2045    0.1289    1.1901 C   0  0  0  0  0  0  0  0  0  0  0  0
   -4.1836    0.1796   -1.2253 C   0  0  0  0  0  0  0  0  0  0  0  0
   -4.8789    0.0221   -0.0263 C   0  0  0  0  0  0  0  0  0  0  0  0
  1 24  1  0
  2 13  1  0
  2 19  1  0
  3 14  1  0
  3 19  1  0
  4 15  2  0
  5  7  1  0
  5  8  1  0
  5 15  1  0
  6 10  2  0
  6 15  1  0
  7 16  1  0
  7 17  1  0
  8  9  2  0
  8 11  1  0
  9 10  1  0
  9 12  1  0
 10 18  1  0
 11 13  2  0
 12 14  2  0
 13 14  1  0
 18 20  2  0
 18 21  1  0
 20 22  1  0
 21 23  2  0
 22 24  2  0
 23 24  1  0
M  END
>  <PUBCHEM_COMPOUND_CID>  (1) 
36337

>  <PUBCHEM_CONFORMER_RMSD>  (1) 
0.6

>  <PUBCHEM_CONFORMER_DIVERSEORDER>  (1) 
1

>  <PUBCHEM_MMFF94_PARTIAL_CHARGES>  (1) 
28
1 -0.19
10 0.28
11 -0.15
12 -0.15
13 0.08
14 0.08
15 0.84
18 0.09
19 0.56
2 -0.36
20 -0.15
21 -0.15
22 -0.15
23 -0.15
24 0.19
26 0.15
27 0.15
3 -0.36
36 0.15
37 0.15
38 0.15
39 0.15
4 -0.57
5 -0.48
6 -0.66
7 0.3
8 0.12
9 0.09

>  <PUBCHEM_EFFECTIVE_ROTOR_COUNT>  (1) 
2.6

>  <PUBCHEM_PHARMACOPHORE_FEATURES>  (1) 
10
1 2 acceptor
1 3 acceptor
1 4 acceptor
1 6 acceptor
1 6 donor
3 7 16 17 hydrophobe
5 2 3 13 14 19 rings
6 18 20 21 22 23 24 rings
6 5 6 8 9 10 15 rings
6 8 9 11 12 13 14 rings

>  <PUBCHEM_HEAVY_ATOM_COUNT>  (1) 
24

>  <PUBCHEM_ATOM_DEF_STEREO_COUNT>  (1) 
0

>  <PUBCHEM_ATOM_UDEF_STEREO_COUNT>  (1) 
0

>  <PUBCHEM_BOND_DEF_STEREO_COUNT>  (1) 
0

>  <PUBCHEM_BOND_UDEF_STEREO_COUNT>  (1) 
0

>  <PUBCHEM_ISOTOPIC_ATOM_COUNT>  (1) 
0

>  <PUBCHEM_COMPONENT_COUNT>  (1) 
1

>  <PUBCHEM_CACTVS_TAUTO_COUNT>  (1) 
1

>  <PUBCHEM_CONFORMER_ID>  (1) 
00008DF100000001

>  <PUBCHEM_MMFF94_ENERGY>  (1) 
81.8686

>  <PUBCHEM_FEATURE_SELFOVERLAP>  (1) 
50.988

>  <PUBCHEM_SHAPE_FINGERPRINT>  (1) 
10411042 1 18050568434853283726
10693767 8 18130793334738290614
10967382 1 18410856555682542834
1100329 8 18411698820597897098
12107183 9 17910403780162460993
12236239 1 17704077334912523657
12553582 1 18123757447936316887
12592029 89 18338516442969940889
12730499 353 18336554914510558723
12788726 201 16821645246275850771
12895836 83 17608954297447846292
13009979 54 17630331835353100131
13052359 8 18050001400801883440
13140716 1 18411416258841421618
13533116 47 18341615902525401283
138480 1 18266741281554405706
13911987 19 18190749828265653597
13955234 65 18411982446920479571
14790565 3 18265629851229976949
14844126 61 16677250769446385194
14863182 85 18335145323065496580
15475509 84 17769952181393429161
15927050 60 18268991063329989806
16087824 20 17041200135100945173
16728300 4 17535150455869779256
17138139 8 17340658080018605839
1813 80 17913780413750034327
19591789 44 18121790696601400530
20028762 73 17767974490750805711
20101258 96 17834688097278313002
204376 136 18265053711494390077
20645477 70 18334007277243997355
20739085 24 18335431148881410424
20775438 99 17397217734997320933
21054139 6 18056465391165271815
21197605 99 17975142247259062827
21285901 2 17749382655515778357
21796203 349 17906768853991226474
221490 88 18263926544830404735
2255824 54 18341334405135324894
23419403 2 17317288797904406774
23559900 14 18265885857392221033
2748010 2 18264785418141478530
3091708 16 9330050512215832098
33824 294 18409729581922976641
3421961 26 18338797806308974923
352729 6 18051138291308828224
3886686 26 17478293867610585664
458136 41 18337401516408977924
474 4 18340769359512189225
5309563 4 18051131393881988327
58807428 26 18268695264499703568
59682541 52 18194094388846116421
6025842 7 18410572899062919159
6669772 16 18341059609623765142
6679774 75 18041267856080063306
70251023 43 18192713337184175259
7364860 26 18410855434474571506
81228 2 17328569636327775160
8272917 22 18411703184152619301
9777508 108 17548974906837819712

>  <PUBCHEM_SHAPE_MULTIPOLES>  (1) 
459.07
8.46
4.77
1
11.96
4.22
-0.02
-2.8
-0.14
-7.5
0.03
0.39
-0.46
0.02

>  <PUBCHEM_SHAPE_SELFOVERLAP>  (1) 
1025.426

>  <PUBCHEM_SHAPE_VOLUME>  (1) 
244.6

>  <PUBCHEM_COORDINATE_TYPE>  (1) 
2
5
10

$$$$
