36331
     RDKit          3D

 23 26  0  0  0  0  0  0  0  0999 V2000
    2.8612   -3.2459   -0.0347 O   0  0  0  0  0  0  0  0  0  0  0  0
    0.5503   -3.9204    0.0427 O   0  0  0  0  0  0  0  0  0  0  0  0
    0.8685    3.6808    0.0790 O   0  0  0  0  0  0  0  0  0  0  0  0
    1.6588    1.5184   -0.0069 N   0  0  0  0  0  0  0  0  0  0  0  0
   -0.6848    2.0442    0.0494 N   0  0  0  0  0  0  0  0  0  0  0  0
    3.0519    1.9581   -0.0321 C   0  0  0  0  0  0  0  0  0  0  0  0
    1.3677    0.1235   -0.0173 C   0  0  0  0  0  0  0  0  0  0  0  0
    0.0198   -0.2848    0.0103 C   0  0  0  0  0  0  0  0  0  0  0  0
   -0.9949    0.7877    0.0230 C   0  0  0  0  0  0  0  0  0  0  0  0
    2.3802   -0.8522   -0.0400 C   0  0  0  0  0  0  0  0  0  0  0  0
   -0.3280   -1.6442    0.0423 C   0  0  0  0  0  0  0  0  0  0  0  0
    2.0112   -2.1828   -0.0214 C   0  0  0  0  0  0  0  0  0  0  0  0
    0.6949   -2.5675    0.0218 C   0  0  0  0  0  0  0  0  0  0  0  0
    0.6252    2.4725    0.0442 C   0  0  0  0  0  0  0  0  0  0  0  0
    3.3806    2.7480    1.2281 C   0  0  0  0  0  0  0  0  0  0  0  0
    3.3314    2.7775   -1.2859 C   0  0  0  0  0  0  0  0  0  0  0  0
   -2.4340    0.4615    0.0019 C   0  0  0  0  0  0  0  0  0  0  0  0
    1.9279   -4.3445    0.0047 C   0  0  0  0  0  0  0  0  0  0  0  0
   -3.1172    0.2836    1.1997 C   0  0  0  0  0  0  0  0  0  0  0  0
   -3.0935    0.3356   -1.2156 C   0  0  0  0  0  0  0  0  0  0  0  0
   -4.4774   -0.0244    1.1798 C   0  0  0  0  0  0  0  0  0  0  0  0
   -4.4540    0.0277   -1.2354 C   0  0  0  0  0  0  0  0  0  0  0  0
   -5.1458   -0.1523   -0.0376 C   0  0  0  0  0  0  0  0  0  0  0  0
  1 12  1  0
  1 18  1  0
  2 13  1  0
  2 18  1  0
  3 14  2  0
  4  6  1  0
  4  7  1  0
  4 14  1  0
  5  9  2  0
  5 14  1  0
  6 15  1  0
  6 16  1  0
  7  8  2  0
  7 10  1  0
  8  9  1  0
  8 11  1  0
  9 17  1  0
 10 12  2  0
 11 13  2  0
 12 13  1  0
 17 19  2  0
 17 20  1  0
 19 21  1  0
 20 22  2  0
 21 23  2  0
 22 23  1  0
M  END
>  <PUBCHEM_COMPOUND_CID>  (1) 
36331

>  <PUBCHEM_CONFORMER_RMSD>  (1) 
0.6

>  <PUBCHEM_CONFORMER_DIVERSEORDER>  (1) 
1

>  <PUBCHEM_MMFF94_PARTIAL_CHARGES>  (1) 
28
1 -0.36
10 -0.15
11 -0.15
12 0.08
13 0.08
14 0.84
17 0.09
18 0.56
19 -0.15
2 -0.36
20 -0.15
21 -0.15
22 -0.15
23 -0.15
25 0.15
26 0.15
3 -0.57
35 0.15
36 0.15
37 0.15
38 0.15
39 0.15
4 -0.48
5 -0.66
6 0.3
7 0.12
8 0.09
9 0.28

>  <PUBCHEM_EFFECTIVE_ROTOR_COUNT>  (1) 
2.6

>  <PUBCHEM_PHARMACOPHORE_FEATURES>  (1) 
10
1 1 acceptor
1 2 acceptor
1 3 acceptor
1 5 acceptor
1 5 donor
3 6 15 16 hydrophobe
5 1 2 12 13 18 rings
6 17 19 20 21 22 23 rings
6 4 5 7 8 9 14 rings
6 7 8 10 11 12 13 rings

>  <PUBCHEM_HEAVY_ATOM_COUNT>  (1) 
23

>  <PUBCHEM_ATOM_DEF_STEREO_COUNT>  (1) 
0

>  <PUBCHEM_ATOM_UDEF_STEREO_COUNT>  (1) 
0

>  <PUBCHEM_BOND_DEF_STEREO_COUNT>  (1) 
0

>  <PUBCHEM_BOND_UDEF_STEREO_COUNT>  (1) 
0

>  <PUBCHEM_ISOTOPIC_ATOM_COUNT>  (1) 
0

>  <PUBCHEM_COMPONENT_COUNT>  (1) 
1

>  <PUBCHEM_CACTVS_TAUTO_COUNT>  (1) 
1

>  <PUBCHEM_CONFORMER_ID>  (1) 
00008DEB00000001

>  <PUBCHEM_MMFF94_ENERGY>  (1) 
81.8024

>  <PUBCHEM_FEATURE_SELFOVERLAP>  (1) 
50.988

>  <PUBCHEM_SHAPE_FINGERPRINT>  (1) 
10411042 1 18050568435032612307
10693767 8 18131070424447897046
10967382 1 18410856559835091826
1100329 8 18411417349847581962
12107183 9 17910404888343092713
12236239 1 17632020849071064657
12553582 1 18123757452394814487
12730499 353 18336271244953252779
12788726 201 16893982120720443619
12895836 83 17608955401159508828
13009979 54 17702670926085304667
13052359 8 17977661240744245336
13140716 1 18339358673303712034
13533116 47 18413674600443803331
13583140 156 16372665544351856220
138480 1 18266741285706857266
13911987 19 18190745438956750717
14790565 3 18265632041700169108
14844126 61 16821926721316261627
14863182 85 18262529194105270821
14866123 147 17979077416337957378
15475509 84 17769672909850972921
15927050 60 18268993270953638478
16087824 20 17041481614536133893
16945 1 18338798905546445362
17138139 8 17268601594140282039
1813 80 17913781517693779447
19591789 44 18049451631723493170
20028762 73 17696199484154741831
20101258 96 17834688097193988442
204376 136 18265052620694035669
20645477 70 18334284358627452343
20739085 24 18335432252471753712
20775438 99 17397777395164010109
21452121 199 18192419775768378690
21796203 349 17978825357065230730
221490 88 18335704875905371871
2255824 54 18341334409430311687
2334 1 18194402418946195118
23419403 2 17317569177548392910
23557571 272 17190658979809923334
23559900 14 18265322920318433297
23598291 2 18060424577812510173
2748010 2 18264785426594243586
3091708 16 9329487562104181218
33824 294 18409729590650080779
3421961 26 18338520733810873363
352729 6 17979079606169846041
3886686 26 17406236277762129984
458136 41 18337121149670986165
474 4 18341049739351315185
58779409 8 17904493140015063508
58807428 26 18268697472028504184
59682541 52 18194093293676857261
633830 44 17987529276031519397
6669772 16 18341060713388142726
7364860 26 18411136913682932954
81228 2 17400627238923995673
8272917 22 18411422808777220189

>  <PUBCHEM_SHAPE_MULTIPOLES>  (1) 
445.76
7.51
4.89
1.01
9.18
4.18
-0.03
-2.79
-0.11
-7.02
0.04
0.51
-0.46
0.02

>  <PUBCHEM_SHAPE_SELFOVERLAP>  (1) 
994.47

>  <PUBCHEM_SHAPE_VOLUME>  (1) 
235.1

>  <PUBCHEM_COORDINATE_TYPE>  (1) 
2
5
10

$$$$
