36342
     RDKit          3D

 14 15  0  0  0  0  0  0  0  0999 V2000
    0.5325    2.7405   -0.0001 Cl  0  0  0  0  0  0  0  0  0  0  0  0
    0.5321   -2.7405   -0.0002 Cl  0  0  0  0  0  0  0  0  0  0  0  0
    0.6313    0.0000    0.0000 C   0  0  0  0  0  0  0  0  0  0  0  0
   -0.8157    0.0001    0.0000 C   0  0  0  0  0  0  0  0  0  0  0  0
    1.3372    1.2080    0.0000 C   0  0  0  0  0  0  0  0  0  0  0  0
    1.3369   -1.2080    0.0000 C   0  0  0  0  0  0  0  0  0  0  0  0
   -1.5131    0.0001   -1.2079 C   0  0  0  0  0  0  0  0  0  0  0  0
   -1.5130    0.0001    1.2079 C   0  0  0  0  0  0  0  0  0  0  0  0
    2.7321    1.2078    0.0000 C   0  0  0  0  0  0  0  0  0  0  0  0
    2.7318   -1.2081    0.0001 C   0  0  0  0  0  0  0  0  0  0  0  0
   -2.9080    0.0001   -1.2079 C   0  0  0  0  0  0  0  0  0  0  0  0
   -2.9079    0.0000    1.2081 C   0  0  0  0  0  0  0  0  0  0  0  0
    3.4294   -0.0001    0.0001 C   0  0  0  0  0  0  0  0  0  0  0  0
   -3.6054    0.0000    0.0001 C   0  0  0  0  0  0  0  0  0  0  0  0
  1  5  1  0
  2  6  1  0
  3  4  1  0
  3  5  2  0
  3  6  1  0
  4  7  2  0
  4  8  1  0
  5  9  1  0
  6 10  2  0
  7 11  1  0
  8 12  2  0
  9 13  2  0
 10 13  1  0
 11 14  2  0
 12 14  1  0
M  END
>  <PUBCHEM_COMPOUND_CID>  (1) 
36342

>  <PUBCHEM_CONFORMER_RMSD>  (1) 
0.4

>  <PUBCHEM_CONFORMER_DIVERSEORDER>  (1) 
1

>  <PUBCHEM_MMFF94_PARTIAL_CHARGES>  (1) 
20
1 -0.18
10 -0.15
11 -0.15
12 -0.15
13 -0.15
14 -0.15
15 0.15
16 0.15
17 0.15
18 0.15
19 0.15
2 -0.18
20 0.15
21 0.15
22 0.15
5 0.18
6 0.18
7 -0.15
8 -0.15
9 -0.15

>  <PUBCHEM_EFFECTIVE_ROTOR_COUNT>  (1) 
1

>  <PUBCHEM_PHARMACOPHORE_FEATURES>  (1) 
2
6 3 5 6 9 10 13 rings
6 4 7 8 11 12 14 rings

>  <PUBCHEM_HEAVY_ATOM_COUNT>  (1) 
14

>  <PUBCHEM_ATOM_DEF_STEREO_COUNT>  (1) 
0

>  <PUBCHEM_ATOM_UDEF_STEREO_COUNT>  (1) 
0

>  <PUBCHEM_BOND_DEF_STEREO_COUNT>  (1) 
0

>  <PUBCHEM_BOND_UDEF_STEREO_COUNT>  (1) 
0

>  <PUBCHEM_ISOTOPIC_ATOM_COUNT>  (1) 
0

>  <PUBCHEM_COMPONENT_COUNT>  (1) 
1

>  <PUBCHEM_CACTVS_TAUTO_COUNT>  (1) 
1

>  <PUBCHEM_CONFORMER_ID>  (1) 
00008DF600000001

>  <PUBCHEM_MMFF94_ENERGY>  (1) 
42.7731

>  <PUBCHEM_FEATURE_SELFOVERLAP>  (1) 
10.149

>  <PUBCHEM_SHAPE_FINGERPRINT>  (1) 
10219947 1 18410576184390971544
11471102 20 18409443678740187693
11578080 2 12542925893271929975
12236239 1 17703791418385266795
12326174 3 18188199918913367514
124424 183 17604137173375022344
13140716 1 18266454498678424250
13538477 17 17417805175783941671
13581323 91 15140679189541647433
14251717 144 18411133645302608487
14993402 34 18272370888489038852
15219456 202 17967532371967153677
15309172 13 18409452513403571418
15775835 57 18342175608781585988
16945 1 18410573989805101574
17844478 74 17894635842020253597
18175812 5 17676490570295162711
18186145 218 18343022215708058996
19049666 15 17751071414885933021
193761 8 17762056532580009188
19422 9 17703792509170122015
200 152 18272080609240853911
20201158 50 18186519869425164675
20279233 1 17749106690580927875
20645477 70 18337944585328382807
21061003 4 18336273365997287953
21501502 16 18047752603059730616
21639500 275 18339353192556170493
22802520 49 17896872154139749741
23236772 104 17775284971537738787
23402539 116 18272363166538741182
23419403 2 16094804430765502658
23728640 28 15237220292001591995
25 1 18334008363585925663
2748010 2 18194973069944698766
3060560 45 18411408531688685199
350125 39 17472707295952299720
474 4 17700961395899709352
528886 8 18412259553904685946
568465 68 18115040674253522130
589210 1 17689713481988275444
63268167 104 18343016718065673360
77492 1 17703791422611655813
81228 2 17328009976445565282
8272917 22 18270126695542670887

>  <PUBCHEM_SHAPE_MULTIPOLES>  (1) 
291.85
5.31
2.19
1.03
1.29
0
0
0
0
-1.44
0
0.91
0
0

>  <PUBCHEM_SHAPE_SELFOVERLAP>  (1) 
616.709

>  <PUBCHEM_SHAPE_VOLUME>  (1) 
157.9

>  <PUBCHEM_COORDINATE_TYPE>  (1) 
2
5
10

$$$$
