36341
     RDKit          3D

 22 24  0  0  0  0  0  0  0  0999 V2000
   -5.2829   -3.2381   -1.3872 Br  0  0  0  0  0  0  0  0  0  0  0  0
    3.4761    1.3428   -1.6806 O   0  0  0  0  0  0  0  0  0  0  0  0
    4.3434    0.1184    0.0932 N   0  0  0  0  0  0  0  0  0  0  0  0
   -0.4173    1.4149   -0.3277 N   0  0  0  0  0  0  0  0  0  0  0  0
   -1.2861    0.4476   -0.6066 N   0  0  0  0  0  0  0  0  0  0  0  0
   -0.8224    2.3940    0.4753 N   0  0  0  0  0  0  0  0  0  0  0  0
   -2.0743    2.0645    0.7690 N   0  0  0  0  0  0  0  0  0  0  0  0
    6.1698   -2.0105    0.7954 C   0  0  0  0  0  0  0  0  0  0  0  0
    6.2785   -1.2709   -0.5372 C   0  0  0  0  0  0  0  0  0  0  0  0
    4.7344   -1.9849    1.3187 C   0  0  0  0  0  0  0  0  0  0  0  0
    5.7101    0.1416   -0.4324 C   0  0  0  0  0  0  0  0  0  0  0  0
    4.1938   -0.5584    1.3877 C   0  0  0  0  0  0  0  0  0  0  0  0
    3.3177    0.7474   -0.6118 C   0  0  0  0  0  0  0  0  0  0  0  0
    1.9389    0.6763   -0.0056 C   0  0  0  0  0  0  0  0  0  0  0  0
    0.9332    1.4029   -0.8830 C   0  0  0  0  0  0  0  0  0  0  0  0
   -2.3206    0.8980    0.1078 C   0  0  0  0  0  0  0  0  0  0  0  0
   -3.5835    0.2249    0.1815 C   0  0  0  0  0  0  0  0  0  0  0  0
   -3.7840   -0.9683   -0.5156 C   0  0  0  0  0  0  0  0  0  0  0  0
   -4.6181    0.7606    0.9515 C   0  0  0  0  0  0  0  0  0  0  0  0
   -5.0137   -1.6230   -0.4431 C   0  0  0  0  0  0  0  0  0  0  0  0
   -5.8477    0.1060    1.0240 C   0  0  0  0  0  0  0  0  0  0  0  0
   -6.0454   -1.0858    0.3269 C   0  0  0  0  0  0  0  0  0  0  0  0
  1 20  1  0
  2 13  2  0
  3 11  1  0
  3 12  1  0
  3 13  1  0
  4  5  1  0
  4  6  1  0
  4 15  1  0
  5 16  2  0
  6  7  2  0
  7 16  1  0
  8  9  1  0
  8 10  1  0
  9 11  1  0
 10 12  1  0
 13 14  1  0
 14 15  1  0
 16 17  1  0
 17 18  2  0
 17 19  1  0
 18 20  1  0
 19 21  2  0
 20 22  2  0
 21 22  1  0
M  END
>  <PUBCHEM_COMPOUND_CID>  (1) 
36341

>  <PUBCHEM_CONFORMER_RMSD>  (1) 
0.8

>  <PUBCHEM_CONFORMER_DIVERSEORDER>  (1) 
1
16
43
124
29
7
19
4
59
42
72
77
46
107
111
92
95
88
6
70
35
75
48
9
57
86
38
62
103
32
80
127
91
40
28
26
113
99
116
58
20
5
119
18
109
56
31
84
67
123
22
115
45
53
76
54
2
71
64
66
105
122
125
37
74
39
87
78
41
110
27
100
128
3
68
81
82
112
69
106
11
24
83
12
89
15
98
52
17
73
55
118
96
34
21
63
120
30
97
85
10
47
102
126
14
33
36
13
8
93
108
60
50
101
117
79
90
94
44
114
25
49
65
121
23
51
104
61

>  <PUBCHEM_MMFF94_PARTIAL_CHARGES>  (1) 
23
1 -0.11
11 0.3
12 0.3
13 0.57
14 0.06
15 0.26
16 0.46
17 0.05
18 -0.15
19 -0.15
2 -0.57
20 0.11
21 -0.15
22 -0.15
3 -0.66
37 0.15
38 0.15
39 0.15
4 0.58
40 0.15
5 -0.71
6 -0.42
7 -0.23

>  <PUBCHEM_EFFECTIVE_ROTOR_COUNT>  (1) 
6.2

>  <PUBCHEM_PHARMACOPHORE_FEATURES>  (1) 
6
1 1 hydrophobe
1 2 acceptor
3 5 7 16 cation
5 4 5 6 7 16 rings
6 17 18 19 20 21 22 rings
6 3 8 9 10 11 12 rings

>  <PUBCHEM_HEAVY_ATOM_COUNT>  (1) 
22

>  <PUBCHEM_ATOM_DEF_STEREO_COUNT>  (1) 
0

>  <PUBCHEM_ATOM_UDEF_STEREO_COUNT>  (1) 
0

>  <PUBCHEM_BOND_DEF_STEREO_COUNT>  (1) 
0

>  <PUBCHEM_BOND_UDEF_STEREO_COUNT>  (1) 
0

>  <PUBCHEM_ISOTOPIC_ATOM_COUNT>  (1) 
0

>  <PUBCHEM_COMPONENT_COUNT>  (1) 
1

>  <PUBCHEM_CACTVS_TAUTO_COUNT>  (1) 
1

>  <PUBCHEM_CONFORMER_ID>  (1) 
00008DF500000001

>  <PUBCHEM_MMFF94_ENERGY>  (1) 
33.9096

>  <PUBCHEM_FEATURE_SELFOVERLAP>  (1) 
30.447

>  <PUBCHEM_SHAPE_FINGERPRINT>  (1) 
10 15 16128651968408006474
10319926 262 17418100888139505513
10622 236 17678721355256141850
11524674 6 16774076267744208759
12166972 35 18040157326990507020
12236239 1 18334582330057056380
12592606 108 18335420193237106635
12596602 18 17917710227511146018
12616971 3 18261117382889674845
12760667 363 18334858316349938283
12839892 36 18131351899345401551
13075007 39 16702014339804554754
13533116 47 18261396671944601780
13668630 136 17458068179048908779
13862211 1 18342177804121823375
1420 369 18335137570770515072
14347332 77 18114460063674388108
15163728 17 11386630876953925393
15183329 4 15502367911801884045
15188451 53 18272080591496508262
15326921 28 17770228159255346537
15348495 7 16988837319397546131
15728490 51 18341046419821240542
15880784 105 18202565107044190400
17134984 74 16805323322974475130
17780758 139 17917993880410743753
17857418 61 18408885143970922519
17913733 40 14836410215621376935
18222031 100 18040149613598469044
19784866 240 17967258580639768285
20028762 73 18411978057786383550
20281389 69 12031794638555901482
20526848 3 10231753396774481826
20645477 70 16950287312705273260
20843269 155 18127964407353003423
21033648 29 15554457266994504297
220451 1 18409456898523041148
22061861 79 16732982037566754759
23198884 109 11241970378065286377
23522609 53 18121251794154948364
23559900 14 17241056525382395300
270888 7 10519694601605367962
2748736 6 9655576301170193298
2767999 5 10303810969189815330
3004659 81 18040152924690972744
312425 54 18131348617826714243
314194 84 18260271871158769664
3472631 163 9295280656105507072
351380 3 18334012787349558050
397830 11 15123219004906393815
46194498 28 15141256467553623414
465052 167 18335706018656790686
5085150 59 17846775235521040991
5104073 3 17631178661760482601
531348 171 18260541213617513605
559249 180 18411700985593229943
7970288 3 18339918333249316151
96874 4 18408877451632436442

>  <PUBCHEM_SHAPE_MULTIPOLES>  (1) 
427.92
18.85
2.66
1.27
7.12
1.34
0
13.28
-2.07
-1.94
0.39
0.51
0.26
-3.16

>  <PUBCHEM_SHAPE_SELFOVERLAP>  (1) 
887.887

>  <PUBCHEM_SHAPE_VOLUME>  (1) 
247.7

>  <PUBCHEM_COORDINATE_TYPE>  (1) 
2
5
10

$$$$
