36357
     RDKit          3D

 25 25  0  0  0  0  0  0  0  0999 V2000
   -0.8237   -0.1862   -1.3959 O   0  0  0  0  0  0  0  0  0  0  0  0
    5.1732   -0.4404    0.5938 O   0  0  0  0  0  0  0  0  0  0  0  0
    8.5542   -0.0054   -0.1757 O   0  0  0  0  0  0  0  0  0  0  0  0
    7.5424   -0.6297    1.6747 O   0  0  0  0  0  0  0  0  0  0  0  0
   -2.9897   -0.0819    0.2798 N   0  0  0  0  0  0  0  0  0  0  0  0
    0.5569   -0.6584    0.4048 N   0  0  0  0  0  0  0  0  0  0  0  0
    1.6814   -0.3783   -0.2934 N   0  0  0  0  0  0  0  0  0  0  0  0
    7.4930   -0.2633    0.4641 N   0  0  0  0  0  0  0  0  0  0  0  0
   -2.9003    1.2910    0.7629 C   0  0  0  0  0  0  0  0  0  0  0  0
   -4.2177   -0.7183    0.7596 C   0  0  0  0  0  0  0  0  0  0  0  0
   -3.7882    2.2078   -0.0768 C   0  0  0  0  0  0  0  0  0  0  0  0
   -4.6185   -1.8644   -0.1678 C   0  0  0  0  0  0  0  0  0  0  0  0
   -3.6929    3.6586    0.4000 C   0  0  0  0  0  0  0  0  0  0  0  0
   -5.9129   -2.5305    0.3038 C   0  0  0  0  0  0  0  0  0  0  0  0
   -1.8197   -0.8540    0.7016 C   0  0  0  0  0  0  0  0  0  0  0  0
   -4.6070    4.5734   -0.4149 C   0  0  0  0  0  0  0  0  0  0  0  0
   -6.2982   -3.7004   -0.6014 C   0  0  0  0  0  0  0  0  0  0  0  0
   -0.6675   -0.5358   -0.2277 C   0  0  0  0  0  0  0  0  0  0  0  0
   -4.4900    6.0212    0.0343 C   0  0  0  0  0  0  0  0  0  0  0  0
   -7.6014   -4.3441   -0.1554 C   0  0  0  0  0  0  0  0  0  0  0  0
    2.7728   -0.5201    0.3876 C   0  0  0  0  0  0  0  0  0  0  0  0
    4.0799   -0.2645   -0.1940 C   0  0  0  0  0  0  0  0  0  0  0  0
    4.4527    0.1430   -1.4538 C   0  0  0  0  0  0  0  0  0  0  0  0
    5.8656    0.2226   -1.4389 C   0  0  0  0  0  0  0  0  0  0  0  0
    6.2557   -0.1418   -0.1713 C   0  0  0  0  0  0  0  0  0  0  0  0
  1 18  2  0
  2 22  1  0
  2 25  1  0
  3  8  1  0
  4  8  2  0
  5  9  1  0
  5 10  1  0
  5 15  1  0
  6  7  1  0
  6 18  1  0
  7 21  2  0
  8 25  1  0
  9 11  1  0
 10 12  1  0
 11 13  1  0
 12 14  1  0
 13 16  1  0
 14 17  1  0
 15 18  1  0
 16 19  1  0
 17 20  1  0
 21 22  1  0
 22 23  2  0
 23 24  1  0
 24 25  2  0
M  CHG  2   3  -1   8   1
M  END
>  <PUBCHEM_COMPOUND_CID>  (1) 
36357

>  <PUBCHEM_CONFORMER_RMSD>  (1) 
1.2

>  <PUBCHEM_CONFORMER_DIVERSEORDER>  (1) 
1
65
75
64
79
63
40
48
14
16
31
66
44
53
80
74
3
77
56
23
82
68
29
12
5
35
42
32
22
67
4
7
55
71
8
76
72
58
15
21
46
10
51
38
73
43
30
26
33
45
11
13
81
60
61
50
34
41
47
25
24
57
59
18
62
28
37
36
69
27
6
70
39
78
2
52
49
19
20
17
54
9

>  <PUBCHEM_MMFF94_PARTIAL_CHARGES>  (1) 
21
1 -0.57
10 0.27
15 0.33
18 0.57
2 -0.28
21 0.47
22 0.05
23 -0.15
24 -0.15
25 0.22
3 -0.52
4 -0.52
5 -0.81
50 0.37
51 0.06
52 0.15
53 0.15
6 -0.37
7 -0.51
8 0.96
9 0.27

>  <PUBCHEM_EFFECTIVE_ROTOR_COUNT>  (1) 
14

>  <PUBCHEM_PHARMACOPHORE_FEATURES>  (1) 
11
1 1 acceptor
1 19 hydrophobe
1 2 acceptor
1 20 hydrophobe
1 3 acceptor
1 3 anion
1 4 acceptor
1 5 cation
1 6 donor
1 7 acceptor
5 2 22 23 24 25 rings

>  <PUBCHEM_HEAVY_ATOM_COUNT>  (1) 
25

>  <PUBCHEM_ATOM_DEF_STEREO_COUNT>  (1) 
0

>  <PUBCHEM_ATOM_UDEF_STEREO_COUNT>  (1) 
0

>  <PUBCHEM_BOND_DEF_STEREO_COUNT>  (1) 
0

>  <PUBCHEM_BOND_UDEF_STEREO_COUNT>  (1) 
1

>  <PUBCHEM_ISOTOPIC_ATOM_COUNT>  (1) 
0

>  <PUBCHEM_COMPONENT_COUNT>  (1) 
1

>  <PUBCHEM_CACTVS_TAUTO_COUNT>  (1) 
2

>  <PUBCHEM_CONFORMER_ID>  (1) 
00008E0500000001

>  <PUBCHEM_MMFF94_ENERGY>  (1) 
24.0521

>  <PUBCHEM_FEATURE_SELFOVERLAP>  (1) 
55.917

>  <PUBCHEM_SHAPE_FINGERPRINT>  (1) 
10050765 1 18266459806583671371
10319688 45 18269555099952399919
10411042 1 18266741471477251355
11056379 131 18411426103075223463
11101153 10 18263371450304213413
11315181 36 17604154804284415634
12107183 9 17756140086064772058
13540713 5 17969489421408935507
13631057 29 18409165541454583315
13673619 4 17845658174324297971
14068700 675 18262519312139552567
14556957 393 18188783850536222597
16126227 98 18196379109405634209
19427546 20 18409167684869863805
20771845 65 17984145031798463875
21130935 74 18337103472519883466
21315759 40 17894910754682893062
21315763 129 18411140251405577188
21315763 28 18410293636337244058
21426921 1 18410858742327266241
23081809 10 17822019696692321134
249057 25 17894921741134974556
283562 15 18333168367495563619
57634706 229 17843136805289177161
5969126 39 18341327877581301823
6327066 14 18119247251819779461
6698420 124 17698740107834492241

>  <PUBCHEM_SHAPE_MULTIPOLES>  (1) 
471.09
23.86
5.93
1.07
39.04
9.62
-0.1
-13.52
0.57
-24.95
-0.59
1.34
-0.1
-1.02

>  <PUBCHEM_SHAPE_SELFOVERLAP>  (1) 
927.873

>  <PUBCHEM_SHAPE_VOLUME>  (1) 
282.3

>  <PUBCHEM_COORDINATE_TYPE>  (1) 
2
5
10

$$$$
