36355
     RDKit          3D

 16 17  0  0  0  0  0  0  0  0999 V2000
   -3.7848   -2.3969    0.6568 Cl  0  0  0  0  0  0  0  0  0  0  0  0
    0.5128    1.2588    2.0030 O   0  0  0  0  0  0  0  0  0  0  0  0
   -0.9265    0.3638    0.3586 C   0  0  0  0  0  0  0  0  0  0  0  0
   -1.4403    1.2580   -0.5646 C   0  0  0  0  0  0  0  0  0  0  0  0
    0.4030    0.5940    0.9613 C   0  0  0  0  0  0  0  0  0  0  0  0
    1.6064    0.0614    0.3427 C   0  0  0  0  0  0  0  0  0  0  0  0
   -1.6322   -0.7632    0.7450 C   0  0  0  0  0  0  0  0  0  0  0  0
   -2.6977    1.0186   -1.1185 C   0  0  0  0  0  0  0  0  0  0  0  0
   -0.6864    2.4774   -0.9857 C   0  0  0  0  0  0  0  0  0  0  0  0
   -2.8898   -1.0028    0.1910 C   0  0  0  0  0  0  0  0  0  0  0  0
   -3.4226   -0.1117   -0.7407 C   0  0  0  0  0  0  0  0  0  0  0  0
    1.5144   -0.6893   -0.8294 C   0  0  0  0  0  0  0  0  0  0  0  0
    2.8529    0.3015    0.9211 C   0  0  0  0  0  0  0  0  0  0  0  0
    2.6687   -1.2001   -1.4230 C   0  0  0  0  0  0  0  0  0  0  0  0
    4.0072   -0.2093    0.3273 C   0  0  0  0  0  0  0  0  0  0  0  0
    3.9149   -0.9601   -0.8448 C   0  0  0  0  0  0  0  0  0  0  0  0
  1 10  1  0
  2  5  2  0
  3  4  2  0
  3  5  1  0
  3  7  1  0
  4  8  1  0
  4  9  1  0
  5  6  1  0
  6 12  2  0
  6 13  1  0
  7 10  2  0
  8 11  2  0
 10 11  1  0
 12 14  1  0
 13 15  2  0
 14 16  2  0
 15 16  1  0
M  END
>  <PUBCHEM_COMPOUND_CID>  (1) 
36355

>  <PUBCHEM_CONFORMER_RMSD>  (1) 
0.6

>  <PUBCHEM_CONFORMER_DIVERSEORDER>  (1) 
1
2

>  <PUBCHEM_MMFF94_PARTIAL_CHARGES>  (1) 
24
1 -0.18
10 0.18
11 -0.15
12 -0.15
13 -0.15
14 -0.15
15 -0.15
16 -0.15
17 0.15
18 0.15
2 -0.57
22 0.15
23 0.15
24 0.15
25 0.15
26 0.15
27 0.15
3 0.09
4 -0.14
5 0.4
6 0.09
7 -0.15
8 -0.15
9 0.14

>  <PUBCHEM_EFFECTIVE_ROTOR_COUNT>  (1) 
2

>  <PUBCHEM_PHARMACOPHORE_FEATURES>  (1) 
3
1 2 acceptor
6 3 4 7 8 10 11 rings
6 6 12 13 14 15 16 rings

>  <PUBCHEM_HEAVY_ATOM_COUNT>  (1) 
16

>  <PUBCHEM_ATOM_DEF_STEREO_COUNT>  (1) 
0

>  <PUBCHEM_ATOM_UDEF_STEREO_COUNT>  (1) 
0

>  <PUBCHEM_BOND_DEF_STEREO_COUNT>  (1) 
0

>  <PUBCHEM_BOND_UDEF_STEREO_COUNT>  (1) 
0

>  <PUBCHEM_ISOTOPIC_ATOM_COUNT>  (1) 
0

>  <PUBCHEM_COMPONENT_COUNT>  (1) 
1

>  <PUBCHEM_CACTVS_TAUTO_COUNT>  (1) 
1

>  <PUBCHEM_CONFORMER_ID>  (1) 
00008E0300000001

>  <PUBCHEM_MMFF94_ENERGY>  (1) 
51.6455

>  <PUBCHEM_FEATURE_SELFOVERLAP>  (1) 
15.223

>  <PUBCHEM_SHAPE_FINGERPRINT>  (1) 
10465860 71 17967816076221769301
11543360 7 18040444304083827350
11640471 11 16299786426112502253
12202030 40 18343864441652053459
12236239 1 16443339849708791249
12251169 10 11815603190640882154
13296908 3 17775282725306584222
13571099 52 9006789669843753811
13583140 156 18049686756193640528
14386348 63 18343865523883741191
15309172 13 16702019772832721382
15375462 189 15770056129455094546
15775835 57 15791736256538932590
16752209 62 17459172110604460963
16945 1 18188771639142475689
17134986 127 16888906800748173757
17844478 74 18273496762568126732
18534176 82 18335978671100690797
19141452 34 18200317740412935095
192875 21 15719105873072920356
19422 9 14549014399139511868
19862831 5 16732700549473001199
200 152 17131823231822186044
20201158 50 18202560653216065790
20279233 1 18343297050575847606
20645476 183 16443337659824278619
20645477 70 17274534326316788198
20871999 31 18040434412784778519
21061003 4 17561080315016017640
22445834 79 15123504809146510255
22802520 49 18338796706554637045
228727 97 16950563259594824497
23382010 3 15430602895183381451
23402539 116 17967525775092669902
23526113 38 18058151861049034050
23557571 272 18335416880799209632
23559900 14 18263635191845677178
2748010 2 18117542128158917573
3082319 5 17313104129241542074
474 4 15193279903445870282
4921388 177 18261401005181260783
6442390 28 17832993745982349645
7364860 26 17904485452140031021
74978 22 14418436389872263198
77492 1 14836116693208717640
81228 2 18263086526421161105
84936 31 17914608603846374168
9981440 41 16085055383601617300

>  <PUBCHEM_SHAPE_MULTIPOLES>  (1) 
325.27
7
1.96
1.4
1.93
0.26
0.2
-3.73
-1.11
-1.93
-0.27
0.58
0.17
1.25

>  <PUBCHEM_SHAPE_SELFOVERLAP>  (1) 
697.136

>  <PUBCHEM_SHAPE_VOLUME>  (1) 
181.3

>  <PUBCHEM_COORDINATE_TYPE>  (1) 
2
5
10

$$$$
