36377
     RDKit          3D

 18 19  0  0  1  0  0  0  0  0999 V2000
   -5.2586   -1.0063    0.4169 Cl  0  0  0  0  0  0  0  0  0  0  0  0
    0.5473    2.1955   -0.0280 O   0  0  0  0  0  0  0  0  0  0  0  0
    2.1830   -0.4894   -1.1727 N   0  0  0  0  0  0  0  0  0  0  0  0
    1.2623   -0.2939    1.0650 N   0  0  0  0  0  0  0  0  0  0  0  0
    2.4111   -2.7843   -0.3637 C   0  0  0  0  0  0  0  0  0  0  0  0
    2.1893   -2.5986    1.1413 C   0  0  0  0  0  0  0  0  0  0  0  0
    3.0952   -1.6083   -1.0502 C   0  0  0  0  0  0  0  0  0  0  0  0
    0.2969    0.9762   -0.6929 C   0  0  0  0  0  0  0  0  0  0  0  0
    1.3290   -0.0176   -0.1926 C   0  0  0  0  0  0  0  0  0  0  0  0
    2.2731   -1.1658    1.6526 C   0  0  0  0  0  0  0  0  0  0  0  0
   -1.0902    0.4807   -0.4160 C   0  0  0  0  0  0  0  0  0  0  0  0
   -1.7446   -0.3037   -1.3604 C   0  0  0  0  0  0  0  0  0  0  0  0
   -1.7130    0.8086    0.7840 C   0  0  0  0  0  0  0  0  0  0  0  0
    1.8632    2.6793   -0.2821 C   0  0  0  0  0  0  0  0  0  0  0  0
   -3.0356   -0.7647   -1.1022 C   0  0  0  0  0  0  0  0  0  0  0  0
   -3.0040    0.3475    1.0423 C   0  0  0  0  0  0  0  0  0  0  0  0
   -3.6653   -0.4391    0.0991 C   0  0  0  0  0  0  0  0  0  0  0  0
    2.0607    3.9841    0.4595 C   0  0  0  0  0  0  0  0  0  0  0  0
  1 17  1  0
  2  8  1  0
  2 14  1  0
  3  7  1  0
  3  9  1  0
  4  9  2  0
  4 10  1  0
  5  6  1  0
  5  7  1  0
  6 10  1  0
  8  9  1  0
  8 11  1  0
 11 12  2  0
 11 13  1  0
 12 15  1  0
 13 16  2  0
 14 18  1  0
 15 17  2  0
 16 17  1  0
M  END
>  <PUBCHEM_COMPOUND_CID>  (1) 
36377

>  <PUBCHEM_CONFORMER_RMSD>  (1) 
0.6

>  <PUBCHEM_CONFORMER_DIVERSEORDER>  (1) 
1
38
45
29
48
13
42
36
49
14
34
22
50
32
33
30
35
26
39
37
5
18
47
6
43
23
24
46
44
27
40
25
20
41
12
4
28
16
15
31
11
21
19
10
9
3
7
2
8
17

>  <PUBCHEM_MMFF94_PARTIAL_CHARGES>  (1) 
20
1 -0.18
10 0.25
11 -0.14
12 -0.15
13 -0.15
14 0.28
15 -0.15
16 -0.15
17 0.18
2 -0.56
28 0.4
29 0.15
3 -0.82
30 0.15
33 0.15
34 0.15
4 -0.7
7 0.37
8 0.48
9 0.44

>  <PUBCHEM_EFFECTIVE_ROTOR_COUNT>  (1) 
5

>  <PUBCHEM_PHARMACOPHORE_FEATURES>  (1) 
5
1 2 acceptor
1 3 donor
3 3 4 9 cation
6 11 12 13 15 16 17 rings
7 3 4 5 6 7 9 10 rings

>  <PUBCHEM_HEAVY_ATOM_COUNT>  (1) 
18

>  <PUBCHEM_ATOM_DEF_STEREO_COUNT>  (1) 
0

>  <PUBCHEM_ATOM_UDEF_STEREO_COUNT>  (1) 
1

>  <PUBCHEM_BOND_DEF_STEREO_COUNT>  (1) 
0

>  <PUBCHEM_BOND_UDEF_STEREO_COUNT>  (1) 
0

>  <PUBCHEM_ISOTOPIC_ATOM_COUNT>  (1) 
0

>  <PUBCHEM_COMPONENT_COUNT>  (1) 
1

>  <PUBCHEM_CACTVS_TAUTO_COUNT>  (1) 
1

>  <PUBCHEM_CONFORMER_ID>  (1) 
00008E1900000001

>  <PUBCHEM_MMFF94_ENERGY>  (1) 
44.4773

>  <PUBCHEM_FEATURE_SELFOVERLAP>  (1) 
25.371

>  <PUBCHEM_SHAPE_FINGERPRINT>  (1) 
11578080 2 18129080256656695465
12553582 1 18339641127116416615
12644460 14 18199201731424807017
12707595 3 18334571304918036743
12788726 201 17686070391927879384
13140716 1 18120650494506047560
13533116 47 18336557101071230563
14787075 74 18261123976065173614
15906896 17 17256243744336168964
16945 1 18409442609166678461
1813 80 18270686355123862710
18915476 22 18263625411862480685
20361792 2 18338509725377209463
20369508 70 18334572434752800951
20559304 39 18059860592576895481
20645477 70 18336541720476754423
21452121 199 18189609437434039698
21524375 3 17834386096737816772
21731516 1 18263642861908317895
2255824 54 18340209690691839764
23419403 2 14138823942582417696
23557571 272 17905026077064100178
23558518 356 16827548025984288341
23559900 14 18272092695220873959
23598288 3 17395595899674792568
23598291 2 18199208251095816505
23728640 28 16822196097311687114
31174 14 18407757053883895317
3286 77 17895184494312370163
4340502 62 18047193231251800131
474 4 18124599948636853601
59755656 520 17833546078544474452
7364860 26 18340771536823049484
7970288 3 18266183833597639287
81228 2 17617920453746848064
81539 233 18119525680973229981
90316 7 17981328884832278360

>  <PUBCHEM_SHAPE_MULTIPOLES>  (1) 
356.47
6.89
3.44
1.36
9.05
2.71
-0.11
-3.35
-0.57
-5.08
-0.52
-0.29
-0.49
-0.16

>  <PUBCHEM_SHAPE_SELFOVERLAP>  (1) 
727.216

>  <PUBCHEM_SHAPE_VOLUME>  (1) 
206.4

>  <PUBCHEM_COORDINATE_TYPE>  (1) 
2
5
10

$$$$
