36376
     RDKit          3D

 23 26  0  0  0  0  0  0  0  0999 V2000
    1.9212   -3.2142   -0.0424 O   0  0  0  0  0  0  0  0  0  0  0  0
    5.1351    2.1612    0.3060 O   0  0  0  0  0  0  0  0  0  0  0  0
   -4.1597   -1.0266   -0.1131 C   0  0  0  0  0  0  0  0  0  0  0  0
   -2.7142   -1.4779   -0.0934 C   0  0  0  0  0  0  0  0  0  0  0  0
   -1.8490   -0.3634   -0.0159 C   0  0  0  0  0  0  0  0  0  0  0  0
   -4.0141    0.4789   -0.0384 C   0  0  0  0  0  0  0  0  0  0  0  0
   -2.6495    0.8417    0.0180 C   0  0  0  0  0  0  0  0  0  0  0  0
   -0.4758   -0.5396    0.0158 C   0  0  0  0  0  0  0  0  0  0  0  0
   -2.2247   -2.7713   -0.1402 C   0  0  0  0  0  0  0  0  0  0  0  0
    0.0254   -1.8442   -0.0306 C   0  0  0  0  0  0  0  0  0  0  0  0
   -5.0169    1.4321   -0.0214 C   0  0  0  0  0  0  0  0  0  0  0  0
   -2.2783    2.1737    0.0923 C   0  0  0  0  0  0  0  0  0  0  0  0
   -0.8403   -2.9488   -0.1081 C   0  0  0  0  0  0  0  0  0  0  0  0
   -4.6423    2.7749    0.0536 C   0  0  0  0  0  0  0  0  0  0  0  0
   -3.2867    3.1420    0.1098 C   0  0  0  0  0  0  0  0  0  0  0  0
    1.4636   -2.0628   -0.0001 C   0  0  0  0  0  0  0  0  0  0  0  0
    2.4425   -0.9374    0.0816 C   0  0  0  0  0  0  0  0  0  0  0  0
    2.8394   -0.4993    1.3235 C   0  0  0  0  0  0  0  0  0  0  0  0
    2.9078   -0.3840   -1.0887 C   0  0  0  0  0  0  0  0  0  0  0  0
    3.7532    0.5518    1.3996 C   0  0  0  0  0  0  0  0  0  0  0  0
    3.8217    0.6671   -1.0127 C   0  0  0  0  0  0  0  0  0  0  0  0
    4.2446    1.1350    0.2316 C   0  0  0  0  0  0  0  0  0  0  0  0
    5.5969    2.7112   -0.9270 C   0  0  0  0  0  0  0  0  0  0  0  0
  1 16  2  0
  2 22  1  0
  2 23  1  0
  3  4  1  0
  3  6  1  0
  4  5  2  0
  4  9  1  0
  5  7  1  0
  5  8  1  0
  6  7  2  0
  6 11  1  0
  7 12  1  0
  8 10  2  0
  9 13  2  0
 10 13  1  0
 10 16  1  0
 11 14  2  0
 12 15  2  0
 14 15  1  0
 16 17  1  0
 17 18  2  0
 17 19  1  0
 18 20  1  0
 19 21  2  0
 20 22  2  0
 21 22  1  0
M  END
>  <PUBCHEM_COMPOUND_CID>  (1) 
36376

>  <PUBCHEM_CONFORMER_RMSD>  (1) 
0.6

>  <PUBCHEM_CONFORMER_DIVERSEORDER>  (1) 
1
8
11
3
7
6
2
5
10
4
9

>  <PUBCHEM_MMFF94_PARTIAL_CHARGES>  (1) 
32
1 -0.57
10 0.09
11 -0.15
12 -0.15
13 -0.15
14 -0.15
15 -0.15
16 0.4
17 0.09
18 -0.15
19 -0.15
2 -0.36
20 -0.15
21 -0.15
22 0.08
23 0.28
26 0.15
27 0.15
28 0.15
29 0.15
3 0.29
30 0.15
31 0.15
32 0.15
33 0.15
34 0.15
35 0.15
36 0.15
4 -0.14
6 -0.14
8 -0.15
9 -0.15

>  <PUBCHEM_EFFECTIVE_ROTOR_COUNT>  (1) 
3.2

>  <PUBCHEM_PHARMACOPHORE_FEATURES>  (1) 
6
1 1 acceptor
1 2 acceptor
5 3 4 5 6 7 rings
6 17 18 19 20 21 22 rings
6 4 5 8 9 10 13 rings
6 6 7 11 12 14 15 rings

>  <PUBCHEM_HEAVY_ATOM_COUNT>  (1) 
23

>  <PUBCHEM_ATOM_DEF_STEREO_COUNT>  (1) 
0

>  <PUBCHEM_ATOM_UDEF_STEREO_COUNT>  (1) 
0

>  <PUBCHEM_BOND_DEF_STEREO_COUNT>  (1) 
0

>  <PUBCHEM_BOND_UDEF_STEREO_COUNT>  (1) 
0

>  <PUBCHEM_ISOTOPIC_ATOM_COUNT>  (1) 
0

>  <PUBCHEM_COMPONENT_COUNT>  (1) 
1

>  <PUBCHEM_CACTVS_TAUTO_COUNT>  (1) 
1

>  <PUBCHEM_CONFORMER_ID>  (1) 
00008E1800000001

>  <PUBCHEM_MMFF94_ENERGY>  (1) 
93.0862

>  <PUBCHEM_FEATURE_SELFOVERLAP>  (1) 
30.613

>  <PUBCHEM_SHAPE_FINGERPRINT>  (1) 
10411042 1 17546164563802831503
10498660 4 18341898493413211784
10615611 76 17460047377562890236
10670039 82 18336552694039074732
10871710 139 18340202015880940927
10928967 22 9366767667712115437
11059048 146 17841166449670058336
11720765 8 17487065458133584230
12107183 9 18263067835472354986
12173636 292 18340199709599632007
12390115 104 18271539644940333729
12403260 363 18123736579075172091
12596602 18 17313659468380936096
12788726 201 17608390243102260371
13140716 1 17975698612547174811
13617811 41 18338222800974119685
13726171 33 18340777047504130640
13965767 371 18040710321431015788
14251764 75 18270411468727893369
14468879 13 18334865991403885707
14739800 52 18194947760024593376
14767858 380 18269535248802760973
14790565 3 18410860970571995137
14840074 17 17313675944287434364
14848178 96 18268707204213659705
15163728 17 18336841869923600494
15342168 16 18337106778831752781
20101258 96 17689159328091778435
20715895 44 17904189344241612237
21133410 127 18041283141304804092
21756936 100 18198894989540654892
21864079 5 18409730651259147918
23227448 37 18341893034557141029
23559900 14 18057036909120012338
245318 6 17532952707766515564
2838139 119 18199743808164516132
3472631 163 18410575106191046660
350125 39 18193557770519664182
44802255 64 17556597757673517596
469060 322 18120394278527878739
474 4 17967822595876791743
5048184 11 18410858732898860448
5104073 3 18262523572626057659
6034566 193 18340505403812873273
6299153 45 18335133169151762712
633830 44 18199181781322920423
7064713 232 18335698330043105012
7288768 16 17968097546560972226
7808743 9 18338516447412588200
9981440 41 18335419105687546554

>  <PUBCHEM_SHAPE_MULTIPOLES>  (1) 
461.59
11.48
3.92
0.92
5.28
0.04
0.09
10.92
-0.54
-1.19
-0.28
1.1
0.13
-0.66

>  <PUBCHEM_SHAPE_SELFOVERLAP>  (1) 
1038.956

>  <PUBCHEM_SHAPE_VOLUME>  (1) 
245.6

>  <PUBCHEM_COORDINATE_TYPE>  (1) 
2
5
10

$$$$
