36383
     RDKit          3D

 20 20  0  0  0  0  0  0  0  0999 V2000
    4.2051    3.0040   -0.5924 O   0  0  0  0  0  0  0  0  0  0  0  0
    4.2500   -3.4405    0.6277 O   0  0  0  0  0  0  0  0  0  0  0  0
   -5.6638   -0.8419    0.6893 O   0  0  0  0  0  0  0  0  0  0  0  0
   -1.0308    3.1017    0.7527 O   0  0  0  0  0  0  0  0  0  0  0  0
   -2.9256    2.0508    0.4004 O   0  0  0  0  0  0  0  0  0  0  0  0
    2.5725   -0.2385   -0.0283 N   0  0  0  0  0  0  0  0  0  0  0  0
   -3.0356   -0.3455   -0.2527 N   0  0  0  0  0  0  0  0  0  0  0  0
   -1.6736    2.0695    0.4498 N   0  0  0  0  0  0  0  0  0  0  0  0
    1.1632   -0.2586   -0.0828 C   0  0  0  0  0  0  0  0  0  0  0  0
    3.2764    0.9819    0.3121 C   0  0  0  0  0  0  0  0  0  0  0  0
    3.3356   -1.4343   -0.3254 C   0  0  0  0  0  0  0  0  0  0  0  0
    0.4372    0.8971    0.2050 C   0  0  0  0  0  0  0  0  0  0  0  0
   -1.6242   -0.2991   -0.1909 C   0  0  0  0  0  0  0  0  0  0  0  0
    0.4956   -1.4347   -0.4245 C   0  0  0  0  0  0  0  0  0  0  0  0
   -0.9565    0.8769    0.1508 C   0  0  0  0  0  0  0  0  0  0  0  0
    3.5464    1.7936   -0.9434 C   0  0  0  0  0  0  0  0  0  0  0  0
    3.5314   -2.2535    0.9389 C   0  0  0  0  0  0  0  0  0  0  0  0
   -0.8982   -1.4549   -0.4784 C   0  0  0  0  0  0  0  0  0  0  0  0
   -3.7563   -1.5294   -0.5983 C   0  0  0  0  0  0  0  0  0  0  0  0
   -5.2486   -1.2446   -0.6097 C   0  0  0  0  0  0  0  0  0  0  0  0
  1 16  1  0
  2 17  1  0
  3 20  1  0
  4  8  1  0
  5  8  2  0
  6  9  1  0
  6 10  1  0
  6 11  1  0
  7 13  1  0
  7 19  1  0
  8 15  1  0
  9 12  2  0
  9 14  1  0
 10 16  1  0
 11 17  1  0
 12 15  1  0
 13 15  2  0
 13 18  1  0
 14 18  2  0
 19 20  1  0
M  CHG  2   4  -1   8   1
M  END
>  <PUBCHEM_COMPOUND_CID>  (1) 
36383

>  <PUBCHEM_CONFORMER_RMSD>  (1) 
0.8

>  <PUBCHEM_CONFORMER_DIVERSEORDER>  (1) 
3
47
44
87
76
31
52
69
81
29
50
55
49
68
85
30
64
16
80
22
73
78
74
60
43
7
6
46
41
71
70
56
66
5
20
86
27
59
63
21
4
45
53
48
17
12
83
28
26
62
32
36
72
38
58
8
42
39
54
67
25
33
35
82
11
34
40
23
14
24
19
51
84
65
75
18
77
57
9
61
10
79
15
37
13
1
2

>  <PUBCHEM_MMFF94_PARTIAL_CHARGES>  (1) 
27
1 -0.68
10 0.37
11 0.37
12 -0.15
13 0.1
14 -0.15
15 0.13
16 0.28
17 0.28
18 -0.15
19 0.37
2 -0.68
20 0.28
25 0.15
26 0.15
3 -0.68
31 0.15
32 0.4
37 0.4
38 0.4
39 0.4
4 -0.52
5 -0.52
6 -0.84
7 -0.87
8 0.91
9 0.1

>  <PUBCHEM_EFFECTIVE_ROTOR_COUNT>  (1) 
9

>  <PUBCHEM_PHARMACOPHORE_FEATURES>  (1) 
13
1 1 acceptor
1 1 donor
1 2 acceptor
1 2 donor
1 3 acceptor
1 3 donor
1 4 acceptor
1 4 anion
1 5 acceptor
1 6 cation
1 7 cation
1 7 donor
6 9 12 13 14 15 18 rings

>  <PUBCHEM_HEAVY_ATOM_COUNT>  (1) 
20

>  <PUBCHEM_ATOM_DEF_STEREO_COUNT>  (1) 
0

>  <PUBCHEM_ATOM_UDEF_STEREO_COUNT>  (1) 
0

>  <PUBCHEM_BOND_DEF_STEREO_COUNT>  (1) 
0

>  <PUBCHEM_BOND_UDEF_STEREO_COUNT>  (1) 
0

>  <PUBCHEM_ISOTOPIC_ATOM_COUNT>  (1) 
0

>  <PUBCHEM_COMPONENT_COUNT>  (1) 
1

>  <PUBCHEM_CACTVS_TAUTO_COUNT>  (1) 
1

>  <PUBCHEM_CONFORMER_ID>  (1) 
00008E1F00000003

>  <PUBCHEM_MMFF94_ENERGY>  (1) 
76.5154

>  <PUBCHEM_FEATURE_SELFOVERLAP>  (1) 
66.057

>  <PUBCHEM_SHAPE_FINGERPRINT>  (1) 
10090160 65 18116989090720762964
12916754 54 18262233326719291071
13009979 54 18128819642936605522
13140716 1 18198901414099690288
13533116 47 18334295361685357418
13583140 156 17461169746816782585
13760787 5 18411694413787326519
13955234 65 18334853957164160266
14178342 30 17982444902257094090
14787075 74 18117836831408137519
14790565 3 18053392273230098705
15042514 8 18197498416104010721
15099037 8 18410289173206840602
15196674 1 18412825772644782437
15442244 35 18266457612271360994
16945 1 18198335350426685400
17492 89 18339641131596253286
20645477 70 18260823804510955750
21267235 1 18412552002581314830
21501502 16 18341054029817727088
23366157 5 18187087235353799126
23402539 116 18201990007309186199
23558518 356 18337956675397245536
23559900 14 18340194198929497290
23598291 2 18262242088985383254
23622692 118 18340199692277305230
25147074 1 18340781351028971248
312423 11 18337961103582399934
314194 84 18339921649306810447
34934 24 18198621236213645902
350125 39 18411982434214704356
352729 6 18057323881749365765
4340502 62 17240758553272283651
45790113 50 18410289198945165134
474 4 17823422772192792260
5104073 3 18271242725086939601
5312544 6 18408325509874672110
5374978 207 18341324561059583674
537710 114 18339363096798279909
53777708 50 18411986823581850536
59554788 191 18268703909762604454
67856867 119 18409722972332519288
7164475 11 18410570660947302844
7364860 26 18410290320691082830
9981440 41 18191021425429032512

>  <PUBCHEM_SHAPE_MULTIPOLES>  (1) 
367.3
9.78
3.36
0.85
6.73
0.71
0.01
-3.42
0.18
-3.44
-0.52
-0.17
-0.01
-1.8

>  <PUBCHEM_SHAPE_SELFOVERLAP>  (1) 
743.729

>  <PUBCHEM_SHAPE_VOLUME>  (1) 
214.2

>  <PUBCHEM_COORDINATE_TYPE>  (1) 
2
5
10

$$$$
