36382
     RDKit          3D

 13 13  0  0  0  0  0  0  0  0999 V2000
   -5.0221    0.0786    0.9516 N   0  0  0  0  0  0  0  0  0  0  0  0
    2.7310   -0.0894   -0.6199 C   0  0  0  0  0  0  0  0  0  0  0  0
    1.3148   -0.0073   -0.0471 C   0  0  0  0  0  0  0  0  0  0  0  0
    3.7846    0.0258    0.4829 C   0  0  0  0  0  0  0  0  0  0  0  0
    0.2625   -0.0886   -1.1550 C   0  0  0  0  0  0  0  0  0  0  0  0
    5.1998   -0.0225   -0.0926 C   0  0  0  0  0  0  0  0  0  0  0  0
   -1.1373   -0.0445   -0.5979 C   0  0  0  0  0  0  0  0  0  0  0  0
    6.2493    0.1258    0.9972 C   0  0  0  0  0  0  0  0  0  0  0  0
   -1.7718   -1.2288   -0.2545 C   0  0  0  0  0  0  0  0  0  0  0  0
   -1.7681    1.1802   -0.4364 C   0  0  0  0  0  0  0  0  0  0  0  0
   -3.0669   -1.1879    0.2619 C   0  0  0  0  0  0  0  0  0  0  0  0
   -3.0632    1.2213    0.0802 C   0  0  0  0  0  0  0  0  0  0  0  0
   -3.7126    0.0372    0.4294 C   0  0  0  0  0  0  0  0  0  0  0  0
  1 13  1  0
  2  3  1  0
  2  4  1  0
  3  5  1  0
  4  6  1  0
  5  7  1  0
  6  8  1  0
  7  9  2  0
  7 10  1  0
  9 11  1  0
 10 12  2  0
 11 13  2  0
 12 13  1  0
M  END
>  <PUBCHEM_COMPOUND_CID>  (1) 
36382

>  <PUBCHEM_CONFORMER_RMSD>  (1) 
0.6

>  <PUBCHEM_CONFORMER_DIVERSEORDER>  (1) 
1
18
20
3
14
22
8
2
6
30
24
12
27
21
23
17
19
26
4
25
15
13
5
32
16
28
10
9
31
7
11
29

>  <PUBCHEM_MMFF94_PARTIAL_CHARGES>  (1) 
14
1 -0.9
10 -0.15
11 -0.15
12 -0.15
13 0.1
27 0.15
28 0.15
29 0.15
30 0.15
31 0.4
32 0.4
5 0.14
7 -0.14
9 -0.15

>  <PUBCHEM_EFFECTIVE_ROTOR_COUNT>  (1) 
5

>  <PUBCHEM_PHARMACOPHORE_FEATURES>  (1) 
5
1 1 cation
1 1 donor
1 8 hydrophobe
5 2 3 4 5 6 hydrophobe
6 7 9 10 11 12 13 rings

>  <PUBCHEM_HEAVY_ATOM_COUNT>  (1) 
13

>  <PUBCHEM_ATOM_DEF_STEREO_COUNT>  (1) 
0

>  <PUBCHEM_ATOM_UDEF_STEREO_COUNT>  (1) 
0

>  <PUBCHEM_BOND_DEF_STEREO_COUNT>  (1) 
0

>  <PUBCHEM_BOND_UDEF_STEREO_COUNT>  (1) 
0

>  <PUBCHEM_ISOTOPIC_ATOM_COUNT>  (1) 
0

>  <PUBCHEM_COMPONENT_COUNT>  (1) 
1

>  <PUBCHEM_CACTVS_TAUTO_COUNT>  (1) 
1

>  <PUBCHEM_CONFORMER_ID>  (1) 
00008E1E00000001

>  <PUBCHEM_MMFF94_ENERGY>  (1) 
27.6035

>  <PUBCHEM_FEATURE_SELFOVERLAP>  (1) 
25.371

>  <PUBCHEM_SHAPE_FINGERPRINT>  (1) 
10014705 185 15123500437260121362
100836 57 16128658561367532424
114248 4 8070027761853891286
12251169 10 18408606971765956045
12507560 40 18341052895809152750
13214271 11 16773798112750544613
13288520 33 14418135119243585763
14123238 8 18334012796382448300
1420 363 15430035449026896736
14251718 22 8502368941236269874
15242439 84 8358255938992871102
15501527 16 17846776321735679272
17834072 33 17603872230239104564
17834076 25 15052013468450958264
1813 80 16443635597326492590
187816 3 9367345925165544687
19050596 39 18333734654110487924
200 152 14851603288800476404
20432913 95 16298104259706290048
20645464 45 17988931071862610623
20645477 56 17775001289021574140
20645477 70 12757415139148905696
20767249 213 16128374882618892299
20828058 44 18334293176016027846
20871999 31 9079123237026781343
21119208 17 10735875071298972934
21637258 2 16298672793249045747
2297311 6 18338811039303719772
23402539 116 18413102871123516005
23402655 69 12535355575410025842
23403322 49 12829202265583340208
26918003 58 17022906761252784105
351380 3 16370440056061311762
42 15 18187365428664330742
449060 50 18202565068774541284

>  <PUBCHEM_SHAPE_MULTIPOLES>  (1) 
262.55
12.27
1.07
0.96
16.03
0
0.02
-0.41
-5
-1.11
0.03
0.18
0
0.1

>  <PUBCHEM_SHAPE_SELFOVERLAP>  (1) 
519.035

>  <PUBCHEM_SHAPE_VOLUME>  (1) 
157.7

>  <PUBCHEM_COORDINATE_TYPE>  (1) 
2
5
10

$$$$
