36389
     RDKit          3D

 13 12  0  0  1  0  0  0  0  0999 V2000
   -3.5124   -0.9398    0.3700 Cl  0  0  0  0  0  0  0  0  0  0  0  0
   -2.2139    0.4129   -1.8586 Cl  0  0  0  0  0  0  0  0  0  0  0  0
   -2.5470    1.7800    0.6900 Cl  0  0  0  0  0  0  0  0  0  0  0  0
    0.1783    0.6120    0.0936 O   0  0  0  0  0  0  0  0  0  0  0  0
   -0.5594   -1.6111   -0.1903 O   0  0  0  0  0  0  0  0  0  0  0  0
    1.4730    0.1793    0.5295 C   0  0  0  0  0  0  0  0  0  0  0  0
    2.4792    1.2876    0.1626 C   0  0  0  0  0  0  0  0  0  0  0  0
    1.3716   -0.0393    2.0395 C   0  0  0  0  0  0  0  0  0  0  0  0
   -0.8402   -0.3414    0.4013 C   0  0  0  0  0  0  0  0  0  0  0  0
    2.5144    1.6772   -1.3097 C   0  0  0  0  0  0  0  0  0  0  0  0
    1.7980   -1.0906   -0.1477 C   0  0  0  0  0  0  0  0  0  0  0  0
   -2.2007    0.1975   -0.0801 C   0  0  0  0  0  0  0  0  0  0  0  0
    2.0593   -2.1242   -0.7002 C   0  0  0  0  0  0  0  0  0  0  0  0
  1 12  1  0
  2 12  1  0
  3 12  1  0
  4  6  1  0
  4  9  1  0
  5  9  1  0
  6  7  1  0
  6  8  1  0
  6 11  1  0
  7 10  1  0
  9 12  1  0
 11 13  3  0
M  END
>  <PUBCHEM_COMPOUND_CID>  (1) 
36389

>  <PUBCHEM_CONFORMER_RMSD>  (1) 
0.6

>  <PUBCHEM_CONFORMER_DIVERSEORDER>  (1) 
2
4
3
5
6
1

>  <PUBCHEM_MMFF94_PARTIAL_CHARGES>  (1) 
12
1 -0.29
11 -0.2
12 0.87
13 -0.18
2 -0.29
23 0.4
24 0.18
3 -0.29
4 -0.56
5 -0.68
6 0.48
9 0.56

>  <PUBCHEM_EFFECTIVE_ROTOR_COUNT>  (1) 
4

>  <PUBCHEM_PHARMACOPHORE_FEATURES>  (1) 
5
1 10 hydrophobe
1 13 hydrophobe
1 4 acceptor
1 5 acceptor
1 5 donor

>  <PUBCHEM_HEAVY_ATOM_COUNT>  (1) 
13

>  <PUBCHEM_ATOM_DEF_STEREO_COUNT>  (1) 
0

>  <PUBCHEM_ATOM_UDEF_STEREO_COUNT>  (1) 
2

>  <PUBCHEM_BOND_DEF_STEREO_COUNT>  (1) 
0

>  <PUBCHEM_BOND_UDEF_STEREO_COUNT>  (1) 
0

>  <PUBCHEM_ISOTOPIC_ATOM_COUNT>  (1) 
0

>  <PUBCHEM_COMPONENT_COUNT>  (1) 
1

>  <PUBCHEM_CACTVS_TAUTO_COUNT>  (1) 
1

>  <PUBCHEM_CONFORMER_ID>  (1) 
00008E2500000002

>  <PUBCHEM_MMFF94_ENERGY>  (1) 
30.1715

>  <PUBCHEM_FEATURE_SELFOVERLAP>  (1) 
25.41

>  <PUBCHEM_SHAPE_FINGERPRINT>  (1) 
107287 299 18339089301106880963
10922523 26 17843963641731255277
11031198 65 18201164342036216202
12326174 3 18040988510736535450
12932764 1 17203602701163687401
13380535 21 18269289008825681435
14648413 74 18336557001268617576
15310529 11 18131355206638634101
15775835 57 17418087728554713905
15852999 172 17909223088360764534
16945 1 18058717130443031177
170605 34 17968098689217295488
18511873 20 17628639639633905089
19786989 88 18261111915084979836
19973954 147 18411420566408522785
20082192 1 18187915175476846893
20511035 2 17915171317612776861
20708731 107 18341902874348379982
21028194 46 18115023146782377404
21501502 16 18341624680742338819
21524375 3 17752210745382837980
22802520 49 18200599081527741121
23552423 10 18338801108959600851
23557571 272 17675923222674850357
2748010 2 18340764845385068223
3248919 1 18338784646502747689
45790113 50 18271253733462658319
5084963 1 18341890741007584131
549884 4 17131839793137101168
7364860 26 18343585131597153936
74978 22 18043523928578494257
8030462 33 17988634199227806917
81228 2 16975599431728478362

>  <PUBCHEM_SHAPE_MULTIPOLES>  (1) 
261.4
4.99
1.96
1.5
2.34
0.17
-0.02
-0.52
-0.44
-0.77
-0.38
-0.11
-0.29
-0.13

>  <PUBCHEM_SHAPE_SELFOVERLAP>  (1) 
479.019

>  <PUBCHEM_SHAPE_VOLUME>  (1) 
166.9

>  <PUBCHEM_COORDINATE_TYPE>  (1) 
2
5
10

$$$$
