36386
     RDKit          3D

 16 17  0  0  1  0  0  0  0  0999 V2000
   -0.8680    1.2739   -0.1003 O   0  0  0  0  0  0  0  0  0  0  0  0
   -1.2076   -1.9971   -0.9691 N   0  0  0  0  0  0  0  0  0  0  0  0
   -0.6272   -1.3655    1.1388 N   0  0  0  0  0  0  0  0  0  0  0  0
   -0.1108    0.2151   -0.6636 C   0  0  0  0  0  0  0  0  0  0  0  0
   -0.6631   -1.0681   -0.1354 C   0  0  0  0  0  0  0  0  0  0  0  0
   -1.6228   -3.1451   -0.2212 C   0  0  0  0  0  0  0  0  0  0  0  0
    1.3483    0.3717   -0.3193 C   0  0  0  0  0  0  0  0  0  0  0  0
   -1.2725   -2.7128    1.2106 C   0  0  0  0  0  0  0  0  0  0  0  0
   -2.2509    1.1521   -0.4094 C   0  0  0  0  0  0  0  0  0  0  0  0
   -3.0004    2.3148    0.2229 C   0  0  0  0  0  0  0  0  0  0  0  0
    1.7055    0.9962    0.8666 C   0  0  0  0  0  0  0  0  0  0  0  0
    2.3108   -0.1116   -1.1934 C   0  0  0  0  0  0  0  0  0  0  0  0
    3.0557    1.1409    1.1855 C   0  0  0  0  0  0  0  0  0  0  0  0
    3.6610    0.0331   -0.8744 C   0  0  0  0  0  0  0  0  0  0  0  0
   -4.4914    2.2429   -0.0534 C   0  0  0  0  0  0  0  0  0  0  0  0
    4.0333    0.6594    0.3152 C   0  0  0  0  0  0  0  0  0  0  0  0
  1  4  1  0
  1  9  1  0
  2  5  1  0
  2  6  1  0
  3  5  2  0
  3  8  1  0
  4  5  1  0
  4  7  1  0
  6  8  1  0
  7 11  2  0
  7 12  1  0
  9 10  1  0
 10 15  1  0
 11 13  1  0
 12 14  2  0
 13 16  2  0
 14 16  1  0
M  END
>  <PUBCHEM_COMPOUND_CID>  (1) 
36386

>  <PUBCHEM_CONFORMER_RMSD>  (1) 
0.6

>  <PUBCHEM_CONFORMER_DIVERSEORDER>  (1) 
1
18
8
3
20
14
2
17
10
15
7
4
19
9
16
13
21
11
12
5
6

>  <PUBCHEM_MMFF94_PARTIAL_CHARGES>  (1) 
20
1 -0.56
11 -0.15
12 -0.15
13 -0.15
14 -0.15
16 -0.15
2 -0.82
22 0.4
27 0.15
28 0.15
29 0.15
3 -0.7
30 0.15
34 0.15
4 0.48
5 0.44
6 0.37
7 -0.14
8 0.25
9 0.28

>  <PUBCHEM_EFFECTIVE_ROTOR_COUNT>  (1) 
5.6

>  <PUBCHEM_PHARMACOPHORE_FEATURES>  (1) 
6
1 1 acceptor
1 15 hydrophobe
1 2 donor
3 2 3 5 cation
5 2 3 5 6 8 rings
6 7 11 12 13 14 16 rings

>  <PUBCHEM_HEAVY_ATOM_COUNT>  (1) 
16

>  <PUBCHEM_ATOM_DEF_STEREO_COUNT>  (1) 
0

>  <PUBCHEM_ATOM_UDEF_STEREO_COUNT>  (1) 
1

>  <PUBCHEM_BOND_DEF_STEREO_COUNT>  (1) 
0

>  <PUBCHEM_BOND_UDEF_STEREO_COUNT>  (1) 
0

>  <PUBCHEM_ISOTOPIC_ATOM_COUNT>  (1) 
0

>  <PUBCHEM_COMPONENT_COUNT>  (1) 
1

>  <PUBCHEM_CACTVS_TAUTO_COUNT>  (1) 
1

>  <PUBCHEM_CONFORMER_ID>  (1) 
00008E2200000001

>  <PUBCHEM_MMFF94_ENERGY>  (1) 
41.8755

>  <PUBCHEM_FEATURE_SELFOVERLAP>  (1) 
30.446

>  <PUBCHEM_SHAPE_FINGERPRINT>  (1) 
10922049 32 18339929208074243797
11322862 65 18408890611411731599
11578080 2 16126665262629315587
116883 192 18196933498913286127
12138202 97 18413673508672881508
12500047 106 18411700980760328996
12532896 13 18410851036522889111
12788726 201 18045228386270946595
13538477 17 17822013159114013908
136203 1 18265614458414074595
14178342 30 18261943150692746282
15502708 68 18046626707511184813
15885798 251 17976265952025861355
15906896 17 18260838132605972123
16752209 62 18261391199876503563
16945 1 18336829804759209063
18186145 218 18200871756006069381
19049666 15 18272376369099605310
201361 129 17766568949770626481
20361792 2 17833274498918946246
20524608 308 18341331175266956382
20711985 344 18263922313981884019
21524375 3 18267021657088073509
22112679 90 17603870061011750868
22956985 138 17317325004458146459
23402539 116 18272357647015720740
23419403 2 17037598263587584875
23526113 38 17700147512397083782
23558518 356 18191579967896817872
23559900 14 18343023260371464756
25 1 18057887948178201196
276578 36 18188208676372763392
3071541 236 18334286595825378527
3250762 1 18055628670926907921
427121 178 18265625294674844481
474229 33 18408609154411260409
57672749 33 17541369146937905915
59755656 520 18337103480127973557
6049 1 17916318306236590084
633830 44 18058163930224413589
7364860 26 17763460613313440725
7615 1 17531805900169313284
81228 2 18190736629846145065
81539 233 18044656391443564533
84936 182 17838617756141923617
88987 49 18335990856318646116
9981440 41 16697191933360977128

>  <PUBCHEM_SHAPE_MULTIPOLES>  (1) 
313.44
6.51
3.14
1.15
0.75
2.34
-0.12
-5.29
0.03
-4.29
-0.53
0.53
0.27
0.56

>  <PUBCHEM_SHAPE_SELFOVERLAP>  (1) 
649.213

>  <PUBCHEM_SHAPE_VOLUME>  (1) 
181

>  <PUBCHEM_COORDINATE_TYPE>  (1) 
2
5
10

$$$$
