36384
     RDKit          3D

 19 20  0  0  1  0  0  0  0  0999 V2000
    1.1194   -1.8947    0.8191 O   0  0  0  0  0  0  0  0  0  0  0  0
   -1.8068   -0.5892   -0.3399 N   0  0  0  0  0  0  0  0  0  0  0  0
   -0.0656   -1.1101   -1.7196 N   0  0  0  0  0  0  0  0  0  0  0  0
   -2.4976   -0.9521   -1.5499 C   0  0  0  0  0  0  0  0  0  0  0  0
   -0.4613   -0.7773   -0.5154 C   0  0  0  0  0  0  0  0  0  0  0  0
   -2.5166   -0.3705    0.8927 C   0  0  0  0  0  0  0  0  0  0  0  0
    0.5239   -0.6272    0.6022 C   0  0  0  0  0  0  0  0  0  0  0  0
   -1.3244   -1.1307   -2.5220 C   0  0  0  0  0  0  0  0  0  0  0  0
   -2.5516    1.1152    1.2409 C   0  0  0  0  0  0  0  0  0  0  0  0
   -3.2850    1.9507    0.1887 C   0  0  0  0  0  0  0  0  0  0  0  0
    1.5742    0.4008    0.2733 C   0  0  0  0  0  0  0  0  0  0  0  0
   -3.3603    3.4142    0.5955 C   0  0  0  0  0  0  0  0  0  0  0  0
    2.7395    0.0052   -0.3682 C   0  0  0  0  0  0  0  0  0  0  0  0
    1.3614    1.7287    0.6157 C   0  0  0  0  0  0  0  0  0  0  0  0
    0.1477   -2.8856    1.1322 C   0  0  0  0  0  0  0  0  0  0  0  0
    3.7123    0.9572   -0.6732 C   0  0  0  0  0  0  0  0  0  0  0  0
    2.3342    2.6806    0.3106 C   0  0  0  0  0  0  0  0  0  0  0  0
    0.8469   -4.2102    1.3512 C   0  0  0  0  0  0  0  0  0  0  0  0
    3.5097    2.2948   -0.3339 C   0  0  0  0  0  0  0  0  0  0  0  0
  1  7  1  0
  1 15  1  0
  2  4  1  0
  2  5  1  0
  2  6  1  0
  3  5  2  0
  3  8  1  0
  4  8  1  0
  5  7  1  0
  6  9  1  0
  7 11  1  0
  9 10  1  0
 10 12  1  0
 11 13  2  0
 11 14  1  0
 13 16  1  0
 14 17  2  0
 15 18  1  0
 16 19  2  0
 17 19  1  0
M  END
>  <PUBCHEM_COMPOUND_CID>  (1) 
36384

>  <PUBCHEM_CONFORMER_RMSD>  (1) 
0.8

>  <PUBCHEM_CONFORMER_DIVERSEORDER>  (1) 
1
60
21
27
33
76
23
69
10
62
22
50
71
77
24
59
61
52
31
51
28
53
2
65
38
79
73
13
12
49
19
30
14
46
55
36
80
20
25
40
42
63
47
66
74
29
75
37
54
5
41
34
16
43
67
57
45
48
56
8
70
35
9
4
39
7
32
26
72
44
18
17
15
11
78
58
3
64
68
6

>  <PUBCHEM_MMFF94_PARTIAL_CHARGES>  (1) 
20
1 -0.56
11 -0.14
13 -0.15
14 -0.15
15 0.28
16 -0.15
17 -0.15
19 -0.15
2 -0.79
3 -0.7
34 0.15
35 0.15
38 0.15
39 0.15
4 0.37
43 0.15
5 0.44
6 0.37
7 0.48
8 0.25

>  <PUBCHEM_EFFECTIVE_ROTOR_COUNT>  (1) 
7.6

>  <PUBCHEM_PHARMACOPHORE_FEATURES>  (1) 
5
1 1 acceptor
1 12 hydrophobe
3 2 3 5 cation
5 2 3 4 5 8 rings
6 11 13 14 16 17 19 rings

>  <PUBCHEM_HEAVY_ATOM_COUNT>  (1) 
19

>  <PUBCHEM_ATOM_DEF_STEREO_COUNT>  (1) 
0

>  <PUBCHEM_ATOM_UDEF_STEREO_COUNT>  (1) 
1

>  <PUBCHEM_BOND_DEF_STEREO_COUNT>  (1) 
0

>  <PUBCHEM_BOND_UDEF_STEREO_COUNT>  (1) 
0

>  <PUBCHEM_ISOTOPIC_ATOM_COUNT>  (1) 
0

>  <PUBCHEM_COMPONENT_COUNT>  (1) 
1

>  <PUBCHEM_CACTVS_TAUTO_COUNT>  (1) 
1

>  <PUBCHEM_CONFORMER_ID>  (1) 
00008E2000000001

>  <PUBCHEM_MMFF94_ENERGY>  (1) 
43.9664

>  <PUBCHEM_FEATURE_SELFOVERLAP>  (1) 
25.371

>  <PUBCHEM_SHAPE_FINGERPRINT>  (1) 
10756046 70 17910939258829609079
11221954 11 18051989021620703177
12173636 292 18263652933780453448
12930653 34 18189071862178883299
13134695 92 17614560333327215813
13583140 156 18044947770894259265
14251751 93 18272939327284446965
14787075 74 17761765570184689407
14817 1 14274280459257148423
15309172 13 17895187874113950382
15848702 68 17902792955683818633
16945 1 17987509493242796902
17357779 13 16750136910142111590
201361 129 18335424504286707579
20361792 2 11023563456979943878
21041028 32 17396977955752886546
21524375 3 18272662250580977473
23419403 2 17048022853599798747
23557571 272 17542228312638707820
23598291 2 18270385088827049935
25 1 18410016567653957876
266924 78 18045191917872786111
298252 57 17775014478623598778
4175511 71 17689152310135763419
5939293 188 17693100665023655393
81228 2 17697868521172178617
9981440 41 17122802001389701368

>  <PUBCHEM_SHAPE_MULTIPOLES>  (1) 
375.18
5.59
4.24
1.66
0.54
1.72
0.96
-5.82
0.26
-0.08
-2.19
-0.92
1.15
-1.4

>  <PUBCHEM_SHAPE_SELFOVERLAP>  (1) 
766.513

>  <PUBCHEM_SHAPE_VOLUME>  (1) 
219.5

>  <PUBCHEM_COORDINATE_TYPE>  (1) 
2
5
10

$$$$
