36390
     RDKit          3D

 24 26  0  0  0  0  0  0  0  0999 V2000
    0.0000    1.7834   -0.0002 N   0  0  0  0  0  0  0  0  0  0  0  0
   -4.7942    1.9010    0.0034 N   0  0  0  0  0  0  0  0  0  0  0  0
    4.7945    1.9007   -0.0026 N   0  0  0  0  0  0  0  0  0  0  0  0
   -4.9380   -0.9865    0.0030 C   0  0  0  0  0  0  0  0  0  0  0  0
    4.9379   -0.9865   -0.0032 C   0  0  0  0  0  0  0  0  0  0  0  0
   -3.6415   -0.2453    0.0028 C   0  0  0  0  0  0  0  0  0  0  0  0
    3.6415   -0.2453   -0.0022 C   0  0  0  0  0  0  0  0  0  0  0  0
   -1.2147   -0.2935    0.0009 C   0  0  0  0  0  0  0  0  0  0  0  0
    1.2146   -0.2935   -0.0007 C   0  0  0  0  0  0  0  0  0  0  0  0
   -2.4500   -0.9644    0.0020 C   0  0  0  0  0  0  0  0  0  0  0  0
    2.4500   -0.9644   -0.0013 C   0  0  0  0  0  0  0  0  0  0  0  0
   -4.7056   -2.5286    0.0024 C   0  0  0  0  0  0  0  0  0  0  0  0
   -5.7878   -0.6367   -1.2569 C   0  0  0  0  0  0  0  0  0  0  0  0
   -5.8699   -0.7048    1.2271 C   0  0  0  0  0  0  0  0  0  0  0  0
    4.7055   -2.5286   -0.0031 C   0  0  0  0  0  0  0  0  0  0  0  0
    5.7882   -0.6373    1.2566 C   0  0  0  0  0  0  0  0  0  0  0  0
    5.8695   -0.7043   -1.2274 C   0  0  0  0  0  0  0  0  0  0  0  0
   -3.6026    1.1431    0.0025 C   0  0  0  0  0  0  0  0  0  0  0  0
    3.6025    1.1432   -0.0025 C   0  0  0  0  0  0  0  0  0  0  0  0
   -1.1671    1.1108    0.0006 C   0  0  0  0  0  0  0  0  0  0  0  0
    1.1671    1.1108   -0.0009 C   0  0  0  0  0  0  0  0  0  0  0  0
    0.0000   -0.9867    0.0001 C   0  0  0  0  0  0  0  0  0  0  0  0
   -2.3732    1.8067    0.0013 C   0  0  0  0  0  0  0  0  0  0  0  0
    2.3731    1.8067   -0.0018 C   0  0  0  0  0  0  0  0  0  0  0  0
  1 20  2  0
  1 21  1  0
  2 18  1  0
  3 19  1  0
  4  6  1  0
  4 12  1  0
  4 13  1  0
  4 14  1  0
  5  7  1  0
  5 15  1  0
  5 16  1  0
  5 17  1  0
  6 10  2  0
  6 18  1  0
  7 11  2  0
  7 19  1  0
  8 10  1  0
  8 20  1  0
  8 22  2  0
  9 11  1  0
  9 21  2  0
  9 22  1  0
 18 23  2  0
 19 24  2  0
 20 23  1  0
 21 24  1  0
M  END
>  <PUBCHEM_COMPOUND_CID>  (1) 
36390

>  <PUBCHEM_CONFORMER_RMSD>  (1) 
0.6

>  <PUBCHEM_CONFORMER_DIVERSEORDER>  (1) 
1

>  <PUBCHEM_MMFF94_PARTIAL_CHARGES>  (1) 
25
1 -0.62
10 -0.15
11 -0.15
18 0.1
19 0.1
2 -0.9
20 0.31
21 0.31
22 -0.15
23 -0.15
24 -0.15
25 0.15
26 0.15
3 -0.9
4 0.14
45 0.15
46 0.15
47 0.15
48 0.4
49 0.4
5 0.14
50 0.4
51 0.4
6 -0.14
7 -0.14

>  <PUBCHEM_EFFECTIVE_ROTOR_COUNT>  (1) 
2

>  <PUBCHEM_PHARMACOPHORE_FEATURES>  (1) 
10
1 1 acceptor
1 2 cation
1 2 donor
1 3 cation
1 3 donor
4 4 12 13 14 hydrophobe
4 5 15 16 17 hydrophobe
6 1 8 9 20 21 22 rings
6 6 8 10 18 20 23 rings
6 7 9 11 19 21 24 rings

>  <PUBCHEM_HEAVY_ATOM_COUNT>  (1) 
24

>  <PUBCHEM_ATOM_DEF_STEREO_COUNT>  (1) 
0

>  <PUBCHEM_ATOM_UDEF_STEREO_COUNT>  (1) 
0

>  <PUBCHEM_BOND_DEF_STEREO_COUNT>  (1) 
0

>  <PUBCHEM_BOND_UDEF_STEREO_COUNT>  (1) 
0

>  <PUBCHEM_ISOTOPIC_ATOM_COUNT>  (1) 
0

>  <PUBCHEM_COMPONENT_COUNT>  (1) 
1

>  <PUBCHEM_CACTVS_TAUTO_COUNT>  (1) 
10

>  <PUBCHEM_CONFORMER_ID>  (1) 
00008E2600000001

>  <PUBCHEM_MMFF94_ENERGY>  (1) 
133.9705

>  <PUBCHEM_FEATURE_SELFOVERLAP>  (1) 
50.806

>  <PUBCHEM_SHAPE_FINGERPRINT>  (1) 
10595046 47 18411138073276487148
11315181 36 18113620092551203027
11524674 6 16702304559804568487
12107183 9 17834677089060687123
12166972 35 18334300885134723364
12236239 1 18411981364361828097
12403259 226 18410568491894398788
12516196 113 17989202655107658392
12616971 3 17989486350867395173
13073987 5 18412826893104064040
13167823 11 18410571786128468423
13288520 33 18411983555290780989
13533116 47 18273215313798965960
13583140 156 14045745915974265503
13685833 64 18408045121303245338
13862211 1 18410851066382314983
14251764 18 18335136506167349312
14341114 176 18409173237761151273
14347332 77 18409163299169963597
15183329 4 18409166601683400534
15196674 1 18410856563935094661
15788980 27 18410012126140828517
17349148 13 18410859862469666176
17492 89 18268429032404695502
17844677 252 18411425007183362097
17857418 61 18410569591421357155
1813 80 17240484710531689868
18222031 100 17603302665661773900
18681886 176 18342454851219236944
18927931 339 18410299120947411591
200 152 18201998824275365513
20028762 73 18201434800570435254
20645477 70 18410856556046559318
21033648 29 17130970006535837154
21130935 74 17988925565298519994
21150785 3 16660936559758260566
21236236 1 18412826863798733577
21267235 1 18410582785539642019
21279426 13 18336825290838297421
21682296 61 18130232536510898894
21709351 56 18333446530503668197
21792934 111 18342168969590763425
22393880 68 18041549257218830909
23198884 109 14707206604848151303
23402539 116 18411976945220178437
23522609 53 18122660268349571748
23559900 14 18337383959110387513
23569914 152 17399481578447969295
239999 70 18273501161464068054
2871803 45 18259979383674707473
29717793 49 18272086093386641973
3004659 81 18333734607261557924
335352 9 18410573977585020245
34797466 226 17775293798228438036
350125 39 18410858745799619021
4073 2 18114467858829021106
4214541 1 18410573968388534221
465052 167 18272375261277832574
5104073 3 18413388730681951360
559249 180 18336541617038771531
59755656 215 18408322159853422607
59755656 520 16732989691889618945
7495541 125 17703787071640999841
9709674 26 18335144244849129739

>  <PUBCHEM_SHAPE_MULTIPOLES>  (1) 
478.97
15.44
2.29
0.87
0
0.03
0
5.65
0
0
0
0
0.18
0.04

>  <PUBCHEM_SHAPE_SELFOVERLAP>  (1) 
1049.283

>  <PUBCHEM_SHAPE_VOLUME>  (1) 
261.2

>  <PUBCHEM_COORDINATE_TYPE>  (1) 
2
5
10

$$$$
