36393
     RDKit          3D

 24 25  0  0  1  0  0  0  0  0999 V2000
   -1.2618   -0.2145    0.4008 O   0  0  0  0  0  0  0  0  0  0  0  0
    0.0697   -1.7782   -0.6391 O   0  0  0  0  0  0  0  0  0  0  0  0
   -4.8695   -0.7096   -0.1692 N   0  0  0  0  0  0  0  0  0  0  0  0
    1.0899    0.0409    0.6359 C   0  0  0  0  0  0  0  0  0  0  0  0
   -3.6504   -0.0955    0.3556 C   0  0  0  0  0  0  0  0  0  0  0  0
   -2.4207   -0.8544   -0.1173 C   0  0  0  0  0  0  0  0  0  0  0  0
    2.4414   -0.5937    0.3339 C   0  0  0  0  0  0  0  0  0  0  0  0
   -4.9717   -2.1004    0.2711 C   0  0  0  0  0  0  0  0  0  0  0  0
   -6.0465    0.0483    0.2540 C   0  0  0  0  0  0  0  0  0  0  0  0
    1.0548    1.5175    0.2648 C   0  0  0  0  0  0  0  0  0  0  0  0
   -0.0590   -0.7826    0.0622 C   0  0  0  0  0  0  0  0  0  0  0  0
    3.1850   -1.1033    1.3774 C   0  0  0  0  0  0  0  0  0  0  0  0
    2.8780   -0.6385   -0.9734 C   0  0  0  0  0  0  0  0  0  0  0  0
   -6.2016   -2.7728   -0.3150 C   0  0  0  0  0  0  0  0  0  0  0  0
   -5.9573    1.4969   -0.1952 C   0  0  0  0  0  0  0  0  0  0  0  0
    1.5865    2.4382    1.1438 C   0  0  0  0  0  0  0  0  0  0  0  0
    0.4922    1.8886   -0.9387 C   0  0  0  0  0  0  0  0  0  0  0  0
    4.8877   -1.7428   -0.2127 C   0  0  0  0  0  0  0  0  0  0  0  0
    4.4226   -1.6846    1.1009 C   0  0  0  0  0  0  0  0  0  0  0  0
    4.1155   -1.2199   -1.2500 C   0  0  0  0  0  0  0  0  0  0  0  0
    1.5540    3.7907    0.8041 C   0  0  0  0  0  0  0  0  0  0  0  0
    0.4598    3.2412   -1.2785 C   0  0  0  0  0  0  0  0  0  0  0  0
    0.9907    4.1922   -0.4071 C   0  0  0  0  0  0  0  0  0  0  0  0
    6.2109   -2.3638   -0.5084 C   0  0  0  0  0  0  0  0  0  0  0  0
  1  6  1  0
  1 11  1  0
  2 11  2  0
  3  5  1  0
  3  8  1  0
  3  9  1  0
  4  7  1  0
  4 10  1  0
  4 11  1  0
  5  6  1  0
  7 12  2  0
  7 13  1  0
  8 14  1  0
  9 15  1  0
 10 16  2  0
 10 17  1  0
 12 19  1  0
 13 20  2  0
 16 21  1  0
 17 22  2  0
 18 19  2  0
 18 20  1  0
 18 24  1  0
 21 23  2  0
 22 23  1  0
M  END
>  <PUBCHEM_COMPOUND_CID>  (1) 
36393

>  <PUBCHEM_CONFORMER_RMSD>  (1) 
1

>  <PUBCHEM_CONFORMER_DIVERSEORDER>  (1) 
1
102
118
76
67
132
43
138
53
51
86
33
20
110
22
143
62
63
127
95
10
28
79
54
90
66
65
99
141
128
70
140
64
121
103
57
122
136
9
104
139
144
119
68
34
85
45
106
17
23
3
91
114
25
42
52
113
31
14
40
46
75
112
2
59
92
61
97
87
109
130
124
111
26
55
101
44
49
96
39
8
84
6
125
15
11
80
88
73
48
71
74
41
35
38
29
47
83
105
60
18
108
58
30
37
82
78
4
77
36
123
69
100
126
134
142
115
94
24
98
129
116
137
117
5
107
72
12
131
93
16
21
19
133
50
56
7
120
89
32
13
81
27
135

>  <PUBCHEM_MMFF94_PARTIAL_CHARGES>  (1) 
31
1 -0.43
10 -0.14
11 0.66
12 -0.15
13 -0.15
16 -0.15
17 -0.15
18 -0.14
19 -0.15
2 -0.57
20 -0.15
21 -0.15
22 -0.15
23 -0.15
24 0.14
3 -0.81
34 0.15
35 0.15
4 0.35
42 0.15
43 0.15
44 0.15
45 0.15
46 0.15
47 0.15
48 0.15
5 0.27
6 0.28
7 -0.14
8 0.27
9 0.27

>  <PUBCHEM_EFFECTIVE_ROTOR_COUNT>  (1) 
9

>  <PUBCHEM_PHARMACOPHORE_FEATURES>  (1) 
4
1 2 acceptor
1 3 cation
6 10 16 17 21 22 23 rings
6 7 12 13 18 19 20 rings

>  <PUBCHEM_HEAVY_ATOM_COUNT>  (1) 
24

>  <PUBCHEM_ATOM_DEF_STEREO_COUNT>  (1) 
0

>  <PUBCHEM_ATOM_UDEF_STEREO_COUNT>  (1) 
1

>  <PUBCHEM_BOND_DEF_STEREO_COUNT>  (1) 
0

>  <PUBCHEM_BOND_UDEF_STEREO_COUNT>  (1) 
0

>  <PUBCHEM_ISOTOPIC_ATOM_COUNT>  (1) 
0

>  <PUBCHEM_COMPONENT_COUNT>  (1) 
1

>  <PUBCHEM_CACTVS_TAUTO_COUNT>  (1) 
1

>  <PUBCHEM_CONFORMER_ID>  (1) 
00008E2900000001

>  <PUBCHEM_MMFF94_ENERGY>  (1) 
57.5713

>  <PUBCHEM_FEATURE_SELFOVERLAP>  (1) 
20.297

>  <PUBCHEM_SHAPE_FINGERPRINT>  (1) 
10366900 7 17313098670834059307
11405975 8 18410294744512594907
12107183 9 18340210683689401385
12166972 35 18272090526246624171
12516196 113 18410012126521033066
12616971 3 18060140998856037127
12788726 201 18043531612560148842
13009979 54 18202293502224365249
13533116 47 18192713565239447763
13590594 115 18336275548184241633
14251764 30 18410573942450289454
14347329 18 16155091821943289501
14955137 171 18343584035942844991
15420108 30 17769635818818839152
1601671 61 18339924805695725231
17492 89 18267022946111427875
17844677 252 18411421756763381875
1813 80 18341900671072238358
18222031 100 18411702067149938018
18681886 176 18341889718837575115
20238998 120 18342738494981222952
20286276 3 18192717975801972627
21033648 29 17345736504988662003
21049683 271 18335427928067051004
21285901 2 17986403195878105574
21304303 172 18129951048369698577
21424621 283 8430303628863192470
21709351 56 18412537722384618687
22182313 1 18190152694540766612
23419403 2 17773570786024475664
23558518 356 18050277373667882431
23559900 14 18337949099655236123
249057 3 18411135806604549021
283562 15 18190747423589895530
3004659 81 18041002808883708318
3411729 13 18267296720016656960
4409770 3 17828190005012193285
5104073 3 18340774857740046947
513532 50 17916034636241870116
6086070 43 18262782018204359023
7164475 11 18044941160892299534
7495541 125 18261675960471689955
9841814 1 18260817237542305952
9971528 1 18342453755164014408

>  <PUBCHEM_SHAPE_MULTIPOLES>  (1) 
477.19
13.78
4.38
1.12
17.49
5.19
-0.01
-13.74
0.69
-1.61
0.38
-1.08
0.21
0.33

>  <PUBCHEM_SHAPE_SELFOVERLAP>  (1) 
991.671

>  <PUBCHEM_SHAPE_VOLUME>  (1) 
272.8

>  <PUBCHEM_COORDINATE_TYPE>  (1) 
2
5
10

$$$$
