36405
     RDKit          3D

 23 25  0  0  0  0  0  0  0  0999 V2000
   -1.8760    0.5218    1.6418 S   0  0  0  0  0  0  0  0  0  0  0  0
   -2.1446   -0.2173    2.8634 O   0  0  0  0  0  0  0  0  0  0  0  0
   -2.6519    1.7030    1.3113 O   0  0  0  0  0  0  0  0  0  0  0  0
    3.3564   -1.8569    0.8017 N   0  0  0  0  0  0  0  0  0  0  0  0
   -0.1710    0.9821    1.7287 C   0  0  0  0  0  0  0  0  0  0  0  0
    0.1122   -0.3009   -0.8414 C   0  0  0  0  0  0  0  0  0  0  0  0
   -2.1430   -0.6304    0.3170 C   0  0  0  0  0  0  0  0  0  0  0  0
    0.1938    1.7793    0.5133 C   0  0  0  0  0  0  0  0  0  0  0  0
   -1.2157   -0.9397   -0.6911 C   0  0  0  0  0  0  0  0  0  0  0  0
    0.3348    1.1522   -0.7341 C   0  0  0  0  0  0  0  0  0  0  0  0
    1.2057   -1.0671   -1.0182 C   0  0  0  0  0  0  0  0  0  0  0  0
    2.5957   -0.5220   -1.1080 C   0  0  0  0  0  0  0  0  0  0  0  0
   -3.3997   -1.2598    0.3504 C   0  0  0  0  0  0  0  0  0  0  0  0
    0.3951    3.1639    0.6081 C   0  0  0  0  0  0  0  0  0  0  0  0
   -1.6054   -1.8805   -1.6687 C   0  0  0  0  0  0  0  0  0  0  0  0
    0.6723    1.9089   -1.8657 C   0  0  0  0  0  0  0  0  0  0  0  0
    3.6162   -1.5387   -0.5978 C   0  0  0  0  0  0  0  0  0  0  0  0
   -3.7508   -2.1953   -0.6185 C   0  0  0  0  0  0  0  0  0  0  0  0
    0.7319    3.9114   -0.5208 C   0  0  0  0  0  0  0  0  0  0  0  0
   -2.8535   -2.5053   -1.6304 C   0  0  0  0  0  0  0  0  0  0  0  0
    0.8705    3.2845   -1.7563 C   0  0  0  0  0  0  0  0  0  0  0  0
    3.4097   -0.6468    1.6235 C   0  0  0  0  0  0  0  0  0  0  0  0
    4.3174   -2.8465    1.2918 C   0  0  0  0  0  0  0  0  0  0  0  0
  1  2  2  0
  1  3  2  0
  1  5  1  0
  1  7  1  0
  4 17  1  0
  4 22  1  0
  4 23  1  0
  5  8  1  0
  6  9  1  0
  6 10  1  0
  6 11  2  0
  7  9  2  0
  7 13  1  0
  8 10  2  0
  8 14  1  0
  9 15  1  0
 10 16  1  0
 11 12  1  0
 12 17  1  0
 13 18  2  0
 14 19  2  0
 15 20  2  0
 16 21  2  0
 18 20  1  0
 19 21  1  0
M  END
>  <PUBCHEM_COMPOUND_CID>  (1) 
36405

>  <PUBCHEM_CONFORMER_RMSD>  (1) 
0.6

>  <PUBCHEM_CONFORMER_DIVERSEORDER>  (1) 
6
14
20
21
2
12
10
11
5
9
16
15
13
4
19
17
1
3
7
18
8

>  <PUBCHEM_MMFF94_PARTIAL_CHARGES>  (1) 
32
1 1.2
10 0.03
11 -0.29
12 0.14
13 -0.15
14 -0.15
15 -0.15
16 -0.15
17 0.27
18 -0.15
19 -0.15
2 -0.65
20 -0.15
21 -0.15
22 0.27
23 0.27
26 0.15
29 0.15
3 -0.65
30 0.15
31 0.15
32 0.15
35 0.15
36 0.15
37 0.15
38 0.15
4 -0.81
5 0.25
6 -0.06
7 -0.01
8 -0.14
9 0.03

>  <PUBCHEM_EFFECTIVE_ROTOR_COUNT>  (1) 
3.2

>  <PUBCHEM_PHARMACOPHORE_FEATURES>  (1) 
6
1 2 acceptor
1 3 acceptor
1 4 cation
6 7 9 13 15 18 20 rings
6 8 10 14 16 19 21 rings
7 1 5 6 7 8 9 10 rings

>  <PUBCHEM_HEAVY_ATOM_COUNT>  (1) 
23

>  <PUBCHEM_ATOM_DEF_STEREO_COUNT>  (1) 
0

>  <PUBCHEM_ATOM_UDEF_STEREO_COUNT>  (1) 
0

>  <PUBCHEM_BOND_DEF_STEREO_COUNT>  (1) 
0

>  <PUBCHEM_BOND_UDEF_STEREO_COUNT>  (1) 
1

>  <PUBCHEM_ISOTOPIC_ATOM_COUNT>  (1) 
0

>  <PUBCHEM_COMPONENT_COUNT>  (1) 
1

>  <PUBCHEM_CACTVS_TAUTO_COUNT>  (1) 
1

>  <PUBCHEM_CONFORMER_ID>  (1) 
00008E3500000006

>  <PUBCHEM_MMFF94_ENERGY>  (1) 
73.5227

>  <PUBCHEM_FEATURE_SELFOVERLAP>  (1) 
30.476

>  <PUBCHEM_SHAPE_FINGERPRINT>  (1) 
10165383 225 16690242672265462860
11578080 2 18340469141003143988
121448 382 17044026450850067093
12156800 1 17253937102142850025
12422481 6 17255989774446268681
12592029 89 17756413121541658148
12633257 1 17559680525477629002
12643181 29 17043159474081827382
12788726 201 17824822231140076948
13004483 165 18337102346277777446
133893 2 18117564147997282468
13583140 156 17900296218459369393
13681431 1 18114462370177334116
13911987 19 17243043364953601854
13965767 371 17481451286599523091
14181834 199 18124583443097841966
14955137 171 17622778323687793142
15420108 30 17840910383804390016
16945 1 17842579360797311684
1813 80 18410287034350329862
19765921 60 17333936846635745959
19930374 2 17834128445685688693
20600515 1 18201709639647859390
20905425 154 16985474033998512117
21033648 29 17413890737878734281
21421861 104 18127980917080097515
22112679 90 18270141057501618620
23419403 2 17627185166012539125
23526113 38 16805600421120995430
23559900 14 17346050982514985446
23598288 3 17826807940623609662
25222932 49 16825930537675763339
27425 322 10613835710383255773
2748010 2 16900229619162509189
35225 105 17613419061769338168
394222 165 17837216243729934447
59554788 281 17405711862065266256
6786 2 17188115800460601704
6992083 37 18199768967475988871
81228 2 18196652895683074414
90316 7 18339644412998058190
9981440 41 16971373458913468848

>  <PUBCHEM_SHAPE_MULTIPOLES>  (1) 
460.46
5.85
4.18
2.21
1.07
3
0.7
-7.16
1.3
2.4
-0.94
-0.39
0.21
-2.33

>  <PUBCHEM_SHAPE_SELFOVERLAP>  (1) 
979.332

>  <PUBCHEM_SHAPE_VOLUME>  (1) 
256.3

>  <PUBCHEM_COORDINATE_TYPE>  (1) 
2
5
10

$$$$
