36417
     RDKit          3D

 21 23  0  0  0  0  0  0  0  0999 V2000
   -2.3470    4.0239    0.2647 Cl  0  0  0  0  0  0  0  0  0  0  0  0
   -3.5444   -2.0815   -0.2612 S   0  0  0  0  0  0  0  0  0  0  0  0
    0.3636   -0.9364   -1.4189 O   0  0  0  0  0  0  0  0  0  0  0  0
   -1.3673   -3.4204    0.4061 O   0  0  0  0  0  0  0  0  0  0  0  0
    2.2922   -0.6342   -0.1601 N   0  0  0  0  0  0  0  0  0  0  0  0
    4.9070    0.5175    0.0498 N   0  0  0  0  0  0  0  0  0  0  0  0
   -1.2518   -1.0652    0.4989 N   0  0  0  0  0  0  0  0  0  0  0  0
    3.1604   -0.5436   -1.3330 C   0  0  0  0  0  0  0  0  0  0  0  0
    3.0015   -0.6365    1.1227 C   0  0  0  0  0  0  0  0  0  0  0  0
    4.1468    0.6165   -1.2047 C   0  0  0  0  0  0  0  0  0  0  0  0
    3.9967    0.5225    1.2044 C   0  0  0  0  0  0  0  0  0  0  0  0
    0.9216   -0.8300   -0.3239 C   0  0  0  0  0  0  0  0  0  0  0  0
    0.0963   -0.9071    0.9359 C   0  0  0  0  0  0  0  0  0  0  0  0
    5.8730    1.6106    0.1526 C   0  0  0  0  0  0  0  0  0  0  0  0
   -2.1108    0.0450    0.2490 C   0  0  0  0  0  0  0  0  0  0  0  0
   -3.3900   -0.3204   -0.1703 C   0  0  0  0  0  0  0  0  0  0  0  0
   -1.8627   -2.3110    0.2733 C   0  0  0  0  0  0  0  0  0  0  0  0
   -1.7717    1.3854    0.3895 C   0  0  0  0  0  0  0  0  0  0  0  0
   -4.3556    0.6318   -0.4579 C   0  0  0  0  0  0  0  0  0  0  0  0
   -2.7372    2.3538    0.1020 C   0  0  0  0  0  0  0  0  0  0  0  0
   -4.0207    1.9795   -0.3190 C   0  0  0  0  0  0  0  0  0  0  0  0
  1 20  1  0
  2 16  1  0
  2 17  1  0
  3 12  2  0
  4 17  2  0
  5  8  1  0
  5  9  1  0
  5 12  1  0
  6 10  1  0
  6 11  1  0
  6 14  1  0
  7 13  1  0
  7 15  1  0
  7 17  1  0
  8 10  1  0
  9 11  1  0
 12 13  1  0
 15 16  2  0
 15 18  1  0
 16 19  1  0
 18 20  2  0
 19 21  2  0
 20 21  1  0
M  END
>  <PUBCHEM_COMPOUND_CID>  (1) 
36417

>  <PUBCHEM_CONFORMER_RMSD>  (1) 
0.6

>  <PUBCHEM_CONFORMER_DIVERSEORDER>  (1) 
1
30
28
10
35
38
17
37
13
11
34
6
40
41
18
24
42
36
32
23
5
21
31
39
33
7
20
26
27
14
16
12
4
25
22
15
29
19
2
3
9
8
43

>  <PUBCHEM_MMFF94_PARTIAL_CHARGES>  (1) 
24
1 -0.18
10 0.27
11 0.27
12 0.57
13 0.36
14 0.27
15 0.12
16 0.1
17 0.77
18 -0.15
19 -0.15
2 -0.24
20 0.18
21 -0.15
3 -0.57
35 0.15
36 0.15
37 0.15
4 -0.57
5 -0.66
6 -0.81
7 -0.48
8 0.3
9 0.3

>  <PUBCHEM_EFFECTIVE_ROTOR_COUNT>  (1) 
4.2

>  <PUBCHEM_PHARMACOPHORE_FEATURES>  (1) 
5
1 3 acceptor
1 6 cation
5 2 7 15 16 17 rings
6 15 16 18 19 20 21 rings
6 5 6 8 9 10 11 rings

>  <PUBCHEM_HEAVY_ATOM_COUNT>  (1) 
21

>  <PUBCHEM_ATOM_DEF_STEREO_COUNT>  (1) 
0

>  <PUBCHEM_ATOM_UDEF_STEREO_COUNT>  (1) 
0

>  <PUBCHEM_BOND_DEF_STEREO_COUNT>  (1) 
0

>  <PUBCHEM_BOND_UDEF_STEREO_COUNT>  (1) 
0

>  <PUBCHEM_ISOTOPIC_ATOM_COUNT>  (1) 
0

>  <PUBCHEM_COMPONENT_COUNT>  (1) 
1

>  <PUBCHEM_CACTVS_TAUTO_COUNT>  (1) 
1

>  <PUBCHEM_CONFORMER_ID>  (1) 
00008E4100000001

>  <PUBCHEM_MMFF94_ENERGY>  (1) 
47.0674

>  <PUBCHEM_FEATURE_SELFOVERLAP>  (1) 
25.434

>  <PUBCHEM_SHAPE_FINGERPRINT>  (1) 
10291535 26 18410294747863420416
10319926 262 18340750608296632538
10411042 1 17833270105463327755
10498660 4 18412827962761910608
10646746 165 18411981343329882426
10670039 82 18263374611742794556
10937287 8 17979358551796402489
11640471 11 17894636919866991338
12107183 9 17902219028220978210
12173636 292 18338514140930650447
12236239 1 17603857919002262611
12390115 104 18129393596686527153
12596602 18 17240483623757361824
12788726 201 17534363406638328906
13402501 40 18130498725815151656
13583140 156 18060135475174731446
13675066 3 12179843926886898390
13911987 19 16702024227209665928
13965767 371 17463977856200601957
14142880 1 18040433261907590797
14251764 30 11095298885769582021
14251764 75 17767411175778366713
14508225 48 17981594181427282391
14739800 52 18337935875635866904
14790565 3 17982458088282018529
15209294 21 17967812756428301132
15961568 22 18051125093302206240
16988056 13 16029281032178705069
1741750 31 18336267851354361955
17818456 19 18191855743931741314
20510252 161 18341335522232711651
20511986 3 17677314096093897212
20645477 56 18411706486491801019
20645477 70 16845304808814263542
21033648 29 17703501182044602968
21033650 10 18263386762368323964
23227448 37 18411418457337162853
23402539 116 18411693322839233511
235170 7 17489314070343323916
23557571 272 18270685375702462066
23559900 14 18271527473288282158
26918003 58 12252173087585954542
3268164 11 18343294890344311655
341906 21 18409163325177332552
3472631 163 18407759226805434093
4028521 119 18343019956560678821
441001 317 18410575115176372848
469060 322 18264230126441775083
474 4 17458348533049594034
633830 44 18126843790133829573
7808743 9 18410854326310115216
84936 182 17909546164611932289
9981440 41 18334014960745792507

>  <PUBCHEM_SHAPE_MULTIPOLES>  (1) 
411.21
10.53
3.39
1.08
12.64
1.56
-0.12
5
-0.77
-4.48
0.4
0.97
-0.13
0.1

>  <PUBCHEM_SHAPE_SELFOVERLAP>  (1) 
852.507

>  <PUBCHEM_SHAPE_VOLUME>  (1) 
237.9

>  <PUBCHEM_COORDINATE_TYPE>  (1) 
2
5
10

$$$$
