36415
     RDKit          3D

 16 17  0  0  0  0  0  0  0  0999 V2000
    4.5908   -0.0057   -1.0973 O   0  0  0  0  0  0  0  0  0  0  0  0
    4.5901   -0.0054    1.0979 O   0  0  0  0  0  0  0  0  0  0  0  0
    3.9825   -0.0255    0.0001 N   0  0  0  0  0  0  0  0  0  0  0  0
   -1.6712   -0.1993    0.0004 C   0  0  0  0  0  0  0  0  0  0  0  0
   -0.2250   -0.1568    0.0000 C   0  0  0  0  0  0  0  0  0  0  0  0
   -2.4285    0.9737   -0.0003 C   0  0  0  0  0  0  0  0  0  0  0  0
   -2.3122   -1.4395    0.0008 C   0  0  0  0  0  0  0  0  0  0  0  0
    0.4719   -0.1366   -1.2080 C   0  0  0  0  0  0  0  0  0  0  0  0
    0.4723   -0.1343    1.2079 C   0  0  0  0  0  0  0  0  0  0  0  0
   -3.8219    0.9064   -0.0004 C   0  0  0  0  0  0  0  0  0  0  0  0
   -1.7792    2.3206   -0.0013 C   0  0  0  0  0  0  0  0  0  0  0  0
    2.5635   -0.0715   -0.0003 C   0  0  0  0  0  0  0  0  0  0  0  0
    1.8661   -0.0942   -1.2082 C   0  0  0  0  0  0  0  0  0  0  0  0
    1.8665   -0.0917    1.2077 C   0  0  0  0  0  0  0  0  0  0  0  0
   -3.7055   -1.5066    0.0008 C   0  0  0  0  0  0  0  0  0  0  0  0
   -4.4603   -0.3337    0.0002 C   0  0  0  0  0  0  0  0  0  0  0  0
  1  3  1  0
  2  3  2  0
  3 12  1  0
  4  5  1  0
  4  6  2  0
  4  7  1  0
  5  8  2  0
  5  9  1  0
  6 10  1  0
  6 11  1  0
  7 15  2  0
  8 13  1  0
  9 14  2  0
 10 16  2  0
 12 13  2  0
 12 14  1  0
 15 16  1  0
M  CHG  2   1  -1   3   1
M  END
>  <PUBCHEM_COMPOUND_CID>  (1) 
36415

>  <PUBCHEM_CONFORMER_RMSD>  (1) 
0.6

>  <PUBCHEM_CONFORMER_DIVERSEORDER>  (1) 
1

>  <PUBCHEM_MMFF94_PARTIAL_CHARGES>  (1) 
22
1 -0.52
10 -0.15
11 0.14
12 0.13
13 -0.15
14 -0.15
15 -0.15
16 -0.15
17 0.15
18 0.15
19 0.15
2 -0.52
20 0.15
24 0.15
25 0.15
26 0.15
27 0.15
3 0.91
6 -0.14
7 -0.15
8 -0.15
9 -0.15

>  <PUBCHEM_EFFECTIVE_ROTOR_COUNT>  (1) 
2

>  <PUBCHEM_PHARMACOPHORE_FEATURES>  (1) 
5
1 1 acceptor
1 1 anion
1 2 acceptor
6 4 6 7 10 15 16 rings
6 5 8 9 12 13 14 rings

>  <PUBCHEM_HEAVY_ATOM_COUNT>  (1) 
16

>  <PUBCHEM_ATOM_DEF_STEREO_COUNT>  (1) 
0

>  <PUBCHEM_ATOM_UDEF_STEREO_COUNT>  (1) 
0

>  <PUBCHEM_BOND_DEF_STEREO_COUNT>  (1) 
0

>  <PUBCHEM_BOND_UDEF_STEREO_COUNT>  (1) 
0

>  <PUBCHEM_ISOTOPIC_ATOM_COUNT>  (1) 
0

>  <PUBCHEM_COMPONENT_COUNT>  (1) 
1

>  <PUBCHEM_CACTVS_TAUTO_COUNT>  (1) 
1

>  <PUBCHEM_CONFORMER_ID>  (1) 
00008E3F00000001

>  <PUBCHEM_MMFF94_ENERGY>  (1) 
54.5731

>  <PUBCHEM_FEATURE_SELFOVERLAP>  (1) 
25.453

>  <PUBCHEM_SHAPE_FINGERPRINT>  (1) 
11471102 20 15985104115531641898
12186901 62 18341050735598864725
12236239 1 17603585227460109547
13214271 11 18131910460306216253
13581323 91 18409446981469778983
13583140 156 17985235570384749754
13760787 5 16008467629668155494
14993402 34 17240199953967823315
15219456 202 17704076157500296807
15309172 13 15647055953846170707
15653759 3 18202279212461768123
16945 1 18410575063900431397
17844478 74 17632580448380029713
17862501 102 17967526865977316480
18175812 5 17775000232512347165
19026448 4 18202565068790417238
19026448 5 18186519895606282066
200 152 16660642977437339419
20279233 1 17775570844735059911
204376 136 16271922753076143646
20510252 161 18270964527550492593
20645477 70 16271651079198874622
22094290 60 18413392029253503729
2297311 6 18342470239232600749
23175994 123 16917355839556438065
23402539 116 18411973668244449847
23557571 272 18201450137808438917
23559900 14 18271813354753394918
474 4 17097504334683839348
573450 72 18260537896948108794
77492 1 17676206866552042243

>  <PUBCHEM_SHAPE_MULTIPOLES>  (1) 
312.55
8.55
1.37
1.1
4.34
0.51
0
-0.72
0
-1.79
0
1.01
-0.04
0

>  <PUBCHEM_SHAPE_SELFOVERLAP>  (1) 
679.61

>  <PUBCHEM_SHAPE_VOLUME>  (1) 
172.5

>  <PUBCHEM_COORDINATE_TYPE>  (1) 
2
5
10

$$$$
