36426
     RDKit          3D

 23 23  0  0  0  0  0  0  0  0999 V2000
    1.2963    2.4581    0.0241 O   0  0  0  0  0  0  0  0  0  0  0  0
    0.0443   -1.8072    0.2080 O   0  0  0  0  0  0  0  0  0  0  0  0
   -1.4416    1.8582   -0.0342 O   0  0  0  0  0  0  0  0  0  0  0  0
   -0.6320   -0.1650    1.6725 O   0  0  0  0  0  0  0  0  0  0  0  0
   -3.2621    1.9898    1.3684 O   0  0  0  0  0  0  0  0  0  0  0  0
    3.5135    1.6116   -0.2921 C   0  0  0  0  0  0  0  0  0  0  0  0
    4.8686    1.8379   -0.9565 C   0  0  0  0  0  0  0  0  0  0  0  0
    2.5276    2.7194   -0.6349 C   0  0  0  0  0  0  0  0  0  0  0  0
    2.1913   -2.8598    0.0817 C   0  0  0  0  0  0  0  0  0  0  0  0
    3.5930   -2.9447    0.6790 C   0  0  0  0  0  0  0  0  0  0  0  0
    1.3359   -1.8259    0.8000 C   0  0  0  0  0  0  0  0  0  0  0  0
    0.3304    3.4632   -0.2586 C   0  0  0  0  0  0  0  0  0  0  0  0
    5.8633    0.7526   -0.5772 C   0  0  0  0  0  0  0  0  0  0  0  0
   -0.9649    3.1181    0.4505 C   0  0  0  0  0  0  0  0  0  0  0  0
   -2.1522   -1.0059    0.0397 C   0  0  0  0  0  0  0  0  0  0  0  0
   -2.9857    0.1074   -0.0685 C   0  0  0  0  0  0  0  0  0  0  0  0
    4.4300   -4.0085   -0.0131 C   0  0  0  0  0  0  0  0  0  0  0  0
   -0.8468   -0.9267    0.7425 C   0  0  0  0  0  0  0  0  0  0  0  0
   -2.6094    1.3934    0.5040 C   0  0  0  0  0  0  0  0  0  0  0  0
   -2.5394   -2.2240   -0.5191 C   0  0  0  0  0  0  0  0  0  0  0  0
   -4.2063    0.0024   -0.7357 C   0  0  0  0  0  0  0  0  0  0  0  0
   -3.7601   -2.3287   -1.1861 C   0  0  0  0  0  0  0  0  0  0  0  0
   -4.5935   -1.2156   -1.2943 C   0  0  0  0  0  0  0  0  0  0  0  0
  1  8  1  0
  1 12  1  0
  2 11  1  0
  2 18  1  0
  3 14  1  0
  3 19  1  0
  4 18  2  0
  5 19  2  0
  6  7  1  0
  6  8  1  0
  7 13  1  0
  9 10  1  0
  9 11  1  0
 10 17  1  0
 12 14  1  0
 15 16  2  0
 15 18  1  0
 15 20  1  0
 16 19  1  0
 16 21  1  0
 20 22  2  0
 21 23  2  0
 22 23  1  0
M  END
>  <PUBCHEM_COMPOUND_CID>  (1) 
36426

>  <PUBCHEM_CONFORMER_RMSD>  (1) 
1.2

>  <PUBCHEM_CONFORMER_DIVERSEORDER>  (1) 
1
31
12
103
92
39
96
119
38
63
6
69
83
108
52
8
99
81
75
57
59
77
44
22
95
74
106
45
65
21
7
87
114
88
113
55
84
107
14
58
50
17
13
36
46
80
82
25
67
66
115
104
42
4
20
18
2
117
90
23
15
53
35
110
102
68
72
37
86
40
64
60
70
9
16
109
89
61
97
85
5
32
98
111
71
91
34
94
3
41
26
76
54
62
56
28
19
43
118
105
27
33
29
93
30
24
49
116
48
120
112
100
78
101
51
47
11
10
73
79

>  <PUBCHEM_MMFF94_PARTIAL_CHARGES>  (1) 
21
1 -0.56
11 0.28
12 0.28
14 0.28
15 0.09
16 0.09
18 0.63
19 0.63
2 -0.43
20 -0.15
21 -0.15
22 -0.15
23 -0.15
3 -0.43
4 -0.57
46 0.15
47 0.15
48 0.15
49 0.15
5 -0.57
8 0.28

>  <PUBCHEM_EFFECTIVE_ROTOR_COUNT>  (1) 
13

>  <PUBCHEM_PHARMACOPHORE_FEATURES>  (1) 
6
1 1 acceptor
1 13 hydrophobe
1 17 hydrophobe
1 4 acceptor
1 5 acceptor
6 15 16 20 21 22 23 rings

>  <PUBCHEM_HEAVY_ATOM_COUNT>  (1) 
23

>  <PUBCHEM_ATOM_DEF_STEREO_COUNT>  (1) 
0

>  <PUBCHEM_ATOM_UDEF_STEREO_COUNT>  (1) 
0

>  <PUBCHEM_BOND_DEF_STEREO_COUNT>  (1) 
0

>  <PUBCHEM_BOND_UDEF_STEREO_COUNT>  (1) 
0

>  <PUBCHEM_ISOTOPIC_ATOM_COUNT>  (1) 
0

>  <PUBCHEM_COMPONENT_COUNT>  (1) 
1

>  <PUBCHEM_CACTVS_TAUTO_COUNT>  (1) 
1

>  <PUBCHEM_CONFORMER_ID>  (1) 
00008E4A00000001

>  <PUBCHEM_MMFF94_ENERGY>  (1) 
44.9819

>  <PUBCHEM_FEATURE_SELFOVERLAP>  (1) 
30.447

>  <PUBCHEM_SHAPE_FINGERPRINT>  (1) 
10693767 8 17123094484452559599
10764073 3 17536065425605943643
1100329 8 18049721819652964853
11458722 379 18337956817025943932
11513181 2 18271250396516345270
11578080 2 17604410904720780613
12035759 4 18340766061135301561
13761468 95 16456871260767471310
14790565 3 17765158272105078617
14931854 50 18337111271504798932
15210252 30 16242602867163406933
19591789 44 17256806123433798171
19930381 70 18265330784308710574
57527585 103 17532394073874807850
6138700 20 18337389443804541716

>  <PUBCHEM_SHAPE_MULTIPOLES>  (1) 
443.98
10.24
5.21
1.11
7.59
0.65
-0.08
2.72
3.75
5.09
-0.05
-0.57
0.05
-2.46

>  <PUBCHEM_SHAPE_SELFOVERLAP>  (1) 
886.404

>  <PUBCHEM_SHAPE_VOLUME>  (1) 
262.2

>  <PUBCHEM_COORDINATE_TYPE>  (1) 
2
5
10

$$$$
