36428
     RDKit          3D

 14 14  0  0  1  0  0  0  0  0999 V2000
   -3.9926    0.6600   -0.6455 O   0  0  0  0  0  0  0  0  0  0  0  0
   -2.9409    1.4228    1.2355 O   0  0  0  0  0  0  0  0  0  0  0  0
    4.3485   -0.0904    0.2459 O   0  0  0  0  0  0  0  0  0  0  0  0
    3.2820    1.4853   -0.9921 O   0  0  0  0  0  0  0  0  0  0  0  0
   -1.2227   -1.0119   -0.3234 C   0  0  0  0  0  0  0  0  0  0  0  0
   -0.5154    0.0748    0.4101 C   0  0  0  0  0  0  0  0  0  0  0  0
   -1.6597    0.4149   -0.4821 C   0  0  0  0  0  0  0  0  0  0  0  0
   -0.4742   -1.6691   -1.4341 C   0  0  0  0  0  0  0  0  0  0  0  0
   -2.1468   -1.9345    0.3993 C   0  0  0  0  0  0  0  0  0  0  0  0
    0.8381    0.4855   -0.0153 C   0  0  0  0  0  0  0  0  0  0  0  0
   -2.9109    0.8875    0.1377 C   0  0  0  0  0  0  0  0  0  0  0  0
    2.0108   -0.0589    0.3624 C   0  0  0  0  0  0  0  0  0  0  0  0
    2.1391   -1.2113    1.3146 C   0  0  0  0  0  0  0  0  0  0  0  0
    3.2447    0.5453   -0.2130 C   0  0  0  0  0  0  0  0  0  0  0  0
  1 11  1  0
  2 11  2  0
  3 14  1  0
  4 14  2  0
  5  6  1  0
  5  7  1  0
  5  8  1  0
  5  9  1  0
  6  7  1  0
  6 10  1  0
  7 11  1  0
 10 12  2  0
 12 13  1  0
 12 14  1  0
M  END
>  <PUBCHEM_COMPOUND_CID>  (1) 
36428

>  <PUBCHEM_CONFORMER_RMSD>  (1) 
0.6

>  <PUBCHEM_CONFORMER_DIVERSEORDER>  (1) 
1
4
6
7
8
2
5
3

>  <PUBCHEM_MMFF94_PARTIAL_CHARGES>  (1) 
19
1 -0.65
10 -0.19
11 0.72
12 -0.12
13 0.14
14 0.71
15 0.1
16 0.1
2 -0.57
23 0.15
24 0.5
28 0.5
3 -0.65
4 -0.57
5 -0.19
6 -0.06
7 -0.1
8 0.09
9 0.09

>  <PUBCHEM_EFFECTIVE_ROTOR_COUNT>  (1) 
3.6

>  <PUBCHEM_PHARMACOPHORE_FEATURES>  (1) 
8
1 1 acceptor
1 13 hydrophobe
1 2 acceptor
1 3 acceptor
1 4 acceptor
3 1 2 11 anion
3 3 4 14 anion
3 5 8 9 hydrophobe

>  <PUBCHEM_HEAVY_ATOM_COUNT>  (1) 
14

>  <PUBCHEM_ATOM_DEF_STEREO_COUNT>  (1) 
2

>  <PUBCHEM_ATOM_UDEF_STEREO_COUNT>  (1) 
0

>  <PUBCHEM_BOND_DEF_STEREO_COUNT>  (1) 
0

>  <PUBCHEM_BOND_UDEF_STEREO_COUNT>  (1) 
1

>  <PUBCHEM_ISOTOPIC_ATOM_COUNT>  (1) 
0

>  <PUBCHEM_COMPONENT_COUNT>  (1) 
1

>  <PUBCHEM_CACTVS_TAUTO_COUNT>  (1) 
1

>  <PUBCHEM_CONFORMER_ID>  (1) 
00008E4C00000001

>  <PUBCHEM_MMFF94_ENERGY>  (1) 
30.491

>  <PUBCHEM_FEATURE_SELFOVERLAP>  (1) 
40.71

>  <PUBCHEM_SHAPE_FINGERPRINT>  (1) 
12186901 62 18269853045315859414
12932764 1 16226032414940480570
13024252 1 14851596687905273295
13214271 11 16225768527506739373
13380535 21 18335990808762879658
13380535 76 18343021064709915543
13538477 17 18336256907698414594
14144814 61 18411697664581482857
14943859 89 18408885139644196480
14993402 34 18411693279757587661
15279307 12 18335133194056987506
15342168 16 16589165994211122428
15375358 24 16845285056122200256
15669948 3 18270955855473341214
15775835 57 18334011687721827128
16945 1 18189612739804811323
18175812 5 15430042053895404512
19422 9 18334860566928807374
20233049 118 18131347488740964472
20279233 1 16845574236228002966
20645476 183 18408317795950157543
20645477 56 18059852908938451344
20645477 70 17604696755942604755
20711985 327 13046238181488895199
21061003 4 13695589966160189143
21524375 3 18270959047029388557
23402539 116 17917418831439725021
23526113 38 16271932601462565814
23559900 14 17632577159331613384
366044 4 18130783443560105583
53748568 43 18334008415257694322
57812782 119 13973959896211460568
74978 22 18059005193947228616

>  <PUBCHEM_SHAPE_MULTIPOLES>  (1) 
264.64
6.54
1.66
1.12
2.81
0.51
0.01
-2.29
-0.09
-0.76
0.05
0.02
0.2
-0.78

>  <PUBCHEM_SHAPE_SELFOVERLAP>  (1) 
538.247

>  <PUBCHEM_SHAPE_VOLUME>  (1) 
155.3

>  <PUBCHEM_COORDINATE_TYPE>  (1) 
2
5
10

$$$$
