36423
     RDKit          3D

 14 15  0  0  1  0  0  0  0  0999 V2000
   -1.3164    2.9094    0.0029 Cl  0  0  0  0  0  0  0  0  0  0  0  0
   -0.8543   -3.3431    0.0325 Cl  0  0  0  0  0  0  0  0  0  0  0  0
   -3.9582    1.0470    0.0703 Cl  0  0  0  0  0  0  0  0  0  0  0  0
    1.4150   -1.2626   -0.0632 O   0  0  0  0  0  0  0  0  0  0  0  0
    4.3325    1.0343    0.0559 N   0  0  0  0  0  0  0  0  0  0  0  0
    2.1899   -0.0797   -0.3931 C   0  0  0  0  0  0  0  0  0  0  0  0
    1.3672    1.1672   -0.0333 C   0  0  0  0  0  0  0  0  0  0  0  0
    0.0140    0.5686   -0.0484 C   0  0  0  0  0  0  0  0  0  0  0  0
    0.1195   -0.8137   -0.0394 C   0  0  0  0  0  0  0  0  0  0  0  0
    3.5160   -0.1370    0.3476 C   0  0  0  0  0  0  0  0  0  0  0  0
   -1.2229    1.1859   -0.0102 C   0  0  0  0  0  0  0  0  0  0  0  0
   -0.9922   -1.6321    0.0110 C   0  0  0  0  0  0  0  0  0  0  0  0
   -2.3625    0.3781    0.0277 C   0  0  0  0  0  0  0  0  0  0  0  0
   -2.2477   -1.0221    0.0398 C   0  0  0  0  0  0  0  0  0  0  0  0
  1 11  1  0
  2 12  1  0
  3 13  1  0
  4  6  1  0
  4  9  1  0
  5 10  1  0
  6  7  1  0
  6 10  1  0
  7  8  1  0
  8  9  2  0
  8 11  1  0
  9 12  1  0
 11 13  2  0
 12 14  2  0
 13 14  1  0
M  END
>  <PUBCHEM_COMPOUND_CID>  (1) 
36423

>  <PUBCHEM_CONFORMER_RMSD>  (1) 
0.6

>  <PUBCHEM_CONFORMER_DIVERSEORDER>  (1) 
1
2
3

>  <PUBCHEM_MMFF94_PARTIAL_CHARGES>  (1) 
17
1 -0.18
10 0.27
11 0.18
12 0.18
13 0.18
14 -0.15
2 -0.18
20 0.15
21 0.36
22 0.36
3 -0.18
4 -0.36
5 -0.99
6 0.28
7 0.14
8 -0.14
9 0.08

>  <PUBCHEM_EFFECTIVE_ROTOR_COUNT>  (1) 
1.6

>  <PUBCHEM_PHARMACOPHORE_FEATURES>  (1) 
5
1 4 acceptor
1 5 cation
1 5 donor
5 4 6 7 8 9 rings
6 8 9 11 12 13 14 rings

>  <PUBCHEM_HEAVY_ATOM_COUNT>  (1) 
14

>  <PUBCHEM_ATOM_DEF_STEREO_COUNT>  (1) 
0

>  <PUBCHEM_ATOM_UDEF_STEREO_COUNT>  (1) 
1

>  <PUBCHEM_BOND_DEF_STEREO_COUNT>  (1) 
0

>  <PUBCHEM_BOND_UDEF_STEREO_COUNT>  (1) 
0

>  <PUBCHEM_ISOTOPIC_ATOM_COUNT>  (1) 
0

>  <PUBCHEM_COMPONENT_COUNT>  (1) 
1

>  <PUBCHEM_CACTVS_TAUTO_COUNT>  (1) 
1

>  <PUBCHEM_CONFORMER_ID>  (1) 
00008E4700000001

>  <PUBCHEM_MMFF94_ENERGY>  (1) 
30.6381

>  <PUBCHEM_FEATURE_SELFOVERLAP>  (1) 
25.474

>  <PUBCHEM_SHAPE_FINGERPRINT>  (1) 
10608611 8 18342173358735979616
10967382 1 18410856516742870653
11132069 177 18341893004487121040
12382932 28 18411704304579706554
13024252 1 14634862063617825167
13140716 1 18266461099310168960
13380535 76 18413670197026522190
14614273 12 18116429228970614637
15042514 8 18336548308297612731
15309172 13 18339089198285907985
15669948 3 18337949103744591650
15775835 57 18410013212772887769
16945 1 18410582785565820990
17846911 113 18412258415575023513
193761 8 17762339510853386677
20510252 161 18271246019174387520
20588541 1 18342742922400641748
20645476 183 17895778281656392278
20871998 184 18200600331242191070
21501502 16 18121220041476637308
21524375 3 18200308806025689487
2334 1 17978512271112584380
23402539 116 18271235106057743991
23402655 69 18270105805101571837
23557571 272 18127986393437576564
23559900 14 18343022212294176596
23598294 1 18263353836474222402
257057 1 17620185872638130303
2748010 2 18410865381998663191
3071541 12 17908427956886209847
353137 74 18266173942403098129
43471831 8 18191868929222980683
528886 8 18411415094725513899
53812653 166 18342454833190275672
54173680 148 18265898145046189634
6333449 129 18412260670379911391
69090 78 18412821374102418679
7364860 26 17836082269411461551
81228 2 18268432519411575427

>  <PUBCHEM_SHAPE_MULTIPOLES>  (1) 
282.87
5.51
2.95
0.63
3.4
1.35
0
-2.36
-0.34
-1.52
-0.03
0.01
0
0.01

>  <PUBCHEM_SHAPE_SELFOVERLAP>  (1) 
579.956

>  <PUBCHEM_SHAPE_VOLUME>  (1) 
167.7

>  <PUBCHEM_COORDINATE_TYPE>  (1) 
2
5
10

$$$$
