36438
     RDKit          3D

 31 34  0  0  1  0  0  0  0  0999 V2000
    8.1317   -0.8025   -0.3773 Cl  0  0  0  0  0  0  0  0  0  0  0  0
   -0.3245   -0.4823   -1.8527 O   0  0  0  0  0  0  0  0  0  0  0  0
    0.1569   -0.3870    0.4541 N   0  0  0  0  0  0  0  0  0  0  0  0
    1.4918   -0.7006    0.4199 N   0  0  0  0  0  0  0  0  0  0  0  0
   -1.8798    3.8059   -0.9873 N   0  0  0  0  0  0  0  0  0  0  0  0
   -2.0727    0.0943   -0.1961 C   0  0  0  0  0  0  0  0  0  0  0  0
   -2.4749    1.4422   -0.7874 C   0  0  0  0  0  0  0  0  0  0  0  0
   -1.8722    0.1654    1.3103 C   0  0  0  0  0  0  0  0  0  0  0  0
   -0.6451   -0.2973   -0.6871 C   0  0  0  0  0  0  0  0  0  0  0  0
   -0.5428   -0.1242    1.6302 C   0  0  0  0  0  0  0  0  0  0  0  0
   -3.0476   -0.9713   -0.5853 C   0  0  0  0  0  0  0  0  0  0  0  0
   -1.4637    2.5253   -0.4281 C   0  0  0  0  0  0  0  0  0  0  0  0
   -2.7879    0.4660    2.3059 C   0  0  0  0  0  0  0  0  0  0  0  0
   -0.0876   -0.1272    2.9369 C   0  0  0  0  0  0  0  0  0  0  0  0
   -2.7908   -2.2999   -0.2555 C   0  0  0  0  0  0  0  0  0  0  0  0
   -4.2079   -0.6305   -1.2761 C   0  0  0  0  0  0  0  0  0  0  0  0
    2.2348    0.3157   -0.3277 C   0  0  0  0  0  0  0  0  0  0  0  0
   -2.3459    0.4672    3.6313 C   0  0  0  0  0  0  0  0  0  0  0  0
   -1.0075    0.1730    3.9437 C   0  0  0  0  0  0  0  0  0  0  0  0
    1.6896   -2.0222   -0.1785 C   0  0  0  0  0  0  0  0  0  0  0  0
   -3.6997   -3.2937   -0.6188 C   0  0  0  0  0  0  0  0  0  0  0  0
   -5.1169   -1.6243   -1.6393 C   0  0  0  0  0  0  0  0  0  0  0  0
   -1.9443    3.7339   -2.4481 C   0  0  0  0  0  0  0  0  0  0  0  0
   -0.9660    4.8715   -0.5716 C   0  0  0  0  0  0  0  0  0  0  0  0
    3.7138    0.0341   -0.3392 C   0  0  0  0  0  0  0  0  0  0  0  0
   -4.8627   -2.9559   -1.3107 C   0  0  0  0  0  0  0  0  0  0  0  0
    4.5166    0.5552    0.6658 C   0  0  0  0  0  0  0  0  0  0  0  0
    4.2536   -0.7416   -1.3557 C   0  0  0  0  0  0  0  0  0  0  0  0
    5.8870    0.2953    0.6541 C   0  0  0  0  0  0  0  0  0  0  0  0
    5.6240   -1.0015   -1.3672 C   0  0  0  0  0  0  0  0  0  0  0  0
    6.4407   -0.4830   -0.3623 C   0  0  0  0  0  0  0  0  0  0  0  0
  1 31  1  0
  2  9  2  0
  3  4  1  0
  3  9  1  0
  3 10  1  0
  4 17  1  0
  4 20  1  0
  5 12  1  0
  5 23  1  0
  5 24  1  0
  6  7  1  0
  6  8  1  0
  6  9  1  0
  6 11  1  0
  7 12  1  0
  8 10  2  0
  8 13  1  0
 10 14  1  0
 11 15  2  0
 11 16  1  0
 13 18  2  0
 14 19  2  0
 15 21  1  0
 16 22  2  0
 17 25  1  0
 18 19  1  0
 21 26  2  0
 22 26  1  0
 25 27  2  0
 25 28  1  0
 27 29  1  0
 28 30  2  0
 29 31  2  0
 30 31  1  0
M  END
>  <PUBCHEM_COMPOUND_CID>  (1) 
36438

>  <PUBCHEM_CONFORMER_RMSD>  (1) 
1

>  <PUBCHEM_CONFORMER_DIVERSEORDER>  (1) 
1
21
22
19
18
2
15
3
13
5
20
17
14
16
4
10
9
8
6
7
12
11

>  <PUBCHEM_MMFF94_PARTIAL_CHARGES>  (1) 
43
1 -0.18
10 0.12
11 -0.14
12 0.27
13 -0.15
14 -0.15
15 -0.15
16 -0.15
17 0.41
18 -0.15
19 -0.15
2 -0.57
20 0.27
21 -0.15
22 -0.15
23 0.27
24 0.27
25 -0.14
26 -0.15
27 -0.15
28 -0.15
29 -0.15
3 -0.17
30 -0.15
31 0.18
36 0.15
37 0.15
38 0.15
39 0.15
4 -0.55
42 0.15
43 0.15
47 0.15
48 0.15
5 -0.81
55 0.15
56 0.15
57 0.15
58 0.15
59 0.15
6 0.35
8 -0.14
9 0.57

>  <PUBCHEM_EFFECTIVE_ROTOR_COUNT>  (1) 
7.4

>  <PUBCHEM_PHARMACOPHORE_FEATURES>  (1) 
6
1 2 acceptor
1 5 cation
5 3 6 8 9 10 rings
6 11 15 16 21 22 26 rings
6 25 27 28 29 30 31 rings
6 8 10 13 14 18 19 rings

>  <PUBCHEM_HEAVY_ATOM_COUNT>  (1) 
31

>  <PUBCHEM_ATOM_DEF_STEREO_COUNT>  (1) 
0

>  <PUBCHEM_ATOM_UDEF_STEREO_COUNT>  (1) 
1

>  <PUBCHEM_BOND_DEF_STEREO_COUNT>  (1) 
0

>  <PUBCHEM_BOND_UDEF_STEREO_COUNT>  (1) 
0

>  <PUBCHEM_ISOTOPIC_ATOM_COUNT>  (1) 
0

>  <PUBCHEM_COMPONENT_COUNT>  (1) 
1

>  <PUBCHEM_CACTVS_TAUTO_COUNT>  (1) 
1

>  <PUBCHEM_CONFORMER_ID>  (1) 
00008E5600000001

>  <PUBCHEM_MMFF94_ENERGY>  (1) 
105.107

>  <PUBCHEM_FEATURE_SELFOVERLAP>  (1) 
30.532

>  <PUBCHEM_SHAPE_FINGERPRINT>  (1) 
10165383 225 18058732378426829961
10366900 7 17675921010988303640
11007060 377 18337116752605910370
11443803 9 17972022657565990349
11488393 25 17325493701484406443
12166972 35 18131069381398395992
12293681 160 17313368038213559565
12741549 16 17846212306867901561
12760667 363 17418096559045093095
12788726 201 18115009828325825009
133893 2 17760394453346496501
13631057 29 17988924500384059582
14400156 147 16977313570514729774
14713325 29 18342172207173106773
15198563 99 18337380583356037621
15324884 4 17697843164196686431
16114785 44 18116163164441920841
17686467 74 18340483500038351728
20600515 1 17773047547306855751
21033650 10 18114744820444034208
21756936 100 17531536360358397096
22393880 68 18268991982437056766
23352939 185 18200592634861133089
23559900 14 17908967040619270159
23569943 247 18053388700630152878
3380486 145 18267884816465460953
3552219 110 17844542186547378984
376196 1 17105657939031958821
404807 14 18341896320028300600
469060 322 18411987974485230512
497634 4 17917718993576410636
5104073 3 16702031825313339658
531348 171 18191868929718865710
57527585 103 16806475555072393177
57527585 21 17823727246012108397
6086070 43 18269542859553608160

>  <PUBCHEM_SHAPE_MULTIPOLES>  (1) 
619.02
13.19
3.74
2.94
31.02
4.56
3.71
-8.52
-5.28
-5.86
-3.13
-3.05
1.1
-0.13

>  <PUBCHEM_SHAPE_SELFOVERLAP>  (1) 
1338.081

>  <PUBCHEM_SHAPE_VOLUME>  (1) 
344.6

>  <PUBCHEM_COORDINATE_TYPE>  (1) 
2
5
10

$$$$
