36449
     RDKit          3D

 34 37  0  0  1  0  0  0  0  0999 V2000
   -0.8454   -0.2478   -2.0894 O   0  0  0  0  0  0  0  0  0  0  0  0
    7.5834   -0.3345   -0.3970 O   0  0  0  0  0  0  0  0  0  0  0  0
   -0.0075   -0.8845    0.0212 N   0  0  0  0  0  0  0  0  0  0  0  0
    1.2888   -1.1679   -0.3260 N   0  0  0  0  0  0  0  0  0  0  0  0
   -2.0351    3.5440    0.3115 N   0  0  0  0  0  0  0  0  0  0  0  0
   -2.2847   -0.2281   -0.0742 C   0  0  0  0  0  0  0  0  0  0  0  0
   -2.7072    1.2365   -0.1418 C   0  0  0  0  0  0  0  0  0  0  0  0
   -1.8494   -0.6357    1.3253 C   0  0  0  0  0  0  0  0  0  0  0  0
   -0.9716   -0.4411   -0.8884 C   0  0  0  0  0  0  0  0  0  0  0  0
   -0.5024   -1.0083    1.3179 C   0  0  0  0  0  0  0  0  0  0  0  0
   -3.3593   -1.1187   -0.6121 C   0  0  0  0  0  0  0  0  0  0  0  0
   -1.6005    2.1533    0.3677 C   0  0  0  0  0  0  0  0  0  0  0  0
   -2.5836   -0.6672    2.5001 C   0  0  0  0  0  0  0  0  0  0  0  0
    0.1495   -1.4225    2.4661 C   0  0  0  0  0  0  0  0  0  0  0  0
   -4.5981   -0.5829   -0.9642 C   0  0  0  0  0  0  0  0  0  0  0  0
   -3.1227   -2.4853   -0.7611 C   0  0  0  0  0  0  0  0  0  0  0  0
   -1.9416   -1.0834    3.6692 C   0  0  0  0  0  0  0  0  0  0  0  0
    1.9558    0.0343   -0.8298 C   0  0  0  0  0  0  0  0  0  0  0  0
   -1.2628    4.3638    1.2467 C   0  0  0  0  0  0  0  0  0  0  0  0
   -1.9072    4.0693   -1.0491 C   0  0  0  0  0  0  0  0  0  0  0  0
   -0.5870   -1.4579    3.6520 C   0  0  0  0  0  0  0  0  0  0  0  0
    1.3263   -2.2325   -1.3306 C   0  0  0  0  0  0  0  0  0  0  0  0
   -5.6002   -1.4137   -1.4655 C   0  0  0  0  0  0  0  0  0  0  0  0
   -4.1248   -3.3160   -1.2625 C   0  0  0  0  0  0  0  0  0  0  0  0
   -5.3635   -2.7803   -1.6147 C   0  0  0  0  0  0  0  0  0  0  0  0
    3.4537   -0.0652   -0.7145 C   0  0  0  0  0  0  0  0  0  0  0  0
    0.2113    4.3747    0.8793 C   0  0  0  0  0  0  0  0  0  0  0  0
   -2.4185    5.4973   -1.1364 C   0  0  0  0  0  0  0  0  0  0  0  0
    4.2619    0.3217   -1.7836 C   0  0  0  0  0  0  0  0  0  0  0  0
    4.0332   -0.5423    0.4612 C   0  0  0  0  0  0  0  0  0  0  0  0
    5.6498    0.2312   -1.6769 C   0  0  0  0  0  0  0  0  0  0  0  0
    5.4209   -0.6328    0.5678 C   0  0  0  0  0  0  0  0  0  0  0  0
    6.2293   -0.2459   -0.5010 C   0  0  0  0  0  0  0  0  0  0  0  0
    8.1091   -0.8315    0.8328 C   0  0  0  0  0  0  0  0  0  0  0  0
  1  9  2  0
  2 33  1  0
  2 34  1  0
  3  4  1  0
  3  9  1  0
  3 10  1  0
  4 18  1  0
  4 22  1  0
  5 12  1  0
  5 19  1  0
  5 20  1  0
  6  7  1  0
  6  8  1  0
  6  9  1  0
  6 11  1  0
  7 12  1  0
  8 10  2  0
  8 13  1  0
 10 14  1  0
 11 15  2  0
 11 16  1  0
 13 17  2  0
 14 21  2  0
 15 23  1  0
 16 24  2  0
 17 21  1  0
 18 26  1  0
 19 27  1  0
 20 28  1  0
 23 25  2  0
 24 25  1  0
 26 29  2  0
 26 30  1  0
 29 31  1  0
 30 32  2  0
 31 33  2  0
 32 33  1  0
M  END
>  <PUBCHEM_COMPOUND_CID>  (1) 
36449

>  <PUBCHEM_CONFORMER_RMSD>  (1) 
1

>  <PUBCHEM_CONFORMER_DIVERSEORDER>  (1) 
1
81
20
96
22
127
90
89
119
74
100
120
116
117
91
76
57
60
102
125
9
54
84
51
49
101
114
8
5
67
126
53
115
87
82
92
25
99
24
33
68
62
64
13
123
34
94
109
32
79
28
71
48
122
88
27
85
75
108
55
124
37
44
118
70
77
23
59
113
21
50
97
46
95
52
56
104
36
105
112
69
86
106
66
14
4
40
43
121
78
18
93
73
12
98
72
110
45
80
30
3
15
39
107
65
35
63
111
38
6
83
42
19
10
29
41
31
26
103
58
47
16
17
7
2
11
61

>  <PUBCHEM_MMFF94_PARTIAL_CHARGES>  (1) 
44
1 -0.57
10 0.12
11 -0.14
12 0.27
13 -0.15
14 -0.15
15 -0.15
16 -0.15
17 -0.15
18 0.41
19 0.27
2 -0.36
20 0.27
21 -0.15
22 0.27
23 -0.15
24 -0.15
25 -0.15
26 -0.14
29 -0.15
3 -0.17
30 -0.15
31 -0.15
32 -0.15
33 0.08
34 0.28
39 0.15
4 -0.55
40 0.15
41 0.15
42 0.15
43 0.15
5 -0.81
50 0.15
54 0.15
55 0.15
56 0.15
6 0.35
63 0.15
64 0.15
65 0.15
66 0.15
8 -0.14
9 0.57

>  <PUBCHEM_EFFECTIVE_ROTOR_COUNT>  (1) 
10.4

>  <PUBCHEM_PHARMACOPHORE_FEATURES>  (1) 
7
1 1 acceptor
1 2 acceptor
1 5 cation
5 3 6 8 9 10 rings
6 11 15 16 23 24 25 rings
6 26 29 30 31 32 33 rings
6 8 10 13 14 17 21 rings

>  <PUBCHEM_HEAVY_ATOM_COUNT>  (1) 
34

>  <PUBCHEM_ATOM_DEF_STEREO_COUNT>  (1) 
0

>  <PUBCHEM_ATOM_UDEF_STEREO_COUNT>  (1) 
1

>  <PUBCHEM_BOND_DEF_STEREO_COUNT>  (1) 
0

>  <PUBCHEM_BOND_UDEF_STEREO_COUNT>  (1) 
0

>  <PUBCHEM_ISOTOPIC_ATOM_COUNT>  (1) 
0

>  <PUBCHEM_COMPONENT_COUNT>  (1) 
1

>  <PUBCHEM_CACTVS_TAUTO_COUNT>  (1) 
1

>  <PUBCHEM_CONFORMER_ID>  (1) 
00008E6100000001

>  <PUBCHEM_MMFF94_ENERGY>  (1) 
114.6362

>  <PUBCHEM_FEATURE_SELFOVERLAP>  (1) 
35.607

>  <PUBCHEM_SHAPE_FINGERPRINT>  (1) 
10940486 97 18059007419584534711
10985338 8 14710253347342940879
11045515 52 18412262878505012645
11315181 36 17967536804959206134
11488393 25 17475235082101753451
12107698 1 18410570704503637308
12160290 23 17976293194776696677
12166972 35 17632296826362607626
12293681 160 17894619371332103491
12741549 16 17417808487588738723
12788726 201 18335692802825980603
133893 2 17550415233179978905
14068700 675 18334852857341348460
14713325 29 18130225943466619180
15361156 5 17971207932872599038
15439362 3 17764861786681353013
15513586 35 18119278239987883240
15876981 60 18410296916853982749
17686467 74 18129656543379511840
20721686 56 18337954627521304176
20775438 99 17259040317939407511
21033648 29 15719939345604748878
21033650 10 18191893153323418100
21304303 282 17896321320478974353
22899556 10 17912940383431062187
23419403 2 17465118419869176019
23559900 14 17841696703065745975
244849 19 17610623394932382811
249057 25 18113339696497657124
3380486 145 18127997267988944961
376196 1 17325783478427347005
4015057 19 17459754907010673422
4280585 95 18272363230757873391
469060 322 18130519590570453418
497634 4 17274555264503921126
57527585 103 17460911503085748779
6677587 24 16018839077988000805
9981440 41 18265623082814069066

>  <PUBCHEM_SHAPE_MULTIPOLES>  (1) 
673.02
13.59
5.03
2.75
31.05
10.89
2.98
-8.34
-5.89
-7.63
-0.82
-1.7
-1.53
-1.22

>  <PUBCHEM_SHAPE_SELFOVERLAP>  (1) 
1448.457

>  <PUBCHEM_SHAPE_VOLUME>  (1) 
374.1

>  <PUBCHEM_COORDINATE_TYPE>  (1) 
2
5
10

$$$$
