36445
     RDKit          3D

 33 36  0  0  1  0  0  0  0  0999 V2000
   -0.4279   -0.6991   -2.0653 O   0  0  0  0  0  0  0  0  0  0  0  0
    3.8303   -0.5722    1.5194 O   0  0  0  0  0  0  0  0  0  0  0  0
    0.2023   -0.6005    0.2052 N   0  0  0  0  0  0  0  0  0  0  0  0
    1.5410   -0.8723    0.0806 N   0  0  0  0  0  0  0  0  0  0  0  0
   -1.1576    4.6837   -0.6929 N   0  0  0  0  0  0  0  0  0  0  0  0
   -2.0792   -0.1854   -0.2926 C   0  0  0  0  0  0  0  0  0  0  0  0
   -2.5609    1.1523   -0.8464 C   0  0  0  0  0  0  0  0  0  0  0  0
   -1.7814   -0.1157    1.1977 C   0  0  0  0  0  0  0  0  0  0  0  0
   -0.6760   -0.5300   -0.8797 C   0  0  0  0  0  0  0  0  0  0  0  0
   -0.4255   -0.3655    1.4268 C   0  0  0  0  0  0  0  0  0  0  0  0
   -3.0446   -1.2788   -0.6240 C   0  0  0  0  0  0  0  0  0  0  0  0
   -1.6013    2.2826   -0.4808 C   0  0  0  0  0  0  0  0  0  0  0  0
   -2.6379    0.1512    2.2538 C   0  0  0  0  0  0  0  0  0  0  0  0
   -2.0724    3.6120   -1.0677 C   0  0  0  0  0  0  0  0  0  0  0  0
    0.1152   -0.3609    2.7005 C   0  0  0  0  0  0  0  0  0  0  0  0
   -2.5715   -2.5535   -0.9260 C   0  0  0  0  0  0  0  0  0  0  0  0
   -4.4127   -1.0174   -0.6294 C   0  0  0  0  0  0  0  0  0  0  0  0
    2.2013    0.1704   -0.7074 C   0  0  0  0  0  0  0  0  0  0  0  0
   -2.1091    0.1595    3.5470 C   0  0  0  0  0  0  0  0  0  0  0  0
   -0.7446   -0.0946    3.7681 C   0  0  0  0  0  0  0  0  0  0  0  0
    1.7391   -2.1841   -0.5390 C   0  0  0  0  0  0  0  0  0  0  0  0
   -3.4721   -3.5729   -1.2353 C   0  0  0  0  0  0  0  0  0  0  0  0
   -5.3131   -2.0369   -0.9386 C   0  0  0  0  0  0  0  0  0  0  0  0
    3.6842   -0.0651   -0.8187 C   0  0  0  0  0  0  0  0  0  0  0  0
   -4.8428   -3.3144   -1.2416 C   0  0  0  0  0  0  0  0  0  0  0  0
   -1.0645    4.7961    0.7637 C   0  0  0  0  0  0  0  0  0  0  0  0
   -1.5889    5.9564   -1.2736 C   0  0  0  0  0  0  0  0  0  0  0  0
    4.4223   -0.4245    0.3012 C   0  0  0  0  0  0  0  0  0  0  0  0
    4.2945    0.0840   -2.0573 C   0  0  0  0  0  0  0  0  0  0  0  0
    5.7954   -0.6389    0.1804 C   0  0  0  0  0  0  0  0  0  0  0  0
    5.6676   -0.1303   -2.1779 C   0  0  0  0  0  0  0  0  0  0  0  0
    6.4180   -0.4916   -1.0592 C   0  0  0  0  0  0  0  0  0  0  0  0
    4.6729   -0.9435    2.6085 C   0  0  0  0  0  0  0  0  0  0  0  0
  1  9  2  0
  2 28  1  0
  2 33  1  0
  3  4  1  0
  3  9  1  0
  3 10  1  0
  4 18  1  0
  4 21  1  0
  5 14  1  0
  5 26  1  0
  5 27  1  0
  6  7  1  0
  6  8  1  0
  6  9  1  0
  6 11  1  0
  7 12  1  0
  8 10  2  0
  8 13  1  0
 10 15  1  0
 11 16  2  0
 11 17  1  0
 12 14  1  0
 13 19  2  0
 15 20  2  0
 16 22  1  0
 17 23  2  0
 18 24  1  0
 19 20  1  0
 22 25  2  0
 23 25  1  0
 24 28  2  0
 24 29  1  0
 28 30  1  0
 29 31  2  0
 30 32  2  0
 31 32  1  0
M  END
>  <PUBCHEM_COMPOUND_CID>  (1) 
36445

>  <PUBCHEM_CONFORMER_RMSD>  (1) 
1

>  <PUBCHEM_CONFORMER_DIVERSEORDER>  (1) 
63
51
71
53
88
44
87
69
131
92
129
135
133
150
121
124
36
43
24
118
39
163
161
80
52
1
93
81
128
40
115
154
46
123
159
144
160
7
127
110
26
145
108
116
156
94
148
79
48
12
28
90
49
59
117
91
111
42
119
100
54
157
89
152
83
141
114
102
120
56
147
66
95
62
41
6
113
126
122
60
78
21
155
57
11
58
50
25
98
65
68
107
9
3
136
137
10
16
31
73
153
138
165
146
106
17
70
19
33
14
82
84
29
125
143
15
38
134
99
139
5
13
101
104
47
151
85
27
77
162
18
112
164
4
20
96
35
2
61
34
140
75
86
130
30
158
142
45
76
22
105
55
97
67
132
72
32
37
23
103
149
74
8
64
109

>  <PUBCHEM_MMFF94_PARTIAL_CHARGES>  (1) 
44
1 -0.57
10 0.12
11 -0.14
13 -0.15
14 0.27
15 -0.15
16 -0.15
17 -0.15
18 0.41
19 -0.15
2 -0.36
20 -0.15
21 0.27
22 -0.15
23 -0.15
24 -0.14
25 -0.15
26 0.27
27 0.27
28 0.08
29 -0.15
3 -0.17
30 -0.15
31 -0.15
32 -0.15
33 0.28
38 0.15
4 -0.55
41 0.15
42 0.15
43 0.15
46 0.15
47 0.15
5 -0.81
51 0.15
52 0.15
53 0.15
6 0.35
60 0.15
61 0.15
62 0.15
63 0.15
8 -0.14
9 0.57

>  <PUBCHEM_EFFECTIVE_ROTOR_COUNT>  (1) 
9.4

>  <PUBCHEM_PHARMACOPHORE_FEATURES>  (1) 
7
1 1 acceptor
1 2 acceptor
1 5 cation
5 3 6 8 9 10 rings
6 11 16 17 22 23 25 rings
6 24 28 29 30 31 32 rings
6 8 10 13 15 19 20 rings

>  <PUBCHEM_HEAVY_ATOM_COUNT>  (1) 
33

>  <PUBCHEM_ATOM_DEF_STEREO_COUNT>  (1) 
0

>  <PUBCHEM_ATOM_UDEF_STEREO_COUNT>  (1) 
1

>  <PUBCHEM_BOND_DEF_STEREO_COUNT>  (1) 
0

>  <PUBCHEM_BOND_UDEF_STEREO_COUNT>  (1) 
0

>  <PUBCHEM_ISOTOPIC_ATOM_COUNT>  (1) 
0

>  <PUBCHEM_COMPONENT_COUNT>  (1) 
1

>  <PUBCHEM_CACTVS_TAUTO_COUNT>  (1) 
1

>  <PUBCHEM_CONFORMER_ID>  (1) 
00008E5D0000003F

>  <PUBCHEM_MMFF94_ENERGY>  (1) 
121.1494

>  <PUBCHEM_FEATURE_SELFOVERLAP>  (1) 
35.607

>  <PUBCHEM_SHAPE_FINGERPRINT>  (1) 
10937287 8 17618218403960072533
11059845 2 17688561907368324768
11488393 25 17326893379786552411
11578080 2 17840048250591454540
11763715 3 18191325933724241716
12788726 201 18261106344665338515
133893 2 17691152712850537137
14068700 675 18333730251721979204
14294032 229 18267310828826143749
14713325 29 18270962328120977261
15361156 5 17606411952087310958
15439362 3 17689147229838461557
15961568 22 18195238052432349876
1813 80 18198049481804042991
21033650 10 18190482475705018118
21716022 299 17556027127680098033
23419403 2 17100608316380666185
23559900 14 17840291540037667527
3552219 110 17773332320364450594
376196 1 17251751152821137773
469060 322 18341902904128191178
497634 4 17846232063316445380
5104073 3 16056610811785829730
531348 171 18193565467570674302
57527585 21 17824855340874098958
6700243 42 18129402469893139564
9981440 41 17977951189480850165

>  <PUBCHEM_SHAPE_MULTIPOLES>  (1) 
652.44
11.26
5.03
3.03
16.76
10.95
3.63
-8.46
-4.82
-7.95
-3.28
0.28
-0.18
-1.37

>  <PUBCHEM_SHAPE_SELFOVERLAP>  (1) 
1411.854

>  <PUBCHEM_SHAPE_VOLUME>  (1) 
359.9

>  <PUBCHEM_COORDINATE_TYPE>  (1) 
2
5
10

$$$$
