36444
     RDKit          3D

 32 35  0  0  1  0  0  0  0  0999 V2000
   -0.2159   -0.3281    1.7722 O   0  0  0  0  0  0  0  0  0  0  0  0
    4.0551   -1.1954    1.8741 O   0  0  0  0  0  0  0  0  0  0  0  0
    0.0919    0.7355   -0.3101 N   0  0  0  0  0  0  0  0  0  0  0  0
    1.4015    1.1207   -0.1761 N   0  0  0  0  0  0  0  0  0  0  0  0
   -1.5429   -3.8094   -1.0002 N   0  0  0  0  0  0  0  0  0  0  0  0
   -2.0439   -0.2086    0.1055 C   0  0  0  0  0  0  0  0  0  0  0  0
   -1.9556    0.4681   -1.2543 C   0  0  0  0  0  0  0  0  0  0  0  0
   -2.3084   -1.7065   -0.0134 C   0  0  0  0  0  0  0  0  0  0  0  0
   -0.6120    0.0354    0.6737 C   0  0  0  0  0  0  0  0  0  0  0  0
   -0.6772    1.0009   -1.4413 C   0  0  0  0  0  0  0  0  0  0  0  0
   -3.0548    0.4428    0.9947 C   0  0  0  0  0  0  0  0  0  0  0  0
   -1.2577   -2.3841   -0.8863 C   0  0  0  0  0  0  0  0  0  0  0  0
   -2.9232    0.5937   -2.2381 C   0  0  0  0  0  0  0  0  0  0  0  0
   -0.3252    1.6714   -2.5996 C   0  0  0  0  0  0  0  0  0  0  0  0
   -4.1338   -0.2955    1.4753 C   0  0  0  0  0  0  0  0  0  0  0  0
   -2.9134    1.7852    1.3381 C   0  0  0  0  0  0  0  0  0  0  0  0
    2.2662   -0.0529   -0.0385 C   0  0  0  0  0  0  0  0  0  0  0  0
   -2.5855    1.2680   -3.4143 C   0  0  0  0  0  0  0  0  0  0  0  0
   -1.2979    1.8022   -3.5931 C   0  0  0  0  0  0  0  0  0  0  0  0
    1.5562    2.0080    0.9785 C   0  0  0  0  0  0  0  0  0  0  0  0
   -5.0767    0.3123    2.3043 C   0  0  0  0  0  0  0  0  0  0  0  0
   -3.8564    2.3929    2.1672 C   0  0  0  0  0  0  0  0  0  0  0  0
   -1.4995   -4.4505    0.3152 C   0  0  0  0  0  0  0  0  0  0  0  0
   -0.5947   -4.4539   -1.9105 C   0  0  0  0  0  0  0  0  0  0  0  0
    3.7196    0.3290    0.0551 C   0  0  0  0  0  0  0  0  0  0  0  0
   -4.9379    1.6565    2.6501 C   0  0  0  0  0  0  0  0  0  0  0  0
    4.5393   -0.2626    1.0071 C   0  0  0  0  0  0  0  0  0  0  0  0
    4.2199    1.2795   -0.8252 C   0  0  0  0  0  0  0  0  0  0  0  0
    5.8835    0.1028    1.0801 C   0  0  0  0  0  0  0  0  0  0  0  0
    5.5642    1.6449   -0.7520 C   0  0  0  0  0  0  0  0  0  0  0  0
    6.3959    1.0567    0.2007 C   0  0  0  0  0  0  0  0  0  0  0  0
    4.1196   -2.5590    1.4611 C   0  0  0  0  0  0  0  0  0  0  0  0
  1  9  2  0
  2 27  1  0
  2 32  1  0
  3  4  1  0
  3  9  1  0
  3 10  1  0
  4 17  1  0
  4 20  1  0
  5 12  1  0
  5 23  1  0
  5 24  1  0
  6  7  1  0
  6  8  1  0
  6  9  1  0
  6 11  1  0
  7 10  2  0
  7 13  1  0
  8 12  1  0
 10 14  1  0
 11 15  2  0
 11 16  1  0
 13 18  2  0
 14 19  2  0
 15 21  1  0
 16 22  2  0
 17 25  1  0
 18 19  1  0
 21 26  2  0
 22 26  1  0
 25 27  2  0
 25 28  1  0
 27 29  1  0
 28 30  2  0
 29 31  2  0
 30 31  1  0
M  END
>  <PUBCHEM_COMPOUND_CID>  (1) 
36444

>  <PUBCHEM_CONFORMER_RMSD>  (1) 
1

>  <PUBCHEM_CONFORMER_DIVERSEORDER>  (1) 
1
13
82
55
61
60
88
81
7
74
33
53
84
22
11
21
57
80
76
83
87
39
43
40
54
75
28
52
8
5
47
51
45
67
64
70
46
36
49
38
25
56
31
66
86
3
29
30
48
42
79
6
9
77
37
24
73
20
65
16
78
58
19
35
14
89
41
85
15
71
59
34
63
68
72
69
26
12
2
23
62
10
17
4
18
50
32
27
44

>  <PUBCHEM_MMFF94_PARTIAL_CHARGES>  (1) 
44
1 -0.57
10 0.12
11 -0.14
12 0.27
13 -0.15
14 -0.15
15 -0.15
16 -0.15
17 0.41
18 -0.15
19 -0.15
2 -0.36
20 0.27
21 -0.15
22 -0.15
23 0.27
24 0.27
25 -0.14
26 -0.15
27 0.08
28 -0.15
29 -0.15
3 -0.17
30 -0.15
31 -0.15
32 0.28
37 0.15
38 0.15
39 0.15
4 -0.55
40 0.15
43 0.15
44 0.15
48 0.15
49 0.15
5 -0.81
56 0.15
57 0.15
58 0.15
59 0.15
6 0.35
60 0.15
7 -0.14
9 0.57

>  <PUBCHEM_EFFECTIVE_ROTOR_COUNT>  (1) 
8.4

>  <PUBCHEM_PHARMACOPHORE_FEATURES>  (1) 
7
1 1 acceptor
1 2 acceptor
1 5 cation
5 3 6 7 9 10 rings
6 11 15 16 21 22 26 rings
6 25 27 28 29 30 31 rings
6 7 10 13 14 18 19 rings

>  <PUBCHEM_HEAVY_ATOM_COUNT>  (1) 
32

>  <PUBCHEM_ATOM_DEF_STEREO_COUNT>  (1) 
0

>  <PUBCHEM_ATOM_UDEF_STEREO_COUNT>  (1) 
1

>  <PUBCHEM_BOND_DEF_STEREO_COUNT>  (1) 
0

>  <PUBCHEM_BOND_UDEF_STEREO_COUNT>  (1) 
0

>  <PUBCHEM_ISOTOPIC_ATOM_COUNT>  (1) 
0

>  <PUBCHEM_COMPONENT_COUNT>  (1) 
1

>  <PUBCHEM_CACTVS_TAUTO_COUNT>  (1) 
1

>  <PUBCHEM_CONFORMER_ID>  (1) 
00008E5C00000001

>  <PUBCHEM_MMFF94_ENERGY>  (1) 
121.5392

>  <PUBCHEM_FEATURE_SELFOVERLAP>  (1) 
35.607

>  <PUBCHEM_SHAPE_FINGERPRINT>  (1) 
10764073 3 17681280953890460361
107951 10 17632028484931872199
11135926 11 18412256213375165034
11552529 35 18127122207204984798
12422481 6 17968951764359196193
12633257 1 18342459270049825704
12788726 201 18127411369952102827
13009979 54 17760943126781211647
133893 2 17622981527334093015
13583140 156 17531237315139431068
14020679 6 17704077308467175803
14068700 675 17913477215356202831
14840074 17 17968388930470235966
14856354 85 18201446938511250180
14910302 57 13407341937766822306
15775530 1 17393613480505279383
17980427 23 18115328725775241721
17980427 26 17771354076024500799
1813 80 17096390408897631125
20602899 9 18196622221348432487
21756936 100 17846499240230892120
23419403 2 17541958489997682421
3380486 145 17968088767684924613
376196 1 16739696578952529605
4015057 19 11527937950649523890
497634 4 18268148841374929660
5080951 261 18193255585643143242
5104073 3 16878213179007277840
5171179 24 17401212166868557733
57527585 103 17769905160196278425
59755656 520 18201726141423861366
6669772 16 17058953077796770399

>  <PUBCHEM_SHAPE_MULTIPOLES>  (1) 
631.86
11.47
3.83
3.18
16.46
6.78
2.13
-4.76
-7.76
-1.86
1.2
-4.07
-1.7
-2.05

>  <PUBCHEM_SHAPE_SELFOVERLAP>  (1) 
1371.852

>  <PUBCHEM_SHAPE_VOLUME>  (1) 
347.8

>  <PUBCHEM_COORDINATE_TYPE>  (1) 
2
5
10

$$$$
