36443
     RDKit          3D

 32 35  0  0  1  0  0  0  0  0999 V2000
   -0.3091   -0.7858   -1.9142 O   0  0  0  0  0  0  0  0  0  0  0  0
    0.2184   -0.6897    0.3824 N   0  0  0  0  0  0  0  0  0  0  0  0
    1.5281   -1.0934    0.3309 N   0  0  0  0  0  0  0  0  0  0  0  0
   -0.5701    4.6769   -0.6924 N   0  0  0  0  0  0  0  0  0  0  0  0
   -1.9847   -0.0675   -0.2381 C   0  0  0  0  0  0  0  0  0  0  0  0
   -2.3053    1.2960   -0.8429 C   0  0  0  0  0  0  0  0  0  0  0  0
   -1.7534    0.0111    1.2636 C   0  0  0  0  0  0  0  0  0  0  0  0
   -0.5957   -0.5619   -0.7466 C   0  0  0  0  0  0  0  0  0  0  0  0
   -0.4412   -0.3635    1.5657 C   0  0  0  0  0  0  0  0  0  0  0  0
   -3.0360   -1.0699   -0.5947 C   0  0  0  0  0  0  0  0  0  0  0  0
   -1.2577    2.3366   -0.4532 C   0  0  0  0  0  0  0  0  0  0  0  0
   -2.6291    0.3870    2.2695 C   0  0  0  0  0  0  0  0  0  0  0  0
   -1.5670    3.6901   -1.0904 C   0  0  0  0  0  0  0  0  0  0  0  0
    0.0356   -0.3790    2.8646 C   0  0  0  0  0  0  0  0  0  0  0  0
   -2.6769   -2.3919   -0.8460 C   0  0  0  0  0  0  0  0  0  0  0  0
   -4.3699   -0.6769   -0.6745 C   0  0  0  0  0  0  0  0  0  0  0  0
    2.3249   -0.1405   -0.4444 C   0  0  0  0  0  0  0  0  0  0  0  0
   -2.1648    0.3770    3.5872 C   0  0  0  0  0  0  0  0  0  0  0  0
   -0.8441   -0.0029    3.8819 C   0  0  0  0  0  0  0  0  0  0  0  0
    1.6258   -2.4338   -0.2505 C   0  0  0  0  0  0  0  0  0  0  0  0
   -3.6575   -3.3265   -1.1789 C   0  0  0  0  0  0  0  0  0  0  0  0
   -5.3504   -1.6113   -1.0073 C   0  0  0  0  0  0  0  0  0  0  0  0
    3.7811   -0.5219   -0.4759 C   0  0  0  0  0  0  0  0  0  0  0  0
   -4.9943   -2.9361   -1.2595 C   0  0  0  0  0  0  0  0  0  0  0  0
   -0.8791    5.9849   -1.2730 C   0  0  0  0  0  0  0  0  0  0  0  0
    0.7703    4.2470   -1.0947 C   0  0  0  0  0  0  0  0  0  0  0  0
    4.6539   -0.0550    0.4982 C   0  0  0  0  0  0  0  0  0  0  0  0
    4.2301   -1.3483   -1.4983 C   0  0  0  0  0  0  0  0  0  0  0  0
    5.9990   -0.4209    0.4494 C   0  0  0  0  0  0  0  0  0  0  0  0
    4.1843    0.8349    1.6020 C   0  0  0  0  0  0  0  0  0  0  0  0
    5.5752   -1.7142   -1.5468 C   0  0  0  0  0  0  0  0  0  0  0  0
    6.4597   -1.2505   -0.5731 C   0  0  0  0  0  0  0  0  0  0  0  0
  1  8  2  0
  2  3  1  0
  2  8  1  0
  2  9  1  0
  3 17  1  0
  3 20  1  0
  4 13  1  0
  4 25  1  0
  4 26  1  0
  5  6  1  0
  5  7  1  0
  5  8  1  0
  5 10  1  0
  6 11  1  0
  7  9  2  0
  7 12  1  0
  9 14  1  0
 10 15  2  0
 10 16  1  0
 11 13  1  0
 12 18  2  0
 14 19  2  0
 15 21  1  0
 16 22  2  0
 17 23  1  0
 18 19  1  0
 21 24  2  0
 22 24  1  0
 23 27  2  0
 23 28  1  0
 27 29  1  0
 27 30  1  0
 28 31  2  0
 29 32  2  0
 31 32  1  0
M  END
>  <PUBCHEM_COMPOUND_CID>  (1) 
36443

>  <PUBCHEM_CONFORMER_RMSD>  (1) 
1

>  <PUBCHEM_CONFORMER_DIVERSEORDER>  (1) 
13
43
96
9
34
51
92
81
95
53
93
45
90
36
39
84
44
71
86
55
59
12
60
47
70
31
64
28
8
32
69
16
54
42
37
35
77
73
24
26
33
21
85
25
49
79
87
10
18
82
48
4
19
14
17
78
94
11
80
52
89
65
5
41
6
27
7
91
23
2
1
63
72
3
66
30
76
67
56
22
88
83
62
57
68
46
74
38
75
40
29
58
50
61
20
15

>  <PUBCHEM_MMFF94_PARTIAL_CHARGES>  (1) 
43
1 -0.57
10 -0.14
12 -0.15
13 0.27
14 -0.15
15 -0.15
16 -0.15
17 0.41
18 -0.15
19 -0.15
2 -0.17
20 0.27
21 -0.15
22 -0.15
23 -0.14
24 -0.15
25 0.27
26 0.27
27 -0.14
28 -0.15
29 -0.15
3 -0.55
30 0.14
31 -0.15
32 -0.15
37 0.15
4 -0.81
40 0.15
41 0.15
42 0.15
45 0.15
46 0.15
5 0.35
50 0.15
51 0.15
52 0.15
59 0.15
60 0.15
64 0.15
65 0.15
7 -0.14
8 0.57
9 0.12

>  <PUBCHEM_EFFECTIVE_ROTOR_COUNT>  (1) 
8.4

>  <PUBCHEM_PHARMACOPHORE_FEATURES>  (1) 
6
1 1 acceptor
1 4 cation
5 2 5 7 8 9 rings
6 10 15 16 21 22 24 rings
6 23 27 28 29 31 32 rings
6 7 9 12 14 18 19 rings

>  <PUBCHEM_HEAVY_ATOM_COUNT>  (1) 
32

>  <PUBCHEM_ATOM_DEF_STEREO_COUNT>  (1) 
0

>  <PUBCHEM_ATOM_UDEF_STEREO_COUNT>  (1) 
1

>  <PUBCHEM_BOND_DEF_STEREO_COUNT>  (1) 
0

>  <PUBCHEM_BOND_UDEF_STEREO_COUNT>  (1) 
0

>  <PUBCHEM_ISOTOPIC_ATOM_COUNT>  (1) 
0

>  <PUBCHEM_COMPONENT_COUNT>  (1) 
1

>  <PUBCHEM_CACTVS_TAUTO_COUNT>  (1) 
1

>  <PUBCHEM_CONFORMER_ID>  (1) 
00008E5B0000000D

>  <PUBCHEM_MMFF94_ENERGY>  (1) 
108.9562

>  <PUBCHEM_FEATURE_SELFOVERLAP>  (1) 
30.532

>  <PUBCHEM_SHAPE_FINGERPRINT>  (1) 
10006869 2 17463695282329728073
10032420 55 17096622419010021631
11045515 52 18411135844199393372
11488393 25 17542508687930042379
11763715 3 18263382372410815662
12058002 1 17699324167072092727
12166972 35 18201438125343671920
12788726 201 18115296770642987713
133893 2 17905634420142205593
1361 2 17905035203479688132
14114206 34 17458345212993057628
15439362 3 17831852822421960781
15878777 1 14538567612820649921
15961568 22 18265043821002768436
17349148 13 17385442120340968566
21033650 10 18044676208728519758
23352939 185 18272369836174760313
23559900 14 17984121928800425079
329604 57 17346882286320476210
3552219 110 17845104024289029866
376196 1 17035012100543707477
404807 14 18342743992111496000
469060 322 18411706486597231234
497634 4 17918001555248308566
5104073 3 16701744852752265946
531348 171 18048884000968239766
57527585 21 17824857522722851110
7288768 16 17318182618921691684

>  <PUBCHEM_SHAPE_MULTIPOLES>  (1) 
637.73
11.04
5.02
2.8
15.02
10.7
3.95
-10.32
-4.11
-3.93
-4.53
-1.53
0.24
-0.26

>  <PUBCHEM_SHAPE_SELFOVERLAP>  (1) 
1380.694

>  <PUBCHEM_SHAPE_VOLUME>  (1) 
352.3

>  <PUBCHEM_COORDINATE_TYPE>  (1) 
2
5
10

$$$$
