36442
     RDKit          3D

 32 35  0  0  1  0  0  0  0  0999 V2000
   -4.1323    0.0511    1.6582 F   0  0  0  0  0  0  0  0  0  0  0  0
    0.2201   -0.5550   -1.7055 O   0  0  0  0  0  0  0  0  0  0  0  0
   -0.4874   -0.0482    0.4865 N   0  0  0  0  0  0  0  0  0  0  0  0
   -1.8058   -0.4138    0.3890 N   0  0  0  0  0  0  0  0  0  0  0  0
    3.5331   -3.5623   -0.7099 N   0  0  0  0  0  0  0  0  0  0  0  0
    1.7947    0.3502   -0.0218 C   0  0  0  0  0  0  0  0  0  0  0  0
    2.8236   -0.7750   -0.0807 C   0  0  0  0  0  0  0  0  0  0  0  0
    1.4374    0.7265    1.4083 C   0  0  0  0  0  0  0  0  0  0  0  0
    0.4235   -0.1537   -0.5683 C   0  0  0  0  0  0  0  0  0  0  0  0
    0.0850    0.4675    1.6475 C   0  0  0  0  0  0  0  0  0  0  0  0
    2.2496    1.5312   -0.8187 C   0  0  0  0  0  0  0  0  0  0  0  0
    2.3864   -1.9719    0.7609 C   0  0  0  0  0  0  0  0  0  0  0  0
    2.2436    1.2471    2.4079 C   0  0  0  0  0  0  0  0  0  0  0  0
    3.4049   -3.1068    0.6694 C   0  0  0  0  0  0  0  0  0  0  0  0
   -0.5030    0.7184    2.8747 C   0  0  0  0  0  0  0  0  0  0  0  0
    3.5264    1.5420   -1.3753 C   0  0  0  0  0  0  0  0  0  0  0  0
    1.3948    2.6158   -1.0004 C   0  0  0  0  0  0  0  0  0  0  0  0
    1.6665    1.5071    3.6535 C   0  0  0  0  0  0  0  0  0  0  0  0
   -2.4891    0.4061   -0.6135 C   0  0  0  0  0  0  0  0  0  0  0  0
    0.3051    1.2451    3.8844 C   0  0  0  0  0  0  0  0  0  0  0  0
   -1.9172   -1.8340    0.0502 C   0  0  0  0  0  0  0  0  0  0  0  0
    3.9506    2.6440   -2.1181 C   0  0  0  0  0  0  0  0  0  0  0  0
    1.8190    3.7175   -1.7433 C   0  0  0  0  0  0  0  0  0  0  0  0
   -3.9537    0.0707   -0.7089 C   0  0  0  0  0  0  0  0  0  0  0  0
    3.0968    3.7316   -2.3021 C   0  0  0  0  0  0  0  0  0  0  0  0
    4.5268   -4.6327   -0.8092 C   0  0  0  0  0  0  0  0  0  0  0  0
    2.2409   -4.0202   -1.2236 C   0  0  0  0  0  0  0  0  0  0  0  0
   -4.6985   -0.0888    0.4514 C   0  0  0  0  0  0  0  0  0  0  0  0
   -4.5384   -0.0750   -1.9593 C   0  0  0  0  0  0  0  0  0  0  0  0
   -6.0552   -0.3998    0.3594 C   0  0  0  0  0  0  0  0  0  0  0  0
   -5.8951   -0.3861   -2.0511 C   0  0  0  0  0  0  0  0  0  0  0  0
   -6.6534   -0.5486   -0.8918 C   0  0  0  0  0  0  0  0  0  0  0  0
  1 28  1  0
  2  9  2  0
  3  4  1  0
  3  9  1  0
  3 10  1  0
  4 19  1  0
  4 21  1  0
  5 14  1  0
  5 26  1  0
  5 27  1  0
  6  7  1  0
  6  8  1  0
  6  9  1  0
  6 11  1  0
  7 12  1  0
  8 10  2  0
  8 13  1  0
 10 15  1  0
 11 16  2  0
 11 17  1  0
 12 14  1  0
 13 18  2  0
 15 20  2  0
 16 22  1  0
 17 23  2  0
 18 20  1  0
 19 24  1  0
 22 25  2  0
 23 25  1  0
 24 28  2  0
 24 29  1  0
 28 30  1  0
 29 31  2  0
 30 32  2  0
 31 32  1  0
M  END
>  <PUBCHEM_COMPOUND_CID>  (1) 
36442

>  <PUBCHEM_CONFORMER_RMSD>  (1) 
1

>  <PUBCHEM_CONFORMER_DIVERSEORDER>  (1) 
21
61
39
86
32
81
78
67
89
65
24
90
25
22
33
83
84
73
58
2
40
53
47
37
4
80
55
8
48
87
28
12
49
46
51
66
43
50
60
45
7
13
62
3
34
64
88
59
18
15
76
29
56
77
70
14
31
19
38
6
5
79
35
11
10
68
9
71
82
52
1
20
30
85
42
17
27
69
26
57
75
16
41
36
23
74
44
63
72
54

>  <PUBCHEM_MMFF94_PARTIAL_CHARGES>  (1) 
43
1 -0.19
10 0.12
11 -0.14
13 -0.15
14 0.27
15 -0.15
16 -0.15
17 -0.15
18 -0.15
19 0.41
2 -0.57
20 -0.15
21 0.27
22 -0.15
23 -0.15
24 -0.14
25 -0.15
26 0.27
27 0.27
28 0.19
29 -0.15
3 -0.17
30 -0.15
31 -0.15
32 -0.15
37 0.15
4 -0.55
40 0.15
41 0.15
42 0.15
45 0.15
46 0.15
5 -0.81
50 0.15
51 0.15
52 0.15
59 0.15
6 0.35
60 0.15
61 0.15
62 0.15
8 -0.14
9 0.57

>  <PUBCHEM_EFFECTIVE_ROTOR_COUNT>  (1) 
8.4

>  <PUBCHEM_PHARMACOPHORE_FEATURES>  (1) 
6
1 2 acceptor
1 5 cation
5 3 6 8 9 10 rings
6 11 16 17 22 23 25 rings
6 24 28 29 30 31 32 rings
6 8 10 13 15 18 20 rings

>  <PUBCHEM_HEAVY_ATOM_COUNT>  (1) 
32

>  <PUBCHEM_ATOM_DEF_STEREO_COUNT>  (1) 
0

>  <PUBCHEM_ATOM_UDEF_STEREO_COUNT>  (1) 
1

>  <PUBCHEM_BOND_DEF_STEREO_COUNT>  (1) 
0

>  <PUBCHEM_BOND_UDEF_STEREO_COUNT>  (1) 
0

>  <PUBCHEM_ISOTOPIC_ATOM_COUNT>  (1) 
0

>  <PUBCHEM_COMPONENT_COUNT>  (1) 
1

>  <PUBCHEM_CACTVS_TAUTO_COUNT>  (1) 
1

>  <PUBCHEM_CONFORMER_ID>  (1) 
00008E5A00000015

>  <PUBCHEM_MMFF94_ENERGY>  (1) 
105.2503

>  <PUBCHEM_FEATURE_SELFOVERLAP>  (1) 
30.532

>  <PUBCHEM_SHAPE_FINGERPRINT>  (1) 
10721379 63 18338811056351668324
11443803 9 17537426702057576884
11497681 19 17841998789622788990
11582403 64 17243581081526083904
11763715 3 17559410063018461946
12058002 1 18261398827928553872
12166972 35 18270962332358175367
13009979 54 18127697028073543817
133893 2 18121815809660061782
14068700 675 17985830333119383726
14674994 50 17478057055570893376
14955137 171 16734919321099230368
15082195 135 18192978534519911423
15878777 1 13789707985858011736
17909252 39 18334296427359408732
1813 80 18195530290169622102
23419403 2 17410170008274704912
23559900 14 18410284826900721839
239999 70 17603577552026718509
25222932 49 16842449527082042975
25223398 141 17835789069221564466
3411729 13 17096357492020725197
34797466 226 17822286912572937239
3552219 110 18058451994292742794
376196 1 17388823264477763196
4017518 198 18269004245290984006
44802255 64 17321583761248435796
46194498 28 18186799175606999615
463206 1 17917699176650958039
469060 322 17831591872993958010
5081480 168 17896620404763362157
5104073 3 15719657798584511257
57527452 28 18201998842204249766
5895379 119 18116976828758834269
6677587 24 17972009673494233589

>  <PUBCHEM_SHAPE_MULTIPOLES>  (1) 
630.46
11.03
4.48
3.27
23.09
3.48
3.48
3.76
-6.24
-10.64
-3.5
-1.42
-2.55
-0.9

>  <PUBCHEM_SHAPE_SELFOVERLAP>  (1) 
1370.757

>  <PUBCHEM_SHAPE_VOLUME>  (1) 
348.5

>  <PUBCHEM_COORDINATE_TYPE>  (1) 
2
5
10

$$$$
