36446
     RDKit          3D

 34 37  0  0  1  0  0  0  0  0999 V2000
   -1.3316   -0.1422    2.3751 O   0  0  0  0  0  0  0  0  0  0  0  0
    4.8092    1.0408    0.4613 O   0  0  0  0  0  0  0  0  0  0  0  0
   -0.5669   -1.5393    0.6356 N   0  0  0  0  0  0  0  0  0  0  0  0
    0.0992   -2.4731    1.3870 N   0  0  0  0  0  0  0  0  0  0  0  0
    0.8316    3.0586   -0.2363 N   0  0  0  0  0  0  0  0  0  0  0  0
   -1.8351    0.3621    0.0025 C   0  0  0  0  0  0  0  0  0  0  0  0
   -1.2338    1.7639   -0.0377 C   0  0  0  0  0  0  0  0  0  0  0  0
   -1.4054   -0.4816   -1.1886 C   0  0  0  0  0  0  0  0  0  0  0  0
   -1.2295   -0.4417    1.1941 C   0  0  0  0  0  0  0  0  0  0  0  0
   -0.6619   -1.5818   -0.7521 C   0  0  0  0  0  0  0  0  0  0  0  0
   -3.3230    0.4234    0.1425 C   0  0  0  0  0  0  0  0  0  0  0  0
    0.2790    1.7095   -0.2205 C   0  0  0  0  0  0  0  0  0  0  0  0
   -1.6489   -0.2858   -2.5385 C   0  0  0  0  0  0  0  0  0  0  0  0
   -0.1451   -2.5141   -1.6343 C   0  0  0  0  0  0  0  0  0  0  0  0
   -3.9790    1.6532    0.0857 C   0  0  0  0  0  0  0  0  0  0  0  0
   -4.0548   -0.7494    0.3301 C   0  0  0  0  0  0  0  0  0  0  0  0
   -1.1350   -1.2175   -3.4442 C   0  0  0  0  0  0  0  0  0  0  0  0
    1.2112   -1.8491    2.1071 C   0  0  0  0  0  0  0  0  0  0  0  0
    0.9135    3.5982    1.1222 C   0  0  0  0  0  0  0  0  0  0  0  0
    2.1530    3.0672   -0.8663 C   0  0  0  0  0  0  0  0  0  0  0  0
   -0.3899   -2.3218   -2.9957 C   0  0  0  0  0  0  0  0  0  0  0  0
   -0.8185   -3.1210    2.3264 C   0  0  0  0  0  0  0  0  0  0  0  0
   -5.3666    1.7100    0.2165 C   0  0  0  0  0  0  0  0  0  0  0  0
   -5.4423   -0.6924    0.4608 C   0  0  0  0  0  0  0  0  0  0  0  0
    2.3943   -1.6041    1.2087 C   0  0  0  0  0  0  0  0  0  0  0  0
   -6.0981    0.5372    0.4041 C   0  0  0  0  0  0  0  0  0  0  0  0
    1.4259    5.0284    1.1149 C   0  0  0  0  0  0  0  0  0  0  0  0
    2.0914    2.5108   -2.2787 C   0  0  0  0  0  0  0  0  0  0  0  0
    3.0628   -0.3805    1.2534 C   0  0  0  0  0  0  0  0  0  0  0  0
    2.8202   -2.6000    0.3300 C   0  0  0  0  0  0  0  0  0  0  0  0
    4.1572   -0.1530    0.4188 C   0  0  0  0  0  0  0  0  0  0  0  0
    3.9145   -2.3726   -0.5044 C   0  0  0  0  0  0  0  0  0  0  0  0
    4.5830   -1.1490   -0.4600 C   0  0  0  0  0  0  0  0  0  0  0  0
    5.9193    1.2063   -0.4196 C   0  0  0  0  0  0  0  0  0  0  0  0
  1  9  2  0
  2 31  1  0
  2 34  1  0
  3  4  1  0
  3  9  1  0
  3 10  1  0
  4 18  1  0
  4 22  1  0
  5 12  1  0
  5 19  1  0
  5 20  1  0
  6  7  1  0
  6  8  1  0
  6  9  1  0
  6 11  1  0
  7 12  1  0
  8 10  2  0
  8 13  1  0
 10 14  1  0
 11 15  2  0
 11 16  1  0
 13 17  2  0
 14 21  2  0
 15 23  1  0
 16 24  2  0
 17 21  1  0
 18 25  1  0
 19 27  1  0
 20 28  1  0
 23 26  2  0
 24 26  1  0
 25 29  2  0
 25 30  1  0
 29 31  1  0
 30 32  2  0
 31 33  2  0
 32 33  1  0
M  END
>  <PUBCHEM_COMPOUND_CID>  (1) 
36446

>  <PUBCHEM_CONFORMER_RMSD>  (1) 
1

>  <PUBCHEM_CONFORMER_DIVERSEORDER>  (1) 
10
89
136
216
46
217
241
74
112
152
146
169
239
87
240
117
184
168
34
237
25
204
233
110
171
70
51
213
230
209
199
182
247
78
118
162
56
124
179
228
48
191
166
155
150
148
29
43
189
167
153
188
160
121
81
181
41
72
83
208
161
92
68
58
238
94
135
147
220
19
156
231
79
243
142
84
235
138
178
131
73
88
165
64
174
244
157
50
158
229
104
128
61
63
186
31
59
134
113
203
201
144
23
54
234
55
221
69
173
38
207
14
86
223
11
193
22
85
111
60
15
245
129
13
12
75
8
114
170
127
21
141
196
151
122
133
200
105
187
39
154
57
210
175
224
80
82
215
17
126
130
226
91
195
132
66
93
28
236
108
185
143
177
71
219
77
24
248
27
194
65
232
180
20
242
101
26
102
30
49
107
218
4
18
125
62
53
212
140
33
139
97
35
2
145
120
7
32
214
197
172
211
47
116
227
42
90
225
123
202
163
67
190
149
106
115
246
1
16
222
5
103
192
98
44
206
45
96
52
159
176
100
198
6
137
37
183
99
109
9
40
3
119
164
95
76
36
205

>  <PUBCHEM_MMFF94_PARTIAL_CHARGES>  (1) 
44
1 -0.57
10 0.12
11 -0.14
12 0.27
13 -0.15
14 -0.15
15 -0.15
16 -0.15
17 -0.15
18 0.41
19 0.27
2 -0.36
20 0.27
21 -0.15
22 0.27
23 -0.15
24 -0.15
25 -0.14
26 -0.15
29 -0.15
3 -0.17
30 -0.15
31 0.08
32 -0.15
33 -0.15
34 0.28
39 0.15
4 -0.55
40 0.15
41 0.15
42 0.15
43 0.15
5 -0.81
50 0.15
54 0.15
55 0.15
56 0.15
6 0.35
63 0.15
64 0.15
65 0.15
66 0.15
8 -0.14
9 0.57

>  <PUBCHEM_EFFECTIVE_ROTOR_COUNT>  (1) 
10.4

>  <PUBCHEM_PHARMACOPHORE_FEATURES>  (1) 
7
1 1 acceptor
1 2 acceptor
1 5 cation
5 3 6 8 9 10 rings
6 11 15 16 23 24 26 rings
6 25 29 30 31 32 33 rings
6 8 10 13 14 17 21 rings

>  <PUBCHEM_HEAVY_ATOM_COUNT>  (1) 
34

>  <PUBCHEM_ATOM_DEF_STEREO_COUNT>  (1) 
0

>  <PUBCHEM_ATOM_UDEF_STEREO_COUNT>  (1) 
1

>  <PUBCHEM_BOND_DEF_STEREO_COUNT>  (1) 
0

>  <PUBCHEM_BOND_UDEF_STEREO_COUNT>  (1) 
0

>  <PUBCHEM_ISOTOPIC_ATOM_COUNT>  (1) 
0

>  <PUBCHEM_COMPONENT_COUNT>  (1) 
1

>  <PUBCHEM_CACTVS_TAUTO_COUNT>  (1) 
1

>  <PUBCHEM_CONFORMER_ID>  (1) 
00008E5E0000000A

>  <PUBCHEM_MMFF94_ENERGY>  (1) 
113.6473

>  <PUBCHEM_FEATURE_SELFOVERLAP>  (1) 
35.607

>  <PUBCHEM_SHAPE_FINGERPRINT>  (1) 
10006869 2 18050271583914226520
10165383 225 17459201690018296330
10721379 63 17184401976889646471
12058002 1 17771941301159978995
12107698 1 18193558866137303170
12156800 1 16460871425686448696
12422481 6 18127978499214242397
12553582 1 18339907291194008792
133893 2 17757228860147531381
14279260 333 18191020111654771214
14787075 74 18041000605306789019
14840074 17 18130784530007587605
14955137 171 18271527511647088485
15840311 113 17896608285014473053
15849732 13 18201719556816990636
19930381 70 18187925010984045466
21033648 29 17202463525697569329
23227448 37 18262241139349679362
23419403 2 17459450226779323647
23559900 14 17968095369724852281
25265897 201 17487643998459957748
35225 105 16531449566810490772
392239 28 18044098960148566227
469060 322 16153702180236603442
57527306 92 18337390435831113396

>  <PUBCHEM_SHAPE_MULTIPOLES>  (1) 
673.02
9.66
4.54
2.5
3.04
4.47
1.6
1.84
-1.28
-3.3
-0.73
0.24
-1.68
-0.66

>  <PUBCHEM_SHAPE_SELFOVERLAP>  (1) 
1448.393

>  <PUBCHEM_SHAPE_VOLUME>  (1) 
373.9

>  <PUBCHEM_COORDINATE_TYPE>  (1) 
2
5
10

$$$$
