36450
     RDKit          3D

 33 36  0  0  1  0  0  0  0  0999 V2000
   -0.5716    0.3330   -1.7659 O   0  0  0  0  0  0  0  0  0  0  0  0
    7.5896   -0.2332   -0.7824 O   0  0  0  0  0  0  0  0  0  0  0  0
    0.0043   -0.7310    0.2585 N   0  0  0  0  0  0  0  0  0  0  0  0
    1.3462   -0.9163    0.0431 N   0  0  0  0  0  0  0  0  0  0  0  0
   -2.2678    4.2365   -0.0670 N   0  0  0  0  0  0  0  0  0  0  0  0
   -2.2657   -0.0993   -0.0121 C   0  0  0  0  0  0  0  0  0  0  0  0
   -2.7374    1.3400    0.1727 C   0  0  0  0  0  0  0  0  0  0  0  0
   -2.0036   -0.7922    1.3167 C   0  0  0  0  0  0  0  0  0  0  0  0
   -0.8482   -0.1152   -0.6622 C   0  0  0  0  0  0  0  0  0  0  0  0
   -0.6529   -1.1368    1.4183 C   0  0  0  0  0  0  0  0  0  0  0  0
   -3.2204   -0.8676   -0.8698 C   0  0  0  0  0  0  0  0  0  0  0  0
   -1.7894    2.1230    1.0785 C   0  0  0  0  0  0  0  0  0  0  0  0
   -2.8855   -1.0848    2.3447 C   0  0  0  0  0  0  0  0  0  0  0  0
   -2.2497    3.5717    1.2307 C   0  0  0  0  0  0  0  0  0  0  0  0
   -0.1425   -1.7794    2.5324 C   0  0  0  0  0  0  0  0  0  0  0  0
   -4.4202   -0.2828   -1.2672 C   0  0  0  0  0  0  0  0  0  0  0  0
   -2.9054   -2.1650   -1.2668 C   0  0  0  0  0  0  0  0  0  0  0  0
    2.0225    0.3747   -0.0982 C   0  0  0  0  0  0  0  0  0  0  0  0
   -2.3876   -1.7339    3.4773 C   0  0  0  0  0  0  0  0  0  0  0  0
   -1.0281   -2.0782    3.5700 C   0  0  0  0  0  0  0  0  0  0  0  0
    1.5622   -1.7397   -1.1483 C   0  0  0  0  0  0  0  0  0  0  0  0
   -5.3105   -0.9996   -2.0668 C   0  0  0  0  0  0  0  0  0  0  0  0
   -3.7957   -2.8817   -2.0664 C   0  0  0  0  0  0  0  0  0  0  0  0
    3.5082    0.2126   -0.2807 C   0  0  0  0  0  0  0  0  0  0  0  0
   -4.9982   -2.2990   -2.4664 C   0  0  0  0  0  0  0  0  0  0  0  0
   -0.9387    4.2060   -0.6801 C   0  0  0  0  0  0  0  0  0  0  0  0
   -2.7329    5.6180    0.0679 C   0  0  0  0  0  0  0  0  0  0  0  0
    4.3347    0.1901    0.8339 C   0  0  0  0  0  0  0  0  0  0  0  0
    4.0293    0.0882   -1.5605 C   0  0  0  0  0  0  0  0  0  0  0  0
    5.7111    0.0398    0.6650 C   0  0  0  0  0  0  0  0  0  0  0  0
    5.4058   -0.0621   -1.7296 C   0  0  0  0  0  0  0  0  0  0  0  0
    6.2467   -0.0863   -0.6169 C   0  0  0  0  0  0  0  0  0  0  0  0
    8.3915   -0.2495    0.3977 C   0  0  0  0  0  0  0  0  0  0  0  0
  1  9  2  0
  2 32  1  0
  2 33  1  0
  3  4  1  0
  3  9  1  0
  3 10  1  0
  4 18  1  0
  4 21  1  0
  5 14  1  0
  5 26  1  0
  5 27  1  0
  6  7  1  0
  6  8  1  0
  6  9  1  0
  6 11  1  0
  7 12  1  0
  8 10  2  0
  8 13  1  0
 10 15  1  0
 11 16  2  0
 11 17  1  0
 12 14  1  0
 13 19  2  0
 15 20  2  0
 16 22  1  0
 17 23  2  0
 18 24  1  0
 19 20  1  0
 22 25  2  0
 23 25  1  0
 24 28  2  0
 24 29  1  0
 28 30  1  0
 29 31  2  0
 30 32  2  0
 31 32  1  0
M  END
>  <PUBCHEM_COMPOUND_CID>  (1) 
36450

>  <PUBCHEM_CONFORMER_RMSD>  (1) 
1

>  <PUBCHEM_CONFORMER_DIVERSEORDER>  (1) 
9
12
71
97
4
76
44
67
3
78
73
27
25
57
107
87
102
96
22
99
42
79
7
52
34
50
86
103
93
21
20
38
23
61
85
100
98
37
24
105
6
95
90
89
14
84
54
43
83
5
88
45
10
8
47
94
13
33
101
35
58
32
104
36
19
72
68
106
40
46
53
91
60
56
16
51
75
31
82
39
65
62
70
28
66
63
77
55
30
49
2
59
29
18
1
26
80
48
15
81
92
74
69
17
41
11
64

>  <PUBCHEM_MMFF94_PARTIAL_CHARGES>  (1) 
44
1 -0.57
10 0.12
11 -0.14
13 -0.15
14 0.27
15 -0.15
16 -0.15
17 -0.15
18 0.41
19 -0.15
2 -0.36
20 -0.15
21 0.27
22 -0.15
23 -0.15
24 -0.14
25 -0.15
26 0.27
27 0.27
28 -0.15
29 -0.15
3 -0.17
30 -0.15
31 -0.15
32 0.08
33 0.28
38 0.15
4 -0.55
41 0.15
42 0.15
43 0.15
46 0.15
47 0.15
5 -0.81
51 0.15
52 0.15
53 0.15
6 0.35
60 0.15
61 0.15
62 0.15
63 0.15
8 -0.14
9 0.57

>  <PUBCHEM_EFFECTIVE_ROTOR_COUNT>  (1) 
9.4

>  <PUBCHEM_PHARMACOPHORE_FEATURES>  (1) 
7
1 1 acceptor
1 2 acceptor
1 5 cation
5 3 6 8 9 10 rings
6 11 16 17 22 23 25 rings
6 24 28 29 30 31 32 rings
6 8 10 13 15 19 20 rings

>  <PUBCHEM_HEAVY_ATOM_COUNT>  (1) 
33

>  <PUBCHEM_ATOM_DEF_STEREO_COUNT>  (1) 
0

>  <PUBCHEM_ATOM_UDEF_STEREO_COUNT>  (1) 
1

>  <PUBCHEM_BOND_DEF_STEREO_COUNT>  (1) 
0

>  <PUBCHEM_BOND_UDEF_STEREO_COUNT>  (1) 
0

>  <PUBCHEM_ISOTOPIC_ATOM_COUNT>  (1) 
0

>  <PUBCHEM_COMPONENT_COUNT>  (1) 
1

>  <PUBCHEM_CACTVS_TAUTO_COUNT>  (1) 
1

>  <PUBCHEM_CONFORMER_ID>  (1) 
00008E6200000009

>  <PUBCHEM_MMFF94_ENERGY>  (1) 
119.0285

>  <PUBCHEM_FEATURE_SELFOVERLAP>  (1) 
35.607

>  <PUBCHEM_SHAPE_FINGERPRINT>  (1) 
11007060 377 15286504196362693984
11115154 58 18339066178126488781
11315181 36 18187649141593354742
11443803 9 18197215841822089529
11488393 25 17260178321427787759
12166972 35 17131549548601920536
12293681 160 18041825277998532289
12788726 201 18338221679722859009
133893 2 17552374580117494361
14068700 675 18338508737630093276
14294032 229 18199751349900637481
14400156 147 15976935019057774958
15198563 99 18272078393180953917
15361156 5 18337686273463896316
15513586 35 18121246378607415584
16114785 44 18267881496998540787
17686467 74 18058721550713673152
17980427 26 17463133444482205323
21033648 29 15357972430049674684
21033650 10 18335413539325228952
21304303 282 18114463336523883209
21639891 77 17605009180986076113
21756936 100 18189065221711245624
23419403 2 17537729072587733291
23559900 14 17483932129283919775
23569943 247 17630061356538010614
335507 130 13254800162498031696
3552219 110 16159111816178400049
376196 1 17472998202719539833
469060 322 18131077055834722314
497634 4 16988852686980136232
5104073 3 15338856226870184030
531348 171 18198628739991094934
57527306 92 18334017169123697653
57527585 103 17751105624305895835
59755656 520 17458348537429249907
6086070 43 17702939220387184442
6677587 24 16600939208329786005

>  <PUBCHEM_SHAPE_MULTIPOLES>  (1) 
652.44
14.08
4.39
2.93
36.55
9.61
2.26
-3.95
-7.04
-8.02
0.13
-3.43
-2.91
-1.44

>  <PUBCHEM_SHAPE_SELFOVERLAP>  (1) 
1410.603

>  <PUBCHEM_SHAPE_VOLUME>  (1) 
360.9

>  <PUBCHEM_COORDINATE_TYPE>  (1) 
2
5
10

$$$$
