36452
     RDKit          3D

 35 38  0  0  1  0  0  0  0  0999 V2000
    3.4290   -0.8842   -1.2603 Cl  0  0  0  0  0  0  0  0  0  0  0  0
   -1.0548    0.4270    2.1336 O   0  0  0  0  0  0  0  0  0  0  0  0
    6.3336   -0.3211   -0.8829 O   0  0  0  0  0  0  0  0  0  0  0  0
   -0.0777    0.9595    0.0542 N   0  0  0  0  0  0  0  0  0  0  0  0
    1.1669    1.3465    0.4814 N   0  0  0  0  0  0  0  0  0  0  0  0
   -1.8253   -3.5947   -0.0549 N   0  0  0  0  0  0  0  0  0  0  0  0
   -2.3149    0.1729    0.0169 C   0  0  0  0  0  0  0  0  0  0  0  0
   -2.6600   -1.3062    0.1632 C   0  0  0  0  0  0  0  0  0  0  0  0
   -1.7859    0.5040   -1.3705 C   0  0  0  0  0  0  0  0  0  0  0  0
   -1.0893    0.5246    0.9150 C   0  0  0  0  0  0  0  0  0  0  0  0
   -0.4670    0.9583   -1.2838 C   0  0  0  0  0  0  0  0  0  0  0  0
   -3.4788    1.0323    0.3963 C   0  0  0  0  0  0  0  0  0  0  0  0
   -1.4651   -2.1877   -0.1833 C   0  0  0  0  0  0  0  0  0  0  0  0
   -2.4185    0.4051   -2.5994 C   0  0  0  0  0  0  0  0  0  0  0  0
    0.2559    1.3276   -2.4044 C   0  0  0  0  0  0  0  0  0  0  0  0
   -4.7115    0.4482    0.6881 C   0  0  0  0  0  0  0  0  0  0  0  0
   -3.3317    2.4181    0.4577 C   0  0  0  0  0  0  0  0  0  0  0  0
   -1.7038    0.7742   -3.7418 C   0  0  0  0  0  0  0  0  0  0  0  0
    1.8543    0.2273    1.1286 C   0  0  0  0  0  0  0  0  0  0  0  0
   -0.9324   -4.4310   -0.8589 C   0  0  0  0  0  0  0  0  0  0  0  0
   -1.7842   -4.0112    1.3481 C   0  0  0  0  0  0  0  0  0  0  0  0
   -0.3784    1.2316   -3.6448 C   0  0  0  0  0  0  0  0  0  0  0  0
    1.0602    2.4813    1.4005 C   0  0  0  0  0  0  0  0  0  0  0  0
   -5.7968    1.2500    1.0416 C   0  0  0  0  0  0  0  0  0  0  0  0
   -4.4170    3.2197    0.8113 C   0  0  0  0  0  0  0  0  0  0  0  0
    3.3488    0.4101    1.1266 C   0  0  0  0  0  0  0  0  0  0  0  0
   -5.6496    2.6357    1.1032 C   0  0  0  0  0  0  0  0  0  0  0  0
    0.5036   -4.3246   -0.3746 C   0  0  0  0  0  0  0  0  0  0  0  0
   -2.2213   -5.4579    1.5041 C   0  0  0  0  0  0  0  0  0  0  0  0
    4.1457   -0.0618    0.0835 C   0  0  0  0  0  0  0  0  0  0  0  0
    3.9330    1.0720    2.2065 C   0  0  0  0  0  0  0  0  0  0  0  0
    5.5272    0.1281    0.1205 C   0  0  0  0  0  0  0  0  0  0  0  0
    5.3143    1.2620    2.2433 C   0  0  0  0  0  0  0  0  0  0  0  0
    6.1115    0.7900    1.2003 C   0  0  0  0  0  0  0  0  0  0  0  0
    6.5801    0.5741   -1.9648 C   0  0  0  0  0  0  0  0  0  0  0  0
  1 30  1  0
  2 10  2  0
  3 32  1  0
  3 35  1  0
  4  5  1  0
  4 10  1  0
  4 11  1  0
  5 19  1  0
  5 23  1  0
  6 13  1  0
  6 20  1  0
  6 21  1  0
  7  8  1  0
  7  9  1  0
  7 10  1  0
  7 12  1  0
  8 13  1  0
  9 11  2  0
  9 14  1  0
 11 15  1  0
 12 16  2  0
 12 17  1  0
 14 18  2  0
 15 22  2  0
 16 24  1  0
 17 25  2  0
 18 22  1  0
 19 26  1  0
 20 28  1  0
 21 29  1  0
 24 27  2  0
 25 27  1  0
 26 30  2  0
 26 31  1  0
 30 32  1  0
 31 33  2  0
 32 34  2  0
 33 34  1  0
M  END
>  <PUBCHEM_COMPOUND_CID>  (1) 
36452

>  <PUBCHEM_CONFORMER_RMSD>  (1) 
1

>  <PUBCHEM_CONFORMER_DIVERSEORDER>  (1) 
1
91
31
124
134
108
129
157
154
101
179
127
167
74
137
164
14
178
163
135
84
53
95
141
78
140
173
89
175
21
12
50
103
177
20
15
148
122
44
38
133
174
161
109
165
70
85
156
110
39
126
16
49
121
67
40
180
34
82
61
153
63
80
81
41
18
47
33
100
79
168
160
30
182
115
150
76
58
130
13
57
128
36
151
37
52
90
69
149
99
106
116
114
8
145
97
19
45
56
87
25
22
117
51
170
42
68
102
118
59
120
64
28
6
138
71
131
171
107
94
73
54
23
143
48
181
10
172
11
32
72
166
176
92
113
60
17
142
65
93
24
112
132
96
5
88
4
29
35
26
46
152
7
147
27
75
83
86
3
111
158
155
55
105
123
146
119
162
9
62
136
66
125
139
98
43
169
144
159
104
2
77

>  <PUBCHEM_MMFF94_PARTIAL_CHARGES>  (1) 
44
1 -0.18
10 0.57
11 0.12
12 -0.14
13 0.27
14 -0.15
15 -0.15
16 -0.15
17 -0.15
18 -0.15
19 0.41
2 -0.57
20 0.27
21 0.27
22 -0.15
23 0.27
24 -0.15
25 -0.15
26 -0.14
27 -0.15
3 -0.36
30 0.18
31 -0.15
32 0.08
33 -0.15
34 -0.15
35 0.28
4 -0.17
40 0.15
41 0.15
42 0.15
43 0.15
46 0.15
5 -0.55
51 0.15
55 0.15
56 0.15
57 0.15
6 -0.81
64 0.15
65 0.15
66 0.15
7 0.35
9 -0.14

>  <PUBCHEM_EFFECTIVE_ROTOR_COUNT>  (1) 
10.4

>  <PUBCHEM_PHARMACOPHORE_FEATURES>  (1) 
7
1 2 acceptor
1 3 acceptor
1 6 cation
5 4 7 9 10 11 rings
6 12 16 17 24 25 27 rings
6 26 30 31 32 33 34 rings
6 9 11 14 15 18 22 rings

>  <PUBCHEM_HEAVY_ATOM_COUNT>  (1) 
35

>  <PUBCHEM_ATOM_DEF_STEREO_COUNT>  (1) 
0

>  <PUBCHEM_ATOM_UDEF_STEREO_COUNT>  (1) 
1

>  <PUBCHEM_BOND_DEF_STEREO_COUNT>  (1) 
0

>  <PUBCHEM_BOND_UDEF_STEREO_COUNT>  (1) 
0

>  <PUBCHEM_ISOTOPIC_ATOM_COUNT>  (1) 
0

>  <PUBCHEM_COMPONENT_COUNT>  (1) 
1

>  <PUBCHEM_CACTVS_TAUTO_COUNT>  (1) 
1

>  <PUBCHEM_CONFORMER_ID>  (1) 
00008E6400000001

>  <PUBCHEM_MMFF94_ENERGY>  (1) 
119.7922

>  <PUBCHEM_FEATURE_SELFOVERLAP>  (1) 
35.607

>  <PUBCHEM_SHAPE_FINGERPRINT>  (1) 
107951 10 18202002097119624943
11578080 2 17829607263317264349
11582403 64 17489297560905638909
12160290 23 17975095998381085475
12166972 35 12031495571730919490
12422481 6 17677614151130577589
13009979 54 17899703654722655923
13135754 10 18265616665806361526
133893 2 17403411267343973655
13583140 156 17488457662496660112
14020679 6 18202282498148874233
14674994 50 17976231828547741927
14840074 17 17530690913452350076
14856354 85 18339924913228488124
15219462 58 17694775620796682941
15361156 5 18056196014842395358
15927050 60 18272930493059406847
16090146 7 18260258686163253727
17980427 26 17984407543618667797
18365409 1 18410575124373443391
21033648 29 18340491079896357665
23559900 14 15194985173050593456
3633792 109 14692298270262146617
4058900 60 18196666094075325137
4073 2 18271801376611605720
4408954 64 17320168697999753467
469060 322 17749944600288888538
5080951 261 17972005245836384794
5252454 2 18334005069736692306
5265222 85 18340218478311231672
59755656 520 18411975836981453114
6371380 46 18272650108845523528
6669772 16 17560243514343829055

>  <PUBCHEM_SHAPE_MULTIPOLES>  (1) 
695.47
12.49
4.9
2.93
15.99
10.49
2.88
-8.29
-4.13
-6.32
-1.91
0.53
-1.36
0.71

>  <PUBCHEM_SHAPE_SELFOVERLAP>  (1) 
1488.207

>  <PUBCHEM_SHAPE_VOLUME>  (1) 
389.9

>  <PUBCHEM_COORDINATE_TYPE>  (1) 
2
5
10

$$$$
