36455
     RDKit          3D

 39 44  0  0  1  0  0  0  0  0999 V2000
    4.0824   -1.1253    0.9810 O   0  0  0  0  0  0  0  0  0  0  0  0
   -4.5004    0.2897    0.2277 O   0  0  0  0  0  0  0  0  0  0  0  0
    7.8409   -1.7282    0.5492 O   0  0  0  0  0  0  0  0  0  0  0  0
   -5.9240   -0.8331   -1.3000 O   0  0  0  0  0  0  0  0  0  0  0  0
    9.9233   -1.1482    1.2528 O   0  0  0  0  0  0  0  0  0  0  0  0
   -6.3731    2.3687    0.4329 O   0  0  0  0  0  0  0  0  0  0  0  0
   -6.6598    0.1091    2.0532 O   0  0  0  0  0  0  0  0  0  0  0  0
   -8.8113   -1.0353   -0.6543 O   0  0  0  0  0  0  0  0  0  0  0  0
    3.3226   -0.3973    0.0045 C   0  0  0  0  0  0  0  0  0  0  0  0
    4.0916    0.8805   -0.4298 C   0  0  0  0  0  0  0  0  0  0  0  0
    1.9160   -0.1148    0.5999 C   0  0  0  0  0  0  0  0  0  0  0  0
    1.0480    0.8263   -0.2801 C   0  0  0  0  0  0  0  0  0  0  0  0
   -0.3768    1.1151    0.3358 C   0  0  0  0  0  0  0  0  0  0  0  0
    5.2304    0.3141   -1.3359 C   0  0  0  0  0  0  0  0  0  0  0  0
    3.1734    1.7916   -1.2904 C   0  0  0  0  0  0  0  0  0  0  0  0
    1.8334    2.1054   -0.6272 C   0  0  0  0  0  0  0  0  0  0  0  0
    3.3227   -1.2648   -1.2676 C   0  0  0  0  0  0  0  0  0  0  0  0
    1.1550   -1.4208    0.9023 C   0  0  0  0  0  0  0  0  0  0  0  0
    4.5882   -0.8889   -2.0518 C   0  0  0  0  0  0  0  0  0  0  0  0
   -1.0296   -0.2109    0.7447 C   0  0  0  0  0  0  0  0  0  0  0  0
    4.6354    1.7049    0.7550 C   0  0  0  0  0  0  0  0  0  0  0  0
   -0.1871   -1.1495    1.5705 C   0  0  0  0  0  0  0  0  0  0  0  0
   -1.2439    1.8457   -0.7383 C   0  0  0  0  0  0  0  0  0  0  0  0
   -0.2962    2.0162    1.5913 C   0  0  0  0  0  0  0  0  0  0  0  0
    6.4854   -0.1128   -0.6300 C   0  0  0  0  0  0  0  0  0  0  0  0
   -2.7378    1.7781   -0.4427 C   0  0  0  0  0  0  0  0  0  0  0  0
   -2.2857   -0.5502    0.3998 C   0  0  0  0  0  0  0  0  0  0  0  0
   -3.2126    0.3294   -0.3806 C   0  0  0  0  0  0  0  0  0  0  0  0
    7.5589    0.8379   -0.5008 C   0  0  0  0  0  0  0  0  0  0  0  0
    6.6688   -1.3304   -0.1094 C   0  0  0  0  0  0  0  0  0  0  0  0
    8.6966    0.5083    0.1183 C   0  0  0  0  0  0  0  0  0  0  0  0
   -5.5373    0.4255   -0.7405 C   0  0  0  0  0  0  0  0  0  0  0  0
    8.8790   -0.8443    0.6852 C   0  0  0  0  0  0  0  0  0  0  0  0
   -6.7585    1.1252   -0.1390 C   0  0  0  0  0  0  0  0  0  0  0  0
   -7.4764    0.2471    0.8921 C   0  0  0  0  0  0  0  0  0  0  0  0
   -6.4958   -1.7379   -0.3444 C   0  0  0  0  0  0  0  0  0  0  0  0
   -7.7581   -1.1386    0.3024 C   0  0  0  0  0  0  0  0  0  0  0  0
   -6.7854   -3.0442   -1.0762 C   0  0  0  0  0  0  0  0  0  0  0  0
  -10.0023   -0.5435   -0.0597 C   0  0  0  0  0  0  0  0  0  0  0  0
  1  9  1  0
  2 28  1  0
  2 32  1  0
  3 30  1  0
  3 33  1  0
  4 32  1  0
  4 36  1  0
  5 33  2  0
  6 34  1  0
  7 35  1  0
  8 37  1  0
  8 39  1  0
  9 10  1  0
  9 11  1  0
  9 17  1  0
 10 14  1  0
 10 15  1  0
 10 21  1  0
 11 12  1  0
 11 18  1  0
 12 13  1  0
 12 16  1  0
 13 20  1  0
 13 23  1  0
 13 24  1  0
 14 19  1  0
 14 25  1  0
 15 16  1  0
 17 19  1  0
 18 22  1  0
 20 22  1  0
 20 27  2  0
 23 26  1  0
 25 29  1  0
 25 30  2  0
 26 28  1  0
 27 28  1  0
 29 31  2  0
 31 33  1  0
 32 34  1  0
 34 35  1  0
 35 37  1  0
 36 37  1  0
 36 38  1  0
M  END
>  <PUBCHEM_COMPOUND_CID>  (1) 
36455

>  <PUBCHEM_CONFORMER_RMSD>  (1) 
1

>  <PUBCHEM_CONFORMER_DIVERSEORDER>  (1) 
1
160
103
28
232
27
156
102
155
185
170
77
55
42
166
97
219
140
212
59
165
180
231
43
224
64
88
196
158
150
199
220
246
234
167
46
68
111
123
131
121
5
237
203
235
21
211
76
70
50
47
126
74
71
113
114
184
172
39
147
90
101
194
176
188
15
82
221
61
119
22
177
36
187
143
7
78
163
236
149
129
56
65
154
95
104
26
191
240
241
159
138
208
152
58
217
89
45
69
96
214
195
34
242
227
100
148
120
132
161
24
11
183
189
130
49
226
19
9
128
190
94
10
201
197
107
23
200
186
81
157
223
206
106
192
53
98
85
12
174
3
213
105
175
127
40
243
79
62
18
31
115
117
112
75
63
108
93
228
233
16
247
198
32
73
52
210
239
133
125
179
218
29
8
124
57
44
173
162
67
229
141
30
84
193
215
135
41
153
92
99
202
244
136
122
37
87
20
109
72
14
4
168
238
144
245
118
66
51
151
146
17
48
139
171
205
178
80
6
209
91
164
13
181
33
137
134
35
216
86
145
225
60
222
169
116
38
182
230
2
25
204
207
83
110
54
142

>  <PUBCHEM_MMFF94_PARTIAL_CHARGES>  (1) 
33
1 -0.68
13 0.14
14 0.14
2 -0.56
20 -0.28
22 0.14
25 -0.14
27 -0.29
28 0.42
29 -0.15
3 -0.23
30 -0.07
31 -0.14
32 0.56
33 0.71
34 0.28
35 0.28
36 0.28
37 0.28
39 0.28
4 -0.56
5 -0.57
6 -0.68
60 0.4
66 0.15
68 0.15
69 0.15
7 -0.68
70 0.15
76 0.4
8 -0.56
80 0.4
9 0.28

>  <PUBCHEM_EFFECTIVE_ROTOR_COUNT>  (1) 
7.2

>  <PUBCHEM_PHARMACOPHORE_FEATURES>  (1) 
16
1 1 acceptor
1 1 donor
1 2 acceptor
1 4 acceptor
1 5 acceptor
1 6 acceptor
1 6 donor
1 7 acceptor
1 7 donor
1 8 acceptor
5 9 10 14 17 19 rings
6 11 12 13 18 20 22 rings
6 13 20 23 26 27 28 rings
6 3 25 29 30 31 33 rings
6 4 32 34 35 36 37 rings
6 9 10 11 12 15 16 rings

>  <PUBCHEM_HEAVY_ATOM_COUNT>  (1) 
39

>  <PUBCHEM_ATOM_DEF_STEREO_COUNT>  (1) 
7

>  <PUBCHEM_ATOM_UDEF_STEREO_COUNT>  (1) 
5

>  <PUBCHEM_BOND_DEF_STEREO_COUNT>  (1) 
0

>  <PUBCHEM_BOND_UDEF_STEREO_COUNT>  (1) 
0

>  <PUBCHEM_ISOTOPIC_ATOM_COUNT>  (1) 
0

>  <PUBCHEM_COMPONENT_COUNT>  (1) 
1

>  <PUBCHEM_CACTVS_TAUTO_COUNT>  (1) 
1

>  <PUBCHEM_CONFORMER_ID>  (1) 
00008E6700000001

>  <PUBCHEM_MMFF94_ENERGY>  (1) 
141.2213

>  <PUBCHEM_FEATURE_SELFOVERLAP>  (1) 
81.457

>  <PUBCHEM_SHAPE_FINGERPRINT>  (1) 
10 15 12895072911823040716
10299344 5 18410577297378280069
10625338 86 13254803416943863379
10670039 82 16081363034376141405
11135926 11 17095244701007756435
11181472 205 8862672313147036700
11409948 35 11314571114411882592
11828532 37 17750248039727623482
11991303 11 15647340796642049875
12202916 173 18335423465543594434
12664476 115 18202561779304495369
13811026 1 18411421712932558742
14068700 675 18409731750734774980
14118638 360 15647323101060200260
14400156 96 17749394828260587452
14856354 85 18273217522013659951
15131766 46 14131347405902324118
15183329 4 18040433313415321961
15247644 1 18409450289123156987
15301273 46 11024109845845478860
15352257 5 18202005439100222615
15392192 104 11959729374102652645
1577012 14 15140949617841887501
15840311 113 15140686908410554662
18603816 31 17774995852247736079
18608769 82 18412825776602315133
19315958 150 13973969800865287156
20105231 36 15123796180329446556
20156587 128 15864337023055242071
2026 5 18189612757792445346
21792938 703 18115869766879024971
21792961 116 17095521777294266785
21792965 78 17894908486908766098
21895431 317 17822844266406408922
22149856 69 17203059487059666822
23522609 53 18124628433709572521
23559900 14 18188491397286096324
23569917 315 17749116548059114938
23576562 1 12252770165075501915
24893992 56 17458347467623495883
249057 3 15357703002535388810
335352 9 17894918430163373950
335507 130 18131633400613732981
4149490 64 18341051942247161841
4169191 19 9799699181948675155
4339292 15 17346025776090650879
4353968 344 17895747397200356820
45266715 3 16081366311699861154
59682541 35 17561077013009034626
6004065 56 18343585157757633660
6009941 240 14045737145223474469
6081469 158 16732982025040530110
6523845 18 16660358199203679278
9663363 56 16917066655851961089
99344 41 18413109442049640527
9962374 69 18340483464702739020

>  <PUBCHEM_SHAPE_MULTIPOLES>  (1) 
755.65
30.96
2.19
1.39
11.39
0
-0.03
-11.87
-1.01
1.38
0.2
-0.42
-0.15
-1.51

>  <PUBCHEM_SHAPE_SELFOVERLAP>  (1) 
1627.616

>  <PUBCHEM_SHAPE_VOLUME>  (1) 
410.6

>  <PUBCHEM_COORDINATE_TYPE>  (1) 
2
5
10

$$$$
