36458
     RDKit          3D

 17 16  0  0  1  0  0  0  0  0999 V2000
    2.7223    1.7848   -0.8843 O   0  0  0  0  0  0  0  0  0  0  0  0
   -0.9527   -1.2365    1.6373 O   0  0  0  0  0  0  0  0  0  0  0  0
   -1.0497    2.2177   -1.2288 O   0  0  0  0  0  0  0  0  0  0  0  0
   -1.1540    2.0051    1.0309 O   0  0  0  0  0  0  0  0  0  0  0  0
    2.2309   -2.5813   -0.9568 N   0  0  0  0  0  0  0  0  0  0  0  0
   -2.1013   -0.8622   -0.3501 N   0  0  0  0  0  0  0  0  0  0  0  0
   -3.0710   -0.0732    0.2608 N   0  0  0  0  0  0  0  0  0  0  0  0
    4.6399    1.0215    1.1095 N   0  0  0  0  0  0  0  0  0  0  0  0
    1.3406   -1.6954   -0.2030 C   0  0  0  0  0  0  0  0  0  0  0  0
    1.4762   -0.2323   -0.6714 C   0  0  0  0  0  0  0  0  0  0  0  0
    2.8546    0.4199   -0.4736 C   0  0  0  0  0  0  0  0  0  0  0  0
   -0.0962   -2.2113   -0.3842 C   0  0  0  0  0  0  0  0  0  0  0  0
    3.3319    0.3818    0.9814 C   0  0  0  0  0  0  0  0  0  0  0  0
   -1.0871   -1.3950    0.4252 C   0  0  0  0  0  0  0  0  0  0  0  0
   -3.0338    1.2792   -0.2918 C   0  0  0  0  0  0  0  0  0  0  0  0
   -4.3905   -0.6733    0.0724 C   0  0  0  0  0  0  0  0  0  0  0  0
   -1.6600    1.8505   -0.0734 C   0  0  0  0  0  0  0  0  0  0  0  0
  1 11  1  0
  2 14  2  0
  3 17  1  0
  4 17  2  0
  5  9  1  0
  6  7  1  0
  6 14  1  0
  7 15  1  0
  7 16  1  0
  8 13  1  0
  9 10  1  0
  9 12  1  0
 10 11  1  0
 11 13  1  0
 12 14  1  0
 15 17  1  0
M  END
>  <PUBCHEM_COMPOUND_CID>  (1) 
36458

>  <PUBCHEM_CONFORMER_RMSD>  (1) 
1

>  <PUBCHEM_CONFORMER_DIVERSEORDER>  (1) 
1
11
119
247
85
55
142
216
217
280
317
27
197
378
108
23
409
188
219
393
416
81
70
112
380
313
371
305
232
287
363
220
419
179
138
78
261
433
77
308
52
243
101
88
37
306
273
213
145
135
274
338
68
141
392
46
251
226
403
366
92
440
115
233
160
89
342
250
72
175
172
205
132
399
57
79
263
427
106
281
137
285
104
339
4
75
394
337
34
60
415
139
71
289
377
314
322
355
56
303
176
436
210
24
435
64
98
143
201
215
190
276
99
373
324
48
224
246
439
122
325
423
421
110
357
387
204
157
158
236
405
310
131
40
266
374
20
258
282
278
267
67
277
45
196
252
173
149
195
10
212
376
254
330
90
309
134
391
398
150
302
255
28
331
411
169
367
107
174
177
407
422
259
412
321
7
298
368
420
8
360
192
63
284
38
349
358
326
42
116
239
292
396
153
51
164
93
165
275
53
384
352
270
397
191
336
214
66
364
181
156
400
207
105
206
372
334
294
359
2
264
328
35
113
362
354
426
86
76
47
290
182
69
13
109
155
406
389
202
230
234
319
341
21
167
22
184
438
32
136
140
425
265
154
348
256
118
332
44
36
162
123
262
410
245
365
200
353
379
18
304
39
126
218
180
114
208
30
203
59
124
345
144
340
296
269
431
15
237
50
402
361
430
43
229
429
343
17
49
437
193
26
19
91
25
54
222
347
299
369
223
268
159
228
9
12
186
163
183
65
189
432
408
272
385
94
3
41
80
351
211
117
29
133
170
61
300
152
166
291
33
388
16
249
82
146
286
356
350
6
418
96
120
315
335
344
102
128
242
238
293
311
171
5
221
129
225
323
62
235
417
404
87
316
288
295
283
83
14
346
257
395
84
194
381
127
231
130
187
383
318
253
297
434
185
97
178
414
198
307
151
31
390
148
73
168
260
244
147
199
240
301
327
241
125
382
320
370
103
95
111
121
227
333
312
248
271
161
74
279
375
428
413
401
58
329
209
386
424
100

>  <PUBCHEM_MMFF94_PARTIAL_CHARGES>  (1) 
23
1 -0.68
11 0.28
12 0.06
13 0.27
14 0.57
15 0.33
16 0.27
17 0.66
2 -0.57
26 0.36
27 0.36
28 0.37
29 0.4
3 -0.65
30 0.36
31 0.36
37 0.5
4 -0.57
5 -0.99
6 -0.42
7 -0.55
8 -0.99
9 0.27

>  <PUBCHEM_EFFECTIVE_ROTOR_COUNT>  (1) 
9

>  <PUBCHEM_PHARMACOPHORE_FEATURES>  (1) 
11
1 1 acceptor
1 1 donor
1 2 acceptor
1 3 acceptor
1 4 acceptor
1 5 cation
1 5 donor
1 6 donor
1 8 cation
1 8 donor
3 3 4 17 anion

>  <PUBCHEM_HEAVY_ATOM_COUNT>  (1) 
17

>  <PUBCHEM_ATOM_DEF_STEREO_COUNT>  (1) 
0

>  <PUBCHEM_ATOM_UDEF_STEREO_COUNT>  (1) 
2

>  <PUBCHEM_BOND_DEF_STEREO_COUNT>  (1) 
0

>  <PUBCHEM_BOND_UDEF_STEREO_COUNT>  (1) 
0

>  <PUBCHEM_ISOTOPIC_ATOM_COUNT>  (1) 
0

>  <PUBCHEM_COMPONENT_COUNT>  (1) 
1

>  <PUBCHEM_CACTVS_TAUTO_COUNT>  (1) 
2

>  <PUBCHEM_CONFORMER_ID>  (1) 
00008E6A00000001

>  <PUBCHEM_MMFF94_ENERGY>  (1) 
19.6584

>  <PUBCHEM_FEATURE_SELFOVERLAP>  (1) 
55.883

>  <PUBCHEM_SHAPE_FINGERPRINT>  (1) 
10759866 29 17896044407111115716
11132069 177 18410292514680899261
11715629 250 18342174436313789767
13544592 271 18263930002242245755
14250199 8 18196375814621379295
14251711 518 17542515272088123916
14251764 3 17273103926683299634
15536298 74 18341336574315004767
15775835 57 17989485246944807254
17802600 8 18265616476679808814
17846911 113 18410854399418971785
18186145 218 18191030010577909783
192875 21 18187918516977559068
21524375 3 18341894125484498458
21947302 44 18337961090681901254
23402539 116 18336815507003264095
23557571 272 18267606734729328319
23590187 152 18342733074383614504
2748010 2 18265060132428040071
3524813 1 18201992278798168784
537710 114 18337679710526592117
7364860 26 18128818543177512358
7832392 63 17619634575094032647
8050 44 18267017267409918397

>  <PUBCHEM_SHAPE_MULTIPOLES>  (1) 
306.45
6.88
2.7
1.12
1.27
0.18
-0.2
-1.82
-1.09
0.19
0.5
0.47
-0.12
0.68

>  <PUBCHEM_SHAPE_SELFOVERLAP>  (1) 
584.365

>  <PUBCHEM_SHAPE_VOLUME>  (1) 
188.4

>  <PUBCHEM_COORDINATE_TYPE>  (1) 
2
5
10

$$$$
