36465
     RDKit          3D

 25 27  0  0  1  0  0  0  0  0999 V2000
    2.5644    2.9028    0.9306 Cl  0  0  0  0  0  0  0  0  0  0  0  0
    0.7780   -0.6399    0.2773 O   0  0  0  0  0  0  0  0  0  0  0  0
   -0.5768    1.0881    1.6877 O   0  0  0  0  0  0  0  0  0  0  0  0
    0.6855    1.2548   -1.0268 O   0  0  0  0  0  0  0  0  0  0  0  0
   -0.6288   -3.2455    0.4786 N   0  0  0  0  0  0  0  0  0  0  0  0
   -0.6374   -0.7732    0.2076 C   0  0  0  0  0  0  0  0  0  0  0  0
   -1.0922   -0.9250   -1.2446 C   0  0  0  0  0  0  0  0  0  0  0  0
   -1.0688   -1.9692    1.0667 C   0  0  0  0  0  0  0  0  0  0  0  0
   -0.6896   -2.2891   -1.7989 C   0  0  0  0  0  0  0  0  0  0  0  0
   -1.1564   -3.4188   -0.8809 C   0  0  0  0  0  0  0  0  0  0  0  0
   -1.1896    0.4875    0.8080 C   0  0  0  0  0  0  0  0  0  0  0  0
   -1.0271   -4.3664    1.3300 C   0  0  0  0  0  0  0  0  0  0  0  0
   -2.4988    1.0082    0.3226 C   0  0  0  0  0  0  0  0  0  0  0  0
    1.3085    0.4217   -0.3872 C   0  0  0  0  0  0  0  0  0  0  0  0
   -3.6511    0.5881    0.9493 C   0  0  0  0  0  0  0  0  0  0  0  0
   -2.5087    1.8911   -0.7344 C   0  0  0  0  0  0  0  0  0  0  0  0
    2.7856    0.4468   -0.2383 C   0  0  0  0  0  0  0  0  0  0  0  0
   -4.8764    1.0756    0.4951 C   0  0  0  0  0  0  0  0  0  0  0  0
   -3.7342    2.3787   -1.1884 C   0  0  0  0  0  0  0  0  0  0  0  0
   -4.9181    1.9709   -0.5735 C   0  0  0  0  0  0  0  0  0  0  0  0
    3.4236    1.5243    0.3438 C   0  0  0  0  0  0  0  0  0  0  0  0
    3.4839   -0.6514   -0.7051 C   0  0  0  0  0  0  0  0  0  0  0  0
    4.8132    1.5043    0.4647 C   0  0  0  0  0  0  0  0  0  0  0  0
    4.8734   -0.6711   -0.5842 C   0  0  0  0  0  0  0  0  0  0  0  0
    5.5380    0.4066    0.0006 C   0  0  0  0  0  0  0  0  0  0  0  0
  1 21  1  0
  2  6  1  0
  2 14  1  0
  3 11  2  0
  4 14  2  0
  5  8  1  0
  5 10  1  0
  5 12  1  0
  6  7  1  0
  6  8  1  0
  6 11  1  0
  7  9  1  0
  9 10  1  0
 11 13  1  0
 13 15  2  0
 13 16  1  0
 14 17  1  0
 15 18  1  0
 16 19  2  0
 17 21  2  0
 17 22  1  0
 18 20  2  0
 19 20  1  0
 21 23  1  0
 22 24  2  0
 23 25  2  0
 24 25  1  0
M  END
>  <PUBCHEM_COMPOUND_CID>  (1) 
36465

>  <PUBCHEM_CONFORMER_RMSD>  (1) 
0.8

>  <PUBCHEM_CONFORMER_DIVERSEORDER>  (1) 
13
106
98
110
121
115
237
116
39
243
113
187
59
83
191
162
196
220
175
230
37
229
158
203
164
129
195
145
180
109
226
244
47
131
170
167
138
161
194
245
228
96
183
156
171
139
128
185
88
136
199
189
95
141
80
219
238
6
211
45
65
160
140
212
241
221
210
151
117
86
133
154
236
177
58
242
127
82
169
205
70
112
35
214
204
172
97
225
120
123
201
126
29
61
57
186
68
124
100
240
179
144
9
142
150
166
165
182
72
137
76
222
33
155
218
75
44
28
89
149
25
134
234
71
108
173
48
93
163
114
231
81
55
178
30
62
216
60
111
207
3
94
153
63
56
23
233
105
122
193
200
148
22
215
52
239
85
197
64
84
146
92
223
159
14
46
157
31
27
50
118
12
202
5
42
66
107
206
99
208
104
24
198
2
43
102
77
49
184
67
168
87
36
73
10
38
135
53
147
235
209
119
232
79
224
21
181
103
34
192
90
7
132
1
51
74
4
176
32
190
130
11
188
17
78
69
8
40
16
91
217
19
227
54
18
213
26
41
143
15
20
152
125
174
101

>  <PUBCHEM_MMFF94_PARTIAL_CHARGES>  (1) 
32
1 -0.18
10 0.27
11 0.42
12 0.27
13 0.09
14 0.63
15 -0.15
16 -0.15
17 0.09
18 -0.15
19 -0.15
2 -0.43
20 -0.15
21 0.18
22 -0.15
23 -0.15
24 -0.15
25 -0.15
3 -0.57
37 0.15
38 0.15
39 0.15
4 -0.57
40 0.15
41 0.15
42 0.15
43 0.15
44 0.15
45 0.15
5 -0.81
6 0.34
8 0.27

>  <PUBCHEM_EFFECTIVE_ROTOR_COUNT>  (1) 
6.2

>  <PUBCHEM_PHARMACOPHORE_FEATURES>  (1) 
6
1 3 acceptor
1 4 acceptor
1 5 cation
6 13 15 16 18 19 20 rings
6 17 21 22 23 24 25 rings
6 5 6 7 8 9 10 rings

>  <PUBCHEM_HEAVY_ATOM_COUNT>  (1) 
25

>  <PUBCHEM_ATOM_DEF_STEREO_COUNT>  (1) 
0

>  <PUBCHEM_ATOM_UDEF_STEREO_COUNT>  (1) 
1

>  <PUBCHEM_BOND_DEF_STEREO_COUNT>  (1) 
0

>  <PUBCHEM_BOND_UDEF_STEREO_COUNT>  (1) 
0

>  <PUBCHEM_ISOTOPIC_ATOM_COUNT>  (1) 
0

>  <PUBCHEM_COMPONENT_COUNT>  (1) 
1

>  <PUBCHEM_CACTVS_TAUTO_COUNT>  (1) 
1

>  <PUBCHEM_CONFORMER_ID>  (1) 
00008E710000000D

>  <PUBCHEM_MMFF94_ENERGY>  (1) 
81.6642

>  <PUBCHEM_FEATURE_SELFOVERLAP>  (1) 
30.448

>  <PUBCHEM_SHAPE_FINGERPRINT>  (1) 
107951 10 18407764733196457622
10906281 52 17774460329570266336
11370993 70 18411136909356317108
11488393 25 17984715424208106831
11578080 2 16556766731961293674
121448 382 18339347661239413711
12160290 23 18053131641565807503
12403259 415 18408327661574750697
12422481 6 18050882024012260219
12500047 106 18410291441223911896
12592029 89 18264208002532417803
12596602 18 14924243624065234709
12730499 353 18264775355508046161
12788726 201 18122889078658559203
12969540 114 18335688413074395085
13004483 165 17836923773563761974
13140716 1 18268710683490662440
13149001 5 17845644979757464193
133893 2 17764322643103769771
13583140 156 18333739021696615426
14178342 30 18116427240674809746
14223421 5 17981891045097117296
14251751 93 18411976958189417991
14251764 3 18337393746976994717
15042514 8 18117569637440565531
15420108 30 15757420232823221752
17349148 13 17203614761569342320
20197701 30 18411416176994131375
20602899 9 15913610579211296110
21033648 144 18059849623479036520
21033648 29 18410000027303384880
21033650 10 15553352274830638544
21344244 246 17986670372618907879
21521721 280 18273498983667852673
21524375 3 18411986823523548893
22224240 67 18412554202300454801
23227448 37 18339360889216777172
23402539 116 17203328862307000433
23419403 2 17695957338219791271
23558518 356 17827637268791487328
23559900 14 18060700607155824320
3298306 158 18337111142423768166
3729539 64 18051142397656552038
3759504 43 18407760339381103603
38695281 34 18129661881696748245
394222 165 18125717890469963419
4015057 19 17417804084830951208
404807 14 14901469212438707822
5104073 3 18267293413382092472
532947 4 18122348982299927494
5385378 56 18118973486097647625
53917941 68 18339626923637949991
559249 180 18412258433456629466
59755656 520 18334289859985011366
6138700 20 18052263895232485134
633830 44 17845102765979902989
6669772 16 18341053995542995886
69090 78 18413671313770597636
7164475 11 17975418236749288846
81228 2 18050276274445632155
9709674 26 18200318839660409790

>  <PUBCHEM_SHAPE_MULTIPOLES>  (1) 
493.77
9.53
4.05
1.36
6.05
4.52
0.07
-7.49
0.45
-2.44
-0.6
-0.63
0.44
1.21

>  <PUBCHEM_SHAPE_SELFOVERLAP>  (1) 
1061.881

>  <PUBCHEM_SHAPE_VOLUME>  (1) 
271

>  <PUBCHEM_COORDINATE_TYPE>  (1) 
2
5
10

$$$$
