36469
     RDKit          3D

 26 28  0  0  1  0  0  0  0  0999 V2000
    2.3411    2.8520    0.9189 Cl  0  0  0  0  0  0  0  0  0  0  0  0
    0.5020   -0.6624    0.2717 O   0  0  0  0  0  0  0  0  0  0  0  0
   -0.8223    1.0864    1.6854 O   0  0  0  0  0  0  0  0  0  0  0  0
    0.4338    1.2327   -1.0332 O   0  0  0  0  0  0  0  0  0  0  0  0
   -0.9429   -3.2466    0.4789 N   0  0  0  0  0  0  0  0  0  0  0  0
    6.6814    0.2743    0.0928 N   0  0  0  0  0  0  0  0  0  0  0  0
   -0.9154   -0.7746    0.2065 C   0  0  0  0  0  0  0  0  0  0  0  0
   -1.3769   -0.9204   -1.2441 C   0  0  0  0  0  0  0  0  0  0  0  0
   -1.3619   -1.9636    1.0677 C   0  0  0  0  0  0  0  0  0  0  0  0
   -0.9965   -2.2906   -1.7989 C   0  0  0  0  0  0  0  0  0  0  0  0
   -1.4772   -3.4127   -0.8789 C   0  0  0  0  0  0  0  0  0  0  0  0
   -1.4468    0.4945    0.8080 C   0  0  0  0  0  0  0  0  0  0  0  0
   -1.3552   -4.3610    1.3322 C   0  0  0  0  0  0  0  0  0  0  0  0
   -2.7496    1.0345    0.3264 C   0  0  0  0  0  0  0  0  0  0  0  0
    1.0463    0.3908   -0.3950 C   0  0  0  0  0  0  0  0  0  0  0  0
   -3.9060    0.6319    0.9569 C   0  0  0  0  0  0  0  0  0  0  0  0
   -2.7497    1.9168   -0.7311 C   0  0  0  0  0  0  0  0  0  0  0  0
    2.5240    0.3939   -0.2508 C   0  0  0  0  0  0  0  0  0  0  0  0
   -5.1254    1.1375    0.5063 C   0  0  0  0  0  0  0  0  0  0  0  0
   -3.9692    2.4224   -1.1816 C   0  0  0  0  0  0  0  0  0  0  0  0
   -5.1570    2.0327   -0.5627 C   0  0  0  0  0  0  0  0  0  0  0  0
    3.1795    1.4622    0.3288 C   0  0  0  0  0  0  0  0  0  0  0  0
    3.2046   -0.7142   -0.7201 C   0  0  0  0  0  0  0  0  0  0  0  0
    4.5691    1.4226    0.4440 C   0  0  0  0  0  0  0  0  0  0  0  0
    4.5940   -0.7537   -0.6050 C   0  0  0  0  0  0  0  0  0  0  0  0
    5.2763    0.3147   -0.0230 C   0  0  0  0  0  0  0  0  0  0  0  0
  1 22  1  0
  2  7  1  0
  2 15  1  0
  3 12  2  0
  4 15  2  0
  5  9  1  0
  5 11  1  0
  5 13  1  0
  6 26  1  0
  7  8  1  0
  7  9  1  0
  7 12  1  0
  8 10  1  0
 10 11  1  0
 12 14  1  0
 14 16  2  0
 14 17  1  0
 15 18  1  0
 16 19  1  0
 17 20  2  0
 18 22  2  0
 18 23  1  0
 19 21  2  0
 20 21  1  0
 22 24  1  0
 23 25  2  0
 24 26  2  0
 25 26  1  0
M  END
>  <PUBCHEM_COMPOUND_CID>  (1) 
36469

>  <PUBCHEM_CONFORMER_RMSD>  (1) 
0.8

>  <PUBCHEM_CONFORMER_DIVERSEORDER>  (1) 
9
204
183
201
238
175
235
173
227
172
22
70
216
97
96
61
174
169
31
135
179
249
194
237
223
18
133
107
239
153
78
184
171
211
219
106
170
93
151
79
131
103
210
230
94
101
250
30
161
190
247
234
112
128
117
195
231
229
243
182
168
225
120
72
228
186
146
80
198
81
242
121
248
149
251
110
200
181
99
144
33
49
138
100
95
163
189
192
108
85
193
129
205
73
220
132
21
162
214
17
147
176
51
232
109
82
221
59
178
56
87
224
140
102
84
123
83
127
226
245
104
119
113
143
207
222
64
154
118
91
236
63
217
142
92
218
77
55
166
137
206
215
141
5
44
208
139
71
54
76
50
212
40
187
48
180
160
241
7
41
240
155
88
116
150
246
60
14
69
43
26
4
36
86
156
125
105
34
233
2
157
52
158
164
111
213
42
66
28
65
197
136
35
24
159
62
134
98
47
152
57
13
8
165
1
114
188
10
39
74
27
23
67
15
202
124
37
148
185
6
203
126
25
122
46
177
199
45
32
167
145
53
191
196
20
29
12
3
115
19
38
11
209
58
16
244
75
90
68
130
89

>  <PUBCHEM_MMFF94_PARTIAL_CHARGES>  (1) 
34
1 -0.18
11 0.27
12 0.42
13 0.27
14 0.09
15 0.63
16 -0.15
17 -0.15
18 0.09
19 -0.15
2 -0.43
20 -0.15
21 -0.15
22 0.18
23 -0.15
24 -0.15
25 -0.15
26 0.1
3 -0.57
38 0.15
39 0.15
4 -0.57
40 0.15
41 0.15
42 0.15
43 0.15
44 0.15
45 0.15
46 0.4
47 0.4
5 -0.81
6 -0.9
7 0.34
9 0.27

>  <PUBCHEM_EFFECTIVE_ROTOR_COUNT>  (1) 
6.2

>  <PUBCHEM_PHARMACOPHORE_FEATURES>  (1) 
8
1 3 acceptor
1 4 acceptor
1 5 cation
1 6 cation
1 6 donor
6 14 16 17 19 20 21 rings
6 18 22 23 24 25 26 rings
6 5 7 8 9 10 11 rings

>  <PUBCHEM_HEAVY_ATOM_COUNT>  (1) 
26

>  <PUBCHEM_ATOM_DEF_STEREO_COUNT>  (1) 
0

>  <PUBCHEM_ATOM_UDEF_STEREO_COUNT>  (1) 
1

>  <PUBCHEM_BOND_DEF_STEREO_COUNT>  (1) 
0

>  <PUBCHEM_BOND_UDEF_STEREO_COUNT>  (1) 
0

>  <PUBCHEM_ISOTOPIC_ATOM_COUNT>  (1) 
0

>  <PUBCHEM_COMPONENT_COUNT>  (1) 
1

>  <PUBCHEM_CACTVS_TAUTO_COUNT>  (1) 
2

>  <PUBCHEM_CONFORMER_ID>  (1) 
00008E7500000009

>  <PUBCHEM_MMFF94_ENERGY>  (1) 
94.5674

>  <PUBCHEM_FEATURE_SELFOVERLAP>  (1) 
40.597

>  <PUBCHEM_SHAPE_FINGERPRINT>  (1) 
10764073 3 16085285924133343975
107951 10 18408044008954733866
10906281 52 17774461420391706688
11578080 2 16628542842316479843
12160290 23 18053414207601374375
12236239 1 16415477108338386668
12293681 160 17917705743560371649
12500047 106 18410011057068615656
12592029 89 18264207998411523803
12596602 18 15141260835493769085
12643181 29 18411142403822606694
12788726 201 18194665193598901987
12969540 114 18335688408890197581
13004483 165 17837205244409048671
13140716 1 18269276927567942208
13149001 5 17845643871814131393
13533116 47 17274259427599866518
13583140 156 18334020496741891379
14178342 30 18116428335764921642
15042514 8 18117850013005823203
15131766 46 15431749711971392430
15927050 60 18336264557030946378
17349148 13 17131837538606564960
20197701 30 18411417268047712863
20602899 9 15913608380166948039
21033648 29 18337660949646064161
21033650 10 15625128393754725256
21521721 280 18201722856095809081
21524375 3 18411705344410113493
21703447 108 17910095143416548106
22224240 67 18412272718765484009
23227448 37 18339360880510752589
23402539 116 17203327767259138521
23558518 356 17899698152674052720
23559900 14 18060699507517674088
3298306 158 18337112241750792591
340366 18 18334020518549667212
34934 24 18410291394195484482
3729539 64 18051422772973902846
3759504 43 18407760335218005107
38695281 34 18129098927553926077
4015057 19 17489578009000421384
4058900 60 18193283996530208633
4073 2 18337389461596204266
5104073 3 18267577083034291872
532947 4 18194406576169037398
5385378 56 18118973486197880905
53917941 68 18339346539704362263
559249 180 18412541012129113422
59755656 520 18334570235318173495
6138700 20 18052262791283471766
6669772 16 18340771420838386062
7164475 11 17975136757583079927
81228 2 18050277369804717443
9709674 26 18200600305941729822

>  <PUBCHEM_SHAPE_MULTIPOLES>  (1) 
509.37
10.68
3.94
1.33
9.85
4.39
0.07
-7.48
0.33
-3.28
-0.55
-0.79
0.43
1.18

>  <PUBCHEM_SHAPE_SELFOVERLAP>  (1) 
1095.969

>  <PUBCHEM_SHAPE_VOLUME>  (1) 
279.9

>  <PUBCHEM_COORDINATE_TYPE>  (1) 
2
5
10

$$$$
