36461
     RDKit          3D

 15 17  0  0  1  0  0  0  0  0999 V2000
   -0.2608   -2.5756   -0.7452 O   0  0  0  0  0  0  0  0  0  0  0  0
    4.5035   -0.1209    0.0762 N   0  0  0  0  0  0  0  0  0  0  0  0
   -0.2954   -1.6215    0.3000 C   0  0  0  0  0  0  0  0  0  0  0  0
    0.8640   -0.6556    0.1607 C   0  0  0  0  0  0  0  0  0  0  0  0
   -1.4875   -0.6929    0.1737 C   0  0  0  0  0  0  0  0  0  0  0  0
    0.3897    0.6645   -0.0105 C   0  0  0  0  0  0  0  0  0  0  0  0
   -1.0572    0.6416   -0.0025 C   0  0  0  0  0  0  0  0  0  0  0  0
    2.2194   -0.9364    0.1938 C   0  0  0  0  0  0  0  0  0  0  0  0
    1.2767    1.7186   -0.1540 C   0  0  0  0  0  0  0  0  0  0  0  0
   -2.8329   -1.0169    0.2216 C   0  0  0  0  0  0  0  0  0  0  0  0
   -1.9789    1.6668   -0.1359 C   0  0  0  0  0  0  0  0  0  0  0  0
    3.1131    0.1261    0.0487 C   0  0  0  0  0  0  0  0  0  0  0  0
    2.6465    1.4404   -0.1236 C   0  0  0  0  0  0  0  0  0  0  0  0
   -3.7615    0.0167    0.0871 C   0  0  0  0  0  0  0  0  0  0  0  0
   -3.3388    1.3452   -0.0900 C   0  0  0  0  0  0  0  0  0  0  0  0
  1  3  1  0
  2 12  1  0
  3  4  1  0
  3  5  1  0
  4  6  2  0
  4  8  1  0
  5  7  2  0
  5 10  1  0
  6  7  1  0
  6  9  1  0
  7 11  1  0
  8 12  2  0
  9 13  2  0
 10 14  2  0
 11 15  2  0
 12 13  1  0
 14 15  1  0
M  END
>  <PUBCHEM_COMPOUND_CID>  (1) 
36461

>  <PUBCHEM_CONFORMER_RMSD>  (1) 
0.4

>  <PUBCHEM_CONFORMER_DIVERSEORDER>  (1) 
2
1

>  <PUBCHEM_MMFF94_PARTIAL_CHARGES>  (1) 
23
1 -0.68
10 -0.15
11 -0.15
12 0.1
13 -0.15
14 -0.15
15 -0.15
17 0.15
18 0.15
19 0.15
2 -0.9
20 0.15
21 0.15
22 0.15
23 0.15
24 0.4
25 0.4
26 0.4
3 0.57
4 -0.14
5 -0.14
8 -0.15
9 -0.15

>  <PUBCHEM_EFFECTIVE_ROTOR_COUNT>  (1) 
0.2

>  <PUBCHEM_PHARMACOPHORE_FEATURES>  (1) 
7
1 1 acceptor
1 1 donor
1 2 cation
1 2 donor
5 3 4 5 6 7 rings
6 4 6 8 9 12 13 rings
6 5 7 10 11 14 15 rings

>  <PUBCHEM_HEAVY_ATOM_COUNT>  (1) 
15

>  <PUBCHEM_ATOM_DEF_STEREO_COUNT>  (1) 
0

>  <PUBCHEM_ATOM_UDEF_STEREO_COUNT>  (1) 
1

>  <PUBCHEM_BOND_DEF_STEREO_COUNT>  (1) 
0

>  <PUBCHEM_BOND_UDEF_STEREO_COUNT>  (1) 
0

>  <PUBCHEM_ISOTOPIC_ATOM_COUNT>  (1) 
0

>  <PUBCHEM_COMPONENT_COUNT>  (1) 
1

>  <PUBCHEM_CACTVS_TAUTO_COUNT>  (1) 
1

>  <PUBCHEM_CONFORMER_ID>  (1) 
00008E6D00000002

>  <PUBCHEM_MMFF94_ENERGY>  (1) 
61.1488

>  <PUBCHEM_FEATURE_SELFOVERLAP>  (1) 
35.684

>  <PUBCHEM_SHAPE_FINGERPRINT>  (1) 
10411042 1 15815660956209496832
10608611 8 18409445907754757417
10967382 1 18410012109003150881
11132069 177 18410007719504551857
11471102 20 18337948987690641613
12251169 10 18334014982130600313
13140716 1 18194124250693415195
13221675 6 18408040727730958490
13380535 76 18409167680100019403
14144814 61 18408322185385427256
14325111 11 18409167722759697889
14993402 34 18409729556132112796
15196674 1 18409167739881460352
15219456 202 18340774723773179207
15309172 13 18412553110645583763
15442244 35 18192711142191791994
15536298 74 18341894052659497314
15775835 57 18333734597869899872
16945 1 18338231694921948562
17802600 8 18409161125689937705
17804303 29 18410578400752559700
18186145 218 18273221871649855640
193761 8 17762337315824522017
200 152 18202273715510368709
20510252 161 18272654553778180145
20645476 183 17605576524443244238
21267235 1 18336555974808532475
21501502 16 18194963174034028836
21524375 3 18408885131181050667
2334 1 18409730698567318985
23402539 116 18272360979814968164
23402655 69 18268415855661082333
23463225 33 18334011653493938144
23559900 14 18272652364415496984
25 1 18265048046690846677
2748010 2 18410013204188227925
335352 9 18049159964762794861
5104073 3 18408604794281133528
528886 8 18410568461823580153
53812653 166 18411978044505082864
54173680 148 18120376711652759875
69090 78 18343015631354525510
7364860 26 18125441912671661031
81228 2 17834942453873838171
8809292 202 18187089498100243299
9709674 26 18411706512362162878

>  <PUBCHEM_SHAPE_MULTIPOLES>  (1) 
297.84
6.14
2.03
0.65
1.52
0.38
0.01
-1.09
-0.2
-0.32
0.26
-0.03
0.08
0

>  <PUBCHEM_SHAPE_SELFOVERLAP>  (1) 
671.148

>  <PUBCHEM_SHAPE_VOLUME>  (1) 
159.1

>  <PUBCHEM_COORDINATE_TYPE>  (1) 
2
5
10

$$$$
