36478
     RDKit          3D

 18 18  0  0  0  0  0  0  0  0999 V2000
    2.1225   -2.7815   -0.1420 Cl  0  0  0  0  0  0  0  0  0  0  0  0
    5.7865    0.8673    0.3888 Cl  0  0  0  0  0  0  0  0  0  0  0  0
    3.4055    0.0818   -1.1605 S   0  0  0  0  0  0  0  0  0  0  0  0
    3.4266    1.7204    0.8851 F   0  0  0  0  0  0  0  0  0  0  0  0
    3.7826   -0.3696    1.3939 F   0  0  0  0  0  0  0  0  0  0  0  0
   -3.1611    1.6756   -0.3539 O   0  0  0  0  0  0  0  0  0  0  0  0
   -2.4130   -0.4851    0.0752 N   0  0  0  0  0  0  0  0  0  0  0  0
   -4.6853    0.0787    0.3429 N   0  0  0  0  0  0  0  0  0  0  0  0
   -1.0301   -0.3715   -0.2123 C   0  0  0  0  0  0  0  0  0  0  0  0
   -0.2148   -1.4799   -0.0620 C   0  0  0  0  0  0  0  0  0  0  0  0
   -0.5269    0.8459   -0.6374 C   0  0  0  0  0  0  0  0  0  0  0  0
    1.6707   -0.1481   -0.7753 C   0  0  0  0  0  0  0  0  0  0  0  0
   -3.3875    0.5118   -0.0158 C   0  0  0  0  0  0  0  0  0  0  0  0
    1.1464   -1.3673   -0.3457 C   0  0  0  0  0  0  0  0  0  0  0  0
    0.8341    0.9584   -0.9210 C   0  0  0  0  0  0  0  0  0  0  0  0
   -5.8321    0.9781    0.3353 C   0  0  0  0  0  0  0  0  0  0  0  0
   -4.9614   -1.2990    0.7447 C   0  0  0  0  0  0  0  0  0  0  0  0
    4.0372    0.5842    0.4598 C   0  0  0  0  0  0  0  0  0  0  0  0
  1 14  1  0
  2 18  1  0
  3 12  1  0
  3 18  1  0
  4 18  1  0
  5 18  1  0
  6 13  2  0
  7  9  1  0
  7 13  1  0
  8 13  1  0
  8 16  1  0
  8 17  1  0
  9 10  2  0
  9 11  1  0
 10 14  1  0
 11 15  2  0
 12 14  2  0
 12 15  1  0
M  END
>  <PUBCHEM_COMPOUND_CID>  (1) 
36478

>  <PUBCHEM_CONFORMER_RMSD>  (1) 
0.6

>  <PUBCHEM_CONFORMER_DIVERSEORDER>  (1) 
1
58
93
45
89
21
106
92
81
101
51
61
79
52
85
104
78
48
74
82
77
83
91
31
10
97
33
90
94
87
96
67
63
71
8
49
98
75
80
100
16
70
86
103
27
68
24
37
32
65
102
57
73
99
66
43
36
26
42
84
34
88
64
105
47
53
28
39
17
69
54
50
76
40
22
44
59
25
29
41
56
19
72
4
46
30
7
20
23
38
60
62
15
95
35
12
14
11
5
9
18
6
3
55
13
2

>  <PUBCHEM_MMFF94_PARTIAL_CHARGES>  (1) 
22
1 -0.18
10 -0.15
11 -0.15
12 0.1
13 0.69
14 0.18
15 -0.15
16 0.3
17 0.3
18 1.2
19 0.37
2 -0.29
20 0.15
21 0.15
22 0.15
3 -0.33
4 -0.34
5 -0.34
6 -0.57
7 -0.55
8 -0.66
9 0.12

>  <PUBCHEM_EFFECTIVE_ROTOR_COUNT>  (1) 
5

>  <PUBCHEM_PHARMACOPHORE_FEATURES>  (1) 
3
1 6 acceptor
1 7 donor
6 9 10 11 12 14 15 rings

>  <PUBCHEM_HEAVY_ATOM_COUNT>  (1) 
18

>  <PUBCHEM_ATOM_DEF_STEREO_COUNT>  (1) 
0

>  <PUBCHEM_ATOM_UDEF_STEREO_COUNT>  (1) 
0

>  <PUBCHEM_BOND_DEF_STEREO_COUNT>  (1) 
0

>  <PUBCHEM_BOND_UDEF_STEREO_COUNT>  (1) 
0

>  <PUBCHEM_ISOTOPIC_ATOM_COUNT>  (1) 
0

>  <PUBCHEM_COMPONENT_COUNT>  (1) 
1

>  <PUBCHEM_CACTVS_TAUTO_COUNT>  (1) 
2

>  <PUBCHEM_CONFORMER_ID>  (1) 
00008E7E00000001

>  <PUBCHEM_MMFF94_ENERGY>  (1) 
45.8241

>  <PUBCHEM_FEATURE_SELFOVERLAP>  (1) 
15.223

>  <PUBCHEM_SHAPE_FINGERPRINT>  (1) 
106641 1 18041562563133223480
11796584 16 14851604388660433201
12236239 1 17458346364175648492
12251169 10 18040714800981633012
12403259 415 18336828589288908324
12507560 40 18337953368567761773
12596602 18 17530964730439620552
12670546 177 11167939186467379136
12839892 36 18261105300841235931
13140716 1 18118687848896615780
13675066 3 18408043992085419215
13760787 19 14620792695501456277
13955234 65 17060347271136224046
14252887 29 18187090511628135307
14366163 111 15195568995943556250
14787075 74 18059007418698024897
15536298 74 18338804403226027215
17349148 13 17894916251918791527
18186145 218 17704359853033082886
18785283 64 18126002908394396673
19784866 170 18335420162480914262
19784866 240 12757149047863840253
20374829 77 9079121050861852604
20645477 56 18060137660753409549
20645477 70 18265057942686270343
21452121 103 18338795611401429418
21637258 2 14779531405955234448
22182313 1 17969212335408409102
22224240 67 18410850001573031298
22854114 59 18341897398138249537
23402539 116 17821726161299808759
23559900 14 18115602451713072175
2748010 2 17971749974117627718
2916195 48 18060134375035103153
29717793 49 11242258493683844627
300161 21 18411136905968470879
34934 24 18342454837844095039
3545911 37 18336553742037182519
4047638 21 17632301176800565830
4072396 5 18187359917693847223
42630746 31 18412263908753929119
4325135 7 17560516304849129135
4463277 69 13335005085071235728
465052 167 17168150056848679186
474 4 17988644133550583240
5104073 3 18264499399432001035
59682541 35 18338804545439795019
6333272 397 18342176695735541144
633830 44 18059848523977256940
7364860 26 18270681935961601182

>  <PUBCHEM_SHAPE_MULTIPOLES>  (1) 
347.64
12.01
1.93
0.99
7.09
1.09
0.02
-3.83
3.79
-0.59
0.04
-0.81
-0.1
0.67

>  <PUBCHEM_SHAPE_SELFOVERLAP>  (1) 
681.131

>  <PUBCHEM_SHAPE_VOLUME>  (1) 
214

>  <PUBCHEM_COORDINATE_TYPE>  (1) 
2
5
10

$$$$
