36477
     RDKit          3D

 14 14  0  0  0  0  0  0  0  0999 V2000
    0.0214   -2.5765   -0.1937 Cl  0  0  0  0  0  0  0  0  0  0  0  0
   -3.1081   -2.4147    0.5391 Cl  0  0  0  0  0  0  0  0  0  0  0  0
   -2.9225    2.9263    0.0257 Cl  0  0  0  0  0  0  0  0  0  0  0  0
    1.2151    0.0887   -0.7067 O   0  0  0  0  0  0  0  0  0  0  0  0
    4.3032    0.8432    0.9537 O   0  0  0  0  0  0  0  0  0  0  0  0
    3.7594   -0.8539   -0.4646 O   0  0  0  0  0  0  0  0  0  0  0  0
   -0.1120    0.1117   -0.3952 C   0  0  0  0  0  0  0  0  0  0  0  0
   -0.8178   -1.0608   -0.1248 C   0  0  0  0  0  0  0  0  0  0  0  0
   -0.7630    1.3444   -0.3485 C   0  0  0  0  0  0  0  0  0  0  0  0
   -2.1749   -1.0004    0.1924 C   0  0  0  0  0  0  0  0  0  0  0  0
   -2.1200    1.4047   -0.0313 C   0  0  0  0  0  0  0  0  0  0  0  0
   -2.8259    0.2324    0.2391 C   0  0  0  0  0  0  0  0  0  0  0  0
    2.0951    0.8032    0.1579 C   0  0  0  0  0  0  0  0  0  0  0  0
    3.4501    0.1516    0.1569 C   0  0  0  0  0  0  0  0  0  0  0  0
  1  8  1  0
  2 10  1  0
  3 11  1  0
  4  7  1  0
  4 13  1  0
  5 14  1  0
  6 14  2  0
  7  8  2  0
  7  9  1  0
  8 10  1  0
  9 11  2  0
 10 12  2  0
 11 12  1  0
 13 14  1  0
M  END
>  <PUBCHEM_COMPOUND_CID>  (1) 
36477

>  <PUBCHEM_CONFORMER_RMSD>  (1) 
0.6

>  <PUBCHEM_CONFORMER_DIVERSEORDER>  (1) 
1
12
8
2
11
17
24
20
22
23
15
21
14
10
5
19
18
7
16
6
13
3
4
9

>  <PUBCHEM_MMFF94_PARTIAL_CHARGES>  (1) 
17
1 -0.18
10 0.18
11 0.18
12 -0.15
13 0.34
14 0.66
15 0.15
16 0.15
19 0.5
2 -0.18
3 -0.18
4 -0.36
5 -0.65
6 -0.57
7 0.08
8 0.18
9 -0.15

>  <PUBCHEM_EFFECTIVE_ROTOR_COUNT>  (1) 
3

>  <PUBCHEM_PHARMACOPHORE_FEATURES>  (1) 
5
1 4 acceptor
1 5 acceptor
1 6 acceptor
3 5 6 14 anion
6 7 8 9 10 11 12 rings

>  <PUBCHEM_HEAVY_ATOM_COUNT>  (1) 
14

>  <PUBCHEM_ATOM_DEF_STEREO_COUNT>  (1) 
0

>  <PUBCHEM_ATOM_UDEF_STEREO_COUNT>  (1) 
0

>  <PUBCHEM_BOND_DEF_STEREO_COUNT>  (1) 
0

>  <PUBCHEM_BOND_UDEF_STEREO_COUNT>  (1) 
0

>  <PUBCHEM_ISOTOPIC_ATOM_COUNT>  (1) 
0

>  <PUBCHEM_COMPONENT_COUNT>  (1) 
1

>  <PUBCHEM_CACTVS_TAUTO_COUNT>  (1) 
1

>  <PUBCHEM_CONFORMER_ID>  (1) 
00008E7D00000001

>  <PUBCHEM_MMFF94_ENERGY>  (1) 
33.6058

>  <PUBCHEM_FEATURE_SELFOVERLAP>  (1) 
25.434

>  <PUBCHEM_SHAPE_FINGERPRINT>  (1) 
10608611 8 18343299258526816664
11132069 177 18408605868049051017
11357001 24 18334017224414635483
11680986 33 18120949299844849271
12500047 106 18265050245508373900
13024252 1 13767920209328290093
13140716 1 18265908037004452777
13380535 76 18266176141441788319
14178342 30 18261664914010619970
14325111 11 18411981338919039548
14420673 8 18120646930385689258
14614273 12 18334009454866412765
15219456 202 18130510751680680574
16945 1 18336562555278483829
18186145 218 17988651752949030200
19049666 15 18201164239331573510
193761 8 18193562173198778655
19422 9 17967817158769857426
20510252 161 18343303699105990376
20524608 308 18411702058559723927
20871998 184 18342461490526883999
21065199 12 18341888615447061808
21501502 16 18192988227796718227
21524375 3 18197775492992460509
21650355 55 18265611176980069067
23402539 116 18200023083885914951
23419403 2 15192434417679894991
23559900 14 18270962328969906782
23598291 2 17749401390062649772
257057 1 17620466252540508015
2748010 2 17902531302397416933
305870 269 18192994816181273425
3086196 2 18336261348742045353
3091708 16 9057008759794089563
43471831 8 18333447629741437362
5706482 22 18337100173203608865
7364860 26 17837492947024580455
77492 1 17458071481889263348
84936 182 17622436139322804849

>  <PUBCHEM_SHAPE_MULTIPOLES>  (1) 
276.11
6.44
2.89
0.75
7.1
0.21
-0.04
-1.12
-1.34
-3.28
-0.11
0.18
0.01
0.6

>  <PUBCHEM_SHAPE_SELFOVERLAP>  (1) 
546.794

>  <PUBCHEM_SHAPE_VOLUME>  (1) 
166.6

>  <PUBCHEM_COORDINATE_TYPE>  (1) 
2
5
10

$$$$
