36471
     RDKit          3D

 26 28  0  0  1  0  0  0  0  0999 V2000
   -2.8988    0.9159    1.9085 O   0  0  0  0  0  0  0  0  0  0  0  0
    1.3023   -2.1378   -0.1517 O   0  0  0  0  0  0  0  0  0  0  0  0
    2.0440   -1.9501    2.0194 O   0  0  0  0  0  0  0  0  0  0  0  0
   -2.0616   -1.4969   -0.7092 N   0  0  0  0  0  0  0  0  0  0  0  0
   -3.4774    0.5262   -0.3680 C   0  0  0  0  0  0  0  0  0  0  0  0
   -2.5809   -0.2668   -1.3279 C   0  0  0  0  0  0  0  0  0  0  0  0
   -4.5896   -0.3468    0.2145 C   0  0  0  0  0  0  0  0  0  0  0  0
   -4.0405   -1.6627    0.7603 C   0  0  0  0  0  0  0  0  0  0  0  0
   -3.1561   -2.3699   -0.2661 C   0  0  0  0  0  0  0  0  0  0  0  0
   -1.1855   -2.2078   -1.6407 C   0  0  0  0  0  0  0  0  0  0  0  0
   -2.6640    1.1594    0.7272 C   0  0  0  0  0  0  0  0  0  0  0  0
   -0.5557   -3.4171   -0.9570 C   0  0  0  0  0  0  0  0  0  0  0  0
   -1.5606    2.0926    0.3632 C   0  0  0  0  0  0  0  0  0  0  0  0
    0.2584   -3.0080    0.2631 C   0  0  0  0  0  0  0  0  0  0  0  0
   -1.6738    2.8312   -0.7937 C   0  0  0  0  0  0  0  0  0  0  0  0
   -0.4683    2.1829    1.1973 C   0  0  0  0  0  0  0  0  0  0  0  0
   -0.6412    3.7050   -1.1344 C   0  0  0  0  0  0  0  0  0  0  0  0
    0.5641    3.0567    0.8565 C   0  0  0  0  0  0  0  0  0  0  0  0
    0.4776    3.8178   -0.3093 C   0  0  0  0  0  0  0  0  0  0  0  0
    2.1263   -1.6799    0.8313 C   0  0  0  0  0  0  0  0  0  0  0  0
    3.1686   -0.7836    0.2703 C   0  0  0  0  0  0  0  0  0  0  0  0
    4.3981   -0.7187    0.8935 C   0  0  0  0  0  0  0  0  0  0  0  0
    2.8757   -0.0438   -0.8570 C   0  0  0  0  0  0  0  0  0  0  0  0
    5.3774    0.1230    0.3664 C   0  0  0  0  0  0  0  0  0  0  0  0
    3.8553    0.7979   -1.3841 C   0  0  0  0  0  0  0  0  0  0  0  0
    5.1061    0.8812   -0.7724 C   0  0  0  0  0  0  0  0  0  0  0  0
  1 11  2  0
  2 14  1  0
  2 20  1  0
  3 20  2  0
  4  6  1  0
  4  9  1  0
  4 10  1  0
  5  6  1  0
  5  7  1  0
  5 11  1  0
  7  8  1  0
  8  9  1  0
 10 12  1  0
 11 13  1  0
 12 14  1  0
 13 15  2  0
 13 16  1  0
 15 17  1  0
 16 18  2  0
 17 19  2  0
 18 19  1  0
 20 21  1  0
 21 22  2  0
 21 23  1  0
 22 24  1  0
 23 25  2  0
 24 26  2  0
 25 26  1  0
M  END
>  <PUBCHEM_COMPOUND_CID>  (1) 
36471

>  <PUBCHEM_CONFORMER_RMSD>  (1) 
1.2

>  <PUBCHEM_CONFORMER_DIVERSEORDER>  (1) 
2
312
543
407
308
3
157
303
273
480
274
242
45
100
21
109
441
8
29
281
297
16
550
321
431
73
131
267
177
189
203
357
140
569
50
125
474
5
400
20
490
123
390
59
410
554
17
42
509
7
411
307
111
37
183
258
384
26
250
466
309
158
565
418
146
328
12
265
294
172
313
79
15
528
46
113
180
41
323
488
31
171
62
43
553
304
84
360
388
282
398
63
55
513
214
139
448
14
296
56
87
121
355
97
30
51
75
391
9
300
104
13
89
217
133
223
270
415
324
6
134
404
266
337
130
535
275
1
514
285
19
276
198
363
120
381
230
28
4
506
468

>  <PUBCHEM_MMFF94_PARTIAL_CHARGES>  (1) 
33
1 -0.57
10 0.27
11 0.42
13 0.09
14 0.28
15 -0.15
16 -0.15
17 -0.15
18 -0.15
19 -0.15
2 -0.43
20 0.63
21 0.09
22 -0.15
23 -0.15
24 -0.15
25 -0.15
26 -0.15
3 -0.57
4 -0.81
42 0.15
43 0.15
44 0.15
45 0.15
46 0.15
47 0.15
48 0.15
49 0.15
5 0.06
50 0.15
51 0.15
6 0.27
9 0.27

>  <PUBCHEM_EFFECTIVE_ROTOR_COUNT>  (1) 
9.2

>  <PUBCHEM_PHARMACOPHORE_FEATURES>  (1) 
6
1 1 acceptor
1 3 acceptor
1 4 cation
6 13 15 16 17 18 19 rings
6 21 22 23 24 25 26 rings
6 4 5 6 7 8 9 rings

>  <PUBCHEM_HEAVY_ATOM_COUNT>  (1) 
26

>  <PUBCHEM_ATOM_DEF_STEREO_COUNT>  (1) 
0

>  <PUBCHEM_ATOM_UDEF_STEREO_COUNT>  (1) 
1

>  <PUBCHEM_BOND_DEF_STEREO_COUNT>  (1) 
0

>  <PUBCHEM_BOND_UDEF_STEREO_COUNT>  (1) 
0

>  <PUBCHEM_ISOTOPIC_ATOM_COUNT>  (1) 
0

>  <PUBCHEM_COMPONENT_COUNT>  (1) 
1

>  <PUBCHEM_CACTVS_TAUTO_COUNT>  (1) 
2

>  <PUBCHEM_CONFORMER_ID>  (1) 
00008E7700000002

>  <PUBCHEM_MMFF94_ENERGY>  (1) 
62.91

>  <PUBCHEM_FEATURE_SELFOVERLAP>  (1) 
30.447

>  <PUBCHEM_SHAPE_FINGERPRINT>  (1) 
10087517 78 18268980059802618824
10498660 4 18340486668727138638
10670039 82 18411145701966820822
10871710 139 18412262818100955965
1100329 8 18196376033680671791
11595378 159 18263341669411894354
12156800 1 15549441367546413747
12553582 1 18411971481710658397
12788726 201 18337402616601347956
13122387 1 18411981381578536236
13642711 20 14853843148954018692
13773456 30 17543615445157259540
13994607 96 17969244363422665650
14117953 113 18122343480198674613
14251751 93 18124038931993215486
14765038 42 18200613474158725616
14787075 74 18041844033625497915
14840074 17 18337124400945703865
15297060 5 17988372468221057162
15575132 122 18334299725540786220
15927050 60 17258507063442065903
17492 54 18334863852156763188
19315092 285 16733525170388566883
19319366 153 18040990778342877978
20715895 44 17467897585584815765
20764821 26 17110729419282087868
22113638 7 18339359789583421054
3052486 1 18337939195434174088
35225 105 17986085458281199628
445580 8 18339656541748429121
463206 1 18193284206936438564
469060 322 18337684103961898267

>  <PUBCHEM_SHAPE_MULTIPOLES>  (1) 
512.48
8.91
4.79
1.48
7.46
2.09
0.13
-1.89
0.41
-1.65
-0.64
0.04
-0.07
-1.01

>  <PUBCHEM_SHAPE_SELFOVERLAP>  (1) 
1088.84

>  <PUBCHEM_SHAPE_VOLUME>  (1) 
282.9

>  <PUBCHEM_COORDINATE_TYPE>  (1) 
2
5
10

$$$$
