36498
     RDKit          3D

 32 35  0  0  1  0  0  0  0  0999 V2000
   -0.3618   -1.0131   -1.6894 O   0  0  0  0  0  0  0  0  0  0  0  0
   -0.3023   -1.0665    0.6676 N   0  0  0  0  0  0  0  0  0  0  0  0
    0.8057   -1.8546    0.8483 N   0  0  0  0  0  0  0  0  0  0  0  0
    0.8068    4.2732   -0.2472 N   0  0  0  0  0  0  0  0  0  0  0  0
   -2.0414    0.1990   -0.3321 C   0  0  0  0  0  0  0  0  0  0  0  0
   -1.8051    1.5901   -0.9128 C   0  0  0  0  0  0  0  0  0  0  0  0
   -2.1031    0.2148    1.1879 C   0  0  0  0  0  0  0  0  0  0  0  0
   -0.7955   -0.7033   -0.5887 C   0  0  0  0  0  0  0  0  0  0  0  0
   -1.0550   -0.5434    1.7172 C   0  0  0  0  0  0  0  0  0  0  0  0
   -3.2534   -0.4336   -0.9388 C   0  0  0  0  0  0  0  0  0  0  0  0
   -0.5917    2.2605   -0.2722 C   0  0  0  0  0  0  0  0  0  0  0  0
   -3.0065    0.8504    2.0246 C   0  0  0  0  0  0  0  0  0  0  0  0
   -0.3414    3.6381   -0.8831 C   0  0  0  0  0  0  0  0  0  0  0  0
   -0.8758   -0.6943    3.0809 C   0  0  0  0  0  0  0  0  0  0  0  0
   -3.2694   -1.8040   -1.1872 C   0  0  0  0  0  0  0  0  0  0  0  0
   -4.3607    0.3506   -1.2533 C   0  0  0  0  0  0  0  0  0  0  0  0
    1.9924   -1.1998    0.2944 C   0  0  0  0  0  0  0  0  0  0  0  0
   -2.8411    0.7086    3.4047 C   0  0  0  0  0  0  0  0  0  0  0  0
   -1.7851   -0.0573    3.9280 C   0  0  0  0  0  0  0  0  0  0  0  0
    0.6065   -3.1644    0.2250 C   0  0  0  0  0  0  0  0  0  0  0  0
    3.2526   -2.0174    0.5797 C   0  0  0  0  0  0  0  0  0  0  0  0
   -4.3997   -2.3937   -1.7534 C   0  0  0  0  0  0  0  0  0  0  0  0
   -5.4909   -0.2393   -1.8193 C   0  0  0  0  0  0  0  0  0  0  0  0
   -5.5103   -1.6112   -2.0694 C   0  0  0  0  0  0  0  0  0  0  0  0
    2.0056    3.4480   -0.4057 C   0  0  0  0  0  0  0  0  0  0  0  0
    1.0321    5.6078   -0.8049 C   0  0  0  0  0  0  0  0  0  0  0  0
    4.4856   -1.3425    0.0337 C   0  0  0  0  0  0  0  0  0  0  0  0
    4.8992   -1.6232   -1.2599 C   0  0  0  0  0  0  0  0  0  0  0  0
    5.1856   -0.4519    0.8338 C   0  0  0  0  0  0  0  0  0  0  0  0
    6.0395   -0.9989   -1.7653 C   0  0  0  0  0  0  0  0  0  0  0  0
    6.3259    0.1725    0.3282 C   0  0  0  0  0  0  0  0  0  0  0  0
    6.7528   -0.1010   -0.9713 C   0  0  0  0  0  0  0  0  0  0  0  0
  1  8  2  0
  2  3  1  0
  2  8  1  0
  2  9  1  0
  3 17  1  0
  3 20  1  0
  4 13  1  0
  4 25  1  0
  4 26  1  0
  5  6  1  0
  5  7  1  0
  5  8  1  0
  5 10  1  0
  6 11  1  0
  7  9  2  0
  7 12  1  0
  9 14  1  0
 10 15  2  0
 10 16  1  0
 11 13  1  0
 12 18  2  0
 14 19  2  0
 15 22  1  0
 16 23  2  0
 17 21  1  0
 18 19  1  0
 21 27  1  0
 22 24  2  0
 23 24  1  0
 27 28  2  0
 27 29  1  0
 28 30  1  0
 29 31  2  0
 30 32  2  0
 31 32  1  0
M  END
>  <PUBCHEM_COMPOUND_CID>  (1) 
36498

>  <PUBCHEM_CONFORMER_RMSD>  (1) 
1

>  <PUBCHEM_CONFORMER_DIVERSEORDER>  (1) 
10
69
134
89
194
30
11
38
170
195
192
174
162
183
164
157
87
83
141
16
64
138
115
136
149
99
118
140
37
54
63
161
193
135
53
20
96
167
156
32
159
93
165
44
94
114
88
111
137
126
82
56
130
175
112
108
79
181
15
78
61
176
166
120
116
173
169
152
189
74
180
43
46
163
19
139
150
80
85
8
97
71
92
191
103
123
65
119
168
143
178
73
172
81
41
184
186
40
86
117
50
128
185
55
68
155
188
144
101
95
151
122
22
76
52
177
142
58
34
121
9
158
127
145
109
62
31
105
36
110
49
5
72
48
132
14
35
23
66
148
131
57
98
104
24
6
133
91
60
45
125
146
190
129
84
39
90
25
7
153
147
3
124
102
160
21
77
182
107
100
67
2
179
154
59
26
113
33
29
70
47
12
18
28
27
187
1
51
4
106
42
171
13
17
75

>  <PUBCHEM_MMFF94_PARTIAL_CHARGES>  (1) 
44
1 -0.57
10 -0.14
12 -0.15
13 0.27
14 -0.15
15 -0.15
16 -0.15
17 0.27
18 -0.15
19 -0.15
2 -0.17
20 0.27
21 0.14
22 -0.15
23 -0.15
24 -0.15
25 0.27
26 0.27
27 -0.14
28 -0.15
29 -0.15
3 -0.55
30 -0.15
31 -0.15
32 -0.15
37 0.15
4 -0.81
40 0.15
41 0.15
42 0.15
45 0.15
46 0.15
5 0.35
52 0.15
53 0.15
54 0.15
61 0.15
62 0.15
63 0.15
64 0.15
65 0.15
7 -0.14
8 0.57
9 0.12

>  <PUBCHEM_EFFECTIVE_ROTOR_COUNT>  (1) 
9.4

>  <PUBCHEM_PHARMACOPHORE_FEATURES>  (1) 
6
1 1 acceptor
1 4 cation
5 2 5 7 8 9 rings
6 10 15 16 22 23 24 rings
6 27 28 29 30 31 32 rings
6 7 9 12 14 18 19 rings

>  <PUBCHEM_HEAVY_ATOM_COUNT>  (1) 
32

>  <PUBCHEM_ATOM_DEF_STEREO_COUNT>  (1) 
0

>  <PUBCHEM_ATOM_UDEF_STEREO_COUNT>  (1) 
1

>  <PUBCHEM_BOND_DEF_STEREO_COUNT>  (1) 
0

>  <PUBCHEM_BOND_UDEF_STEREO_COUNT>  (1) 
0

>  <PUBCHEM_ISOTOPIC_ATOM_COUNT>  (1) 
0

>  <PUBCHEM_COMPONENT_COUNT>  (1) 
1

>  <PUBCHEM_CACTVS_TAUTO_COUNT>  (1) 
1

>  <PUBCHEM_CONFORMER_ID>  (1) 
00008E920000000A

>  <PUBCHEM_MMFF94_ENERGY>  (1) 
101.8159

>  <PUBCHEM_FEATURE_SELFOVERLAP>  (1) 
30.532

>  <PUBCHEM_SHAPE_FINGERPRINT>  (1) 
10006869 2 17394174231283192177
10032420 55 17459727294676775877
10290309 65 16806184176397692218
11297750 10 16880500330458510187
11621639 179 17753023040269590157
12058002 1 17845116075936198663
12788726 201 18042398024540786512
12977781 61 17535749933998053267
13009979 54 17989490757878185617
133893 2 18195828468131559541
1361 2 18265318681148912212
13911987 19 18186809075760123030
14068700 675 17917418869614480127
15328829 1 18059587875544696249
15439362 3 18120077640680484069
15876981 60 17275116011113240368
16994733 274 17896308135356630621
20554085 129 16226868030861033393
20771845 165 17824813688181958301
21344244 246 18050276269807650461
21424621 283 15720226172579974727
21639891 77 16009330780666455537
23352939 185 18272641351127391435
23419403 2 17604726585128382753
23559900 14 18127100148817338303
244849 19 17678178402928562225
404807 14 18201442407241638020
469060 322 18412542076932499338
497634 4 17775568598435353070
6608658 132 18337393734445131220

>  <PUBCHEM_SHAPE_MULTIPOLES>  (1) 
637.73
12.53
4.41
2.94
17.37
8.39
3.42
-7.05
-7.5
1.59
-2.09
-3.85
-0.49
-1.54

>  <PUBCHEM_SHAPE_SELFOVERLAP>  (1) 
1374.748

>  <PUBCHEM_SHAPE_VOLUME>  (1) 
353.2

>  <PUBCHEM_COORDINATE_TYPE>  (1) 
2
5
10

$$$$
