36492
     RDKit          3D

 33 37  0  0  1  0  0  0  0  0999 V2000
   -0.3100   -0.9219   -1.9171 O   0  0  0  0  0  0  0  0  0  0  0  0
    0.0166    4.3863   -0.1606 N   0  0  0  0  0  0  0  0  0  0  0  0
    0.1423   -1.1131    0.3896 N   0  0  0  0  0  0  0  0  0  0  0  0
    1.3978   -1.6626    0.3293 N   0  0  0  0  0  0  0  0  0  0  0  0
   -1.9504   -0.1770   -0.2180 C   0  0  0  0  0  0  0  0  0  0  0  0
   -2.0894    1.2671   -0.6905 C   0  0  0  0  0  0  0  0  0  0  0  0
   -1.7653   -0.2722    1.2890 C   0  0  0  0  0  0  0  0  0  0  0  0
   -0.9431    2.1334   -0.1730 C   0  0  0  0  0  0  0  0  0  0  0  0
   -0.6106   -0.7809   -0.7401 C   0  0  0  0  0  0  0  0  0  0  0  0
   -1.0709    3.5694   -0.6785 C   0  0  0  0  0  0  0  0  0  0  0  0
   -3.0972   -1.0082   -0.6987 C   0  0  0  0  0  0  0  0  0  0  0  0
   -0.5168   -0.8273    1.5835 C   0  0  0  0  0  0  0  0  0  0  0  0
    1.3266    3.9340   -0.6283 C   0  0  0  0  0  0  0  0  0  0  0  0
   -0.0792    5.7811   -0.5904 C   0  0  0  0  0  0  0  0  0  0  0  0
    2.2302    5.1155   -0.3077 C   0  0  0  0  0  0  0  0  0  0  0  0
    1.3058    6.3289   -0.2793 C   0  0  0  0  0  0  0  0  0  0  0  0
   -2.6270    0.1056    2.3064 C   0  0  0  0  0  0  0  0  0  0  0  0
   -0.0916   -1.0250    2.8854 C   0  0  0  0  0  0  0  0  0  0  0  0
   -4.1645   -0.4025   -1.3573 C   0  0  0  0  0  0  0  0  0  0  0  0
   -3.0931   -2.3845   -0.4849 C   0  0  0  0  0  0  0  0  0  0  0  0
   -2.2142   -0.0871    3.6272 C   0  0  0  0  0  0  0  0  0  0  0  0
    2.3265   -0.7402   -0.3270 C   0  0  0  0  0  0  0  0  0  0  0  0
   -0.9577   -0.6477    3.9139 C   0  0  0  0  0  0  0  0  0  0  0  0
    1.3604   -2.9423   -0.3812 C   0  0  0  0  0  0  0  0  0  0  0  0
   -5.2340   -1.1780   -1.8052 C   0  0  0  0  0  0  0  0  0  0  0  0
   -4.1625   -3.1599   -0.9330 C   0  0  0  0  0  0  0  0  0  0  0  0
   -5.2330   -2.5566   -1.5929 C   0  0  0  0  0  0  0  0  0  0  0  0
    3.7289   -1.2867   -0.3618 C   0  0  0  0  0  0  0  0  0  0  0  0
    4.1349   -2.0592   -1.4411 C   0  0  0  0  0  0  0  0  0  0  0  0
    4.5961   -1.0108    0.6863 C   0  0  0  0  0  0  0  0  0  0  0  0
    5.4342   -2.5657   -1.4730 C   0  0  0  0  0  0  0  0  0  0  0  0
    5.8954   -1.5172    0.6542 C   0  0  0  0  0  0  0  0  0  0  0  0
    6.3144   -2.2946   -0.4253 C   0  0  0  0  0  0  0  0  0  0  0  0
  1  9  2  0
  2 10  1  0
  2 13  1  0
  2 14  1  0
  3  4  1  0
  3  9  1  0
  3 12  1  0
  4 22  1  0
  4 24  1  0
  5  6  1  0
  5  7  1  0
  5  9  1  0
  5 11  1  0
  6  8  1  0
  7 12  2  0
  7 17  1  0
  8 10  1  0
 11 19  2  0
 11 20  1  0
 12 18  1  0
 13 15  1  0
 14 16  1  0
 15 16  1  0
 17 21  2  0
 18 23  2  0
 19 25  1  0
 20 26  2  0
 21 23  1  0
 22 28  1  0
 25 27  2  0
 26 27  1  0
 28 29  2  0
 28 30  1  0
 29 31  1  0
 30 32  2  0
 31 33  2  0
 32 33  1  0
M  END
>  <PUBCHEM_COMPOUND_CID>  (1) 
36492

>  <PUBCHEM_CONFORMER_RMSD>  (1) 
1

>  <PUBCHEM_CONFORMER_DIVERSEORDER>  (1) 
1
46
44
41
42
52
36
34
12
39
30
47
57
8
7
40
62
48
51
55
56
4
21
29
64
14
17
60
16
32
22
54
49
58
35
50
10
61
9
31
27
18
23
38
59
15
63
26
43
6
37
24
45
19
25
11
2
28
20
33
13
5
53
3

>  <PUBCHEM_MMFF94_PARTIAL_CHARGES>  (1) 
43
1 -0.57
10 0.27
11 -0.14
12 0.12
13 0.27
14 0.27
17 -0.15
18 -0.15
19 -0.15
2 -0.81
20 -0.15
21 -0.15
22 0.41
23 -0.15
24 0.27
25 -0.15
26 -0.15
27 -0.15
28 -0.14
29 -0.15
3 -0.17
30 -0.15
31 -0.15
32 -0.15
33 -0.15
4 -0.55
48 0.15
49 0.15
5 0.35
50 0.15
51 0.15
52 0.15
55 0.15
59 0.15
60 0.15
61 0.15
62 0.15
63 0.15
64 0.15
65 0.15
66 0.15
7 -0.14
9 0.57

>  <PUBCHEM_EFFECTIVE_ROTOR_COUNT>  (1) 
9.4

>  <PUBCHEM_PHARMACOPHORE_FEATURES>  (1) 
7
1 1 acceptor
1 2 cation
5 2 13 14 15 16 rings
5 3 5 7 9 12 rings
6 11 19 20 25 26 27 rings
6 28 29 30 31 32 33 rings
6 7 12 17 18 21 23 rings

>  <PUBCHEM_HEAVY_ATOM_COUNT>  (1) 
33

>  <PUBCHEM_ATOM_DEF_STEREO_COUNT>  (1) 
0

>  <PUBCHEM_ATOM_UDEF_STEREO_COUNT>  (1) 
1

>  <PUBCHEM_BOND_DEF_STEREO_COUNT>  (1) 
0

>  <PUBCHEM_BOND_UDEF_STEREO_COUNT>  (1) 
0

>  <PUBCHEM_ISOTOPIC_ATOM_COUNT>  (1) 
0

>  <PUBCHEM_COMPONENT_COUNT>  (1) 
1

>  <PUBCHEM_CACTVS_TAUTO_COUNT>  (1) 
1

>  <PUBCHEM_CONFORMER_ID>  (1) 
00008E8C00000001

>  <PUBCHEM_MMFF94_ENERGY>  (1) 
100.5798

>  <PUBCHEM_FEATURE_SELFOVERLAP>  (1) 
35.608

>  <PUBCHEM_SHAPE_FINGERPRINT>  (1) 
10032420 55 17314205827065577663
10937287 8 17113531520439605884
11115154 58 18335129848952307949
11488393 25 17905046203065045723
11763715 3 18265916708137527782
12058002 1 17630074704167081991
12160290 23 17682418952488022388
12293681 160 17823686482978745681
12788726 201 17972034739029010048
12977781 61 17391918437033747011
133893 2 18053123974832769857
15198563 99 18268421344054410805
15439362 3 18049430741677864157
15664445 248 18264749099781972771
15876981 60 18263089829609286732
15878777 1 12069013575571370513
15961568 22 18339070588952659108
16067690 210 18042117666804251568
21033650 10 17974308525439796646
23419403 2 17606418776399278539
23559900 14 18267566074753757927
244849 19 17606687083133042075
3380486 145 18195824984775484227
376196 1 17322926299005299605
4015057 19 18261117425728558554
404807 14 18341333301544695748
469060 322 18341898459058897746
497634 4 17703794665581457370
531348 171 17906740202881507742
59444896 2 17485111883183974963
7288768 16 17249225600624468060
9981440 41 17254267346352290169

>  <PUBCHEM_SHAPE_MULTIPOLES>  (1) 
658.31
10.26
7.18
2.69
10.21
19.41
3.8
-14.05
-5.29
4.32
-3.25
-2.55
-1.39
-0.64

>  <PUBCHEM_SHAPE_SELFOVERLAP>  (1) 
1436.355

>  <PUBCHEM_SHAPE_VOLUME>  (1) 
359.9

>  <PUBCHEM_COORDINATE_TYPE>  (1) 
2
5
10

$$$$
