36501
     RDKit          3D

 34 37  0  0  1  0  0  0  0  0999 V2000
    3.6670    0.3497   -1.6497 Cl  0  0  0  0  0  0  0  0  0  0  0  0
   -0.6053   -0.7734    2.0981 O   0  0  0  0  0  0  0  0  0  0  0  0
    0.1018   -1.2341   -0.1042 N   0  0  0  0  0  0  0  0  0  0  0  0
    1.3329   -1.7707    0.1731 N   0  0  0  0  0  0  0  0  0  0  0  0
    0.0246    4.2765   -0.1112 N   0  0  0  0  0  0  0  0  0  0  0  0
   -2.0368   -0.2404    0.1477 C   0  0  0  0  0  0  0  0  0  0  0  0
   -2.2132    1.2491    0.4282 C   0  0  0  0  0  0  0  0  0  0  0  0
   -1.6824   -0.5129   -1.3067 C   0  0  0  0  0  0  0  0  0  0  0  0
   -0.7710   -0.7738    0.8867 C   0  0  0  0  0  0  0  0  0  0  0  0
   -0.4139   -1.0942   -1.3891 C   0  0  0  0  0  0  0  0  0  0  0  0
   -3.2390   -1.0128    0.5893 C   0  0  0  0  0  0  0  0  0  0  0  0
   -0.9751    2.0422    0.0159 C   0  0  0  0  0  0  0  0  0  0  0  0
   -1.1728    3.5359    0.2681 C   0  0  0  0  0  0  0  0  0  0  0  0
   -2.4189   -0.2619   -2.4532 C   0  0  0  0  0  0  0  0  0  0  0  0
    0.1553   -1.4435   -2.6010 C   0  0  0  0  0  0  0  0  0  0  0  0
   -4.3713   -0.3392    1.0479 C   0  0  0  0  0  0  0  0  0  0  0  0
   -3.2281   -2.4070    0.5428 C   0  0  0  0  0  0  0  0  0  0  0  0
   -1.8601   -0.6085   -3.6862 C   0  0  0  0  0  0  0  0  0  0  0  0
    2.1899   -0.7739    0.8183 C   0  0  0  0  0  0  0  0  0  0  0  0
   -0.5845   -1.1943   -3.7590 C   0  0  0  0  0  0  0  0  0  0  0  0
    1.1936   -2.9533    1.0255 C   0  0  0  0  0  0  0  0  0  0  0  0
    1.0398    4.1883    0.9399 C   0  0  0  0  0  0  0  0  0  0  0  0
   -0.3009    5.6771   -0.3863 C   0  0  0  0  0  0  0  0  0  0  0  0
   -5.4922   -1.0598    1.4599 C   0  0  0  0  0  0  0  0  0  0  0  0
   -4.3492   -3.1274    0.9547 C   0  0  0  0  0  0  0  0  0  0  0  0
   -5.4812   -2.4539    1.4133 C   0  0  0  0  0  0  0  0  0  0  0  0
    3.6506   -1.1013    0.6573 C   0  0  0  0  0  0  0  0  0  0  0  0
    2.3177    4.9004    0.5302 C   0  0  0  0  0  0  0  0  0  0  0  0
   -0.8413    6.3688    0.8538 C   0  0  0  0  0  0  0  0  0  0  0  0
    4.3901   -0.6331   -0.4289 C   0  0  0  0  0  0  0  0  0  0  0  0
    4.2629   -1.8937    1.6282 C   0  0  0  0  0  0  0  0  0  0  0  0
    5.7421   -0.9572   -0.5438 C   0  0  0  0  0  0  0  0  0  0  0  0
    5.6147   -2.2179    1.5131 C   0  0  0  0  0  0  0  0  0  0  0  0
    6.3542   -1.7497    0.4272 C   0  0  0  0  0  0  0  0  0  0  0  0
  1 30  1  0
  2  9  2  0
  3  4  1  0
  3  9  1  0
  3 10  1  0
  4 19  1  0
  4 21  1  0
  5 13  1  0
  5 22  1  0
  5 23  1  0
  6  7  1  0
  6  8  1  0
  6  9  1  0
  6 11  1  0
  7 12  1  0
  8 10  2  0
  8 14  1  0
 10 15  1  0
 11 16  2  0
 11 17  1  0
 12 13  1  0
 14 18  2  0
 15 20  2  0
 16 24  1  0
 17 25  2  0
 18 20  1  0
 19 27  1  0
 22 28  1  0
 23 29  1  0
 24 26  2  0
 25 26  1  0
 27 30  2  0
 27 31  1  0
 30 32  1  0
 31 33  2  0
 32 34  2  0
 33 34  1  0
M  END
>  <PUBCHEM_COMPOUND_CID>  (1) 
36501

>  <PUBCHEM_CONFORMER_RMSD>  (1) 
1

>  <PUBCHEM_CONFORMER_DIVERSEORDER>  (1) 
1
142
76
36
166
152
90
127
200
96
151
80
164
143
124
240
46
150
214
106
31
183
208
222
206
167
52
224
18
236
119
237
94
110
153
134
126
19
168
130
149
179
133
20
221
158
229
159
107
95
63
108
223
118
226
209
114
54
103
109
104
160
117
242
202
79
39
207
244
135
155
213
186
199
239
230
180
169
217
97
32
176
115
131
195
171
218
184
92
188
232
136
8
45
132
15
78
182
14
82
173
201
113
125
22
93
243
58
140
163
216
156
89
238
198
227
74
75
26
77
60
102
194
215
111
48
165
44
85
71
91
231
30
27
24
241
66
7
11
246
177
191
101
190
192
122
40
12
137
204
225
23
139
57
105
170
161
25
147
157
72
6
2
197
219
181
43
13
154
210
220
141
56
120
175
33
112
38
228
172
245
211
148
233
35
185
121
69
68
144
196
178
189
29
51
59
247
212
146
34
235
203
87
193
65
84
73
41
37
3
99
116
129
70
234
145
98
50
62
174
187
123
28
47
67
10
55
64
100
128
42
81
61
88
4
49
205
138
21
53
83
162
86
16
17
9
5

>  <PUBCHEM_MMFF94_PARTIAL_CHARGES>  (1) 
43
1 -0.18
10 0.12
11 -0.14
13 0.27
14 -0.15
15 -0.15
16 -0.15
17 -0.15
18 -0.15
19 0.41
2 -0.57
20 -0.15
21 0.27
22 0.27
23 0.27
24 -0.15
25 -0.15
26 -0.15
27 -0.14
3 -0.17
30 0.18
31 -0.15
32 -0.15
33 -0.15
34 -0.15
4 -0.55
41 0.15
42 0.15
43 0.15
44 0.15
45 0.15
48 0.15
5 -0.81
56 0.15
57 0.15
58 0.15
6 0.35
65 0.15
66 0.15
67 0.15
68 0.15
8 -0.14
9 0.57

>  <PUBCHEM_EFFECTIVE_ROTOR_COUNT>  (1) 
10.4

>  <PUBCHEM_PHARMACOPHORE_FEATURES>  (1) 
6
1 2 acceptor
1 5 cation
5 3 6 8 9 10 rings
6 11 16 17 24 25 26 rings
6 27 30 31 32 33 34 rings
6 8 10 14 15 18 20 rings

>  <PUBCHEM_HEAVY_ATOM_COUNT>  (1) 
34

>  <PUBCHEM_ATOM_DEF_STEREO_COUNT>  (1) 
0

>  <PUBCHEM_ATOM_UDEF_STEREO_COUNT>  (1) 
1

>  <PUBCHEM_BOND_DEF_STEREO_COUNT>  (1) 
0

>  <PUBCHEM_BOND_UDEF_STEREO_COUNT>  (1) 
0

>  <PUBCHEM_ISOTOPIC_ATOM_COUNT>  (1) 
0

>  <PUBCHEM_COMPONENT_COUNT>  (1) 
1

>  <PUBCHEM_CACTVS_TAUTO_COUNT>  (1) 
1

>  <PUBCHEM_CONFORMER_ID>  (1) 
00008E9500000001

>  <PUBCHEM_MMFF94_ENERGY>  (1) 
102.4224

>  <PUBCHEM_FEATURE_SELFOVERLAP>  (1) 
30.532

>  <PUBCHEM_SHAPE_FINGERPRINT>  (1) 
11445158 3 18198338661809769127
11578080 2 17750219461516506781
11582403 64 16616133355312869219
11763715 3 18047506411070869855
12107183 9 17251169520208288234
12160290 23 17769350756853444384
12422481 6 17703800201562122151
12788726 201 18263667103289299068
133893 2 17767940371324156757
14856354 85 18410300189798747442
15219462 58 18121755276254478930
15876981 60 18260839154491632196
15927050 60 17547302558194401330
17980427 23 17988374706516105897
17980427 26 17835243728976552061
19315092 285 17749966543160356894
19319366 153 16898474725142560448
20600515 1 18270419195853138779
22223350 30 17535769712496915019
23419403 2 17970328516394987303
244849 19 17898268745003715359
3552219 110 17677918810267041866
469060 322 18060123350038963527
497634 4 17822011952497716398
5171179 24 18263350560131236045
550186 7 18054511300724323078
57527573 199 18050853217977692117
6700243 42 17985297130214372142

>  <PUBCHEM_SHAPE_MULTIPOLES>  (1) 
680.76
10.56
6.77
2.66
8.84
18.82
-3.45
-12.22
5.45
-0.13
2.72
-1.31
-1.75
0.01

>  <PUBCHEM_SHAPE_SELFOVERLAP>  (1) 
1453.846

>  <PUBCHEM_SHAPE_VOLUME>  (1) 
382

>  <PUBCHEM_COORDINATE_TYPE>  (1) 
2
5
10

$$$$
