36508
     RDKit          3D

 17 18  0  0  1  0  0  0  0  0999 V2000
   -1.3255   -0.7630    0.5642 O   0  0  0  0  0  0  0  0  0  0  0  0
   -0.3368    1.2818    0.8307 O   0  0  0  0  0  0  0  0  0  0  0  0
   -4.3652    0.5392   -0.4157 N   0  0  0  0  0  0  0  0  0  0  0  0
    0.8794   -0.6061    0.1701 N   0  0  0  0  0  0  0  0  0  0  0  0
   -2.5767   -0.2011    0.9347 C   0  0  0  0  0  0  0  0  0  0  0  0
   -3.6742   -1.2602    0.8674 C   0  0  0  0  0  0  0  0  0  0  0  0
   -2.9760    0.8644   -0.0847 C   0  0  0  0  0  0  0  0  0  0  0  0
   -4.4393   -0.9206   -0.4018 C   0  0  0  0  0  0  0  0  0  0  0  0
   -4.7833    1.1074   -1.6883 C   0  0  0  0  0  0  0  0  0  0  0  0
   -0.2506    0.0934    0.5469 C   0  0  0  0  0  0  0  0  0  0  0  0
    2.1974   -0.1168    0.0231 C   0  0  0  0  0  0  0  0  0  0  0  0
    3.2201   -0.9685   -0.3655 C   0  0  0  0  0  0  0  0  0  0  0  0
    2.4383    1.2253    0.2769 C   0  0  0  0  0  0  0  0  0  0  0  0
    4.5144   -0.4668   -0.5035 C   0  0  0  0  0  0  0  0  0  0  0  0
    2.9749   -2.4163   -0.6423 C   0  0  0  0  0  0  0  0  0  0  0  0
    3.7325    1.7270    0.1388 C   0  0  0  0  0  0  0  0  0  0  0  0
    4.7705    0.8809   -0.2513 C   0  0  0  0  0  0  0  0  0  0  0  0
  1  5  1  0
  1 10  1  0
  2 10  2  0
  3  7  1  0
  3  8  1  0
  3  9  1  0
  4 10  1  0
  4 11  1  0
  5  6  1  0
  5  7  1  0
  6  8  1  0
 11 12  2  0
 11 13  1  0
 12 14  1  0
 12 15  1  0
 13 16  2  0
 14 17  2  0
 16 17  1  0
M  END
>  <PUBCHEM_COMPOUND_CID>  (1) 
36508

>  <PUBCHEM_CONFORMER_RMSD>  (1) 
0.6

>  <PUBCHEM_CONFORMER_DIVERSEORDER>  (1) 
2
91
40
47
8
68
36
12
80
93
56
94
67
49
60
7
45
3
74
38
81
42
79
15
50
14
76
13
48
5
75
43
72
78
83
51
55
84
63
46
90
21
41
33
19
59
70
85
4
77
52
31
44
61
23
1
71
82
37
28
39
58
32
11
27
53
26
89
9
24
92
35
30
22
16
10
86
6
18
29
20
88
64
69
65
25
62
17
57
34
54
73
66
87

>  <PUBCHEM_MMFF94_PARTIAL_CHARGES>  (1) 
21
1 -0.43
10 0.78
11 0.12
12 -0.14
13 -0.15
14 -0.15
15 0.14
16 -0.15
17 -0.15
2 -0.57
28 0.37
29 0.15
3 -0.81
30 0.15
34 0.15
35 0.15
4 -0.55
5 0.28
7 0.27
8 0.27
9 0.27

>  <PUBCHEM_EFFECTIVE_ROTOR_COUNT>  (1) 
5

>  <PUBCHEM_PHARMACOPHORE_FEATURES>  (1) 
5
1 2 acceptor
1 3 cation
1 4 donor
5 3 5 6 7 8 rings
6 11 12 13 14 16 17 rings

>  <PUBCHEM_HEAVY_ATOM_COUNT>  (1) 
17

>  <PUBCHEM_ATOM_DEF_STEREO_COUNT>  (1) 
0

>  <PUBCHEM_ATOM_UDEF_STEREO_COUNT>  (1) 
1

>  <PUBCHEM_BOND_DEF_STEREO_COUNT>  (1) 
0

>  <PUBCHEM_BOND_UDEF_STEREO_COUNT>  (1) 
0

>  <PUBCHEM_ISOTOPIC_ATOM_COUNT>  (1) 
0

>  <PUBCHEM_COMPONENT_COUNT>  (1) 
1

>  <PUBCHEM_CACTVS_TAUTO_COUNT>  (1) 
2

>  <PUBCHEM_CONFORMER_ID>  (1) 
00008E9C00000002

>  <PUBCHEM_MMFF94_ENERGY>  (1) 
45.5725

>  <PUBCHEM_FEATURE_SELFOVERLAP>  (1) 
25.371

>  <PUBCHEM_SHAPE_FINGERPRINT>  (1) 
10014705 185 17894629253909647661
10498660 4 17822002086889038517
10680689 15 17822017531759856747
11046707 91 15267057056402230677
11471102 20 18342179977454383208
11615757 297 17704079503227014600
12236239 1 16917354735607300841
12916748 109 17095527296886294337
13167823 11 17989490722912071775
13760787 5 17846785108848318321
14573314 32 18260829289099225421
14576447 43 17845928627797455951
15375358 24 18260552251019066202
15961568 22 17241612895636006292
17834072 33 18272931660693736854
18186145 218 18114187410470540459
18222031 100 15195277629910389985
19489759 90 17530679939721224769
200 152 17846781797233445289
20279233 1 18261119586091866234
20281475 54 17917997148290311131
20645477 56 18040154011808205113
20645477 70 18343306937775484686
21065201 7 17603304864373637307
21709351 56 18336546118275105548
221357 26 18412536601245407277
22289505 5 18335416842608740988
22646028 1 17418095412050817851
23402539 116 17676201394610726500
23402655 69 18341896285836749940
23557571 272 17967536791752375445
23559900 14 18409448068576500962
23596394 208 18409166576172163582
2871803 45 18412832361219475550
29717793 49 17418381259520643844
3060560 45 18272377481976072910
3268164 11 17458335373549575519
32948 21 17895192151959341118
33824 294 18413393142341298818
351380 3 16487253296603903503
3545911 37 18334861631869511841
4028521 119 18041274392381619525
4072396 5 18337941338970949322
5104073 3 18409733949725369507
5281201 14 18261118473431482045
5283173 99 18261104124278588165
542803 24 15213020453189641668
58051976 378 18201723942374284094
59682541 52 18058145269081610277
9709674 26 18411149029954947842

>  <PUBCHEM_SHAPE_MULTIPOLES>  (1) 
328.15
11.57
1.78
1.02
3.67
0.43
-0.19
-0.94
-3.28
-1.18
-0.21
1.06
-0.09
1.31

>  <PUBCHEM_SHAPE_SELFOVERLAP>  (1) 
684.984

>  <PUBCHEM_SHAPE_VOLUME>  (1) 
188.6

>  <PUBCHEM_COORDINATE_TYPE>  (1) 
2
5
10

$$$$
