36505
     RDKit          3D

 20 22  0  0  0  0  0  0  0  0999 V2000
    1.3216   -1.0228    0.1685 O   0  0  0  0  0  0  0  0  0  0  0  0
   -0.3789    2.6332   -0.2943 O   0  0  0  0  0  0  0  0  0  0  0  0
    3.4368   -0.0821    0.0804 N   0  0  0  0  0  0  0  0  0  0  0  0
   -0.7487    0.2791   -0.0111 C   0  0  0  0  0  0  0  0  0  0  0  0
    2.0871    0.1218    0.0400 C   0  0  0  0  0  0  0  0  0  0  0  0
   -2.1820    0.2817   -0.0270 C   0  0  0  0  0  0  0  0  0  0  0  0
   -0.0473   -0.9245    0.1415 C   0  0  0  0  0  0  0  0  0  0  0  0
    3.9978   -1.4161    0.2476 C   0  0  0  0  0  0  0  0  0  0  0  0
    4.3752    0.9701   -0.2863 C   0  0  0  0  0  0  0  0  0  0  0  0
   -2.8495   -0.9670    0.1151 C   0  0  0  0  0  0  0  0  0  0  0  0
    0.0789    1.5087   -0.1507 C   0  0  0  0  0  0  0  0  0  0  0  0
    1.5442    1.3366   -0.1126 C   0  0  0  0  0  0  0  0  0  0  0  0
   -0.7271   -2.1308    0.2791 C   0  0  0  0  0  0  0  0  0  0  0  0
   -2.1154   -2.1497    0.2654 C   0  0  0  0  0  0  0  0  0  0  0  0
   -3.0151    1.4230   -0.1723 C   0  0  0  0  0  0  0  0  0  0  0  0
    4.1948   -2.0730   -1.1052 C   0  0  0  0  0  0  0  0  0  0  0  0
    4.7216    1.8079    0.9294 C   0  0  0  0  0  0  0  0  0  0  0  0
   -4.2529   -1.0379    0.1077 C   0  0  0  0  0  0  0  0  0  0  0  0
   -4.4110    1.3363   -0.1774 C   0  0  0  0  0  0  0  0  0  0  0  0
   -5.0303    0.1056   -0.0377 C   0  0  0  0  0  0  0  0  0  0  0  0
  1  5  1  0
  1  7  1  0
  2 11  2  0
  3  5  1  0
  3  8  1  0
  3  9  1  0
  4  6  1  0
  4  7  2  0
  4 11  1  0
  5 12  2  0
  6 10  2  0
  6 15  1  0
  7 13  1  0
  8 16  1  0
  9 17  1  0
 10 14  1  0
 10 18  1  0
 11 12  1  0
 13 14  2  0
 15 19  2  0
 18 20  2  0
 19 20  1  0
M  END
>  <PUBCHEM_COMPOUND_CID>  (1) 
36505

>  <PUBCHEM_CONFORMER_RMSD>  (1) 
0.6

>  <PUBCHEM_CONFORMER_DIVERSEORDER>  (1) 
1
5
4
6
3
2

>  <PUBCHEM_MMFF94_PARTIAL_CHARGES>  (1) 
23
1 -0.16
11 0.47
12 -0.14
13 -0.15
14 -0.15
15 -0.15
18 -0.15
19 -0.15
2 -0.57
20 -0.15
25 0.15
26 0.15
27 0.15
28 0.15
3 -0.84
35 0.15
36 0.15
37 0.15
4 0.09
5 0.18
7 0.08
8 0.37
9 0.37

>  <PUBCHEM_EFFECTIVE_ROTOR_COUNT>  (1) 
3

>  <PUBCHEM_PHARMACOPHORE_FEATURES>  (1) 
6
1 1 acceptor
1 2 acceptor
1 3 cation
6 1 4 5 7 11 12 rings
6 4 6 7 10 13 14 rings
6 6 10 15 18 19 20 rings

>  <PUBCHEM_HEAVY_ATOM_COUNT>  (1) 
20

>  <PUBCHEM_ATOM_DEF_STEREO_COUNT>  (1) 
0

>  <PUBCHEM_ATOM_UDEF_STEREO_COUNT>  (1) 
0

>  <PUBCHEM_BOND_DEF_STEREO_COUNT>  (1) 
0

>  <PUBCHEM_BOND_UDEF_STEREO_COUNT>  (1) 
0

>  <PUBCHEM_ISOTOPIC_ATOM_COUNT>  (1) 
0

>  <PUBCHEM_COMPONENT_COUNT>  (1) 
1

>  <PUBCHEM_CACTVS_TAUTO_COUNT>  (1) 
1

>  <PUBCHEM_CONFORMER_ID>  (1) 
00008E9900000001

>  <PUBCHEM_MMFF94_ENERGY>  (1) 
61.9647

>  <PUBCHEM_FEATURE_SELFOVERLAP>  (1) 
30.496

>  <PUBCHEM_SHAPE_FINGERPRINT>  (1) 
10411042 1 16607722040158846483
10967382 1 18408885126711808627
11132069 177 18335137604792786137
11458722 379 18335424513114330671
11578080 2 17057797705539895939
116883 192 18269282274759696478
12011746 2 18333727988685241575
12236239 1 17458340871044365064
12403259 415 18334574595110937933
12403814 3 17240475927386749429
13140716 1 18408601431274267402
13533116 47 17989208118432782738
13544592 145 18340774749870043710
13675066 3 18334298694626997171
13862211 1 18336541629913422731
14115302 16 18113911454379151166
14790565 3 18266465300105273401
14866123 147 17407691605785905538
15099037 51 18408322177228015791
15196674 1 18409729556142675187
15375358 24 18341331179862474014
15536298 74 18412263930550226394
15848702 151 17845660222432776311
16945 1 18192714677287557955
17804303 29 18409171012978628461
1813 80 17095522907002632276
18186145 218 18040994016721286398
19141452 34 18272370888726818423
19591789 44 18265050245408030115
200 152 18060697308499420191
20510252 161 18341894065164929225
20645477 56 18336263526190270048
20645477 70 18060143111542077758
21029758 11 18341609347857096961
21267235 1 18336837415473185363
21279426 13 18266740190727742917
21452121 103 18341885308422451240
21521239 73 18201420477534303199
21859007 373 17607220109828091020
221490 88 18118410763682443307
23402539 116 18342167865277460575
23557571 272 18339653325397952508
23559900 14 18413108360271230324
2748010 2 18409729590317816783
3004659 81 18261115141296658358
335352 9 18337390413913158910
34934 24 18338512053692562898
350125 39 18337107870338832736
3545911 37 18411703209911704496
4214541 1 18409730659732959953
495365 180 17704060816388883506
5104073 3 18409730651180040515
59755656 215 18263362482928684557
69090 78 18341891913549700991
9709674 26 18338520840868934150
9981440 41 17036416726848937177

>  <PUBCHEM_SHAPE_MULTIPOLES>  (1) 
394.87
10.11
2.49
0.74
2.14
0.11
0.02
-0.6
0.07
0.78
0.07
0.46
0.06
0.99

>  <PUBCHEM_SHAPE_SELFOVERLAP>  (1) 
861.688

>  <PUBCHEM_SHAPE_VOLUME>  (1) 
215.9

>  <PUBCHEM_COORDINATE_TYPE>  (1) 
2
5
10

$$$$
