36502
     RDKit          3D

  9  8  0  0  0  0  0  0  0  0999 V2000
    1.4686    0.2884    0.4552 O   0  0  0  0  0  0  0  0  0  0  0  0
    3.5686    0.7513   -0.4027 O   0  0  0  0  0  0  0  0  0  0  0  0
    0.1556   -1.7023    0.1178 C   0  0  0  0  0  0  0  0  0  0  0  0
   -1.0364   -0.9412   -0.3907 C   0  0  0  0  0  0  0  0  0  0  0  0
   -3.2173    0.2640   -0.1135 C   0  0  0  0  0  0  0  0  0  0  0  0
    1.4605   -0.9781   -0.1911 C   0  0  0  0  0  0  0  0  0  0  0  0
   -2.0236   -0.4880    0.3959 C   0  0  0  0  0  0  0  0  0  0  0  0
   -2.9615    1.7630   -0.1310 C   0  0  0  0  0  0  0  0  0  0  0  0
    2.5855    1.0430    0.2600 C   0  0  0  0  0  0  0  0  0  0  0  0
  1  6  1  0
  1  9  1  0
  2  9  2  0
  3  4  1  0
  3  6  1  0
  4  7  2  0
  5  7  1  0
  5  8  1  0
M  END
>  <PUBCHEM_COMPOUND_CID>  (1) 
36502

>  <PUBCHEM_CONFORMER_RMSD>  (1) 
0.6

>  <PUBCHEM_CONFORMER_DIVERSEORDER>  (1) 
1
34
24
42
15
23
40
44
7
27
10
14
18
11
33
30
9
12
25
20
36
31
2
46
38
3
35
28
6
32
5
37
17
41
4
8
26
21
19
45
22
16
39
13
43
29

>  <PUBCHEM_MMFF94_PARTIAL_CHARGES>  (1) 
11
1 -0.43
12 0.15
17 0.15
2 -0.57
21 0.06
3 0.14
4 -0.29
5 0.14
6 0.28
7 -0.29
9 0.66

>  <PUBCHEM_EFFECTIVE_ROTOR_COUNT>  (1) 
5

>  <PUBCHEM_PHARMACOPHORE_FEATURES>  (1) 
2
1 2 acceptor
1 8 hydrophobe

>  <PUBCHEM_HEAVY_ATOM_COUNT>  (1) 
9

>  <PUBCHEM_ATOM_DEF_STEREO_COUNT>  (1) 
0

>  <PUBCHEM_ATOM_UDEF_STEREO_COUNT>  (1) 
0

>  <PUBCHEM_BOND_DEF_STEREO_COUNT>  (1) 
0

>  <PUBCHEM_BOND_UDEF_STEREO_COUNT>  (1) 
1

>  <PUBCHEM_ISOTOPIC_ATOM_COUNT>  (1) 
0

>  <PUBCHEM_COMPONENT_COUNT>  (1) 
1

>  <PUBCHEM_CACTVS_TAUTO_COUNT>  (1) 
1

>  <PUBCHEM_CONFORMER_ID>  (1) 
00008E9600000001

>  <PUBCHEM_MMFF94_ENERGY>  (1) 
3.496

>  <PUBCHEM_FEATURE_SELFOVERLAP>  (1) 
10.148

>  <PUBCHEM_SHAPE_FINGERPRINT>  (1) 
10149128 111 18260833717068258085
10149128 76 18339641144580615393
13618510 140 18410854317873005165
14325111 11 18410855468760476323
14390081 3 18410855434801508663
15775835 57 18343303656478161321
170605 34 18408603643282599347
18342897 96 18412821395809324935
19973954 147 18196372520523809769
20211469 16 9079124370702663352
20653085 51 18339369685494051930
20828058 34 18343026605154235320
21028194 46 18341898540520552506
305870 269 18260543390216860298
449060 62 18341050710261700921
6430166 295 18409726257982351256

>  <PUBCHEM_SHAPE_MULTIPOLES>  (1) 
173.48
5.76
1.74
0.68
0.59
0.07
0
3.41
-0.34
-0.23
-0.03
0
-0.01
0.11

>  <PUBCHEM_SHAPE_SELFOVERLAP>  (1) 
314.662

>  <PUBCHEM_SHAPE_VOLUME>  (1) 
110.2

>  <PUBCHEM_COORDINATE_TYPE>  (1) 
2
5
10

$$$$
