36503
     RDKit          3D

 11 10  0  0  0  0  0  0  0  0999 V2000
   -0.8234   -0.4517   -0.2898 O   0  0  0  0  0  0  0  0  0  0  0  0
   -2.8708   -0.8299    0.7045 O   0  0  0  0  0  0  0  0  0  0  0  0
    1.0600   -1.9519   -0.3369 C   0  0  0  0  0  0  0  0  0  0  0  0
   -0.3733   -1.7327    0.1320 C   0  0  0  0  0  0  0  0  0  0  0  0
    1.9995   -0.9388    0.2543 C   0  0  0  0  0  0  0  0  0  0  0  0
    3.6746    0.9213    0.1151 C   0  0  0  0  0  0  0  0  0  0  0  0
    2.7308   -0.0836   -0.4756 C   0  0  0  0  0  0  0  0  0  0  0  0
   -2.4251    1.2606   -0.4536 C   0  0  0  0  0  0  0  0  0  0  0  0
   -2.1046   -0.1213    0.0662 C   0  0  0  0  0  0  0  0  0  0  0  0
    2.9741    2.2419    0.3943 C   0  0  0  0  0  0  0  0  0  0  0  0
   -3.8419    1.6861   -0.1105 C   0  0  0  0  0  0  0  0  0  0  0  0
  1  4  1  0
  1  9  1  0
  2  9  2  0
  3  4  1  0
  3  5  1  0
  5  7  2  0
  6  7  1  0
  6 10  1  0
  8  9  1  0
  8 11  1  0
M  END
>  <PUBCHEM_COMPOUND_CID>  (1) 
36503

>  <PUBCHEM_CONFORMER_RMSD>  (1) 
0.6

>  <PUBCHEM_CONFORMER_DIVERSEORDER>  (1) 
1
112
202
113
287
331
138
276
203
27
150
220
103
343
88
175
189
7
290
117
161
71
186
342
43
206
352
188
81
13
294
4
194
109
72
128
286
178
303
351
259
16
118
148
179
323
236
35
349
222
171
192
298
141
130
59
304
104
200
354
309
204
239
11
111
248
310
57
54
173
348
226
60
282
198
185
216
254
83
242
139
108
159
358
267
8
275
327
235
320
47
251
169
243
17
177
48
166
73
50
317
127
39
101
98
132
184
261
64
291
219
230
100
266
359
29
45
18
158
36
87
256
281
34
129
20
245
363
257
107
58
136
89
114
316
274
162
165
213
176
350
131
364
164
181
195
217
263
79
330
9
356
283
135
6
174
67
207
12
333
299
278
311
125
21
234
340
253
344
221
91
53
147
341
315
191
190
227
268
241
44
149
160
66
339
15
218
292
225
85
318
249
94
319
361
306
336
300
152
69
252
78
82
193
105
145
210
22
143
335
246
31
295
314
155
338
205
279
102
10
360
90
167
353
255
97
55
106
80
96
273
163
84
301
232
328
297
233
224
122
345
260
240
24
289
182
355
265
151
137
183
284
199
144
38
258
123
280
63
25
46
271
153
187
19
312
134
33
324
334
362
92
133
211
52
168
74
223
51
208
262
322
172
140
86
75
201
28
229
76
305
197
157
61
329
121
307
70
293
288
68
269
124
212
95
120
142
209
99
272
237
40
2
37
247
156
313
146
170
326
264
238
277
270
244
42
332
228
56
3
215
296
26
346
14
337
231
62
347
115
154
285
302
357
65
5
49
23
308
30
110
93
126
116
180
214
321
77
32
196
325
119
250
41

>  <PUBCHEM_MMFF94_PARTIAL_CHARGES>  (1) 
11
1 -0.43
16 0.15
19 0.15
2 -0.57
3 0.14
4 0.28
5 -0.29
6 0.14
7 -0.29
8 0.06
9 0.66

>  <PUBCHEM_EFFECTIVE_ROTOR_COUNT>  (1) 
6

>  <PUBCHEM_PHARMACOPHORE_FEATURES>  (1) 
3
1 10 hydrophobe
1 11 hydrophobe
1 2 acceptor

>  <PUBCHEM_HEAVY_ATOM_COUNT>  (1) 
11

>  <PUBCHEM_ATOM_DEF_STEREO_COUNT>  (1) 
0

>  <PUBCHEM_ATOM_UDEF_STEREO_COUNT>  (1) 
0

>  <PUBCHEM_BOND_DEF_STEREO_COUNT>  (1) 
0

>  <PUBCHEM_BOND_UDEF_STEREO_COUNT>  (1) 
1

>  <PUBCHEM_ISOTOPIC_ATOM_COUNT>  (1) 
0

>  <PUBCHEM_COMPONENT_COUNT>  (1) 
1

>  <PUBCHEM_CACTVS_TAUTO_COUNT>  (1) 
1

>  <PUBCHEM_CONFORMER_ID>  (1) 
00008E9700000001

>  <PUBCHEM_MMFF94_ENERGY>  (1) 
1.6421

>  <PUBCHEM_FEATURE_SELFOVERLAP>  (1) 
15.223

>  <PUBCHEM_SHAPE_FINGERPRINT>  (1) 
10149128 76 18411697699194259734
10608611 8 18336829697490372231
11137873 295 9655577409482213073
122479 349 18335703874929981154
13618510 140 18412543202103595928
13897977 150 18410289181781184757
14123255 52 18412541046145811008
14390081 3 18410012117582743903
15775835 57 18407761430413456156
177051 138 8790878588366188776
17834072 32 18337392763751594556
18186145 218 18059587892318467354
20281407 28 9007065673037644406
20281475 54 9151179778744863814
20304884 271 18340484573099414216
20449540 30 18201442488940825961
20621476 13 18337942420285629013
20767249 462 18334572447337094140
21028194 46 18409737282920962822
21524375 3 18409725188303749766
22096605 113 18340199700830017767
8050 44 18336820918530045389
94968 8 9727341451005872684

>  <PUBCHEM_SHAPE_MULTIPOLES>  (1) 
214.64
6.97
2.39
0.72
1.32
0.35
0
4.77
-0.21
-0.64
-0.1
0.02
-0.01
0.6

>  <PUBCHEM_SHAPE_SELFOVERLAP>  (1) 
393.966

>  <PUBCHEM_SHAPE_VOLUME>  (1) 
136.1

>  <PUBCHEM_COORDINATE_TYPE>  (1) 
2
5
10

$$$$
