36514
     RDKit          3D

 32 35  0  0  1  0  0  0  0  0999 V2000
    4.1698    1.1000   -1.6041 Cl  0  0  0  0  0  0  0  0  0  0  0  0
   -0.3370   -0.9726    1.8502 O   0  0  0  0  0  0  0  0  0  0  0  0
    0.1870   -0.6031   -0.4195 N   0  0  0  0  0  0  0  0  0  0  0  0
    1.4849   -1.0452   -0.4156 N   0  0  0  0  0  0  0  0  0  0  0  0
   -0.4245    4.5584    1.4171 N   0  0  0  0  0  0  0  0  0  0  0  0
   -2.0013   -0.0182    0.2830 C   0  0  0  0  0  0  0  0  0  0  0  0
   -2.2928    1.2655    1.0540 C   0  0  0  0  0  0  0  0  0  0  0  0
   -1.7698    0.2417   -1.1982 C   0  0  0  0  0  0  0  0  0  0  0  0
   -0.6224   -0.6009    0.7208 C   0  0  0  0  0  0  0  0  0  0  0  0
   -0.4659   -0.1193   -1.5492 C   0  0  0  0  0  0  0  0  0  0  0  0
   -3.0732   -1.0352    0.5154 C   0  0  0  0  0  0  0  0  0  0  0  0
   -1.1848    2.2974    0.8540 C   0  0  0  0  0  0  0  0  0  0  0  0
   -2.6383    0.7575   -2.1468 C   0  0  0  0  0  0  0  0  0  0  0  0
   -1.5006    3.5920    1.6012 C   0  0  0  0  0  0  0  0  0  0  0  0
    0.0100    0.0167   -2.8414 C   0  0  0  0  0  0  0  0  0  0  0  0
   -4.2105   -0.6902    1.2416 C   0  0  0  0  0  0  0  0  0  0  0  0
   -2.9290   -2.3232    0.0051 C   0  0  0  0  0  0  0  0  0  0  0  0
   -2.1751    0.9015   -3.4572 C   0  0  0  0  0  0  0  0  0  0  0  0
    2.3041   -0.2137    0.4688 C   0  0  0  0  0  0  0  0  0  0  0  0
   -0.8627    0.5340   -3.8011 C   0  0  0  0  0  0  0  0  0  0  0  0
    1.5449   -2.4477    0.0015 C   0  0  0  0  0  0  0  0  0  0  0  0
   -5.2098   -1.6390    1.4584 C   0  0  0  0  0  0  0  0  0  0  0  0
   -3.9283   -3.2717    0.2220 C   0  0  0  0  0  0  0  0  0  0  0  0
    3.7494   -0.6353    0.4552 C   0  0  0  0  0  0  0  0  0  0  0  0
   -5.0687   -2.9298    0.9486 C   0  0  0  0  0  0  0  0  0  0  0  0
    0.8346    4.0361    1.9508 C   0  0  0  0  0  0  0  0  0  0  0  0
   -0.2734    4.8981    0.0011 C   0  0  0  0  0  0  0  0  0  0  0  0
    4.6513   -0.0886   -0.4489 C   0  0  0  0  0  0  0  0  0  0  0  0
    4.1579   -1.5912    1.3775 C   0  0  0  0  0  0  0  0  0  0  0  0
    5.9829   -0.5041   -0.4308 C   0  0  0  0  0  0  0  0  0  0  0  0
    5.4894   -2.0067    1.3954 C   0  0  0  0  0  0  0  0  0  0  0  0
    6.4018   -1.4632    0.4913 C   0  0  0  0  0  0  0  0  0  0  0  0
  1 28  1  0
  2  9  2  0
  3  4  1  0
  3  9  1  0
  3 10  1  0
  4 19  1  0
  4 21  1  0
  5 14  1  0
  5 26  1  0
  5 27  1  0
  6  7  1  0
  6  8  1  0
  6  9  1  0
  6 11  1  0
  7 12  1  0
  8 10  2  0
  8 13  1  0
 10 15  1  0
 11 16  2  0
 11 17  1  0
 12 14  1  0
 13 18  2  0
 15 20  2  0
 16 22  1  0
 17 23  2  0
 18 20  1  0
 19 24  1  0
 22 25  2  0
 23 25  1  0
 24 28  2  0
 24 29  1  0
 28 30  1  0
 29 31  2  0
 30 32  2  0
 31 32  1  0
M  END
>  <PUBCHEM_COMPOUND_CID>  (1) 
36514

>  <PUBCHEM_CONFORMER_RMSD>  (1) 
1

>  <PUBCHEM_CONFORMER_DIVERSEORDER>  (1) 
3
41
23
74
6
33
65
77
68
75
13
22
62
64
7
51
29
26
18
58
73
31
45
43
10
63
17
27
34
76
40
25
21
72
71
9
19
42
48
49
14
66
39
52
2
60
44
70
15
47
12
1
28
4
11
16
5
30
46
61
56
67
53
69
59
24
50
57
20
54
35
32
37
55
8
36
38

>  <PUBCHEM_MMFF94_PARTIAL_CHARGES>  (1) 
43
1 -0.18
10 0.12
11 -0.14
13 -0.15
14 0.27
15 -0.15
16 -0.15
17 -0.15
18 -0.15
19 0.41
2 -0.57
20 -0.15
21 0.27
22 -0.15
23 -0.15
24 -0.14
25 -0.15
26 0.27
27 0.27
28 0.18
29 -0.15
3 -0.17
30 -0.15
31 -0.15
32 -0.15
37 0.15
4 -0.55
40 0.15
41 0.15
42 0.15
45 0.15
46 0.15
5 -0.81
50 0.15
51 0.15
52 0.15
59 0.15
6 0.35
60 0.15
61 0.15
62 0.15
8 -0.14
9 0.57

>  <PUBCHEM_EFFECTIVE_ROTOR_COUNT>  (1) 
8.4

>  <PUBCHEM_PHARMACOPHORE_FEATURES>  (1) 
6
1 2 acceptor
1 5 cation
5 3 6 8 9 10 rings
6 11 16 17 22 23 25 rings
6 24 28 29 30 31 32 rings
6 8 10 13 15 18 20 rings

>  <PUBCHEM_HEAVY_ATOM_COUNT>  (1) 
32

>  <PUBCHEM_ATOM_DEF_STEREO_COUNT>  (1) 
0

>  <PUBCHEM_ATOM_UDEF_STEREO_COUNT>  (1) 
1

>  <PUBCHEM_BOND_DEF_STEREO_COUNT>  (1) 
0

>  <PUBCHEM_BOND_UDEF_STEREO_COUNT>  (1) 
0

>  <PUBCHEM_ISOTOPIC_ATOM_COUNT>  (1) 
0

>  <PUBCHEM_COMPONENT_COUNT>  (1) 
1

>  <PUBCHEM_CACTVS_TAUTO_COUNT>  (1) 
1

>  <PUBCHEM_CONFORMER_ID>  (1) 
00008EA200000003

>  <PUBCHEM_MMFF94_ENERGY>  (1) 
109.983

>  <PUBCHEM_FEATURE_SELFOVERLAP>  (1) 
30.532

>  <PUBCHEM_SHAPE_FINGERPRINT>  (1) 
11007060 377 16950573160581171026
11101153 10 16877952667681062918
11445158 3 18127687355812078863
11497681 19 18115312301609532590
11578080 2 18116141359420609613
11582403 64 16764491571602860473
11763715 3 18192742065919438672
12058002 1 17112086822137295603
12082328 90 18270687464312414038
12608794 3 16964057312916550410
12788726 201 18338533970688992424
133893 2 17484211395792689325
13583140 156 17774432781512795410
13782708 43 17967812726696781738
14068700 675 18187935013894084783
14856354 85 18343029886768251446
15219462 58 18125980703771678746
15361156 5 12175624010397912514
15513586 35 18130497609434781136
15876981 60 18410023121278777053
17980427 26 17623289790148299573
19315092 285 18114755944097854540
20600515 1 18058190379107269609
21304303 282 17689969277108155856
22121540 332 15910826478536912449
23419403 2 18119790642428064869
23559900 14 17389106947885413363
244849 19 18047726447125785733
3552219 110 18042709323564126392
376196 1 14641594102731713607
469060 322 17632563968490236863
484985 159 17898844656783378400
497634 4 18187368692808054710
550186 7 17914624855938799084

>  <PUBCHEM_SHAPE_MULTIPOLES>  (1) 
639.6
10.98
4.64
2.81
13.91
6.6
-3.2
-11.2
3.48
-2.68
3.42
-1.54
1.61
0.05

>  <PUBCHEM_SHAPE_SELFOVERLAP>  (1) 
1378.32

>  <PUBCHEM_SHAPE_VOLUME>  (1) 
356.5

>  <PUBCHEM_COORDINATE_TYPE>  (1) 
2
5
10

$$$$
