36529
     RDKit          3D

 21 22  0  0  0  0  0  0  0  0999 V2000
    2.1956   -2.5400    0.5675 Cl  0  0  0  0  0  0  0  0  0  0  0  0
   -0.2133    1.1963    0.3556 O   0  0  0  0  0  0  0  0  0  0  0  0
    0.9378    0.6314   -1.5380 O   0  0  0  0  0  0  0  0  0  0  0  0
   -4.0821   -0.3712    0.0454 N   0  0  0  0  0  0  0  0  0  0  0  0
    1.8979    0.4711    0.5911 N   0  0  0  0  0  0  0  0  0  0  0  0
   -1.4733    0.9144   -0.2401 C   0  0  0  0  0  0  0  0  0  0  0  0
   -2.5780    1.5007    0.6332 C   0  0  0  0  0  0  0  0  0  0  0  0
   -1.6575   -0.5939   -0.3826 C   0  0  0  0  0  0  0  0  0  0  0  0
   -3.9615    1.0915    0.1292 C   0  0  0  0  0  0  0  0  0  0  0  0
   -3.0690   -0.9387   -0.8558 C   0  0  0  0  0  0  0  0  0  0  0  0
   -5.4256   -0.7495   -0.3921 C   0  0  0  0  0  0  0  0  0  0  0  0
   -6.4668   -0.2623    0.6125 C   0  0  0  0  0  0  0  0  0  0  0  0
   -7.8724   -0.6622    0.1913 C   0  0  0  0  0  0  0  0  0  0  0  0
    0.8965    0.7478   -0.3193 C   0  0  0  0  0  0  0  0  0  0  0  0
    3.2012   -0.0106    0.3317 C   0  0  0  0  0  0  0  0  0  0  0  0
    4.2236    0.9027    0.1122 C   0  0  0  0  0  0  0  0  0  0  0  0
    3.4447   -1.3767    0.2987 C   0  0  0  0  0  0  0  0  0  0  0  0
    5.5144    0.4406   -0.1450 C   0  0  0  0  0  0  0  0  0  0  0  0
    3.9819    2.3773    0.1435 C   0  0  0  0  0  0  0  0  0  0  0  0
    4.7355   -1.8387    0.0414 C   0  0  0  0  0  0  0  0  0  0  0  0
    5.7704   -0.9300   -0.1804 C   0  0  0  0  0  0  0  0  0  0  0  0
  1 17  1  0
  2  6  1  0
  2 14  1  0
  3 14  2  0
  4  9  1  0
  4 10  1  0
  4 11  1  0
  5 14  1  0
  5 15  1  0
  6  7  1  0
  6  8  1  0
  7  9  1  0
  8 10  1  0
 11 12  1  0
 12 13  1  0
 15 16  2  0
 15 17  1  0
 16 18  1  0
 16 19  1  0
 17 20  2  0
 18 21  2  0
 20 21  1  0
M  END
>  <PUBCHEM_COMPOUND_CID>  (1) 
36529

>  <PUBCHEM_CONFORMER_RMSD>  (1) 
0.8

>  <PUBCHEM_CONFORMER_DIVERSEORDER>  (1) 
1
117
70
36
4
32
33
115
87
83
24
66
23
58
114
95
28
55
101
108
22
29
67
112
16
86
10
13
102
42
93
107
80
49
18
103
116
20
43
98
50
121
61
11
118
53
21
74
79
119
39
34
122
57
78
82
92
99
54
9
12
63
106
59
90
85
113
97
75
27
100
69
72
31
41
2
124
3
84
47
110
26
30
94
38
45
104
91
76
65
125
68
14
40
81
25
15
73
48
17
62
56
109
19
105
37
96
46
6
60
77
120
35
44
89
123
5
52
64
8
7
71
88
51
111

>  <PUBCHEM_MMFF94_PARTIAL_CHARGES>  (1) 
21
1 -0.18
10 0.27
11 0.27
14 0.78
15 0.12
16 -0.14
17 0.18
18 -0.15
19 0.14
2 -0.43
20 -0.15
21 -0.15
3 -0.57
38 0.37
39 0.15
4 -0.81
43 0.15
44 0.15
5 -0.55
6 0.28
9 0.27

>  <PUBCHEM_EFFECTIVE_ROTOR_COUNT>  (1) 
7.2

>  <PUBCHEM_PHARMACOPHORE_FEATURES>  (1) 
6
1 13 hydrophobe
1 3 acceptor
1 4 cation
1 5 donor
6 15 16 17 18 20 21 rings
6 4 6 7 8 9 10 rings

>  <PUBCHEM_HEAVY_ATOM_COUNT>  (1) 
21

>  <PUBCHEM_ATOM_DEF_STEREO_COUNT>  (1) 
0

>  <PUBCHEM_ATOM_UDEF_STEREO_COUNT>  (1) 
0

>  <PUBCHEM_BOND_DEF_STEREO_COUNT>  (1) 
0

>  <PUBCHEM_BOND_UDEF_STEREO_COUNT>  (1) 
0

>  <PUBCHEM_ISOTOPIC_ATOM_COUNT>  (1) 
0

>  <PUBCHEM_COMPONENT_COUNT>  (1) 
1

>  <PUBCHEM_CACTVS_TAUTO_COUNT>  (1) 
2

>  <PUBCHEM_CONFORMER_ID>  (1) 
00008EB100000001

>  <PUBCHEM_MMFF94_ENERGY>  (1) 
60.308

>  <PUBCHEM_FEATURE_SELFOVERLAP>  (1) 
30.446

>  <PUBCHEM_SHAPE_FINGERPRINT>  (1) 
10299344 5 18272936029055226427
11524674 6 16056879157067940703
12107183 9 17621040858908219816
12166972 35 18408325501485847205
12236239 1 18410857655347242401
12516196 113 18343017796107837089
12596602 18 17989209239572111435
12788726 201 17489597740280230281
13167823 11 18341891870520640340
13533116 47 18411136947989774352
13551218 46 18272370837240029919
13668630 136 17676491657602416259
13685833 64 18260550022136657267
14251757 52 15267057095025301770
14251764 18 18131354133635353331
14341114 176 18272089404901580200
14617045 38 18409169908835014359
15196674 1 18339078198711359706
15537594 2 18343297076567554879
17492 89 18196652882819693314
17834072 33 18412824690001748500
17844677 252 18410860940575698365
1813 80 17386010533207610028
18222031 100 17095243614064590396
20645477 70 18410854326842592022
21065198 48 18342178825765078505
21150785 3 16877949351259064134
21267235 1 18341618092288932438
21623969 137 18334021601029118867
23402539 116 17703783730932156813
23522609 53 18057351511501640353
23559900 14 18263640831016703553
239999 70 18342177757014515030
2871803 45 18259981544555207154
3004659 81 18407758123388774184
3411729 13 16127230377462604088
34797466 226 17632302298066949236
351380 3 18343578538685470887
4073 2 18114466776434036986
4214541 1 18341048519280026624
4325135 7 18408325497422209164
4340502 62 18341323483739989872
46194498 28 17168144563348105620
465052 167 18202566155459347998
5104073 3 18270956847858694144
59755656 215 17968093110408348931

>  <PUBCHEM_SHAPE_MULTIPOLES>  (1) 
412.34
17.27
2.03
0.84
20.65
0.24
-0.12
4.09
1.23
-2.36
0.26
0.16
0
-0.41

>  <PUBCHEM_SHAPE_SELFOVERLAP>  (1) 
837.182

>  <PUBCHEM_SHAPE_VOLUME>  (1) 
240.6

>  <PUBCHEM_COORDINATE_TYPE>  (1) 
2
5
10

$$$$
