36528
     RDKit          3D

 21 22  0  0  0  0  0  0  0  0999 V2000
    2.0272   -2.4938    0.6755 Cl  0  0  0  0  0  0  0  0  0  0  0  0
   -0.2863    1.2938    0.3414 O   0  0  0  0  0  0  0  0  0  0  0  0
    0.8206    0.6203   -1.5430 O   0  0  0  0  0  0  0  0  0  0  0  0
   -4.1991   -0.1810    0.1520 N   0  0  0  0  0  0  0  0  0  0  0  0
    1.8086    0.5227    0.5770 N   0  0  0  0  0  0  0  0  0  0  0  0
   -1.5622    1.0212   -0.2240 C   0  0  0  0  0  0  0  0  0  0  0  0
   -4.0390    1.2801    0.1728 C   0  0  0  0  0  0  0  0  0  0  0  0
   -3.2150   -0.8123   -0.7390 C   0  0  0  0  0  0  0  0  0  0  0  0
   -2.6377    1.6727    0.6395 C   0  0  0  0  0  0  0  0  0  0  0  0
   -1.7879   -0.4861   -0.3007 C   0  0  0  0  0  0  0  0  0  0  0  0
   -5.5585   -0.5411   -0.2501 C   0  0  0  0  0  0  0  0  0  0  0  0
   -6.5736    0.0624    0.7166 C   0  0  0  0  0  0  0  0  0  0  0  0
   -5.6872   -2.0601   -0.3019 C   0  0  0  0  0  0  0  0  0  0  0  0
    0.8009    0.7882   -0.3298 C   0  0  0  0  0  0  0  0  0  0  0  0
    3.0947   -0.0041    0.3195 C   0  0  0  0  0  0  0  0  0  0  0  0
    4.1373    0.8716    0.0475 C   0  0  0  0  0  0  0  0  0  0  0  0
    3.3023   -1.3766    0.3405 C   0  0  0  0  0  0  0  0  0  0  0  0
    5.4115    0.3650   -0.2084 C   0  0  0  0  0  0  0  0  0  0  0  0
    3.9354    2.3523    0.0200 C   0  0  0  0  0  0  0  0  0  0  0  0
    4.5766   -1.8829    0.0845 C   0  0  0  0  0  0  0  0  0  0  0  0
    5.6312   -1.0122   -0.1898 C   0  0  0  0  0  0  0  0  0  0  0  0
  1 17  1  0
  2  6  1  0
  2 14  1  0
  3 14  2  0
  4  7  1  0
  4  8  1  0
  4 11  1  0
  5 14  1  0
  5 15  1  0
  6  9  1  0
  6 10  1  0
  7  9  1  0
  8 10  1  0
 11 12  1  0
 11 13  1  0
 15 16  2  0
 15 17  1  0
 16 18  1  0
 16 19  1  0
 17 20  2  0
 18 21  2  0
 20 21  1  0
M  END
>  <PUBCHEM_COMPOUND_CID>  (1) 
36528

>  <PUBCHEM_CONFORMER_RMSD>  (1) 
0.8

>  <PUBCHEM_CONFORMER_DIVERSEORDER>  (1) 
1
33
13
66
26
25
29
16
74
40
55
75
46
72
68
39
15
4
57
14
17
43
62
34
12
44
42
9
18
60
69
51
3
73
49
67
61
32
10
11
76
27
2
71
35
22
52
37
50
36
19
64
31
21
56
45
30
59
65
47
28
54
70
24
41
53
7
58
5
63
38
6
23
8
20
48

>  <PUBCHEM_MMFF94_PARTIAL_CHARGES>  (1) 
21
1 -0.18
11 0.27
14 0.78
15 0.12
16 -0.14
17 0.18
18 -0.15
19 0.14
2 -0.43
20 -0.15
21 -0.15
3 -0.57
38 0.37
39 0.15
4 -0.81
43 0.15
44 0.15
5 -0.55
6 0.28
7 0.27
8 0.27

>  <PUBCHEM_EFFECTIVE_ROTOR_COUNT>  (1) 
6.2

>  <PUBCHEM_PHARMACOPHORE_FEATURES>  (1) 
6
1 3 acceptor
1 4 cation
1 5 donor
3 11 12 13 hydrophobe
6 15 16 17 18 20 21 rings
6 4 6 7 8 9 10 rings

>  <PUBCHEM_HEAVY_ATOM_COUNT>  (1) 
21

>  <PUBCHEM_ATOM_DEF_STEREO_COUNT>  (1) 
0

>  <PUBCHEM_ATOM_UDEF_STEREO_COUNT>  (1) 
0

>  <PUBCHEM_BOND_DEF_STEREO_COUNT>  (1) 
0

>  <PUBCHEM_BOND_UDEF_STEREO_COUNT>  (1) 
0

>  <PUBCHEM_ISOTOPIC_ATOM_COUNT>  (1) 
0

>  <PUBCHEM_COMPONENT_COUNT>  (1) 
1

>  <PUBCHEM_CACTVS_TAUTO_COUNT>  (1) 
2

>  <PUBCHEM_CONFORMER_ID>  (1) 
00008EB000000001

>  <PUBCHEM_MMFF94_ENERGY>  (1) 
64.7357

>  <PUBCHEM_FEATURE_SELFOVERLAP>  (1) 
30.446

>  <PUBCHEM_SHAPE_FINGERPRINT>  (1) 
10366900 7 17821736000975126856
10595046 47 18411702105567396608
11524674 6 16272208609399733215
12107183 9 17692252932714985257
12236239 1 18411420622327539133
12516196 113 18343299279621702345
12596602 18 17846780745388626723
12616971 3 17203601610026112876
12633257 1 16486968531492281287
12788726 201 17489317369052150865
13167823 11 18413386518736577469
13288520 33 18412545405864657629
13533116 47 18410857680853302048
13551218 46 18343302531318361159
13685833 64 18114186350209814683
14341114 176 18272090495912892160
14617045 38 18408327674327614898
15196674 1 18410854330588894131
15537594 2 18342735217472510223
15880784 105 18272374191493073435
17492 89 18269554927626089814
17834072 33 18410855464433711072
17844677 252 18410860940617889869
17857418 61 18410011026972241579
1813 80 17385446492290362452
18222031 100 17312821580681347612
200 152 18413667997987286489
20028762 73 18340200800622259762
20645477 70 18410292476348024958
21065198 48 18341615892991643217
21150785 3 16732991941682055902
21267235 1 18412550890168597006
21673915 165 18409728465036761954
220451 1 18411426124359869965
22224240 67 18261949748105566648
22950370 63 18342175583370562593
23402539 116 18060696204724720757
23522609 53 17985575414120903401
23559900 14 18337665438529895089
239999 70 18342178860763074838
2871803 45 18186799154311517194
3004659 81 18335137583702909248
3411729 13 16342559834184354880
351380 3 18342452647347496367
4073 2 18041566935030116515
4214541 1 18340205193819311417
4325135 7 18408044018182166740
4340502 62 18341042013068860976
46194498 28 17095525127532223740
465052 167 18131635586562234486
5104073 3 18201433636659963976
7495541 125 17775563173538445105
7970288 3 17617092509002597466

>  <PUBCHEM_SHAPE_MULTIPOLES>  (1) 
412.34
15.69
2.24
0.84
10.19
0.47
-0.09
3.98
0.57
-1.15
0.24
0.17
0
-0.76

>  <PUBCHEM_SHAPE_SELFOVERLAP>  (1) 
841.327

>  <PUBCHEM_SHAPE_VOLUME>  (1) 
240.6

>  <PUBCHEM_COORDINATE_TYPE>  (1) 
2
5
10

$$$$
