36534
     RDKit          3D

 19 20  0  0  0  0  0  0  0  0999 V2000
   -1.0084    1.1165    0.3908 O   0  0  0  0  0  0  0  0  0  0  0  0
    0.1112    0.5354   -1.5167 O   0  0  0  0  0  0  0  0  0  0  0  0
   -4.8184   -0.6106    0.2433 N   0  0  0  0  0  0  0  0  0  0  0  0
    1.1360    0.4827    0.5876 N   0  0  0  0  0  0  0  0  0  0  0  0
   -2.2722    0.7660   -0.1586 C   0  0  0  0  0  0  0  0  0  0  0  0
   -2.3996   -0.7521   -0.2480 C   0  0  0  0  0  0  0  0  0  0  0  0
   -3.3747    1.3370    0.7275 C   0  0  0  0  0  0  0  0  0  0  0  0
   -3.8088   -1.1672   -0.6688 C   0  0  0  0  0  0  0  0  0  0  0  0
   -4.7541    0.8577    0.2773 C   0  0  0  0  0  0  0  0  0  0  0  0
   -6.1572   -1.0554   -0.1427 C   0  0  0  0  0  0  0  0  0  0  0  0
    0.0992    0.6900   -0.3015 C   0  0  0  0  0  0  0  0  0  0  0  0
    2.4498    0.0441    0.3056 C   0  0  0  0  0  0  0  0  0  0  0  0
    2.7328   -1.3146    0.3124 C   0  0  0  0  0  0  0  0  0  0  0  0
    3.4371    0.9789    0.0270 C   0  0  0  0  0  0  0  0  0  0  0  0
    4.0296   -1.7474    0.0353 C   0  0  0  0  0  0  0  0  0  0  0  0
    4.7339    0.5460   -0.2503 C   0  0  0  0  0  0  0  0  0  0  0  0
    1.6828   -2.3354    0.6109 C   0  0  0  0  0  0  0  0  0  0  0  0
    3.1509    2.4457    0.0150 C   0  0  0  0  0  0  0  0  0  0  0  0
    5.0300   -0.8172   -0.2462 C   0  0  0  0  0  0  0  0  0  0  0  0
  1  5  1  0
  1 11  1  0
  2 11  2  0
  3  8  1  0
  3  9  1  0
  3 10  1  0
  4 11  1  0
  4 12  1  0
  5  6  1  0
  5  7  1  0
  6  8  1  0
  7  9  1  0
 12 13  2  0
 12 14  1  0
 13 15  1  0
 13 17  1  0
 14 16  2  0
 14 18  1  0
 15 19  2  0
 16 19  1  0
M  END
>  <PUBCHEM_COMPOUND_CID>  (1) 
36534

>  <PUBCHEM_CONFORMER_RMSD>  (1) 
0.8

>  <PUBCHEM_CONFORMER_DIVERSEORDER>  (1) 
1
7
11
2
8
5
9
14
4
3
13
6
10
12
15

>  <PUBCHEM_MMFF94_PARTIAL_CHARGES>  (1) 
21
1 -0.43
10 0.27
11 0.78
12 0.12
13 -0.14
14 -0.14
15 -0.15
16 -0.15
17 0.14
18 0.14
19 -0.15
2 -0.57
3 -0.81
32 0.37
33 0.15
34 0.15
4 -0.55
41 0.15
5 0.28
8 0.27
9 0.27

>  <PUBCHEM_EFFECTIVE_ROTOR_COUNT>  (1) 
5.2

>  <PUBCHEM_PHARMACOPHORE_FEATURES>  (1) 
5
1 2 acceptor
1 3 cation
1 4 donor
6 12 13 14 15 16 19 rings
6 3 5 6 7 8 9 rings

>  <PUBCHEM_HEAVY_ATOM_COUNT>  (1) 
19

>  <PUBCHEM_ATOM_DEF_STEREO_COUNT>  (1) 
0

>  <PUBCHEM_ATOM_UDEF_STEREO_COUNT>  (1) 
0

>  <PUBCHEM_BOND_DEF_STEREO_COUNT>  (1) 
0

>  <PUBCHEM_BOND_UDEF_STEREO_COUNT>  (1) 
0

>  <PUBCHEM_ISOTOPIC_ATOM_COUNT>  (1) 
0

>  <PUBCHEM_COMPONENT_COUNT>  (1) 
1

>  <PUBCHEM_CACTVS_TAUTO_COUNT>  (1) 
2

>  <PUBCHEM_CONFORMER_ID>  (1) 
00008EB600000001

>  <PUBCHEM_MMFF94_ENERGY>  (1) 
62.7154

>  <PUBCHEM_FEATURE_SELFOVERLAP>  (1) 
25.371

>  <PUBCHEM_SHAPE_FINGERPRINT>  (1) 
10366900 7 17894638036880384832
10616163 171 18342457075369413167
12107183 9 17692818086223934817
12236239 1 18272091590934328417
12596602 18 17489588973940807595
128620 24 16588024593360937414
13167823 11 18413670201637669139
13533116 47 18412262874046293857
13760787 19 18343584031737444461
13836976 161 18333735741011630966
14341114 176 18272093794278847008
15196674 1 18411136909525284635
17834072 33 18412825802334935661
17844677 252 18411987953111114297
1813 80 17458065949649724052
19422 9 18272651242532123428
200 152 18342738511558990721
20028762 73 18341608183900627198
20281475 54 18271516585297610775
20645477 70 18411138009068560950
21065198 48 18342461421992010449
21267235 1 18413114956592079615
21673915 165 18409729581870690243
23557571 272 16660637423627882015
23559900 14 18411411826050193145
239999 70 18342179968738036654
2871803 45 18187361013010981362
3004659 81 18409446972932481554
33824 294 18333447643121607186
351380 3 18272647961446433623
4214541 1 18340487772913769089
42630746 31 18411134771253940016
4340502 62 18341887550247875056
465052 167 18059860579433466134
5104073 3 18341892974190112289
602551 16 15984526914586758246
7495541 125 17704068529654288105
77779 3 18412545400968388121
9709674 26 18409737235444467507

>  <PUBCHEM_SHAPE_MULTIPOLES>  (1) 
369.31
12.78
2.06
0.82
9.72
0.1
-0.11
2.49
-0.2
-1.41
0.22
0.12
-0.02
-0.63

>  <PUBCHEM_SHAPE_SELFOVERLAP>  (1) 
763.695

>  <PUBCHEM_SHAPE_VOLUME>  (1) 
211.8

>  <PUBCHEM_COORDINATE_TYPE>  (1) 
2
5
10

$$$$
