36532
     RDKit          3D

 21 22  0  0  0  0  0  0  0  0999 V2000
   -0.2938    1.2919    0.3338 O   0  0  0  0  0  0  0  0  0  0  0  0
    0.8134    0.6066   -1.5462 O   0  0  0  0  0  0  0  0  0  0  0  0
   -4.2050   -0.1884    0.1556 N   0  0  0  0  0  0  0  0  0  0  0  0
    1.8021    0.5247    0.5743 N   0  0  0  0  0  0  0  0  0  0  0  0
   -1.5694    1.0141   -0.2294 C   0  0  0  0  0  0  0  0  0  0  0  0
   -4.0465    1.2730    0.1663 C   0  0  0  0  0  0  0  0  0  0  0  0
   -3.2205   -0.8247   -0.7313 C   0  0  0  0  0  0  0  0  0  0  0  0
   -2.6454    1.6703    0.6299 C   0  0  0  0  0  0  0  0  0  0  0  0
   -1.7936   -0.4940   -0.2956 C   0  0  0  0  0  0  0  0  0  0  0  0
   -5.5641   -0.5527   -0.2437 C   0  0  0  0  0  0  0  0  0  0  0  0
   -6.5796    0.0564    0.7190 C   0  0  0  0  0  0  0  0  0  0  0  0
   -5.6912   -2.0721   -0.2850 C   0  0  0  0  0  0  0  0  0  0  0  0
    0.7939    0.7829   -0.3342 C   0  0  0  0  0  0  0  0  0  0  0  0
    3.0887   -0.0025    0.3201 C   0  0  0  0  0  0  0  0  0  0  0  0
    3.2831   -1.3762    0.3537 C   0  0  0  0  0  0  0  0  0  0  0  0
    4.1384    0.8617    0.0413 C   0  0  0  0  0  0  0  0  0  0  0  0
    4.5530   -1.8964    0.1039 C   0  0  0  0  0  0  0  0  0  0  0  0
    5.4081    0.3414   -0.2085 C   0  0  0  0  0  0  0  0  0  0  0  0
    2.1651   -2.3219    0.6526 C   0  0  0  0  0  0  0  0  0  0  0  0
    3.9478    2.3435    0.0007 C   0  0  0  0  0  0  0  0  0  0  0  0
    5.6155   -1.0377   -0.1772 C   0  0  0  0  0  0  0  0  0  0  0  0
  1  5  1  0
  1 13  1  0
  2 13  2  0
  3  6  1  0
  3  7  1  0
  3 10  1  0
  4 13  1  0
  4 14  1  0
  5  8  1  0
  5  9  1  0
  6  8  1  0
  7  9  1  0
 10 11  1  0
 10 12  1  0
 14 15  2  0
 14 16  1  0
 15 17  1  0
 15 19  1  0
 16 18  2  0
 16 20  1  0
 17 21  2  0
 18 21  1  0
M  END
>  <PUBCHEM_COMPOUND_CID>  (1) 
36532

>  <PUBCHEM_CONFORMER_RMSD>  (1) 
0.8

>  <PUBCHEM_CONFORMER_DIVERSEORDER>  (1) 
1
13
8
10
12
25
2
19
7
9
26
15
27
5
11
18
22
17
20
24
4
3
14
16
6
28
21
23

>  <PUBCHEM_MMFF94_PARTIAL_CHARGES>  (1) 
21
1 -0.43
10 0.27
13 0.78
14 0.12
15 -0.14
16 -0.14
17 -0.15
18 -0.15
19 0.14
2 -0.57
20 0.14
21 -0.15
3 -0.81
38 0.37
39 0.15
4 -0.55
40 0.15
47 0.15
5 0.28
6 0.27
7 0.27

>  <PUBCHEM_EFFECTIVE_ROTOR_COUNT>  (1) 
6.2

>  <PUBCHEM_PHARMACOPHORE_FEATURES>  (1) 
6
1 2 acceptor
1 3 cation
1 4 donor
3 10 11 12 hydrophobe
6 14 15 16 17 18 21 rings
6 3 5 6 7 8 9 rings

>  <PUBCHEM_HEAVY_ATOM_COUNT>  (1) 
21

>  <PUBCHEM_ATOM_DEF_STEREO_COUNT>  (1) 
0

>  <PUBCHEM_ATOM_UDEF_STEREO_COUNT>  (1) 
0

>  <PUBCHEM_BOND_DEF_STEREO_COUNT>  (1) 
0

>  <PUBCHEM_BOND_UDEF_STEREO_COUNT>  (1) 
0

>  <PUBCHEM_ISOTOPIC_ATOM_COUNT>  (1) 
0

>  <PUBCHEM_COMPONENT_COUNT>  (1) 
1

>  <PUBCHEM_CACTVS_TAUTO_COUNT>  (1) 
2

>  <PUBCHEM_CONFORMER_ID>  (1) 
00008EB400000001

>  <PUBCHEM_MMFF94_ENERGY>  (1) 
66.4121

>  <PUBCHEM_FEATURE_SELFOVERLAP>  (1) 
30.446

>  <PUBCHEM_SHAPE_FINGERPRINT>  (1) 
10366900 7 17821736005285924896
10595046 47 18411702105572651881
11524674 6 16272208609405020951
12107183 9 17692252932714978761
12236239 1 18411420618032565325
12516196 113 18343017804655534697
12596602 18 17846218894936244699
12616971 3 17275096254115881276
12633257 1 16487250006505941103
12788726 201 17489317373341856393
13167823 11 18413386518736577469
13288520 33 18412545405869919381
13533116 47 18410576205860767136
13551218 46 18343021056346938231
13685833 64 18113904875238385275
14341114 176 18343585144155229048
14617045 38 18408327674327621394
15196674 1 18410854330599437147
15880784 105 18343868831256226011
17492 89 18269273452633567878
17834072 33 18410855464433717568
17844677 252 18410579465662271749
17857418 61 18410011031288307891
1813 80 17313387803035787020
18222031 100 17240482507377003484
200 152 18413386523021125344
20028762 73 18339919321361137866
20645477 70 18410292480637717518
21065198 48 18341615892996904985
21150785 3 16732991941676794142
21267235 1 18412550890173884750
220451 1 18411144649393695813
22224240 67 18261386802441876864
22950370 63 18342175583381092617
23402539 116 18060413630257455341
23522609 53 17985575414131446401
23559900 14 18337665438524620337
239999 70 18342178865079102158
2871803 45 18114178610330704482
3004659 81 18334856104420668800
3411729 13 16342278359202382464
351380 3 18342452647342241095
4073 2 18113906004050075315
4214541 1 18340205193829847929
4325135 7 18407762543189625324
4340502 62 18341042013063592720
46194498 28 17167864196562751548
465052 167 18131635586546410222
5104073 3 18272645701998094624
7495541 125 17775281694245655160
7970288 3 17617092508997329242

>  <PUBCHEM_SHAPE_MULTIPOLES>  (1) 
410.47
15.76
2.18
0.83
10.13
0.34
-0.1
4.26
0.7
-1.06
0.2
0.16
-0.01
-0.76

>  <PUBCHEM_SHAPE_SELFOVERLAP>  (1) 
844.752

>  <PUBCHEM_SHAPE_VOLUME>  (1) 
236.9

>  <PUBCHEM_COORDINATE_TYPE>  (1) 
2
5
10

$$$$
