36539
     RDKit          3D

 19 20  0  0  1  0  0  0  0  0999 V2000
    6.6317   -1.3105    0.0083 Cl  0  0  0  0  0  0  0  0  0  0  0  0
   -0.9164    1.5733    0.1098 O   0  0  0  0  0  0  0  0  0  0  0  0
    0.1363    0.1705    1.5774 O   0  0  0  0  0  0  0  0  0  0  0  0
   -3.7069   -0.8774    0.0509 N   0  0  0  0  0  0  0  0  0  0  0  0
    1.2172    1.0260   -0.3147 N   0  0  0  0  0  0  0  0  0  0  0  0
   -2.2032    1.0531    0.4260 C   0  0  0  0  0  0  0  0  0  0  0  0
   -3.2601    2.0043   -0.1267 C   0  0  0  0  0  0  0  0  0  0  0  0
   -2.3552   -0.3488   -0.1713 C   0  0  0  0  0  0  0  0  0  0  0  0
   -4.6525    1.4097    0.0385 C   0  0  0  0  0  0  0  0  0  0  0  0
   -4.7249   -0.0019   -0.5466 C   0  0  0  0  0  0  0  0  0  0  0  0
   -3.8207   -2.2342   -0.4836 C   0  0  0  0  0  0  0  0  0  0  0  0
   -5.1743   -2.8415   -0.1564 C   0  0  0  0  0  0  0  0  0  0  0  0
    0.1612    0.8495    0.5582 C   0  0  0  0  0  0  0  0  0  0  0  0
    2.5133    0.4672   -0.2372 C   0  0  0  0  0  0  0  0  0  0  0  0
    3.4422    0.7676   -1.2204 C   0  0  0  0  0  0  0  0  0  0  0  0
    2.8293   -0.3707    0.8205 C   0  0  0  0  0  0  0  0  0  0  0  0
    4.7210    0.2157   -1.1442 C   0  0  0  0  0  0  0  0  0  0  0  0
    4.1081   -0.9226    0.8968 C   0  0  0  0  0  0  0  0  0  0  0  0
    5.0540   -0.6293   -0.0855 C   0  0  0  0  0  0  0  0  0  0  0  0
  1 19  1  0
  2  6  1  0
  2 13  1  0
  3 13  2  0
  4  8  1  0
  4 10  1  0
  4 11  1  0
  5 13  1  0
  5 14  1  0
  6  7  1  0
  6  8  1  0
  7  9  1  0
  9 10  1  0
 11 12  1  0
 14 15  2  0
 14 16  1  0
 15 17  1  0
 16 18  2  0
 17 19  2  0
 18 19  1  0
M  END
>  <PUBCHEM_COMPOUND_CID>  (1) 
36539

>  <PUBCHEM_CONFORMER_RMSD>  (1) 
0.8

>  <PUBCHEM_CONFORMER_DIVERSEORDER>  (1) 
1
49
24
9
27
31
43
16
14
54
58
56
55
29
60
47
2
22
52
7
23
25
10
33
19
44
11
61
45
57
37
12
62
20
46
18
39
21
15
59
51
48
6
8
17
34
53
30
28
36
63
4
13
64
26
42
41
3
40
5
32
65
35
38
50

>  <PUBCHEM_MMFF94_PARTIAL_CHARGES>  (1) 
21
1 -0.18
10 0.27
11 0.27
13 0.78
14 0.12
15 -0.15
16 -0.15
17 -0.15
18 -0.15
19 0.18
2 -0.43
3 -0.57
34 0.37
35 0.15
36 0.15
37 0.15
38 0.15
4 -0.81
5 -0.55
6 0.28
8 0.27

>  <PUBCHEM_EFFECTIVE_ROTOR_COUNT>  (1) 
6.2

>  <PUBCHEM_PHARMACOPHORE_FEATURES>  (1) 
5
1 3 acceptor
1 4 cation
1 5 donor
6 14 15 16 17 18 19 rings
6 4 6 7 8 9 10 rings

>  <PUBCHEM_HEAVY_ATOM_COUNT>  (1) 
19

>  <PUBCHEM_ATOM_DEF_STEREO_COUNT>  (1) 
0

>  <PUBCHEM_ATOM_UDEF_STEREO_COUNT>  (1) 
1

>  <PUBCHEM_BOND_DEF_STEREO_COUNT>  (1) 
0

>  <PUBCHEM_BOND_UDEF_STEREO_COUNT>  (1) 
0

>  <PUBCHEM_ISOTOPIC_ATOM_COUNT>  (1) 
0

>  <PUBCHEM_COMPONENT_COUNT>  (1) 
1

>  <PUBCHEM_CACTVS_TAUTO_COUNT>  (1) 
2

>  <PUBCHEM_CONFORMER_ID>  (1) 
00008EBB00000001

>  <PUBCHEM_MMFF94_ENERGY>  (1) 
37.6212

>  <PUBCHEM_FEATURE_SELFOVERLAP>  (1) 
25.372

>  <PUBCHEM_SHAPE_FINGERPRINT>  (1) 
10595046 47 18334298703628700388
10616163 171 18411981356157268799
11046707 91 18342739637193830465
11128504 68 17676490566095121412
11315181 36 18130788940891677176
11405975 8 18273497879365599857
11545043 162 17917708002438537530
11796584 16 18271244920031803718
11809386 21 18335135401960185043
12236239 1 18334014982605230580
12616971 3 18113629962386426164
12760667 363 18342454898569950327
12916748 109 8862935104467714592
12969540 114 14996282539141867832
13167823 11 18334295366164395268
13288520 33 18413389817266322445
13785724 45 9508978407871838556
14123255 352 7997698588354472247
14251751 18 18272086115141202394
14251764 30 17972608959705038955
14252887 29 15554452873184983460
14386348 63 17132115727642910204
14576447 43 18259701216392728394
15250474 111 18260536805984919314
15537594 2 18261396624451951315
17834072 33 18261115171129275404
17844677 252 18272654558073309768
17870717 6 18272095976496734661
18186145 218 15864074281992945816
18681886 176 18410008858593830594
18915474 69 18334295400418697124
193927 3 17632305587521072996
19489759 90 17703505494002259945
200 152 18114185211711308112
20374829 77 18341894104003796119
20432913 95 15554448487395620253
20645477 70 15502653742234142752
21054139 6 18260264157856799322
21267235 1 18408606981147265723
21709351 56 17749389243763189812
220451 1 18335991874236308016
23175994 123 16917067767874126625
23402539 116 17676773089181158316
23402655 69 17749388109686445788
23557571 272 17774158977395356160
23559900 14 18270669965618819377
25122255 55 18059023787219758790
26918003 58 17489585632572301784
270888 7 8502117153005769007
29717793 49 18261961748106768892
3004659 81 18259700108069554834
314173 85 16200156477964112712
338550 245 18410577267092775318
351380 3 18410855507621300127
4214541 1 18410573963893275821
44062 13 18412824690244458759
5104073 3 18060139872572215009
559249 180 18409727327307934167
573450 72 18408881811108066401
58051976 100 18410852162031310437
59755656 520 15647061447225634161
633830 44 16660648414396821209
67856867 119 18335702788789221148
7495541 125 17988640822536999440
7970288 3 18123746723983747335

>  <PUBCHEM_SHAPE_MULTIPOLES>  (1) 
371.18
14.87
2.17
1
8.17
1.12
-0.04
7.22
2.14
-3.92
0.16
0.78
-0.05
-0.9

>  <PUBCHEM_SHAPE_SELFOVERLAP>  (1) 
756.708

>  <PUBCHEM_SHAPE_VOLUME>  (1) 
215.6

>  <PUBCHEM_COORDINATE_TYPE>  (1) 
2
5
10

$$$$
