36531
     RDKit          3D

 19 20  0  0  0  0  0  0  0  0999 V2000
    1.5562   -2.5167    0.6288 Cl  0  0  0  0  0  0  0  0  0  0  0  0
   -1.0004    1.1194    0.3985 O   0  0  0  0  0  0  0  0  0  0  0  0
    0.1190    0.5527   -1.5135 O   0  0  0  0  0  0  0  0  0  0  0  0
   -4.8128   -0.6009    0.2353 N   0  0  0  0  0  0  0  0  0  0  0  0
    1.1430    0.4808    0.5905 N   0  0  0  0  0  0  0  0  0  0  0  0
   -2.2645    0.7754   -0.1543 C   0  0  0  0  0  0  0  0  0  0  0  0
   -3.3665    1.3405    0.7362 C   0  0  0  0  0  0  0  0  0  0  0  0
   -2.3942   -0.7417   -0.2564 C   0  0  0  0  0  0  0  0  0  0  0  0
   -4.7466    0.8669    0.2815 C   0  0  0  0  0  0  0  0  0  0  0  0
   -3.8038   -1.1513   -0.6811 C   0  0  0  0  0  0  0  0  0  0  0  0
   -6.1523   -1.0405   -0.1548 C   0  0  0  0  0  0  0  0  0  0  0  0
    0.1068    0.6971   -0.2971 C   0  0  0  0  0  0  0  0  0  0  0  0
    2.4562    0.0427    0.3053 C   0  0  0  0  0  0  0  0  0  0  0  0
    3.4362    0.9885    0.0356 C   0  0  0  0  0  0  0  0  0  0  0  0
    2.7517   -1.3137    0.2975 C   0  0  0  0  0  0  0  0  0  0  0  0
    4.7364    0.5698   -0.2474 C   0  0  0  0  0  0  0  0  0  0  0  0
    3.1394    2.4534    0.0389 C   0  0  0  0  0  0  0  0  0  0  0  0
    4.0519   -1.7322    0.0144 C   0  0  0  0  0  0  0  0  0  0  0  0
    5.0442   -0.7905   -0.2579 C   0  0  0  0  0  0  0  0  0  0  0  0
  1 15  1  0
  2  6  1  0
  2 12  1  0
  3 12  2  0
  4  9  1  0
  4 10  1  0
  4 11  1  0
  5 12  1  0
  5 13  1  0
  6  7  1  0
  6  8  1  0
  7  9  1  0
  8 10  1  0
 13 14  2  0
 13 15  1  0
 14 16  1  0
 14 17  1  0
 15 18  2  0
 16 19  2  0
 18 19  1  0
M  END
>  <PUBCHEM_COMPOUND_CID>  (1) 
36531

>  <PUBCHEM_CONFORMER_RMSD>  (1) 
0.8

>  <PUBCHEM_CONFORMER_DIVERSEORDER>  (1) 
1
18
23
24
33
16
10
6
26
32
13
19
25
12
8
29
5
17
11
22
9
2
3
15
30
31
21
14
4
7
20
27
28

>  <PUBCHEM_MMFF94_PARTIAL_CHARGES>  (1) 
21
1 -0.18
10 0.27
11 0.27
12 0.78
13 0.12
14 -0.14
15 0.18
16 -0.15
17 0.14
18 -0.15
19 -0.15
2 -0.43
3 -0.57
32 0.37
33 0.15
37 0.15
38 0.15
4 -0.81
5 -0.55
6 0.28
9 0.27

>  <PUBCHEM_EFFECTIVE_ROTOR_COUNT>  (1) 
5.2

>  <PUBCHEM_PHARMACOPHORE_FEATURES>  (1) 
5
1 3 acceptor
1 4 cation
1 5 donor
6 13 14 15 16 18 19 rings
6 4 6 7 8 9 10 rings

>  <PUBCHEM_HEAVY_ATOM_COUNT>  (1) 
19

>  <PUBCHEM_ATOM_DEF_STEREO_COUNT>  (1) 
0

>  <PUBCHEM_ATOM_UDEF_STEREO_COUNT>  (1) 
0

>  <PUBCHEM_BOND_DEF_STEREO_COUNT>  (1) 
0

>  <PUBCHEM_BOND_UDEF_STEREO_COUNT>  (1) 
0

>  <PUBCHEM_ISOTOPIC_ATOM_COUNT>  (1) 
0

>  <PUBCHEM_COMPONENT_COUNT>  (1) 
1

>  <PUBCHEM_CACTVS_TAUTO_COUNT>  (1) 
2

>  <PUBCHEM_CONFORMER_ID>  (1) 
00008EB300000001

>  <PUBCHEM_MMFF94_ENERGY>  (1) 
61.0444

>  <PUBCHEM_FEATURE_SELFOVERLAP>  (1) 
25.371

>  <PUBCHEM_SHAPE_FINGERPRINT>  (1) 
10366900 7 17894919511846539504
10616163 171 18342457075369406647
12107183 9 17692818086218666561
12236239 1 18272373065916320321
12596602 18 17489588973946088843
128620 24 16587743118373664254
13167823 11 18413670201632394387
13533116 47 18412544349012448513
13760787 19 18343584027489949909
13836976 161 18261396671986462342
14341114 176 18272375273545269696
15196674 1 18411136909551651891
17834072 33 18413107277285292053
17844677 252 18412269432393341769
1813 80 17458347424626428204
19422 9 18272651242526861664
200 152 18343019986546263865
20028762 73 18341889663167010998
20281475 54 18271799159780713429
20645477 70 18411136909562220910
21065198 48 18342460322475094913
21267235 1 18413114956592066631
21673915 165 18409729577596834947
23557571 272 16660357048199754879
23559900 14 18411411826055480889
239999 70 18342460339897615726
2871803 45 18259981556997062338
3004659 81 18409728447930297712
33824 294 18333729113803370034
351380 3 18272929436417856551
4214541 1 18340769252164367537
4340502 62 18341887550253130320
465052 167 18059860579480938910
5104073 3 18341894073712296065
602551 16 15984807285751586078
7495541 125 17632292414909150129
77779 3 18412826875929294001
9709674 26 18410018710426459403

>  <PUBCHEM_SHAPE_MULTIPOLES>  (1) 
371.18
12.71
2.14
0.83
9.69
0.27
-0.1
2.22
-0.3
-1.49
0.27
0.12
-0.01
-0.62

>  <PUBCHEM_SHAPE_SELFOVERLAP>  (1) 
760.288

>  <PUBCHEM_SHAPE_VOLUME>  (1) 
215.1

>  <PUBCHEM_COORDINATE_TYPE>  (1) 
2
5
10

$$$$
