36536
     RDKit          3D

 20 21  0  0  1  0  0  0  0  0999 V2000
   -1.2905    1.5906    0.0747 O   0  0  0  0  0  0  0  0  0  0  0  0
   -0.2525    0.2585    1.6167 O   0  0  0  0  0  0  0  0  0  0  0  0
    5.9722   -1.0286    0.2287 O   0  0  0  0  0  0  0  0  0  0  0  0
   -4.0394   -0.9070    0.0358 N   0  0  0  0  0  0  0  0  0  0  0  0
    0.8614    1.0645   -0.2780 N   0  0  0  0  0  0  0  0  0  0  0  0
   -2.5764    1.0605    0.3780 C   0  0  0  0  0  0  0  0  0  0  0  0
   -3.6341    1.9737   -0.2339 C   0  0  0  0  0  0  0  0  0  0  0  0
   -2.6912   -0.3641   -0.1723 C   0  0  0  0  0  0  0  0  0  0  0  0
   -5.0206    1.3621   -0.0813 C   0  0  0  0  0  0  0  0  0  0  0  0
   -5.0560   -0.0704   -0.6172 C   0  0  0  0  0  0  0  0  0  0  0  0
   -4.1183   -2.2836   -0.4524 C   0  0  0  0  0  0  0  0  0  0  0  0
   -5.4618   -2.9081   -0.1369 C   0  0  0  0  0  0  0  0  0  0  0  0
   -0.2131    0.9013    0.5747 C   0  0  0  0  0  0  0  0  0  0  0  0
    2.1638    0.5305   -0.1491 C   0  0  0  0  0  0  0  0  0  0  0  0
    3.1120    0.8117   -1.1197 C   0  0  0  0  0  0  0  0  0  0  0  0
    2.4671   -0.2635    0.9455 C   0  0  0  0  0  0  0  0  0  0  0  0
    4.3973    0.2850   -0.9925 C   0  0  0  0  0  0  0  0  0  0  0  0
    3.7524   -0.7901    1.0727 C   0  0  0  0  0  0  0  0  0  0  0  0
    4.7175   -0.5159    0.1037 C   0  0  0  0  0  0  0  0  0  0  0  0
    6.9102   -0.7071   -0.7973 C   0  0  0  0  0  0  0  0  0  0  0  0
  1  6  1  0
  1 13  1  0
  2 13  2  0
  3 19  1  0
  3 20  1  0
  4  8  1  0
  4 10  1  0
  4 11  1  0
  5 13  1  0
  5 14  1  0
  6  7  1  0
  6  8  1  0
  7  9  1  0
  9 10  1  0
 11 12  1  0
 14 15  2  0
 14 16  1  0
 15 17  1  0
 16 18  2  0
 17 19  2  0
 18 19  1  0
M  END
>  <PUBCHEM_COMPOUND_CID>  (1) 
36536

>  <PUBCHEM_CONFORMER_RMSD>  (1) 
0.8

>  <PUBCHEM_CONFORMER_DIVERSEORDER>  (1) 
1
52
64
57
46
67
15
62
85
41
8
96
79
10
29
5
99
83
28
84
25
51
32
77
94
39
87
24
74
6
61
80
14
69
9
49
40
98
68
54
91
45
36
11
82
47
95
2
76
35
97
93
31
88
26
66
75
48
43
81
23
50
22
33
86
42
60
19
55
63
13
78
17
4
65
12
44
89
72
90
7
37
34
71
18
73
59
21
20
56
92
27
3
16
58
30
38
53
70

>  <PUBCHEM_MMFF94_PARTIAL_CHARGES>  (1) 
22
1 -0.43
10 0.27
11 0.27
13 0.78
14 0.12
15 -0.15
16 -0.15
17 -0.15
18 -0.15
19 0.08
2 -0.57
20 0.28
3 -0.36
35 0.37
36 0.15
37 0.15
38 0.15
39 0.15
4 -0.81
5 -0.55
6 0.28
8 0.27

>  <PUBCHEM_EFFECTIVE_ROTOR_COUNT>  (1) 
7.2

>  <PUBCHEM_PHARMACOPHORE_FEATURES>  (1) 
6
1 2 acceptor
1 3 acceptor
1 4 cation
1 5 donor
6 14 15 16 17 18 19 rings
6 4 6 7 8 9 10 rings

>  <PUBCHEM_HEAVY_ATOM_COUNT>  (1) 
20

>  <PUBCHEM_ATOM_DEF_STEREO_COUNT>  (1) 
0

>  <PUBCHEM_ATOM_UDEF_STEREO_COUNT>  (1) 
1

>  <PUBCHEM_BOND_DEF_STEREO_COUNT>  (1) 
0

>  <PUBCHEM_BOND_UDEF_STEREO_COUNT>  (1) 
0

>  <PUBCHEM_ISOTOPIC_ATOM_COUNT>  (1) 
0

>  <PUBCHEM_COMPONENT_COUNT>  (1) 
1

>  <PUBCHEM_CACTVS_TAUTO_COUNT>  (1) 
2

>  <PUBCHEM_CONFORMER_ID>  (1) 
00008EB800000001

>  <PUBCHEM_MMFF94_ENERGY>  (1) 
51.1724

>  <PUBCHEM_FEATURE_SELFOVERLAP>  (1) 
30.446

>  <PUBCHEM_SHAPE_FINGERPRINT>  (1) 
10595046 47 18333734641167921052
11046707 91 18342175592155656473
11315181 36 18202567267381487720
11524674 6 17203888557376546303
11545043 162 17917708006780912627
11796584 16 18343021051756331326
11809386 21 18334571352595323803
12236239 1 18333450933076910428
12616971 3 18114194020262146253
12760667 363 18270678783861703127
12969540 114 14923941266951444225
13167823 11 18334012795796970277
13288520 33 18413389830446655957
13785724 45 9508979507272735484
1420 363 16988563481494997876
14251751 18 18272087227300290202
14251764 30 17899987320591968291
14251764 75 11245012675760009367
14386348 63 17203889651912542125
14528608 73 18113060450239772420
14576447 43 18187079568542010634
14848160 23 17918272043740854538
15183329 4 18040712554349922198
15209294 21 10735883876229934105
15250474 111 18187914054528034091
15537594 2 18260550000588189115
17834072 33 18260832592345976116
17844677 252 18272654562394670281
17870717 6 18342741797731159669
18186145 218 15791451543136203737
18681886 176 18410008867057236064
193927 3 17703799136241252061
19489759 90 17775282716965043801
200 152 18113621162130253472
20281389 69 7997967968924693862
20374829 77 18413669128011902685
20645477 70 15357973400802298704
21054139 6 18260265261568396842
21267235 1 18408606994127126115
21709351 56 17822009800402187580
220451 1 18334298617607671336
23402539 116 17676490518834838852
23402655 69 17676766461893776180
23557571 272 17845653629837753656
23559900 14 18270669970019301217
25122255 55 18131081394000111822
26918003 58 17418092100641718704
270888 7 8429780278840731495
29717793 49 18334300825674464284
3004659 81 18260261971074386486
314173 85 15841557366024263448
351380 3 18410574037071393047
4214541 1 18410291398200600285
5104073 3 18059858406523075049
559249 180 18410008815348881823
59755656 520 15574721287437040913
6327066 14 9438864750523251963
633830 44 16588307142311879673
67856867 119 18335139842977818884
7495541 125 17917709132632329136
7970288 3 18123182678913872775

>  <PUBCHEM_SHAPE_MULTIPOLES>  (1) 
384.02
16.04
2.1
1.03
9.47
1.08
-0.12
7.34
3.4
-4.4
0.18
0.82
-0.01
-0.6

>  <PUBCHEM_SHAPE_SELFOVERLAP>  (1) 
790.315

>  <PUBCHEM_SHAPE_VOLUME>  (1) 
220.6

>  <PUBCHEM_COORDINATE_TYPE>  (1) 
2
5
10

$$$$
