3654
     RDKit          3D

 21 22  0  0  0  0  0  0  0  0999 V2000
   -1.8706   -2.0910   -0.9606 O   0  0  0  0  0  0  0  0  0  0  0  0
   -6.7233    1.2486    0.6232 N   0  0  0  0  0  0  0  0  0  0  0  0
    6.8068    0.8370   -1.1062 N   0  0  0  0  0  0  0  0  0  0  0  0
   -6.6862   -0.9880   -0.0529 N   0  0  0  0  0  0  0  0  0  0  0  0
    6.9778   -0.6084    0.7220 N   0  0  0  0  0  0  0  0  0  0  0  0
   -1.8187    0.2108   -0.2744 C   0  0  0  0  0  0  0  0  0  0  0  0
    1.9904   -0.0198    0.3695 C   0  0  0  0  0  0  0  0  0  0  0  0
   -2.5096   -0.9601   -0.5454 C   0  0  0  0  0  0  0  0  0  0  0  0
   -0.3545    0.2668   -0.4301 C   0  0  0  0  0  0  0  0  0  0  0  0
   -4.5736    0.1538    0.0347 C   0  0  0  0  0  0  0  0  0  0  0  0
   -2.4798    1.3540    0.1487 C   0  0  0  0  0  0  0  0  0  0  0  0
    0.5451   -0.0564    0.5289 C   0  0  0  0  0  0  0  0  0  0  0  0
   -3.8956   -0.9889   -0.3901 C   0  0  0  0  0  0  0  0  0  0  0  0
   -3.8656    1.3252    0.3041 C   0  0  0  0  0  0  0  0  0  0  0  0
    2.5605    0.7424   -0.6501 C   0  0  0  0  0  0  0  0  0  0  0  0
    2.8063   -0.7475    1.2358 C   0  0  0  0  0  0  0  0  0  0  0  0
    4.7625    0.0491    0.0627 C   0  0  0  0  0  0  0  0  0  0  0  0
    3.9464    0.7768   -0.8036 C   0  0  0  0  0  0  0  0  0  0  0  0
    4.1923   -0.7132    1.0825 C   0  0  0  0  0  0  0  0  0  0  0  0
   -6.0182    0.1238    0.1987 C   0  0  0  0  0  0  0  0  0  0  0  0
    6.2074    0.0851   -0.0973 C   0  0  0  0  0  0  0  0  0  0  0  0
  1  8  1  0
  2 20  1  0
  3 21  1  0
  4 20  2  0
  5 21  2  0
  6  8  2  0
  6  9  1  0
  6 11  1  0
  7 12  1  0
  7 15  2  0
  7 16  1  0
  8 13  1  0
  9 12  2  0
 10 13  2  0
 10 14  1  0
 10 20  1  0
 11 14  2  0
 15 18  1  0
 16 19  2  0
 17 18  2  0
 17 19  1  0
 17 21  1  0
M  END
>  <PUBCHEM_COMPOUND_CID>  (1) 
3654

>  <PUBCHEM_CONFORMER_RMSD>  (1) 
0.6

>  <PUBCHEM_CONFORMER_DIVERSEORDER>  (1) 
1
2
3

>  <PUBCHEM_MMFF94_PARTIAL_CHARGES>  (1) 
37
1 -0.53
10 0.09
11 -0.15
12 -0.18
13 -0.15
14 -0.15
15 -0.15
16 -0.15
17 0.09
18 -0.15
19 -0.15
2 -0.85
20 0.41
21 0.41
22 0.15
23 0.15
24 0.15
25 0.15
26 0.15
27 0.15
28 0.15
29 0.15
3 -0.85
30 0.15
31 0.45
32 0.4
33 0.4
34 0.4
35 0.4
36 0.4
37 0.4
4 -0.85
5 -0.85
6 0.03
7 0.03
8 0.08
9 -0.18

>  <PUBCHEM_EFFECTIVE_ROTOR_COUNT>  (1) 
4

>  <PUBCHEM_PHARMACOPHORE_FEATURES>  (1) 
9
1 1 donor
1 2 donor
1 3 donor
1 4 donor
1 5 donor
3 2 4 20 cation
3 3 5 21 cation
6 6 8 10 11 13 14 rings
6 7 15 16 17 18 19 rings

>  <PUBCHEM_HEAVY_ATOM_COUNT>  (1) 
21

>  <PUBCHEM_ATOM_DEF_STEREO_COUNT>  (1) 
0

>  <PUBCHEM_ATOM_UDEF_STEREO_COUNT>  (1) 
0

>  <PUBCHEM_BOND_DEF_STEREO_COUNT>  (1) 
0

>  <PUBCHEM_BOND_UDEF_STEREO_COUNT>  (1) 
1

>  <PUBCHEM_ISOTOPIC_ATOM_COUNT>  (1) 
0

>  <PUBCHEM_COMPONENT_COUNT>  (1) 
1

>  <PUBCHEM_CACTVS_TAUTO_COUNT>  (1) 
5

>  <PUBCHEM_CONFORMER_ID>  (1) 
00000E4600000001

>  <PUBCHEM_MMFF94_ENERGY>  (1) 
76.2275

>  <PUBCHEM_FEATURE_SELFOVERLAP>  (1) 
45.759

>  <PUBCHEM_SHAPE_FINGERPRINT>  (1) 
10299344 5 18334013891103542010
10354089 29 17967251992676634400
10968037 39 18187365437306993273
11315181 36 18272654562737197865
11524674 6 16559030510750172943
11796584 16 17704071820280173654
12091667 2 17167861959596893949
12166972 35 18186803595313580316
12236239 1 18260548917792024421
12390115 104 17703238287276204673
12516196 113 13479135696026595671
13073987 5 16916796123665891538
13533116 47 17967525736432742082
13914758 101 12967140388797364939
14170010 4 16950284031624442812
14251764 18 18408886247772158479
14251764 46 17275384304602742537
14386348 63 16702305667599596758
15183329 4 18202009806976239862
15537594 2 18260542329502460402
19489759 90 17060339622015039067
20281389 69 18408601457513712120
20645477 70 16153976951412151434
20681677 155 18341328972249602298
21033648 29 15769482141182184226
21065198 48 18187360974319242241
21267235 1 18335424568742930353
21641784 216 16153998924686325942
220451 1 18335417971673397682
22224240 67 16009031713371552560
2297311 6 17917715699115130601
23035841 295 18410009931628948186
23402539 116 18272645761963976052
23536379 177 18413108342954074768
23559900 14 17703782656483327712
34797466 226 17775573070129811228
3545911 37 18060138730200285470
4073 2 17386013913869202386
4325135 7 17967813846901731318
5385378 56 17774172197557751175
542803 24 18334856121626937576
54446538 1 18333732416053205700
5758199 1 18040155145843277072
59755656 215 17418098697769553526
59755656 520 17458061586248145147

>  <PUBCHEM_SHAPE_MULTIPOLES>  (1) 
406.38
18.77
1.29
0.97
3.69
0.13
-0.03
-1.01
-0.84
-0.97
0.13
0.64
0.1
-1.57

>  <PUBCHEM_SHAPE_SELFOVERLAP>  (1) 
876.346

>  <PUBCHEM_SHAPE_VOLUME>  (1) 
223.6

>  <PUBCHEM_COORDINATE_TYPE>  (1) 
2
5
10

$$$$
