36544
     RDKit          3D

 19 20  0  0  1  0  0  0  0  0999 V2000
   -0.7995    1.5180    0.2073 O   0  0  0  0  0  0  0  0  0  0  0  0
    0.0953    0.0358    1.7014 O   0  0  0  0  0  0  0  0  0  0  0  0
   -3.7104   -0.7750   -0.0473 N   0  0  0  0  0  0  0  0  0  0  0  0
    1.3214    0.8618   -0.1137 N   0  0  0  0  0  0  0  0  0  0  0  0
   -2.1276    1.0639    0.4446 C   0  0  0  0  0  0  0  0  0  0  0  0
   -3.1003    2.0805   -0.1450 C   0  0  0  0  0  0  0  0  0  0  0  0
   -2.3222   -0.3176   -0.1870 C   0  0  0  0  0  0  0  0  0  0  0  0
   -4.5296    1.5604   -0.0656 C   0  0  0  0  0  0  0  0  0  0  0  0
   -4.6460    0.1646   -0.6810 C   0  0  0  0  0  0  0  0  0  0  0  0
   -3.8678   -2.1145   -0.6133 C   0  0  0  0  0  0  0  0  0  0  0  0
   -5.2679   -2.6522   -0.3703 C   0  0  0  0  0  0  0  0  0  0  0  0
    0.2118    0.7291    0.6982 C   0  0  0  0  0  0  0  0  0  0  0  0
    2.5795    0.2317    0.0218 C   0  0  0  0  0  0  0  0  0  0  0  0
    3.5760    0.4963   -0.9044 C   0  0  0  0  0  0  0  0  0  0  0  0
    2.7917   -0.6391    1.0788 C   0  0  0  0  0  0  0  0  0  0  0  0
    4.8171   -0.1261   -0.7697 C   0  0  0  0  0  0  0  0  0  0  0  0
    4.0328   -1.2613    1.2135 C   0  0  0  0  0  0  0  0  0  0  0  0
    5.0455   -1.0048    0.2893 C   0  0  0  0  0  0  0  0  0  0  0  0
    5.9003    0.1484   -1.7576 C   0  0  0  0  0  0  0  0  0  0  0  0
  1  5  1  0
  1 12  1  0
  2 12  2  0
  3  7  1  0
  3  9  1  0
  3 10  1  0
  4 12  1  0
  4 13  1  0
  5  6  1  0
  5  7  1  0
  6  8  1  0
  8  9  1  0
 10 11  1  0
 13 14  2  0
 13 15  1  0
 14 16  1  0
 15 17  2  0
 16 18  2  0
 16 19  1  0
 17 18  1  0
M  END
>  <PUBCHEM_COMPOUND_CID>  (1) 
36544

>  <PUBCHEM_CONFORMER_RMSD>  (1) 
0.8

>  <PUBCHEM_CONFORMER_DIVERSEORDER>  (1) 
1
129
108
25
122
40
46
116
136
95
84
156
128
33
65
19
110
51
127
92
138
60
117
31
157
24
147
121
23
132
99
17
62
20
154
70
76
155
78
39
36
57
98
160
125
140
32
162
83
123
37
47
90
120
124
80
151
53
131
104
16
26
139
3
63
91
159
22
146
7
109
101
149
105
4
77
48
79
150
163
29
2
106
49
137
66
28
152
126
42
87
161
141
112
27
30
164
119
58
35
52
11
75
14
64
113
148
103
21
135
111
86
6
115
54
34
133
18
41
102
9
81
5
158
118
50
59
45
73
38
144
100
15
114
13
72
143
44
85
94
93
10
55
12
153
8
74
61
142
96
43
71
67
134
56
88
107
145
97
69
89
82
68
130

>  <PUBCHEM_MMFF94_PARTIAL_CHARGES>  (1) 
21
1 -0.43
10 0.27
12 0.78
13 0.12
14 -0.15
15 -0.15
16 -0.14
17 -0.15
18 -0.15
19 0.14
2 -0.57
3 -0.81
34 0.37
35 0.15
36 0.15
37 0.15
38 0.15
4 -0.55
5 0.28
7 0.27
9 0.27

>  <PUBCHEM_EFFECTIVE_ROTOR_COUNT>  (1) 
6.2

>  <PUBCHEM_PHARMACOPHORE_FEATURES>  (1) 
5
1 2 acceptor
1 3 cation
1 4 donor
6 13 14 15 16 17 18 rings
6 3 5 6 7 8 9 rings

>  <PUBCHEM_HEAVY_ATOM_COUNT>  (1) 
19

>  <PUBCHEM_ATOM_DEF_STEREO_COUNT>  (1) 
0

>  <PUBCHEM_ATOM_UDEF_STEREO_COUNT>  (1) 
1

>  <PUBCHEM_BOND_DEF_STEREO_COUNT>  (1) 
0

>  <PUBCHEM_BOND_UDEF_STEREO_COUNT>  (1) 
0

>  <PUBCHEM_ISOTOPIC_ATOM_COUNT>  (1) 
0

>  <PUBCHEM_COMPONENT_COUNT>  (1) 
1

>  <PUBCHEM_CACTVS_TAUTO_COUNT>  (1) 
2

>  <PUBCHEM_CONFORMER_ID>  (1) 
00008EC000000001

>  <PUBCHEM_MMFF94_ENERGY>  (1) 
39.4378

>  <PUBCHEM_FEATURE_SELFOVERLAP>  (1) 
25.372

>  <PUBCHEM_SHAPE_FINGERPRINT>  (1) 
10595046 47 18333170583197235972
10616163 171 18412259523998650951
10912923 1 18113899334319116712
11046707 91 18343017805035128289
11128504 68 17676207965942376760
11796584 16 18272369724632341038
12236239 1 17967817106929835869
12616971 3 17604143723268655752
12969540 114 15213018258345283074
13167823 11 18333731290908495394
13760787 19 18334858281605129913
14123255 352 11025788804222129727
14251732 14 18339930410491065430
14251751 18 18343292674268053826
14251757 5 18337113495971394411
14252887 29 15769773538071463544
14386348 63 17131834252623969124
14528608 73 18186527618210889580
14576447 43 18333730243311060426
15209294 21 10303817587818652033
15250474 111 18260818280988023154
15537594 2 18335707126378733507
15880784 105 14979663408256423893
17834072 33 18260550017746802940
17844677 252 18272089413370416752
17870717 6 18201723929462865709
18186145 218 15791735187224223920
193927 3 17489874842758660728
200 152 18114185220111293208
20374829 77 18342171181039542635
20432913 95 15482667970319481828
20621476 21 17703520968606014662
20871999 31 18408886243566855449
21054139 6 18333166185456939714
220451 1 18336553728709363760
231179 274 13912325685722384688
23175994 123 16845568721337339361
23402539 116 17676209043895005964
23402655 69 17967817102803680124
23557571 272 17631741443519959240
23559900 14 18272923938395760648
239999 70 17918272061400661280
29717793 49 18261959527629944598
300161 21 18113053814209416236
3004659 81 18410011065320842924
351380 3 18340205284161415255
4214541 1 18411416185578966449
5104073 3 18131347535742869217
559249 180 18264762182357734371
573450 72 18336820901328927889
58051976 100 18411976958110465445
633830 44 16661209130988237416
67856867 119 18334571382723696928
90127 26 16128653012116890096

>  <PUBCHEM_SHAPE_MULTIPOLES>  (1) 
369.31
14.17
2.05
1.21
4.41
0.74
-0.01
4.81
4.74
-3.95
0.13
1.59
0.12
-1.27

>  <PUBCHEM_SHAPE_SELFOVERLAP>  (1) 
759.768

>  <PUBCHEM_SHAPE_VOLUME>  (1) 
212.4

>  <PUBCHEM_COORDINATE_TYPE>  (1) 
2
5
10

$$$$
