36546
     RDKit          3D

 18 19  0  0  1  0  0  0  0  0999 V2000
    1.4333    2.5676   -0.7595 Cl  0  0  0  0  0  0  0  0  0  0  0  0
   -1.4109   -0.8495   -0.5423 O   0  0  0  0  0  0  0  0  0  0  0  0
   -0.3344   -0.3094    1.4018 O   0  0  0  0  0  0  0  0  0  0  0  0
   -4.4300    0.4936    0.4459 N   0  0  0  0  0  0  0  0  0  0  0  0
    0.7833   -0.3858   -0.6536 N   0  0  0  0  0  0  0  0  0  0  0  0
   -2.6254   -1.0038    0.1786 C   0  0  0  0  0  0  0  0  0  0  0  0
   -3.7651   -1.3595   -0.7729 C   0  0  0  0  0  0  0  0  0  0  0  0
   -3.0184    0.3342    0.8025 C   0  0  0  0  0  0  0  0  0  0  0  0
   -4.5605   -0.0697   -0.8966 C   0  0  0  0  0  0  0  0  0  0  0  0
   -4.8701    1.8787    0.5154 C   0  0  0  0  0  0  0  0  0  0  0  0
   -0.3047   -0.4920    0.1909 C   0  0  0  0  0  0  0  0  0  0  0  0
    2.1134   -0.0420   -0.3208 C   0  0  0  0  0  0  0  0  0  0  0  0
    3.0027   -1.0518    0.0213 C   0  0  0  0  0  0  0  0  0  0  0  0
    2.5147    1.2868   -0.3386 C   0  0  0  0  0  0  0  0  0  0  0  0
    4.3182   -0.7264    0.3519 C   0  0  0  0  0  0  0  0  0  0  0  0
    2.5917   -2.4887    0.0469 C   0  0  0  0  0  0  0  0  0  0  0  0
    3.8301    1.6122   -0.0081 C   0  0  0  0  0  0  0  0  0  0  0  0
    4.7319    0.6056    0.3371 C   0  0  0  0  0  0  0  0  0  0  0  0
  1 14  1  0
  2  6  1  0
  2 11  1  0
  3 11  2  0
  4  8  1  0
  4  9  1  0
  4 10  1  0
  5 11  1  0
  5 12  1  0
  6  7  1  0
  6  8  1  0
  7  9  1  0
 12 13  2  0
 12 14  1  0
 13 15  1  0
 13 16  1  0
 14 17  2  0
 15 18  2  0
 17 18  1  0
M  END
>  <PUBCHEM_COMPOUND_CID>  (1) 
36546

>  <PUBCHEM_CONFORMER_RMSD>  (1) 
0.6

>  <PUBCHEM_CONFORMER_DIVERSEORDER>  (1) 
10
35
53
34
81
94
59
80
91
69
74
18
27
14
63
96
87
76
70
12
85
6
25
64
61
11
62
16
21
95
17
78
30
67
68
5
89
97
45
60
37
75
84
50
92
47
83
93
46
39
44
71
77
29
31
90
56
36
7
65
24
55
28
40
42
54
33
66
19
82
26
23
58
13
49
38
43
8
22
32
52
20
41
15
1
48
9
57
79
2
51
3
72
4
73
86
88

>  <PUBCHEM_MMFF94_PARTIAL_CHARGES>  (1) 
21
1 -0.18
10 0.27
11 0.78
12 0.12
13 -0.14
14 0.18
15 -0.15
16 0.14
17 -0.15
18 -0.15
2 -0.43
29 0.37
3 -0.57
30 0.15
34 0.15
35 0.15
4 -0.81
5 -0.55
6 0.28
8 0.27
9 0.27

>  <PUBCHEM_EFFECTIVE_ROTOR_COUNT>  (1) 
5

>  <PUBCHEM_PHARMACOPHORE_FEATURES>  (1) 
5
1 3 acceptor
1 4 cation
1 5 donor
5 4 6 7 8 9 rings
6 12 13 14 15 17 18 rings

>  <PUBCHEM_HEAVY_ATOM_COUNT>  (1) 
18

>  <PUBCHEM_ATOM_DEF_STEREO_COUNT>  (1) 
0

>  <PUBCHEM_ATOM_UDEF_STEREO_COUNT>  (1) 
1

>  <PUBCHEM_BOND_DEF_STEREO_COUNT>  (1) 
0

>  <PUBCHEM_BOND_UDEF_STEREO_COUNT>  (1) 
0

>  <PUBCHEM_ISOTOPIC_ATOM_COUNT>  (1) 
0

>  <PUBCHEM_COMPONENT_COUNT>  (1) 
1

>  <PUBCHEM_CACTVS_TAUTO_COUNT>  (1) 
2

>  <PUBCHEM_CONFORMER_ID>  (1) 
00008EC20000000A

>  <PUBCHEM_MMFF94_ENERGY>  (1) 
63.8055

>  <PUBCHEM_FEATURE_SELFOVERLAP>  (1) 
25.371

>  <PUBCHEM_SHAPE_FINGERPRINT>  (1) 
10014705 185 18413388718440354025
10595046 47 18342172306468836351
10906281 52 18114477725091586020
11089746 13 17846208969324871376
11471102 20 18335417993649030294
12107183 9 17837211476585553947
12236239 1 18060416932902676398
12507557 5 18335982068673100813
12633257 1 17604135039124494512
12670546 56 18342731918784165141
128620 24 14692575428901804033
13167823 11 18343299284085792975
13675066 3 17822017497241875419
14004511 7 18408325492758041431
14790565 3 17901677286790574068
15442244 35 18267587909734123832
15788980 27 17917996078890790575
15848702 151 18408884023184957575
17492 89 18413111675522629879
18186145 218 17821446867665584259
200 152 18272930544018024987
20157964 124 18339922615684352175
20233049 118 17489587883098098824
20511986 3 18058995229433106841
20645477 70 18412263917613142374
20715895 44 18055919792959373521
21421861 104 17896875461702281370
21709351 56 18411695530198923982
23402539 116 18342734109164829613
23402655 69 18412826906289191428
23557571 272 14692583095655707529
23559900 14 17417538994959360846
300161 21 18130500868876575251
3060560 45 18342181090030599222
3268164 11 14836129823408941265
351380 180 18334292076414963181
3545911 37 18410859879892271411
4214541 1 18412262844060683087
474 4 18261111927896054432
5104073 3 18408039636651043042
543358 83 18411984620216083442
633830 44 18040999540022803251
77779 3 18412263947640632671
8272917 22 18340491075701538734
84936 182 17983297320163815440
9709674 26 18410299141636764527
9971528 1 18410293593081479748
9981440 41 17400075769492627041

>  <PUBCHEM_SHAPE_MULTIPOLES>  (1) 
350.6
10.93
2.2
0.92
6.23
0.51
-0.05
1.87
-0.54
-1.02
0.26
0.49
0.05
-0.86

>  <PUBCHEM_SHAPE_SELFOVERLAP>  (1) 
723.558

>  <PUBCHEM_SHAPE_VOLUME>  (1) 
204.1

>  <PUBCHEM_COORDINATE_TYPE>  (1) 
2
5
10

$$$$
