36548
     RDKit          3D

 24 25  0  0  1  0  0  0  0  0999 V2000
    1.3203    1.6779    0.5201 O   0  0  0  0  0  0  0  0  0  0  0  0
    0.8940    0.9179   -1.6105 O   0  0  0  0  0  0  0  0  0  0  0  0
    1.8109   -2.6126    1.5150 O   0  0  0  0  0  0  0  0  0  0  0  0
    0.4907   -1.5399    0.0072 O   0  0  0  0  0  0  0  0  0  0  0  0
   -4.4468   -0.9949   -0.2775 C   0  0  0  0  0  0  0  0  0  0  0  0
   -3.2310   -0.0761   -0.0724 C   0  0  0  0  0  0  0  0  0  0  0  0
   -4.2690   -1.8095   -1.5771 C   0  0  0  0  0  0  0  0  0  0  0  0
   -5.7301   -0.1427   -0.3840 C   0  0  0  0  0  0  0  0  0  0  0  0
   -4.6656   -2.0075    0.8694 C   0  0  0  0  0  0  0  0  0  0  0  0
   -2.9517    0.8602   -1.0363 C   0  0  0  0  0  0  0  0  0  0  0  0
   -2.4803   -0.2340    1.0656 C   0  0  0  0  0  0  0  0  0  0  0  0
   -1.0616    1.5629    0.2941 C   0  0  0  0  0  0  0  0  0  0  0  0
    0.1171    2.4545    0.4936 C   0  0  0  0  0  0  0  0  0  0  0  0
   -1.8487    1.6934   -0.8500 C   0  0  0  0  0  0  0  0  0  0  0  0
   -1.3774    0.5992    1.2519 C   0  0  0  0  0  0  0  0  0  0  0  0
    0.0330    3.2670    1.7895 C   0  0  0  0  0  0  0  0  0  0  0  0
    1.5807    0.9598   -0.6015 C   0  0  0  0  0  0  0  0  0  0  0  0
    2.8480    0.2018   -0.4470 C   0  0  0  0  0  0  0  0  0  0  0  0
    2.8367   -1.0756    0.0770 C   0  0  0  0  0  0  0  0  0  0  0  0
    4.0187    0.8202   -0.8429 C   0  0  0  0  0  0  0  0  0  0  0  0
    4.0432   -1.7629    0.2105 C   0  0  0  0  0  0  0  0  0  0  0  0
    5.2251    0.1328   -0.7094 C   0  0  0  0  0  0  0  0  0  0  0  0
    5.2374   -1.1585   -0.1826 C   0  0  0  0  0  0  0  0  0  0  0  0
    1.6064   -1.7335    0.4972 C   0  0  0  0  0  0  0  0  0  0  0  0
  1 13  1  0
  1 17  1  0
  2 17  2  0
  3 24  1  0
  4 24  2  0
  5  6  1  0
  5  7  1  0
  5  8  1  0
  5  9  1  0
  6 10  2  0
  6 11  1  0
 10 14  1  0
 11 15  2  0
 12 13  1  0
 12 14  2  0
 12 15  1  0
 13 16  1  0
 17 18  1  0
 18 19  2  0
 18 20  1  0
 19 21  1  0
 19 24  1  0
 20 22  2  0
 21 23  2  0
 22 23  1  0
M  END
>  <PUBCHEM_COMPOUND_CID>  (1) 
36548

>  <PUBCHEM_CONFORMER_RMSD>  (1) 
0.8

>  <PUBCHEM_CONFORMER_DIVERSEORDER>  (1) 
3
50
18
16
30
10
19
11
57
59
28
36
23
47
5
24
2
44
32
34
38
58
17
48
46
1
49
43
9
51
54
27
41
22
40
42
7
20
53
33
6
52
39
37
60
8
55
25
29
35
21
45
12
26
4
15
14
56
13
31

>  <PUBCHEM_MMFF94_PARTIAL_CHARGES>  (1) 
29
1 -0.43
10 -0.15
11 -0.15
12 -0.14
13 0.42
14 -0.15
15 -0.15
17 0.63
18 0.09
19 0.09
2 -0.57
20 -0.15
21 -0.15
22 -0.15
23 -0.15
24 0.63
3 -0.65
34 0.15
35 0.15
37 0.15
38 0.15
4 -0.57
42 0.15
43 0.15
44 0.15
45 0.15
46 0.5
5 0.14
6 -0.14

>  <PUBCHEM_EFFECTIVE_ROTOR_COUNT>  (1) 
6

>  <PUBCHEM_PHARMACOPHORE_FEATURES>  (1) 
7
1 2 acceptor
1 3 acceptor
1 4 acceptor
3 3 4 24 anion
4 5 7 8 9 hydrophobe
6 18 19 20 21 22 23 rings
6 6 10 11 12 14 15 rings

>  <PUBCHEM_HEAVY_ATOM_COUNT>  (1) 
24

>  <PUBCHEM_ATOM_DEF_STEREO_COUNT>  (1) 
0

>  <PUBCHEM_ATOM_UDEF_STEREO_COUNT>  (1) 
1

>  <PUBCHEM_BOND_DEF_STEREO_COUNT>  (1) 
0

>  <PUBCHEM_BOND_UDEF_STEREO_COUNT>  (1) 
0

>  <PUBCHEM_ISOTOPIC_ATOM_COUNT>  (1) 
0

>  <PUBCHEM_COMPONENT_COUNT>  (1) 
1

>  <PUBCHEM_CACTVS_TAUTO_COUNT>  (1) 
1

>  <PUBCHEM_CONFORMER_ID>  (1) 
00008EC400000003

>  <PUBCHEM_MMFF94_ENERGY>  (1) 
86.8198

>  <PUBCHEM_FEATURE_SELFOVERLAP>  (1) 
35.58

>  <PUBCHEM_SHAPE_FINGERPRINT>  (1) 
10447042 23 18335136497150198902
108634 29 18261126187720974298
11045977 3 13398627273182384229
11370993 144 12967139297632903588
12166972 35 18113061536708015638
12236239 1 18342741814346753783
12553582 1 18201707453852228199
12596599 1 17631467794305438759
12633257 1 12535343502193549591
12788726 201 17770490946475572801
13009979 54 18050555249804559810
13032168 30 18337116653098638584
13103583 49 17775020002489404097
13402501 40 18114751537614876771
13544653 18 18335147483265124140
14787075 74 18339927112378207676
14931854 50 18260829271851284806
15188451 53 15913033375136866055
15196674 1 18334859385638591326
15537594 2 18412269466948109759
15927050 60 17552916643301940348
17349148 13 18114184095172564690
17492 89 18195810661334690110
1813 80 17489596674743679413
18222031 100 17704353285854306317
200 152 18408887321503452469
20028762 73 18340203004109255254
20775438 99 17478861223826152583
20832881 197 18341615932263410729
21033650 10 13840829834404200918
21250096 35 18342738511859625385
22393880 68 18115304450155380534
235170 7 16805594876439828375
23557571 272 18130227034403954667
23559900 14 18188203321023584885
2871803 45 18260267438731310542
3004659 81 18259984851453009342
314194 84 18342740766496163183
329604 57 18407481059259177798
339767 52 17988921176300425055
392239 28 18343577443822148096
439807 62 18042409191909696715
46194498 28 16878507981034698311
463206 1 18337953493006255755
6669772 16 17910109449868935656
7970288 3 18060135448803873143

>  <PUBCHEM_SHAPE_MULTIPOLES>  (1) 
470.43
10.97
2.83
1.36
1.09
0.93
-0.08
-6.57
2.58
-0.02
-1.15
0.49
0.17
-0.57

>  <PUBCHEM_SHAPE_SELFOVERLAP>  (1) 
1008.716

>  <PUBCHEM_SHAPE_VOLUME>  (1) 
260.3

>  <PUBCHEM_COORDINATE_TYPE>  (1) 
2
5
10

$$$$
