36540
     RDKit          3D

 19 20  0  0  1  0  0  0  0  0999 V2000
    6.0695    0.1968   -1.8675 Cl  0  0  0  0  0  0  0  0  0  0  0  0
   -0.8072    1.5148    0.2224 O   0  0  0  0  0  0  0  0  0  0  0  0
    0.0779    0.0198    1.7095 O   0  0  0  0  0  0  0  0  0  0  0  0
   -3.7203   -0.7717   -0.0641 N   0  0  0  0  0  0  0  0  0  0  0  0
    1.3143    0.8578   -0.0932 N   0  0  0  0  0  0  0  0  0  0  0  0
   -2.1372    1.0610    0.4496 C   0  0  0  0  0  0  0  0  0  0  0  0
   -3.1055    2.0835   -0.1369 C   0  0  0  0  0  0  0  0  0  0  0  0
   -2.3308   -0.3154   -0.1935 C   0  0  0  0  0  0  0  0  0  0  0  0
   -4.5359    1.5650   -0.0685 C   0  0  0  0  0  0  0  0  0  0  0  0
   -4.6513    0.1742   -0.6951 C   0  0  0  0  0  0  0  0  0  0  0  0
   -3.8770   -2.1066   -0.6410 C   0  0  0  0  0  0  0  0  0  0  0  0
   -5.2790   -2.6439   -0.4091 C   0  0  0  0  0  0  0  0  0  0  0  0
    0.2004    0.7206    0.7122 C   0  0  0  0  0  0  0  0  0  0  0  0
    2.5707    0.2247    0.0436 C   0  0  0  0  0  0  0  0  0  0  0  0
    3.5727    0.4961   -0.8744 C   0  0  0  0  0  0  0  0  0  0  0  0
    2.7761   -0.6544    1.0952 C   0  0  0  0  0  0  0  0  0  0  0  0
    4.8127   -0.1282   -0.7374 C   0  0  0  0  0  0  0  0  0  0  0  0
    4.0158   -1.2786    1.2321 C   0  0  0  0  0  0  0  0  0  0  0  0
    5.0341   -1.0154    0.3160 C   0  0  0  0  0  0  0  0  0  0  0  0
  1 17  1  0
  2  6  1  0
  2 13  1  0
  3 13  2  0
  4  8  1  0
  4 10  1  0
  4 11  1  0
  5 13  1  0
  5 14  1  0
  6  7  1  0
  6  8  1  0
  7  9  1  0
  9 10  1  0
 11 12  1  0
 14 15  2  0
 14 16  1  0
 15 17  1  0
 16 18  2  0
 17 19  2  0
 18 19  1  0
M  END
>  <PUBCHEM_COMPOUND_CID>  (1) 
36540

>  <PUBCHEM_CONFORMER_RMSD>  (1) 
0.8

>  <PUBCHEM_CONFORMER_DIVERSEORDER>  (1) 
1
139
68
4
140
117
61
129
31
109
132
99
96
25
55
41
158
26
62
24
110
125
28
44
42
35
122
134
66
160
29
74
20
65
39
15
50
126
33
69
135
103
141
138
22
49
84
80
114
157
21
154
133
85
123
16
128
5
150
116
148
113
90
130
3
159
156
37
53
146
34
111
127
18
81
91
115
93
163
106
100
151
36
47
118
32
72
17
145
27
105
56
86
52
119
23
57
2
137
108
161
30
40
54
6
67
45
19
82
38
87
162
14
124
60
58
104
76
70
48
79
164
13
10
120
77
63
142
51
121
8
107
95
153
92
59
136
155
9
83
94
152
89
43
78
46
144
64
7
12
112
101
143
97
11
73
149
102
147
88
75
98
131
71

>  <PUBCHEM_MMFF94_PARTIAL_CHARGES>  (1) 
21
1 -0.18
10 0.27
11 0.27
13 0.78
14 0.12
15 -0.15
16 -0.15
17 0.18
18 -0.15
19 -0.15
2 -0.43
3 -0.57
34 0.37
35 0.15
36 0.15
37 0.15
38 0.15
4 -0.81
5 -0.55
6 0.28
8 0.27

>  <PUBCHEM_EFFECTIVE_ROTOR_COUNT>  (1) 
6.2

>  <PUBCHEM_PHARMACOPHORE_FEATURES>  (1) 
5
1 3 acceptor
1 4 cation
1 5 donor
6 14 15 16 17 18 19 rings
6 4 6 7 8 9 10 rings

>  <PUBCHEM_HEAVY_ATOM_COUNT>  (1) 
19

>  <PUBCHEM_ATOM_DEF_STEREO_COUNT>  (1) 
0

>  <PUBCHEM_ATOM_UDEF_STEREO_COUNT>  (1) 
1

>  <PUBCHEM_BOND_DEF_STEREO_COUNT>  (1) 
0

>  <PUBCHEM_BOND_UDEF_STEREO_COUNT>  (1) 
0

>  <PUBCHEM_ISOTOPIC_ATOM_COUNT>  (1) 
0

>  <PUBCHEM_COMPONENT_COUNT>  (1) 
1

>  <PUBCHEM_CACTVS_TAUTO_COUNT>  (1) 
2

>  <PUBCHEM_CONFORMER_ID>  (1) 
00008EBC00000001

>  <PUBCHEM_MMFF94_ENERGY>  (1) 
37.6504

>  <PUBCHEM_FEATURE_SELFOVERLAP>  (1) 
25.372

>  <PUBCHEM_SHAPE_FINGERPRINT>  (1) 
10595046 47 18333170578902262164
10616163 171 18412540998985904599
10912923 1 18113899334324384984
11046707 91 18343016705544593033
11128504 68 17676207965942370272
11796584 16 18272650100086880894
12236239 1 17967817106898174333
12616971 3 17676482787993595312
12969540 114 15285357327370477674
13167823 11 18333730191370493898
13760787 19 18335139756566009809
14251732 14 18342183305721793398
14251751 18 18343292674236405314
14251757 5 18337957920811855686
14252887 29 15698279993482799376
14386348 63 17132114628089051988
14455015 7 16415485934943988388
14528608 73 18186809093203430980
14576447 43 18334011718287771098
15209294 21 10303817592134705369
15250474 111 18261099755970015058
15537594 2 18408046199677789883
15880784 105 14979944883243690549
17834072 33 18260831492755168604
17870717 6 18202005404429026853
18186145 218 15864073156711410512
193927 3 17417817248720726320
200 152 18114184120594390704
20374829 77 18342171181060648155
20432913 95 15482667970324756564
20621476 21 17632026324505670798
20871999 31 18409167718527741849
21054139 6 18333447660428375634
220451 1 18336553728709363776
2297311 6 18131077030197092669
231179 274 13984383275460070592
23175994 123 16845568721342601121
23402539 116 17676207944399189420
23402655 69 17968098577796202028
23557571 272 17559965324485115720
23559900 14 18272359893188729576
29717793 49 18261959527640507078
300161 21 18113335289196676388
3004659 81 18410292540297560076
351380 3 18340205284182514263
4214541 1 18411415086062109409
5104073 3 18131627911218488633
559249 180 18264761082856662611
573450 72 18336819801833117897
58051976 100 18412257329285849277
633830 44 16733266724994497352
67856867 119 18334852857695126376
7970288 3 18124023796698113887
90127 26 16128653012116890104

>  <PUBCHEM_SHAPE_MULTIPOLES>  (1) 
371.18
14.4
2.05
1.26
4.99
0.72
0.04
4.62
5.35
-3.91
0.14
1.75
0.13
-1.42

>  <PUBCHEM_SHAPE_SELFOVERLAP>  (1) 
756.712

>  <PUBCHEM_SHAPE_VOLUME>  (1) 
215.4

>  <PUBCHEM_COORDINATE_TYPE>  (1) 
2
5
10

$$$$
