36543
     RDKit          3D

 19 20  0  0  1  0  0  0  0  0999 V2000
   -0.8994    1.5718    0.1090 O   0  0  0  0  0  0  0  0  0  0  0  0
    0.1473    0.1660    1.5780 O   0  0  0  0  0  0  0  0  0  0  0  0
   -3.6995   -0.8679    0.0510 N   0  0  0  0  0  0  0  0  0  0  0  0
    1.2322    1.0158   -0.3144 N   0  0  0  0  0  0  0  0  0  0  0  0
   -2.1883    1.0570    0.4252 C   0  0  0  0  0  0  0  0  0  0  0  0
   -3.2412    2.0119   -0.1286 C   0  0  0  0  0  0  0  0  0  0  0  0
   -2.3457   -0.3448   -0.1711 C   0  0  0  0  0  0  0  0  0  0  0  0
   -4.6361    1.4230    0.0366 C   0  0  0  0  0  0  0  0  0  0  0  0
   -4.7138    0.0112   -0.5475 C   0  0  0  0  0  0  0  0  0  0  0  0
   -3.8184   -2.2246   -0.4825 C   0  0  0  0  0  0  0  0  0  0  0  0
   -5.1745   -2.8263   -0.1553 C   0  0  0  0  0  0  0  0  0  0  0  0
    0.1752    0.8441    0.5583 C   0  0  0  0  0  0  0  0  0  0  0  0
    2.5260    0.4519   -0.2360 C   0  0  0  0  0  0  0  0  0  0  0  0
    3.4565    0.7482   -1.2194 C   0  0  0  0  0  0  0  0  0  0  0  0
    2.8390   -0.3860    0.8226 C   0  0  0  0  0  0  0  0  0  0  0  0
    5.0630   -0.6533   -0.0830 C   0  0  0  0  0  0  0  0  0  0  0  0
    4.7333    0.1919   -1.1424 C   0  0  0  0  0  0  0  0  0  0  0  0
    4.1159   -0.9422    0.8996 C   0  0  0  0  0  0  0  0  0  0  0  0
    6.4283   -1.2477   -0.0001 C   0  0  0  0  0  0  0  0  0  0  0  0
  1  5  1  0
  1 12  1  0
  2 12  2  0
  3  7  1  0
  3  9  1  0
  3 10  1  0
  4 12  1  0
  4 13  1  0
  5  6  1  0
  5  7  1  0
  6  8  1  0
  8  9  1  0
 10 11  1  0
 13 14  2  0
 13 15  1  0
 14 17  1  0
 15 18  2  0
 16 17  2  0
 16 18  1  0
 16 19  1  0
M  END
>  <PUBCHEM_COMPOUND_CID>  (1) 
36543

>  <PUBCHEM_CONFORMER_RMSD>  (1) 
0.8

>  <PUBCHEM_CONFORMER_DIVERSEORDER>  (1) 
1
46
23
9
27
31
41
18
14
50
29
7
61
25
22
20
10
39
48
11
51
56
2
35
47
24
32
53
57
12
16
37
58
43
45
21
33
30
6
60
19
44
8
54
15
40
59
3
5
34
42
17
13
4
49
36
52
55
26
28
38

>  <PUBCHEM_MMFF94_PARTIAL_CHARGES>  (1) 
21
1 -0.43
10 0.27
12 0.78
13 0.12
14 -0.15
15 -0.15
16 -0.14
17 -0.15
18 -0.15
19 0.14
2 -0.57
3 -0.81
34 0.37
35 0.15
36 0.15
37 0.15
38 0.15
4 -0.55
5 0.28
7 0.27
9 0.27

>  <PUBCHEM_EFFECTIVE_ROTOR_COUNT>  (1) 
6.2

>  <PUBCHEM_PHARMACOPHORE_FEATURES>  (1) 
5
1 2 acceptor
1 3 cation
1 4 donor
6 13 14 15 16 17 18 rings
6 3 5 6 7 8 9 rings

>  <PUBCHEM_HEAVY_ATOM_COUNT>  (1) 
19

>  <PUBCHEM_ATOM_DEF_STEREO_COUNT>  (1) 
0

>  <PUBCHEM_ATOM_UDEF_STEREO_COUNT>  (1) 
1

>  <PUBCHEM_BOND_DEF_STEREO_COUNT>  (1) 
0

>  <PUBCHEM_BOND_UDEF_STEREO_COUNT>  (1) 
0

>  <PUBCHEM_ISOTOPIC_ATOM_COUNT>  (1) 
0

>  <PUBCHEM_COMPONENT_COUNT>  (1) 
1

>  <PUBCHEM_CACTVS_TAUTO_COUNT>  (1) 
2

>  <PUBCHEM_CONFORMER_ID>  (1) 
00008EBF00000001

>  <PUBCHEM_MMFF94_ENERGY>  (1) 
39.4054

>  <PUBCHEM_FEATURE_SELFOVERLAP>  (1) 
25.371

>  <PUBCHEM_SHAPE_FINGERPRINT>  (1) 
10595046 47 18334298699344263092
10616163 171 18411699881143654343
11046707 91 18342739637188555721
11128504 68 17748829630846441212
11315181 36 18201721734634591040
11405975 8 18273497879339219601
11545043 162 17917708002412163770
11796584 16 18271244924310946758
11809386 21 18334852827487677363
12236239 1 18333733503307185348
12616971 3 18113629962354784156
12760667 363 18342454898575231567
12916748 109 8862653629554287976
12969540 114 14996282539131318328
13167823 11 18334295366185481292
13288520 33 18413389817271590709
13785724 45 9436921913319171100
14123255 352 7997980063331182895
14251751 18 18272086119404514674
14251764 30 17972327480438629251
14252887 29 15482676749870983900
14386348 63 17132114623873225388
14576447 43 18187362143088410266
15250474 111 18260535702194148498
15537594 2 18261114045658083107
15788980 27 18261116253181348584
17834072 33 18261115171129268908
17844677 252 18272373083080768360
17870717 6 18272095972175393605
18186145 218 15864074282003488816
18681886 176 18410008858593824082
18915474 69 18334295396139547604
193927 3 17632304488025262980
19489759 90 17775000138086773025
200 152 18114185211695477360
20374829 77 18342175578985781527
20432913 95 15554448487416712764
20645477 70 15502653742255228776
21054139 6 18260264157851524570
21267235 1 18408606985468626259
21709351 56 17749107764491524860
220451 1 18335991874236288536
23175994 123 16917067767853027617
23402539 116 17676771989632613796
23402655 69 17749106634730840644
23557571 272 17773877502408089496
23559900 14 18270669965624087633
25122255 55 18059023782919516750
26918003 58 17489585636825077568
270888 7 8501835678065994623
29717793 49 18262243223057112284
3004659 81 18259700108048468810
314173 85 16271932601278105768
338550 245 18410858742058936478
351380 3 18410855507626581351
4214541 1 18410573963877458069
44062 13 18413106165221175903
5104073 3 18059858397611335105
559249 180 18409445848041524463
573450 72 18408600336099700737
58051976 100 18410570687044037277
633830 44 16660648414380977481
67856867 119 18335702788789214684
7495541 125 18060416941582392464
7970288 3 18123746723973197839

>  <PUBCHEM_SHAPE_MULTIPOLES>  (1) 
369.31
14.57
2.15
1
7.01
1.06
-0.04
6.85
2.18
-3.95
0.15
0.79
-0.04
-0.88

>  <PUBCHEM_SHAPE_SELFOVERLAP>  (1) 
759.803

>  <PUBCHEM_SHAPE_VOLUME>  (1) 
212.6

>  <PUBCHEM_COORDINATE_TYPE>  (1) 
2
5
10

$$$$
