36547
     RDKit          3D

 20 21  0  0  1  0  0  0  0  0999 V2000
   -0.2394   -0.6415   -0.8740 O   0  0  0  0  0  0  0  0  0  0  0  0
   -0.3211   -0.2473    1.3925 O   0  0  0  0  0  0  0  0  0  0  0  0
    3.8733   -2.1297   -0.0535 O   0  0  0  0  0  0  0  0  0  0  0  0
    1.9682   -2.1427    1.1862 O   0  0  0  0  0  0  0  0  0  0  0  0
   -1.4811   -1.3506   -0.8051 C   0  0  0  0  0  0  0  0  0  0  0  0
   -2.5550   -0.4254   -0.2841 C   0  0  0  0  0  0  0  0  0  0  0  0
   -1.8241   -1.9084   -2.1820 C   0  0  0  0  0  0  0  0  0  0  0  0
   -2.4808    0.9287   -0.5684 C   0  0  0  0  0  0  0  0  0  0  0  0
   -3.5941   -0.9479    0.4687 C   0  0  0  0  0  0  0  0  0  0  0  0
    1.5075    0.5658    0.0965 C   0  0  0  0  0  0  0  0  0  0  0  0
    0.2442   -0.1315    0.2989 C   0  0  0  0  0  0  0  0  0  0  0  0
    2.7278   -0.1027    0.1938 C   0  0  0  0  0  0  0  0  0  0  0  0
   -3.4726    1.7832   -0.0869 C   0  0  0  0  0  0  0  0  0  0  0  0
   -4.5860   -0.0934    0.9502 C   0  0  0  0  0  0  0  0  0  0  0  0
    1.4804    1.9284   -0.2003 C   0  0  0  0  0  0  0  0  0  0  0  0
   -4.5253    1.2722    0.6723 C   0  0  0  0  0  0  0  0  0  0  0  0
    3.9212    0.5915   -0.0056 C   0  0  0  0  0  0  0  0  0  0  0  0
    2.6737    2.6226   -0.3997 C   0  0  0  0  0  0  0  0  0  0  0  0
    3.8941    1.9542   -0.3023 C   0  0  0  0  0  0  0  0  0  0  0  0
    2.7891   -1.5254    0.5028 C   0  0  0  0  0  0  0  0  0  0  0  0
  1  5  1  0
  1 11  1  0
  2 11  2  0
  3 20  1  0
  4 20  2  0
  5  6  1  0
  5  7  1  0
  6  8  2  0
  6  9  1  0
  8 13  1  0
  9 14  2  0
 10 11  1  0
 10 12  2  0
 10 15  1  0
 12 17  1  0
 12 20  1  0
 13 16  2  0
 14 16  1  0
 15 18  2  0
 17 19  2  0
 18 19  1  0
M  END
>  <PUBCHEM_COMPOUND_CID>  (1) 
36547

>  <PUBCHEM_CONFORMER_RMSD>  (1) 
0.8

>  <PUBCHEM_CONFORMER_DIVERSEORDER>  (1) 
6
40
28
48
10
38
39
47
30
4
34
2
13
43
12
8
32
5
46
1
22
25
20
26
3
31
7
45
17
19
21
24
41
49
44
42
15
27
9
36
16
33
14
18
23
50
11
29
35
37

>  <PUBCHEM_MMFF94_PARTIAL_CHARGES>  (1) 
29
1 -0.43
10 0.09
11 0.63
12 0.09
13 -0.15
14 -0.15
15 -0.15
16 -0.15
17 -0.15
18 -0.15
19 -0.15
2 -0.57
20 0.63
25 0.15
26 0.15
27 0.15
28 0.15
29 0.15
3 -0.65
30 0.15
31 0.15
32 0.15
33 0.15
34 0.5
4 -0.57
5 0.42
6 -0.14
8 -0.15
9 -0.15

>  <PUBCHEM_EFFECTIVE_ROTOR_COUNT>  (1) 
5

>  <PUBCHEM_PHARMACOPHORE_FEATURES>  (1) 
6
1 2 acceptor
1 3 acceptor
1 4 acceptor
3 3 4 20 anion
6 10 12 15 17 18 19 rings
6 6 8 9 13 14 16 rings

>  <PUBCHEM_HEAVY_ATOM_COUNT>  (1) 
20

>  <PUBCHEM_ATOM_DEF_STEREO_COUNT>  (1) 
0

>  <PUBCHEM_ATOM_UDEF_STEREO_COUNT>  (1) 
1

>  <PUBCHEM_BOND_DEF_STEREO_COUNT>  (1) 
0

>  <PUBCHEM_BOND_UDEF_STEREO_COUNT>  (1) 
0

>  <PUBCHEM_ISOTOPIC_ATOM_COUNT>  (1) 
0

>  <PUBCHEM_COMPONENT_COUNT>  (1) 
1

>  <PUBCHEM_CACTVS_TAUTO_COUNT>  (1) 
1

>  <PUBCHEM_CONFORMER_ID>  (1) 
00008EC300000006

>  <PUBCHEM_MMFF94_ENERGY>  (1) 
66.9431

>  <PUBCHEM_FEATURE_SELFOVERLAP>  (1) 
30.506

>  <PUBCHEM_SHAPE_FINGERPRINT>  (1) 
10759866 29 18411428327245978856
12107183 9 17977667515881311041
12236239 1 18202848772897339682
12507560 40 18186802457310146925
12553582 1 18119513359308377458
12670546 56 18409445890996459131
12788726 201 17417825993169289897
12892183 10 18187937187653666059
13224815 77 12252184052204892407
13583140 156 18114457852066820111
13675066 3 18272364256880432650
14178342 30 18053642940400587914
14289901 80 18335984263448725875
14341114 176 18261685796294775889
14790565 3 18117569646157665860
15442244 35 18338515227451965496
15842332 3 18198886166907988150
16752209 62 17060065791637068953
17492 89 18410295813295482211
18186145 218 17676482826569283250
201361 129 18335982051519533948
20233049 118 17632578257756980400
20645476 183 18201720703768528471
20739085 24 17967532415424021780
21065199 12 18259708899973137529
21503847 285 18335141955737043016
21652331 79 18336267928927829045
22094290 62 18411696560869872141
22854114 111 18335702775323537664
23559900 14 18336262353685245626
23566358 27 18334862757314753350
23598291 2 18342446067183286166
25 1 18261392316826346352
312423 11 18341606066333317087
3323516 105 17968099694197477522
34934 24 18201717388254261704
474 4 18042686285280871220
4921388 177 14333404588876408229
5104073 3 18335421257539540857
6049 1 17241033323667843270
6287921 2 17823428260496261060
633830 44 18187080650356713411
7097593 13 18409721837954978231
74978 22 17417519328266688635
7615 1 18127950070340192967
77779 3 18408045108745241609
7832392 63 18341608256719080524
8272917 22 18410019818596281690
84936 182 18055629775171430968
90525 40 18202279217094462743
9709674 26 18260837032888720227

>  <PUBCHEM_SHAPE_MULTIPOLES>  (1) 
388.11
8.85
2.52
1.18
2.42
0.15
0.32
2.21
-1.38
-1.64
0.39
0.7
-0.63
-1.19

>  <PUBCHEM_SHAPE_SELFOVERLAP>  (1) 
838.675

>  <PUBCHEM_SHAPE_VOLUME>  (1) 
211.9

>  <PUBCHEM_COORDINATE_TYPE>  (1) 
2
5
10

$$$$
