36553
     RDKit          3D

 12 11  0  0  0  0  0  0  0  0999 V2000
    1.3576    0.0041   -0.0508 Si  0  0  0  0  0  4  0  0  0  0  0  0
    2.5463    0.0056    1.1335 O   0  0  0  0  0  0  0  0  0  0  0  0
    1.5252    1.3718   -1.0067 O   0  0  0  0  0  0  0  0  0  0  0  0
    1.5567   -1.3580   -1.0098 O   0  0  0  0  0  0  0  0  0  0  0  0
   -3.9144    0.0013   -0.3812 O   0  0  0  0  0  0  0  0  0  0  0  0
   -0.3336   -0.0273    0.7667 C   0  0  0  0  0  0  0  0  0  0  0  0
   -1.5263   -0.0315   -0.1919 C   0  0  0  0  0  0  0  0  0  0  0  0
   -2.8505   -0.0088    0.5607 C   0  0  0  0  0  0  0  0  0  0  0  0
    3.9137    0.0277    0.7483 C   0  0  0  0  0  0  0  0  0  0  0  0
    1.4192    2.6583   -0.4145 C   0  0  0  0  0  0  0  0  0  0  0  0
    1.4877   -2.6469   -0.4171 C   0  0  0  0  0  0  0  0  0  0  0  0
   -5.1815    0.0036    0.2626 C   0  0  0  0  0  0  0  0  0  0  0  0
  1  2  1  0
  1  3  1  0
  1  4  1  0
  1  6  1  0
  2  9  1  0
  3 10  1  0
  4 11  1  0
  5  8  1  0
  5 12  1  0
  6  7  1  0
  7  8  1  0
M  END
>  <PUBCHEM_COMPOUND_CID>  (1) 
36553

>  <PUBCHEM_CONFORMER_RMSD>  (1) 
0.8

>  <PUBCHEM_CONFORMER_DIVERSEORDER>  (1) 
1
12
25
23
19
9
7
16
22
14
26
24
17
6
8
21
11
18
13
10
5
2
15
20
4
3

>  <PUBCHEM_MMFF94_PARTIAL_CHARGES>  (1) 
11
1 0.97
10 0.28
11 0.28
12 0.28
2 -0.58
3 -0.58
4 -0.58
5 -0.56
6 -0.08
8 0.28
9 0.28

>  <PUBCHEM_EFFECTIVE_ROTOR_COUNT>  (1) 
7

>  <PUBCHEM_PHARMACOPHORE_FEATURES>  (1) 
1
1 5 acceptor

>  <PUBCHEM_HEAVY_ATOM_COUNT>  (1) 
12

>  <PUBCHEM_ATOM_DEF_STEREO_COUNT>  (1) 
0

>  <PUBCHEM_ATOM_UDEF_STEREO_COUNT>  (1) 
0

>  <PUBCHEM_BOND_DEF_STEREO_COUNT>  (1) 
0

>  <PUBCHEM_BOND_UDEF_STEREO_COUNT>  (1) 
0

>  <PUBCHEM_ISOTOPIC_ATOM_COUNT>  (1) 
0

>  <PUBCHEM_COMPONENT_COUNT>  (1) 
1

>  <PUBCHEM_CACTVS_TAUTO_COUNT>  (1) 
1

>  <PUBCHEM_CONFORMER_ID>  (1) 
00008EC900000001

>  <PUBCHEM_MMFF94_ENERGY>  (1) 
18.0348

>  <PUBCHEM_FEATURE_SELFOVERLAP>  (1) 
5.074

>  <PUBCHEM_SHAPE_FINGERPRINT>  (1) 
10219947 1 18410290311652586538
12346645 6 18409451426792754348
13922767 16 18113613499808279617
14251717 144 18411983559343311111
14252887 29 18336267851254102907
14344429 50 17675925404212320144
14993402 34 18411143571583796884
15477762 27 18411141307650852103
18186145 218 17748830709479240457
20201158 50 18407762525551047459
20279233 1 18334582334805561699
20511035 2 17753058473026340616
20559304 39 18412550902990455201
20606313 2 18334859428435445829
20645477 70 18334015025454761047
20871998 22 18263926540334925382
21730867 7 17775564221510412946
23402539 116 18261659433510985279
3060560 45 18339374053365048700
3248919 1 18339654399065956075
58051976 378 18413106182585869231
9999458 23 17631720664847242768

>  <PUBCHEM_SHAPE_MULTIPOLES>  (1) 
241.69
7.4
2.06
1.01
11.38
0.03
-0.04
-0.01
-1.33
-2.07
0.75
-0.51
0
0.02

>  <PUBCHEM_SHAPE_SELFOVERLAP>  (1) 
427.471

>  <PUBCHEM_SHAPE_VOLUME>  (1) 
159.1

>  <PUBCHEM_COORDINATE_TYPE>  (1) 
2
5
10

$$$$
