36550
     RDKit          3D

 13 13  0  0  0  0  0  0  0  0999 V2000
    2.2005    2.9738    0.1223 Cl  0  0  0  0  0  0  0  0  0  0  0  0
    3.6402   -2.2279    0.1415 Cl  0  0  0  0  0  0  0  0  0  0  0  0
   -4.6860   -0.3067    0.9604 Cl  0  0  0  0  0  0  0  0  0  0  0  0
   -2.3942    1.2752   -0.2666 O   0  0  0  0  0  0  0  0  0  0  0  0
   -1.2551   -0.7843   -0.2312 N   0  0  0  0  0  0  0  0  0  0  0  0
    0.0847   -0.4126   -0.1148 C   0  0  0  0  0  0  0  0  0  0  0  0
    1.0765   -1.3912   -0.0522 C   0  0  0  0  0  0  0  0  0  0  0  0
    0.4325    0.9371   -0.0612 C   0  0  0  0  0  0  0  0  0  0  0  0
    1.7721    1.3083    0.0551 C   0  0  0  0  0  0  0  0  0  0  0  0
    2.4162   -1.0203    0.0641 C   0  0  0  0  0  0  0  0  0  0  0  0
    2.7641    0.3295    0.1178 C   0  0  0  0  0  0  0  0  0  0  0  0
   -2.3806    0.0476   -0.3075 C   0  0  0  0  0  0  0  0  0  0  0  0
   -3.6709   -0.7284   -0.4277 C   0  0  0  0  0  0  0  0  0  0  0  0
  1  9  1  0
  2 10  1  0
  3 13  1  0
  4 12  2  0
  5  6  1  0
  5 12  1  0
  6  7  2  0
  6  8  1  0
  7 10  1  0
  8  9  2  0
  9 11  1  0
 10 11  2  0
 12 13  1  0
M  END
>  <PUBCHEM_COMPOUND_CID>  (1) 
36550

>  <PUBCHEM_CONFORMER_RMSD>  (1) 
0.6

>  <PUBCHEM_CONFORMER_DIVERSEORDER>  (1) 
1
4
3
5
2

>  <PUBCHEM_MMFF94_PARTIAL_CHARGES>  (1) 
17
1 -0.18
10 0.18
11 -0.15
12 0.57
13 0.35
14 0.15
15 0.15
16 0.37
17 0.15
2 -0.18
3 -0.29
4 -0.57
5 -0.55
6 0.12
7 -0.15
8 -0.15
9 0.18

>  <PUBCHEM_EFFECTIVE_ROTOR_COUNT>  (1) 
3

>  <PUBCHEM_PHARMACOPHORE_FEATURES>  (1) 
3
1 4 acceptor
1 5 donor
6 6 7 8 9 10 11 rings

>  <PUBCHEM_HEAVY_ATOM_COUNT>  (1) 
13

>  <PUBCHEM_ATOM_DEF_STEREO_COUNT>  (1) 
0

>  <PUBCHEM_ATOM_UDEF_STEREO_COUNT>  (1) 
0

>  <PUBCHEM_BOND_DEF_STEREO_COUNT>  (1) 
0

>  <PUBCHEM_BOND_UDEF_STEREO_COUNT>  (1) 
0

>  <PUBCHEM_ISOTOPIC_ATOM_COUNT>  (1) 
0

>  <PUBCHEM_COMPONENT_COUNT>  (1) 
1

>  <PUBCHEM_CACTVS_TAUTO_COUNT>  (1) 
2

>  <PUBCHEM_CONFORMER_ID>  (1) 
00008EC600000001

>  <PUBCHEM_MMFF94_ENERGY>  (1) 
30.4415

>  <PUBCHEM_FEATURE_SELFOVERLAP>  (1) 
15.223

>  <PUBCHEM_SHAPE_FINGERPRINT>  (1) 
10608611 8 18335413582617773869
10980938 120 18340200903188907884
11471102 20 18410851062271606911
11543360 7 15719690778625384550
12032990 46 18338517409379916782
12644460 14 18335423503997307760
12932764 1 17703500086500939869
13380535 21 18193280908121408687
13380535 76 18120083138069180736
13380536 305 18339646741070701806
14252887 29 18201155430538895842
14325111 11 18410852183416352645
14344429 50 18410580591164613102
15442244 35 18341050705328404240
15501101 241 18333167275708310892
15775835 57 18129103505519785765
16945 1 18338791316655452204
17844478 74 18113899355894186501
18186145 218 18271809046695208573
20339313 130 18342177717979955538
20559304 39 18411981373194485760
20645477 70 18337096926419674295
20671657 1 18341051929678900780
20708731 107 18260554437252216036
20871998 22 18127977395397176078
21041028 32 18341898428909743513
21501502 16 18198617924873144335
21501925 9 18338784646487111874
21524375 3 17911797191532327844
221490 88 18335707181907469859
2255824 54 18411701014962013206
22854114 111 18339923826216568769
22959321 4 18410572903183786871
23402655 69 18413100663357565877
2748010 2 18195789788046105172
3071541 12 18339643451310733052
3071541 37 18263086659944624276
3286 77 18260829276193308831
449060 62 18268996560281304597
54173680 148 17689995640102169454
6049 1 18040428880750876493
7364860 26 18341047510368601612
81228 2 17763754191645044264

>  <PUBCHEM_SHAPE_MULTIPOLES>  (1) 
262.29
7.36
2.43
0.73
8.03
1.25
-0.07
-2.14
-1.27
-3.34
-0.1
0.4
-0.03
0.01

>  <PUBCHEM_SHAPE_SELFOVERLAP>  (1) 
513.682

>  <PUBCHEM_SHAPE_VOLUME>  (1) 
159.9

>  <PUBCHEM_COORDINATE_TYPE>  (1) 
2
5
10

$$$$
