3655
     RDKit          3D

 16 18  0  0  1  0  0  0  0  0999 V2000
    2.6641    1.5876   -1.0540 O   0  0  0  0  0  0  0  0  0  0  0  0
   -0.3055   -1.6456   -0.0383 N   0  0  0  0  0  0  0  0  0  0  0  0
   -0.0052    2.5281    0.2504 N   0  0  0  0  0  0  0  0  0  0  0  0
    2.4043    1.0069    0.2234 C   0  0  0  0  0  0  0  0  0  0  0  0
    3.5327    0.0347    0.5797 C   0  0  0  0  0  0  0  0  0  0  0  0
    3.4153   -1.2509   -0.2353 C   0  0  0  0  0  0  0  0  0  0  0  0
    1.0548    0.3444    0.1567 C   0  0  0  0  0  0  0  0  0  0  0  0
    2.0978   -1.9557    0.0780 C   0  0  0  0  0  0  0  0  0  0  0  0
    0.9055   -1.0364    0.0457 C   0  0  0  0  0  0  0  0  0  0  0  0
   -0.1095    1.1148    0.1585 C   0  0  0  0  0  0  0  0  0  0  0  0
   -1.3686    0.5093    0.0660 C   0  0  0  0  0  0  0  0  0  0  0  0
   -1.4207   -0.8931   -0.0321 C   0  0  0  0  0  0  0  0  0  0  0  0
   -2.5531    1.2658    0.0684 C   0  0  0  0  0  0  0  0  0  0  0  0
   -2.6712   -1.4983   -0.1230 C   0  0  0  0  0  0  0  0  0  0  0  0
   -3.7909    0.6365   -0.0244 C   0  0  0  0  0  0  0  0  0  0  0  0
   -3.8497   -0.7481   -0.1199 C   0  0  0  0  0  0  0  0  0  0  0  0
  1  4  1  0
  2  9  2  0
  2 12  1  0
  3 10  1  0
  4  5  1  0
  4  7  1  0
  5  6  1  0
  6  8  1  0
  7  9  1  0
  7 10  2  0
  8  9  1  0
 10 11  1  0
 11 12  2  0
 11 13  1  0
 12 14  1  0
 13 15  2  0
 14 16  2  0
 15 16  1  0
M  END
>  <PUBCHEM_COMPOUND_CID>  (1) 
3655

>  <PUBCHEM_CONFORMER_RMSD>  (1) 
0.4

>  <PUBCHEM_CONFORMER_DIVERSEORDER>  (1) 
2
1

>  <PUBCHEM_MMFF94_PARTIAL_CHARGES>  (1) 
20
1 -0.68
10 0.1
12 0.31
13 -0.15
14 -0.15
15 -0.15
16 -0.15
2 -0.62
24 0.4
25 0.15
26 0.4
27 0.4
28 0.15
29 0.15
3 -0.9
30 0.15
4 0.42
7 -0.14
8 0.14
9 0.17

>  <PUBCHEM_EFFECTIVE_ROTOR_COUNT>  (1) 
0.8

>  <PUBCHEM_PHARMACOPHORE_FEATURES>  (1) 
8
1 1 acceptor
1 1 donor
1 2 acceptor
1 3 cation
1 3 donor
6 11 12 13 14 15 16 rings
6 2 7 9 10 11 12 rings
6 4 5 6 7 8 9 rings

>  <PUBCHEM_HEAVY_ATOM_COUNT>  (1) 
16

>  <PUBCHEM_ATOM_DEF_STEREO_COUNT>  (1) 
0

>  <PUBCHEM_ATOM_UDEF_STEREO_COUNT>  (1) 
1

>  <PUBCHEM_BOND_DEF_STEREO_COUNT>  (1) 
0

>  <PUBCHEM_BOND_UDEF_STEREO_COUNT>  (1) 
0

>  <PUBCHEM_ISOTOPIC_ATOM_COUNT>  (1) 
0

>  <PUBCHEM_COMPONENT_COUNT>  (1) 
1

>  <PUBCHEM_CACTVS_TAUTO_COUNT>  (1) 
5

>  <PUBCHEM_CONFORMER_ID>  (1) 
00000E4700000002

>  <PUBCHEM_MMFF94_ENERGY>  (1) 
56.2589

>  <PUBCHEM_FEATURE_SELFOVERLAP>  (1) 
40.65

>  <PUBCHEM_SHAPE_FINGERPRINT>  (1) 
10062212 137 18411409614242138827
10411042 1 15529397928566839045
10608611 8 18411131424799228633
10618630 7 18411698760014265026
10922523 26 18410290281134251831
10967382 1 18411417332092388051
10980938 120 18411700997476162842
11132069 177 18411974758770503937
11471102 20 18410849958285696207
11806522 49 18339635758892411215
12032990 46 18411985749634265635
12382932 28 18341327829466119602
13140716 1 18339643334871726403
13221675 6 18412260653442830203
13296908 3 18411138030506428635
13380535 76 18410290328384569435
14144814 61 18412543219309462275
14325111 11 18411136939552898545
15196674 1 18411698776972627171
15219456 202 18413386518773650147
15442244 35 18195245507862007802
15536298 74 18343863303638635810
16945 1 18196089073840683579
17804303 29 18198904717335677002
18186145 218 17895189995796256535
19422 9 18411422816981792395
19591789 44 15956690896776486523
200 152 17988630914099915719
20510252 161 18201717301922347689
20559304 39 18410574028375612640
20645476 183 17897459508234399502
20645477 70 18412822461114559031
21267235 1 18411427202022543531
21501502 16 18410857672284369039
21501925 9 18410283714261248434
221490 88 18335991964067001258
2255824 54 18113339713160658426
2334 1 18411701010482345027
23402539 116 18272920614058885646
23463225 33 18410009922870149914
23552423 10 18334576828156211114
23559900 14 18269830922598895266
2748010 2 18412261722731424919
335352 9 17979354166338569399
34934 24 18340194233083591707
5104073 3 18411980252012772227
528886 8 18412256229367955283
537710 114 18411985775430430145
53812653 166 18272644692453887280
57096353 35 18339641264765938199
69090 78 18272362066874431407
7364860 26 18270396217235195200
8809292 202 18334017202634331075
9709674 26 18411140250830837094

>  <PUBCHEM_SHAPE_MULTIPOLES>  (1) 
313.44
6.39
2.13
0.69
1.2
0.28
0.04
-0.78
0.15
-0.37
0.07
-0.23
0.09
-0.19

>  <PUBCHEM_SHAPE_SELFOVERLAP>  (1) 
694.509

>  <PUBCHEM_SHAPE_VOLUME>  (1) 
167.1

>  <PUBCHEM_COORDINATE_TYPE>  (1) 
2
5
10

$$$$
