36564
     RDKit          3D

 22 23  0  0  1  0  0  0  0  0999 V2000
   -4.1400    1.2217    0.2870 O   0  0  0  0  0  0  0  0  0  0  0  0
   -1.5424   -2.7724    0.3598 O   0  0  0  0  0  0  0  0  0  0  0  0
   -5.8053    0.5239   -1.1378 O   0  0  0  0  0  0  0  0  0  0  0  0
    4.9092   -0.2838   -0.7305 O   0  0  0  0  0  0  0  0  0  0  0  0
    6.8351    0.2273    0.4387 O   0  0  0  0  0  0  0  0  0  0  0  0
   -2.8094   -0.7166    0.3877 C   0  0  0  0  0  0  0  0  0  0  0  0
   -1.4415   -1.3576    0.1323 C   0  0  0  0  0  0  0  0  0  0  0  0
   -2.7937    0.7907    0.5925 C   0  0  0  0  0  0  0  0  0  0  0  0
   -0.2962   -0.8560    1.0438 C   0  0  0  0  0  0  0  0  0  0  0  0
   -1.8233    1.5716   -0.2964 C   0  0  0  0  0  0  0  0  0  0  0  0
    0.2928    0.5101    0.6908 C   0  0  0  0  0  0  0  0  0  0  0  0
   -0.3502    1.5219    0.0572 C   0  0  0  0  0  0  0  0  0  0  0  0
   -3.8260   -0.8022   -0.7131 C   0  0  0  0  0  0  0  0  0  0  0  0
    1.7591    0.6219    1.0671 C   0  0  0  0  0  0  0  0  0  0  0  0
   -0.6262   -0.9706    2.5420 C   0  0  0  0  0  0  0  0  0  0  0  0
   -4.7319    0.3598   -0.5877 C   0  0  0  0  0  0  0  0  0  0  0  0
    0.3667    2.7727   -0.4116 C   0  0  0  0  0  0  0  0  0  0  0  0
    2.6453    0.0768   -0.0365 C   0  0  0  0  0  0  0  0  0  0  0  0
   -3.9685   -1.6539   -1.7323 C   0  0  0  0  0  0  0  0  0  0  0  0
    4.1150    0.2238    0.3329 C   0  0  0  0  0  0  0  0  0  0  0  0
    6.2631   -0.2207   -0.5458 C   0  0  0  0  0  0  0  0  0  0  0  0
    6.9682   -0.7884   -1.7402 C   0  0  0  0  0  0  0  0  0  0  0  0
  1  8  1  0
  1 16  1  0
  2  7  1  0
  3 16  2  0
  4 20  1  0
  4 21  1  0
  5 21  2  0
  6  7  1  0
  6  8  1  0
  6 13  1  0
  7  9  1  0
  8 10  1  0
  9 11  1  0
  9 15  1  0
 10 12  1  0
 11 12  2  0
 11 14  1  0
 12 17  1  0
 13 16  1  0
 13 19  2  0
 14 18  1  0
 18 20  1  0
 21 22  1  0
M  END
>  <PUBCHEM_COMPOUND_CID>  (1) 
36564

>  <PUBCHEM_CONFORMER_RMSD>  (1) 
0.8

>  <PUBCHEM_CONFORMER_DIVERSEORDER>  (1) 
1
143
453
273
469
197
20
425
252
474
335
216
170
205
340
53
184
186
97
151
491
317
477
195
153
46
445
465
352
261
56
416
467
102
264
237
343
54
379
464
142
129
309
409
17
112
241
111
357
407
188
449
104
68
310
86
435
404
362
299
382
433
183
136
236
296
371
487
295
59
459
418
10
9
412
126
373
105
217
441
372
489
51
276
96
271
215
359
33
87
413
287
348
414
452
301
23
351
275
300
417
207
286
48
311
138
191
213
90
3
98
457
316
244
167
334
268
355
94
456
164
185
45
133
225
484
66
147
341
228
458
397
212
284
377
254
438
320
485
92
64
35
472
125
52
222
448
324
384
158
481
128
63
270
258
476
93
214
480
110
162
203
279
260
431
239
406
248
330
194
483
332
210
15
375
424
283
325
206
120
336
305
444
259
405
288
144
2
402
79
160
62
297
189
208
398
4
312
368
478
265
177
155
227
394
165
221
442
38
366
439
466
130
42
6
233
118
347
428
408
376
44
182
443
28
132
116
479
127
58
69
446
199
25
27
117
306
370
345
470
333
198
220
157
386
106
421
463
399
262
40
168
32
392
13
204
245
401
114
181
250
119
5
391
81
187
461
67
274
251
39
437
192
34
396
131
22
175
190
432
346
230
91
200
135
247
436
403
224
73
473
411
381
78
124
363
350
482
12
422
179
55
24
374
8
420
176
294
152
451
488
278
492
385
281
361
354
218
367
267
450
173
65
70
365
328
358
26
156
493
74
47
455
29
280
77
201
257
393
263
490
353
471
19
159
326
400
282
423
37
80
115
242
71
426
349
180
60
76
174
148
454
364
369
338
166
322
315
154
231
107
468
293
292
41
30
323
307
43
380
193
344
146
161
462
460
49
122
243
356
429
172
304
249
235
100
31
134
82
410
21
434
389
61
331
303
150
234
108
50
329
223
302
337
427
209
246
291
318
419
387
178
57
390
266
285
240
16
395
36
85
72
123
171
378
163
113
95
169
137
486
415
121
14
196
139
430
89
342
269
272
383
84
232
229
314
75
290
140
277
149
321
141
99
253
447
313
308
339
219
360
103
11
211
88
83
255
289
298
109
7
202
145
101
256
18
475
238
440
388
327
319
226

>  <PUBCHEM_MMFF94_PARTIAL_CHARGES>  (1) 
23
1 -0.43
10 0.14
11 -0.28
12 -0.28
13 -0.12
14 0.14
16 0.71
17 0.14
19 -0.3
2 -0.68
20 0.28
21 0.66
22 0.06
3 -0.57
37 0.4
4 -0.43
40 0.15
41 0.15
5 -0.57
6 0.14
7 0.28
8 0.28
9 0.14

>  <PUBCHEM_EFFECTIVE_ROTOR_COUNT>  (1) 
5.8

>  <PUBCHEM_PHARMACOPHORE_FEATURES>  (1) 
6
1 2 acceptor
1 2 donor
1 3 acceptor
1 5 acceptor
5 1 6 8 13 16 rings
7 6 7 8 9 10 11 12 rings

>  <PUBCHEM_HEAVY_ATOM_COUNT>  (1) 
22

>  <PUBCHEM_ATOM_DEF_STEREO_COUNT>  (1) 
0

>  <PUBCHEM_ATOM_UDEF_STEREO_COUNT>  (1) 
4

>  <PUBCHEM_BOND_DEF_STEREO_COUNT>  (1) 
0

>  <PUBCHEM_BOND_UDEF_STEREO_COUNT>  (1) 
0

>  <PUBCHEM_ISOTOPIC_ATOM_COUNT>  (1) 
0

>  <PUBCHEM_COMPONENT_COUNT>  (1) 
1

>  <PUBCHEM_CACTVS_TAUTO_COUNT>  (1) 
1

>  <PUBCHEM_CONFORMER_ID>  (1) 
00008ED400000001

>  <PUBCHEM_MMFF94_ENERGY>  (1) 
47.2831

>  <PUBCHEM_FEATURE_SELFOVERLAP>  (1) 
30.483

>  <PUBCHEM_SHAPE_FINGERPRINT>  (1) 
10 15 9943517493727899766
10165383 225 16515401859590258547
11315181 36 17417816158210353616
11578080 2 10158606148264781963
12011746 2 18411976953546362469
12236239 1 16877944936607677216
12788726 201 18114460055406480032
12954195 1 18200594687797679753
13288520 33 17775284971627370461
13533116 47 15841549683250696474
13544592 145 18272083933165837064
14251751 18 17346313864219621246
14848160 23 16917348139144312526
15048467 5 15213016029647782917
15183329 4 18335984190782668362
16945 1 17605246602768119641
17492 89 17912354639711790735
17834072 8 18334573551006389581
17870717 6 18412554210273366390
19489759 90 18202003218264156208
19784866 240 17346605175056547992
19958102 18 18260827056339256478
200 152 16559032679697769266
20374829 77 18342453751253986808
20871999 31 18187363207934545844
21033648 29 13046238238246571748
21267235 1 18411417358880270999
21637258 2 16559022783919032964
22224240 67 8718825388412341541
23198884 109 18408323285123843294
23379529 103 17767114681248059951
23402539 116 18407758131947183668
23559900 14 17845642763448675632
26918003 58 16200433571947327104
2838139 119 14345788366590847622
2916195 48 11891330963414551158
335352 9 18409726271073189717
3759504 43 16660365904443457323
392239 28 8430306978863200647
59682541 35 10881693386218426101
59755656 215 18339929221539745606
59755656 520 16587743144275603938
9709674 26 18125432266333116529

>  <PUBCHEM_SHAPE_MULTIPOLES>  (1) 
423.4
14.12
2
1.51
25.48
0.24
0.37
-2.56
-7.79
-1.47
-0.23
-0.03
-0.62
0.31

>  <PUBCHEM_SHAPE_SELFOVERLAP>  (1) 
869.954

>  <PUBCHEM_SHAPE_VOLUME>  (1) 
243.2

>  <PUBCHEM_COORDINATE_TYPE>  (1) 
2
5
10

$$$$
