36561
     RDKit          3D

 13 12  0  0  1  0  0  0  0  0999 V2000
    0.2959    2.6965   -1.0483 S   0  0  0  0  0  0  0  0  0  0  0  0
   -0.2282    1.3906    2.1553 S   0  0  0  0  0  0  0  0  0  0  0  0
   -0.2192    1.0713    0.2218 P   0  0  0  0  0  0  0  0  0  0  0  0
    0.7907   -0.1619   -0.1248 O   0  0  0  0  0  0  0  0  0  0  0  0
   -1.6266    0.4358   -0.3115 O   0  0  0  0  0  0  0  0  0  0  0  0
    2.1809   -0.0654    0.1727 C   0  0  0  0  0  0  0  0  0  0  0  0
   -2.1246   -0.7674    0.2490 C   0  0  0  0  0  0  0  0  0  0  0  0
    2.8698   -1.3733   -0.2221 C   0  0  0  0  0  0  0  0  0  0  0  0
   -3.4653   -1.1077   -0.4051 C   0  0  0  0  0  0  0  0  0  0  0  0
    2.7657    1.1172   -0.5878 C   0  0  0  0  0  0  0  0  0  0  0  0
   -1.1040   -1.8747    0.0231 C   0  0  0  0  0  0  0  0  0  0  0  0
    4.3573   -1.3636    0.1051 C   0  0  0  0  0  0  0  0  0  0  0  0
   -4.4925    0.0026   -0.2274 C   0  0  0  0  0  0  0  0  0  0  0  0
  1  3  1  0
  2  3  2  0
  3  4  1  0
  3  5  1  0
  4  6  1  0
  5  7  1  0
  6  8  1  0
  6 10  1  0
  7  9  1  0
  7 11  1  0
  8 12  1  0
  9 13  1  0
M  END
>  <PUBCHEM_COMPOUND_CID>  (1) 
36561

>  <PUBCHEM_CONFORMER_RMSD>  (1) 
0.6

>  <PUBCHEM_CONFORMER_DIVERSEORDER>  (1) 
5
13
29
21
54
16
39
46
48
56
23
50
42
32
20
62
24
40
55
7
27
1
44
47
17
49
12
18
33
31
19
57
58
37
6
28
30
52
53
51
45
63
35
14
8
3
60
34
22
43
9
61
36
38
41
59
11
2
25
26
10
15
4

>  <PUBCHEM_MMFF94_PARTIAL_CHARGES>  (1) 
8
1 -0.43
2 -0.68
3 1.47
32 0.18
4 -0.55
5 -0.55
6 0.28
7 0.28

>  <PUBCHEM_EFFECTIVE_ROTOR_COUNT>  (1) 
6

>  <PUBCHEM_PHARMACOPHORE_FEATURES>  (1) 
2
1 12 hydrophobe
1 13 hydrophobe

>  <PUBCHEM_HEAVY_ATOM_COUNT>  (1) 
13

>  <PUBCHEM_ATOM_DEF_STEREO_COUNT>  (1) 
0

>  <PUBCHEM_ATOM_UDEF_STEREO_COUNT>  (1) 
2

>  <PUBCHEM_BOND_DEF_STEREO_COUNT>  (1) 
0

>  <PUBCHEM_BOND_UDEF_STEREO_COUNT>  (1) 
0

>  <PUBCHEM_ISOTOPIC_ATOM_COUNT>  (1) 
0

>  <PUBCHEM_COMPONENT_COUNT>  (1) 
1

>  <PUBCHEM_CACTVS_TAUTO_COUNT>  (1) 
1

>  <PUBCHEM_CONFORMER_ID>  (1) 
00008ED100000005

>  <PUBCHEM_MMFF94_ENERGY>  (1) 
25.5558

>  <PUBCHEM_FEATURE_SELFOVERLAP>  (1) 
10.149

>  <PUBCHEM_SHAPE_FINGERPRINT>  (1) 
10130415 120 18272088309579333915
12932764 1 17342384313405737655
13549 16 18334853914029571727
14648413 74 17899416677628750469
14817 1 9213475852537863752
16945 1 18193002731626814301
18186145 218 16370441185173506173
18511873 20 18342177786852348183
18619055 16 18339082695505169430
200 152 18273211976203448134
20201158 50 18413390925500143462
20339313 130 18334013929953341889
20511035 2 17912641603392688455
20645477 70 18409729568827656462
20671657 53 18335424568827359212
20711985 365 18335420114914787092
22485316 2 18273209837198893583
23402539 116 18341322306233421375
23419403 2 17843934049449427312
23526113 38 18041840748001383859
23552423 10 17976823417089196087
23557571 272 18269841930763423668
23559900 14 18343015627676652400
23598291 2 18266761115950859484
7364860 26 18194120947869059908
81228 2 18196106459847147016

>  <PUBCHEM_SHAPE_MULTIPOLES>  (1) 
267.34
6.79
2.37
1.21
0.95
0.94
-0.76
-3.98
1.1
-0.71
0.42
0.06
0.87
-0.36

>  <PUBCHEM_SHAPE_SELFOVERLAP>  (1) 
459.148

>  <PUBCHEM_SHAPE_VOLUME>  (1) 
182

>  <PUBCHEM_COORDINATE_TYPE>  (1) 
2
5
10

$$$$
