36563
     RDKit          3D

 12 11  0  0  1  0  0  0  0  0999 V2000
   -0.4021   -1.6086   -0.7093 O   0  0  0  0  0  0  0  0  0  0  0  0
    3.1291    0.3838    0.6330 O   0  0  0  0  0  0  0  0  0  0  0  0
    1.8760   -0.0853   -1.2462 O   0  0  0  0  0  0  0  0  0  0  0  0
   -2.3025    0.4351    0.0195 N   0  0  0  0  0  0  0  0  0  0  0  0
   -0.8618    0.4979    0.3715 C   0  0  0  0  0  0  0  0  0  0  0  0
   -0.2758   -0.9049    0.5269 C   0  0  0  0  0  0  0  0  0  0  0  0
   -2.5099   -0.3353   -1.2918 C   0  0  0  0  0  0  0  0  0  0  0  0
   -3.1019   -0.2739    1.1212 C   0  0  0  0  0  0  0  0  0  0  0  0
   -2.8820    1.8451   -0.1588 C   0  0  0  0  0  0  0  0  0  0  0  0
    1.1973   -0.9078    0.9452 C   0  0  0  0  0  0  0  0  0  0  0  0
    2.0790   -0.1716   -0.0430 C   0  0  0  0  0  0  0  0  0  0  0  0
    4.0546    1.1256   -0.1681 C   0  0  0  0  0  0  0  0  0  0  0  0
  1  6  1  0
  2 11  1  0
  2 12  1  0
  3 11  2  0
  4  5  1  0
  4  7  1  0
  4  8  1  0
  4  9  1  0
  5  6  1  0
  6 10  1  0
 10 11  1  0
M  CHG  1   4   1
M  END
>  <PUBCHEM_COMPOUND_CID>  (1) 
36563

>  <PUBCHEM_CONFORMER_RMSD>  (1) 
0.6

>  <PUBCHEM_CONFORMER_DIVERSEORDER>  (1) 
9
2
19
8
15
17
12
16
6
7
11
18
1
13
5
14
3
10
4

>  <PUBCHEM_MMFF94_PARTIAL_CHARGES>  (1) 
13
1 -0.68
10 0.06
11 0.66
12 0.28
2 -0.43
27 0.4
3 -0.57
4 -1.01
5 0.5
6 0.28
7 0.5
8 0.5
9 0.5

>  <PUBCHEM_EFFECTIVE_ROTOR_COUNT>  (1) 
5

>  <PUBCHEM_PHARMACOPHORE_FEATURES>  (1) 
4
1 1 acceptor
1 1 donor
1 3 acceptor
1 4 cation

>  <PUBCHEM_HEAVY_ATOM_COUNT>  (1) 
12

>  <PUBCHEM_ATOM_DEF_STEREO_COUNT>  (1) 
1

>  <PUBCHEM_ATOM_UDEF_STEREO_COUNT>  (1) 
0

>  <PUBCHEM_BOND_DEF_STEREO_COUNT>  (1) 
0

>  <PUBCHEM_BOND_UDEF_STEREO_COUNT>  (1) 
0

>  <PUBCHEM_ISOTOPIC_ATOM_COUNT>  (1) 
0

>  <PUBCHEM_COMPONENT_COUNT>  (1) 
1

>  <PUBCHEM_CACTVS_TAUTO_COUNT>  (1) 
1

>  <PUBCHEM_CONFORMER_ID>  (1) 
00008ED300000009

>  <PUBCHEM_MMFF94_ENERGY>  (1) 
37.72

>  <PUBCHEM_FEATURE_SELFOVERLAP>  (1) 
20.301

>  <PUBCHEM_SHAPE_FINGERPRINT>  (1) 
11769659 78 10231751189071536456
12138202 97 17703785950865766070
12251169 10 15140684704284917312
124424 183 13407061605071992166
12897270 3 16200146595201912864
12932764 1 17989480814364361235
14325111 11 18335701615687389354
14390081 3 18335701598576267281
15775835 57 18409726235937990936
16945 1 18187939407840742475
18186145 218 17060336327469246024
18534176 82 17773879868829165054
20211469 26 12540692656311652451
20281407 28 9655582907072019928
20645477 56 18200879599254155200
20653085 51 18341339902703662410
20871999 31 17417799669715087181
21028194 46 18335991882425407026
21293036 1 18060414737746892849
22485316 2 10879996839613080792
23402539 116 18059848450962805968
305870 269 18261106318858884426
3248919 1 17603587400402416035
369184 2 15213023739134970243
528716 315 16630524063654236725
57812782 119 15647052685439309731

>  <PUBCHEM_SHAPE_MULTIPOLES>  (1) 
224.37
6.17
1.4
1.13
3.3
0.29
-0.23
2.74
0.35
-0.41
0.02
-0.4
-0.21
-0.08

>  <PUBCHEM_SHAPE_SELFOVERLAP>  (1) 
418.345

>  <PUBCHEM_SHAPE_VOLUME>  (1) 
142.5

>  <PUBCHEM_COORDINATE_TYPE>  (1) 
2
5
10

$$$$
