36569
     RDKit          3D

 14 14  0  0  0  0  0  0  0  0999 V2000
    0.9669   -0.0001    0.0748 C   0  0  0  0  0  0  0  0  0  0  0  0
    0.2756    1.2079    0.1664 C   0  0  0  0  0  0  0  0  0  0  0  0
    0.2755   -1.2080    0.1670 C   0  0  0  0  0  0  0  0  0  0  0  0
   -1.7985    0.0002    0.4425 C   0  0  0  0  0  0  0  0  0  0  0  0
    2.4499   -0.0003   -0.1214 C   0  0  0  0  0  0  0  0  0  0  0  0
   -1.1071    1.2081    0.3504 C   0  0  0  0  0  0  0  0  0  0  0  0
   -1.1073   -1.2079    0.3508 C   0  0  0  0  0  0  0  0  0  0  0  0
    0.9930    2.5147    0.0714 C   0  0  0  0  0  0  0  0  0  0  0  0
    0.9926   -2.5149    0.0711 C   0  0  0  0  0  0  0  0  0  0  0  0
   -3.2769    0.0002    0.6389 C   0  0  0  0  0  0  0  0  0  0  0  0
    3.2062   -0.0005    1.2025 C   0  0  0  0  0  0  0  0  0  0  0  0
    1.0846    3.0210   -1.3648 C   0  0  0  0  0  0  0  0  0  0  0  0
    1.0841   -3.0201   -1.3655 C   0  0  0  0  0  0  0  0  0  0  0  0
   -4.0384    0.0000   -0.6841 C   0  0  0  0  0  0  0  0  0  0  0  0
  1  2  2  0
  1  3  1  0
  1  5  1  0
  2  6  1  0
  2  8  1  0
  3  7  2  0
  3  9  1  0
  4  6  2  0
  4  7  1  0
  4 10  1  0
  5 11  1  0
  8 12  1  0
  9 13  1  0
 10 14  1  0
M  END
>  <PUBCHEM_COMPOUND_CID>  (1) 
36569

>  <PUBCHEM_CONFORMER_RMSD>  (1) 
0.6

>  <PUBCHEM_CONFORMER_DIVERSEORDER>  (1) 
1
3
5
8
7
2
4
6

>  <PUBCHEM_MMFF94_PARTIAL_CHARGES>  (1) 
12
1 -0.14
10 0.14
17 0.15
18 0.15
2 -0.14
3 -0.14
4 -0.14
5 0.14
6 -0.15
7 -0.15
8 0.14
9 0.14

>  <PUBCHEM_EFFECTIVE_ROTOR_COUNT>  (1) 
4

>  <PUBCHEM_PHARMACOPHORE_FEATURES>  (1) 
5
1 11 hydrophobe
1 12 hydrophobe
1 13 hydrophobe
1 14 hydrophobe
6 1 2 3 4 6 7 rings

>  <PUBCHEM_HEAVY_ATOM_COUNT>  (1) 
14

>  <PUBCHEM_ATOM_DEF_STEREO_COUNT>  (1) 
0

>  <PUBCHEM_ATOM_UDEF_STEREO_COUNT>  (1) 
0

>  <PUBCHEM_BOND_DEF_STEREO_COUNT>  (1) 
0

>  <PUBCHEM_BOND_UDEF_STEREO_COUNT>  (1) 
0

>  <PUBCHEM_ISOTOPIC_ATOM_COUNT>  (1) 
0

>  <PUBCHEM_COMPONENT_COUNT>  (1) 
1

>  <PUBCHEM_CACTVS_TAUTO_COUNT>  (1) 
1

>  <PUBCHEM_CONFORMER_ID>  (1) 
00008ED900000001

>  <PUBCHEM_MMFF94_ENERGY>  (1) 
29.1793

>  <PUBCHEM_FEATURE_SELFOVERLAP>  (1) 
25.374

>  <PUBCHEM_SHAPE_FINGERPRINT>  (1) 
1 1 18339081600504591951
10219947 1 18410289211708429250
11206711 2 16967458088936936917
116883 192 17763738798224046005
12423570 1 17624669303046279450
12524768 44 18197222455501701011
12759256 9 18336555992236315105
13140716 1 18266744769215374819
13380535 76 18411415124695956651
13836976 161 18340759455702512527
14181834 199 18188211017145718773
14251717 144 18413101779975144511
14993402 34 18409171043080517628
15490181 7 17473553923852430057
15490181 8 18339098080346997307
161256 15 18053670178872214706
16945 1 18410584984826434001
193761 8 17762056536653502040
20511035 2 18045504376426564848
20588541 1 18409733936867041915
20645476 183 17900550278227267372
20645477 70 18337389448400280055
20711985 344 17468767290354276179
21501502 16 17980769229382575754
21524375 3 17829897885914659041
2334 1 17978797040524247097
23388829 49 18342734100812304417
23402539 116 18338781334872095730
23419403 2 17533183493359493020
241688 4 17905060148359034658
2748010 2 18121784915601579537
3060560 45 18412261765622998095
3071541 158 18259702311171811877
3250762 1 17691113839090432920
4072396 5 18191281854258604691
5255222 1 17185043764998780792
7364860 26 18343588421320563115
81228 2 17830462673955860217

>  <PUBCHEM_SHAPE_MULTIPOLES>  (1) 
288.11
4.5
3.24
1.09
4.03
0
0.23
0
-0.48
-2.14
1.61
-0.35
0
0

>  <PUBCHEM_SHAPE_SELFOVERLAP>  (1) 
578.926

>  <PUBCHEM_SHAPE_VOLUME>  (1) 
166.3

>  <PUBCHEM_COORDINATE_TYPE>  (1) 
2
5
10

$$$$
