36566
     RDKit          3D

 15 16  0  0  0  0  0  0  0  0999 V2000
   -2.9719   -1.9610   -0.0028 O   0  0  0  0  0  0  0  0  0  0  0  0
    4.0641   -1.3058    0.0002 O   0  0  0  0  0  0  0  0  0  0  0  0
    4.1344    0.8883   -0.0011 O   0  0  0  0  0  0  0  0  0  0  0  0
   -2.0851    0.1977    0.0003 N   0  0  0  0  0  0  0  0  0  0  0  0
    3.4917   -0.1893    0.0000 N   0  0  0  0  0  0  0  0  0  0  0  0
   -0.8584    2.2977   -0.0028 C   0  0  0  0  0  0  0  0  0  0  0  0
   -2.2546    1.6661    0.0032 C   0  0  0  0  0  0  0  0  0  0  0  0
    0.0308    1.0977   -0.0001 C   0  0  0  0  0  0  0  0  0  0  0  0
   -0.7042   -0.0894    0.0002 C   0  0  0  0  0  0  0  0  0  0  0  0
    1.4174    1.0874   -0.0002 C   0  0  0  0  0  0  0  0  0  0  0  0
   -0.0605   -1.3183    0.0010 C   0  0  0  0  0  0  0  0  0  0  0  0
   -3.1108   -0.7376   -0.0004 C   0  0  0  0  0  0  0  0  0  0  0  0
    2.0723   -0.1439    0.0006 C   0  0  0  0  0  0  0  0  0  0  0  0
    1.3379   -1.3378    0.0013 C   0  0  0  0  0  0  0  0  0  0  0  0
   -4.5030   -0.1518    0.0006 C   0  0  0  0  0  0  0  0  0  0  0  0
  1 12  2  0
  2  5  1  0
  3  5  2  0
  4  7  1  0
  4  9  1  0
  4 12  1  0
  5 13  1  0
  6  7  1  0
  6  8  1  0
  8  9  2  0
  8 10  1  0
  9 11  1  0
 10 13  2  0
 11 14  2  0
 12 15  1  0
 13 14  1  0
M  CHG  2   2  -1   5   1
M  END
>  <PUBCHEM_COMPOUND_CID>  (1) 
36566

>  <PUBCHEM_CONFORMER_RMSD>  (1) 
0.6

>  <PUBCHEM_CONFORMER_DIVERSEORDER>  (1) 
1
2

>  <PUBCHEM_MMFF94_PARTIAL_CHARGES>  (1) 
18
1 -0.57
10 -0.15
11 -0.15
12 0.57
13 0.13
14 -0.15
15 0.06
2 -0.52
20 0.15
21 0.15
22 0.15
3 -0.52
4 -0.48
5 0.91
6 0.14
7 0.3
8 -0.14
9 0.12

>  <PUBCHEM_EFFECTIVE_ROTOR_COUNT>  (1) 
2.6

>  <PUBCHEM_PHARMACOPHORE_FEATURES>  (1) 
6
1 1 acceptor
1 2 acceptor
1 2 anion
1 3 acceptor
5 4 6 7 8 9 rings
6 8 9 10 11 13 14 rings

>  <PUBCHEM_HEAVY_ATOM_COUNT>  (1) 
15

>  <PUBCHEM_ATOM_DEF_STEREO_COUNT>  (1) 
0

>  <PUBCHEM_ATOM_UDEF_STEREO_COUNT>  (1) 
0

>  <PUBCHEM_BOND_DEF_STEREO_COUNT>  (1) 
0

>  <PUBCHEM_BOND_UDEF_STEREO_COUNT>  (1) 
0

>  <PUBCHEM_ISOTOPIC_ATOM_COUNT>  (1) 
0

>  <PUBCHEM_COMPONENT_COUNT>  (1) 
1

>  <PUBCHEM_CACTVS_TAUTO_COUNT>  (1) 
1

>  <PUBCHEM_CONFORMER_ID>  (1) 
00008ED600000001

>  <PUBCHEM_MMFF94_ENERGY>  (1) 
49.6074

>  <PUBCHEM_FEATURE_SELFOVERLAP>  (1) 
30.614

>  <PUBCHEM_SHAPE_FINGERPRINT>  (1) 
10608611 8 18340201895600802752
108231 29 18342738563040712545
10967382 1 18410855485898043527
11132069 177 18412259553698944611
11401426 45 18410005567905135087
11471102 20 18410288129577137061
11543360 7 15575005016981463218
11806522 49 18338515347658094415
12032990 46 18410859879660253778
14115302 16 17894640283164215239
14252887 29 18130239210842311391
14325111 11 18410575050762445344
15196674 1 18410575071788746021
15536298 74 18271243927762528480
16945 1 18338517417737534849
18522853 276 18411981364345977953
193761 8 17906170655287957671
200 152 18131061645940450813
20201158 50 18408604764553887171
20510252 161 18343582915151709288
20871998 184 18202001006060665005
21029758 11 18342451560937152201
21267235 1 18410020913675973915
21501502 16 18193555571227071595
221490 88 17903358452848304163
22213442 358 18339360872178923389
23402539 116 18340760515857859910
23402655 69 18268696231131492005
23463225 33 18408887347341866980
23557571 272 18202011979892263604
23559900 14 18340481171902021272
25610 137 18409730664065025932
2748010 2 18050285070290552421
2871803 45 18335134272061727271
3312278 4 18409166602084145249
34934 24 18410285909342970879
43471831 8 18261951830421335522
5104073 3 18411699846751917592
53655031 270 18409730647101272243
537710 114 18336553814666991924
5493415 88 18266459987298579083
7364860 26 18196934598172251712
8809292 202 18260552268304618835
9709674 26 18340211782573554142

>  <PUBCHEM_SHAPE_MULTIPOLES>  (1) 
281.12
6.95
1.98
0.59
1.42
0.39
0
-1.67
0
-0.59
0
-0.05
0.02
0

>  <PUBCHEM_SHAPE_SELFOVERLAP>  (1) 
604.037

>  <PUBCHEM_SHAPE_VOLUME>  (1) 
157.1

>  <PUBCHEM_COORDINATE_TYPE>  (1) 
2
5
10

$$$$
