36574
     RDKit          3D

 12 12  0  0  1  0  0  0  0  0999 V2000
    1.9545    0.4109   -1.4129 O   0  0  0  0  0  0  0  0  0  0  0  0
    1.9672   -2.0298   -0.0023 O   0  0  0  0  0  0  0  0  0  0  0  0
   -1.1428    0.0863    0.2892 C   0  0  0  0  0  0  0  0  0  0  0  0
    1.8151    0.3930    0.0121 C   0  0  0  0  0  0  0  0  0  0  0  0
   -0.2495   -1.0941   -0.1089 C   0  0  0  0  0  0  0  0  0  0  0  0
   -0.5122    1.4196   -0.1326 C   0  0  0  0  0  0  0  0  0  0  0  0
    1.1690   -0.9366    0.4457 C   0  0  0  0  0  0  0  0  0  0  0  0
    0.9131    1.5732    0.4064 C   0  0  0  0  0  0  0  0  0  0  0  0
   -2.5378   -0.0654   -0.3141 C   0  0  0  0  0  0  0  0  0  0  0  0
    3.2126    0.5664    0.6132 C   0  0  0  0  0  0  0  0  0  0  0  0
   -3.1489   -1.4084    0.0786 C   0  0  0  0  0  0  0  0  0  0  0  0
   -3.4404    1.0850    0.1256 C   0  0  0  0  0  0  0  0  0  0  0  0
  1  4  1  0
  2  7  1  0
  3  5  1  0
  3  6  1  0
  3  9  1  0
  4  7  1  0
  4  8  1  0
  4 10  1  0
  5  7  1  0
  6  8  1  0
  9 11  1  0
  9 12  1  0
M  END
>  <PUBCHEM_COMPOUND_CID>  (1) 
36574

>  <PUBCHEM_CONFORMER_RMSD>  (1) 
0.6

>  <PUBCHEM_CONFORMER_DIVERSEORDER>  (1) 
2
1
16
10
13
4
14
8
11
17
6
12
9
7
15
5
3

>  <PUBCHEM_MMFF94_PARTIAL_CHARGES>  (1) 
6
1 -0.68
2 -0.68
31 0.4
32 0.4
4 0.28
7 0.28

>  <PUBCHEM_EFFECTIVE_ROTOR_COUNT>  (1) 
2.2

>  <PUBCHEM_PHARMACOPHORE_FEATURES>  (1) 
6
1 1 acceptor
1 1 donor
1 2 acceptor
1 2 donor
3 9 11 12 hydrophobe
6 3 4 5 6 7 8 rings

>  <PUBCHEM_HEAVY_ATOM_COUNT>  (1) 
12

>  <PUBCHEM_ATOM_DEF_STEREO_COUNT>  (1) 
0

>  <PUBCHEM_ATOM_UDEF_STEREO_COUNT>  (1) 
3

>  <PUBCHEM_BOND_DEF_STEREO_COUNT>  (1) 
0

>  <PUBCHEM_BOND_UDEF_STEREO_COUNT>  (1) 
0

>  <PUBCHEM_ISOTOPIC_ATOM_COUNT>  (1) 
0

>  <PUBCHEM_COMPONENT_COUNT>  (1) 
1

>  <PUBCHEM_CACTVS_TAUTO_COUNT>  (1) 
1

>  <PUBCHEM_CONFORMER_ID>  (1) 
00008EDE00000002

>  <PUBCHEM_MMFF94_ENERGY>  (1) 
28.5426

>  <PUBCHEM_FEATURE_SELFOVERLAP>  (1) 
30.453

>  <PUBCHEM_SHAPE_FINGERPRINT>  (1) 
12382932 28 18412539903552524897
12897270 3 18410855481850970133
12932764 1 18273219720329929339
13380535 21 18337121094152857435
14128692 85 18265620870737171166
14144814 61 18412825772628867385
14325111 11 18410853287033102073
15775835 57 18411139134318168505
16945 1 18410579530080915353
17990270 104 18409446990244446883
20201158 50 18408036325426357971
20645477 70 18341886339035695927
21040471 1 18336548329866764434
21501502 16 18408884023364266443
23235685 24 18334569174672130704
23380061 330 18270672194384371143
23402539 116 18131340938873516332
23402655 69 18269821053043715325
23463225 33 18334287669619956696
23552423 10 18187366480615040979
23559900 14 18342747347393603484
2748010 2 18339075969544010559
3248919 1 17748828540077611899
3312278 4 18413109467877011689
5084963 1 17603855762748889957
528886 8 18411411809001789937
53812653 166 18343014510373472689
63268167 104 18412265004260454185
7364860 26 18200029534710424326
8030462 33 18411417332519552199

>  <PUBCHEM_SHAPE_MULTIPOLES>  (1) 
235.22
5.07
1.76
0.81
2.07
0.32
-0.15
-0.04
0.27
0.02
0.09
-0.32
-0.07
0.02

>  <PUBCHEM_SHAPE_SELFOVERLAP>  (1) 
461.745

>  <PUBCHEM_SHAPE_VOLUME>  (1) 
141.6

>  <PUBCHEM_COORDINATE_TYPE>  (1) 
2
5
10

$$$$
