36570
     RDKit          3D

 14 14  0  0  0  0  0  0  0  0999 V2000
   -1.2079    0.6407    0.2754 C   0  0  0  0  0  0  0  0  0  0  0  0
   -1.2079   -0.6408   -0.2757 C   0  0  0  0  0  0  0  0  0  0  0  0
    1.2080    0.6406    0.2753 C   0  0  0  0  0  0  0  0  0  0  0  0
    1.2080   -0.6407   -0.2757 C   0  0  0  0  0  0  0  0  0  0  0  0
    0.0000    1.2813    0.5510 C   0  0  0  0  0  0  0  0  0  0  0  0
    0.0001   -1.2815   -0.5511 C   0  0  0  0  0  0  0  0  0  0  0  0
   -2.4884    1.3464    0.5788 C   0  0  0  0  0  0  0  0  0  0  0  0
   -2.4887   -1.3465   -0.5787 C   0  0  0  0  0  0  0  0  0  0  0  0
    2.4886    1.3466    0.5785 C   0  0  0  0  0  0  0  0  0  0  0  0
    2.4886   -1.3467   -0.5784 C   0  0  0  0  0  0  0  0  0  0  0  0
   -2.9847    2.1775   -0.6007 C   0  0  0  0  0  0  0  0  0  0  0  0
   -2.9849   -2.1772    0.6010 C   0  0  0  0  0  0  0  0  0  0  0  0
    2.9845    2.1775   -0.6010 C   0  0  0  0  0  0  0  0  0  0  0  0
    2.9847   -2.1773    0.6014 C   0  0  0  0  0  0  0  0  0  0  0  0
  1  2  2  0
  1  5  1  0
  1  7  1  0
  2  6  1  0
  2  8  1  0
  3  4  1  0
  3  5  2  0
  3  9  1  0
  4  6  2  0
  4 10  1  0
  7 11  1  0
  8 12  1  0
  9 13  1  0
 10 14  1  0
M  END
>  <PUBCHEM_COMPOUND_CID>  (1) 
36570

>  <PUBCHEM_CONFORMER_RMSD>  (1) 
0.6

>  <PUBCHEM_CONFORMER_DIVERSEORDER>  (1) 
1
8
3
10
2
9
5
4
6
7

>  <PUBCHEM_MMFF94_PARTIAL_CHARGES>  (1) 
12
1 -0.14
10 0.14
15 0.15
16 0.15
2 -0.14
3 -0.14
4 -0.14
5 -0.15
6 -0.15
7 0.14
8 0.14
9 0.14

>  <PUBCHEM_EFFECTIVE_ROTOR_COUNT>  (1) 
4

>  <PUBCHEM_PHARMACOPHORE_FEATURES>  (1) 
5
1 11 hydrophobe
1 12 hydrophobe
1 13 hydrophobe
1 14 hydrophobe
6 1 2 3 4 5 6 rings

>  <PUBCHEM_HEAVY_ATOM_COUNT>  (1) 
14

>  <PUBCHEM_ATOM_DEF_STEREO_COUNT>  (1) 
0

>  <PUBCHEM_ATOM_UDEF_STEREO_COUNT>  (1) 
0

>  <PUBCHEM_BOND_DEF_STEREO_COUNT>  (1) 
0

>  <PUBCHEM_BOND_UDEF_STEREO_COUNT>  (1) 
0

>  <PUBCHEM_ISOTOPIC_ATOM_COUNT>  (1) 
0

>  <PUBCHEM_COMPONENT_COUNT>  (1) 
1

>  <PUBCHEM_CACTVS_TAUTO_COUNT>  (1) 
1

>  <PUBCHEM_CONFORMER_ID>  (1) 
00008EDA00000001

>  <PUBCHEM_MMFF94_ENERGY>  (1) 
28.3048

>  <PUBCHEM_FEATURE_SELFOVERLAP>  (1) 
25.374

>  <PUBCHEM_SHAPE_FINGERPRINT>  (1) 
10756046 5 18412548695382208972
11206711 2 18200027503074888069
11680986 33 18271519798001836906
12932764 1 18261970556251281761
13140716 1 18342740671837824555
13380535 21 18341624723518178785
13380535 76 18055066558792510247
14614273 12 18338791342204184221
14648413 74 18339925922234254402
14911166 2 18126004849581587380
14993402 34 18052539863701756854
15279308 100 18266460905952426396
15375462 6 18337110188835254109
15490181 8 17843136804850663793
16945 1 18408886226212880390
17844478 74 18266465497567572419
193761 8 18412826888771731461
20511035 2 18201706324159693670
20600515 1 17911520892212391234
20645477 70 18342452690345084231
20711985 365 18412540998917137999
21130352 189 18192710034159249516
21501502 16 18413389838909769095
21524375 3 18053949725809555604
2334 1 18342738545828954117
23366157 5 18186521008250686070
23419403 2 15247258085494991706
23463225 33 18413106143503544752
23552423 10 18410012143568715006
23558518 356 18333733528686878443
23559900 14 18127693721893231422
25610 137 18193562396156997079
2748010 2 18272369771586564669
3060560 45 17834098759352040373
3071541 158 18193559969695874724
53812653 8 18123753312093437116
57177213 63 18264212589673482364
68250623 7 18410577288039506090
7364860 26 18273214201465694054
74978 22 18337106752787492687
81228 2 18261955249737042297

>  <PUBCHEM_SHAPE_MULTIPOLES>  (1) 
288.11
5.35
2.84
0.88
0
0
0
0
0
0
0
0
0
0

>  <PUBCHEM_SHAPE_SELFOVERLAP>  (1) 
578.932

>  <PUBCHEM_SHAPE_VOLUME>  (1) 
166.6

>  <PUBCHEM_COORDINATE_TYPE>  (1) 
2
5
10

$$$$
