36582
     RDKit          3D

 26 28  0  0  0  0  0  0  0  0999 V2000
   -1.4160   -4.7360    0.2139 Cl  0  0  0  0  0  0  0  0  0  0  0  0
    4.6313    0.5911   -1.3144 S   0  0  0  0  0  0  0  0  0  0  0  0
   -3.9279    1.8562    0.9625 F   0  0  0  0  0  0  0  0  0  0  0  0
    5.0792    1.9432   -1.0275 O   0  0  0  0  0  0  0  0  0  0  0  0
    5.3749   -0.5551   -0.8199 O   0  0  0  0  0  0  0  0  0  0  0  0
    1.4754    2.6033    2.0402 O   0  0  0  0  0  0  0  0  0  0  0  0
    1.4357    0.4400    1.1752 N   0  0  0  0  0  0  0  0  0  0  0  0
   -1.4310    1.3902    1.4936 N   0  0  0  0  0  0  0  0  0  0  0  0
    2.8278    0.5288    0.7344 C   0  0  0  0  0  0  0  0  0  0  0  0
    2.9573    0.4378   -0.7740 C   0  0  0  0  0  0  0  0  0  0  0  0
    0.7182   -0.7767    0.9071 C   0  0  0  0  0  0  0  0  0  0  0  0
   -0.6799   -0.8230    0.7264 C   0  0  0  0  0  0  0  0  0  0  0  0
    0.9026    1.5214    1.8863 C   0  0  0  0  0  0  0  0  0  0  0  0
   -1.5231    0.4078    0.6624 C   0  0  0  0  0  0  0  0  0  0  0  0
   -0.4366    1.2943    2.5412 C   0  0  0  0  0  0  0  0  0  0  0  0
    1.4289   -1.9890    0.8026 C   0  0  0  0  0  0  0  0  0  0  0  0
   -1.3335   -2.0533    0.5302 C   0  0  0  0  0  0  0  0  0  0  0  0
   -2.5285    0.5370   -0.4319 C   0  0  0  0  0  0  0  0  0  0  0  0
    4.5085    0.4297   -3.0809 C   0  0  0  0  0  0  0  0  0  0  0  0
    0.7746   -3.2045    0.5870 C   0  0  0  0  0  0  0  0  0  0  0  0
   -0.6073   -3.2382    0.4634 C   0  0  0  0  0  0  0  0  0  0  0  0
   -3.6924    1.2654   -0.2179 C   0  0  0  0  0  0  0  0  0  0  0  0
   -2.2876   -0.0740   -1.6566 C   0  0  0  0  0  0  0  0  0  0  0  0
   -4.6296    1.3844   -1.2441 C   0  0  0  0  0  0  0  0  0  0  0  0
   -3.2250    0.0451   -2.6827 C   0  0  0  0  0  0  0  0  0  0  0  0
   -4.3960    0.7742   -2.4765 C   0  0  0  0  0  0  0  0  0  0  0  0
  1 21  1  0
  2  4  2  0
  2  5  2  0
  2 10  1  0
  2 19  1  0
  3 22  1  0
  6 13  2  0
  7  9  1  0
  7 11  1  0
  7 13  1  0
  8 14  2  0
  8 15  1  0
  9 10  1  0
 11 12  2  0
 11 16  1  0
 12 14  1  0
 12 17  1  0
 13 15  1  0
 14 18  1  0
 16 20  2  0
 17 21  2  0
 18 22  2  0
 18 23  1  0
 20 21  1  0
 22 24  1  0
 23 25  2  0
 24 26  2  0
 25 26  1  0
M  END
>  <PUBCHEM_COMPOUND_CID>  (1) 
36582

>  <PUBCHEM_CONFORMER_RMSD>  (1) 
0.8

>  <PUBCHEM_CONFORMER_DIVERSEORDER>  (1) 
1
29
27
40
36
41
24
49
37
42
48
46
44
43
45
30
47
38
9
13
22
32
19
31
21
20
39
16
33
3
35
28
23
8
34
25
17
18
2
14
12
7
11
15
5
26
10
6
4

>  <PUBCHEM_MMFF94_PARTIAL_CHARGES>  (1) 
33
1 -0.18
10 0.11
11 0.12
12 0.09
13 0.57
14 0.28
15 0.31
16 -0.15
17 -0.15
18 0.09
19 0.11
2 1.09
20 -0.15
21 0.18
22 0.19
23 -0.15
24 -0.15
25 -0.15
26 -0.15
3 -0.19
33 0.15
34 0.15
38 0.15
39 0.15
4 -0.65
40 0.15
41 0.15
42 0.15
5 -0.65
6 -0.57
7 -0.48
8 -0.7
9 0.3

>  <PUBCHEM_EFFECTIVE_ROTOR_COUNT>  (1) 
4.4

>  <PUBCHEM_PHARMACOPHORE_FEATURES>  (1) 
7
1 4 acceptor
1 5 acceptor
1 6 acceptor
1 8 acceptor
6 11 12 16 17 20 21 rings
6 18 22 23 24 25 26 rings
7 7 8 11 12 13 14 15 rings

>  <PUBCHEM_HEAVY_ATOM_COUNT>  (1) 
26

>  <PUBCHEM_ATOM_DEF_STEREO_COUNT>  (1) 
0

>  <PUBCHEM_ATOM_UDEF_STEREO_COUNT>  (1) 
0

>  <PUBCHEM_BOND_DEF_STEREO_COUNT>  (1) 
0

>  <PUBCHEM_BOND_UDEF_STEREO_COUNT>  (1) 
0

>  <PUBCHEM_ISOTOPIC_ATOM_COUNT>  (1) 
0

>  <PUBCHEM_COMPONENT_COUNT>  (1) 
1

>  <PUBCHEM_CACTVS_TAUTO_COUNT>  (1) 
1

>  <PUBCHEM_CONFORMER_ID>  (1) 
00008EE600000001

>  <PUBCHEM_MMFF94_ENERGY>  (1) 
89.0984

>  <PUBCHEM_FEATURE_SELFOVERLAP>  (1) 
35.552

>  <PUBCHEM_SHAPE_FINGERPRINT>  (1) 
10165383 225 18335150786553741985
105312 117 18187652418236651030
10764073 3 17555778530767962443
107951 10 17410261314430432424
10906281 52 17773580810282959672
11387372 6 12244358828288375268
11578080 2 18117550950317584436
11725454 13 16950285074562763602
11796584 16 14548732876633584461
12160290 23 17972020698944579915
12293681 25 17701528748141594690
12633257 1 13262684785322097972
12824470 246 14117805734182572158
12895836 83 18113899402817365876
13149001 5 18199746006607256840
133893 2 17827365375554446418
13544653 18 12967128302833013204
13583140 156 16661482879461409083
14713325 29 17750246952711033827
15163728 17 17822868476012578828
15475509 35 13037468575978577509
15775530 1 17698152190871721144
17899979 19 17388253443600308466
17909252 39 16486116461198856024
20465049 17 17918268745533071117
20600515 1 16054599735865699171
20775530 9 14979377599399496469
21033648 29 12036552153119813991
21452121 99 18048850147413235035
21475661 188 15719390603545183916
22182313 1 17912916481383808034
22907989 373 18118968241478550574
23419403 2 17698451257717860411
23559900 14 15841250602749689913
238 59 18197189548031913435
2748010 2 17838880878580557771
2838139 119 17095512990044575628
392239 28 14418720080968488573
394222 165 17968940764890235170
59755656 520 18268174013866917354

>  <PUBCHEM_SHAPE_MULTIPOLES>  (1) 
505.94
8.9
3.69
2.68
6.07
6.19
0.71
-6.9
8.1
-1.35
-0.6
0.32
-1.95
-0.06

>  <PUBCHEM_SHAPE_SELFOVERLAP>  (1) 
1072.469

>  <PUBCHEM_SHAPE_VOLUME>  (1) 
286.1

>  <PUBCHEM_COORDINATE_TYPE>  (1) 
2
5
10

$$$$
