36588
     RDKit          3D

 10 10  0  0  0  0  0  0  0  0999 V2000
    0.6816    3.1038   -0.0005 Cl  0  0  0  0  0  0  0  0  0  0  0  0
    2.8354   -1.8455    0.0005 Cl  0  0  0  0  0  0  0  0  0  0  0  0
   -2.1963   -1.0922   -0.0004 O   0  0  0  0  0  0  0  0  0  0  0  0
   -0.9486   -0.5490    0.0002 C   0  0  0  0  0  0  0  0  0  0  0  0
    0.1730   -1.3782   -0.0005 C   0  0  0  0  0  0  0  0  0  0  0  0
   -0.7911    0.8370    0.0006 C   0  0  0  0  0  0  0  0  0  0  0  0
    0.4878    1.3937    0.0005 C   0  0  0  0  0  0  0  0  0  0  0  0
    1.4520   -0.8215   -0.0006 C   0  0  0  0  0  0  0  0  0  0  0  0
    1.6093    0.5645    0.0000 C   0  0  0  0  0  0  0  0  0  0  0  0
   -3.3032   -0.2127    0.0002 C   0  0  0  0  0  0  0  0  0  0  0  0
  1  7  1  0
  2  8  1  0
  3  4  1  0
  3 10  1  0
  4  5  2  0
  4  6  1  0
  5  8  1  0
  6  7  2  0
  7  9  1  0
  8  9  2  0
M  END
>  <PUBCHEM_COMPOUND_CID>  (1) 
36588

>  <PUBCHEM_CONFORMER_RMSD>  (1) 
0.4

>  <PUBCHEM_CONFORMER_DIVERSEORDER>  (1) 
1

>  <PUBCHEM_MMFF94_PARTIAL_CHARGES>  (1) 
13
1 -0.18
10 0.28
11 0.15
12 0.15
13 0.15
2 -0.18
3 -0.36
4 0.08
5 -0.15
6 -0.15
7 0.18
8 0.18
9 -0.15

>  <PUBCHEM_EFFECTIVE_ROTOR_COUNT>  (1) 
1

>  <PUBCHEM_PHARMACOPHORE_FEATURES>  (1) 
2
1 3 acceptor
6 4 5 6 7 8 9 rings

>  <PUBCHEM_HEAVY_ATOM_COUNT>  (1) 
10

>  <PUBCHEM_ATOM_DEF_STEREO_COUNT>  (1) 
0

>  <PUBCHEM_ATOM_UDEF_STEREO_COUNT>  (1) 
0

>  <PUBCHEM_BOND_DEF_STEREO_COUNT>  (1) 
0

>  <PUBCHEM_BOND_UDEF_STEREO_COUNT>  (1) 
0

>  <PUBCHEM_ISOTOPIC_ATOM_COUNT>  (1) 
0

>  <PUBCHEM_COMPONENT_COUNT>  (1) 
1

>  <PUBCHEM_CACTVS_TAUTO_COUNT>  (1) 
1

>  <PUBCHEM_CONFORMER_ID>  (1) 
00008EEC00000001

>  <PUBCHEM_MMFF94_ENERGY>  (1) 
29.101

>  <PUBCHEM_FEATURE_SELFOVERLAP>  (1) 
10.148

>  <PUBCHEM_SHAPE_FINGERPRINT>  (1) 
1 1 18050287269139981756
12423570 1 11001155311311240246
14648413 74 18263646341137536131
16945 1 18266740366562698437
19021347 4 17329709232980185664
193761 8 17906172111287314662
20871998 184 17912919492119290222
20871998 22 18198912422058899070
21040471 1 17401767917786955744
23552423 10 18195809797918935535
241688 4 18266460914673944096
2748010 2 18339351972885516284
7364860 26 18268993257382667792
81228 2 17978237062566972848

>  <PUBCHEM_SHAPE_MULTIPOLES>  (1) 
203.67
3.66
2.72
0.62
1.23
2.7
0
-2.63
0
-0.81
0
-0.03
0.02
0

>  <PUBCHEM_SHAPE_SELFOVERLAP>  (1) 
402.635

>  <PUBCHEM_SHAPE_VOLUME>  (1) 
124.4

>  <PUBCHEM_COORDINATE_TYPE>  (1) 
2
5
10

$$$$
