36597
     RDKit          3D

 31 34  0  0  0  0  0  0  0  0999 V2000
    1.4262   -0.9813   -0.2816 O   0  0  0  0  0  0  0  0  0  0  0  0
   -0.9170   -2.1945   -0.5302 O   0  0  0  0  0  0  0  0  0  0  0  0
   -0.7992    3.2815    0.2214 O   0  0  0  0  0  0  0  0  0  0  0  0
    1.7418    3.0579    0.2813 O   0  0  0  0  0  0  0  0  0  0  0  0
    6.1373   -1.5088   -0.1927 O   0  0  0  0  0  0  0  0  0  0  0  0
   -5.8377   -0.6765   -0.4975 O   0  0  0  0  0  0  0  0  0  0  0  0
   -3.4842   -2.0200   -0.5991 O   0  0  0  0  0  0  0  0  0  0  0  0
   -3.3506    3.2714    0.1298 O   0  0  0  0  0  0  0  0  0  0  0  0
   -0.9979   -2.4665    1.7935 O   0  0  0  0  0  0  0  0  0  0  0  0
    0.3402    1.1902   -0.0236 C   0  0  0  0  0  0  0  0  0  0  0  0
    0.3055   -0.1901   -0.2132 C   0  0  0  0  0  0  0  0  0  0  0  0
   -2.1145   -0.1076   -0.2879 C   0  0  0  0  0  0  0  0  0  0  0  0
   -2.0739    1.2757   -0.0976 C   0  0  0  0  0  0  0  0  0  0  0  0
    2.8351    0.9873    0.0357 C   0  0  0  0  0  0  0  0  0  0  0  0
   -0.9233   -0.8415   -0.3457 C   0  0  0  0  0  0  0  0  0  0  0  0
   -0.8440    1.9308    0.0355 C   0  0  0  0  0  0  0  0  0  0  0  0
    1.6476    1.8516    0.1128 C   0  0  0  0  0  0  0  0  0  0  0  0
    2.6551   -0.3818   -0.1574 C   0  0  0  0  0  0  0  0  0  0  0  0
    4.1194    1.5251    0.1527 C   0  0  0  0  0  0  0  0  0  0  0  0
   -3.4066   -0.8087   -0.4296 C   0  0  0  0  0  0  0  0  0  0  0  0
   -3.3234    2.0579   -0.0352 C   0  0  0  0  0  0  0  0  0  0  0  0
    3.7684   -1.2210   -0.2342 C   0  0  0  0  0  0  0  0  0  0  0  0
    5.2279    0.6816    0.0748 C   0  0  0  0  0  0  0  0  0  0  0  0
    5.0530   -0.6888   -0.1183 C   0  0  0  0  0  0  0  0  0  0  0  0
   -4.6449    0.0049   -0.3619 C   0  0  0  0  0  0  0  0  0  0  0  0
   -4.5987    1.3265   -0.1800 C   0  0  0  0  0  0  0  0  0  0  0  0
    4.3975    2.9788    0.3605 C   0  0  0  0  0  0  0  0  0  0  0  0
   -0.9596   -2.9320    0.6623 C   0  0  0  0  0  0  0  0  0  0  0  0
    5.8870   -2.8993   -0.3912 C   0  0  0  0  0  0  0  0  0  0  0  0
   -6.3176   -1.1026    0.7625 C   0  0  0  0  0  0  0  0  0  0  0  0
   -0.9491   -4.4000    0.3543 C   0  0  0  0  0  0  0  0  0  0  0  0
  1 11  1  0
  1 18  1  0
  2 15  1  0
  2 28  1  0
  3 16  1  0
  4 17  2  0
  5 24  1  0
  5 29  1  0
  6 25  1  0
  6 30  1  0
  7 20  2  0
  8 21  2  0
  9 28  2  0
 10 11  2  0
 10 16  1  0
 10 17  1  0
 11 15  1  0
 12 13  1  0
 12 15  2  0
 12 20  1  0
 13 16  2  0
 13 21  1  0
 14 17  1  0
 14 18  2  0
 14 19  1  0
 18 22  1  0
 19 23  2  0
 19 27  1  0
 20 25  1  0
 21 26  1  0
 22 24  2  0
 23 24  1  0
 25 26  2  0
 28 31  1  0
M  END
>  <PUBCHEM_COMPOUND_CID>  (1) 
36597

>  <PUBCHEM_CONFORMER_RMSD>  (1) 
0.8

>  <PUBCHEM_CONFORMER_DIVERSEORDER>  (1) 
1
3
2
4

>  <PUBCHEM_MMFF94_PARTIAL_CHARGES>  (1) 
35
1 -0.17
10 0.09
11 0.08
12 0.09
13 0.09
14 0.09
15 0.08
16 0.08
17 0.4
18 0.08
19 -0.14
2 -0.23
20 0.47
21 0.47
22 -0.15
23 -0.15
24 0.08
25 0.09
26 -0.14
27 0.14
28 0.66
29 0.28
3 -0.53
30 0.28
31 0.06
32 0.15
33 0.15
34 0.15
38 0.45
4 -0.57
5 -0.36
6 -0.36
7 -0.57
8 -0.57
9 -0.57

>  <PUBCHEM_EFFECTIVE_ROTOR_COUNT>  (1) 
4

>  <PUBCHEM_PHARMACOPHORE_FEATURES>  (1) 
12
1 1 acceptor
1 3 donor
1 4 acceptor
1 5 acceptor
1 6 acceptor
1 7 acceptor
1 8 acceptor
1 9 acceptor
6 1 10 11 14 17 18 rings
6 10 11 12 13 15 16 rings
6 12 13 20 21 25 26 rings
6 14 18 19 22 23 24 rings

>  <PUBCHEM_HEAVY_ATOM_COUNT>  (1) 
31

>  <PUBCHEM_ATOM_DEF_STEREO_COUNT>  (1) 
0

>  <PUBCHEM_ATOM_UDEF_STEREO_COUNT>  (1) 
0

>  <PUBCHEM_BOND_DEF_STEREO_COUNT>  (1) 
0

>  <PUBCHEM_BOND_UDEF_STEREO_COUNT>  (1) 
0

>  <PUBCHEM_ISOTOPIC_ATOM_COUNT>  (1) 
0

>  <PUBCHEM_COMPONENT_COUNT>  (1) 
1

>  <PUBCHEM_CACTVS_TAUTO_COUNT>  (1) 
5

>  <PUBCHEM_CONFORMER_ID>  (1) 
00008EF500000001

>  <PUBCHEM_MMFF94_ENERGY>  (1) 
120.8084

>  <PUBCHEM_FEATURE_SELFOVERLAP>  (1) 
60.987

>  <PUBCHEM_SHAPE_FINGERPRINT>  (1) 
10693767 8 17769913978202630615
10906281 52 18197797663391784605
1100329 8 18339923697684100144
11297010 23 17980184306746046069
11578080 2 16771250672788871890
11607047 403 15905399620271084803
12166972 35 18041002834289379460
13140716 1 18339929199579716185
13402501 40 18411699910828104055
13533116 47 18341893017630427180
14341114 176 18410294743763768173
14394314 77 18120368753958666224
14790565 3 18410577253885885657
15196674 1 18412824677027630620
15209289 33 18410009936155881037
15320467 1 18411418384639885982
15420108 30 16905823886985321416
16112460 7 18271820015862731353
17492 89 18340203085296246382
1813 80 17385438834648952028
19591789 44 18410290277013520005
19958102 18 18334566949689005574
20028762 73 18272365347966098079
20775438 99 16617536851957772751
21033648 29 18188753037971920197
21065198 57 18338517542871802734
21133410 171 17045360030508679414
21236236 1 18341613672867974029
21267235 1 18412550898768951316
21279426 13 18338795611496388380
21781051 124 17896341245159697923
21792934 111 18343011178038241105
22393880 68 18189607268164416397
23522609 53 18126598740728439657
23559900 14 18413383242441376200
3004659 81 18334013861866757638
3178227 256 18335714879501415715
335352 9 18340768126656148060
3380486 145 17975992173566949667
3383291 50 18409163290681204706
350125 39 18411420609606531325
392239 28 18336558200440381771
4073 2 18261674900178835322
4214541 1 18341048523548711172
5104073 3 18271804601420356296
59755656 215 18337952294778841943
6138700 20 18338517409353621046
9709674 26 18339361984744245198

>  <PUBCHEM_SHAPE_MULTIPOLES>  (1) 
585.14
12.78
4.29
0.77
3.19
1.33
-0.15
2.54
0.54
0.62
-0.74
-0.27
0.32
0.8

>  <PUBCHEM_SHAPE_SELFOVERLAP>  (1) 
1317.642

>  <PUBCHEM_SHAPE_VOLUME>  (1) 
305.8

>  <PUBCHEM_COORDINATE_TYPE>  (1) 
2
5
10

$$$$
