36591
     RDKit          3D

 14 15  0  0  0  0  0  0  0  0999 V2000
    3.5717    0.6905    0.0025 O   0  0  0  0  0  0  0  0  0  0  0  0
    1.6744   -0.7069   -0.0005 N   0  0  0  0  0  0  0  0  0  0  0  0
   -0.9512   -1.6007    0.0000 N   0  0  0  0  0  0  0  0  0  0  0  0
   -0.7085   -0.2762   -0.0002 C   0  0  0  0  0  0  0  0  0  0  0  0
   -1.7531    0.6718    0.0000 C   0  0  0  0  0  0  0  0  0  0  0  0
    0.6020    0.1933   -0.0004 C   0  0  0  0  0  0  0  0  0  0  0  0
   -1.4635    2.0468   -0.0001 C   0  0  0  0  0  0  0  0  0  0  0  0
    0.8902    1.5604   -0.0006 C   0  0  0  0  0  0  0  0  0  0  0  0
   -0.1436    2.4886   -0.0004 C   0  0  0  0  0  0  0  0  0  0  0  0
   -3.0726    0.1996    0.0003 C   0  0  0  0  0  0  0  0  0  0  0  0
   -3.3257   -1.1645    0.0005 C   0  0  0  0  0  0  0  0  0  0  0  0
   -2.2388   -2.0151    0.0003 C   0  0  0  0  0  0  0  0  0  0  0  0
    3.0419   -0.4159   -0.0006 C   0  0  0  0  0  0  0  0  0  0  0  0
    3.8769   -1.6718   -0.0007 C   0  0  0  0  0  0  0  0  0  0  0  0
  1 13  2  0
  2  6  1  0
  2 13  1  0
  3  4  2  0
  3 12  1  0
  4  5  1  0
  4  6  1  0
  5  7  1  0
  5 10  2  0
  6  8  2  0
  7  9  2  0
  8  9  1  0
 10 11  1  0
 11 12  2  0
 13 14  1  0
M  END
>  <PUBCHEM_COMPOUND_CID>  (1) 
36591

>  <PUBCHEM_CONFORMER_RMSD>  (1) 
0.6

>  <PUBCHEM_CONFORMER_DIVERSEORDER>  (1) 
1
4
2
3

>  <PUBCHEM_MMFF94_PARTIAL_CHARGES>  (1) 
20
1 -0.57
10 -0.15
11 -0.15
12 0.16
13 0.57
14 0.06
15 0.15
16 0.15
17 0.15
18 0.15
19 0.37
2 -0.55
20 0.15
21 0.15
3 -0.62
4 0.31
6 0.12
7 -0.15
8 -0.15
9 -0.15

>  <PUBCHEM_EFFECTIVE_ROTOR_COUNT>  (1) 
2

>  <PUBCHEM_PHARMACOPHORE_FEATURES>  (1) 
5
1 1 acceptor
1 2 donor
1 3 acceptor
6 3 4 5 10 11 12 rings
6 4 5 6 7 8 9 rings

>  <PUBCHEM_HEAVY_ATOM_COUNT>  (1) 
14

>  <PUBCHEM_ATOM_DEF_STEREO_COUNT>  (1) 
0

>  <PUBCHEM_ATOM_UDEF_STEREO_COUNT>  (1) 
0

>  <PUBCHEM_BOND_DEF_STEREO_COUNT>  (1) 
0

>  <PUBCHEM_BOND_UDEF_STEREO_COUNT>  (1) 
0

>  <PUBCHEM_ISOTOPIC_ATOM_COUNT>  (1) 
0

>  <PUBCHEM_COMPONENT_COUNT>  (1) 
1

>  <PUBCHEM_CACTVS_TAUTO_COUNT>  (1) 
2

>  <PUBCHEM_CONFORMER_ID>  (1) 
00008EEF00000001

>  <PUBCHEM_MMFF94_ENERGY>  (1) 
44.6469

>  <PUBCHEM_FEATURE_SELFOVERLAP>  (1) 
25.403

>  <PUBCHEM_SHAPE_FINGERPRINT>  (1) 
10967382 1 18194401323302091335
11132069 177 18412257316168695960
12032990 46 18410015450503797779
14911166 2 18336816529648157229
15375462 189 18187083957566018835
16945 1 18410575063404663169
17804303 29 18342742871193395526
193761 8 18266460004336432517
20510252 161 18271805653592242032
20645477 70 17759790843138351887
20711985 365 18337671906338692292
20871998 184 18201438051696283799
20871998 22 18339363070922604163
21029758 11 18342167886973972773
21267235 1 18410020943793524994
21296965 67 18410574024085744715
21501502 16 18267591397516678013
22213442 358 18339359789551772172
2334 1 18122626321159133383
23402539 116 18271232825419436895
23463225 33 18410577305319478606
23552423 10 17975698612546739469
23557571 272 18272943695904282804
23559900 14 18340480072458958768
2748010 2 18266450087240803589
427121 178 16051861930548697937
43471831 8 18117838793907927562
7364860 26 17981324804666322121
81228 2 18337966579607712752
8809292 202 18335706030924689402
9709674 26 18270401564701827758

>  <PUBCHEM_SHAPE_MULTIPOLES>  (1) 
272.28
5.78
2.45
0.6
4.26
0.64
0
-2.98
0
-0.58
0
-0.03
0.01
0

>  <PUBCHEM_SHAPE_SELFOVERLAP>  (1) 
590.835

>  <PUBCHEM_SHAPE_VOLUME>  (1) 
147.9

>  <PUBCHEM_COORDINATE_TYPE>  (1) 
2
5
10

$$$$
