36596
     RDKit          3D

 13 13  0  0  0  0  0  0  0  0999 V2000
   -2.6680    0.3079   -0.1504 N   0  0  0  0  0  0  0  0  0  0  0  0
   -1.1948    0.4492   -0.1648 N   0  0  0  0  0  0  0  0  0  0  0  0
   -3.0216   -0.0597    1.3023 C   0  0  0  0  0  0  0  0  0  0  0  0
   -3.1228   -0.8487   -1.0276 C   0  0  0  0  0  0  0  0  0  0  0  0
   -3.4223    1.5869   -0.4767 C   0  0  0  0  0  0  0  0  0  0  0  0
   -0.3609   -0.4982    0.1424 C   0  0  0  0  0  0  0  0  0  0  0  0
    1.0898   -0.1525    0.0519 C   0  0  0  0  0  0  0  0  0  0  0  0
   -0.6810   -1.9138    0.5572 C   0  0  0  0  0  0  0  0  0  0  0  0
    1.9830   -1.1447   -0.2783 C   0  0  0  0  0  0  0  0  0  0  0  0
    1.4734    1.1442    0.3026 C   0  0  0  0  0  0  0  0  0  0  0  0
    3.3376   -0.8219   -0.3626 C   0  0  0  0  0  0  0  0  0  0  0  0
    2.8278    1.4672    0.2182 C   0  0  0  0  0  0  0  0  0  0  0  0
    3.7598    0.4840   -0.1143 C   0  0  0  0  0  0  0  0  0  0  0  0
  1  2  1  0
  1  3  1  0
  1  4  1  0
  1  5  1  0
  2  6  2  0
  6  7  1  0
  6  8  1  0
  7  9  2  0
  7 10  1  0
  9 11  1  0
 10 12  2  0
 11 13  2  0
 12 13  1  0
M  CHG  1   1   1
M  END
>  <PUBCHEM_COMPOUND_CID>  (1) 
36596

>  <PUBCHEM_CONFORMER_RMSD>  (1) 
0.6

>  <PUBCHEM_CONFORMER_DIVERSEORDER>  (1) 
1

>  <PUBCHEM_MMFF94_PARTIAL_CHARGES>  (1) 
18
1 -0.69
10 -0.15
11 -0.15
12 -0.15
13 -0.15
2 -0.26
26 0.15
27 0.15
28 0.15
29 0.15
3 0.5
30 0.15
4 0.5
5 0.5
6 0.3
7 0.09
8 0.06
9 -0.15

>  <PUBCHEM_EFFECTIVE_ROTOR_COUNT>  (1) 
2

>  <PUBCHEM_PHARMACOPHORE_FEATURES>  (1) 
2
1 2 acceptor
6 7 9 10 11 12 13 rings

>  <PUBCHEM_HEAVY_ATOM_COUNT>  (1) 
13

>  <PUBCHEM_ATOM_DEF_STEREO_COUNT>  (1) 
0

>  <PUBCHEM_ATOM_UDEF_STEREO_COUNT>  (1) 
0

>  <PUBCHEM_BOND_DEF_STEREO_COUNT>  (1) 
0

>  <PUBCHEM_BOND_UDEF_STEREO_COUNT>  (1) 
1

>  <PUBCHEM_ISOTOPIC_ATOM_COUNT>  (1) 
0

>  <PUBCHEM_COMPONENT_COUNT>  (1) 
1

>  <PUBCHEM_CACTVS_TAUTO_COUNT>  (1) 
1

>  <PUBCHEM_CONFORMER_ID>  (1) 
00008EF400000001

>  <PUBCHEM_MMFF94_ENERGY>  (1) 
65.6786

>  <PUBCHEM_FEATURE_SELFOVERLAP>  (1) 
10.148

>  <PUBCHEM_SHAPE_FINGERPRINT>  (1) 
10130415 120 18410853236010374994
10608611 8 18410291458087432376
11471102 20 18341330011736890628
124424 183 18114176437135106154
12932764 1 18411422799622659655
13380535 21 18265911313695260154
13380535 76 18410852204975922850
14144814 61 18411418423114256178
14325111 11 18410572889971785421
14648413 74 18265053724780231792
14897335 6 18341607170281966218
15219456 202 18409172133896598946
15279308 100 18408326588006363518
15775835 57 18411699859615583237
16945 1 18409168818282073170
17844478 74 18114474413101978297
18186145 218 18273220776527900266
19422 9 17775568649706000335
200 152 17774998020725554663
20201158 50 18413673504573248686
20279233 1 18186521016091703475
20645477 70 18270678649715384526
20715346 28 18113907082123510099
21501502 16 18267867357713279966
23402539 116 18411408497771960740
23402655 69 18272087175676442668
23559900 14 18341612586810921334
25 1 18337390431087778943
2748010 2 18196381531386406162
276578 36 16877941599064621640
3248919 1 17168145645690490767
4028521 119 18115576046865975405
63268167 104 18272089374715360161
6333449 129 18336548338351593819
69090 78 18341611559554322711
81228 2 17608940016248803571
93112 12 18271803506060854757

>  <PUBCHEM_SHAPE_MULTIPOLES>  (1) 
257.57
6.85
1.65
0.9
0.41
0.04
0.09
-1.53
-0.73
0.07
0.02
0.69
0.09
0.31

>  <PUBCHEM_SHAPE_SELFOVERLAP>  (1) 
516.449

>  <PUBCHEM_SHAPE_VOLUME>  (1) 
154.1

>  <PUBCHEM_COORDINATE_TYPE>  (1) 
2
5
10

$$$$
