36609
     RDKit          3D

 16 16  0  0  1  0  0  0  0  0999 V2000
   -1.5451    2.0668    0.4281 O   0  0  0  0  0  0  0  0  0  0  0  0
   -0.1391   -0.3842   -2.3757 O   0  0  0  0  0  0  0  0  0  0  0  0
   -0.2841    0.6281    2.2074 O   0  0  0  0  0  0  0  0  0  0  0  0
    3.5979    1.1322   -0.1869 O   0  0  0  0  0  0  0  0  0  0  0  0
    1.7513    0.2797   -1.2586 N   0  0  0  0  0  0  0  0  0  0  0  0
    1.6791    0.7848    1.0309 N   0  0  0  0  0  0  0  0  0  0  0  0
   -0.1861   -0.4694    0.0473 C   0  0  0  0  0  0  0  0  0  0  0  0
    0.1334   -1.9375    0.3814 C   0  0  0  0  0  0  0  0  0  0  0  0
   -1.7085   -0.2887   -0.0408 C   0  0  0  0  0  0  0  0  0  0  0  0
    0.4417   -0.1738   -1.3112 C   0  0  0  0  0  0  0  0  0  0  0  0
    0.3627    0.3785    1.1904 C   0  0  0  0  0  0  0  0  0  0  0  0
   -2.0840    1.1188   -0.4889 C   0  0  0  0  0  0  0  0  0  0  0  0
   -0.4330   -2.3033    1.7482 C   0  0  0  0  0  0  0  0  0  0  0  0
   -0.4191   -2.8578   -0.7004 C   0  0  0  0  0  0  0  0  0  0  0  0
   -3.5972    1.2827   -0.5334 C   0  0  0  0  0  0  0  0  0  0  0  0
    2.4299    0.7429   -0.1378 C   0  0  0  0  0  0  0  0  0  0  0  0
  1 12  1  0
  2 10  2  0
  3 11  2  0
  4 16  2  0
  5 10  1  0
  5 16  1  0
  6 11  1  0
  6 16  1  0
  7  8  1  0
  7  9  1  0
  7 10  1  0
  7 11  1  0
  8 13  1  0
  8 14  1  0
  9 12  1  0
 12 15  1  0
M  END
>  <PUBCHEM_COMPOUND_CID>  (1) 
36609

>  <PUBCHEM_CONFORMER_RMSD>  (1) 
0.6

>  <PUBCHEM_CONFORMER_DIVERSEORDER>  (1) 
1
5
6
3
4
2

>  <PUBCHEM_MMFF94_PARTIAL_CHARGES>  (1) 
14
1 -0.68
10 0.57
11 0.57
12 0.28
16 0.69
2 -0.57
27 0.37
28 0.37
3 -0.57
32 0.4
4 -0.57
5 -0.49
6 -0.49
7 0.12

>  <PUBCHEM_EFFECTIVE_ROTOR_COUNT>  (1) 
3.6

>  <PUBCHEM_PHARMACOPHORE_FEATURES>  (1) 
9
1 1 acceptor
1 1 donor
1 2 acceptor
1 3 acceptor
1 4 acceptor
1 5 donor
1 6 donor
3 8 13 14 hydrophobe
6 5 6 7 10 11 16 rings

>  <PUBCHEM_HEAVY_ATOM_COUNT>  (1) 
16

>  <PUBCHEM_ATOM_DEF_STEREO_COUNT>  (1) 
0

>  <PUBCHEM_ATOM_UDEF_STEREO_COUNT>  (1) 
1

>  <PUBCHEM_BOND_DEF_STEREO_COUNT>  (1) 
0

>  <PUBCHEM_BOND_UDEF_STEREO_COUNT>  (1) 
0

>  <PUBCHEM_ISOTOPIC_ATOM_COUNT>  (1) 
0

>  <PUBCHEM_COMPONENT_COUNT>  (1) 
1

>  <PUBCHEM_CACTVS_TAUTO_COUNT>  (1) 
5

>  <PUBCHEM_CONFORMER_ID>  (1) 
00008F0100000001

>  <PUBCHEM_MMFF94_ENERGY>  (1) 
52.4069

>  <PUBCHEM_FEATURE_SELFOVERLAP>  (1) 
45.724

>  <PUBCHEM_SHAPE_FINGERPRINT>  (1) 
10702982 57 18187637037637016702
10863032 1 18408601444116678542
10922049 32 18334298647350623859
10948715 1 18334010575314955940
12138202 97 18270685380118677462
12423570 1 10747176195296082986
13024252 1 18115865389868876134
13132413 78 17187563841349466104
141345 1 12997506249650213786
14617773 55 16446177878314738790
14817 1 9927405618651825851
15557651 10 17988060245510332845
15775835 57 17676483947376828365
15906896 17 18115309023952983971
16945 1 18202558496984123648
18534176 82 18199754806989971468
20473742 2 17825096013566778850
20645476 183 18335975450054716224
21524375 3 18334851697409936461
22344851 12 17845355709414876933
23419403 2 17695678087624559959
23559900 14 18202279239339653288
305870 269 18116148874594999172
430814 3 17894897525618709888
59915604 170 17560807614747273684
7364860 26 18051126991386717271
81228 2 17903060476226862707

>  <PUBCHEM_SHAPE_MULTIPOLES>  (1) 
295.83
3.52
2.39
1.76
0.36
1.98
0.01
-3.15
-0.48
0.41
0.26
-0.15
0.28
0.01

>  <PUBCHEM_SHAPE_SELFOVERLAP>  (1) 
610.665

>  <PUBCHEM_SHAPE_VOLUME>  (1) 
167.4

>  <PUBCHEM_COORDINATE_TYPE>  (1) 
2
5
10

$$$$
