36608
     RDKit          3D

  9  8  0  0  0  0  0  0  0  0999 V2000
   -0.1403   -1.8173   -1.2739 Br  0  0  0  0  0  0  0  0  0  0  0  0
   -0.0734   -1.1372    1.7207 Cl  0  0  0  0  0  0  0  0  0  0  0  0
    1.3896    0.8394   -1.2303 O   0  0  0  0  0  0  0  0  0  0  0  0
   -1.0108    1.6486    0.3657 O   0  0  0  0  0  0  0  0  0  0  0  0
    2.1380    0.2013    0.7282 O   0  0  0  0  0  0  0  0  0  0  0  0
   -2.3140    0.0178   -0.2990 O   0  0  0  0  0  0  0  0  0  0  0  0
    1.2581    0.2564   -0.1430 N   0  0  0  0  0  0  0  0  0  0  0  0
   -1.2089    0.4702    0.0317 N   0  0  0  0  0  0  0  0  0  0  0  0
   -0.0382   -0.4792    0.0998 C   0  0  0  0  0  0  0  0  0  0  0  0
  1  9  1  0
  2  9  1  0
  3  7  1  0
  4  8  1  0
  5  7  2  0
  6  8  2  0
  7  9  1  0
  8  9  1  0
M  CHG  4   3  -1   4  -1   7   1   8   1
M  END
>  <PUBCHEM_COMPOUND_CID>  (1) 
36608

>  <PUBCHEM_CONFORMER_RMSD>  (1) 
0.4

>  <PUBCHEM_CONFORMER_DIVERSEORDER>  (1) 
1
8
4
5
7
6
3
2

>  <PUBCHEM_MMFF94_PARTIAL_CHARGES>  (1) 
9
1 -0.23
2 -0.29
3 -0.52
4 -0.52
5 -0.52
6 -0.52
7 0.8
8 0.8
9 1

>  <PUBCHEM_EFFECTIVE_ROTOR_COUNT>  (1) 
2

>  <PUBCHEM_PHARMACOPHORE_FEATURES>  (1) 
7
1 1 hydrophobe
1 3 acceptor
1 3 anion
1 4 acceptor
1 4 anion
1 5 acceptor
1 6 acceptor

>  <PUBCHEM_HEAVY_ATOM_COUNT>  (1) 
9

>  <PUBCHEM_ATOM_DEF_STEREO_COUNT>  (1) 
0

>  <PUBCHEM_ATOM_UDEF_STEREO_COUNT>  (1) 
0

>  <PUBCHEM_BOND_DEF_STEREO_COUNT>  (1) 
0

>  <PUBCHEM_BOND_UDEF_STEREO_COUNT>  (1) 
0

>  <PUBCHEM_ISOTOPIC_ATOM_COUNT>  (1) 
0

>  <PUBCHEM_COMPONENT_COUNT>  (1) 
1

>  <PUBCHEM_CACTVS_TAUTO_COUNT>  (1) 
1

>  <PUBCHEM_CONFORMER_ID>  (1) 
00008F0000000001

>  <PUBCHEM_MMFF94_ENERGY>  (1) 
23.0457

>  <PUBCHEM_FEATURE_SELFOVERLAP>  (1) 
35.691

>  <PUBCHEM_SHAPE_FINGERPRINT>  (1) 
137420 1 7920260267746291750
21040471 1 18273217503646802374
24536 1 18117585992148046317
29004967 10 13973681762634923231
5084963 1 18259985937810709844
5943 1 15619221593577193307

>  <PUBCHEM_SHAPE_MULTIPOLES>  (1) 
159.59
2.06
1.67
1.45
0.08
0.78
-0.75
-0.62
0.29
-0.42
0.48
0.27
0.21
-0.01

>  <PUBCHEM_SHAPE_SELFOVERLAP>  (1) 
285.574

>  <PUBCHEM_SHAPE_VOLUME>  (1) 
105.3

>  <PUBCHEM_COORDINATE_TYPE>  (1) 
2
5
10

$$$$
