36600
     RDKit          3D

 22 23  0  0  0  0  0  0  0  0999 V2000
    5.4523    1.8118   -0.8246 O   0  0  0  0  0  0  0  0  0  0  0  0
   -6.4826    0.1209    0.0587 N   0  0  0  0  0  0  0  0  0  0  0  0
    5.1775   -0.3622    0.0517 N   0  0  0  0  0  0  0  0  0  0  0  0
   -0.3765   -0.2329    0.6111 N   0  0  0  0  0  0  0  0  0  0  0  0
   -0.9130   -0.0038   -0.4984 N   0  0  0  0  0  0  0  0  0  0  0  0
   -5.0794    0.0896   -0.0814 C   0  0  0  0  0  0  0  0  0  0  0  0
    3.7898   -0.3297    0.1923 C   0  0  0  0  0  0  0  0  0  0  0  0
   -4.3369    1.2608    0.0707 C   0  0  0  0  0  0  0  0  0  0  0  0
   -4.4342   -1.1123   -0.3722 C   0  0  0  0  0  0  0  0  0  0  0  0
    3.1458    0.8729    0.4837 C   0  0  0  0  0  0  0  0  0  0  0  0
    3.0461   -1.5001    0.0407 C   0  0  0  0  0  0  0  0  0  0  0  0
    1.0148   -0.2650    0.4719 C   0  0  0  0  0  0  0  0  0  0  0  0
   -2.3111    0.0282   -0.3582 C   0  0  0  0  0  0  0  0  0  0  0  0
    1.7584    0.9053    0.6236 C   0  0  0  0  0  0  0  0  0  0  0  0
    1.6585   -1.4677    0.1805 C   0  0  0  0  0  0  0  0  0  0  0  0
   -2.9493    1.2299   -0.0681 C   0  0  0  0  0  0  0  0  0  0  0  0
   -3.0465   -1.1432   -0.5110 C   0  0  0  0  0  0  0  0  0  0  0  0
   -7.1108    1.0837    0.9413 C   0  0  0  0  0  0  0  0  0  0  0  0
   -7.3153   -0.8005   -0.6887 C   0  0  0  0  0  0  0  0  0  0  0  0
    5.9109   -1.5842    0.5064 C   0  0  0  0  0  0  0  0  0  0  0  0
    5.9471    0.7547   -0.4254 C   0  0  0  0  0  0  0  0  0  0  0  0
    7.4544    0.6439   -0.4046 C   0  0  0  0  0  0  0  0  0  0  0  0
  1 21  2  0
  2  6  1  0
  2 18  1  0
  2 19  1  0
  3  7  1  0
  3 20  1  0
  3 21  1  0
  4  5  2  0
  4 12  1  0
  5 13  1  0
  6  8  2  0
  6  9  1  0
  7 10  2  0
  7 11  1  0
  8 16  1  0
  9 17  2  0
 10 14  1  0
 11 15  2  0
 12 14  2  0
 12 15  1  0
 13 16  2  0
 13 17  1  0
 21 22  1  0
M  END
>  <PUBCHEM_COMPOUND_CID>  (1) 
36600

>  <PUBCHEM_CONFORMER_RMSD>  (1) 
0.8

>  <PUBCHEM_CONFORMER_DIVERSEORDER>  (1) 
1
7
2
4
5
3
6
8

>  <PUBCHEM_MMFF94_PARTIAL_CHARGES>  (1) 
30
1 -0.57
10 -0.15
11 -0.15
12 0.18
13 0.18
14 -0.15
15 -0.15
16 -0.15
17 -0.15
18 0.37
19 0.37
2 -0.84
20 0.3
21 0.57
22 0.06
23 0.15
24 0.15
25 0.15
26 0.15
27 0.15
28 0.15
29 0.15
3 -0.48
30 0.15
4 -0.18
5 -0.18
6 0.1
7 0.12
8 -0.15
9 -0.15

>  <PUBCHEM_EFFECTIVE_ROTOR_COUNT>  (1) 
5

>  <PUBCHEM_PHARMACOPHORE_FEATURES>  (1) 
4
1 1 acceptor
1 2 cation
6 6 8 9 13 16 17 rings
6 7 10 11 12 14 15 rings

>  <PUBCHEM_HEAVY_ATOM_COUNT>  (1) 
22

>  <PUBCHEM_ATOM_DEF_STEREO_COUNT>  (1) 
0

>  <PUBCHEM_ATOM_UDEF_STEREO_COUNT>  (1) 
0

>  <PUBCHEM_BOND_DEF_STEREO_COUNT>  (1) 
0

>  <PUBCHEM_BOND_UDEF_STEREO_COUNT>  (1) 
0

>  <PUBCHEM_ISOTOPIC_ATOM_COUNT>  (1) 
0

>  <PUBCHEM_COMPONENT_COUNT>  (1) 
1

>  <PUBCHEM_CACTVS_TAUTO_COUNT>  (1) 
1

>  <PUBCHEM_CONFORMER_ID>  (1) 
00008EF800000001

>  <PUBCHEM_MMFF94_ENERGY>  (1) 
93.182

>  <PUBCHEM_FEATURE_SELFOVERLAP>  (1) 
20.297

>  <PUBCHEM_SHAPE_FINGERPRINT>  (1) 
10 15 13479139021080187052
10299344 5 18413389834567504487
10595046 47 18409446951420838714
106641 1 16153433873760828457
10968037 39 18407758145322553023
11315181 36 18410293623689550193
11524674 6 15913325823528392183
11646440 116 15791735195845729436
11719270 70 18131066001090855142
11796584 16 14333123092234684380
12107183 9 17619347602564380571
12236239 1 18410573976957181417
12516196 113 15841548578520929018
12730499 353 17894915109652936258
12916748 109 16587740919930573084
13073987 5 15936960847483869837
13533116 47 18336540517269110186
13668630 136 15626224636827369117
13914758 101 11455901239180646603
14123256 10 18407759248390650332
14170010 4 18186802504581362404
14251764 18 18343863316676479507
14251764 46 12973884814907838833
14341114 176 18407762521234864133
14933364 13 18410013230010960969
15183329 4 17917716794378913184
15419008 47 15357690907416991079
18335252 98 18261398875500286371
20157964 124 18187365424812663442
20281389 69 18409445873474030040
20735858 18 13334734644039685392
21150785 3 17632860849847037776
21267235 1 18343021116766071843
21315763 28 18335981987036963246
21521721 280 18260553337708894450
220451 1 18201997724953914687
221357 26 18342173371346776376
22224240 67 16515684463489344650
2297311 6 17561084705053011689
23035841 295 18411697677835597835
23522609 53 18198928996517399977
23536379 177 18409448068534198906
23559900 14 18338509859022420617
28498 318 11527956637846649696
29717793 49 15195569013519077400
3004659 81 18131630101546307512
335352 9 18272363171630521021
34797466 226 16415480480647135664
350125 39 18341892983059932713
3545911 37 18342454842112402513
4073 2 18113904896117649330
4325135 7 18408323293877159012
4340502 62 16588022412171848386
542803 24 18260827103008285746
5758199 1 18334859419861244850
59682541 35 17749400282446423129
59755656 215 14404910163140850077
59755656 520 17821726144046782003

>  <PUBCHEM_SHAPE_MULTIPOLES>  (1) 
426.96
21.42
1.54
0.81
4.4
0.07
0.02
-2.56
-1.6
-0.71
-0.02
0.08
-0.07
-1.4

>  <PUBCHEM_SHAPE_SELFOVERLAP>  (1) 
898.424

>  <PUBCHEM_SHAPE_VOLUME>  (1) 
242.7

>  <PUBCHEM_COORDINATE_TYPE>  (1) 
2
5
10

$$$$
