36606
     RDKit          3D

 22 22  0  0  0  0  0  0  0  0999 V2000
    0.8752    3.3872   -0.3699 O   0  0  0  0  0  0  0  0  0  0  0  0
    0.0790   -3.5797    0.0982 O   0  0  0  0  0  0  0  0  0  0  0  0
   -1.1560    2.5632   -0.2514 O   0  0  0  0  0  0  0  0  0  0  0  0
   -1.7131   -2.3120    0.0765 O   0  0  0  0  0  0  0  0  0  0  0  0
   -1.6101    0.1452   -0.0816 N   0  0  0  0  0  0  0  0  0  0  0  0
    0.0880    2.4163   -0.2823 N   0  0  0  0  0  0  0  0  0  0  0  0
   -0.4683   -2.4537    0.0446 N   0  0  0  0  0  0  0  0  0  0  0  0
   -0.2177   -0.0157   -0.1179 C   0  0  0  0  0  0  0  0  0  0  0  0
   -2.3769    0.1625   -1.3289 C   0  0  0  0  0  0  0  0  0  0  0  0
   -2.3168    0.3096    1.1658 C   0  0  0  0  0  0  0  0  0  0  0  0
    2.5669   -0.3384   -0.1883 C   0  0  0  0  0  0  0  0  0  0  0  0
    4.0483   -0.5098   -0.2248 C   0  0  0  0  0  0  0  0  0  0  0  0
    0.6260    1.0999   -0.2160 C   0  0  0  0  0  0  0  0  0  0  0  0
    0.3525   -1.2951   -0.0556 C   0  0  0  0  0  0  0  0  0  0  0  0
   -3.8568   -0.0856   -1.0564 C   0  0  0  0  0  0  0  0  0  0  0  0
   -1.3422    0.3408    2.3384 C   0  0  0  0  0  0  0  0  0  0  0  0
    2.0111    0.9394   -0.2510 C   0  0  0  0  0  0  0  0  0  0  0  0
    1.7376   -1.4557   -0.0905 C   0  0  0  0  0  0  0  0  0  0  0  0
    4.6674   -0.0023   -1.5407 C   0  0  0  0  0  0  0  0  0  0  0  0
    4.7477    0.1586    0.9739 C   0  0  0  0  0  0  0  0  0  0  0  0
   -4.7065   -0.0328   -2.3186 C   0  0  0  0  0  0  0  0  0  0  0  0
   -2.0353    0.5581    3.6765 C   0  0  0  0  0  0  0  0  0  0  0  0
  1  6  1  0
  2  7  1  0
  3  6  2  0
  4  7  2  0
  5  8  1  0
  5  9  1  0
  5 10  1  0
  6 13  1  0
  7 14  1  0
  8 13  2  0
  8 14  1  0
  9 15  1  0
 10 16  1  0
 11 12  1  0
 11 17  2  0
 11 18  1  0
 12 19  1  0
 12 20  1  0
 13 17  1  0
 14 18  2  0
 15 21  1  0
 16 22  1  0
M  CHG  4   1  -1   2  -1   6   1   7   1
M  END
>  <PUBCHEM_COMPOUND_CID>  (1) 
36606

>  <PUBCHEM_CONFORMER_RMSD>  (1) 
0.8

>  <PUBCHEM_CONFORMER_DIVERSEORDER>  (1) 
2
5
7
6
8
4
1
3

>  <PUBCHEM_MMFF94_PARTIAL_CHARGES>  (1) 
18
1 -0.52
10 0.37
11 -0.14
12 0.14
13 0.13
14 0.13
17 -0.15
18 -0.15
2 -0.52
3 -0.52
32 0.15
33 0.15
4 -0.52
5 -0.84
6 0.91
7 0.91
8 0.1
9 0.37

>  <PUBCHEM_EFFECTIVE_ROTOR_COUNT>  (1) 
8

>  <PUBCHEM_PHARMACOPHORE_FEATURES>  (1) 
11
1 1 acceptor
1 1 anion
1 2 acceptor
1 2 anion
1 21 hydrophobe
1 22 hydrophobe
1 3 acceptor
1 4 acceptor
1 5 cation
3 12 19 20 hydrophobe
6 8 11 13 14 17 18 rings

>  <PUBCHEM_HEAVY_ATOM_COUNT>  (1) 
22

>  <PUBCHEM_ATOM_DEF_STEREO_COUNT>  (1) 
0

>  <PUBCHEM_ATOM_UDEF_STEREO_COUNT>  (1) 
0

>  <PUBCHEM_BOND_DEF_STEREO_COUNT>  (1) 
0

>  <PUBCHEM_BOND_UDEF_STEREO_COUNT>  (1) 
0

>  <PUBCHEM_ISOTOPIC_ATOM_COUNT>  (1) 
0

>  <PUBCHEM_COMPONENT_COUNT>  (1) 
1

>  <PUBCHEM_CACTVS_TAUTO_COUNT>  (1) 
1

>  <PUBCHEM_CONFORMER_ID>  (1) 
00008EFE00000002

>  <PUBCHEM_MMFF94_ENERGY>  (1) 
96.5939

>  <PUBCHEM_FEATURE_SELFOVERLAP>  (1) 
55.984

>  <PUBCHEM_SHAPE_FINGERPRINT>  (1) 
10498660 4 18335988666264886492
10693767 8 18129359550080196599
10967382 1 18409444765551614398
11578080 2 17751070534560641308
11680986 33 18125151895105036972
12236239 1 17847061065245669277
12553582 1 18337968847830395476
12592029 89 18187358805456054059
12633257 1 17609542415460540881
13140716 1 18265618860982373864
13583140 156 16950572116339517796
13911987 19 18261401061057904518
14142880 1 18130509621888263993
14289901 80 16343705430837349086
14787075 74 17417232364121398440
14790565 3 18265637436453172348
15309172 13 18266197083639234586
16752209 62 18335137532353348780
16945 1 18409455773800479950
17492 54 18334565841819733575
19010151 120 18272083889989511972
200 152 17704064118749242239
20600515 1 18125130940154610056
229495 10 17766575546702684865
2334 1 17977388557834524054
23402539 116 18342162354697114062
23419403 2 17628339786661310531
23493267 7 16950286187080917872
23557571 272 14979964657410303881
23558518 356 17537716586595784872
23559900 14 18412267268589005468
23566358 2 17979078511163864356
2748010 2 18123190366577154710
298252 57 18114445812994109315
3060560 45 18191839358689367111
70251023 43 17905886972856832263
81228 2 18271814510225976748

>  <PUBCHEM_SHAPE_MULTIPOLES>  (1) 
414.33
7.27
2.66
2.19
3.99
0.29
-2.04
0.47
3.37
-0.11
0.06
-2.76
-0.71
-0.57

>  <PUBCHEM_SHAPE_SELFOVERLAP>  (1) 
847.702

>  <PUBCHEM_SHAPE_VOLUME>  (1) 
240.3

>  <PUBCHEM_COORDINATE_TYPE>  (1) 
2
5
10

$$$$
