36612
     RDKit          3D

 20 20  0  0  1  0  0  0  0  0999 V2000
    1.6589   -0.7026    2.7017 S   0  0  0  0  0  0  0  0  0  0  0  0
    1.5847   -0.0538    0.8533 P   0  0  0  0  0  0  0  0  0  0  0  0
    0.1506    0.6073    0.4601 O   0  0  0  0  0  0  0  0  0  0  0  0
    2.5260    1.2620    0.6160 O   0  0  0  0  0  0  0  0  0  0  0  0
   -3.2466    2.6424   -0.5189 O   0  0  0  0  0  0  0  0  0  0  0  0
   -1.1068    2.6760   -0.0298 O   0  0  0  0  0  0  0  0  0  0  0  0
    1.9812   -1.1046   -0.3787 N   0  0  0  0  0  0  0  0  0  0  0  0
   -2.1805    2.0558   -0.2164 N   0  0  0  0  0  0  0  0  0  0  0  0
    3.2224   -1.8627   -0.3257 C   0  0  0  0  0  0  0  0  0  0  0  0
    4.4080   -0.9604   -0.6560 C   0  0  0  0  0  0  0  0  0  0  0  0
    3.1414   -3.0379   -1.2949 C   0  0  0  0  0  0  0  0  0  0  0  0
   -1.0308   -0.0542    0.2536 C   0  0  0  0  0  0  0  0  0  0  0  0
   -2.1895    0.6405   -0.0801 C   0  0  0  0  0  0  0  0  0  0  0  0
    2.4321    2.0031   -0.5898 C   0  0  0  0  0  0  0  0  0  0  0  0
   -1.0521   -1.4399    0.3837 C   0  0  0  0  0  0  0  0  0  0  0  0
   -3.4067   -1.4450   -0.1567 C   0  0  0  0  0  0  0  0  0  0  0  0
   -3.3802   -0.0564   -0.2858 C   0  0  0  0  0  0  0  0  0  0  0  0
   -2.2427   -2.1368    0.1779 C   0  0  0  0  0  0  0  0  0  0  0  0
    3.4100    3.1575   -0.5366 C   0  0  0  0  0  0  0  0  0  0  0  0
   -4.6796   -2.1903   -0.3769 C   0  0  0  0  0  0  0  0  0  0  0  0
  1  2  2  0
  2  3  1  0
  2  4  1  0
  2  7  1  0
  3 12  1  0
  4 14  1  0
  5  8  1  0
  6  8  2  0
  7  9  1  0
  8 13  1  0
  9 10  1  0
  9 11  1  0
 12 13  2  0
 12 15  1  0
 13 17  1  0
 14 19  1  0
 15 18  2  0
 16 17  2  0
 16 18  1  0
 16 20  1  0
M  CHG  2   5  -1   8   1
M  END
>  <PUBCHEM_COMPOUND_CID>  (1) 
36612

>  <PUBCHEM_CONFORMER_RMSD>  (1) 
0.8

>  <PUBCHEM_CONFORMER_DIVERSEORDER>  (1) 
1
29
42
3
32
25
40
44
19
13
43
31
24
41
22
15
36
11
16
10
8
7
33
20
28
21
17
30
37
12
23
4
6
18
27
2
5
26
39
38
14
9
35
34

>  <PUBCHEM_MMFF94_PARTIAL_CHARGES>  (1) 
21
1 -0.68
12 0.08
13 0.13
14 0.28
15 -0.15
16 -0.14
17 -0.15
18 -0.15
2 1.49
20 0.14
22 0.36
3 -0.35
31 0.15
32 0.15
33 0.15
4 -0.55
5 -0.52
6 -0.52
7 -0.9
8 0.91
9 0.27

>  <PUBCHEM_EFFECTIVE_ROTOR_COUNT>  (1) 
7

>  <PUBCHEM_PHARMACOPHORE_FEATURES>  (1) 
5
1 5 acceptor
1 5 anion
1 6 acceptor
3 9 10 11 hydrophobe
6 12 13 15 16 17 18 rings

>  <PUBCHEM_HEAVY_ATOM_COUNT>  (1) 
20

>  <PUBCHEM_ATOM_DEF_STEREO_COUNT>  (1) 
0

>  <PUBCHEM_ATOM_UDEF_STEREO_COUNT>  (1) 
1

>  <PUBCHEM_BOND_DEF_STEREO_COUNT>  (1) 
0

>  <PUBCHEM_BOND_UDEF_STEREO_COUNT>  (1) 
0

>  <PUBCHEM_ISOTOPIC_ATOM_COUNT>  (1) 
0

>  <PUBCHEM_COMPONENT_COUNT>  (1) 
1

>  <PUBCHEM_CACTVS_TAUTO_COUNT>  (1) 
2

>  <PUBCHEM_CONFORMER_ID>  (1) 
00008F0400000001

>  <PUBCHEM_MMFF94_ENERGY>  (1) 
35.8791

>  <PUBCHEM_FEATURE_SELFOVERLAP>  (1) 
25.453

>  <PUBCHEM_SHAPE_FINGERPRINT>  (1) 
10756046 5 18408892819278077196
14251745 187 18126840500115326222
14790565 3 17547583582432323640
15375462 6 18340208608328406742
15502722 9 18341058526975403838
16752209 62 18263348232027190907
16945 1 18191854631545513931
20645477 70 18337387265713095806
20871999 31 18337397028405770894
21501502 16 18342466945150959521
21524375 3 17900537080315467280
21618674 68 18337670944134168719
221490 88 18411145744489257814
23557571 272 18269818921895612609
23558518 356 18114189665180982921
23559900 14 18341323422871891182
23566358 2 18261945345189211965
2748010 2 18339909464267690323
34934 24 18048309235237565819
4280585 95 18123478172874340886
474 4 17096925982740200196
5262128 65 18408609153883681242
58051976 378 18264765626847529202
59755656 215 18263363758460358708
6049 1 18059282193494222627
7364860 26 18340207492080164084
74978 22 18263638481041552649
81228 2 18335417993733615033
9709674 26 18410296921238587494

>  <PUBCHEM_SHAPE_MULTIPOLES>  (1) 
385.85
8.07
3.65
1.32
1.96
1.53
-1.11
-2.33
2.47
-1.36
1.37
-1.25
-0.56
0.45

>  <PUBCHEM_SHAPE_SELFOVERLAP>  (1) 
751.688

>  <PUBCHEM_SHAPE_VOLUME>  (1) 
236.2

>  <PUBCHEM_COORDINATE_TYPE>  (1) 
2
5
10

$$$$
