36618
     RDKit          3D

  6  5  0  0  0  0  0  0  0  0999 V2000
   -2.0953   -0.6484    0.2172 O   0  0  0  0  0  0  0  0  0  0  0  0
   -0.0423    0.2930    0.1346 N   0  0  0  0  0  0  0  0  0  0  0  0
   -0.9950   -0.7249   -0.3409 N   0  0  0  0  0  0  0  0  0  0  0  0
    2.3341   -0.4965    0.0020 N   0  0  0  0  0  0  0  0  0  0  0  0
   -0.4352    1.7101   -0.0795 C   0  0  0  0  0  0  0  0  0  0  0  0
    1.2337   -0.1332    0.0666 C   0  0  0  0  0  0  0  0  0  0  0  0
  1  3  2  0
  2  3  1  0
  2  5  1  0
  2  6  1  0
  4  6  3  0
M  END
>  <PUBCHEM_COMPOUND_CID>  (1) 
36618

>  <PUBCHEM_CONFORMER_RMSD>  (1) 
0.4

>  <PUBCHEM_CONFORMER_DIVERSEORDER>  (1) 
1
3
2

>  <PUBCHEM_MMFF94_PARTIAL_CHARGES>  (1) 
6
1 -0.16
2 -0.38
3 0.06
4 -0.56
5 0.36
6 0.68

>  <PUBCHEM_EFFECTIVE_ROTOR_COUNT>  (1) 
1

>  <PUBCHEM_PHARMACOPHORE_FEATURES>  (1) 
2
1 4 acceptor
3 2 4 6 cation

>  <PUBCHEM_HEAVY_ATOM_COUNT>  (1) 
6

>  <PUBCHEM_ATOM_DEF_STEREO_COUNT>  (1) 
0

>  <PUBCHEM_ATOM_UDEF_STEREO_COUNT>  (1) 
0

>  <PUBCHEM_BOND_DEF_STEREO_COUNT>  (1) 
0

>  <PUBCHEM_BOND_UDEF_STEREO_COUNT>  (1) 
0

>  <PUBCHEM_ISOTOPIC_ATOM_COUNT>  (1) 
0

>  <PUBCHEM_COMPONENT_COUNT>  (1) 
1

>  <PUBCHEM_CACTVS_TAUTO_COUNT>  (1) 
1

>  <PUBCHEM_CONFORMER_ID>  (1) 
00008F0A00000001

>  <PUBCHEM_MMFF94_ENERGY>  (1) 
5.3688

>  <PUBCHEM_FEATURE_SELFOVERLAP>  (1) 
10.148

>  <PUBCHEM_SHAPE_FINGERPRINT>  (1) 
139733 1 9223239550035571338
16714656 1 18340491079647826615
20096714 4 17620197971776904125
21040471 1 17762334717432728360
23552449 1 18339355250146302432
29004967 10 18335422429886133954
5460574 1 8862950471797298706
5943 1 12494023206534232561

>  <PUBCHEM_SHAPE_MULTIPOLES>  (1) 
102.66
2.5
1.32
0.58
0.71
0.72
-0.01
-0.95
0.1
-0.52
-0.05
-0.01
0.01
0.02

>  <PUBCHEM_SHAPE_SELFOVERLAP>  (1) 
181.691

>  <PUBCHEM_SHAPE_VOLUME>  (1) 
65.9

>  <PUBCHEM_COORDINATE_TYPE>  (1) 
2
5
10

$$$$
