3661
     RDKit          3D

 21 23  0  0  1  0  0  0  0  0999 V2000
   -0.0201    0.0506    0.4106 O   0  0  0  0  0  0  0  0  0  0  0  0
    0.2418    2.1035   -0.5999 O   0  0  0  0  0  0  0  0  0  0  0  0
    3.0605    2.5649   -0.9266 O   0  0  0  0  0  0  0  0  0  0  0  0
   -4.0110   -0.3672    0.9019 N   0  0  0  0  0  0  0  0  0  0  0  0
   -3.7039    0.8416    0.1140 C   0  0  0  0  0  0  0  0  0  0  0  0
   -3.4622   -1.4496    0.0633 C   0  0  0  0  0  0  0  0  0  0  0  0
   -4.0301    0.4501   -1.3315 C   0  0  0  0  0  0  0  0  0  0  0  0
   -3.8697   -1.0718   -1.3652 C   0  0  0  0  0  0  0  0  0  0  0  0
   -2.1995    1.1151    0.3098 C   0  0  0  0  0  0  0  0  0  0  0  0
   -1.9330   -1.4119    0.2538 C   0  0  0  0  0  0  0  0  0  0  0  0
   -1.3238   -0.0610   -0.1474 C   0  0  0  0  0  0  0  0  0  0  0  0
   -5.4395   -0.5237    1.1642 C   0  0  0  0  0  0  0  0  0  0  0  0
    0.6671    1.1962    0.1038 C   0  0  0  0  0  0  0  0  0  0  0  0
    2.0420    1.1684    0.7655 C   0  0  0  0  0  0  0  0  0  0  0  0
    2.8246   -0.0660    0.3464 C   0  0  0  0  0  0  0  0  0  0  0  0
    2.8024    2.4693    0.4709 C   0  0  0  0  0  0  0  0  0  0  0  0
    3.7400   -0.6078    1.2265 C   0  0  0  0  0  0  0  0  0  0  0  0
    2.5969   -0.6100   -0.9021 C   0  0  0  0  0  0  0  0  0  0  0  0
    4.4577   -1.7404    0.8423 C   0  0  0  0  0  0  0  0  0  0  0  0
    3.3147   -1.7426   -1.2862 C   0  0  0  0  0  0  0  0  0  0  0  0
    4.2451   -2.3078   -0.4140 C   0  0  0  0  0  0  0  0  0  0  0  0
  1 11  1  0
  1 13  1  0
  2 13  2  0
  3 16  1  0
  4  5  1  0
  4  6  1  0
  4 12  1  0
  5  7  1  0
  5  9  1  0
  6  8  1  0
  6 10  1  0
  7  8  1  0
  9 11  1  0
 10 11  1  0
 13 14  1  0
 14 15  1  0
 14 16  1  0
 15 17  2  0
 15 18  1  0
 17 19  1  0
 18 20  2  0
 19 21  2  0
 20 21  1  0
M  END
>  <PUBCHEM_COMPOUND_CID>  (1) 
3661

>  <PUBCHEM_CONFORMER_RMSD>  (1) 
0.8

>  <PUBCHEM_CONFORMER_DIVERSEORDER>  (1) 
1
74
113
33
105
96
123
67
55
16
126
13
57
111
82
91
54
106
40
80
44
112
18
121
41
119
70
73
116
93
129
88
125
103
92
109
64
8
87
66
86
114
124
20
52
58
102
110
42
24
78
11
68
77
90
107
50
28
63
9
115
10
23
2
7
12
104
6
17
53
75
61
37
69
98
29
26
30
130
71
97
48
47
117
100
5
49
85
62
27
127
118
94
76
51
95
39
84
3
46
31
101
108
59
43
65
34
15
38
72
122
120
60
99
35
32
83
79
81
36
25
89
19
22
128
45
4
14
21
56

>  <PUBCHEM_MMFF94_PARTIAL_CHARGES>  (1) 
23
1 -0.43
11 0.28
12 0.27
13 0.66
14 0.2
15 -0.14
16 0.28
17 -0.15
18 -0.15
19 -0.15
2 -0.57
20 -0.15
21 -0.15
3 -0.68
39 0.15
4 -0.81
40 0.15
41 0.4
42 0.15
43 0.15
44 0.15
5 0.27
6 0.27

>  <PUBCHEM_EFFECTIVE_ROTOR_COUNT>  (1) 
6.2

>  <PUBCHEM_PHARMACOPHORE_FEATURES>  (1) 
6
1 2 acceptor
1 3 acceptor
1 3 donor
1 4 cation
6 15 17 18 19 20 21 rings
8 4 5 6 7 8 9 10 11 rings

>  <PUBCHEM_HEAVY_ATOM_COUNT>  (1) 
21

>  <PUBCHEM_ATOM_DEF_STEREO_COUNT>  (1) 
0

>  <PUBCHEM_ATOM_UDEF_STEREO_COUNT>  (1) 
3

>  <PUBCHEM_BOND_DEF_STEREO_COUNT>  (1) 
0

>  <PUBCHEM_BOND_UDEF_STEREO_COUNT>  (1) 
0

>  <PUBCHEM_ISOTOPIC_ATOM_COUNT>  (1) 
0

>  <PUBCHEM_COMPONENT_COUNT>  (1) 
1

>  <PUBCHEM_CACTVS_TAUTO_COUNT>  (1) 
1

>  <PUBCHEM_CONFORMER_ID>  (1) 
00000E4D00000001

>  <PUBCHEM_MMFF94_ENERGY>  (1) 
54.6452

>  <PUBCHEM_FEATURE_SELFOVERLAP>  (1) 
30.449

>  <PUBCHEM_SHAPE_FINGERPRINT>  (1) 
10369192 42 17389956874283588612
10498660 4 8934707894860829146
10616163 171 18053102006112065014
11405975 8 18412546492296263441
11595378 159 15051741879909117698
116883 192 18339640032232032876
12107183 9 17984715415306280401
12363563 72 18338520742342889346
12553582 1 18338241457725809038
12616971 3 18201718462085633059
12633257 1 18272937119855853775
13224815 77 18059292166492445703
13296908 3 18114177570816697993
13533116 47 18272649099749702659
13544653 18 17988637459208139938
13583140 156 15840968010817335593
13675066 3 18060414690470662793
13955234 65 18339926034273059544
14252887 29 18272646819095714546
14866123 147 16976754485688560690
15163728 17 16445906269453180732
15239154 128 11097855168440818911
15422964 175 17985828130043293070
15442244 35 18412546483300367712
15788980 27 18336260171968634847
15848702 151 18201153269753192399
15885798 251 18411704253103525993
17349148 13 17917709093381322795
17492 89 18341329010883611831
17804303 29 18409733919808400905
17818456 19 17559969714099318345
17844677 252 18113902658813928549
1813 80 18187091619851056164
18186145 218 17894346687657647001
19141452 34 18131067113339132903
193927 3 18411144605953607475
19862831 5 14634869712849116982
20281475 54 18201999971216158903
20369508 70 18187640289417948506
20645477 70 18409164441467824930
20681651 13 17487903525990346147
21756936 100 14402610097323651338
221490 88 18336271235857182546
2255824 54 18334297591368943730
23503953 91 17775567541931511619
23559900 14 18413100663204571856
312423 11 18337403676862294265
314173 41 18409453553234257874
3421961 26 18412544301978720650
5104073 3 18341337772932660427
5161694 15 18114178631520645735
5281201 14 18040715887376445413
5924683 9 16844995884701505423
633830 44 18113611296753696913
7064713 232 16773790385651231415
7364860 26 18341613763352554600
8863177 126 17969238874454871579
90127 26 17821726144072823889
9709674 26 18337952401931361003
9841814 1 18260820489317897688
9971528 1 18202278074838857506

>  <PUBCHEM_SHAPE_MULTIPOLES>  (1) 
409.58
10.94
2.44
1.23
4.86
0.81
0.14
-4.56
-1.08
-2.9
0.38
0.2
-0.2
0.13

>  <PUBCHEM_SHAPE_SELFOVERLAP>  (1) 
871.341

>  <PUBCHEM_SHAPE_VOLUME>  (1) 
228.1

>  <PUBCHEM_COORDINATE_TYPE>  (1) 
2
5
10

$$$$
