36630
     RDKit          3D

 25 30  0  0  0  0  0  0  0  0999 V2000
    0.6050   -0.3142    0.0006 C   0  0  0  0  0  0  0  0  0  0  0  0
   -0.7796    0.0451    0.0006 C   0  0  0  0  0  0  0  0  0  0  0  0
    1.6302    0.6723    0.0005 C   0  0  0  0  0  0  0  0  0  0  0  0
   -1.8047   -0.9415    0.0006 C   0  0  0  0  0  0  0  0  0  0  0  0
   -1.1319    1.4090    0.0003 C   0  0  0  0  0  0  0  0  0  0  0  0
    0.9574   -1.6781    0.0005 C   0  0  0  0  0  0  0  0  0  0  0  0
    1.2153    2.0196    0.0005 C   0  0  0  0  0  0  0  0  0  0  0  0
    3.0125    0.2718    0.0001 C   0  0  0  0  0  0  0  0  0  0  0  0
   -3.1871   -0.5410    0.0002 C   0  0  0  0  0  0  0  0  0  0  0  0
   -0.1317    2.3805    0.0004 C   0  0  0  0  0  0  0  0  0  0  0  0
    3.3287   -1.1080   -0.0002 C   0  0  0  0  0  0  0  0  0  0  0  0
   -3.5033    0.8388   -0.0004 C   0  0  0  0  0  0  0  0  0  0  0  0
    2.3030   -2.0568    0.0002 C   0  0  0  0  0  0  0  0  0  0  0  0
   -2.4775    1.7877   -0.0003 C   0  0  0  0  0  0  0  0  0  0  0  0
   -1.3897   -2.2888    0.0008 C   0  0  0  0  0  0  0  0  0  0  0  0
   -0.0429   -2.6498    0.0008 C   0  0  0  0  0  0  0  0  0  0  0  0
    2.0943    3.2307    0.0015 C   0  0  0  0  0  0  0  0  0  0  0  0
    4.1085    1.1732   -0.0003 C   0  0  0  0  0  0  0  0  0  0  0  0
   -4.2831   -1.4424    0.0002 C   0  0  0  0  0  0  0  0  0  0  0  0
    4.6677   -1.5371   -0.0011 C   0  0  0  0  0  0  0  0  0  0  0  0
   -4.8423    1.2678   -0.0014 C   0  0  0  0  0  0  0  0  0  0  0  0
    5.4357    0.7348   -0.0010 C   0  0  0  0  0  0  0  0  0  0  0  0
    5.7155   -0.6221   -0.0015 C   0  0  0  0  0  0  0  0  0  0  0  0
   -5.6103   -1.0042   -0.0004 C   0  0  0  0  0  0  0  0  0  0  0  0
   -5.8900    0.3527   -0.0014 C   0  0  0  0  0  0  0  0  0  0  0  0
  1  2  2  0
  1  3  1  0
  1  6  1  0
  2  4  1  0
  2  5  1  0
  3  7  2  0
  3  8  1  0
  4  9  2  0
  4 15  1  0
  5 10  2  0
  5 14  1  0
  6 13  2  0
  6 16  1  0
  7 10  1  0
  7 17  1  0
  8 11  2  0
  8 18  1  0
  9 12  1  0
  9 19  1  0
 11 13  1  0
 11 20  1  0
 12 14  2  0
 12 21  1  0
 15 16  2  0
 18 22  2  0
 19 24  2  0
 20 23  2  0
 21 25  2  0
 22 23  1  0
 24 25  1  0
M  END
>  <PUBCHEM_COMPOUND_CID>  (1) 
36630

>  <PUBCHEM_CONFORMER_RMSD>  (1) 
0.6

>  <PUBCHEM_CONFORMER_DIVERSEORDER>  (1) 
1

>  <PUBCHEM_MMFF94_PARTIAL_CHARGES>  (1) 
28
10 -0.15
13 -0.15
14 -0.15
15 -0.15
16 -0.15
17 0.14
18 -0.15
19 -0.15
20 -0.15
21 -0.15
22 -0.15
23 -0.15
24 -0.15
25 -0.15
26 0.15
27 0.15
28 0.15
29 0.15
30 0.15
34 0.15
35 0.15
36 0.15
37 0.15
38 0.15
39 0.15
40 0.15
41 0.15
7 -0.14

>  <PUBCHEM_EFFECTIVE_ROTOR_COUNT>  (1) 
0

>  <PUBCHEM_PHARMACOPHORE_FEATURES>  (1) 
6
6 1 2 3 5 7 10 rings
6 1 2 4 6 15 16 rings
6 1 3 6 8 11 13 rings
6 2 4 5 9 12 14 rings
6 8 11 18 20 22 23 rings
6 9 12 19 21 24 25 rings

>  <PUBCHEM_HEAVY_ATOM_COUNT>  (1) 
25

>  <PUBCHEM_ATOM_DEF_STEREO_COUNT>  (1) 
0

>  <PUBCHEM_ATOM_UDEF_STEREO_COUNT>  (1) 
0

>  <PUBCHEM_BOND_DEF_STEREO_COUNT>  (1) 
0

>  <PUBCHEM_BOND_UDEF_STEREO_COUNT>  (1) 
0

>  <PUBCHEM_ISOTOPIC_ATOM_COUNT>  (1) 
0

>  <PUBCHEM_COMPONENT_COUNT>  (1) 
1

>  <PUBCHEM_CACTVS_TAUTO_COUNT>  (1) 
1

>  <PUBCHEM_CONFORMER_ID>  (1) 
00008F1600000001

>  <PUBCHEM_MMFF94_ENERGY>  (1) 
110.9412

>  <PUBCHEM_FEATURE_SELFOVERLAP>  (1) 
30.622

>  <PUBCHEM_SHAPE_FINGERPRINT>  (1) 
10 15 18336538413715966296
10411042 1 17834395622706617698
10675989 125 16605178877779203549
10906281 52 18339100227503525926
10967382 1 18410575114923061280
1100329 8 18339079405549606282
11112241 14 16627967798347342872
11578080 2 16915083278060910754
11607047 403 15761011800598716755
11646440 116 18273502281558924161
12011746 2 18410293601154521086
12107183 9 17618504276966619243
12166972 35 17894354350364535332
12236239 1 18410856546760168935
12788726 201 17988939863434546456
12838862 33 18338779174472072712
13140716 1 18194119844077847434
13402501 40 18410011026608101734
13862211 1 18410570678132492058
14341114 176 18410862061883279475
14787075 74 18334296456938570866
14790565 3 18410862048608455073
15081414 286 18341905047295623190
15099037 51 18410575101895760679
15131766 46 16227753262787090462
15196674 1 18410573972271856487
15219462 58 15936402317063151185
15230672 131 13218748868199136827
15927050 60 17766276857835077236
1601671 61 18411136917935552792
16087824 20 18337955572045013005
1813 80 17385441025092562532
18681886 176 18342168998842741762
19319366 153 17894066304051776514
19591789 44 18410574006631575381
200 152 18202561774518872233
20028762 73 18201996659797212343
20642791 178 18261127274226101725
21033648 29 17531791537534977061
21236236 1 18340487773087842377
21267235 1 18411144614606903838
21279426 13 18338234838848533183
21421861 104 17825665556258050923
21709351 56 18410847777091150245
21792934 111 18339346471174835328
221490 88 18335989773970939659
23227448 37 18341894138142521479
23402539 116 18343014497557142559
23558518 356 17755861175209994794
23559900 14 18340481261474336209
24771293 8 18129085883712342184
3004659 81 18260551109074496118
3178227 256 18336277794678191963
335352 9 18410855473018345374
338550 245 18335423520755235684
34797466 226 16630529565845134880
34934 24 18410852192217491594
350125 39 18410013247370431581
3680242 22 18263081037484287562
4073 2 18041003980834663795
4093350 32 16845299375754739648
474229 33 18411418397297245863
5104073 3 18410856542491602323
59755656 215 18339085895862843534
6138700 20 18409731716648693434
9709674 26 18337394949673228531

>  <PUBCHEM_SHAPE_MULTIPOLES>  (1) 
514.49
11.81
2.93
0.62
2.52
0.59
0
-0.87
0.01
-0.78
0
0
0
0

>  <PUBCHEM_SHAPE_SELFOVERLAP>  (1) 
1215.197

>  <PUBCHEM_SHAPE_VOLUME>  (1) 
233.9

>  <PUBCHEM_COORDINATE_TYPE>  (1) 
2
5
10

$$$$
