36639
     RDKit          3D

 15 15  0  0  1  0  0  0  0  0999 V2000
   -1.5394   -1.2917   -2.2669 Cl  0  0  0  0  0  0  0  0  0  0  0  0
    1.3363    1.3316   -0.2851 O   0  0  0  0  0  0  0  0  0  0  0  0
    1.9424   -2.2535    1.8318 O   0  0  0  0  0  0  0  0  0  0  0  0
    1.7832   -2.0179   -0.7730 N   0  0  0  0  0  0  0  0  0  0  0  0
    1.3146   -1.0871    1.3853 N   0  0  0  0  0  0  0  0  0  0  0  0
    0.6057    0.1443   -0.5817 C   0  0  0  0  0  0  0  0  0  0  0  0
   -0.8208    0.2745   -0.1555 C   0  0  0  0  0  0  0  0  0  0  0  0
    1.2897   -1.0608    0.0843 C   0  0  0  0  0  0  0  0  0  0  0  0
   -1.8546   -0.3423   -0.8604 C   0  0  0  0  0  0  0  0  0  0  0  0
   -1.1069    1.0357    0.9779 C   0  0  0  0  0  0  0  0  0  0  0  0
    2.6935    1.2182   -0.6863 C   0  0  0  0  0  0  0  0  0  0  0  0
   -3.1742   -0.1981   -0.4315 C   0  0  0  0  0  0  0  0  0  0  0  0
   -2.4264    1.1799    1.4066 C   0  0  0  0  0  0  0  0  0  0  0  0
   -3.4600    0.5632    0.7019 C   0  0  0  0  0  0  0  0  0  0  0  0
    3.4169    2.5040   -0.3474 C   0  0  0  0  0  0  0  0  0  0  0  0
  1  9  1  0
  2  6  1  0
  2 11  1  0
  3  5  1  0
  4  8  1  0
  5  8  2  0
  6  7  1  0
  6  8  1  0
  7  9  2  0
  7 10  1  0
  9 12  1  0
 10 13  2  0
 11 15  1  0
 12 14  2  0
 13 14  1  0
M  END
>  <PUBCHEM_COMPOUND_CID>  (1) 
36639

>  <PUBCHEM_CONFORMER_RMSD>  (1) 
0.6

>  <PUBCHEM_CONFORMER_DIVERSEORDER>  (1) 
1
42
37
52
22
10
45
5
20
34
49
50
4
39
27
36
41
35
48
21
40
47
28
33
32
51
14
31
24
19
44
12
23
18
11
43
9
46
25
53
8
13
26
6
29
7
30
38
3
2
16
17
15

>  <PUBCHEM_MMFF94_PARTIAL_CHARGES>  (1) 
21
1 -0.18
10 -0.15
11 0.28
12 -0.15
13 -0.15
14 -0.15
17 0.15
2 -0.56
20 0.15
21 0.15
22 0.15
26 0.4
27 0.4
28 0.4
3 -0.34
4 -0.85
5 -0.51
6 0.48
7 -0.14
8 0.44
9 0.18

>  <PUBCHEM_EFFECTIVE_ROTOR_COUNT>  (1) 
4

>  <PUBCHEM_PHARMACOPHORE_FEATURES>  (1) 
5
1 2 acceptor
1 3 anion
1 4 donor
3 4 5 8 cation
6 7 9 10 12 13 14 rings

>  <PUBCHEM_HEAVY_ATOM_COUNT>  (1) 
15

>  <PUBCHEM_ATOM_DEF_STEREO_COUNT>  (1) 
0

>  <PUBCHEM_ATOM_UDEF_STEREO_COUNT>  (1) 
1

>  <PUBCHEM_BOND_DEF_STEREO_COUNT>  (1) 
0

>  <PUBCHEM_BOND_UDEF_STEREO_COUNT>  (1) 
1

>  <PUBCHEM_ISOTOPIC_ATOM_COUNT>  (1) 
0

>  <PUBCHEM_COMPONENT_COUNT>  (1) 
1

>  <PUBCHEM_CACTVS_TAUTO_COUNT>  (1) 
3

>  <PUBCHEM_CONFORMER_ID>  (1) 
00008F1F00000001

>  <PUBCHEM_MMFF94_ENERGY>  (1) 
39.2775

>  <PUBCHEM_FEATURE_SELFOVERLAP>  (1) 
25.371

>  <PUBCHEM_SHAPE_FINGERPRINT>  (1) 
12202030 40 16588317029310491651
12326174 3 18187930543059827006
12932764 1 17895768287731327917
13538477 17 17988917894823766807
13898156 1 18201706362635090303
14787075 74 17691135146317712843
15207287 21 16082206475552832169
15219456 202 17022891350614895789
15279307 12 18130792269359274463
15309172 13 17750519661907419524
15775835 57 18271820050196251149
16945 1 18267602216190981101
170605 34 18339091465912887804
1813 80 18123187897182599086
18186145 218 18338525256427754164
19765921 60 18338516464196909536
19873495 37 18127991873251512805
20361792 2 17973152942169848138
204376 136 17823986834247337228
20645476 183 18202285831613091469
21061003 4 17606395449888867210
21524375 3 18265337385905871444
22112679 90 18130492102595123004
23236772 104 18270407216614648633
23419403 2 14711932258337274834
23559900 14 16702033010787473884
23598291 2 18341052908825923229
23598294 1 17703512189998406791
3286 77 17459189582241082451
4340502 62 18114471166628864299
474 4 18265342874763520444
528862 383 18335141981411816633
53812653 8 17846225470573294493
633830 44 18336838592668816764
68419 9 18059558217998964421
7364860 26 18272099244808591140
77492 1 18343579642365244517
81228 2 16485827281683761023
88987 49 17131821067306452821
9981440 41 17122254466243249432

>  <PUBCHEM_SHAPE_MULTIPOLES>  (1) 
288.86
5.18
2.22
1.66
0.23
0.28
-0.38
-2.47
0.46
1.49
-0.03
0.2
0.88
-2.01

>  <PUBCHEM_SHAPE_SELFOVERLAP>  (1) 
581.572

>  <PUBCHEM_SHAPE_VOLUME>  (1) 
170.4

>  <PUBCHEM_COORDINATE_TYPE>  (1) 
2
5
10

$$$$
