36638
     RDKit          3D

 16 16  0  0  1  0  0  0  0  0999 V2000
   -1.4220    0.3550   -2.7016 Cl  0  0  0  0  0  0  0  0  0  0  0  0
    0.5119   -0.4076    2.3394 Cl  0  0  0  0  0  0  0  0  0  0  0  0
    1.1197    1.6266    0.1147 O   0  0  0  0  0  0  0  0  0  0  0  0
    2.6286   -2.7012   -0.2954 O   0  0  0  0  0  0  0  0  0  0  0  0
    3.1306   -0.1355   -0.1187 N   0  0  0  0  0  0  0  0  0  0  0  0
    1.5199   -1.8718   -0.4873 N   0  0  0  0  0  0  0  0  0  0  0  0
    0.7746    0.4343   -0.5830 C   0  0  0  0  0  0  0  0  0  0  0  0
   -0.5669   -0.0692   -0.1444 C   0  0  0  0  0  0  0  0  0  0  0  0
    1.8692   -0.6229   -0.3754 C   0  0  0  0  0  0  0  0  0  0  0  0
   -1.6196   -0.1354   -1.0574 C   0  0  0  0  0  0  0  0  0  0  0  0
   -0.7632   -0.4722    1.1766 C   0  0  0  0  0  0  0  0  0  0  0  0
    0.1716    2.6579   -0.1194 C   0  0  0  0  0  0  0  0  0  0  0  0
   -2.8682   -0.6045   -0.6494 C   0  0  0  0  0  0  0  0  0  0  0  0
   -2.0120   -0.9412    1.5844 C   0  0  0  0  0  0  0  0  0  0  0  0
   -3.0645   -1.0074    0.6713 C   0  0  0  0  0  0  0  0  0  0  0  0
    0.5904    3.8954    0.6454 C   0  0  0  0  0  0  0  0  0  0  0  0
  1 10  1  0
  2 11  1  0
  3  7  1  0
  3 12  1  0
  4  6  1  0
  5  9  1  0
  6  9  2  0
  7  8  1  0
  7  9  1  0
  8 10  2  0
  8 11  1  0
 10 13  1  0
 11 14  2  0
 12 16  1  0
 13 15  2  0
 14 15  1  0
M  END
>  <PUBCHEM_COMPOUND_CID>  (1) 
36638

>  <PUBCHEM_CONFORMER_RMSD>  (1) 
0.6

>  <PUBCHEM_CONFORMER_DIVERSEORDER>  (1) 
1
24
16
19
23
10
20
8
13
22
12
21
15
18
5
9
11
4
7
3
6
14
2
17

>  <PUBCHEM_MMFF94_PARTIAL_CHARGES>  (1) 
21
1 -0.18
10 0.18
11 0.18
12 0.28
13 -0.15
14 -0.15
15 -0.15
2 -0.18
20 0.15
21 0.15
22 0.15
26 0.4
27 0.4
28 0.4
3 -0.56
4 -0.34
5 -0.85
6 -0.51
7 0.48
8 -0.14
9 0.44

>  <PUBCHEM_EFFECTIVE_ROTOR_COUNT>  (1) 
4

>  <PUBCHEM_PHARMACOPHORE_FEATURES>  (1) 
5
1 3 acceptor
1 4 anion
1 5 donor
3 5 6 9 cation
6 8 10 11 13 14 15 rings

>  <PUBCHEM_HEAVY_ATOM_COUNT>  (1) 
16

>  <PUBCHEM_ATOM_DEF_STEREO_COUNT>  (1) 
0

>  <PUBCHEM_ATOM_UDEF_STEREO_COUNT>  (1) 
1

>  <PUBCHEM_BOND_DEF_STEREO_COUNT>  (1) 
0

>  <PUBCHEM_BOND_UDEF_STEREO_COUNT>  (1) 
1

>  <PUBCHEM_ISOTOPIC_ATOM_COUNT>  (1) 
0

>  <PUBCHEM_COMPONENT_COUNT>  (1) 
1

>  <PUBCHEM_CACTVS_TAUTO_COUNT>  (1) 
3

>  <PUBCHEM_CONFORMER_ID>  (1) 
00008F1E00000001

>  <PUBCHEM_MMFF94_ENERGY>  (1) 
46.3323

>  <PUBCHEM_FEATURE_SELFOVERLAP>  (1) 
25.371

>  <PUBCHEM_SHAPE_FINGERPRINT>  (1) 
11578080 2 17057772210292260376
12326174 3 18190723418263122249
12423570 1 17195721161144568341
12716301 132 16661740289989495989
14817 1 13519014197003248285
15906896 17 17619078230536561965
16945 1 18265349471669282483
18721546 61 17622422970905160765
20473742 2 18194119856978716309
20711985 344 17906159664313562746
21061003 4 18410300245611372188
21524375 3 17325469498985068577
22344851 12 11655357930999689035
23211744 41 17536856034036900825
23419403 2 14429863609508287795
23526113 38 18187910760145056159
23559900 14 17168139049485854874
23598291 2 17774174525002406965
3286 77 18190748724500521835
430814 3 17055017062013023773
77492 1 17345768506362404101
81228 2 18120654622022769200

>  <PUBCHEM_SHAPE_MULTIPOLES>  (1) 
311.31
3.73
2.91
1.98
1.25
2.06
0.16
-1.19
0.15
-3.11
-0.3
0.92
-0.01
1.02

>  <PUBCHEM_SHAPE_SELFOVERLAP>  (1) 
624.197

>  <PUBCHEM_SHAPE_VOLUME>  (1) 
184.3

>  <PUBCHEM_COORDINATE_TYPE>  (1) 
2
5
10

$$$$
