36635
     RDKit          3D

 20 22  0  0  0  0  0  0  0  0999 V2000
    3.0981    1.8097    0.4490 N   0  0  0  0  0  0  0  0  0  0  0  0
    0.6427   -0.7295   -0.4993 C   0  0  0  0  0  0  0  0  0  0  0  0
   -1.0537   -2.5963   -0.4092 C   0  0  0  0  0  0  0  0  0  0  0  0
    0.3333   -2.0587   -0.1665 C   0  0  0  0  0  0  0  0  0  0  0  0
   -2.0859   -1.9443    0.5116 C   0  0  0  0  0  0  0  0  0  0  0  0
    1.9327   -0.2340   -0.2556 C   0  0  0  0  0  0  0  0  0  0  0  0
   -2.4425   -0.4830    0.3015 C   0  0  0  0  0  0  0  0  0  0  0  0
   -0.4000    0.1318   -1.0956 C   0  0  0  0  0  0  0  0  0  0  0  0
   -1.6846    0.4629   -0.4237 C   0  0  0  0  0  0  0  0  0  0  0  0
    2.3236    1.1663   -0.6110 C   0  0  0  0  0  0  0  0  0  0  0  0
    1.3231   -2.8750    0.3990 C   0  0  0  0  0  0  0  0  0  0  0  0
    2.9082   -1.0561    0.3078 C   0  0  0  0  0  0  0  0  0  0  0  0
    2.6040   -2.3751    0.6335 C   0  0  0  0  0  0  0  0  0  0  0  0
   -3.6278   -0.0534    0.9396 C   0  0  0  0  0  0  0  0  0  0  0  0
   -2.1364    1.8005   -0.4713 C   0  0  0  0  0  0  0  0  0  0  0  0
   -0.1862    0.5486   -2.3589 C   0  0  0  0  0  0  0  0  0  0  0  0
   -4.0638    1.2676    0.8646 C   0  0  0  0  0  0  0  0  0  0  0  0
   -3.3154    2.1966    0.1591 C   0  0  0  0  0  0  0  0  0  0  0  0
    2.3206    1.8695    1.6863 C   0  0  0  0  0  0  0  0  0  0  0  0
    3.5099    3.1519    0.0391 C   0  0  0  0  0  0  0  0  0  0  0  0
  1 10  1  0
  1 19  1  0
  1 20  1  0
  2  4  2  0
  2  6  1  0
  2  8  1  0
  3  4  1  0
  3  5  1  0
  4 11  1  0
  5  7  1  0
  6 10  1  0
  6 12  2  0
  7  9  2  0
  7 14  1  0
  8  9  1  0
  8 16  2  0
  9 15  1  0
 11 13  2  0
 12 13  1  0
 14 17  2  0
 15 18  2  0
 17 18  1  0
M  END
>  <PUBCHEM_COMPOUND_CID>  (1) 
36635

>  <PUBCHEM_CONFORMER_RMSD>  (1) 
0.6

>  <PUBCHEM_CONFORMER_DIVERSEORDER>  (1) 
1
2
4
5
6
3
7

>  <PUBCHEM_MMFF94_PARTIAL_CHARGES>  (1) 
29
1 -0.81
10 0.41
11 -0.15
12 -0.15
13 -0.15
14 -0.15
15 -0.15
16 -0.3
17 -0.15
18 -0.15
19 0.27
2 0.03
20 0.27
27 0.15
28 0.15
29 0.15
3 0.14
30 0.15
31 0.15
32 0.15
33 0.15
34 0.15
35 0.15
4 -0.14
5 0.14
6 -0.14
7 -0.14
8 -0.06
9 0.03

>  <PUBCHEM_EFFECTIVE_ROTOR_COUNT>  (1) 
2.4

>  <PUBCHEM_PHARMACOPHORE_FEATURES>  (1) 
4
1 1 cation
6 2 4 6 11 12 13 rings
6 7 9 14 15 17 18 rings
7 2 3 4 5 7 8 9 rings

>  <PUBCHEM_HEAVY_ATOM_COUNT>  (1) 
20

>  <PUBCHEM_ATOM_DEF_STEREO_COUNT>  (1) 
0

>  <PUBCHEM_ATOM_UDEF_STEREO_COUNT>  (1) 
0

>  <PUBCHEM_BOND_DEF_STEREO_COUNT>  (1) 
0

>  <PUBCHEM_BOND_UDEF_STEREO_COUNT>  (1) 
0

>  <PUBCHEM_ISOTOPIC_ATOM_COUNT>  (1) 
0

>  <PUBCHEM_COMPONENT_COUNT>  (1) 
1

>  <PUBCHEM_CACTVS_TAUTO_COUNT>  (1) 
1

>  <PUBCHEM_CONFORMER_ID>  (1) 
00008F1B00000001

>  <PUBCHEM_MMFF94_ENERGY>  (1) 
78.1285

>  <PUBCHEM_FEATURE_SELFOVERLAP>  (1) 
20.311

>  <PUBCHEM_SHAPE_FINGERPRINT>  (1) 
10165383 225 18335715952615875356
10366900 7 18262249806820074489
11370993 70 18409162199600359153
12011746 2 18118688707937814375
12173636 292 17979910837387920508
12251169 10 18262239893824876995
12390115 104 18123768701167441724
12403259 226 17901105222667532471
12403260 363 18269263583109405913
12507560 14 17834669396927740291
12633257 1 18264203617249262179
12788726 201 17254575201112741036
128993 33 18343017839178848696
13140716 1 18407760347897341258
14178342 30 18042412493984679451
14223421 5 18408891736935742915
14787075 74 17840588420433710389
14955137 171 18266461997533723314
15238133 3 17980209586543533116
16945 1 18336264535576585287
17804303 29 18045232535283376415
18981168 100 18198881751791864360
20344682 10 17902804289960055659
20510252 161 17907295807938965200
20600515 1 17396145634087859998
21041028 32 17475790953605991070
21501502 16 18412538834005726911
21524375 3 18129658728863770076
21756936 100 17983853660658420580
22892500 29 18122334688674718229
23388829 49 18046630280897880943
23559900 14 18335983052220598593
238 59 17830979509077247717
2748010 2 17896315814309743671
31174 14 18189896418004760415
3286 77 18190180087899760727
350125 39 18409448128611240250
3797600 57 17775292706858079225
49207404 50 18335431170376703137
495365 180 18194661701874620149
5104073 3 18263377914936343617
57003041 12 18265335186465559834
5939293 188 18122623847157945546
7097593 13 18116143368500277842
7364860 26 18340211765161309998
7808743 9 18050854608988446480
81228 2 17689148328785430550

>  <PUBCHEM_SHAPE_MULTIPOLES>  (1) 
406.61
6.25
3.55
1.31
2.14
0.16
-0.4
-3.82
2.28
-2.28
0.62
-0.03
-0.42
0.08

>  <PUBCHEM_SHAPE_SELFOVERLAP>  (1) 
880.523

>  <PUBCHEM_SHAPE_VOLUME>  (1) 
221.1

>  <PUBCHEM_COORDINATE_TYPE>  (1) 
2
5
10

$$$$
