36631
     RDKit          3D

 25 30  0  0  0  0  0  0  0  0999 V2000
   -0.5890    0.2922   -0.0002 C   0  0  0  0  0  0  0  0  0  0  0  0
    0.8400    0.3605   -0.0005 C   0  0  0  0  0  0  0  0  0  0  0  0
   -1.2655   -0.9538   -0.0003 C   0  0  0  0  0  0  0  0  0  0  0  0
   -1.3400    1.4897    0.0000 C   0  0  0  0  0  0  0  0  0  0  0  0
    1.6322   -0.8151   -0.0003 C   0  0  0  0  0  0  0  0  0  0  0  0
    1.4731    1.6243   -0.0006 C   0  0  0  0  0  0  0  0  0  0  0  0
   -2.7044   -0.9932   -0.0002 C   0  0  0  0  0  0  0  0  0  0  0  0
   -2.7368    1.4409    0.0004 C   0  0  0  0  0  0  0  0  0  0  0  0
   -3.4253    0.2249    0.0003 C   0  0  0  0  0  0  0  0  0  0  0  0
    3.0684   -0.7170    0.0000 C   0  0  0  0  0  0  0  0  0  0  0  0
   -0.4583   -2.1053   -0.0005 C   0  0  0  0  0  0  0  0  0  0  0  0
   -0.6853    2.7247   -0.0002 C   0  0  0  0  0  0  0  0  0  0  0  0
    0.9387   -2.0385   -0.0004 C   0  0  0  0  0  0  0  0  0  0  0  0
    3.6698    0.5643   -0.0004 C   0  0  0  0  0  0  0  0  0  0  0  0
    0.7036    2.7912   -0.0007 C   0  0  0  0  0  0  0  0  0  0  0  0
    2.8683    1.7090   -0.0008 C   0  0  0  0  0  0  0  0  0  0  0  0
   -3.5167    2.7313    0.0016 C   0  0  0  0  0  0  0  0  0  0  0  0
   -3.4734   -2.1856   -0.0006 C   0  0  0  0  0  0  0  0  0  0  0  0
   -4.8315    0.2256    0.0008 C   0  0  0  0  0  0  0  0  0  0  0  0
    3.9477   -1.8306    0.0009 C   0  0  0  0  0  0  0  0  0  0  0  0
    5.0694    0.6993   -0.0002 C   0  0  0  0  0  0  0  0  0  0  0  0
   -4.8709   -2.1724   -0.0005 C   0  0  0  0  0  0  0  0  0  0  0  0
   -5.5507   -0.9651    0.0003 C   0  0  0  0  0  0  0  0  0  0  0  0
    5.3376   -1.6840    0.0013 C   0  0  0  0  0  0  0  0  0  0  0  0
    5.8989   -0.4174    0.0008 C   0  0  0  0  0  0  0  0  0  0  0  0
  1  2  2  0
  1  3  1  0
  1  4  1  0
  2  5  1  0
  2  6  1  0
  3  7  1  0
  3 11  2  0
  4  8  2  0
  4 12  1  0
  5 10  1  0
  5 13  2  0
  6 15  1  0
  6 16  2  0
  7  9  2  0
  7 18  1  0
  8  9  1  0
  8 17  1  0
  9 19  1  0
 10 14  2  0
 10 20  1  0
 11 13  1  0
 12 15  2  0
 14 16  1  0
 14 21  1  0
 18 22  2  0
 19 23  2  0
 20 24  2  0
 21 25  2  0
 22 23  1  0
 24 25  1  0
M  END
>  <PUBCHEM_COMPOUND_CID>  (1) 
36631

>  <PUBCHEM_CONFORMER_RMSD>  (1) 
0.6

>  <PUBCHEM_CONFORMER_DIVERSEORDER>  (1) 
1

>  <PUBCHEM_MMFF94_PARTIAL_CHARGES>  (1) 
28
11 -0.15
12 -0.15
13 -0.15
15 -0.15
16 -0.15
17 0.14
18 -0.15
19 -0.15
20 -0.15
21 -0.15
22 -0.15
23 -0.15
24 -0.15
25 -0.15
26 0.15
27 0.15
28 0.15
29 0.15
30 0.15
31 0.15
35 0.15
36 0.15
37 0.15
38 0.15
39 0.15
40 0.15
41 0.15
8 -0.14

>  <PUBCHEM_EFFECTIVE_ROTOR_COUNT>  (1) 
0

>  <PUBCHEM_PHARMACOPHORE_FEATURES>  (1) 
6
6 1 2 3 5 11 13 rings
6 1 2 4 6 12 15 rings
6 1 3 4 7 8 9 rings
6 10 14 20 21 24 25 rings
6 2 5 6 10 14 16 rings
6 7 9 18 19 22 23 rings

>  <PUBCHEM_HEAVY_ATOM_COUNT>  (1) 
25

>  <PUBCHEM_ATOM_DEF_STEREO_COUNT>  (1) 
0

>  <PUBCHEM_ATOM_UDEF_STEREO_COUNT>  (1) 
0

>  <PUBCHEM_BOND_DEF_STEREO_COUNT>  (1) 
0

>  <PUBCHEM_BOND_UDEF_STEREO_COUNT>  (1) 
0

>  <PUBCHEM_ISOTOPIC_ATOM_COUNT>  (1) 
0

>  <PUBCHEM_COMPONENT_COUNT>  (1) 
1

>  <PUBCHEM_CACTVS_TAUTO_COUNT>  (1) 
1

>  <PUBCHEM_CONFORMER_ID>  (1) 
00008F1700000001

>  <PUBCHEM_MMFF94_ENERGY>  (1) 
108.04

>  <PUBCHEM_FEATURE_SELFOVERLAP>  (1) 
30.622

>  <PUBCHEM_SHAPE_FINGERPRINT>  (1) 
10319926 262 18196915701223264546
10411042 1 18410575119155030375
10616163 171 18411700941636137879
10622 236 17270018868997851527
10693767 8 17769073977104767527
10906281 52 18266199325248191930
10967382 1 18338797917645691653
1100329 8 18265614466714391379
11578080 2 16807557375930831399
11607047 403 15832509747381231267
11963148 33 18411414038122764438
12011746 2 18408879638228888277
12107183 9 17687459070776855394
12166972 35 17821732757879030414
12236239 1 17894349969176230342
12403259 226 18339637949172939689
12838862 33 18338496591430774925
13140716 1 18340767052861537328
13402501 40 18411136939399872238
138480 1 15096206817426448645
13862211 1 18410853278374816482
14341114 176 18409453600130543531
14787075 74 18260550039052892826
14790565 3 18410299094650197332
15042514 8 18339079272537579712
15131766 46 14690848139685668034
15196674 1 18410575059220472164
15352361 1 18410574002331326820
16087824 20 18265614291966320317
17349148 13 18040437689480776314
17492 89 18050566549853316139
1813 80 17530681018064289852
19591789 44 18411136943715958026
200 152 18202281416064859971
20028762 73 18202279255602274623
20775438 99 16762207250476899783
21236236 1 18412545379788833769
21267235 1 18410581690354636554
21279426 13 18337952272955423566
21682296 61 18200884971915935910
21857420 4 15616883391948997086
221357 26 18410852187674435647
221490 88 18263649639625063579
22182313 1 18265590225855805604
23402539 116 18341889705678028718
23522609 53 18122377711104412545
23557571 272 18272376334481196358
23559900 14 18339353158534211177
3004659 81 18187083962620472030
335352 9 18410573981769185269
34934 24 18192147105807044313
350125 39 18410857676500461861
4214541 1 18410575054661825729
5104073 3 18341890758377390600
59755656 215 18409446951589871359
6138700 20 18409449159482811426
9709674 26 18263928911289027507

>  <PUBCHEM_SHAPE_MULTIPOLES>  (1) 
514.49
11.65
3.1
0.62
3.6
1.02
0
-4.69
0
-1.34
0
0
0
0

>  <PUBCHEM_SHAPE_SELFOVERLAP>  (1) 
1215.419

>  <PUBCHEM_SHAPE_VOLUME>  (1) 
233.5

>  <PUBCHEM_COORDINATE_TYPE>  (1) 
2
5
10

$$$$
