36641
     RDKit          3D

 15 15  0  0  1  0  0  0  0  0999 V2000
    1.1053    0.9690   -0.0475 O   0  0  0  0  0  0  0  0  0  0  0  0
    0.9209   -3.0410    1.2168 O   0  0  0  0  0  0  0  0  0  0  0  0
    1.0794   -2.2189   -1.2661 N   0  0  0  0  0  0  0  0  0  0  0  0
    0.5317   -1.7142    1.0120 N   0  0  0  0  0  0  0  0  0  0  0  0
    0.2322    0.0210   -0.6588 C   0  0  0  0  0  0  0  0  0  0  0  0
   -1.1909    0.3022   -0.3125 C   0  0  0  0  0  0  0  0  0  0  0  0
    2.4617    0.7071   -0.3731 C   0  0  0  0  0  0  0  0  0  0  0  0
    3.3400    1.7471    0.3053 C   0  0  0  0  0  0  0  0  0  0  0  0
    0.6503   -1.4008   -0.2457 C   0  0  0  0  0  0  0  0  0  0  0  0
   -2.2015    0.0185   -1.2312 C   0  0  0  0  0  0  0  0  0  0  0  0
   -1.5113    0.8491    0.9300 C   0  0  0  0  0  0  0  0  0  0  0  0
    4.8100    1.5383   -0.0112 C   0  0  0  0  0  0  0  0  0  0  0  0
   -3.5325    0.2818   -0.9073 C   0  0  0  0  0  0  0  0  0  0  0  0
   -2.8423    1.1122    1.2539 C   0  0  0  0  0  0  0  0  0  0  0  0
   -3.8529    0.8285    0.3354 C   0  0  0  0  0  0  0  0  0  0  0  0
  1  5  1  0
  1  7  1  0
  2  4  1  0
  3  9  1  0
  4  9  2  0
  5  6  1  0
  5  9  1  0
  6 10  2  0
  6 11  1  0
  7  8  1  0
  8 12  1  0
 10 13  1  0
 11 14  2  0
 13 15  2  0
 14 15  1  0
M  END
>  <PUBCHEM_COMPOUND_CID>  (1) 
36641

>  <PUBCHEM_CONFORMER_RMSD>  (1) 
0.6

>  <PUBCHEM_CONFORMER_DIVERSEORDER>  (1) 
1
75
76
13
72
67
44
19
78
18
2
58
5
23
79
69
35
60
45
62
41
74
56
63
66
6
27
73
77
7
48
55
25
51
42
68
17
57
65
46
11
20
47
59
4
40
26
12
3
49
64
43
22
61
50
70
15
24
9
71
28
53
32
39
10
54
33
21
8
37
34
16
31
52
29
30
36
38
14

>  <PUBCHEM_MMFF94_PARTIAL_CHARGES>  (1) 
21
1 -0.56
10 -0.15
11 -0.15
13 -0.15
14 -0.15
15 -0.15
2 -0.34
21 0.15
22 0.15
26 0.15
27 0.15
28 0.15
29 0.4
3 -0.85
30 0.4
31 0.4
4 -0.51
5 0.48
6 -0.14
7 0.28
9 0.44

>  <PUBCHEM_EFFECTIVE_ROTOR_COUNT>  (1) 
5

>  <PUBCHEM_PHARMACOPHORE_FEATURES>  (1) 
6
1 1 acceptor
1 12 hydrophobe
1 2 anion
1 3 donor
3 3 4 9 cation
6 6 10 11 13 14 15 rings

>  <PUBCHEM_HEAVY_ATOM_COUNT>  (1) 
15

>  <PUBCHEM_ATOM_DEF_STEREO_COUNT>  (1) 
0

>  <PUBCHEM_ATOM_UDEF_STEREO_COUNT>  (1) 
1

>  <PUBCHEM_BOND_DEF_STEREO_COUNT>  (1) 
0

>  <PUBCHEM_BOND_UDEF_STEREO_COUNT>  (1) 
1

>  <PUBCHEM_ISOTOPIC_ATOM_COUNT>  (1) 
0

>  <PUBCHEM_COMPONENT_COUNT>  (1) 
1

>  <PUBCHEM_CACTVS_TAUTO_COUNT>  (1) 
3

>  <PUBCHEM_CONFORMER_ID>  (1) 
00008F2100000001

>  <PUBCHEM_MMFF94_ENERGY>  (1) 
35.6913

>  <PUBCHEM_FEATURE_SELFOVERLAP>  (1) 
30.445

>  <PUBCHEM_SHAPE_FINGERPRINT>  (1) 
10922049 32 18411705425908997014
12119455 92 17822281418465993644
12326174 3 18264772060381737951
12346645 44 18272934920642655093
12788726 201 17690828378627424706
12932764 1 18044668503361810213
14178342 30 17750253473072451201
15207287 21 17023183868400768137
15219456 202 17603860049263570421
15309172 13 18187644742956350668
15775835 57 18272089409107032556
15852999 172 17458064859028600467
16945 1 18261950722171631499
170605 34 18343306946154032861
1813 80 17696473984020083246
18186145 218 18343024397826161404
19765921 60 18413669119163622449
201361 129 18271534078399071369
204376 136 18260268594114546860
20645477 70 18267861693078522543
21499 59 18412824715587163508
21524375 3 18340767134697809972
23236772 104 18130791170190557145
23402539 116 17774716562908094996
23419403 2 17763795057969397290
298252 57 17418095455243077884
305870 269 18409448046664054736
3250762 1 17464517725210602468
366044 4 18343018938922416220
4340502 62 18335150795497033259
474 4 18341619243187609164
633830 44 18342466928071635740
7364860 26 18058173825559323614
81228 2 17543057339688869538
81539 233 18334573525384201068
9981440 41 16765888432338623408

>  <PUBCHEM_SHAPE_MULTIPOLES>  (1) 
286.99
6.85
2.3
1.22
3.47
2.08
-0.1
-5.3
0.19
1.79
-0.69
-0.59
0.39
-0.45

>  <PUBCHEM_SHAPE_SELFOVERLAP>  (1) 
579.378

>  <PUBCHEM_SHAPE_VOLUME>  (1) 
167.8

>  <PUBCHEM_COORDINATE_TYPE>  (1) 
2
5
10

$$$$
