36647
     RDKit          3D

 18 19  0  0  0  0  0  0  0  0999 V2000
   -0.6196   -1.9371    1.9379 Cl  0  0  0  0  0  0  0  0  0  0  0  0
    0.6196   -1.9423   -1.9328 Cl  0  0  0  0  0  0  0  0  0  0  0  0
   -0.6188    1.9358   -1.9390 Cl  0  0  0  0  0  0  0  0  0  0  0  0
    0.6188    1.9409    1.9339 Cl  0  0  0  0  0  0  0  0  0  0  0  0
   -5.2382    0.0018    0.0000 Cl  0  0  0  0  0  0  0  0  0  0  0  0
    5.2382    0.0019    0.0000 Cl  0  0  0  0  0  0  0  0  0  0  0  0
   -0.7276   -0.0007   -0.0005 C   0  0  0  0  0  0  0  0  0  0  0  0
    0.7276   -0.0008    0.0005 C   0  0  0  0  0  0  0  0  0  0  0  0
   -1.4253   -0.8540    0.8545 C   0  0  0  0  0  0  0  0  0  0  0  0
    1.4253   -0.8562   -0.8523 C   0  0  0  0  0  0  0  0  0  0  0  0
   -1.4247    0.8531   -0.8552 C   0  0  0  0  0  0  0  0  0  0  0  0
    1.4247    0.8553    0.8530 C   0  0  0  0  0  0  0  0  0  0  0  0
   -2.8202   -0.8532    0.8547 C   0  0  0  0  0  0  0  0  0  0  0  0
    2.8202   -0.8554   -0.8525 C   0  0  0  0  0  0  0  0  0  0  0  0
   -2.8196    0.8537   -0.8550 C   0  0  0  0  0  0  0  0  0  0  0  0
    2.8196    0.8560    0.8527 C   0  0  0  0  0  0  0  0  0  0  0  0
   -3.5173    0.0007    0.0001 C   0  0  0  0  0  0  0  0  0  0  0  0
    3.5174    0.0006   -0.0001 C   0  0  0  0  0  0  0  0  0  0  0  0
  1  9  1  0
  2 10  1  0
  3 11  1  0
  4 12  1  0
  5 17  1  0
  6 18  1  0
  7  8  1  0
  7  9  2  0
  7 11  1  0
  8 10  2  0
  8 12  1  0
  9 13  1  0
 10 14  1  0
 11 15  2  0
 12 16  2  0
 13 17  2  0
 14 18  2  0
 15 17  1  0
 16 18  1  0
M  END
>  <PUBCHEM_COMPOUND_CID>  (1) 
36647

>  <PUBCHEM_CONFORMER_RMSD>  (1) 
0.6

>  <PUBCHEM_CONFORMER_DIVERSEORDER>  (1) 
1

>  <PUBCHEM_MMFF94_PARTIAL_CHARGES>  (1) 
20
1 -0.18
10 0.18
11 0.18
12 0.18
13 -0.15
14 -0.15
15 -0.15
16 -0.15
17 0.18
18 0.18
19 0.15
2 -0.18
20 0.15
21 0.15
22 0.15
3 -0.18
4 -0.18
5 -0.18
6 -0.18
9 0.18

>  <PUBCHEM_EFFECTIVE_ROTOR_COUNT>  (1) 
1

>  <PUBCHEM_PHARMACOPHORE_FEATURES>  (1) 
2
6 7 9 11 13 15 17 rings
6 8 10 12 14 16 18 rings

>  <PUBCHEM_HEAVY_ATOM_COUNT>  (1) 
18

>  <PUBCHEM_ATOM_DEF_STEREO_COUNT>  (1) 
0

>  <PUBCHEM_ATOM_UDEF_STEREO_COUNT>  (1) 
0

>  <PUBCHEM_BOND_DEF_STEREO_COUNT>  (1) 
0

>  <PUBCHEM_BOND_UDEF_STEREO_COUNT>  (1) 
0

>  <PUBCHEM_ISOTOPIC_ATOM_COUNT>  (1) 
0

>  <PUBCHEM_COMPONENT_COUNT>  (1) 
1

>  <PUBCHEM_CACTVS_TAUTO_COUNT>  (1) 
1

>  <PUBCHEM_CONFORMER_ID>  (1) 
00008F2700000001

>  <PUBCHEM_MMFF94_ENERGY>  (1) 
48.2681

>  <PUBCHEM_FEATURE_SELFOVERLAP>  (1) 
10.149

>  <PUBCHEM_SHAPE_FINGERPRINT>  (1) 
12035759 4 13582996178550653909
12119455 92 18272647956840100054
12592029 89 17988923344874079862
13140716 1 17631154464004569690
13538477 17 16153714270853585955
13581323 91 17458338637212796354
13583140 156 17899378040556818736
14115302 16 15936701444660487503
15207287 21 18410859858175205571
15309172 13 17917994992475119830
1601671 61 13254530734398203811
16752209 62 17095786781635730677
16945 1 18410855464423129094
18175812 5 18410855511667776015
200 152 17132113533141384147
20028762 73 18043828687296662859
20344682 1 18410575080368112190
20473742 2 18059848519212894873
20510252 161 17968372342932265125
20511035 2 17977110380965493645
20600515 1 17967828144974681685
20645476 183 15285643226680624107
23175994 123 18273220798240497104
23402539 116 18113332029115999967
23419403 2 18124046877070556625
23493267 7 18334292029391693888
23526113 38 18339646646217755994
23557571 272 18187085009780408204
23559900 14 18113341899531140142
2748010 2 17344054441582523612
3286 77 18059007410166112529
350125 39 17196840902369170824
474 4 16199285755302363322
568465 68 18271822257956822642
69090 78 18342735243532321287
77492 1 15769775757947043843
81228 2 17970648293621317021
8272917 22 17203058383015786191

>  <PUBCHEM_SHAPE_MULTIPOLES>  (1) 
381.65
7.49
1.83
1.83
0
0
0
-0.01
0
0.01
0
-0.01
0
1.21

>  <PUBCHEM_SHAPE_SELFOVERLAP>  (1) 
775.366

>  <PUBCHEM_SHAPE_VOLUME>  (1) 
214.3

>  <PUBCHEM_COORDINATE_TYPE>  (1) 
2
5
10

$$$$
