36652
     RDKit          3D

  5  4  0  0  0  0  0  0  0  0999 V2000
   -1.0714   -0.4905    0.0039 N   0  0  0  0  0  0  0  0  0  0  0  0
    2.3632   -0.2529   -0.0021 N   0  0  0  0  0  0  0  0  0  0  0  0
   -0.1177    0.6104    0.0023 C   0  0  0  0  0  0  0  0  0  0  0  0
   -2.4407    0.0066   -0.0039 C   0  0  0  0  0  0  0  0  0  0  0  0
    1.2665    0.1264   -0.0001 C   0  0  0  0  0  0  0  0  0  0  0  0
  1  3  1  0
  1  4  1  0
  2  5  3  0
  3  5  1  0
M  END
>  <PUBCHEM_COMPOUND_CID>  (1) 
36652

>  <PUBCHEM_CONFORMER_RMSD>  (1) 
0.4

>  <PUBCHEM_CONFORMER_DIVERSEORDER>  (1) 
1
2
3

>  <PUBCHEM_MMFF94_PARTIAL_CHARGES>  (1) 
6
1 -0.9
2 -0.56
3 0.47
4 0.27
5 0.36
8 0.36

>  <PUBCHEM_EFFECTIVE_ROTOR_COUNT>  (1) 
1

>  <PUBCHEM_PHARMACOPHORE_FEATURES>  (1) 
3
1 1 cation
1 1 donor
1 2 acceptor

>  <PUBCHEM_HEAVY_ATOM_COUNT>  (1) 
5

>  <PUBCHEM_ATOM_DEF_STEREO_COUNT>  (1) 
0

>  <PUBCHEM_ATOM_UDEF_STEREO_COUNT>  (1) 
0

>  <PUBCHEM_BOND_DEF_STEREO_COUNT>  (1) 
0

>  <PUBCHEM_BOND_UDEF_STEREO_COUNT>  (1) 
0

>  <PUBCHEM_ISOTOPIC_ATOM_COUNT>  (1) 
0

>  <PUBCHEM_COMPONENT_COUNT>  (1) 
1

>  <PUBCHEM_CACTVS_TAUTO_COUNT>  (1) 
1

>  <PUBCHEM_CONFORMER_ID>  (1) 
00008F2C00000001

>  <PUBCHEM_MMFF94_ENERGY>  (1) 
1.5478

>  <PUBCHEM_FEATURE_SELFOVERLAP>  (1) 
15.223

>  <PUBCHEM_SHAPE_FINGERPRINT>  (1) 
139733 1 9223234048224728128
16714656 1 18186238416044466869
20096714 4 18261674877949728477
29004967 10 18409733975532108688
5460574 1 9223234043919120385

>  <PUBCHEM_SHAPE_MULTIPOLES>  (1) 
92.94
3.38
0.72
0.58
0.26
0.06
0
-0.37
0.01
0.04
0
0.02
0.01
0

>  <PUBCHEM_SHAPE_SELFOVERLAP>  (1) 
158.615

>  <PUBCHEM_SHAPE_VOLUME>  (1) 
61

>  <PUBCHEM_COORDINATE_TYPE>  (1) 
2
5
10

$$$$
