36659
     RDKit          3D

 24 26  0  0  0  0  0  0  0  0999 V2000
    2.2225   -4.1220    0.2945 O   0  0  0  0  0  0  0  0  0  0  0  0
    3.9493    1.0672   -0.4642 O   0  0  0  0  0  0  0  0  0  0  0  0
    4.6463    3.6764   -0.4698 O   0  0  0  0  0  0  0  0  0  0  0  0
   -0.7215    0.3807   -0.7611 N   0  0  0  0  0  0  0  0  0  0  0  0
    3.6047    3.2042    0.3403 N   0  0  0  0  0  0  0  0  0  0  0  0
    1.1300    0.7384    0.4096 C   0  0  0  0  0  0  0  0  0  0  0  0
    0.0329    1.3483   -0.1537 C   0  0  0  0  0  0  0  0  0  0  0  0
   -0.1305   -0.8524   -0.6013 C   0  0  0  0  0  0  0  0  0  0  0  0
    1.0399   -0.6548    0.1346 C   0  0  0  0  0  0  0  0  0  0  0  0
   -1.9619    0.6182   -1.4706 C   0  0  0  0  0  0  0  0  0  0  0  0
    2.2073    1.4111    1.1658 C   0  0  0  0  0  0  0  0  0  0  0  0
    1.8442   -1.7702    0.4419 C   0  0  0  0  0  0  0  0  0  0  0  0
   -0.5382   -2.1146   -1.0471 C   0  0  0  0  0  0  0  0  0  0  0  0
   -0.3628    2.7730   -0.1647 C   0  0  0  0  0  0  0  0  0  0  0  0
   -3.1486    0.5189   -0.5507 C   0  0  0  0  0  0  0  0  0  0  0  0
    1.4488   -3.0389    0.0025 C   0  0  0  0  0  0  0  0  0  0  0  0
    0.2756   -3.2061   -0.7304 C   0  0  0  0  0  0  0  0  0  0  0  0
    3.3440    1.8591    0.2560 C   0  0  0  0  0  0  0  0  0  0  0  0
   -3.5999    1.6544    0.1086 C   0  0  0  0  0  0  0  0  0  0  0  0
   -3.7767   -0.7065   -0.3738 C   0  0  0  0  0  0  0  0  0  0  0  0
   -4.7000    1.5625    0.9612 C   0  0  0  0  0  0  0  0  0  0  0  0
   -4.8769   -0.7981    0.4787 C   0  0  0  0  0  0  0  0  0  0  0  0
   -5.3385    0.3365    1.1462 C   0  0  0  0  0  0  0  0  0  0  0  0
    3.4103   -3.8854    1.0473 C   0  0  0  0  0  0  0  0  0  0  0  0
  1 16  1  0
  1 24  1  0
  2 18  2  0
  3  5  1  0
  4  7  1  0
  4  8  1  0
  4 10  1  0
  5 18  1  0
  6  7  2  0
  6  9  1  0
  6 11  1  0
  7 14  1  0
  8  9  2  0
  8 13  1  0
  9 12  1  0
 10 15  1  0
 11 18  1  0
 12 16  2  0
 13 17  2  0
 15 19  2  0
 15 20  1  0
 16 17  1  0
 19 21  1  0
 20 22  2  0
 21 23  2  0
 22 23  1  0
M  END
>  <PUBCHEM_COMPOUND_CID>  (1) 
36659

>  <PUBCHEM_CONFORMER_RMSD>  (1) 
0.8

>  <PUBCHEM_CONFORMER_DIVERSEORDER>  (1) 
2
41
57
68
47
26
13
66
69
45
62
58
61
50
24
55
43
35
20
40
9
63
56
29
59
49
30
46
32
64
54
36
48
28
11
19
52
65
39
14
60
67
44
37
16
51
31
42
7
53
8
1
38
22
4
25
23
3
21
5
18
10
15
33
6
34
27
17
12

>  <PUBCHEM_MMFF94_PARTIAL_CHARGES>  (1) 
33
1 -0.36
10 0.4
11 0.24
12 -0.15
13 -0.15
14 0.18
15 -0.14
16 0.08
17 -0.15
18 0.57
19 -0.15
2 -0.57
20 -0.15
21 -0.15
22 -0.15
23 -0.15
24 0.28
29 0.15
3 -0.44
30 0.15
34 0.15
35 0.15
36 0.15
37 0.15
38 0.15
39 0.37
4 0.05
40 0.15
44 0.4
5 -0.39
6 -0.18
7 -0.33
8 -0.15

>  <PUBCHEM_EFFECTIVE_ROTOR_COUNT>  (1) 
6

>  <PUBCHEM_PHARMACOPHORE_FEATURES>  (1) 
7
1 1 acceptor
1 2 acceptor
1 4 cation
1 5 donor
5 4 6 7 8 9 rings
6 15 19 20 21 22 23 rings
6 8 9 12 13 16 17 rings

>  <PUBCHEM_HEAVY_ATOM_COUNT>  (1) 
24

>  <PUBCHEM_ATOM_DEF_STEREO_COUNT>  (1) 
0

>  <PUBCHEM_ATOM_UDEF_STEREO_COUNT>  (1) 
0

>  <PUBCHEM_BOND_DEF_STEREO_COUNT>  (1) 
0

>  <PUBCHEM_BOND_UDEF_STEREO_COUNT>  (1) 
0

>  <PUBCHEM_ISOTOPIC_ATOM_COUNT>  (1) 
0

>  <PUBCHEM_COMPONENT_COUNT>  (1) 
1

>  <PUBCHEM_CACTVS_TAUTO_COUNT>  (1) 
3

>  <PUBCHEM_CONFORMER_ID>  (1) 
00008F3300000002

>  <PUBCHEM_MMFF94_ENERGY>  (1) 
63.7493

>  <PUBCHEM_FEATURE_SELFOVERLAP>  (1) 
35.612

>  <PUBCHEM_SHAPE_FINGERPRINT>  (1) 
10382601 240 18342187647928409205
10493431 412 18196089065082359636
107951 10 18195819689750721910
1100329 8 18411975863221274738
12107183 9 17837498449605778393
12160290 23 17547819290268390710
12390115 104 18125170582397212384
12422481 6 18122032383386177866
12553582 1 17982448192254784159
12592029 89 18410856564235502514
12633257 1 18055077558609645035
12644460 14 18410012096097416618
13140716 1 18339910632546436738
13533116 47 18342731894016661755
13583140 156 17170364382872396202
14347424 109 18266757792390049721
14790565 3 18266745859832054301
14866123 147 17978788236047343330
15475509 84 17842000979470067097
15842332 3 17845350242179979135
15927050 60 18341050843464209846
16126227 98 17977954806229000368
1813 80 17699006184783591318
18785283 64 18408319961003954466
19591789 44 18339639044283682998
20028762 73 17767124576915864079
20101258 96 17690844458752495802
20600515 1 17407118759832260052
20739085 24 18408326557699317549
21756936 100 17987512795920049780
21796203 349 17979102416873596283
23366157 5 18261956245546975558
23419403 2 17970052353786653735
23557571 272 17023178267758354373
23559900 14 18191860120339774585
23566358 27 18339643343334891199
25147074 1 17988061341154203383
2748010 2 17478298974014878486
3009799 131 10447663365259775316
3178227 256 18410303492965344552
3411729 13 18341900679588170251
458136 41 18410854382223414704
59755656 520 18266175231167866460
633830 44 18202001061848273916
6442390 28 18265900335584550898
81228 2 17403711832890834054

>  <PUBCHEM_SHAPE_MULTIPOLES>  (1) 
466.34
9.05
4.83
1.08
7.86
1.5
-0.01
-3.12
2.86
-8.34
0.26
0.4
0.14
-0.91

>  <PUBCHEM_SHAPE_SELFOVERLAP>  (1) 
1011.665

>  <PUBCHEM_SHAPE_VOLUME>  (1) 
257.5

>  <PUBCHEM_COORDINATE_TYPE>  (1) 
2
5
10

$$$$
