36653
     RDKit          3D

 12 13  0  0  1  0  0  0  0  0999 V2000
    2.3241   -1.1723   -1.1390 O   0  0  0  0  0  0  0  0  0  0  0  0
   -0.3579    2.4304    0.3479 O   0  0  0  0  0  0  0  0  0  0  0  0
    0.0805   -1.0561   -0.2695 C   0  0  0  0  0  0  0  0  0  0  0  0
   -0.2574    0.3278   -0.8631 C   0  0  0  0  0  0  0  0  0  0  0  0
    1.5767   -1.1787    0.0786 C   0  0  0  0  0  0  0  0  0  0  0  0
   -0.8108   -1.3900    0.9393 C   0  0  0  0  0  0  0  0  0  0  0  0
   -1.7596    0.4801   -1.1375 C   0  0  0  0  0  0  0  0  0  0  0  0
   -2.2920   -1.2785    0.5928 C   0  0  0  0  0  0  0  0  0  0  0  0
   -2.6331    0.1063    0.0581 C   0  0  0  0  0  0  0  0  0  0  0  0
    2.0684   -0.0416    0.9776 C   0  0  0  0  0  0  0  0  0  0  0  0
    0.2991    1.4425    0.0231 C   0  0  0  0  0  0  0  0  0  0  0  0
    1.7621    1.3303    0.3916 C   0  0  0  0  0  0  0  0  0  0  0  0
  1  5  1  0
  2 11  2  0
  3  4  1  0
  3  5  1  0
  3  6  1  0
  4  7  1  0
  4 11  1  0
  5 10  1  0
  6  8  1  0
  7  9  1  0
  8  9  1  0
 10 12  1  0
 11 12  1  0
M  END
>  <PUBCHEM_COMPOUND_CID>  (1) 
36653

>  <PUBCHEM_CONFORMER_RMSD>  (1) 
0.4

>  <PUBCHEM_CONFORMER_DIVERSEORDER>  (1) 
1
4
5
2
6
3

>  <PUBCHEM_MMFF94_PARTIAL_CHARGES>  (1) 
7
1 -0.68
11 0.45
12 0.06
2 -0.57
28 0.4
4 0.06
5 0.28

>  <PUBCHEM_EFFECTIVE_ROTOR_COUNT>  (1) 
1.4

>  <PUBCHEM_PHARMACOPHORE_FEATURES>  (1) 
5
1 1 acceptor
1 1 donor
1 2 acceptor
6 3 4 5 10 11 12 rings
6 3 4 6 7 8 9 rings

>  <PUBCHEM_HEAVY_ATOM_COUNT>  (1) 
12

>  <PUBCHEM_ATOM_DEF_STEREO_COUNT>  (1) 
0

>  <PUBCHEM_ATOM_UDEF_STEREO_COUNT>  (1) 
3

>  <PUBCHEM_BOND_DEF_STEREO_COUNT>  (1) 
0

>  <PUBCHEM_BOND_UDEF_STEREO_COUNT>  (1) 
0

>  <PUBCHEM_ISOTOPIC_ATOM_COUNT>  (1) 
0

>  <PUBCHEM_COMPONENT_COUNT>  (1) 
1

>  <PUBCHEM_CACTVS_TAUTO_COUNT>  (1) 
3

>  <PUBCHEM_CONFORMER_ID>  (1) 
00008F2D00000001

>  <PUBCHEM_MMFF94_ENERGY>  (1) 
15.8231

>  <PUBCHEM_FEATURE_SELFOVERLAP>  (1) 
25.425

>  <PUBCHEM_SHAPE_FINGERPRINT>  (1) 
10353120 184 18267307525610541229
12423570 1 17751642288864241413
12524768 44 18341323448668120726
14761567 1 17900249810842045543
16945 1 18265891367534639723
17990270 104 18337390564284473691
20201158 50 18335973225071674835
21501502 16 18189893308743772147
22802520 49 17697326114005057902
23559900 14 17906443335037459194
241688 4 17980757138949391328
2748010 2 18410006667258507415
29004967 10 18341888606197795930
5084963 1 17387692700125303302

>  <PUBCHEM_SHAPE_MULTIPOLES>  (1) 
235.22
3.22
1.95
1.07
0.57
0.62
0.14
-0.58
-0.18
-0.21
-0.25
-0.09
-0.13
0.6

>  <PUBCHEM_SHAPE_SELFOVERLAP>  (1) 
483.139

>  <PUBCHEM_SHAPE_VOLUME>  (1) 
132.3

>  <PUBCHEM_COORDINATE_TYPE>  (1) 
2
5
10

$$$$
