36667
     RDKit          3D

 22 26  0  0  1  0  0  0  0  0999 V2000
    1.7518    0.9873    0.6130 N   0  0  0  0  0  0  0  0  0  0  0  0
    2.2948   -0.3006    0.1281 C   0  0  0  0  0  0  0  0  0  0  0  0
   -0.4677    0.0881    1.1884 C   0  0  0  0  0  0  0  0  0  0  0  0
    0.8138    0.7798    1.7176 C   0  0  0  0  0  0  0  0  0  0  0  0
   -0.0782   -1.1949    0.4639 C   0  0  0  0  0  0  0  0  0  0  0  0
    1.2198   -1.3666   -0.0655 C   0  0  0  0  0  0  0  0  0  0  0  0
    3.0995   -0.0157   -1.1592 C   0  0  0  0  0  0  0  0  0  0  0  0
    2.8237    1.9170    0.9833 C   0  0  0  0  0  0  0  0  0  0  0  0
    4.2126    1.0018   -0.9088 C   0  0  0  0  0  0  0  0  0  0  0  0
    3.6685    2.2581   -0.2427 C   0  0  0  0  0  0  0  0  0  0  0  0
   -1.4500    0.9422    0.3730 C   0  0  0  0  0  0  0  0  0  0  0  0
   -1.0344   -2.2227    0.3310 C   0  0  0  0  0  0  0  0  0  0  0  0
   -2.4288   -2.0217    0.8590 C   0  0  0  0  0  0  0  0  0  0  0  0
   -2.6827    0.4289   -0.1066 C   0  0  0  0  0  0  0  0  0  0  0  0
    1.5408   -2.5895   -0.6794 C   0  0  0  0  0  0  0  0  0  0  0  0
   -3.1974   -0.9938    0.0346 C   0  0  0  0  0  0  0  0  0  0  0  0
   -0.6928   -3.4176   -0.3119 C   0  0  0  0  0  0  0  0  0  0  0  0
    0.5912   -3.6011   -0.8100 C   0  0  0  0  0  0  0  0  0  0  0  0
   -1.1640    2.3009    0.1084 C   0  0  0  0  0  0  0  0  0  0  0  0
   -3.5496    1.2831   -0.8303 C   0  0  0  0  0  0  0  0  0  0  0  0
   -2.0372    3.1232   -0.6071 C   0  0  0  0  0  0  0  0  0  0  0  0
   -3.2334    2.6139   -1.0786 C   0  0  0  0  0  0  0  0  0  0  0  0
  1  2  1  0
  1  4  1  0
  1  8  1  0
  2  6  1  0
  2  7  1  0
  3  4  1  0
  3  5  1  0
  3 11  1  0
  5  6  2  0
  5 12  1  0
  6 15  1  0
  7  9  1  0
  8 10  1  0
  9 10  1  0
 11 14  2  0
 11 19  1  0
 12 13  1  0
 12 17  2  0
 13 16  1  0
 14 16  1  0
 14 20  1  0
 15 18  2  0
 17 18  1  0
 19 21  2  0
 20 22  2  0
 21 22  1  0
M  END
>  <PUBCHEM_COMPOUND_CID>  (1) 
36667

>  <PUBCHEM_CONFORMER_RMSD>  (1) 
0.6

>  <PUBCHEM_CONFORMER_DIVERSEORDER>  (1) 
1
11
14
4
8
15
16
12
13
2
3
7
6
5
9
10

>  <PUBCHEM_MMFF94_PARTIAL_CHARGES>  (1) 
26
1 -0.81
11 -0.14
12 -0.14
13 0.14
14 -0.14
15 -0.15
16 0.14
17 -0.15
18 -0.15
19 -0.15
2 0.41
20 -0.15
21 -0.15
22 -0.15
3 0.29
37 0.15
4 0.27
40 0.15
41 0.15
42 0.15
43 0.15
44 0.15
45 0.15
5 -0.14
6 -0.14
8 0.27

>  <PUBCHEM_EFFECTIVE_ROTOR_COUNT>  (1) 
1.4

>  <PUBCHEM_PHARMACOPHORE_FEATURES>  (1) 
6
1 1 cation
6 1 2 3 4 5 6 rings
6 1 2 7 8 9 10 rings
6 11 14 19 20 21 22 rings
6 5 6 12 15 17 18 rings
7 3 5 11 12 13 14 16 rings

>  <PUBCHEM_HEAVY_ATOM_COUNT>  (1) 
22

>  <PUBCHEM_ATOM_DEF_STEREO_COUNT>  (1) 
0

>  <PUBCHEM_ATOM_UDEF_STEREO_COUNT>  (1) 
2

>  <PUBCHEM_BOND_DEF_STEREO_COUNT>  (1) 
0

>  <PUBCHEM_BOND_UDEF_STEREO_COUNT>  (1) 
0

>  <PUBCHEM_ISOTOPIC_ATOM_COUNT>  (1) 
0

>  <PUBCHEM_COMPONENT_COUNT>  (1) 
1

>  <PUBCHEM_CACTVS_TAUTO_COUNT>  (1) 
1

>  <PUBCHEM_CONFORMER_ID>  (1) 
00008F3B00000001

>  <PUBCHEM_MMFF94_ENERGY>  (1) 
65.4492

>  <PUBCHEM_FEATURE_SELFOVERLAP>  (1) 
30.521

>  <PUBCHEM_SHAPE_FINGERPRINT>  (1) 
10165383 225 18269575925578587073
10498660 4 18334851753550557589
10759866 29 18186519942998628554
10871710 139 17468772135262541876
11370993 70 18409726223264040556
11578080 2 12847044972648454390
11640471 11 16950276312766566016
12054548 360 17905892830964941824
12173636 292 18409161117195066045
12730499 353 18338804403716468633
13140716 1 18410294670981452683
14250199 8 17979348656286042037
14713325 29 18189635945534230346
14790565 3 18266753539956116753
14955137 171 17759828204852696739
15664445 248 16836220733956280733
16945 1 18197783206363022291
17357779 13 17553752259148815839
17492 54 18118947316940956511
17980427 23 17832948738486740178
18186145 218 18272657831012183072
19591789 44 18269280221269839907
20101258 96 17036992862567637426
21285901 2 18055644055383542447
21524375 3 18260545580924221416
22182313 1 18270402818689340152
22907989 373 18191026900689343573
23114952 82 18195530294258204949
2334 1 18411695525999031859
23419403 2 17340739284754092263
23536364 44 17767997267040933006
23559900 14 18124300615195993675
23566358 2 18200049334567772638
238 59 18197480858145868719
2748010 2 18197496435723355675
3380486 77 16396000655970225866
350125 39 18337964393384962962
3524813 1 18200317765380216746
5262128 65 17340129948953401111
59554788 191 18266170639483927530
7364860 26 17908692947830997549
81228 2 17692245657177776002
84936 182 18196649584231880528
90316 7 17690536994791280552
9925002 15 17544481211341515909
9981440 41 18335414656053591202

>  <PUBCHEM_SHAPE_MULTIPOLES>  (1) 
447.77
5.99
4.31
1.19
1.96
1.95
-0.17
-4.41
1.8
-1.03
1.05
0.22
-0.23
1.21

>  <PUBCHEM_SHAPE_SELFOVERLAP>  (1) 
991.489

>  <PUBCHEM_SHAPE_VOLUME>  (1) 
233.4

>  <PUBCHEM_COORDINATE_TYPE>  (1) 
2
5
10

$$$$
