36661
     RDKit          3D

 11 11  0  0  1  0  0  0  0  0999 V2000
    3.9618    0.1158    0.3536 Cl  0  0  0  0  0  0  0  0  0  0  0  0
   -2.3961   -1.5761   -0.4473 O   0  0  0  0  0  0  0  0  0  0  0  0
   -2.2207    1.4091    1.1795 O   0  0  0  0  0  0  0  0  0  0  0  0
   -0.4844   -0.1449   -0.3603 C   0  0  0  0  0  0  0  0  0  0  0  0
   -1.9544   -0.2325   -0.5975 C   0  0  0  0  0  0  0  0  0  0  0  0
    0.2783    0.7983   -1.0489 C   0  0  0  0  0  0  0  0  0  0  0  0
    0.1276   -1.0072    0.5494 C   0  0  0  0  0  0  0  0  0  0  0  0
    1.6532    0.8791   -0.8278 C   0  0  0  0  0  0  0  0  0  0  0  0
    1.5025   -0.9262    0.7705 C   0  0  0  0  0  0  0  0  0  0  0  0
    2.2653    0.0169    0.0819 C   0  0  0  0  0  0  0  0  0  0  0  0
   -2.7333    0.6675    0.3470 C   0  0  0  0  0  0  0  0  0  0  0  0
  1 10  1  0
  2  5  1  0
  3 11  2  0
  4  5  1  0
  4  6  2  0
  4  7  1  0
  5 11  1  0
  6  8  1  0
  7  9  2  0
  8 10  2  0
  9 10  1  0
M  END
>  <PUBCHEM_COMPOUND_CID>  (1) 
36661

>  <PUBCHEM_CONFORMER_RMSD>  (1) 
0.4

>  <PUBCHEM_CONFORMER_DIVERSEORDER>  (1) 
4
2
1
3

>  <PUBCHEM_MMFF94_PARTIAL_CHARGES>  (1) 
17
1 -0.18
10 0.18
11 0.45
13 0.15
14 0.15
15 0.15
16 0.15
17 0.06
18 0.4
2 -0.68
3 -0.57
4 -0.14
5 0.48
6 -0.15
7 -0.15
8 -0.15
9 -0.15

>  <PUBCHEM_EFFECTIVE_ROTOR_COUNT>  (1) 
2

>  <PUBCHEM_PHARMACOPHORE_FEATURES>  (1) 
4
1 2 acceptor
1 2 donor
1 3 acceptor
6 4 6 7 8 9 10 rings

>  <PUBCHEM_HEAVY_ATOM_COUNT>  (1) 
11

>  <PUBCHEM_ATOM_DEF_STEREO_COUNT>  (1) 
0

>  <PUBCHEM_ATOM_UDEF_STEREO_COUNT>  (1) 
1

>  <PUBCHEM_BOND_DEF_STEREO_COUNT>  (1) 
0

>  <PUBCHEM_BOND_UDEF_STEREO_COUNT>  (1) 
0

>  <PUBCHEM_ISOTOPIC_ATOM_COUNT>  (1) 
0

>  <PUBCHEM_COMPONENT_COUNT>  (1) 
1

>  <PUBCHEM_CACTVS_TAUTO_COUNT>  (1) 
3

>  <PUBCHEM_CONFORMER_ID>  (1) 
00008F3500000004

>  <PUBCHEM_MMFF94_ENERGY>  (1) 
19.6605

>  <PUBCHEM_FEATURE_SELFOVERLAP>  (1) 
20.297

>  <PUBCHEM_SHAPE_FINGERPRINT>  (1) 
10219947 1 17603865598535214700
10857977 72 15719400537577789393
12138202 97 16558742374089157981
124424 183 16558746763698546026
12716758 59 17703241628122086775
12932764 1 18113330891017971812
13839132 238 17273706355554384553
15310529 11 17132111351313854590
15775835 57 18342181012045961041
16945 1 17458345243104677654
17844478 74 16298391231782223140
19026448 4 17418094334604759854
20201158 50 16081087052198228617
21061003 4 16515411737371747100
23402539 116 17704060799124598901
23402655 69 17606649519354197239
2748010 2 17315927838542452150
29004967 10 16805608031697490364
3248919 1 18201711843124220814
5084963 1 18114736148192556318
63268167 104 18114174220430808273

>  <PUBCHEM_SHAPE_MULTIPOLES>  (1) 
216.51
5
1.29
1.02
2.06
0.14
-0.14
-0.23
-0.91
-0.24
0.04
-0.46
-0.19
-0.71

>  <PUBCHEM_SHAPE_SELFOVERLAP>  (1) 
439.891

>  <PUBCHEM_SHAPE_VOLUME>  (1) 
126.7

>  <PUBCHEM_COORDINATE_TYPE>  (1) 
2
5
10

$$$$
