36675
     RDKit          3D

 13 13  0  0  0  0  0  0  0  0999 V2000
    3.2708   -0.0973    0.1005 N   0  0  0  0  0  0  0  0  0  0  0  0
    2.2656    0.7247   -0.6933 C   0  0  0  0  0  0  0  0  0  0  0  0
    3.3037   -1.5193   -0.4408 C   0  0  0  0  0  0  0  0  0  0  0  0
    4.6525    0.5274   -0.0300 C   0  0  0  0  0  0  0  0  0  0  0  0
    2.8617   -0.1218    1.5662 C   0  0  0  0  0  0  0  0  0  0  0  0
    0.8771    0.1739   -0.6156 C   0  0  0  0  0  0  0  0  0  0  0  0
   -0.1628    0.8651   -0.1236 C   0  0  0  0  0  0  0  0  0  0  0  0
   -1.5472    0.3710   -0.0394 C   0  0  0  0  0  0  0  0  0  0  0  0
   -1.7858   -0.9935   -0.0877 C   0  0  0  0  0  0  0  0  0  0  0  0
   -2.5865    1.2793    0.0864 C   0  0  0  0  0  0  0  0  0  0  0  0
   -3.0974   -1.4615   -0.0080 C   0  0  0  0  0  0  0  0  0  0  0  0
   -3.8981    0.8112    0.1663 C   0  0  0  0  0  0  0  0  0  0  0  0
   -4.1536   -0.5593    0.1191 C   0  0  0  0  0  0  0  0  0  0  0  0
  1  2  1  0
  1  3  1  0
  1  4  1  0
  1  5  1  0
  2  6  1  0
  6  7  2  0
  7  8  1  0
  8  9  2  0
  8 10  1  0
  9 11  1  0
 10 12  2  0
 11 13  2  0
 12 13  1  0
M  CHG  1   1   1
M  END
>  <PUBCHEM_COMPOUND_CID>  (1) 
36675

>  <PUBCHEM_CONFORMER_RMSD>  (1) 
0.6

>  <PUBCHEM_CONFORMER_DIVERSEORDER>  (1) 
1
2

>  <PUBCHEM_MMFF94_PARTIAL_CHARGES>  (1) 
20
1 -1.01
10 -0.15
11 -0.15
12 -0.15
13 -0.15
2 0.64
25 0.15
26 0.15
27 0.15
28 0.15
29 0.15
3 0.5
30 0.15
31 0.15
4 0.5
5 0.5
6 -0.29
7 -0.18
8 0.03
9 -0.15

>  <PUBCHEM_EFFECTIVE_ROTOR_COUNT>  (1) 
3

>  <PUBCHEM_PHARMACOPHORE_FEATURES>  (1) 
2
1 1 cation
6 8 9 10 11 12 13 rings

>  <PUBCHEM_HEAVY_ATOM_COUNT>  (1) 
13

>  <PUBCHEM_ATOM_DEF_STEREO_COUNT>  (1) 
0

>  <PUBCHEM_ATOM_UDEF_STEREO_COUNT>  (1) 
0

>  <PUBCHEM_BOND_DEF_STEREO_COUNT>  (1) 
0

>  <PUBCHEM_BOND_UDEF_STEREO_COUNT>  (1) 
1

>  <PUBCHEM_ISOTOPIC_ATOM_COUNT>  (1) 
0

>  <PUBCHEM_COMPONENT_COUNT>  (1) 
1

>  <PUBCHEM_CACTVS_TAUTO_COUNT>  (1) 
1

>  <PUBCHEM_CONFORMER_ID>  (1) 
00008F4300000001

>  <PUBCHEM_MMFF94_ENERGY>  (1) 
40.627

>  <PUBCHEM_FEATURE_SELFOVERLAP>  (1) 
10.148

>  <PUBCHEM_SHAPE_FINGERPRINT>  (1) 
10366900 7 17346597473694720786
10465860 250 18202560670248313608
11615757 297 15052011281716551283
12251169 10 18412545431054212876
12500047 106 18201995534251405982
12932764 1 17458058253110514156
13081056 2 8934997066365952935
13296908 3 18343303647687688902
14123238 8 18113900480822144564
14144814 61 18333450932523074309
14252887 29 18260835882290651986
15536298 74 18340770342943707342
15653759 3 18060415828494642913
177051 138 18411139129996788590
17834072 33 18335144232481316092
18186145 218 17240483623698949229
190213 19 18186803577789994485
19107657 47 15698282187767963074
200 152 16153421757457515908
20279233 1 17561089107014448229
20528008 55 17775563143642244791
20645477 56 18410013191947430405
20645477 70 17894351102784027878
21501925 9 18409727395610705596
22169311 21 18343577417376986966
22485316 2 18409729555994936726
2255824 54 17386013918074433476
23402539 116 18272645741306947037
23463225 33 18335141977169700983
23559900 14 18271808973870649148
300161 21 18261105283555455772
42 15 18411703162192258670
4214541 1 18411139099837292796
449060 50 18272931643978149628
474 4 17169841204770278252
4990 188 11458421323662155536
5104073 3 18411984628568518530
573450 72 18334006177516208921
7364860 26 18265618877878088452
77779 3 18412266129568187732
9709674 26 18410019857177524078

>  <PUBCHEM_SHAPE_MULTIPOLES>  (1) 
262.55
9.16
1.38
0.89
2.44
0.31
-0.25
0.65
-0.71
-0.49
0.1
0.7
0.01
-0.03

>  <PUBCHEM_SHAPE_SELFOVERLAP>  (1) 
523.773

>  <PUBCHEM_SHAPE_VOLUME>  (1) 
157.2

>  <PUBCHEM_COORDINATE_TYPE>  (1) 
2
5
10

$$$$
