3668
     RDKit          3D

 29 32  0  0  1  0  0  0  0  0999 V2000
   -7.4467   -2.1671    2.7755 I   0  0  0  0  0  0  0  0  0  0  0  0
    3.9030    0.1968   -1.0778 O   0  0  0  0  0  0  0  0  0  0  0  0
    4.6519    2.2716    1.1439 O   0  0  0  0  0  0  0  0  0  0  0  0
    5.5949   -0.0857    2.0777 O   0  0  0  0  0  0  0  0  0  0  0  0
    4.3832   -2.2833   -1.4832 O   0  0  0  0  0  0  0  0  0  0  0  0
    1.7182    0.7262   -0.2949 N   0  0  0  0  0  0  0  0  0  0  0  0
   -0.0756   -0.6006   -0.3274 N   0  0  0  0  0  0  0  0  0  0  0  0
    6.1316   -2.3812    0.0505 N   0  0  0  0  0  0  0  0  0  0  0  0
    0.6271    2.8959   -0.2296 N   0  0  0  0  0  0  0  0  0  0  0  0
   -2.8940    0.5394   -0.2829 N   0  0  0  0  0  0  0  0  0  0  0  0
   -1.8028    2.6686   -0.2278 N   0  0  0  0  0  0  0  0  0  0  0  0
    3.7502    1.1657    1.1049 C   0  0  0  0  0  0  0  0  0  0  0  0
    3.1275    1.1230   -0.2878 C   0  0  0  0  0  0  0  0  0  0  0  0
    4.5113   -0.1431    1.1722 C   0  0  0  0  0  0  0  0  0  0  0  0
    4.9620   -0.3216   -0.2635 C   0  0  0  0  0  0  0  0  0  0  0  0
    5.1142   -1.7555   -0.6491 C   0  0  0  0  0  0  0  0  0  0  0  0
    0.6312    1.5550   -0.2677 C   0  0  0  0  0  0  0  0  0  0  0  0
    1.2405   -0.5584   -0.3309 C   0  0  0  0  0  0  0  0  0  0  0  0
   -0.4695    0.7134   -0.2879 C   0  0  0  0  0  0  0  0  0  0  0  0
   -1.7230    1.3166   -0.2662 C   0  0  0  0  0  0  0  0  0  0  0  0
    6.4676   -3.7762   -0.1216 C   0  0  0  0  0  0  0  0  0  0  0  0
   -0.6400    3.3639   -0.2121 C   0  0  0  0  0  0  0  0  0  0  0  0
   -4.2092    1.1072   -0.2619 C   0  0  0  0  0  0  0  0  0  0  0  0
   -5.2780    0.0468   -0.2508 C   0  0  0  0  0  0  0  0  0  0  0  0
   -5.7459   -0.4412    0.9613 C   0  0  0  0  0  0  0  0  0  0  0  0
   -5.7795   -0.4290   -1.4544 C   0  0  0  0  0  0  0  0  0  0  0  0
   -6.7350   -1.4245    0.9702 C   0  0  0  0  0  0  0  0  0  0  0  0
   -6.7687   -1.4124   -1.4456 C   0  0  0  0  0  0  0  0  0  0  0  0
   -7.2465   -1.9101   -0.2333 C   0  0  0  0  0  0  0  0  0  0  0  0
  1 27  1  0
  2 13  1  0
  2 15  1  0
  3 12  1  0
  4 14  1  0
  5 16  2  0
  6 13  1  0
  6 17  1  0
  6 18  1  0
  7 18  2  0
  7 19  1  0
  8 16  1  0
  8 21  1  0
  9 17  1  0
  9 22  2  0
 10 20  1  0
 10 23  1  0
 11 20  2  0
 11 22  1  0
 12 13  1  0
 12 14  1  0
 14 15  1  0
 15 16  1  0
 17 19  2  0
 19 20  1  0
 23 24  1  0
 24 25  2  0
 24 26  1  0
 25 27  1  0
 26 28  2  0
 27 29  2  0
 28 29  1  0
M  END
>  <PUBCHEM_COMPOUND_CID>  (1) 
3668

>  <PUBCHEM_CONFORMER_RMSD>  (1) 
1.4

>  <PUBCHEM_CONFORMER_DIVERSEORDER>  (1) 
1
89
22
105
60
129
111
54
134
120
51
40
90
119
33
45
79
135
133
78
108
122
116
77
61
43
15
55
114
125
74
128
6
62
7
21
18
13
8
106
88
49
20
140
101
25
50
98
142
64
37
26
131
92
127
109
2
113
87
103
139
24
76
123
130
91
102
59
38
56
39
27
57
41
84
144
16
95
58
10
17
28
70
138
117
32
66
9
100
83
121
65
112
68
143
97
141
44
126
29
31
136
19
11
93
34
53
115
94
5
36
75
104
12
118
47
72
3
82
96
124
23
4
85
73
132
63
81
99
80
110
48
52
30
46
86
107
69
67
137
14
35
71
42

>  <PUBCHEM_MMFF94_PARTIAL_CHARGES>  (1) 
39
1 -0.08
10 -0.87
11 -0.62
12 0.28
13 0.54
14 0.28
15 0.34
16 0.57
17 0.11
18 0.04
19 0.23
2 -0.56
20 0.41
21 0.3
22 0.47
23 0.51
24 -0.14
25 -0.15
26 -0.15
27 0.08
28 -0.15
29 -0.15
3 -0.68
34 0.4
35 0.4
36 0.15
37 0.37
4 -0.68
41 0.4
42 0.15
45 0.15
46 0.15
47 0.15
48 0.15
5 -0.57
6 0.05
7 -0.57
8 -0.73
9 -0.57

>  <PUBCHEM_EFFECTIVE_ROTOR_COUNT>  (1) 
7

>  <PUBCHEM_PHARMACOPHORE_FEATURES>  (1) 
17
1 1 hydrophobe
1 10 cation
1 10 donor
1 2 acceptor
1 3 acceptor
1 3 donor
1 4 acceptor
1 4 donor
1 5 acceptor
1 8 donor
3 6 7 18 cation
3 6 9 17 cation
3 9 11 22 cation
5 2 12 13 14 15 rings
5 6 7 17 18 19 rings
6 24 25 26 27 28 29 rings
6 9 11 17 19 20 22 rings

>  <PUBCHEM_HEAVY_ATOM_COUNT>  (1) 
29

>  <PUBCHEM_ATOM_DEF_STEREO_COUNT>  (1) 
0

>  <PUBCHEM_ATOM_UDEF_STEREO_COUNT>  (1) 
4

>  <PUBCHEM_BOND_DEF_STEREO_COUNT>  (1) 
0

>  <PUBCHEM_BOND_UDEF_STEREO_COUNT>  (1) 
0

>  <PUBCHEM_ISOTOPIC_ATOM_COUNT>  (1) 
0

>  <PUBCHEM_COMPONENT_COUNT>  (1) 
1

>  <PUBCHEM_CACTVS_TAUTO_COUNT>  (1) 
6

>  <PUBCHEM_CONFORMER_ID>  (1) 
00000E5400000001

>  <PUBCHEM_MMFF94_ENERGY>  (1) 
65.7288

>  <PUBCHEM_FEATURE_SELFOVERLAP>  (1) 
86.905

>  <PUBCHEM_SHAPE_FINGERPRINT>  (1) 
10280341 67 8212984030938092518
117089 54 18266187132390719030
11963148 33 18410287004091127279
12120059 9 18265869455060297879
12166972 35 18201722881375216913
12422481 6 17489587831590153461
12623949 98 17988651757333519790
12661589 4 18040433274819308618
13533116 47 18272368685482136752
13782708 43 18411418367195376246
13862211 1 18411134740756451093
14123256 34 18260271863027602043
14211702 104 18335702723979024739
14598715 104 12247684842646613331
14849402 71 17058365023649520657
15183329 4 18272653480463792911
15510800 12 18260553328750130075
17492 89 18339358557566610524
18222031 100 17676489432355897300
18335252 98 18335144219575184916
20028762 73 18343580763426159903
20281389 69 10952056650122925119
21130935 74 18343302600269797043
21424621 283 10303806584007126941
21585482 310 18260838115600338491
21682296 61 18411138026670189487
22149856 69 18341907281190645393
2303208 19 18408040706498702309
23522609 53 18124630584707550525
23569943 247 18269836428621128443
24771750 20 17319874041225105093
2748736 6 9367343704704590215
2838139 119 8574446304935055121
312425 54 17274826882995203419
3383291 50 18261392286867870203
3504750 166 18060416890279966877
3663271 9 16917069997083452595
4340502 62 15339125657956341181
44880568 143 17095237021358571693
465052 167 18411423920603881932
50009960 94 17900806177059930538
5104073 3 17917712361799038969
5718773 13 18338513028676935214
58083652 198 17274812563463618929
59682541 52 13984650443426062425
6328613 192 8142078775907411799
636775 8 18266470819681542342
999808 66 18187374251028790963

>  <PUBCHEM_SHAPE_MULTIPOLES>  (1) 
555.38
22.26
3.46
1.63
18.04
0.32
0.81
22.39
4.26
-3.36
0.19
2.07
0.98
3.21

>  <PUBCHEM_SHAPE_SELFOVERLAP>  (1) 
1185.274

>  <PUBCHEM_SHAPE_VOLUME>  (1) 
315.6

>  <PUBCHEM_COORDINATE_TYPE>  (1) 
2
5
10

$$$$
