36686
     RDKit          3D

 29 33  0  0  1  0  0  0  0  0999 V2000
    0.6611    0.4508   -0.0180 N   0  0  0  0  0  0  0  0  0  0  0  0
   -2.0819    1.3604    0.0682 N   0  0  0  0  0  0  0  0  0  0  0  0
    3.0293   -3.3196    0.9135 N   0  0  0  0  0  0  0  0  0  0  0  0
    1.8514   -0.0304   -0.7165 C   0  0  0  0  0  0  0  0  0  0  0  0
   -0.4580   -0.4837   -0.1902 C   0  0  0  0  0  0  0  0  0  0  0  0
    0.2872    1.7908   -0.4870 C   0  0  0  0  0  0  0  0  0  0  0  0
   -1.7077    0.0213    0.5392 C   0  0  0  0  0  0  0  0  0  0  0  0
   -0.9633    2.2952    0.2413 C   0  0  0  0  0  0  0  0  0  0  0  0
    3.0229    0.9222   -0.5516 C   0  0  0  0  0  0  0  0  0  0  0  0
    2.1310   -1.4893   -0.3897 C   0  0  0  0  0  0  0  0  0  0  0  0
    3.6572    1.1159    0.6881 C   0  0  0  0  0  0  0  0  0  0  0  0
   -3.2731    1.8416    0.7648 C   0  0  0  0  0  0  0  0  0  0  0  0
    2.8650   -1.9810    0.6984 C   0  0  0  0  0  0  0  0  0  0  0  0
    3.2454    0.3140    1.8923 C   0  0  0  0  0  0  0  0  0  0  0  0
    3.6057   -1.1557    1.7197 C   0  0  0  0  0  0  0  0  0  0  0  0
    3.4641    1.6660   -1.6614 C   0  0  0  0  0  0  0  0  0  0  0  0
    1.5414   -2.4487   -1.2402 C   0  0  0  0  0  0  0  0  0  0  0  0
    4.7100    2.0395    0.7944 C   0  0  0  0  0  0  0  0  0  0  0  0
   -4.4558    0.9363    0.5448 C   0  0  0  0  0  0  0  0  0  0  0  0
    4.5117    2.5794   -1.5445 C   0  0  0  0  0  0  0  0  0  0  0  0
    5.1338    2.7674   -0.3157 C   0  0  0  0  0  0  0  0  0  0  0  0
    1.6991   -3.8099   -1.0225 C   0  0  0  0  0  0  0  0  0  0  0  0
    2.4505   -4.1916    0.0634 C   0  0  0  0  0  0  0  0  0  0  0  0
   -4.7308    0.4694   -0.7329 C   0  0  0  0  0  0  0  0  0  0  0  0
   -5.2537    0.5807    1.6231 C   0  0  0  0  0  0  0  0  0  0  0  0
   -5.8260   -0.3700   -0.9363 C   0  0  0  0  0  0  0  0  0  0  0  0
   -6.3489   -0.2589    1.4198 C   0  0  0  0  0  0  0  0  0  0  0  0
   -6.6351   -0.7341    0.1400 C   0  0  0  0  0  0  0  0  0  0  0  0
   -6.1325   -0.8781   -2.3046 C   0  0  0  0  0  0  0  0  0  0  0  0
  1  4  1  0
  1  5  1  0
  1  6  1  0
  2  7  1  0
  2  8  1  0
  2 12  1  0
  3 13  2  0
  3 23  1  0
  4  9  1  0
  4 10  1  0
  5  7  1  0
  6  8  1  0
  9 11  2  0
  9 16  1  0
 10 13  1  0
 10 17  2  0
 11 14  1  0
 11 18  1  0
 12 19  1  0
 13 15  1  0
 14 15  1  0
 16 20  2  0
 17 22  1  0
 18 21  2  0
 19 24  2  0
 19 25  1  0
 20 21  1  0
 22 23  2  0
 24 26  1  0
 25 27  2  0
 26 28  2  0
 26 29  1  0
 27 28  1  0
M  END
>  <PUBCHEM_COMPOUND_CID>  (1) 
36686

>  <PUBCHEM_CONFORMER_RMSD>  (1) 
0.8

>  <PUBCHEM_CONFORMER_DIVERSEORDER>  (1) 
1
24
28
18
22
30
15
7
35
42
43
29
27
16
25
20
12
8
32
11
40
38
21
19
34
33
9
36
23
41
10
39
31
6
37
14
13
17
26
5
3
2
4

>  <PUBCHEM_MMFF94_PARTIAL_CHARGES>  (1) 
40
1 -0.81
10 -0.14
11 -0.14
12 0.41
13 0.17
14 0.14
15 0.14
16 -0.15
17 -0.15
18 -0.15
19 -0.14
2 -0.81
20 -0.15
21 -0.15
22 -0.15
23 0.16
24 -0.15
25 -0.15
26 -0.14
27 -0.15
28 -0.15
29 0.14
3 -0.62
4 0.56
45 0.15
46 0.15
47 0.15
48 0.15
49 0.15
5 0.27
50 0.15
51 0.15
52 0.15
53 0.15
54 0.15
55 0.15
6 0.27
7 0.27
8 0.27
9 -0.14

>  <PUBCHEM_EFFECTIVE_ROTOR_COUNT>  (1) 
4.8

>  <PUBCHEM_PHARMACOPHORE_FEATURES>  (1) 
8
1 1 cation
1 2 cation
1 3 acceptor
6 1 2 5 6 7 8 rings
6 19 24 25 26 27 28 rings
6 3 10 13 17 22 23 rings
6 9 11 16 18 20 21 rings
7 4 9 10 11 13 14 15 rings

>  <PUBCHEM_HEAVY_ATOM_COUNT>  (1) 
29

>  <PUBCHEM_ATOM_DEF_STEREO_COUNT>  (1) 
0

>  <PUBCHEM_ATOM_UDEF_STEREO_COUNT>  (1) 
1

>  <PUBCHEM_BOND_DEF_STEREO_COUNT>  (1) 
0

>  <PUBCHEM_BOND_UDEF_STEREO_COUNT>  (1) 
0

>  <PUBCHEM_ISOTOPIC_ATOM_COUNT>  (1) 
0

>  <PUBCHEM_COMPONENT_COUNT>  (1) 
1

>  <PUBCHEM_CACTVS_TAUTO_COUNT>  (1) 
1

>  <PUBCHEM_CONFORMER_ID>  (1) 
00008F4E00000001

>  <PUBCHEM_MMFF94_ENERGY>  (1) 
96.5063

>  <PUBCHEM_FEATURE_SELFOVERLAP>  (1) 
40.617

>  <PUBCHEM_SHAPE_FINGERPRINT>  (1) 
10090160 65 18409731793636429589
10169797 241 18263949677235001027
10906281 52 18189913057008771577
11135926 11 18410011070011462311
11421498 54 18130798811053889728
11823591 26 18262519333741632484
11963148 33 18335699507302565763
13150687 139 18264788708767273932
146900 427 18202566202361467305
14790565 3 18194687200758015284
14863182 85 18336274500222199268
15250474 111 18201711852389700631
15537594 2 18060424633989885605
15799311 1 17989490727845570019
16992610 120 18192444176823740652
17349148 13 18408606946481715153
17492 89 18266460893299405555
19319366 153 18341047510073073062
19377110 9 18201999919877141681
21716022 299 15120738365330887260
22149856 69 18339659888472134225
22956985 138 18119243970569928994
23559900 14 18122345679173989089
23572383 38 18040435490985035347
239999 70 17967535644858892802
25222932 49 17131249342708523975
314194 84 18413387644777599441
32027 91 17896596177075073739
404807 78 18046070629548109955
4340502 62 17386006216760377856
460360 51 18197494031027239349
5104073 3 18268158569818785881

>  <PUBCHEM_SHAPE_MULTIPOLES>  (1) 
581.86
14.95
3.93
1.69
25.8
4.03
-0.12
-3.66
0.03
-6.78
-0.64
0.42
0.07
-1.85

>  <PUBCHEM_SHAPE_SELFOVERLAP>  (1) 
1271.287

>  <PUBCHEM_SHAPE_VOLUME>  (1) 
310

>  <PUBCHEM_COORDINATE_TYPE>  (1) 
2
5
10

$$$$
