36683
     RDKit          3D

 25 26  0  0  1  0  0  0  0  0999 V2000
    5.1084    0.5517    0.5428 F   0  0  0  0  0  0  0  0  0  0  0  0
    4.6161   -1.3351    1.4922 F   0  0  0  0  0  0  0  0  0  0  0  0
    4.8835   -1.2432   -0.6639 F   0  0  0  0  0  0  0  0  0  0  0  0
   -3.7091   -0.8584   -0.2239 O   0  0  0  0  0  0  0  0  0  0  0  0
    1.4920    3.5655    0.1828 O   0  0  0  0  0  0  0  0  0  0  0  0
    0.1929   -3.3257   -0.2787 O   0  0  0  0  0  0  0  0  0  0  0  0
   -0.5772    2.9002   -0.1242 O   0  0  0  0  0  0  0  0  0  0  0  0
   -1.4865   -1.9221   -0.4468 O   0  0  0  0  0  0  0  0  0  0  0  0
   -1.2037    0.5239   -0.3085 N   0  0  0  0  0  0  0  0  0  0  0  0
    0.6424    2.6572    0.0305 N   0  0  0  0  0  0  0  0  0  0  0  0
   -0.2660   -2.1598   -0.2925 N   0  0  0  0  0  0  0  0  0  0  0  0
   -3.5361    0.4459    0.3554 C   0  0  0  0  0  0  0  0  0  0  0  0
   -4.5509    0.5468    1.4811 C   0  0  0  0  0  0  0  0  0  0  0  0
   -2.1019    0.6187    0.8163 C   0  0  0  0  0  0  0  0  0  0  0  0
   -5.6946   -0.2660    0.9283 C   0  0  0  0  0  0  0  0  0  0  0  0
   -4.9667   -1.3891    0.2201 C   0  0  0  0  0  0  0  0  0  0  0  0
    0.1616    0.2542   -0.1346 C   0  0  0  0  0  0  0  0  0  0  0  0
   -1.7418    0.7300   -1.6548 C   0  0  0  0  0  0  0  0  0  0  0  0
    1.0778    1.3020    0.0327 C   0  0  0  0  0  0  0  0  0  0  0  0
    0.6310   -1.0669   -0.1266 C   0  0  0  0  0  0  0  0  0  0  0  0
   -0.6315    0.6247   -2.6827 C   0  0  0  0  0  0  0  0  0  0  0  0
    2.4358    1.0344    0.2046 C   0  0  0  0  0  0  0  0  0  0  0  0
    1.9890   -1.3346    0.0455 C   0  0  0  0  0  0  0  0  0  0  0  0
    2.8915   -0.2840    0.2110 C   0  0  0  0  0  0  0  0  0  0  0  0
    4.3440   -0.5703    0.3939 C   0  0  0  0  0  0  0  0  0  0  0  0
  1 25  1  0
  2 25  1  0
  3 25  1  0
  4 12  1  0
  4 16  1  0
  5 10  1  0
  6 11  1  0
  7 10  2  0
  8 11  2  0
  9 14  1  0
  9 17  1  0
  9 18  1  0
 10 19  1  0
 11 20  1  0
 12 13  1  0
 12 14  1  0
 13 15  1  0
 15 16  1  0
 17 19  2  0
 17 20  1  0
 18 21  1  0
 19 22  1  0
 20 23  2  0
 22 24  2  0
 23 24  1  0
 24 25  1  0
M  CHG  4   5  -1   6  -1  10   1  11   1
M  END
>  <PUBCHEM_COMPOUND_CID>  (1) 
36683

>  <PUBCHEM_CONFORMER_RMSD>  (1) 
0.8

>  <PUBCHEM_CONFORMER_DIVERSEORDER>  (1) 
1
8
9
7
5
3
4
2
6

>  <PUBCHEM_MMFF94_PARTIAL_CHARGES>  (1) 
24
1 -0.34
10 0.91
11 0.91
12 0.28
14 0.37
16 0.28
17 0.1
18 0.37
19 0.13
2 -0.34
20 0.13
22 -0.15
23 -0.15
24 -0.14
25 1.16
3 -0.34
4 -0.56
40 0.15
41 0.15
5 -0.52
6 -0.52
7 -0.52
8 -0.52
9 -0.84

>  <PUBCHEM_EFFECTIVE_ROTOR_COUNT>  (1) 
8

>  <PUBCHEM_PHARMACOPHORE_FEATURES>  (1) 
10
1 4 acceptor
1 5 acceptor
1 5 anion
1 6 acceptor
1 6 anion
1 7 acceptor
1 8 acceptor
1 9 cation
5 4 12 13 15 16 rings
6 17 19 20 22 23 24 rings

>  <PUBCHEM_HEAVY_ATOM_COUNT>  (1) 
25

>  <PUBCHEM_ATOM_DEF_STEREO_COUNT>  (1) 
0

>  <PUBCHEM_ATOM_UDEF_STEREO_COUNT>  (1) 
1

>  <PUBCHEM_BOND_DEF_STEREO_COUNT>  (1) 
0

>  <PUBCHEM_BOND_UDEF_STEREO_COUNT>  (1) 
0

>  <PUBCHEM_ISOTOPIC_ATOM_COUNT>  (1) 
0

>  <PUBCHEM_COMPONENT_COUNT>  (1) 
1

>  <PUBCHEM_CACTVS_TAUTO_COUNT>  (1) 
1

>  <PUBCHEM_CONFORMER_ID>  (1) 
00008F4B00000001

>  <PUBCHEM_MMFF94_ENERGY>  (1) 
108.969

>  <PUBCHEM_FEATURE_SELFOVERLAP>  (1) 
50.933

>  <PUBCHEM_SHAPE_FINGERPRINT>  (1) 
1100329 8 18340206417969192139
11796584 16 16443063885402001635
12011746 2 18408606950602518175
12035758 1 18410287051635369738
12236239 1 17632577145734652409
12403814 3 17748821925690780918
12422481 6 17274261617500463830
12507560 14 18413109489278098889
12553582 1 18340194229363377500
12633257 1 18412550937634711955
12714826 92 17749374945569232220
12930653 34 18124881161962917873
13134695 92 17968386744448231957
13140716 1 18267303312226511971
13544653 18 18040722432980294953
13583140 156 16951942056277732080
13862211 1 18410289198797634114
14178342 30 18127704737946061369
14341114 328 17917441955680504419
14739800 52 17273693375984421161
14787075 74 17968100823900528922
14790565 3 18411710884855362296
14863182 85 18267607752773799239
14955137 171 18340217331417638146
15209289 33 18201716258213489923
15475509 8 17914926221299506428
15527383 91 18334017198787541953
16945 1 18339909417223471102
1813 80 17821740407031135719
18785283 64 18190180281295102116
19319366 153 17895194441847303874
19591789 44 18340206276477864238
20028762 73 18130223873804917423
20261772 1 18412543210651222314
20739085 24 18336837458438948853
21267235 1 18411710880206505978
21637258 2 16081079390145364922
23184049 59 18409451418455760881
23402539 116 18273207586625435551
23419403 2 18040980869837261621
23558518 356 17687747559519192026
23559900 14 18410851101517351417
2748010 2 17836077880223520908
3286 77 18334295396377216725
350125 39 18410294756764831461
465052 167 17968386709803481819
5104073 3 18270130144633259297
59755656 215 18265619783968520950

>  <PUBCHEM_SHAPE_MULTIPOLES>  (1) 
448.38
9.62
2.76
1.32
2.24
0.82
0.8
-3.13
-4.3
-1.06
0.09
0.55
0.23
-0.16

>  <PUBCHEM_SHAPE_SELFOVERLAP>  (1) 
956.518

>  <PUBCHEM_SHAPE_VOLUME>  (1) 
251.5

>  <PUBCHEM_COORDINATE_TYPE>  (1) 
2
5
10

$$$$
