36690
     RDKit          3D

 24 26  0  0  1  0  0  0  0  0999 V2000
    0.3152    0.5095    2.1253 O   0  0  0  0  0  0  0  0  0  0  0  0
   -1.6455    0.5285    0.4758 O   0  0  0  0  0  0  0  0  0  0  0  0
   -0.2474    2.0087   -0.6156 O   0  0  0  0  0  0  0  0  0  0  0  0
    0.3729   -3.0986   -1.0727 N   0  0  0  0  0  0  0  0  0  0  0  0
   -5.2352    1.1683   -0.0770 N   0  0  0  0  0  0  0  0  0  0  0  0
    0.6632    0.2427    0.7507 C   0  0  0  0  0  0  0  0  0  0  0  0
    2.0471    0.7818    0.3755 C   0  0  0  0  0  0  0  0  0  0  0  0
    0.5067   -1.2489    0.5008 C   0  0  0  0  0  0  0  0  0  0  0  0
    2.1442   -0.3154   -2.0132 C   0  0  0  0  0  0  0  0  0  0  0  0
    2.6626    0.5527   -0.8804 C   0  0  0  0  0  0  0  0  0  0  0  0
    0.7290   -0.8797   -1.9830 C   0  0  0  0  0  0  0  0  0  0  0  0
    0.5084   -1.7749   -0.7972 C   0  0  0  0  0  0  0  0  0  0  0  0
   -0.4366    1.0443    0.1133 C   0  0  0  0  0  0  0  0  0  0  0  0
    2.7527    1.5724    1.3151 C   0  0  0  0  0  0  0  0  0  0  0  0
    3.9332    1.1256   -1.1354 C   0  0  0  0  0  0  0  0  0  0  0  0
    0.3791   -2.1731    1.5490 C   0  0  0  0  0  0  0  0  0  0  0  0
    4.0033    2.1268    1.0369 C   0  0  0  0  0  0  0  0  0  0  0  0
    4.5945    1.9063   -0.1935 C   0  0  0  0  0  0  0  0  0  0  0  0
    0.2379   -3.5322    1.2896 C   0  0  0  0  0  0  0  0  0  0  0  0
   -2.7878    1.2012   -0.0639 C   0  0  0  0  0  0  0  0  0  0  0  0
    0.2365   -3.9402   -0.0281 C   0  0  0  0  0  0  0  0  0  0  0  0
   -4.0447    0.5058    0.4341 C   0  0  0  0  0  0  0  0  0  0  0  0
   -6.4471    0.5246    0.4359 C   0  0  0  0  0  0  0  0  0  0  0  0
   -5.2423    1.1640   -1.5420 C   0  0  0  0  0  0  0  0  0  0  0  0
  1  6  1  0
  2 13  1  0
  2 20  1  0
  3 13  2  0
  4 12  2  0
  4 21  1  0
  5 22  1  0
  5 23  1  0
  5 24  1  0
  6  7  1  0
  6  8  1  0
  6 13  1  0
  7 10  2  0
  7 14  1  0
  8 12  1  0
  8 16  2  0
  9 10  1  0
  9 11  1  0
 10 15  1  0
 11 12  1  0
 14 17  2  0
 15 18  2  0
 16 19  1  0
 17 18  1  0
 19 21  2  0
 20 22  1  0
M  END
>  <PUBCHEM_COMPOUND_CID>  (1) 
36690

>  <PUBCHEM_CONFORMER_RMSD>  (1) 
0.8

>  <PUBCHEM_CONFORMER_DIVERSEORDER>  (1) 
1
21
3
41
88
94
87
54
74
95
85
48
25
75
65
92
71
76
83
89
78
63
43
56
27
10
96
69
80
62
35
15
61
58
37
9
11
33
34
60
79
29
77
32
5
50
14
47
8
31
59
52
22
51
97
2
66
68
26
4
42
28
82
73
30
53
86
45
46
72
44
55
16
17
38
19
7
64
84
91
90
67
13
81
36
39
70
18
40
6
93
49
23
57
12
20
24

>  <PUBCHEM_MMFF94_PARTIAL_CHARGES>  (1) 
32
1 -0.68
10 -0.14
11 0.14
12 0.17
13 0.66
14 -0.15
15 -0.15
16 -0.15
17 -0.15
18 -0.15
19 -0.15
2 -0.43
20 0.28
21 0.16
22 0.27
23 0.27
24 0.27
29 0.15
3 -0.57
30 0.15
31 0.15
32 0.4
33 0.15
34 0.15
35 0.15
38 0.15
4 -0.62
5 -0.81
6 0.63
7 -0.14
8 -0.14
9 0.14

>  <PUBCHEM_EFFECTIVE_ROTOR_COUNT>  (1) 
5.6

>  <PUBCHEM_PHARMACOPHORE_FEATURES>  (1) 
8
1 1 acceptor
1 1 donor
1 3 acceptor
1 4 acceptor
1 5 cation
6 4 8 12 16 19 21 rings
6 7 10 14 15 17 18 rings
7 6 7 8 9 10 11 12 rings

>  <PUBCHEM_HEAVY_ATOM_COUNT>  (1) 
24

>  <PUBCHEM_ATOM_DEF_STEREO_COUNT>  (1) 
0

>  <PUBCHEM_ATOM_UDEF_STEREO_COUNT>  (1) 
1

>  <PUBCHEM_BOND_DEF_STEREO_COUNT>  (1) 
0

>  <PUBCHEM_BOND_UDEF_STEREO_COUNT>  (1) 
0

>  <PUBCHEM_ISOTOPIC_ATOM_COUNT>  (1) 
0

>  <PUBCHEM_COMPONENT_COUNT>  (1) 
1

>  <PUBCHEM_CACTVS_TAUTO_COUNT>  (1) 
1

>  <PUBCHEM_CONFORMER_ID>  (1) 
00008F5200000001

>  <PUBCHEM_MMFF94_ENERGY>  (1) 
75.0538

>  <PUBCHEM_FEATURE_SELFOVERLAP>  (1) 
40.615

>  <PUBCHEM_SHAPE_FINGERPRINT>  (1) 
10764073 3 14131269150706055310
10930396 42 18193263115417671482
11140007 195 8358257021282451165
11421498 54 17346606240313920241
11488393 25 18269009595512784267
11578080 2 16338636905149427058
12293681 4 17692236856895794719
12532896 13 18340762758073296842
12597179 24 18271530887544254054
12730499 353 18339935848452243491
12788726 201 17540262368204255362
12969540 114 18336816584903074509
13004483 165 16390151764889312090
13083527 12 18046332046700000179
13257819 37 18189637062341622750
14863182 85 18113909229971174367
14955137 171 18053089637033696042
15849732 13 17749387058120772844
16945 1 17489042469654356884
17980427 23 16878512361764007783
20197701 30 18408321103180282074
20567600 347 18335706022429602931
20645477 70 18265614291353565411
21049683 118 18054479625414420960
21054139 6 18268978942937113751
21421861 104 18053671278594800721
21452121 199 17834387921945547179
21521721 280 18200603604350090777
22149856 69 17824005380860452337
22182313 1 18196399071521490946
229495 10 16299481986341103352
22956985 138 17753038410928854802
23419403 2 17555219948426905198
23558518 356 17623265574753464761
23559900 14 17606400956632812023
2748010 2 17272028729081897060
3052486 1 18189897694053438375
3060560 45 18409165510761921700
404807 78 18045210790703220335
427121 178 18408887342946607918
4340502 62 18412547617392877013
59755656 520 18337382838033895436
6442390 28 18411699923929270869
6669772 16 18341891892470574958
6823239 73 14764046983838181087
70251023 43 17842011987338941991
7495541 125 11887660810865793589
81228 2 17904754828066839786
81539 233 18335698317331840941
9999458 23 18261949653120472290

>  <PUBCHEM_SHAPE_MULTIPOLES>  (1) 
466.34
9.16
3.56
1.74
15.89
4.91
-0.27
-9.49
-0.91
-1.25
0.55
-0.71
0.3
0.78

>  <PUBCHEM_SHAPE_SELFOVERLAP>  (1) 
1001.21

>  <PUBCHEM_SHAPE_VOLUME>  (1) 
255.3

>  <PUBCHEM_COORDINATE_TYPE>  (1) 
2
5
10

$$$$
