36691
     RDKit          3D

 27 30  0  0  1  0  0  0  0  0999 V2000
   -1.0315    0.6866    0.3117 O   0  0  0  0  0  0  0  0  0  0  0  0
    0.8562    0.6608    2.0443 O   0  0  0  0  0  0  0  0  0  0  0  0
    0.4853    2.0333   -0.7939 O   0  0  0  0  0  0  0  0  0  0  0  0
   -4.6220    1.4847   -0.3830 N   0  0  0  0  0  0  0  0  0  0  0  0
    0.8577   -3.1160   -0.9532 N   0  0  0  0  0  0  0  0  0  0  0  0
   -3.4414    0.7793    0.1668 C   0  0  0  0  0  0  0  0  0  0  0  0
   -3.4668   -0.7072   -0.2434 C   0  0  0  0  0  0  0  0  0  0  0  0
   -4.7619   -1.3908    0.1753 C   0  0  0  0  0  0  0  0  0  0  0  0
   -5.8759    0.8575    0.0710 C   0  0  0  0  0  0  0  0  0  0  0  0
   -5.9589   -0.6097   -0.3438 C   0  0  0  0  0  0  0  0  0  0  0  0
   -2.1140    1.3844   -0.3123 C   0  0  0  0  0  0  0  0  0  0  0  0
    1.2460    0.3019    0.7024 C   0  0  0  0  0  0  0  0  0  0  0  0
   -4.6411    2.9072   -0.0299 C   0  0  0  0  0  0  0  0  0  0  0  0
    2.6703    0.7502    0.3603 C   0  0  0  0  0  0  0  0  0  0  0  0
    1.0226   -1.1915    0.5250 C   0  0  0  0  0  0  0  0  0  0  0  0
    0.2165    1.1209   -0.0242 C   0  0  0  0  0  0  0  0  0  0  0  0
    3.3243    0.4222   -0.8536 C   0  0  0  0  0  0  0  0  0  0  0  0
    2.8084   -0.4800   -1.9607 C   0  0  0  0  0  0  0  0  0  0  0  0
    1.3657   -0.9708   -1.9627 C   0  0  0  0  0  0  0  0  0  0  0  0
    1.0503   -1.7875   -0.7422 C   0  0  0  0  0  0  0  0  0  0  0  0
    3.3768    1.5553    1.2869 C   0  0  0  0  0  0  0  0  0  0  0  0
    0.8042   -2.0493    1.6138 C   0  0  0  0  0  0  0  0  0  0  0  0
    4.6322    0.9164   -1.0826 C   0  0  0  0  0  0  0  0  0  0  0  0
    4.6649    2.0308    1.0349 C   0  0  0  0  0  0  0  0  0  0  0  0
    5.2939    1.7139   -0.1551 C   0  0  0  0  0  0  0  0  0  0  0  0
    0.6033   -3.4119    1.4205 C   0  0  0  0  0  0  0  0  0  0  0  0
    0.6350   -3.8909    0.1274 C   0  0  0  0  0  0  0  0  0  0  0  0
  1 11  1  0
  1 16  1  0
  2 12  1  0
  3 16  2  0
  4  6  1  0
  4  9  1  0
  4 13  1  0
  5 20  2  0
  5 27  1  0
  6  7  1  0
  6 11  1  0
  7  8  1  0
  8 10  1  0
  9 10  1  0
 12 14  1  0
 12 15  1  0
 12 16  1  0
 14 17  2  0
 14 21  1  0
 15 20  1  0
 15 22  2  0
 17 18  1  0
 17 23  1  0
 18 19  1  0
 19 20  1  0
 21 24  2  0
 22 26  1  0
 23 25  2  0
 24 25  1  0
 26 27  2  0
M  END
>  <PUBCHEM_COMPOUND_CID>  (1) 
36691

>  <PUBCHEM_CONFORMER_RMSD>  (1) 
1

>  <PUBCHEM_CONFORMER_DIVERSEORDER>  (1) 
4
150
51
255
103
100
441
265
286
35
479
16
507
429
2
179
351
14
494
492
384
193
213
142
21
154
231
329
521
11
186
24
117
99
455
382
38
136
452
23
197
20
135
158
109
74
212
297
380
32
423
270
114
511
108
376
141
49
7
295
183
25
219
59
22
311
153
246
184
173
17
171
83
30
65
143
373
148
37
450
1
451
335
93
535
41
3
102
181
505
484
5
118
43
272
454
392
8
40
123
251
223
368
80
170
331
337
6
443
442
412
402
147
76
27
327
12
92
217
325
84
185
333
363
122
138
29
280
55
500
352
225
88
44
227
10
131
348
453
56
152
149
172
242
52
474
506
15
279
107
91
267
45
206
85
18
290
220
388
105
415
413
440
221
515
34
13

>  <PUBCHEM_MMFF94_PARTIAL_CHARGES>  (1) 
32
1 -0.43
11 0.28
12 0.63
13 0.27
14 -0.14
15 -0.14
16 0.66
17 -0.14
18 0.14
19 0.14
2 -0.68
20 0.17
21 -0.15
22 -0.15
23 -0.15
24 -0.15
25 -0.15
26 -0.15
27 0.16
3 -0.57
4 -0.81
46 0.15
47 0.15
48 0.15
49 0.4
5 -0.62
50 0.15
51 0.15
52 0.15
53 0.15
6 0.27
9 0.27

>  <PUBCHEM_EFFECTIVE_ROTOR_COUNT>  (1) 
5.8

>  <PUBCHEM_PHARMACOPHORE_FEATURES>  (1) 
9
1 2 acceptor
1 2 donor
1 3 acceptor
1 4 cation
1 5 acceptor
6 14 17 21 23 24 25 rings
6 4 6 7 8 9 10 rings
6 5 15 20 22 26 27 rings
7 12 14 15 17 18 19 20 rings

>  <PUBCHEM_HEAVY_ATOM_COUNT>  (1) 
27

>  <PUBCHEM_ATOM_DEF_STEREO_COUNT>  (1) 
0

>  <PUBCHEM_ATOM_UDEF_STEREO_COUNT>  (1) 
2

>  <PUBCHEM_BOND_DEF_STEREO_COUNT>  (1) 
0

>  <PUBCHEM_BOND_UDEF_STEREO_COUNT>  (1) 
0

>  <PUBCHEM_ISOTOPIC_ATOM_COUNT>  (1) 
0

>  <PUBCHEM_COMPONENT_COUNT>  (1) 
1

>  <PUBCHEM_CACTVS_TAUTO_COUNT>  (1) 
1

>  <PUBCHEM_CONFORMER_ID>  (1) 
00008F5300000004

>  <PUBCHEM_MMFF94_ENERGY>  (1) 
71.8967

>  <PUBCHEM_FEATURE_SELFOVERLAP>  (1) 
45.691

>  <PUBCHEM_SHAPE_FINGERPRINT>  (1) 
10366900 7 18201988959426628785
10675989 125 17830726566075218429
10764073 3 13481063071544271902
10906281 52 17894925022490416889
11421498 54 16343434937786222123
11488393 25 17986971668922521102
12166972 35 8286197258539376615
12293681 4 17690830581323499990
12617007 42 10159692508586152694
12730499 353 18339933636232817153
12788726 201 17320439199149768514
13257819 37 18262816158598610766
14790565 3 18335705000074996829
14863182 85 18113624460369698631
15788980 27 12829207784843441745
17349148 13 16298390128092094717
173720 79 18115016515653260554
17980427 23 17168150086612958701
18681886 176 18262796405448625249
20197701 30 18411978091923640346
20567600 347 18333733507006521506
21054139 6 18337103575081633511
21120745 212 16899344439357044086
21344244 181 18059591203796925198
21421861 104 18046910376999854409
21521721 280 18129669723748160488
21796203 349 17328336565965268467
22149856 69 17896625924725142593
22182313 1 18194428746932618266
22393880 68 18340774728220900303
22956985 138 17752752546806868962
23558518 356 17694478739508232096
23559900 14 17911514299369260543
239999 70 18131352981587196757
3052486 1 18115873086260866675
345986 75 12750415587358352452
427121 178 18408321094811880606
4340502 62 18342454855097628620
484989 97 18270135586099152358
5104073 3 18263929835355843249
57359948 33 17677319512849187045
59755656 215 18202005451388882453
59755656 520 18335132146475039078
6442390 28 18411134766378535670
6669772 16 18343017805431234926
9971528 1 8430313532672128753

>  <PUBCHEM_SHAPE_MULTIPOLES>  (1) 
528.08
11.38
3.57
1.5
13.04
3.16
-0.06
-8.04
-0.99
-0.22
0.66
-1.59
0.45
0.58

>  <PUBCHEM_SHAPE_SELFOVERLAP>  (1) 
1140.144

>  <PUBCHEM_SHAPE_VOLUME>  (1) 
285.7

>  <PUBCHEM_COORDINATE_TYPE>  (1) 
2
5
10

$$$$
