36693
     RDKit          3D

 22 24  0  0  0  0  0  0  0  0999 V2000
    1.6175    0.3463   -0.0950 O   0  0  0  0  0  0  0  0  0  0  0  0
   -0.8099   -3.3007    0.4892 N   0  0  0  0  0  0  0  0  0  0  0  0
    0.4787    1.1569   -0.0456 N   0  0  0  0  0  0  0  0  0  0  0  0
    5.1996    1.1583    0.0192 N   0  0  0  0  0  0  0  0  0  0  0  0
   -3.1287   -0.8921    1.2018 C   0  0  0  0  0  0  0  0  0  0  0  0
   -1.8195   -1.4628    1.7309 C   0  0  0  0  0  0  0  0  0  0  0  0
   -3.0655    0.4221    0.4546 C   0  0  0  0  0  0  0  0  0  0  0  0
   -1.9239    1.0029   -0.1283 C   0  0  0  0  0  0  0  0  0  0  0  0
   -0.9697   -1.9588    0.6002 C   0  0  0  0  0  0  0  0  0  0  0  0
   -0.3953   -1.0648   -0.2927 C   0  0  0  0  0  0  0  0  0  0  0  0
   -0.5651    0.3917   -0.1372 C   0  0  0  0  0  0  0  0  0  0  0  0
   -4.2937    1.1095    0.3356 C   0  0  0  0  0  0  0  0  0  0  0  0
   -2.0308    2.2502   -0.7759 C   0  0  0  0  0  0  0  0  0  0  0  0
    0.3954   -1.5583   -1.3306 C   0  0  0  0  0  0  0  0  0  0  0  0
   -4.3883    2.3403   -0.3123 C   0  0  0  0  0  0  0  0  0  0  0  0
   -3.2533    2.9134   -0.8652 C   0  0  0  0  0  0  0  0  0  0  0  0
    4.0152    0.3449   -0.0443 C   0  0  0  0  0  0  0  0  0  0  0  0
    0.5730   -2.9296   -1.4585 C   0  0  0  0  0  0  0  0  0  0  0  0
    2.7552    1.1897    0.0057 C   0  0  0  0  0  0  0  0  0  0  0  0
   -0.0462   -3.7506   -0.5323 C   0  0  0  0  0  0  0  0  0  0  0  0
    6.4175    0.3386   -0.0756 C   0  0  0  0  0  0  0  0  0  0  0  0
    5.2377    1.9530    1.2564 C   0  0  0  0  0  0  0  0  0  0  0  0
  1  3  1  0
  1 19  1  0
  2  9  2  0
  2 20  1  0
  3 11  2  0
  4 17  1  0
  4 21  1  0
  4 22  1  0
  5  6  1  0
  5  7  1  0
  6  9  1  0
  7  8  2  0
  7 12  1  0
  8 11  1  0
  8 13  1  0
  9 10  1  0
 10 11  1  0
 10 14  2  0
 12 15  2  0
 13 16  2  0
 14 18  1  0
 15 16  1  0
 17 19  1  0
 18 20  2  0
M  END
>  <PUBCHEM_COMPOUND_CID>  (1) 
36693

>  <PUBCHEM_CONFORMER_RMSD>  (1) 
0.8

>  <PUBCHEM_CONFORMER_DIVERSEORDER>  (1) 
1
8
12
3
7
13
19
2
11
15
9
14
6
5
4
10
18
16
17

>  <PUBCHEM_MMFF94_PARTIAL_CHARGES>  (1) 
29
1 -0.22
10 0.09
11 0.28
12 -0.15
13 -0.15
14 -0.15
15 -0.15
16 -0.15
17 0.27
18 -0.15
19 0.28
2 -0.62
20 0.16
21 0.27
22 0.27
27 0.15
28 0.15
29 0.15
3 -0.51
30 0.15
31 0.15
36 0.15
37 0.15
4 -0.81
5 0.14
6 0.14
7 -0.14
8 0.09
9 0.17

>  <PUBCHEM_EFFECTIVE_ROTOR_COUNT>  (1) 
4.4

>  <PUBCHEM_PHARMACOPHORE_FEATURES>  (1) 
6
1 2 acceptor
1 3 acceptor
1 4 cation
6 2 9 10 14 18 20 rings
6 7 8 12 13 15 16 rings
7 5 6 7 8 9 10 11 rings

>  <PUBCHEM_HEAVY_ATOM_COUNT>  (1) 
22

>  <PUBCHEM_ATOM_DEF_STEREO_COUNT>  (1) 
0

>  <PUBCHEM_ATOM_UDEF_STEREO_COUNT>  (1) 
0

>  <PUBCHEM_BOND_DEF_STEREO_COUNT>  (1) 
0

>  <PUBCHEM_BOND_UDEF_STEREO_COUNT>  (1) 
1

>  <PUBCHEM_ISOTOPIC_ATOM_COUNT>  (1) 
0

>  <PUBCHEM_COMPONENT_COUNT>  (1) 
1

>  <PUBCHEM_CACTVS_TAUTO_COUNT>  (1) 
1

>  <PUBCHEM_CONFORMER_ID>  (1) 
00008F5500000001

>  <PUBCHEM_MMFF94_ENERGY>  (1) 
78.3356

>  <PUBCHEM_FEATURE_SELFOVERLAP>  (1) 
30.464

>  <PUBCHEM_SHAPE_FINGERPRINT>  (1) 
10411042 1 17688594178914836123
107951 10 18041002821557503746
11524674 6 18202278087892655814
12788726 201 18122320622499074706
13004483 165 17621029193650851902
13540713 4 17899708860597434921
15042514 8 18191873546344608907
15230672 131 18335424518501652630
17980427 23 17749117707341029837
17980427 26 16698404505528399855
18915476 22 17987246533970423671
20554085 129 18056453124232681713
20645477 56 18271527602216155768
21033648 29 18272639169643559240
22182313 1 18267047014443419183
22224240 67 18341897398761027961
23402539 116 18267021842252046351
23559900 14 17972340428925918862
23598288 3 18116721913874738620
23728640 28 18338513165888833978
2748010 2 18118716295119365755
3298306 158 18341335492278846790
4371632 12 15623944353122945320
474229 33 18409166623696287733
5265222 85 18265066893877461708
532947 4 18198629835107639166
5385378 56 18269001877424248785
559249 180 18334289856438740474
6138700 20 18051978013851463366
7364860 26 17978509737524881055
81228 2 17765694103396726019
9862522 239 18409726283208914054
9981440 41 18335704910212174867

>  <PUBCHEM_SHAPE_MULTIPOLES>  (1) 
431.94
9.93
3.95
1.2
16.94
2.98
-0.14
-9.95
-1.79
-1.73
0.88
-0.26
0.47
1.91

>  <PUBCHEM_SHAPE_SELFOVERLAP>  (1) 
924.051

>  <PUBCHEM_SHAPE_VOLUME>  (1) 
238.8

>  <PUBCHEM_COORDINATE_TYPE>  (1) 
2
5
10

$$$$
