36698
     RDKit          3D

 16 18  0  0  1  0  0  0  0  0999 V2000
    0.0091   -1.5279   -1.9705 N   0  0  0  0  0  0  0  0  0  0  0  0
   -2.8672    1.2127    0.0286 N   0  0  0  0  0  0  0  0  0  0  0  0
    0.0182   -1.2326   -0.5296 C   0  0  0  0  0  0  0  0  0  0  0  0
    1.3025   -0.5328   -0.0943 C   0  0  0  0  0  0  0  0  0  0  0  0
    0.4719    1.9424   -0.2159 C   0  0  0  0  0  0  0  0  0  0  0  0
    1.5042    0.8588    0.0119 C   0  0  0  0  0  0  0  0  0  0  0  0
   -0.7460    1.6198   -1.0696 C   0  0  0  0  0  0  0  0  0  0  0  0
   -1.2927   -0.6278   -0.0727 C   0  0  0  0  0  0  0  0  0  0  0  0
   -1.6751    0.6840   -0.3551 C   0  0  0  0  0  0  0  0  0  0  0  0
    2.3983   -1.3891    0.1821 C   0  0  0  0  0  0  0  0  0  0  0  0
    2.7728    1.3295    0.4281 C   0  0  0  0  0  0  0  0  0  0  0  0
   -2.2136   -1.4173    0.6337 C   0  0  0  0  0  0  0  0  0  0  0  0
    3.6423   -0.9005    0.5767 C   0  0  0  0  0  0  0  0  0  0  0  0
    3.8293    0.4648    0.7041 C   0  0  0  0  0  0  0  0  0  0  0  0
   -3.4386   -0.8977    1.0342 C   0  0  0  0  0  0  0  0  0  0  0  0
   -3.7155    0.4137    0.7083 C   0  0  0  0  0  0  0  0  0  0  0  0
  1  3  1  0
  2  9  2  0
  2 16  1  0
  3  4  1  0
  3  8  1  0
  4  6  2  0
  4 10  1  0
  5  6  1  0
  5  7  1  0
  6 11  1  0
  7  9  1  0
  8  9  1  0
  8 12  2  0
 10 13  2  0
 11 14  2  0
 12 15  1  0
 13 14  1  0
 15 16  2  0
M  END
>  <PUBCHEM_COMPOUND_CID>  (1) 
36698

>  <PUBCHEM_CONFORMER_RMSD>  (1) 
0.4

>  <PUBCHEM_CONFORMER_DIVERSEORDER>  (1) 
1
3
2

>  <PUBCHEM_MMFF94_PARTIAL_CHARGES>  (1) 
25
1 -0.99
10 -0.15
11 -0.15
12 -0.15
13 -0.15
14 -0.15
15 -0.15
16 0.16
2 -0.62
22 0.15
23 0.15
24 0.15
25 0.36
26 0.36
27 0.15
28 0.15
29 0.15
3 0.56
30 0.15
4 -0.14
5 0.14
6 -0.14
7 0.14
8 -0.14
9 0.17

>  <PUBCHEM_EFFECTIVE_ROTOR_COUNT>  (1) 
0.6

>  <PUBCHEM_PHARMACOPHORE_FEATURES>  (1) 
6
1 1 cation
1 1 donor
1 2 acceptor
6 2 8 9 12 15 16 rings
6 4 6 10 11 13 14 rings
7 3 4 5 6 7 8 9 rings

>  <PUBCHEM_HEAVY_ATOM_COUNT>  (1) 
16

>  <PUBCHEM_ATOM_DEF_STEREO_COUNT>  (1) 
0

>  <PUBCHEM_ATOM_UDEF_STEREO_COUNT>  (1) 
1

>  <PUBCHEM_BOND_DEF_STEREO_COUNT>  (1) 
0

>  <PUBCHEM_BOND_UDEF_STEREO_COUNT>  (1) 
0

>  <PUBCHEM_ISOTOPIC_ATOM_COUNT>  (1) 
0

>  <PUBCHEM_COMPONENT_COUNT>  (1) 
1

>  <PUBCHEM_CACTVS_TAUTO_COUNT>  (1) 
1

>  <PUBCHEM_CONFORMER_ID>  (1) 
00008F5A00000001

>  <PUBCHEM_MMFF94_ENERGY>  (1) 
49.9942

>  <PUBCHEM_FEATURE_SELFOVERLAP>  (1) 
30.462

>  <PUBCHEM_SHAPE_FINGERPRINT>  (1) 
10608611 8 18409162186457234584
1100329 8 15166023340388728595
11132069 177 18409445886300493865
11471102 22 18336273417536772362
12011746 2 18408603639087560261
12119455 92 18131344181346854607
12251169 10 18410296938534007659
12382932 28 18411703170814036809
124424 183 18113614569413190427
12696612 119 18336271239946258989
13172582 1 18343301483055748686
13214271 11 18335412500106303236
14115302 16 16226342503063248483
15219456 202 18410573946502020250
15309172 13 18060698381587356902
15375462 478 18339927125088899779
15653759 3 18113618967100947136
15775835 57 18059294365436645002
16945 1 18265053711457148645
17804303 29 18336834108411313612
17844478 74 18259981561460685252
18175812 5 18410012117593092087
18186145 218 16415489250389689318
19049666 15 18047467820741963182
19862831 5 8430326735417453610
200 152 18201707497234463335
20361792 2 14706926267494669415
21501502 16 18262527021120662177
21501925 9 18261114122977725179
23184049 59 18272089387710908106
23382010 3 10087634862750089473
23388829 49 17836079344617750647
23402539 116 18410284831638651503
23419403 2 12350332701247224780
23463225 33 18334577970617524804
23559900 14 18043247947134415698
2748010 2 18267575819670367172
5262128 65 11603364392686195664
598444 67 18116147770888546415
6786 2 11798254799999182750
84936 31 16557915485331193534
8809292 202 18187647951433915218
90316 7 17822571607936856677

>  <PUBCHEM_SHAPE_MULTIPOLES>  (1) 
319.31
6.23
1.92
1.09
0.4
0.32
-0.37
-0.45
2.77
0.08
-0.26
-0.21
-0.27
0.36

>  <PUBCHEM_SHAPE_SELFOVERLAP>  (1) 
698.74

>  <PUBCHEM_SHAPE_VOLUME>  (1) 
170

>  <PUBCHEM_COORDINATE_TYPE>  (1) 
2
5
10

$$$$
