36699
     RDKit          3D

 19 21  0  0  1  0  0  0  0  0999 V2000
    0.6694   -2.2775    1.0218 O   0  0  0  0  0  0  0  0  0  0  0  0
   -2.5476    1.7569    0.7855 N   0  0  0  0  0  0  0  0  0  0  0  0
   -1.3613   -2.5920   -0.0719 N   0  0  0  0  0  0  0  0  0  0  0  0
   -0.0053   -0.6985   -0.6408 C   0  0  0  0  0  0  0  0  0  0  0  0
    1.3657   -0.0692   -0.4385 C   0  0  0  0  0  0  0  0  0  0  0  0
    0.7682    1.4661    1.5936 C   0  0  0  0  0  0  0  0  0  0  0  0
   -1.1844    0.2391   -0.5232 C   0  0  0  0  0  0  0  0  0  0  0  0
    1.7051    0.8597    0.5682 C   0  0  0  0  0  0  0  0  0  0  0  0
   -0.5807    0.8049    1.8503 C   0  0  0  0  0  0  0  0  0  0  0  0
   -1.4829    0.9242    0.6559 C   0  0  0  0  0  0  0  0  0  0  0  0
   -0.1784   -1.9282    0.2047 C   0  0  0  0  0  0  0  0  0  0  0  0
    2.3828   -0.5052   -1.3213 C   0  0  0  0  0  0  0  0  0  0  0  0
    3.0355    1.3371    0.6259 C   0  0  0  0  0  0  0  0  0  0  0  0
   -2.0457    0.4343   -1.6108 C   0  0  0  0  0  0  0  0  0  0  0  0
    3.6892   -0.0273   -1.2368 C   0  0  0  0  0  0  0  0  0  0  0  0
    4.0163    0.8996   -0.2615 C   0  0  0  0  0  0  0  0  0  0  0  0
   -3.1428    1.2801   -1.5003 C   0  0  0  0  0  0  0  0  0  0  0  0
   -3.3488    1.9115   -0.2897 C   0  0  0  0  0  0  0  0  0  0  0  0
   -1.7542   -3.8156    0.5888 C   0  0  0  0  0  0  0  0  0  0  0  0
  1 11  2  0
  2 10  2  0
  2 18  1  0
  3 11  1  0
  3 19  1  0
  4  5  1  0
  4  7  1  0
  4 11  1  0
  5  8  2  0
  5 12  1  0
  6  8  1  0
  6  9  1  0
  7 10  1  0
  7 14  2  0
  8 13  1  0
  9 10  1  0
 12 15  2  0
 13 16  2  0
 14 17  1  0
 15 16  1  0
 17 18  2  0
M  END
>  <PUBCHEM_COMPOUND_CID>  (1) 
36699

>  <PUBCHEM_CONFORMER_RMSD>  (1) 
0.6

>  <PUBCHEM_CONFORMER_DIVERSEORDER>  (1) 
1
11
15
12
5
14
6
8
4
10
3
13
9
2
7

>  <PUBCHEM_MMFF94_PARTIAL_CHARGES>  (1) 
27
1 -0.57
10 0.17
11 0.57
12 -0.15
13 -0.15
14 -0.15
15 -0.15
16 -0.15
17 -0.15
18 0.16
19 0.3
2 -0.62
25 0.15
26 0.15
27 0.15
28 0.15
29 0.15
3 -0.73
30 0.15
31 0.37
32 0.15
4 0.35
5 -0.14
6 0.14
7 -0.14
8 -0.14
9 0.14

>  <PUBCHEM_EFFECTIVE_ROTOR_COUNT>  (1) 
2.6

>  <PUBCHEM_PHARMACOPHORE_FEATURES>  (1) 
6
1 1 acceptor
1 2 acceptor
1 3 donor
6 2 7 10 14 17 18 rings
6 5 8 12 13 15 16 rings
7 4 5 6 7 8 9 10 rings

>  <PUBCHEM_HEAVY_ATOM_COUNT>  (1) 
19

>  <PUBCHEM_ATOM_DEF_STEREO_COUNT>  (1) 
0

>  <PUBCHEM_ATOM_UDEF_STEREO_COUNT>  (1) 
1

>  <PUBCHEM_BOND_DEF_STEREO_COUNT>  (1) 
0

>  <PUBCHEM_BOND_UDEF_STEREO_COUNT>  (1) 
0

>  <PUBCHEM_ISOTOPIC_ATOM_COUNT>  (1) 
0

>  <PUBCHEM_COMPONENT_COUNT>  (1) 
1

>  <PUBCHEM_CACTVS_TAUTO_COUNT>  (1) 
2

>  <PUBCHEM_CONFORMER_ID>  (1) 
00008F5B00000001

>  <PUBCHEM_MMFF94_ENERGY>  (1) 
55.0248

>  <PUBCHEM_FEATURE_SELFOVERLAP>  (1) 
30.464

>  <PUBCHEM_SHAPE_FINGERPRINT>  (1) 
10764073 3 17196907740634712427
10863032 1 18187645769247500882
12138202 97 18411419544269460494
121448 382 18340473530754327103
12251169 10 13190344543333540092
12716301 132 18194381493443478010
12730499 353 18191875514035826633
13544592 271 17630590418444377392
13583140 156 17676208004739988440
13681431 1 17179953043432016507
14787075 74 18202284745055008425
14817 1 11124142601817627867
15309172 13 18186804638647209245
16945 1 17489291019000709505
17357779 13 17981877859405574791
18186145 218 18341895138964703964
18534176 82 18341326811738387244
19049666 15 18272369823611585706
19765921 60 18199464377027566957
19862831 5 17845928516197176877
20361792 2 10087628308503616133
20510252 161 18120371227137401538
20600515 1 17473850775049618954
21330990 113 18266478653211013275
21452121 99 18192407840186105771
22112679 90 17198818532576185713
22182313 1 17700980092298471776
22802520 49 17986947655633294176
22907989 373 18194695983986825972
23382010 3 18343290470633280621
23419403 2 17628635555188630723
23493267 7 18412259575769951560
23526113 38 17988354974935109840
23557571 272 17975410540484496356
23559900 14 18343023277604074780
25 1 18200033936735320372
2748010 2 17628624555899114072
4340502 62 18267324053441372497
576247 118 17617091855607444127
5845 1 11836350137406946019
633830 44 18129103329400038893
6442390 28 18409176485104671155
81228 2 18044948019206069651
9981440 41 17415530342181967840

>  <PUBCHEM_SHAPE_MULTIPOLES>  (1) 
375.18
5.48
2.94
1.58
2.96
3.62
-0.04
-2.83
2.03
-2.6
-1
-0.18
-0.41
0.81

>  <PUBCHEM_SHAPE_SELFOVERLAP>  (1) 
817.237

>  <PUBCHEM_SHAPE_VOLUME>  (1) 
201.6

>  <PUBCHEM_COORDINATE_TYPE>  (1) 
2
5
10

$$$$
