36704
     RDKit          3D

 12 11  0  0  0  0  0  0  0  0999 V2000
    0.3475    0.0718    0.6630 P   0  0  0  0  0  0  0  0  0  0  0  0
   -0.2179   -1.4420    0.5687 O   0  0  0  0  0  0  0  0  0  0  0  0
    1.8467   -0.0381    0.0624 O   0  0  0  0  0  0  0  0  0  0  0  0
    0.2730    0.6534    2.0457 O   0  0  0  0  0  0  0  0  0  0  0  0
   -2.6968    1.8408   -1.2028 O   0  0  0  0  0  0  0  0  0  0  0  0
   -2.5889    0.6109    0.7039 O   0  0  0  0  0  0  0  0  0  0  0  0
   -0.5716    0.9938   -0.5548 C   0  0  0  0  0  0  0  0  0  0  0  0
   -0.1248   -2.1796   -0.6370 C   0  0  0  0  0  0  0  0  0  0  0  0
    2.5718    1.1504   -0.1995 C   0  0  0  0  0  0  0  0  0  0  0  0
   -2.0411    1.1031   -0.2739 C   0  0  0  0  0  0  0  0  0  0  0  0
   -0.7314   -3.5503   -0.4246 C   0  0  0  0  0  0  0  0  0  0  0  0
    3.9335    0.7858   -0.7512 C   0  0  0  0  0  0  0  0  0  0  0  0
  1  2  1  0
  1  3  1  0
  1  4  2  0
  1  7  1  0
  2  8  1  0
  3  9  1  0
  5 10  1  0
  6 10  2  0
  7 10  1  0
  8 11  1  0
  9 12  1  0
M  END
>  <PUBCHEM_COMPOUND_CID>  (1) 
36704

>  <PUBCHEM_CONFORMER_RMSD>  (1) 
0.6

>  <PUBCHEM_CONFORMER_DIVERSEORDER>  (1) 
1
88
15
66
65
12
23
98
74
21
69
83
84
99
28
90
78
19
39
67
95
27
34
77
4
3
71
72
80
50
46
79
81
76
93
89
6
13
48
97
60
87
9
86
41
49
47
68
5
75
8
58
52
26
14
62
10
55
37
36
25
51
32
30
18
73
64
53
92
33
45
31
85
59
54
43
35
42
63
22
57
44
94
82
56
16
24
61
40
70
11
91
2
20
7
38
29
96
17

>  <PUBCHEM_MMFF94_PARTIAL_CHARGES>  (1) 
11
1 1.24
10 0.66
2 -0.55
25 0.5
3 -0.55
4 -0.7
5 -0.65
6 -0.57
7 0.06
8 0.28
9 0.28

>  <PUBCHEM_EFFECTIVE_ROTOR_COUNT>  (1) 
6

>  <PUBCHEM_PHARMACOPHORE_FEATURES>  (1) 
4
1 4 acceptor
1 5 acceptor
1 6 acceptor
3 5 6 10 anion

>  <PUBCHEM_HEAVY_ATOM_COUNT>  (1) 
12

>  <PUBCHEM_ATOM_DEF_STEREO_COUNT>  (1) 
0

>  <PUBCHEM_ATOM_UDEF_STEREO_COUNT>  (1) 
0

>  <PUBCHEM_BOND_DEF_STEREO_COUNT>  (1) 
0

>  <PUBCHEM_BOND_UDEF_STEREO_COUNT>  (1) 
0

>  <PUBCHEM_ISOTOPIC_ATOM_COUNT>  (1) 
0

>  <PUBCHEM_COMPONENT_COUNT>  (1) 
1

>  <PUBCHEM_CACTVS_TAUTO_COUNT>  (1) 
1

>  <PUBCHEM_CONFORMER_ID>  (1) 
00008F6000000001

>  <PUBCHEM_MMFF94_ENERGY>  (1) 
3.17

>  <PUBCHEM_FEATURE_SELFOVERLAP>  (1) 
20.356

>  <PUBCHEM_SHAPE_FINGERPRINT>  (1) 
1 1 18266173920569377334
12138202 97 18411987987602117718
14648413 74 17613715921145004757
14817 1 11976861251089477899
15502708 8 18194403513988613662
18186145 218 18202565055774107856
201361 129 17842013099761995113
20645477 56 18338524152816233580
20711985 344 18122613127009531482
20871998 184 18191603027618057783
21524375 3 18114455682691746972
21930827 45 18127958892371590192
23211744 41 17749678367886925617
23418878 81 18194109720813699687
23419403 2 12740638811357582290
23552423 10 17766838334318998477
3250762 1 17698433674164254384
58734987 148 18335707182065296718
58734987 41 18266469719346377030
6333449 129 18339082708601067916
68419 9 17681235001781821842
76951 1 17344320312199373322
81228 2 17977942715457342042

>  <PUBCHEM_SHAPE_MULTIPOLES>  (1) 
221.46
4.29
2.98
1.2
4.56
3.44
-0.45
-2.28
1.38
-2.73
0.91
-0.13
-0.37
0.2

>  <PUBCHEM_SHAPE_SELFOVERLAP>  (1) 
396.85

>  <PUBCHEM_SHAPE_VOLUME>  (1) 
143

>  <PUBCHEM_COORDINATE_TYPE>  (1) 
2
5
10

$$$$
