36707
     RDKit          3D

 32 35  0  0  1  0  0  0  0  0999 V2000
    3.0281    0.5907    1.8414 S   0  0  0  0  0  0  0  0  0  0  0  0
   -6.5290   -0.0601   -0.0959 O   0  0  0  0  0  0  0  0  0  0  0  0
    4.1231   -4.6215   -0.7878 O   0  0  0  0  0  0  0  0  0  0  0  0
   -8.0925    1.2702    0.9573 O   0  0  0  0  0  0  0  0  0  0  0  0
    1.0474    0.4127   -0.6092 N   0  0  0  0  0  0  0  0  0  0  0  0
   -1.8069    0.8691   -0.6686 N   0  0  0  0  0  0  0  0  0  0  0  0
    2.2972   -0.0897   -1.1764 C   0  0  0  0  0  0  0  0  0  0  0  0
    0.4576    1.4407   -1.4756 C   0  0  0  0  0  0  0  0  0  0  0  0
    0.0952   -0.6835   -0.3926 C   0  0  0  0  0  0  0  0  0  0  0  0
   -0.8552    1.9658   -0.8844 C   0  0  0  0  0  0  0  0  0  0  0  0
   -1.2170   -0.1575    0.1993 C   0  0  0  0  0  0  0  0  0  0  0  0
    3.2722    1.0404   -1.5455 C   0  0  0  0  0  0  0  0  0  0  0  0
    2.9680   -1.1572   -0.3367 C   0  0  0  0  0  0  0  0  0  0  0  0
   -3.0577    1.3708   -0.1031 C   0  0  0  0  0  0  0  0  0  0  0  0
    3.9706    1.9092   -0.5158 C   0  0  0  0  0  0  0  0  0  0  0  0
   -4.1911    0.3847   -0.3666 C   0  0  0  0  0  0  0  0  0  0  0  0
    3.3657   -0.9360    0.9923 C   0  0  0  0  0  0  0  0  0  0  0  0
    3.2368   -2.4083   -0.9221 C   0  0  0  0  0  0  0  0  0  0  0  0
    3.9472    1.7870    0.8855 C   0  0  0  0  0  0  0  0  0  0  0  0
    4.7539    2.9483   -1.0760 C   0  0  0  0  0  0  0  0  0  0  0  0
   -5.5138    0.8911    0.1927 C   0  0  0  0  0  0  0  0  0  0  0  0
    4.0024   -1.9598    1.7107 C   0  0  0  0  0  0  0  0  0  0  0  0
    3.8761   -3.4176   -0.2029 C   0  0  0  0  0  0  0  0  0  0  0  0
    4.2589   -3.1930    1.1139 C   0  0  0  0  0  0  0  0  0  0  0  0
    4.6805    2.7049    1.6690 C   0  0  0  0  0  0  0  0  0  0  0  0
    5.4778    3.8415   -0.2887 C   0  0  0  0  0  0  0  0  0  0  0  0
    5.4396    3.7196    1.0896 C   0  0  0  0  0  0  0  0  0  0  0  0
   -7.7874    0.2548    0.3468 C   0  0  0  0  0  0  0  0  0  0  0  0
    4.7786   -5.6097    0.0063 C   0  0  0  0  0  0  0  0  0  0  0  0
   -8.7427   -0.8520   -0.0372 C   0  0  0  0  0  0  0  0  0  0  0  0
  -10.1630   -0.5761    0.4500 C   0  0  0  0  0  0  0  0  0  0  0  0
  -11.1205   -1.6794    0.0304 C   0  0  0  0  0  0  0  0  0  0  0  0
  1 17  1  0
  1 19  1  0
  2 21  1  0
  2 28  1  0
  3 23  1  0
  3 29  1  0
  4 28  2  0
  5  7  1  0
  5  8  1  0
  5  9  1  0
  6 10  1  0
  6 11  1  0
  6 14  1  0
  7 12  1  0
  7 13  1  0
  8 10  1  0
  9 11  1  0
 12 15  1  0
 13 17  2  0
 13 18  1  0
 14 16  1  0
 15 19  2  0
 15 20  1  0
 16 21  1  0
 17 22  1  0
 18 23  2  0
 19 25  1  0
 20 26  2  0
 22 24  2  0
 23 24  1  0
 25 27  2  0
 26 27  1  0
 28 30  1  0
 30 31  1  0
 31 32  1  0
M  END
>  <PUBCHEM_COMPOUND_CID>  (1) 
36707

>  <PUBCHEM_CONFORMER_RMSD>  (1) 
1.2

>  <PUBCHEM_CONFORMER_DIVERSEORDER>  (1) 
1
70
58
101
54
60
89
100
82
65
14
102
31
93
73
79
48
35
86
47
84
76
67
94
13
97
23
69
99
45
43
38
50
24
62
61
75
55
51
64
63
88
33
41
95
85
53
25
91
7
71
15
87
68
17
83
78
28
22
52
26
34
96
20
36
49
59
42
74
16
81
66
9
44
77
18
21
29
90
98
56
40
46
80
39
30
32
2
6
27
37
4
10
57
19
12
92
8
5
72
3
11

>  <PUBCHEM_MMFF94_PARTIAL_CHARGES>  (1) 
36
1 -0.2
10 0.27
11 0.27
12 0.14
13 -0.14
14 0.27
15 -0.14
17 0.1
18 -0.15
19 0.1
2 -0.43
20 -0.15
21 0.28
22 -0.15
23 0.08
24 -0.15
25 -0.15
26 -0.15
27 -0.15
28 0.66
29 0.28
3 -0.36
30 0.06
4 -0.57
48 0.15
49 0.15
5 -0.81
52 0.15
53 0.15
54 0.15
55 0.15
56 0.15
6 -0.81
7 0.41
8 0.27
9 0.27

>  <PUBCHEM_EFFECTIVE_ROTOR_COUNT>  (1) 
10.8

>  <PUBCHEM_PHARMACOPHORE_FEATURES>  (1) 
9
1 3 acceptor
1 32 hydrophobe
1 4 acceptor
1 5 cation
1 6 cation
6 13 17 18 22 23 24 rings
6 15 19 20 25 26 27 rings
6 5 6 8 9 10 11 rings
7 1 7 12 13 15 17 19 rings

>  <PUBCHEM_HEAVY_ATOM_COUNT>  (1) 
32

>  <PUBCHEM_ATOM_DEF_STEREO_COUNT>  (1) 
0

>  <PUBCHEM_ATOM_UDEF_STEREO_COUNT>  (1) 
1

>  <PUBCHEM_BOND_DEF_STEREO_COUNT>  (1) 
0

>  <PUBCHEM_BOND_UDEF_STEREO_COUNT>  (1) 
0

>  <PUBCHEM_ISOTOPIC_ATOM_COUNT>  (1) 
0

>  <PUBCHEM_COMPONENT_COUNT>  (1) 
1

>  <PUBCHEM_CACTVS_TAUTO_COUNT>  (1) 
1

>  <PUBCHEM_CONFORMER_ID>  (1) 
00008F6300000001

>  <PUBCHEM_MMFF94_ENERGY>  (1) 
89.917

>  <PUBCHEM_FEATURE_SELFOVERLAP>  (1) 
45.685

>  <PUBCHEM_SHAPE_FINGERPRINT>  (1) 
10165383 225 18340206405881407860
11399939 17 17845916495042976966
12089408 11 18273216388590588889
12522641 24 18272653450388160248
12728208 25 18409450311525532107
13533116 47 18409732824607525737
13540713 4 17969487222069337812
1361 4 18335985355040903295
13782708 43 17894631419037200407
13835254 42 18335138653267058149
13955234 65 18412260619605103904
14114211 68 18337684108900709620
14118638 360 18409737261879188965
14347424 109 18340769256696367285
14400156 188 18262795143609540162
14461889 52 18188213225048994409
14565420 104 18270394022839599768
15183329 4 13407075869581424685
15347591 1 18338798897627099437
15392192 104 18335137656859882353
15419008 91 17895457178092907045
15554971 5 12396298180610736313
1577012 14 18059571426189198271
16990366 60 17972591088008672562
19841028 212 18334577924301553083
20505436 4 17845649378246983324
20578428 11 18341058488515890580
21049683 271 18264774264886657006
21130935 74 18410860941614318035
21362267 313 18342463596400665617
22899556 10 18051399967398804776
22899556 105 17909564861797959246
22899556 56 16620071209453694288
23523787 8 17901990536209121958
23559900 14 18191299382405365340
255183 451 18266466399779990286
5104073 3 18338233752771212761
58260988 587 18410014364673579080
70251023 43 18264491676764232786
9831232 110 18196092149486265023
9962374 69 18411411783016455359

>  <PUBCHEM_SHAPE_MULTIPOLES>  (1) 
634.82
25.93
5.41
1.43
113.67
6.42
0.27
3.66
5.81
-17.04
-0.03
-2.13
-0.38
0.38

>  <PUBCHEM_SHAPE_SELFOVERLAP>  (1) 
1318.696

>  <PUBCHEM_SHAPE_VOLUME>  (1) 
361.4

>  <PUBCHEM_COORDINATE_TYPE>  (1) 
2
5
10

$$$$
