36700
     RDKit          3D

 22 25  0  0  1  0  0  0  0  0999 V2000
    1.2015    0.1518    0.0445 N   0  0  0  0  0  0  0  0  0  0  0  0
    4.0847    0.3602    0.0023 N   0  0  0  0  0  0  0  0  0  0  0  0
   -1.9998   -2.9682   -0.7986 N   0  0  0  0  0  0  0  0  0  0  0  0
   -0.0833    0.0092    0.7266 C   0  0  0  0  0  0  0  0  0  0  0  0
    2.0543   -1.0178    0.2891 C   0  0  0  0  0  0  0  0  0  0  0  0
    1.8832    1.3810    0.4680 C   0  0  0  0  0  0  0  0  0  0  0  0
    3.4030   -0.8683   -0.4232 C   0  0  0  0  0  0  0  0  0  0  0  0
    3.2325    1.5301   -0.2432 C   0  0  0  0  0  0  0  0  0  0  0  0
   -0.9828    1.2094    0.4871 C   0  0  0  0  0  0  0  0  0  0  0  0
   -0.7054   -1.3515    0.4530 C   0  0  0  0  0  0  0  0  0  0  0  0
   -1.5269    1.4923   -0.7781 C   0  0  0  0  0  0  0  0  0  0  0  0
   -1.3014    0.5574   -1.9349 C   0  0  0  0  0  0  0  0  0  0  0  0
   -1.5169   -1.7012   -0.6350 C   0  0  0  0  0  0  0  0  0  0  0  0
   -2.0138   -0.7702   -1.7115 C   0  0  0  0  0  0  0  0  0  0  0  0
   -1.2491    2.0908    1.5510 C   0  0  0  0  0  0  0  0  0  0  0  0
   -0.3846   -2.3837    1.3602 C   0  0  0  0  0  0  0  0  0  0  0  0
    5.3705    0.5028   -0.6780 C   0  0  0  0  0  0  0  0  0  0  0  0
   -2.3194    2.6384   -0.9544 C   0  0  0  0  0  0  0  0  0  0  0  0
   -2.0388    3.2253    1.3646 C   0  0  0  0  0  0  0  0  0  0  0  0
   -2.5728    3.4999    0.1111 C   0  0  0  0  0  0  0  0  0  0  0  0
   -0.8667   -3.6744    1.1952 C   0  0  0  0  0  0  0  0  0  0  0  0
   -1.6681   -3.9131    0.1042 C   0  0  0  0  0  0  0  0  0  0  0  0
  1  4  1  0
  1  5  1  0
  1  6  1  0
  2  7  1  0
  2  8  1  0
  2 17  1  0
  3 13  2  0
  3 22  1  0
  4  9  1  0
  4 10  1  0
  5  7  1  0
  6  8  1  0
  9 11  2  0
  9 15  1  0
 10 13  1  0
 10 16  2  0
 11 12  1  0
 11 18  1  0
 12 14  1  0
 13 14  1  0
 15 19  2  0
 16 21  1  0
 18 20  2  0
 19 20  1  0
 21 22  2  0
M  END
>  <PUBCHEM_COMPOUND_CID>  (1) 
36700

>  <PUBCHEM_CONFORMER_RMSD>  (1) 
0.6

>  <PUBCHEM_CONFORMER_DIVERSEORDER>  (1) 
1
2
4
3

>  <PUBCHEM_MMFF94_PARTIAL_CHARGES>  (1) 
29
1 -0.81
10 -0.14
11 -0.14
12 0.14
13 0.17
14 0.14
15 -0.15
16 -0.15
17 0.27
18 -0.15
19 -0.15
2 -0.81
20 -0.15
21 -0.15
22 0.16
3 -0.62
36 0.15
37 0.15
4 0.56
41 0.15
42 0.15
43 0.15
44 0.15
45 0.15
5 0.27
6 0.27
7 0.27
8 0.27
9 -0.14

>  <PUBCHEM_EFFECTIVE_ROTOR_COUNT>  (1) 
2.8

>  <PUBCHEM_PHARMACOPHORE_FEATURES>  (1) 
7
1 1 cation
1 2 cation
1 3 acceptor
6 1 2 5 6 7 8 rings
6 3 10 13 16 21 22 rings
6 9 11 15 18 19 20 rings
7 4 9 10 11 12 13 14 rings

>  <PUBCHEM_HEAVY_ATOM_COUNT>  (1) 
22

>  <PUBCHEM_ATOM_DEF_STEREO_COUNT>  (1) 
0

>  <PUBCHEM_ATOM_UDEF_STEREO_COUNT>  (1) 
1

>  <PUBCHEM_BOND_DEF_STEREO_COUNT>  (1) 
0

>  <PUBCHEM_BOND_UDEF_STEREO_COUNT>  (1) 
0

>  <PUBCHEM_ISOTOPIC_ATOM_COUNT>  (1) 
0

>  <PUBCHEM_COMPONENT_COUNT>  (1) 
1

>  <PUBCHEM_CACTVS_TAUTO_COUNT>  (1) 
1

>  <PUBCHEM_CONFORMER_ID>  (1) 
00008F5C00000001

>  <PUBCHEM_MMFF94_ENERGY>  (1) 
73.1328

>  <PUBCHEM_FEATURE_SELFOVERLAP>  (1) 
35.541

>  <PUBCHEM_SHAPE_FINGERPRINT>  (1) 
10382601 240 17191810185268558704
10764073 3 16909245768760252323
107951 10 18197513834831051062
11101153 10 17830751099171331684
11578080 2 16199291256654524019
12035758 1 16537627726277962200
12173636 292 18337391539300384148
12532896 13 18267029362243402766
12592029 89 17906170651156741753
12644460 14 17191236223551597449
12788726 201 18339350946240925315
13027679 85 18049723220017726455
13140716 1 18121221145399238354
13681431 1 17472983281622734921
14142880 1 18114181908496413789
14787075 74 18341606002351730757
14790565 3 18410011031668687773
14817 1 14636293494613320509
15463212 79 18263914467456526760
16945 1 18190437523812400095
1813 80 17479766113157339766
18785283 64 17686910410105559979
19591789 44 18266180530724453867
19765921 60 18126556817325017552
20600515 1 17754187697001000406
20739085 24 16613630819249976443
21120745 212 17905079140947686316
21524375 3 18054791689069474712
21665056 4 18337108960632888878
2255824 54 17619629081598752538
22907989 373 18263652934107670652
23419403 2 16604019463856622629
23557571 272 18193272121113991996
23558518 356 18410856534186802382
23559900 14 18192697068190955680
238 59 17104496910344457477
266924 78 17685470075875066829
283562 15 18191025806142673794
298252 57 17273126882687689204
3729539 64 17329461362239673478
394222 165 17244109693252604451
474 4 17907015075838810952
53917941 68 18338506457471813808
6443956 14 17690285232282655371
6786 2 17475853775865737501
70251023 43 17773304841485600198
81228 2 18336829817622979784
8272917 22 17474110899907561593
9981440 41 17700377482537639272

>  <PUBCHEM_SHAPE_MULTIPOLES>  (1) 
437.81
5.72
4.87
1.48
10.13
3.64
0.18
-4.55
1.45
-4.56
-1.33
-0.98
-0.04
-0.72

>  <PUBCHEM_SHAPE_SELFOVERLAP>  (1) 
949.238

>  <PUBCHEM_SHAPE_VOLUME>  (1) 
234

>  <PUBCHEM_COORDINATE_TYPE>  (1) 
2
5
10

$$$$
