36705
     RDKit          3D

 13 14  0  0  0  0  0  0  0  0999 V2000
    2.3335    0.7124   -0.4292 N   0  0  0  0  0  0  0  0  0  0  0  0
    2.8061   -0.4562   -0.8868 N   0  0  0  0  0  0  0  0  0  0  0  0
   -2.3244    0.8861    0.1819 C   0  0  0  0  0  0  0  0  0  0  0  0
   -2.8416   -0.4206   -0.4238 C   0  0  0  0  0  0  0  0  0  0  0  0
   -1.3666    1.6575   -0.7303 C   0  0  0  0  0  0  0  0  0  0  0  0
   -1.7970   -1.4819   -0.7978 C   0  0  0  0  0  0  0  0  0  0  0  0
   -0.3553    2.5299    0.0231 C   0  0  0  0  0  0  0  0  0  0  0  0
   -1.1158   -2.2279    0.3571 C   0  0  0  0  0  0  0  0  0  0  0  0
    0.5752    1.7846    0.9902 C   0  0  0  0  0  0  0  0  0  0  0  0
   -0.1045   -1.4635    1.2168 C   0  0  0  0  0  0  0  0  0  0  0  0
    1.2383    0.5942    0.3831 C   0  0  0  0  0  0  0  0  0  0  0  0
    0.9715   -0.7634    0.4584 C   0  0  0  0  0  0  0  0  0  0  0  0
    1.9806   -1.3511   -0.3426 C   0  0  0  0  0  0  0  0  0  0  0  0
  1  2  1  0
  1 11  1  0
  2 13  2  0
  3  4  1  0
  3  5  1  0
  4  6  1  0
  5  7  1  0
  6  8  1  0
  7  9  1  0
  8 10  1  0
  9 11  1  0
 10 12  1  0
 11 12  2  0
 12 13  1  0
M  END
>  <PUBCHEM_COMPOUND_CID>  (1) 
36705

>  <PUBCHEM_CONFORMER_RMSD>  (1) 
0.6

>  <PUBCHEM_CONFORMER_DIVERSEORDER>  (1) 
1
7
4
10
3
2
8
9
11
6
5

>  <PUBCHEM_MMFF94_PARTIAL_CHARGES>  (1) 
9
1 0.3
10 0.18
11 -0.33
12 -0.18
13 0.14
2 -0.71
30 0.27
31 0.15
9 0.18

>  <PUBCHEM_EFFECTIVE_ROTOR_COUNT>  (1) 
1.6

>  <PUBCHEM_PHARMACOPHORE_FEATURES>  (1) 
3
1 1 donor
1 2 acceptor
5 1 2 11 12 13 rings

>  <PUBCHEM_HEAVY_ATOM_COUNT>  (1) 
13

>  <PUBCHEM_ATOM_DEF_STEREO_COUNT>  (1) 
0

>  <PUBCHEM_ATOM_UDEF_STEREO_COUNT>  (1) 
0

>  <PUBCHEM_BOND_DEF_STEREO_COUNT>  (1) 
0

>  <PUBCHEM_BOND_UDEF_STEREO_COUNT>  (1) 
0

>  <PUBCHEM_ISOTOPIC_ATOM_COUNT>  (1) 
0

>  <PUBCHEM_COMPONENT_COUNT>  (1) 
1

>  <PUBCHEM_CACTVS_TAUTO_COUNT>  (1) 
2

>  <PUBCHEM_CONFORMER_ID>  (1) 
00008F6100000001

>  <PUBCHEM_MMFF94_ENERGY>  (1) 
12.627

>  <PUBCHEM_FEATURE_SELFOVERLAP>  (1) 
15.223

>  <PUBCHEM_SHAPE_FINGERPRINT>  (1) 
10353120 184 18408324367418626639
12524768 44 18123178271838661099
13380536 167 17757261587914709602
14251711 518 18265039259182419255
14251717 144 16682311349355139095
14251745 187 18124310764378092792
15775835 57 18263929847618018333
16945 1 18409166601720161304
20201158 50 18269548510680692295
20511035 2 16027584090836671817
21947302 44 17760350485349153179
22802520 49 18340216270545093122
23559900 14 18127684930205796682
241688 4 18410568526548847961
2748010 2 17616246326891614705
2897 32 18047750399519753831
353137 74 18262520290722280040
528862 383 16897097032904018769
549884 4 18411692205920616591
63268167 104 18411698798769197681
66348 1 18266170828366834899

>  <PUBCHEM_SHAPE_MULTIPOLES>  (1) 
257.57
3.53
2.67
1.02
0.05
0.57
0.1
-0.53
-1.09
-0.66
0.25
0.1
-0.1
0.15

>  <PUBCHEM_SHAPE_SELFOVERLAP>  (1) 
521.042

>  <PUBCHEM_SHAPE_VOLUME>  (1) 
148.6

>  <PUBCHEM_COORDINATE_TYPE>  (1) 
2
5
10

$$$$
