36713
     RDKit          3D

 24 25  0  0  1  0  0  0  0  0999 V2000
   -1.9857    1.9975    2.3738 Cl  0  0  0  0  0  0  0  0  0  0  0  0
   -3.7241    2.9660    0.2820 Cl  0  0  0  0  0  0  0  0  0  0  0  0
   -1.0427    4.0186    0.4948 Cl  0  0  0  0  0  0  0  0  0  0  0  0
    4.0714    0.4590   -0.7916 O   0  0  0  0  0  0  0  0  0  0  0  0
   -4.5020   -3.3480   -0.1824 O   0  0  0  0  0  0  0  0  0  0  0  0
   -1.4741    1.4090   -0.3686 C   0  0  0  0  0  0  0  0  0  0  0  0
   -0.0084    1.1577   -0.4806 C   0  0  0  0  0  0  0  0  0  0  0  0
   -2.3052    0.1035   -0.3176 C   0  0  0  0  0  0  0  0  0  0  0  0
   -2.0093    2.5027    0.6536 C   0  0  0  0  0  0  0  0  0  0  0  0
    0.7939    1.1912    0.6599 C   0  0  0  0  0  0  0  0  0  0  0  0
    0.5603    0.8894   -1.7257 C   0  0  0  0  0  0  0  0  0  0  0  0
   -2.1724   -0.6972    0.7825 C   0  0  0  0  0  0  0  0  0  0  0  0
   -3.1252   -0.1753   -1.3753 C   0  0  0  0  0  0  0  0  0  0  0  0
    2.7240    0.6892   -0.6889 C   0  0  0  0  0  0  0  0  0  0  0  0
    2.1648    0.9561    0.5555 C   0  0  0  0  0  0  0  0  0  0  0  0
    1.9313    0.6543   -1.8301 C   0  0  0  0  0  0  0  0  0  0  0  0
    5.8998   -0.9473   -0.1494 C   0  0  0  0  0  0  0  0  0  0  0  0
    4.7084   -0.1319    0.3327 C   0  0  0  0  0  0  0  0  0  0  0  0
    6.6244   -1.6260    1.0095 C   0  0  0  0  0  0  0  0  0  0  0  0
   -2.9211   -1.8733    0.8287 C   0  0  0  0  0  0  0  0  0  0  0  0
   -3.8740   -1.3512   -1.3292 C   0  0  0  0  0  0  0  0  0  0  0  0
   -3.7720   -2.2002   -0.2272 C   0  0  0  0  0  0  0  0  0  0  0  0
    7.7874   -2.4738    0.5196 C   0  0  0  0  0  0  0  0  0  0  0  0
   -4.3495   -4.1699    0.9740 C   0  0  0  0  0  0  0  0  0  0  0  0
  1  9  1  0
  2  9  1  0
  3  9  1  0
  4 14  1  0
  4 18  1  0
  5 22  1  0
  5 24  1  0
  6  7  1  0
  6  8  1  0
  6  9  1  0
  7 10  2  0
  7 11  1  0
  8 12  2  0
  8 13  1  0
 10 15  1  0
 11 16  2  0
 12 20  1  0
 13 21  2  0
 14 15  2  0
 14 16  1  0
 17 18  1  0
 17 19  1  0
 19 23  1  0
 20 22  2  0
 21 22  1  0
M  END
>  <PUBCHEM_COMPOUND_CID>  (1) 
36713

>  <PUBCHEM_CONFORMER_RMSD>  (1) 
0.8

>  <PUBCHEM_CONFORMER_DIVERSEORDER>  (1) 
1
30
51
8
45
39
47
27
54
29
33
5
50
48
37
11
42
53
20
57
21
40
43
9
35
46
19
52
56
12
55
6
25
17
49
36
22
15
16
2
7
44
34
23
13
14
28
26
58
38
24
3
10
18
4
31
41
32

>  <PUBCHEM_MMFF94_PARTIAL_CHARGES>  (1) 
29
1 -0.29
10 -0.15
11 -0.15
12 -0.15
13 -0.15
14 0.08
15 -0.15
16 -0.15
18 0.28
2 -0.29
20 -0.15
21 -0.15
22 0.08
24 0.28
26 0.15
27 0.15
28 0.15
29 0.15
3 -0.29
30 0.15
31 0.15
38 0.15
39 0.15
4 -0.36
5 -0.36
6 0.29
7 -0.14
8 -0.14
9 0.87

>  <PUBCHEM_EFFECTIVE_ROTOR_COUNT>  (1) 
8

>  <PUBCHEM_PHARMACOPHORE_FEATURES>  (1) 
5
1 23 hydrophobe
1 4 acceptor
1 5 acceptor
6 7 10 11 14 15 16 rings
6 8 12 13 20 21 22 rings

>  <PUBCHEM_HEAVY_ATOM_COUNT>  (1) 
24

>  <PUBCHEM_ATOM_DEF_STEREO_COUNT>  (1) 
0

>  <PUBCHEM_ATOM_UDEF_STEREO_COUNT>  (1) 
1

>  <PUBCHEM_BOND_DEF_STEREO_COUNT>  (1) 
0

>  <PUBCHEM_BOND_UDEF_STEREO_COUNT>  (1) 
0

>  <PUBCHEM_ISOTOPIC_ATOM_COUNT>  (1) 
0

>  <PUBCHEM_COMPONENT_COUNT>  (1) 
1

>  <PUBCHEM_CACTVS_TAUTO_COUNT>  (1) 
1

>  <PUBCHEM_CONFORMER_ID>  (1) 
00008F6900000001

>  <PUBCHEM_MMFF94_ENERGY>  (1) 
82.8349

>  <PUBCHEM_FEATURE_SELFOVERLAP>  (1) 
25.371

>  <PUBCHEM_SHAPE_FINGERPRINT>  (1) 
10074138 170 18058183756040950049
11036077 4 18339646620352922153
11315181 36 18340761564505126204
11545043 162 17988634161200621786
11796584 16 18335978680213014342
11809386 21 18409165493893256418
12363563 72 18197223752908501813
12390115 104 8142086498131684428
12549972 3 16555407478002035836
12553582 1 17700151055940269181
12596602 18 18200866302478369490
12633257 1 16486418835449525239
12760667 363 18412821413105582823
13009979 54 18333740125777841644
13140716 1 18201448007837417801
13383661 66 16952838290823630042
13583140 156 17632003149320661024
13955234 65 17404590364763159201
14211702 104 18341334406016676422
14251740 79 18040150725504395091
14844126 61 18272927211360955615
14848178 5 18334570261742260646
14866123 147 18410579483611839411
15250474 111 18261110726128514674
17492 89 18337389456594569260
17780758 139 18339075991620370008
1813 80 17913791662838795685
20832881 197 18192156121513364435
21033648 29 15912231783794653643
21304303 282 18124586480194465733
21344244 78 16484748708201219435
23379529 103 17461166735791851371
23559900 14 18337377344475967428
312425 54 18267575820303227314
3380486 145 16917349229676005829
463206 1 18120093042080136427
484985 159 18335417937609084299
5104073 3 18202845457378208272
559249 180 18336542703407028156
563151 74 15482124760362735567
5718773 13 18267858561499705455
5924683 9 18412543180797226736
59755656 520 18265325111042632613
7970288 3 18265334104097787338
81228 2 18129683949392273665
9981440 41 16915659168418575773

>  <PUBCHEM_SHAPE_MULTIPOLES>  (1) 
487.78
13.61
4.45
1.57
33.61
1.6
-0.02
14.94
-2.6
-7.14
-1.73
-0.52
-0.35
-1.2

>  <PUBCHEM_SHAPE_SELFOVERLAP>  (1) 
987.294

>  <PUBCHEM_SHAPE_VOLUME>  (1) 
284.3

>  <PUBCHEM_COORDINATE_TYPE>  (1) 
2
5
10

$$$$
