36718
     RDKit          3D

 16 16  0  0  1  0  0  0  0  0999 V2000
   -3.3262   -1.4637   -1.4796 O   0  0  0  0  0  0  0  0  0  0  0  0
    1.6324   -2.3396    0.6873 O   0  0  0  0  0  0  0  0  0  0  0  0
    4.0434   -1.0992   -0.0064 O   0  0  0  0  0  0  0  0  0  0  0  0
    0.3004    1.7508    0.0970 O   0  0  0  0  0  0  0  0  0  0  0  0
   -2.6808   -1.0753   -0.2655 C   0  0  0  0  0  0  0  0  0  0  0  0
   -1.1666   -1.2256   -0.4679 C   0  0  0  0  0  0  0  0  0  0  0  0
   -0.3477   -0.9362    0.7927 C   0  0  0  0  0  0  0  0  0  0  0  0
   -3.1075    0.3512    0.1050 C   0  0  0  0  0  0  0  0  0  0  0  0
    1.9034   -0.0317    0.1724 C   0  0  0  0  0  0  0  0  0  0  0  0
    1.1288   -1.0620    0.5390 C   0  0  0  0  0  0  0  0  0  0  0  0
   -4.6282    0.4844    0.2380 C   0  0  0  0  0  0  0  0  0  0  0  0
    3.8518    1.2768   -0.4769 C   0  0  0  0  0  0  0  0  0  0  0  0
    2.6244    2.2118   -0.4418 C   0  0  0  0  0  0  0  0  0  0  0  0
    3.3550   -0.0958   -0.0898 C   0  0  0  0  0  0  0  0  0  0  0  0
    1.4469    1.3570   -0.0369 C   0  0  0  0  0  0  0  0  0  0  0  0
   -5.0296    1.8969    0.6336 C   0  0  0  0  0  0  0  0  0  0  0  0
  1  5  1  0
  2 10  1  0
  3 14  2  0
  4 15  2  0
  5  6  1  0
  5  8  1  0
  6  7  1  0
  7 10  1  0
  8 11  1  0
  9 10  2  3
  9 14  1  0
  9 15  1  0
 11 16  1  0
 12 13  1  0
 12 14  1  0
 13 15  1  0
M  END
>  <PUBCHEM_COMPOUND_CID>  (1) 
36718

>  <PUBCHEM_CONFORMER_RMSD>  (1) 
0.6

>  <PUBCHEM_CONFORMER_DIVERSEORDER>  (1) 
2
48
89
59
87
23
78
8
95
94
15
74
79
109
75
106
43
19
84
62
73
97
91
28
60
7
22
99
110
21
57
108
26
51
81
77
98
68
66
107
18
37
102
92
64
50
14
45
96
55
69
82
11
35
52
54
33
46
3
85
63
17
65
34
104
9
13
12
83
71
5
76
32
27
100
72
41
49
36
58
53
20
101
103
1
25
6
88
56
44
29
30
86
105
31
40
80
47
38
39
24
16
4
90
67
61
10
93
42
70

>  <PUBCHEM_MMFF94_PARTIAL_CHARGES>  (1) 
14
1 -0.68
10 -0.06
12 0.06
13 0.06
14 0.49
15 0.49
2 -0.53
3 -0.57
33 0.4
34 0.45
4 -0.57
5 0.28
7 0.14
9 0.03

>  <PUBCHEM_EFFECTIVE_ROTOR_COUNT>  (1) 
5.4

>  <PUBCHEM_PHARMACOPHORE_FEATURES>  (1) 
8
1 1 acceptor
1 1 donor
1 16 hydrophobe
1 2 donor
1 3 acceptor
1 4 acceptor
1 9 anion
5 9 12 13 14 15 rings

>  <PUBCHEM_HEAVY_ATOM_COUNT>  (1) 
16

>  <PUBCHEM_ATOM_DEF_STEREO_COUNT>  (1) 
0

>  <PUBCHEM_ATOM_UDEF_STEREO_COUNT>  (1) 
1

>  <PUBCHEM_BOND_DEF_STEREO_COUNT>  (1) 
0

>  <PUBCHEM_BOND_UDEF_STEREO_COUNT>  (1) 
0

>  <PUBCHEM_ISOTOPIC_ATOM_COUNT>  (1) 
0

>  <PUBCHEM_COMPONENT_COUNT>  (1) 
1

>  <PUBCHEM_CACTVS_TAUTO_COUNT>  (1) 
13

>  <PUBCHEM_CONFORMER_ID>  (1) 
00008F6E00000002

>  <PUBCHEM_MMFF94_ENERGY>  (1) 
24.9355

>  <PUBCHEM_FEATURE_SELFOVERLAP>  (1) 
40.596

>  <PUBCHEM_SHAPE_FINGERPRINT>  (1) 
10354089 29 18336272254175654609
10382601 240 17894344479981445832
10906281 52 18262246612039600568
10980938 120 18334569144449078123
11471102 20 18334573546943381388
116883 192 18057053419358705836
15196674 1 18410013255970636385
15775835 57 18410295830627779877
17834072 14 11671785953268360481
18186145 218 17894906360551196798
19422 9 18341891947772172639
201361 129 18335138691525072107
20233049 118 17704068469529838873
20645476 183 18273492382229453887
21503847 285 18333453127225079817
231179 274 17676193680765060413
23402539 116 18272083916254856566
23402655 69 18413392050765464948
23557571 272 16844148229639494651
23559900 14 17060618910901050826
23598291 2 18342163471594858943
25 1 18259984907234979666
2748010 2 17973738157850728642
474 4 18114744944491501637
5104073 3 18335419101238955499
543358 83 18410577258159253818
633830 44 18334577966327858478
7832392 63 18413666920346062513
81228 2 15444893982070282931
84936 182 18127688455577453096
9882013 296 7925915876375874921

>  <PUBCHEM_SHAPE_MULTIPOLES>  (1) 
305.8
9.11
2.3
0.86
7.32
0.33
0.12
3.52
0.25
-0.29
-0.04
0.42
-0.22
-1.31

>  <PUBCHEM_SHAPE_SELFOVERLAP>  (1) 
610.46

>  <PUBCHEM_SHAPE_VOLUME>  (1) 
182

>  <PUBCHEM_COORDINATE_TYPE>  (1) 
2
5
10

$$$$
