36727
     RDKit          3D

 24 27  0  0  0  0  0  0  0  0999 V2000
    4.9372   -3.0878   -0.5056 Cl  0  0  0  0  0  0  0  0  0  0  0  0
    0.4242   -1.7319    1.7757 O   0  0  0  0  0  0  0  0  0  0  0  0
   -1.6217   -0.7777    0.3695 N   0  0  0  0  0  0  0  0  0  0  0  0
   -4.1742   -1.8987   -0.2231 N   0  0  0  0  0  0  0  0  0  0  0  0
    0.6571   -0.6338    0.9361 N   0  0  0  0  0  0  0  0  0  0  0  0
    1.9155    1.9551    0.1667 N   0  0  0  0  0  0  0  0  0  0  0  0
   -2.7588   -0.5063    1.2481 C   0  0  0  0  0  0  0  0  0  0  0  0
   -1.7117   -2.0241   -0.3900 C   0  0  0  0  0  0  0  0  0  0  0  0
   -4.0669   -0.6016    0.4603 C   0  0  0  0  0  0  0  0  0  0  0  0
   -3.0425   -2.0869   -1.1423 C   0  0  0  0  0  0  0  0  0  0  0  0
   -0.4865   -0.0210    0.3940 C   0  0  0  0  0  0  0  0  0  0  0  0
   -0.5265    1.2642   -0.0559 C   0  0  0  0  0  0  0  0  0  0  0  0
   -5.4429   -1.9968   -0.9434 C   0  0  0  0  0  0  0  0  0  0  0  0
    1.9578   -0.5158    0.3777 C   0  0  0  0  0  0  0  0  0  0  0  0
    0.6474    2.1967    0.1396 C   0  0  0  0  0  0  0  0  0  0  0  0
   -1.7305    1.8697   -0.6306 C   0  0  0  0  0  0  0  0  0  0  0  0
    2.4981    0.7050   -0.0442 C   0  0  0  0  0  0  0  0  0  0  0  0
    0.2751    3.6433    0.2910 C   0  0  0  0  0  0  0  0  0  0  0  0
    2.7490   -1.6804    0.2364 C   0  0  0  0  0  0  0  0  0  0  0  0
   -1.9112    3.1961   -0.6500 C   0  0  0  0  0  0  0  0  0  0  0  0
    3.7852    0.7272   -0.6171 C   0  0  0  0  0  0  0  0  0  0  0  0
   -0.9308    4.0817   -0.0855 C   0  0  0  0  0  0  0  0  0  0  0  0
    4.0200   -1.6424   -0.3361 C   0  0  0  0  0  0  0  0  0  0  0  0
    4.5379   -0.4340   -0.7713 C   0  0  0  0  0  0  0  0  0  0  0  0
  1 23  1  0
  2  5  1  0
  3  7  1  0
  3  8  1  0
  3 11  1  0
  4  9  1  0
  4 10  1  0
  4 13  1  0
  5 11  1  0
  5 14  1  0
  6 15  2  0
  6 17  1  0
  7  9  1  0
  8 10  1  0
 11 12  2  0
 12 15  1  0
 12 16  1  0
 14 17  2  0
 14 19  1  0
 15 18  1  0
 16 20  2  0
 17 21  1  0
 18 22  2  0
 19 23  2  0
 20 22  1  0
 21 24  2  0
 23 24  1  0
M  END
>  <PUBCHEM_COMPOUND_CID>  (1) 
36727

>  <PUBCHEM_CONFORMER_RMSD>  (1) 
0.6

>  <PUBCHEM_CONFORMER_DIVERSEORDER>  (1) 
4
3
2
1

>  <PUBCHEM_MMFF94_PARTIAL_CHARGES>  (1) 
32
1 -0.18
10 0.27
11 0.2
12 0.01
13 0.27
14 0.1
15 0.42
16 -0.15
17 0.18
18 -0.14
19 -0.15
2 -0.38
20 -0.15
21 -0.15
22 -0.15
23 0.18
24 -0.15
3 -0.84
36 0.15
37 0.15
38 0.15
39 0.15
4 -0.81
40 0.15
41 0.4
42 0.15
43 0.15
5 -0.22
6 -0.63
7 0.37
8 0.37
9 0.27

>  <PUBCHEM_EFFECTIVE_ROTOR_COUNT>  (1) 
2.4

>  <PUBCHEM_PHARMACOPHORE_FEATURES>  (1) 
8
1 2 anion
1 3 cation
1 4 cation
1 6 acceptor
6 12 15 16 18 20 22 rings
6 14 17 19 21 23 24 rings
6 3 4 7 8 9 10 rings
7 5 6 11 12 14 15 17 rings

>  <PUBCHEM_HEAVY_ATOM_COUNT>  (1) 
24

>  <PUBCHEM_ATOM_DEF_STEREO_COUNT>  (1) 
0

>  <PUBCHEM_ATOM_UDEF_STEREO_COUNT>  (1) 
0

>  <PUBCHEM_BOND_DEF_STEREO_COUNT>  (1) 
0

>  <PUBCHEM_BOND_UDEF_STEREO_COUNT>  (1) 
0

>  <PUBCHEM_ISOTOPIC_ATOM_COUNT>  (1) 
0

>  <PUBCHEM_COMPONENT_COUNT>  (1) 
1

>  <PUBCHEM_CACTVS_TAUTO_COUNT>  (1) 
1

>  <PUBCHEM_CONFORMER_ID>  (1) 
00008F7700000004

>  <PUBCHEM_MMFF94_ENERGY>  (1) 
100.1839

>  <PUBCHEM_FEATURE_SELFOVERLAP>  (1) 
40.619

>  <PUBCHEM_SHAPE_FINGERPRINT>  (1) 
10254770 206 16173129047688478210
10369192 42 16985719191159219000
10411042 1 18410854360701443255
10693767 8 18341600573308094015
10906281 52 17973730469601319200
10967382 1 18192996151784591096
11578080 2 17846200168499357768
116883 192 18411135831398569276
12553582 1 18409729603260935930
12643181 29 17475522677708106910
12788726 201 18334293141529975114
13004483 165 18341604915039403958
13009979 54 17845106219471239067
13140716 1 18264479603421753552
13583140 156 14907901513937175083
13690498 29 18197236771250386430
138480 1 15240041634200131805
14178342 30 18046606929498192586
14251751 93 18119251666644563778
14347332 77 18338238142227600822
14790565 3 17907302048617188905
14866123 147 18196657289814413033
14955137 171 18264790864508066035
15042514 8 18267587901102173085
15081414 286 18192714660050140705
15210252 30 17531522191319388493
15420108 30 17261571385126831440
15848702 151 18270401714845880047
16087824 20 18338235939426667445
17357779 13 18187921824260470093
17492 89 18338518509271742542
1813 80 18271822245087797255
18335252 114 18339066169710516847
19591789 44 18410014299594772985
20775438 99 17479120601437738087
21478907 32 18411419470943806023
21641784 216 18041298620382132788
221357 26 18335127740075788575
22182313 1 18266999786872346809
23352939 185 18271250511778458641
23536364 44 18190441802058796079
23557571 272 18340189818432140594
23559900 14 18053376884287820139
25147074 1 17678455252199472370
3091708 16 9208145450157199993
352729 6 17906448822944795161
44062 13 18051982416029405022
46194498 28 17532927427683294127
463206 1 18337957903985375502
474 4 17761768872935145889
58779409 54 18192989322965808500
6443956 14 18192710266087522645
70251023 43 18409728460789365155
7164475 11 18337393743124742798
7237137 82 18262814956107942924
9709674 26 18334588914890520810

>  <PUBCHEM_SHAPE_MULTIPOLES>  (1) 
469.99
8.85
4.49
1.03
1.83
3.86
0.16
-9.47
-2.56
-1.59
-0.71
-0.37
-0.39
-0.2

>  <PUBCHEM_SHAPE_SELFOVERLAP>  (1) 
1013.329

>  <PUBCHEM_SHAPE_VOLUME>  (1) 
257.7

>  <PUBCHEM_COORDINATE_TYPE>  (1) 
2
5
10

$$$$
