36722
     RDKit          3D

 12 11  0  0  1  0  0  0  0  0999 V2000
   -1.2095   -1.8680   -0.3917 Cl  0  0  0  0  0  0  0  0  0  0  0  0
    0.1090    0.5309   -0.1956 C   0  0  0  0  0  0  0  0  0  0  0  0
   -1.1695   -0.1953    0.2516 C   0  0  0  0  0  0  0  0  0  0  0  0
    1.3910   -0.2157    0.1964 C   0  0  0  0  0  0  0  0  0  0  0  0
   -2.4553    0.5557   -0.1338 C   0  0  0  0  0  0  0  0  0  0  0  0
    2.6726    0.5346   -0.1858 C   0  0  0  0  0  0  0  0  0  0  0  0
   -3.7653   -0.1275    0.2768 C   0  0  0  0  0  0  0  0  0  0  0  0
    3.9512   -0.2201    0.1881 C   0  0  0  0  0  0  0  0  0  0  0  0
   -4.9772    0.6646   -0.2183 C   0  0  0  0  0  0  0  0  0  0  0  0
    5.2301    0.5289   -0.1959 C   0  0  0  0  0  0  0  0  0  0  0  0
   -6.2820    0.0121    0.2098 C   0  0  0  0  0  0  0  0  0  0  0  0
    6.5050   -0.2002    0.1985 C   0  0  0  0  0  0  0  0  0  0  0  0
  1  3  1  0
  2  3  1  0
  2  4  1  0
  3  5  1  0
  4  6  1  0
  5  7  1  0
  6  8  1  0
  7  9  1  0
  8 10  1  0
  9 11  1  0
 10 12  1  0
M  END
>  <PUBCHEM_COMPOUND_CID>  (1) 
36722

>  <PUBCHEM_CONFORMER_RMSD>  (1) 
0.8

>  <PUBCHEM_CONFORMER_DIVERSEORDER>  (1) 
1
49
25
232
115
119
104
112
218
2
212
181
52
14
190
235
64
159
39
165
176
87
8
226
224
214
42
142
117
129
24
79
72
209
7
131
189
167
185
16
15
197
215
234
225
62
164
3
30
122
160
47
201
77
236
85
221
38
130
109
78
27
219
99
108
13
223
75
175
171
124
37
191
71
6
82
192
220
23
169
170
151
9
156
101
134
11
32
143
60
222
161
172
67
157
121
19
100
86
57
200
34
102
158
210
141
206
5
147
94
145
114
207
21
217
29
133
93
89
208
18
10
123
33
28
178
202
36
125
149
155
31
44
50
199
90
4
177
53
70
48
136
182
96
227
41
194
163
56
80
61
229
26
162
126
144
43
154
103
196
174
111
66
137
17
237
46
135
148
211
198
20
106
231
107
127
69
139
58
184
233
55
238
179
188
204
195
88
173
166
113
128
97
92
120
205
180
51
12
193
228
35
116
138
81
40
146
216
65
186
153
91
73
68
84
140
230
168
150
152
118
213
98
203
76
63
110
132
54
95
45
105
22
183
74
59
83
187

>  <PUBCHEM_MMFF94_PARTIAL_CHARGES>  (1) 
2
1 -0.29
3 0.29

>  <PUBCHEM_EFFECTIVE_ROTOR_COUNT>  (1) 
8

>  <PUBCHEM_PHARMACOPHORE_FEATURES>  (1) 
3
1 11 hydrophobe
1 12 hydrophobe
5 2 4 6 8 10 hydrophobe

>  <PUBCHEM_HEAVY_ATOM_COUNT>  (1) 
12

>  <PUBCHEM_ATOM_DEF_STEREO_COUNT>  (1) 
0

>  <PUBCHEM_ATOM_UDEF_STEREO_COUNT>  (1) 
1

>  <PUBCHEM_BOND_DEF_STEREO_COUNT>  (1) 
0

>  <PUBCHEM_BOND_UDEF_STEREO_COUNT>  (1) 
0

>  <PUBCHEM_ISOTOPIC_ATOM_COUNT>  (1) 
0

>  <PUBCHEM_COMPONENT_COUNT>  (1) 
1

>  <PUBCHEM_CACTVS_TAUTO_COUNT>  (1) 
1

>  <PUBCHEM_CONFORMER_ID>  (1) 
00008F7200000001

>  <PUBCHEM_MMFF94_ENERGY>  (1) 
0.5173

>  <PUBCHEM_FEATURE_SELFOVERLAP>  (1) 
15.223

>  <PUBCHEM_SHAPE_FINGERPRINT>  (1) 
12091667 2 18409729561065428913
12714333 28 15267342915949739312
12815109 37 14189575234635902120
13533116 47 17346037762822393718
14123238 8 18407760330690773284
14251764 46 18411135835603820176
15242439 84 17846779628833980514
15501527 16 18411982476847944129
17834076 25 17846779607042704240
187816 3 17346600772593614123
200 152 10447930563764778342
20279233 1 17275113851071289406
20281389 69 18260545628216724076
20645477 56 18411979173949495868
20645477 70 16128388017414906724
20767249 213 18410293627145968212
23218964 4 18408602556871910816
23402539 116 18131345323929585237
23521765 1 18341895190382732072
23559900 14 17846489387655056232
3545911 37 18411982459995129062
366044 4 18413389839179190719
42788 4 18187365428210864380
8209 1 18408885135307154397

>  <PUBCHEM_SHAPE_MULTIPOLES>  (1) 
248.82
15.65
1.08
0.67
5.27
0.52
0
-1.96
-0.9
-0.41
0.14
-0.03
0.02
-0.09

>  <PUBCHEM_SHAPE_SELFOVERLAP>  (1) 
432.469

>  <PUBCHEM_SHAPE_VOLUME>  (1) 
164.4

>  <PUBCHEM_COORDINATE_TYPE>  (1) 
2
5
10

$$$$
