36721
     RDKit          3D

 17 16  0  0  1  0  0  0  0  0999 V2000
   -5.5441   -1.8381   -0.5490 Cl  0  0  0  0  0  0  0  0  0  0  0  0
   -0.2917   -0.3345    0.1593 C   0  0  0  0  0  0  0  0  0  0  0  0
    0.9974    0.4148   -0.1929 C   0  0  0  0  0  0  0  0  0  0  0  0
   -1.5959    0.3869   -0.1958 C   0  0  0  0  0  0  0  0  0  0  0  0
    2.3012   -0.2764    0.2179 C   0  0  0  0  0  0  0  0  0  0  0  0
   -2.8848   -0.3385    0.2060 C   0  0  0  0  0  0  0  0  0  0  0  0
    3.5564    0.4934   -0.2017 C   0  0  0  0  0  0  0  0  0  0  0  0
   -4.1525    0.4733   -0.0875 C   0  0  0  0  0  0  0  0  0  0  0  0
    4.8259   -0.2401    0.2399 C   0  0  0  0  0  0  0  0  0  0  0  0
   -5.4483   -0.2607    0.2973 C   0  0  0  0  0  0  0  0  0  0  0  0
    6.1184    0.4703   -0.1762 C   0  0  0  0  0  0  0  0  0  0  0  0
   -6.6774    0.6006   -0.0361 C   0  0  0  0  0  0  0  0  0  0  0  0
    7.3845   -0.3045    0.1997 C   0  0  0  0  0  0  0  0  0  0  0  0
   -8.0083   -0.0761    0.3077 C   0  0  0  0  0  0  0  0  0  0  0  0
    8.6715    0.3727   -0.2797 C   0  0  0  0  0  0  0  0  0  0  0  0
   -9.1899    0.8091   -0.0595 C   0  0  0  0  0  0  0  0  0  0  0  0
    9.9375   -0.3522    0.1505 C   0  0  0  0  0  0  0  0  0  0  0  0
  1 10  1  0
  2  3  1  0
  2  4  1  0
  3  5  1  0
  4  6  1  0
  5  7  1  0
  6  8  1  0
  7  9  1  0
  8 10  1  0
  9 11  1  0
 10 12  1  0
 11 13  1  0
 12 14  1  0
 13 15  1  0
 14 16  1  0
 15 17  1  0
M  END
>  <PUBCHEM_COMPOUND_CID>  (1) 
36721

>  <PUBCHEM_CONFORMER_RMSD>  (1) 
1.4

>  <PUBCHEM_CONFORMER_DIVERSEORDER>  (1) 
1
39
8
51
17
32
28
4
3
43
5
24
33
44
30
23
31
37
18
48
45
14
27
47
12
50
9
21
29
38
41
22
34
46
26
35
25
40
52
49
19
16
36
6
11
42
20
2
13
10
7
15

>  <PUBCHEM_MMFF94_PARTIAL_CHARGES>  (1) 
2
1 -0.29
10 0.29

>  <PUBCHEM_EFFECTIVE_ROTOR_COUNT>  (1) 
13

>  <PUBCHEM_PHARMACOPHORE_FEATURES>  (1) 
2
1 16 hydrophobe
1 17 hydrophobe

>  <PUBCHEM_HEAVY_ATOM_COUNT>  (1) 
17

>  <PUBCHEM_ATOM_DEF_STEREO_COUNT>  (1) 
0

>  <PUBCHEM_ATOM_UDEF_STEREO_COUNT>  (1) 
1

>  <PUBCHEM_BOND_DEF_STEREO_COUNT>  (1) 
0

>  <PUBCHEM_BOND_UDEF_STEREO_COUNT>  (1) 
0

>  <PUBCHEM_ISOTOPIC_ATOM_COUNT>  (1) 
0

>  <PUBCHEM_COMPONENT_COUNT>  (1) 
1

>  <PUBCHEM_CACTVS_TAUTO_COUNT>  (1) 
1

>  <PUBCHEM_CONFORMER_ID>  (1) 
00008F7100000001

>  <PUBCHEM_MMFF94_ENERGY>  (1) 
1.0126

>  <PUBCHEM_FEATURE_SELFOVERLAP>  (1) 
10.149

>  <PUBCHEM_SHAPE_FINGERPRINT>  (1) 
11315181 36 17561367301506641243
12091667 2 18040435495195430833
14123256 10 18410293605391407464
14251764 18 17894627055160536402
14251764 46 18410575084663078912
14428016 248 16950572073004879524
15510794 2 17632581556471341951
18335252 98 12468632820564553168
20621476 8 18259983773131349013
22224240 67 13110962024901985716
232437 2 17821729429690949178
23521765 1 18341895190667510208
23581129 1 18409449184756242784
28498 318 18272653428902475430
33684 2 18410855455833201000
4325135 7 18335421265902439487
67123 10 18260548931088298480
8209 1 18408323284912788160

>  <PUBCHEM_SHAPE_MULTIPOLES>  (1) 
351.72
35.3
1
0.68
26.49
0.34
0.01
-1.53
-0.38
-1.47
0.12
-0.08
0.03
-0.43

>  <PUBCHEM_SHAPE_SELFOVERLAP>  (1) 
620.577

>  <PUBCHEM_SHAPE_VOLUME>  (1) 
228.9

>  <PUBCHEM_COORDINATE_TYPE>  (1) 
2
5
10

$$$$
