36735
     RDKit          3D

 32 34  0  0  1  0  0  0  0  0999 V2000
    4.5676   -0.8884    0.8572 P   0  0  0  0  0  0  0  0  0  0  0  0
    3.7267    1.1205   -1.1310 P   0  0  0  0  0  0  0  0  0  0  0  0
    1.8203    2.9864   -0.4204 P   0  0  0  0  0  0  0  0  0  0  0  0
   -0.3068   -2.0362    1.3815 O   0  0  0  0  0  0  0  0  0  0  0  0
   -1.0467   -1.8817   -2.1326 O   0  0  0  0  0  0  0  0  0  0  0  0
    0.2770   -3.9309   -0.9352 O   0  0  0  0  0  0  0  0  0  0  0  0
    3.2578   -1.8128    0.6377 O   0  0  0  0  0  0  0  0  0  0  0  0
    4.1191    0.5792    0.3479 O   0  0  0  0  0  0  0  0  0  0  0  0
    4.6689   -0.7083    2.4617 O   0  0  0  0  0  0  0  0  0  0  0  0
    5.8196   -1.4088    0.2126 O   0  0  0  0  0  0  0  0  0  0  0  0
   -5.1917    2.6113    0.9963 O   0  0  0  0  0  0  0  0  0  0  0  0
    5.1673    1.0554   -1.8780 O   0  0  0  0  0  0  0  0  0  0  0  0
    2.7032    0.2445   -1.8029 O   0  0  0  0  0  0  0  0  0  0  0  0
    1.8335    2.8238    1.1949 O   0  0  0  0  0  0  0  0  0  0  0  0
    1.5742    4.5855   -0.5641 O   0  0  0  0  0  0  0  0  0  0  0  0
    0.7237    2.1858   -1.0702 O   0  0  0  0  0  0  0  0  0  0  0  0
   -1.9933   -0.5602    0.6025 N   0  0  0  0  0  0  0  0  0  0  0  0
   -4.1193   -1.0115   -0.4898 N   0  0  0  0  0  0  0  0  0  0  0  0
   -2.5206    1.4496    1.4537 N   0  0  0  0  0  0  0  0  0  0  0  0
   -5.7561    0.7260   -0.2281 N   0  0  0  0  0  0  0  0  0  0  0  0
   -6.2096   -1.2379   -1.4499 N   0  0  0  0  0  0  0  0  0  0  0  0
    3.3681    2.7235   -0.9399 N   0  0  0  0  0  0  0  0  0  0  0  0
   -0.3296   -1.6048   -0.9470 C   0  0  0  0  0  0  0  0  0  0  0  0
    0.7635   -2.6164   -0.6642 C   0  0  0  0  0  0  0  0  0  0  0  0
   -1.2023   -1.7484    0.2905 C   0  0  0  0  0  0  0  0  0  0  0  0
    0.9638   -2.4666    0.8406 C   0  0  0  0  0  0  0  0  0  0  0  0
    2.0153   -1.4257    1.1986 C   0  0  0  0  0  0  0  0  0  0  0  0
   -3.2670   -0.2839    0.2368 C   0  0  0  0  0  0  0  0  0  0  0  0
   -1.5808    0.5257    1.3431 C   0  0  0  0  0  0  0  0  0  0  0  0
   -3.5793    0.9378    0.7575 C   0  0  0  0  0  0  0  0  0  0  0  0
   -4.8897    1.5163    0.5375 C   0  0  0  0  0  0  0  0  0  0  0  0
   -5.3771   -0.4488   -0.6971 C   0  0  0  0  0  0  0  0  0  0  0  0
  1  7  1  0
  1  8  1  0
  1  9  1  0
  1 10  2  0
  2  8  1  0
  2 12  1  0
  2 13  2  0
  2 22  1  0
  3 14  1  0
  3 15  1  0
  3 16  2  0
  3 22  1  0
  4 25  1  0
  4 26  1  0
  5 23  1  0
  6 24  1  0
  7 27  1  0
 11 31  2  0
 17 25  1  0
 17 28  1  0
 17 29  1  0
 18 28  1  0
 18 32  1  0
 19 29  2  0
 19 30  1  0
 20 31  1  0
 20 32  2  0
 21 32  1  0
 23 24  1  0
 23 25  1  0
 24 26  1  0
 26 27  1  0
 28 30  2  0
 30 31  1  0
M  END
>  <PUBCHEM_COMPOUND_CID>  (1) 
36735

>  <PUBCHEM_CONFORMER_RMSD>  (1) 
1.4

>  <PUBCHEM_CONFORMER_DIVERSEORDER>  (1) 
1
15
168
54
133
157
86
5
19
131
130
111
38
96
150
156
36
102
173
68
33
28
98
128
43
88
101
89
135
140
114
79
161
16
120
25
155
147
123
34
109
41
24
180
75
44
117
137
91
29
142
6
72
4
148
17
83
81
27
58
153
149
13
170
182
62
71
113
95
87
126
132
20
60
21
66
145
23
74
178
7
59
56
112
90
18
154
121
129
92
51
99
171
97
42
119
10
53
26
22
82
164
103
141
14
63
127
61
125
73
2
57
160
166
32
65
106
39
138
158
146
47
46
45
179
118
3
100
115
49
50
108
136
84
107
64
31
11
30
143
177
110
70
172
77
78
159
8
144
163
176
94
76
37
80
152
124
35
40
9
67
69
175
165
122
169
139
162
52
48
181
55
12
167
134
151
93
116
85
105
174
104

>  <PUBCHEM_MMFF94_PARTIAL_CHARGES>  (1) 
43
1 1.51
10 -0.7
11 -0.57
12 -0.77
13 -0.7
14 -0.77
15 -0.77
16 -0.7
17 0.05
18 -0.53
19 -0.57
2 1.51
20 -0.66
21 -0.85
22 -0.9
23 0.28
24 0.28
25 0.54
26 0.28
27 0.28
28 -0.07
29 0.04
3 1.51
30 0.14
31 0.87
32 0.55
39 0.4
4 -0.56
40 0.4
41 0.15
42 0.4
43 0.5
44 0.4
45 0.4
46 0.36
47 0.5
48 0.5
49 0.5
5 -0.68
6 -0.68
7 -0.55
8 -0.54
9 -0.77

>  <PUBCHEM_EFFECTIVE_ROTOR_COUNT>  (1) 
9

>  <PUBCHEM_PHARMACOPHORE_FEATURES>  (1) 
21
1 10 acceptor
1 11 acceptor
1 12 acceptor
1 13 acceptor
1 14 acceptor
1 15 acceptor
1 16 acceptor
1 18 donor
1 20 donor
1 21 donor
1 4 acceptor
1 5 acceptor
1 5 donor
1 6 acceptor
1 6 donor
1 9 acceptor
3 17 19 29 cation
4 3 14 15 16 anion
5 17 19 28 29 30 rings
5 4 23 24 25 26 rings
6 18 20 28 30 31 32 rings

>  <PUBCHEM_HEAVY_ATOM_COUNT>  (1) 
32

>  <PUBCHEM_ATOM_DEF_STEREO_COUNT>  (1) 
4

>  <PUBCHEM_ATOM_UDEF_STEREO_COUNT>  (1) 
0

>  <PUBCHEM_BOND_DEF_STEREO_COUNT>  (1) 
0

>  <PUBCHEM_BOND_UDEF_STEREO_COUNT>  (1) 
0

>  <PUBCHEM_ISOTOPIC_ATOM_COUNT>  (1) 
0

>  <PUBCHEM_COMPONENT_COUNT>  (1) 
1

>  <PUBCHEM_CACTVS_TAUTO_COUNT>  (1) 
18

>  <PUBCHEM_CONFORMER_ID>  (1) 
00008F7F00000001

>  <PUBCHEM_MMFF94_ENERGY>  (1) 
-3.924

>  <PUBCHEM_FEATURE_SELFOVERLAP>  (1) 
106.909

>  <PUBCHEM_SHAPE_FINGERPRINT>  (1) 
10675989 125 16896514888989392279
11578080 2 17604420783726102293
12166972 35 18341609304579986994
12422481 6 18116146662729234709
12633257 1 17749106664769179890
13583140 156 17896049912636430811
14117953 113 18267022747803999724
17980427 23 18341608166972874343
18681886 176 18343573049485359866
20764821 26 18044940069295919285
21033648 144 18113615733375630373
21298829 104 18410012139279691864
21860390 5 18337679611241308142
4409770 3 15673808897048615271
445580 8 18338797819341446362
474 4 18335424530273257107
513532 50 17989210335316233774
6609424 69 16897422582962313489
6669772 16 17484784250141240337
8509985 295 18333167267514066800

>  <PUBCHEM_SHAPE_MULTIPOLES>  (1) 
563.91
12.36
4.14
1.71
7.46
2.17
0.06
2.47
0.63
-2.33
0.66
-0.96
-0.22
-2.65

>  <PUBCHEM_SHAPE_SELFOVERLAP>  (1) 
1153.045

>  <PUBCHEM_SHAPE_VOLUME>  (1) 
328.8

>  <PUBCHEM_COORDINATE_TYPE>  (1) 
2
5
10

$$$$
