36739
     RDKit          3D

 33 37  0  0  1  0  0  0  0  0999 V2000
    3.8450    2.0432   -1.3688 S   0  0  0  0  0  0  0  0  0  0  0  0
    2.7724    1.1596    1.5196 O   0  0  0  0  0  0  0  0  0  0  0  0
   -3.1739   -0.9407    1.4335 O   0  0  0  0  0  0  0  0  0  0  0  0
    5.4289   -4.0735   -0.5063 O   0  0  0  0  0  0  0  0  0  0  0  0
   -6.4156   -0.7771   -0.3094 N   0  0  0  0  0  0  0  0  0  0  0  0
    2.1881    0.5724    0.3441 C   0  0  0  0  0  0  0  0  0  0  0  0
    2.1569    1.6534   -0.7918 C   0  0  0  0  0  0  0  0  0  0  0  0
    3.0770   -0.6545    0.0578 C   0  0  0  0  0  0  0  0  0  0  0  0
   -6.5067   -2.1138   -0.8961 C   0  0  0  0  0  0  0  0  0  0  0  0
   -7.7806   -0.4484    0.1001 C   0  0  0  0  0  0  0  0  0  0  0  0
   -7.7798   -2.0364   -1.7257 C   0  0  0  0  0  0  0  0  0  0  0  0
   -8.6155   -0.9394   -1.0732 C   0  0  0  0  0  0  0  0  0  0  0  0
    0.7305    0.1610    0.6404 C   0  0  0  0  0  0  0  0  0  0  0  0
    4.0127   -0.7094   -0.9981 C   0  0  0  0  0  0  0  0  0  0  0  0
    4.2256    0.3976   -1.9964 C   0  0  0  0  0  0  0  0  0  0  0  0
   -5.4739   -0.7196    0.7988 C   0  0  0  0  0  0  0  0  0  0  0  0
    1.3800    2.9238   -0.4628 C   0  0  0  0  0  0  0  0  0  0  0  0
    3.0070   -1.7569    0.9417 C   0  0  0  0  0  0  0  0  0  0  0  0
   -4.0633   -1.0249    0.3209 C   0  0  0  0  0  0  0  0  0  0  0  0
    0.1668    0.4876    1.8643 C   0  0  0  0  0  0  0  0  0  0  0  0
    0.0091   -0.5282   -0.3220 C   0  0  0  0  0  0  0  0  0  0  0  0
    4.7802   -1.8783   -1.1792 C   0  0  0  0  0  0  0  0  0  0  0  0
    3.7873   -2.8977    0.7562 C   0  0  0  0  0  0  0  0  0  0  0  0
    4.6692   -2.9620   -0.3116 C   0  0  0  0  0  0  0  0  0  0  0  0
    0.0224    3.0007   -0.7605 C   0  0  0  0  0  0  0  0  0  0  0  0
    2.0328    3.9990    0.1334 C   0  0  0  0  0  0  0  0  0  0  0  0
   -1.8883   -0.5780    1.1729 C   0  0  0  0  0  0  0  0  0  0  0  0
   -1.1507    0.1158    2.1322 C   0  0  0  0  0  0  0  0  0  0  0  0
   -1.3084   -0.8999   -0.0543 C   0  0  0  0  0  0  0  0  0  0  0  0
   -0.6884    4.1625   -0.4595 C   0  0  0  0  0  0  0  0  0  0  0  0
    1.3219    5.1608    0.4346 C   0  0  0  0  0  0  0  0  0  0  0  0
   -0.0387    5.2425    0.1380 C   0  0  0  0  0  0  0  0  0  0  0  0
    5.2701   -5.1412    0.4272 C   0  0  0  0  0  0  0  0  0  0  0  0
  1  7  1  0
  1 15  1  0
  2  6  1  0
  3 19  1  0
  3 27  1  0
  4 24  1  0
  4 33  1  0
  5  9  1  0
  5 10  1  0
  5 16  1  0
  6  7  1  0
  6  8  1  0
  6 13  1  0
  7 17  1  0
  8 14  2  0
  8 18  1  0
  9 11  1  0
 10 12  1  0
 11 12  1  0
 13 20  2  0
 13 21  1  0
 14 15  1  0
 14 22  1  0
 16 19  1  0
 17 25  2  0
 17 26  1  0
 18 23  2  0
 20 28  1  0
 21 29  2  0
 22 24  2  0
 23 24  1  0
 25 30  1  0
 26 31  2  0
 27 28  2  0
 27 29  1  0
 30 32  2  0
 31 32  1  0
M  END
>  <PUBCHEM_COMPOUND_CID>  (1) 
36739

>  <PUBCHEM_CONFORMER_RMSD>  (1) 
1

>  <PUBCHEM_CONFORMER_DIVERSEORDER>  (1) 
3
129
48
29
116
138
56
19
53
101
34
130
41
10
37
21
135
95
97
12
23
113
127
24
39
123
71
7
124
66
100
104
38
106
6
125
8
74
27
40
58
136
92
22
103
76
122
30
55
44
52
105
112
57
78
16
67
89
68
108
139
64
102
14
33
61
110
90
18
93
134
70
86
72
84
79
115
35
36
50
120
46
99
59
81
2
69
117
20
82
132
42
111
94
62
114
47
91
25
45
17
119
28
121
32
109
98
85
63
13
11
107
1
137
60
96
77
43
88
49
26
118
51
73
4
54
65
87
15
83
126
75
31
131
133
80
5
9
128

>  <PUBCHEM_MMFF94_PARTIAL_CHARGES>  (1) 
44
1 -0.46
10 0.27
13 -0.14
14 -0.14
15 0.37
16 0.27
17 -0.14
18 -0.15
19 0.28
2 -0.68
20 -0.15
21 -0.15
22 -0.15
23 -0.15
24 0.08
25 -0.15
26 -0.15
27 0.08
28 -0.15
29 -0.15
3 -0.36
30 -0.15
31 -0.15
32 -0.15
33 0.28
4 -0.36
47 0.15
48 0.4
5 -0.81
51 0.15
52 0.15
53 0.15
54 0.15
55 0.15
56 0.15
57 0.15
58 0.15
59 0.15
6 0.57
60 0.15
61 0.15
7 0.37
8 -0.14
9 0.27

>  <PUBCHEM_EFFECTIVE_ROTOR_COUNT>  (1) 
8.8

>  <PUBCHEM_PHARMACOPHORE_FEATURES>  (1) 
10
1 2 acceptor
1 2 donor
1 3 acceptor
1 4 acceptor
1 5 cation
5 5 9 10 11 12 rings
6 1 6 7 8 14 15 rings
6 13 20 21 27 28 29 rings
6 17 25 26 30 31 32 rings
6 8 14 18 22 23 24 rings

>  <PUBCHEM_HEAVY_ATOM_COUNT>  (1) 
33

>  <PUBCHEM_ATOM_DEF_STEREO_COUNT>  (1) 
0

>  <PUBCHEM_ATOM_UDEF_STEREO_COUNT>  (1) 
2

>  <PUBCHEM_BOND_DEF_STEREO_COUNT>  (1) 
0

>  <PUBCHEM_BOND_UDEF_STEREO_COUNT>  (1) 
0

>  <PUBCHEM_ISOTOPIC_ATOM_COUNT>  (1) 
0

>  <PUBCHEM_COMPONENT_COUNT>  (1) 
1

>  <PUBCHEM_CACTVS_TAUTO_COUNT>  (1) 
1

>  <PUBCHEM_CONFORMER_ID>  (1) 
00008F8300000003

>  <PUBCHEM_MMFF94_ENERGY>  (1) 
114.0397

>  <PUBCHEM_FEATURE_SELFOVERLAP>  (1) 
50.764

>  <PUBCHEM_SHAPE_FINGERPRINT>  (1) 
10411042 1 18338515227299017162
10693767 8 18410852157731620427
11115154 58 18335705996981682649
11135609 149 18339903975004379733
11386260 185 18262226829367839165
11607047 403 18128521838384265224
11720765 8 18411698807254208889
1200032 147 12685093670123976363
12166972 35 18273216413526904185
12645989 146 18411422770133129007
12788726 201 17971480598200862042
13782708 43 17846208995722799519
13835254 42 18341892957111359384
13911987 19 17610381421012558340
14068700 675 18060141998902630283
14537116 161 18040707092148391965
15082195 135 18195519527556331323
15183329 4 18410294722969563015
15684393 108 17768230660692819335
16988056 13 18116718606766875677
18365409 1 17686904916779877852
19311894 1 18193835934472813197
20775438 99 18121205739573405059
21033648 29 17097207471271699977
21133410 58 18410285926618935711
21304303 282 16690187120963868476
21895439 516 18265604568134118911
21968339 14 18126284383824703417
221357 26 18259702307330271989
23559900 14 18336828697354258715
255183 451 18341615876080754214
3004659 81 17775010124064954471
3103668 31 18044934563807222437
3534868 343 18262533489600185382
397830 11 11527953340166769987
4015057 19 18334868233651491115
4066623 53 18040994020984735436
4144715 1 17970072343614209315
44317340 157 18193279809738467595
57527358 35 15839061449957108696
59682541 52 18333732433739470663
6004065 56 18336825398460510258
6695519 79 17260207995198295875
70251023 43 18336266735053300714
9937071 3 12751237061454891175

>  <PUBCHEM_SHAPE_MULTIPOLES>  (1) 
660.39
17.15
6.56
1.58
48.36
5.44
-0.13
-21.67
7.94
-10.46
0.1
0.2
-0.18
-1.43

>  <PUBCHEM_SHAPE_SELFOVERLAP>  (1) 
1420.353

>  <PUBCHEM_SHAPE_VOLUME>  (1) 
366.4

>  <PUBCHEM_COORDINATE_TYPE>  (1) 
2
5
10

$$$$
