36734
     RDKit          3D

 19 20  0  0  0  0  0  0  0  0999 V2000
   -0.9782    0.5410   -0.0609 O   0  0  0  0  0  0  0  0  0  0  0  0
   -2.9793   -1.4564   -0.0724 N   0  0  0  0  0  0  0  0  0  0  0  0
    0.3827    1.0012   -0.0625 C   0  0  0  0  0  0  0  0  0  0  0  0
    0.5941    1.7970   -1.3713 C   0  0  0  0  0  0  0  0  0  0  0  0
    0.5310    1.9294    1.1619 C   0  0  0  0  0  0  0  0  0  0  0  0
   -0.3077    3.0313   -1.4526 C   0  0  0  0  0  0  0  0  0  0  0  0
   -0.3625    3.1692    1.0678 C   0  0  0  0  0  0  0  0  0  0  0  0
   -0.1346    3.9315   -0.2334 C   0  0  0  0  0  0  0  0  0  0  0  0
    1.3448   -0.1832    0.0508 C   0  0  0  0  0  0  0  0  0  0  0  0
    1.3482   -1.2004   -0.9044 C   0  0  0  0  0  0  0  0  0  0  0  0
   -1.2866   -0.1630    1.1333 C   0  0  0  0  0  0  0  0  0  0  0  0
    2.2290   -0.2375    1.1288 C   0  0  0  0  0  0  0  0  0  0  0  0
   -2.7416   -0.6007    1.0806 C   0  0  0  0  0  0  0  0  0  0  0  0
    2.2348   -2.2703   -0.7816 C   0  0  0  0  0  0  0  0  0  0  0  0
    0.4116   -1.1647   -2.0671 C   0  0  0  0  0  0  0  0  0  0  0  0
    3.1154   -1.3075    1.2516 C   0  0  0  0  0  0  0  0  0  0  0  0
    3.1182   -2.3239    0.2964 C   0  0  0  0  0  0  0  0  0  0  0  0
   -4.3899   -1.8446   -0.1476 C   0  0  0  0  0  0  0  0  0  0  0  0
   -2.1294   -2.6483   -0.0174 C   0  0  0  0  0  0  0  0  0  0  0  0
  1  3  1  0
  1 11  1  0
  2 13  1  0
  2 18  1  0
  2 19  1  0
  3  4  1  0
  3  5  1  0
  3  9  1  0
  4  6  1  0
  5  7  1  0
  6  8  1  0
  7  8  1  0
  9 10  2  0
  9 12  1  0
 10 14  1  0
 10 15  1  0
 11 13  1  0
 12 16  2  0
 14 17  2  0
 16 17  1  0
M  END
>  <PUBCHEM_COMPOUND_CID>  (1) 
36734

>  <PUBCHEM_CONFORMER_RMSD>  (1) 
0.8

>  <PUBCHEM_CONFORMER_DIVERSEORDER>  (1) 
2
7
4
1
5
8
6
3

>  <PUBCHEM_MMFF94_PARTIAL_CHARGES>  (1) 
18
1 -0.56
10 -0.14
11 0.28
12 -0.15
13 0.27
14 -0.15
15 0.14
16 -0.15
17 -0.15
18 0.27
19 0.27
2 -0.81
3 0.42
32 0.15
35 0.15
39 0.15
40 0.15
9 -0.14

>  <PUBCHEM_EFFECTIVE_ROTOR_COUNT>  (1) 
6.2

>  <PUBCHEM_PHARMACOPHORE_FEATURES>  (1) 
4
1 1 acceptor
1 2 cation
6 3 4 5 6 7 8 rings
6 9 10 12 14 16 17 rings

>  <PUBCHEM_HEAVY_ATOM_COUNT>  (1) 
19

>  <PUBCHEM_ATOM_DEF_STEREO_COUNT>  (1) 
0

>  <PUBCHEM_ATOM_UDEF_STEREO_COUNT>  (1) 
0

>  <PUBCHEM_BOND_DEF_STEREO_COUNT>  (1) 
0

>  <PUBCHEM_BOND_UDEF_STEREO_COUNT>  (1) 
0

>  <PUBCHEM_ISOTOPIC_ATOM_COUNT>  (1) 
0

>  <PUBCHEM_COMPONENT_COUNT>  (1) 
1

>  <PUBCHEM_CACTVS_TAUTO_COUNT>  (1) 
1

>  <PUBCHEM_CONFORMER_ID>  (1) 
00008F7E00000002

>  <PUBCHEM_MMFF94_ENERGY>  (1) 
66.676

>  <PUBCHEM_FEATURE_SELFOVERLAP>  (1) 
20.297

>  <PUBCHEM_SHAPE_FINGERPRINT>  (1) 
11322862 65 17546739152995220811
11578080 2 17240750758175719116
116883 192 18337951169444363805
12423570 1 11759134618569773060
12500047 106 17471574331029899002
12553582 1 18338536182555471075
12633257 1 17772195206414465322
13004483 165 18263631901178522882
13083527 12 18335131008287392200
13134695 92 18338783632937938741
13681431 1 18262811777209819881
14817 1 18053954943588055398
15852999 172 17330263975409197662
16945 1 18197784293258688914
20600515 1 18412270501771100515
21524375 3 17259072207949500565
21756936 100 15337969015343695370
22112679 90 17973759932823183796
2255824 54 18050012395754617865
23419403 2 17536552474227707940
238 59 17760669348285162131
257057 1 18410011018139525593
3060560 45 17758961815122319565
6442390 28 17404311693946769313
6443956 14 18411133658535566147
7364860 26 18122908891357831441
81228 2 18118695313549685489

>  <PUBCHEM_SHAPE_MULTIPOLES>  (1) 
380.16
4.65
4.41
1.56
0.38
2.81
-0.37
-5.45
1.09
-3.59
-0.56
0.34
0.36
0.29

>  <PUBCHEM_SHAPE_SELFOVERLAP>  (1) 
781.909

>  <PUBCHEM_SHAPE_VOLUME>  (1) 
219.1

>  <PUBCHEM_COORDINATE_TYPE>  (1) 
2
5
10

$$$$
