3674
     RDKit          3D

 23 25  0  0  0  0  0  0  0  0999 V2000
   -0.8556   -1.1206    2.3672 O   0  0  0  0  0  0  0  0  0  0  0  0
   -1.0451   -0.3362   -2.3732 O   0  0  0  0  0  0  0  0  0  0  0  0
    2.9557   -2.8375   -0.5081 O   0  0  0  0  0  0  0  0  0  0  0  0
   -4.5400    1.2148    0.4619 O   0  0  0  0  0  0  0  0  0  0  0  0
    3.8463   -0.6672   -0.2305 N   0  0  0  0  0  0  0  0  0  0  0  0
    1.5681   -0.8702   -0.1484 C   0  0  0  0  0  0  0  0  0  0  0  0
    1.9058    0.5362    0.0430 C   0  0  0  0  0  0  0  0  0  0  0  0
    3.3010    0.6035   -0.0156 C   0  0  0  0  0  0  0  0  0  0  0  0
   -0.9267   -0.7419   -0.0060 C   0  0  0  0  0  0  0  0  0  0  0  0
    0.3615   -1.4397   -0.1730 C   0  0  0  0  0  0  0  0  0  0  0  0
    2.8453   -1.6393   -0.3251 C   0  0  0  0  0  0  0  0  0  0  0  0
    1.1525    1.6761    0.2497 C   0  0  0  0  0  0  0  0  0  0  0  0
   -1.4749   -0.6153    1.2622 C   0  0  0  0  0  0  0  0  0  0  0  0
   -1.5706   -0.2230   -1.1200 C   0  0  0  0  0  0  0  0  0  0  0  0
    3.9905    1.7915    0.1268 C   0  0  0  0  0  0  0  0  0  0  0  0
    1.8309    2.8908    0.3966 C   0  0  0  0  0  0  0  0  0  0  0  0
   -2.6937    0.0446    1.4197 C   0  0  0  0  0  0  0  0  0  0  0  0
   -2.7895    0.4368   -0.9621 C   0  0  0  0  0  0  0  0  0  0  0  0
    3.2361    2.9478    0.3358 C   0  0  0  0  0  0  0  0  0  0  0  0
   -3.3509    0.5707    0.3077 C   0  0  0  0  0  0  0  0  0  0  0  0
   -1.1788   -2.4595    2.7342 C   0  0  0  0  0  0  0  0  0  0  0  0
   -1.4099   -1.4909   -3.1255 C   0  0  0  0  0  0  0  0  0  0  0  0
   -5.1578    1.7284   -0.7172 C   0  0  0  0  0  0  0  0  0  0  0  0
  1 13  1  0
  1 21  1  0
  2 14  1  0
  2 22  1  0
  3 11  2  0
  4 20  1  0
  4 23  1  0
  5  8  1  0
  5 11  1  0
  6  7  1  0
  6 10  2  0
  6 11  1  0
  7  8  2  0
  7 12  1  0
  8 15  1  0
  9 10  1  0
  9 13  2  0
  9 14  1  0
 12 16  2  0
 13 17  1  0
 14 18  2  0
 15 19  2  0
 16 19  1  0
 17 20  2  0
 18 20  1  0
M  END
>  <PUBCHEM_COMPOUND_CID>  (1) 
3674

>  <PUBCHEM_CONFORMER_RMSD>  (1) 
0.8

>  <PUBCHEM_CONFORMER_DIVERSEORDER>  (1) 
1
2

>  <PUBCHEM_MMFF94_PARTIAL_CHARGES>  (1) 
31
1 -0.36
10 -0.18
11 0.62
12 -0.15
13 0.08
14 0.08
15 -0.15
16 -0.15
17 -0.15
18 -0.15
19 -0.15
2 -0.36
20 0.08
21 0.28
22 0.28
23 0.28
24 0.15
25 0.37
26 0.15
27 0.15
28 0.15
29 0.15
3 -0.57
30 0.15
31 0.15
4 -0.36
5 -0.55
6 -0.01
7 0.03
8 0.12
9 0.03

>  <PUBCHEM_EFFECTIVE_ROTOR_COUNT>  (1) 
4.2

>  <PUBCHEM_PHARMACOPHORE_FEATURES>  (1) 
8
1 1 acceptor
1 2 acceptor
1 3 acceptor
1 4 acceptor
1 5 donor
5 5 6 7 8 11 rings
6 7 8 12 15 16 19 rings
6 9 13 14 17 18 20 rings

>  <PUBCHEM_HEAVY_ATOM_COUNT>  (1) 
23

>  <PUBCHEM_ATOM_DEF_STEREO_COUNT>  (1) 
0

>  <PUBCHEM_ATOM_UDEF_STEREO_COUNT>  (1) 
0

>  <PUBCHEM_BOND_DEF_STEREO_COUNT>  (1) 
0

>  <PUBCHEM_BOND_UDEF_STEREO_COUNT>  (1) 
1

>  <PUBCHEM_ISOTOPIC_ATOM_COUNT>  (1) 
0

>  <PUBCHEM_COMPONENT_COUNT>  (1) 
1

>  <PUBCHEM_CACTVS_TAUTO_COUNT>  (1) 
2

>  <PUBCHEM_CONFORMER_ID>  (1) 
00000E5A00000001

>  <PUBCHEM_MMFF94_ENERGY>  (1) 
108.3392

>  <PUBCHEM_FEATURE_SELFOVERLAP>  (1) 
40.687

>  <PUBCHEM_SHAPE_FINGERPRINT>  (1) 
11640471 11 17560527299617415832
12236239 1 17417808400819149142
12633257 1 17168979148603724216
13134695 92 18268432339201809900
13583140 156 18412271653049345079
15295992 7 18259988166882945153
16752209 62 15841557344849892595
16945 1 18269845224465197739
17980427 26 18115569471049160823
1813 80 17628651756338645078
18219364 16 18195537119362236472
19049666 15 18186806850755521402
20645476 183 17703785946755304823
20715895 44 17557710162313327313
20832881 197 17972883553236214603
21033648 29 17748836194021102625
21475661 188 18188203213586358829
21486144 27 18259704523058473886
229495 10 17984718958649258355
22956985 138 15214687193091075785
23175994 123 18193004720571381190
23227448 37 18341330097688912733
23558518 356 18043248148707722027
23559900 14 17749966465735030638
25 1 18410007767102704332
350125 39 17907586083593646856
4409770 3 14602268866868901167
469060 322 17478887646284706267
474 4 18341325690789028056
495365 180 18342451560725961104
513202 73 17192365439300384622
5265222 85 16805907125706885178
56616090 13 18411974780694207449
633830 44 18261384512886658829
77492 1 17418095399197700858
7832392 63 18130497617586436364
81228 2 16879637204898438475
9981440 41 17838877580177887728

>  <PUBCHEM_SHAPE_MULTIPOLES>  (1) 
444.87
7.61
2.9
2.1
2.28
0.47
0.36
4.78
0.42
-2.16
-0.54
2.11
-1.75
0.94

>  <PUBCHEM_SHAPE_SELFOVERLAP>  (1) 
974.282

>  <PUBCHEM_SHAPE_VOLUME>  (1) 
243.5

>  <PUBCHEM_COORDINATE_TYPE>  (1) 
2
5
10

$$$$
