36744
     RDKit          3D

  6  6  0  0  0  0  0  0  0  0999 V2000
   -1.4255    0.7559    0.0455 O   0  0  0  0  0  0  0  0  0  0  0  0
   -0.0322   -1.2182    0.0701 C   0  0  0  0  0  0  0  0  0  0  0  0
    0.7569    0.0321   -0.0013 C   0  0  0  0  0  0  0  0  0  0  0  0
   -1.4536   -0.6805   -0.0846 C   0  0  0  0  0  0  0  0  0  0  0  0
   -0.0836    1.0601   -0.0050 C   0  0  0  0  0  0  0  0  0  0  0  0
    2.2380    0.0507   -0.0247 C   0  0  0  0  0  0  0  0  0  0  0  0
  1  4  1  0
  1  5  1  0
  2  3  1  0
  2  4  1  0
  3  5  2  0
  3  6  1  0
M  END
>  <PUBCHEM_COMPOUND_CID>  (1) 
36744

>  <PUBCHEM_CONFORMER_RMSD>  (1) 
0.4

>  <PUBCHEM_CONFORMER_DIVERSEORDER>  (1) 
1

>  <PUBCHEM_MMFF94_PARTIAL_CHARGES>  (1) 
7
1 -0.36
11 0.15
2 0.14
3 -0.28
4 0.28
5 -0.07
6 0.14

>  <PUBCHEM_EFFECTIVE_ROTOR_COUNT>  (1) 
0.6

>  <PUBCHEM_PHARMACOPHORE_FEATURES>  (1) 
2
1 1 acceptor
5 1 2 3 4 5 rings

>  <PUBCHEM_HEAVY_ATOM_COUNT>  (1) 
6

>  <PUBCHEM_ATOM_DEF_STEREO_COUNT>  (1) 
0

>  <PUBCHEM_ATOM_UDEF_STEREO_COUNT>  (1) 
0

>  <PUBCHEM_BOND_DEF_STEREO_COUNT>  (1) 
0

>  <PUBCHEM_BOND_UDEF_STEREO_COUNT>  (1) 
0

>  <PUBCHEM_ISOTOPIC_ATOM_COUNT>  (1) 
0

>  <PUBCHEM_COMPONENT_COUNT>  (1) 
1

>  <PUBCHEM_CACTVS_TAUTO_COUNT>  (1) 
1

>  <PUBCHEM_CONFORMER_ID>  (1) 
00008F8800000001

>  <PUBCHEM_MMFF94_ENERGY>  (1) 
9.4813

>  <PUBCHEM_FEATURE_SELFOVERLAP>  (1) 
10.148

>  <PUBCHEM_SHAPE_FINGERPRINT>  (1) 
139733 1 9150912571380270742
16714656 1 18410579495800233326
20096714 4 18338518521528136800
21015797 1 9294413136809130931
21040471 1 18266740177573737320
23552423 10 18260835865037365014
29004967 10 18337116781610118506
5943 1 12462436101526063643

>  <PUBCHEM_SHAPE_MULTIPOLES>  (1) 
117.61
2.2
1.21
0.6
0.86
0.03
0
0.05
0.04
-0.26
-0.02
0.02
0.01
-0.02

>  <PUBCHEM_SHAPE_SELFOVERLAP>  (1) 
231.475

>  <PUBCHEM_SHAPE_VOLUME>  (1) 
72.4

>  <PUBCHEM_COORDINATE_TYPE>  (1) 
2
5
10

$$$$
