36752
     RDKit          3D

 20 23  0  0  0  0  0  0  0  0999 V2000
   -2.2588    3.3036    1.2933 Br  0  0  0  0  0  0  0  0  0  0  0  0
   -0.2735   -1.3785    0.0666 N   0  0  0  0  0  0  0  0  0  0  0  0
    0.0283    0.9796   -0.2106 C   0  0  0  0  0  0  0  0  0  0  0  0
    0.5547   -0.3138   -0.0396 C   0  0  0  0  0  0  0  0  0  0  0  0
   -1.3611    1.1336   -0.2673 C   0  0  0  0  0  0  0  0  0  0  0  0
    1.9579   -0.4662    0.0176 C   0  0  0  0  0  0  0  0  0  0  0  0
   -2.2070    0.0277   -0.1563 C   0  0  0  0  0  0  0  0  0  0  0  0
    2.8104    0.6626   -0.0955 C   0  0  0  0  0  0  0  0  0  0  0  0
   -1.6110   -1.2297    0.0120 C   0  0  0  0  0  0  0  0  0  0  0  0
    0.8748    2.0893   -0.3217 C   0  0  0  0  0  0  0  0  0  0  0  0
    2.2543    1.9320   -0.2646 C   0  0  0  0  0  0  0  0  0  0  0  0
   -1.9570    2.5029   -0.4490 C   0  0  0  0  0  0  0  0  0  0  0  0
    2.5633   -1.7297    0.1872 C   0  0  0  0  0  0  0  0  0  0  0  0
   -3.6064    0.1529   -0.2096 C   0  0  0  0  0  0  0  0  0  0  0  0
    4.2048    0.5014   -0.0372 C   0  0  0  0  0  0  0  0  0  0  0  0
   -2.4436   -2.3401    0.1237 C   0  0  0  0  0  0  0  0  0  0  0  0
    3.9512   -1.8748    0.2434 C   0  0  0  0  0  0  0  0  0  0  0  0
   -4.4179   -0.9718   -0.0954 C   0  0  0  0  0  0  0  0  0  0  0  0
    4.7712   -0.7598    0.1312 C   0  0  0  0  0  0  0  0  0  0  0  0
   -3.8347   -2.2213    0.0717 C   0  0  0  0  0  0  0  0  0  0  0  0
  1 12  1  0
  2  4  2  0
  2  9  1  0
  3  4  1  0
  3  5  2  0
  3 10  1  0
  4  6  1  0
  5  7  1  0
  5 12  1  0
  6  8  2  0
  6 13  1  0
  7  9  2  0
  7 14  1  0
  8 11  1  0
  8 15  1  0
  9 16  1  0
 10 11  2  0
 13 17  2  0
 14 18  2  0
 15 19  2  0
 16 20  2  0
 17 19  1  0
 18 20  1  0
M  END
>  <PUBCHEM_COMPOUND_CID>  (1) 
36752

>  <PUBCHEM_CONFORMER_RMSD>  (1) 
0.6

>  <PUBCHEM_CONFORMER_DIVERSEORDER>  (1) 
2
1

>  <PUBCHEM_MMFF94_PARTIAL_CHARGES>  (1) 
26
1 -0.23
10 -0.15
11 -0.15
12 0.37
13 -0.15
14 -0.15
15 -0.15
16 -0.15
17 -0.15
18 -0.15
19 -0.15
2 -0.62
20 -0.15
21 0.15
22 0.15
25 0.15
26 0.15
27 0.15
28 0.15
29 0.15
30 0.15
31 0.15
32 0.15
4 0.31
5 -0.14
9 0.31

>  <PUBCHEM_EFFECTIVE_ROTOR_COUNT>  (1) 
1

>  <PUBCHEM_PHARMACOPHORE_FEATURES>  (1) 
6
1 1 hydrophobe
1 2 acceptor
6 2 3 4 5 7 9 rings
6 3 4 6 8 10 11 rings
6 6 8 13 15 17 19 rings
6 7 9 14 16 18 20 rings

>  <PUBCHEM_HEAVY_ATOM_COUNT>  (1) 
20

>  <PUBCHEM_ATOM_DEF_STEREO_COUNT>  (1) 
0

>  <PUBCHEM_ATOM_UDEF_STEREO_COUNT>  (1) 
0

>  <PUBCHEM_BOND_DEF_STEREO_COUNT>  (1) 
0

>  <PUBCHEM_BOND_UDEF_STEREO_COUNT>  (1) 
0

>  <PUBCHEM_ISOTOPIC_ATOM_COUNT>  (1) 
0

>  <PUBCHEM_COMPONENT_COUNT>  (1) 
1

>  <PUBCHEM_CACTVS_TAUTO_COUNT>  (1) 
1

>  <PUBCHEM_CONFORMER_ID>  (1) 
00008F9000000002

>  <PUBCHEM_MMFF94_ENERGY>  (1) 
74.2023

>  <PUBCHEM_FEATURE_SELFOVERLAP>  (1) 
30.532

>  <PUBCHEM_SHAPE_FINGERPRINT>  (1) 
10319926 262 18124571143377454986
10493431 412 17981331092831045393
10616163 171 18411420587830923638
10967382 1 18120937466803507134
1100329 8 17399792705372397467
11578080 2 17631432618423123369
116883 192 18412549786135272294
11806522 49 18334293197422253614
12107183 9 17761208813463144682
12403259 226 18410848888891963692
12553582 1 18339635766991897862
12788726 201 18272386273167933713
13140716 1 18338805619012871971
13583140 156 14405188331024410623
138480 1 15383870958037996309
14178342 30 18338223870114099336
14223421 5 18411412934272879664
14790565 3 16828138966782500436
14866123 147 17907580224704731147
15042514 8 18120932811533893834
15131766 46 14978523292118504888
15196674 1 18408602595178463470
15352361 1 18408884065892173598
15442244 35 18409730617031226362
15475509 84 17834711501483641731
15536298 74 18339922731173734730
16945 1 18409452513356118149
17492 89 18409729547616895162
17804303 29 18411702088387111716
1813 80 17313101981557252550
19141452 34 18341614845541933847
19591789 44 16683454209649249566
200 152 18271520991913217327
20510252 161 18342455907174803281
20775438 99 16903506589390052943
21029758 11 18340480171063923455
21267235 1 18336553792939064566
21501502 16 18408892810725091684
221490 88 18189340245641802410
23184049 29 18410577288039376236
2334 1 17905329885263978045
23402539 116 18343293769764029255
23463225 33 18337391642316094287
23557571 272 18201163148636668894
23558518 356 18335149652334398065
23559900 14 18338508733551195144
25147074 1 18260559900804291108
2748010 2 18193838145810388148
2871803 45 18260823821658884158
3091708 16 9062065447966972153
312423 11 18261971690391816332
335352 9 18336825295491785655
34934 24 18268142252620706247
350125 39 18410578370318900289
394222 165 16666829035866918740
4214541 1 18337670819706743572
463206 1 18122904501954879423
5104073 3 18410291432174964304
6992083 37 18190189996220910444
7364860 26 18267302213189819440
8809292 202 18187648045612128083
9709674 26 18341051813636052446

>  <PUBCHEM_SHAPE_MULTIPOLES>  (1) 
412.55
8.28
3.26
0.76
3.84
1.49
0.12
-3.64
0.4
-2.45
0.64
-0.23
0.37
-0.66

>  <PUBCHEM_SHAPE_SELFOVERLAP>  (1) 
928.823

>  <PUBCHEM_SHAPE_VOLUME>  (1) 
224.7

>  <PUBCHEM_COORDINATE_TYPE>  (1) 
2
5
10

$$$$
