36751
     RDKit          3D

 17 19  0  0  0  0  0  0  0  0999 V2000
    0.0002    3.5419    1.2273 Br  0  0  0  0  0  0  0  0  0  0  0  0
   -1.2250    0.4774   -0.1789 C   0  0  0  0  0  0  0  0  0  0  0  0
    1.2251    0.4774   -0.1787 C   0  0  0  0  0  0  0  0  0  0  0  0
   -1.2251   -0.9199    0.0250 C   0  0  0  0  0  0  0  0  0  0  0  0
    1.2250   -0.9201    0.0248 C   0  0  0  0  0  0  0  0  0  0  0  0
    0.0001    1.1578   -0.2782 C   0  0  0  0  0  0  0  0  0  0  0  0
    0.0000   -1.6005    0.1238 C   0  0  0  0  0  0  0  0  0  0  0  0
   -2.4505    1.1570   -0.2777 C   0  0  0  0  0  0  0  0  0  0  0  0
    2.4507    1.1569   -0.2770 C   0  0  0  0  0  0  0  0  0  0  0  0
   -2.4504   -1.5997    0.1244 C   0  0  0  0  0  0  0  0  0  0  0  0
    2.4503   -1.5999    0.1237 C   0  0  0  0  0  0  0  0  0  0  0  0
    0.0000    2.6471   -0.4950 C   0  0  0  0  0  0  0  0  0  0  0  0
   -0.0002   -3.0897    0.3407 C   0  0  0  0  0  0  0  0  0  0  0  0
   -3.6588    0.4670   -0.1763 C   0  0  0  0  0  0  0  0  0  0  0  0
    3.6588    0.4669   -0.1760 C   0  0  0  0  0  0  0  0  0  0  0  0
   -3.6588   -0.9097    0.0243 C   0  0  0  0  0  0  0  0  0  0  0  0
    3.6586   -0.9099    0.0240 C   0  0  0  0  0  0  0  0  0  0  0  0
  1 12  1  0
  2  4  1  0
  2  6  2  0
  2  8  1  0
  3  5  2  0
  3  6  1  0
  3  9  1  0
  4  7  2  0
  4 10  1  0
  5  7  1  0
  5 11  1  0
  6 12  1  0
  7 13  1  0
  8 14  2  0
  9 15  2  0
 10 16  2  0
 11 17  2  0
 14 16  1  0
 15 17  1  0
M  END
>  <PUBCHEM_COMPOUND_CID>  (1) 
36751

>  <PUBCHEM_CONFORMER_RMSD>  (1) 
0.6

>  <PUBCHEM_CONFORMER_DIVERSEORDER>  (1) 
1

>  <PUBCHEM_MMFF94_PARTIAL_CHARGES>  (1) 
21
1 -0.23
10 -0.15
11 -0.15
12 0.37
13 0.14
14 -0.15
15 -0.15
16 -0.15
17 -0.15
18 0.15
19 0.15
20 0.15
21 0.15
27 0.15
28 0.15
29 0.15
30 0.15
6 -0.14
7 -0.14
8 -0.15
9 -0.15

>  <PUBCHEM_EFFECTIVE_ROTOR_COUNT>  (1) 
1

>  <PUBCHEM_PHARMACOPHORE_FEATURES>  (1) 
4
1 1 hydrophobe
6 2 3 4 5 6 7 rings
6 2 4 8 10 14 16 rings
6 3 5 9 11 15 17 rings

>  <PUBCHEM_HEAVY_ATOM_COUNT>  (1) 
17

>  <PUBCHEM_ATOM_DEF_STEREO_COUNT>  (1) 
0

>  <PUBCHEM_ATOM_UDEF_STEREO_COUNT>  (1) 
0

>  <PUBCHEM_BOND_DEF_STEREO_COUNT>  (1) 
0

>  <PUBCHEM_BOND_UDEF_STEREO_COUNT>  (1) 
0

>  <PUBCHEM_ISOTOPIC_ATOM_COUNT>  (1) 
0

>  <PUBCHEM_COMPONENT_COUNT>  (1) 
1

>  <PUBCHEM_CACTVS_TAUTO_COUNT>  (1) 
1

>  <PUBCHEM_CONFORMER_ID>  (1) 
00008F8F00000001

>  <PUBCHEM_MMFF94_ENERGY>  (1) 
68.9518

>  <PUBCHEM_FEATURE_SELFOVERLAP>  (1) 
20.349

>  <PUBCHEM_SHAPE_FINGERPRINT>  (1) 
104564 63 18198349450588222320
108231 29 18412545448170862928
10967382 1 18408886243456325990
11132069 177 18410568479109002722
11680986 33 17905606962225904121
12032990 46 18409172107842140422
12382932 28 18411138013157514113
12403259 226 18337104695946635295
12954195 1 18055374461187913436
13027679 85 18412262835381473909
13132413 78 18410858780280722477
13140716 1 18410012091760140962
14178342 30 17834384628158961304
14790565 3 18337969903839261253
15196674 1 18408323284849471727
15442244 35 17977101262956042426
15536298 74 18412825789677004054
16945 1 17313103055251655167
193761 8 17688870839205989639
19591789 44 18408887338673408675
200 152 18201147828673076935
20510252 161 18341329990257032896
20511035 2 17837494415855741084
20905425 154 18124313796514286094
21029758 11 18341325673682933933
21267235 1 18336555957586731527
21501502 16 17761212116023722434
2334 1 18409449214821163310
23402539 116 18342166774361172094
23419403 2 15970951326080781267
23463225 33 18334294253731091798
23558518 356 18050300162942800100
23559900 14 18341053030013792668
2748010 2 18408884044369624135
335352 9 17976255738155359551
34934 24 18410846672640996014
350125 39 18193001632869346161
353137 74 18192146001657577320
43471831 8 18189613852296734986
5104073 3 18408322185343048066
528886 8 18408879629143334706
537710 114 18335708255654328356
53812653 166 18340484577130858432
589210 1 17689717879771126899
7364860 26 18125721446233509081
81228 2 18193853547642466576
8809292 202 18187369821930954771
9709674 26 18410017671208053486

>  <PUBCHEM_SHAPE_MULTIPOLES>  (1) 
355.79
5.46
3.44
0.78
0
1.76
-0.12
-1.34
0.42
0
-1.04
0
0.39
0

>  <PUBCHEM_SHAPE_SELFOVERLAP>  (1) 
781.951

>  <PUBCHEM_SHAPE_VOLUME>  (1) 
195.3

>  <PUBCHEM_COORDINATE_TYPE>  (1) 
2
5
10

$$$$
