36759
     RDKit          3D

 14 15  0  0  1  0  0  0  0  0999 V2000
    1.1361   -1.4946   -0.0785 O   0  0  0  0  0  0  0  0  0  0  0  0
   -3.9351    0.5771    0.1178 O   0  0  0  0  0  0  0  0  0  0  0  0
    3.9843    0.8556   -0.1980 N   0  0  0  0  0  0  0  0  0  0  0  0
    1.8617   -0.3082   -0.4966 C   0  0  0  0  0  0  0  0  0  0  0  0
    1.0139    0.9312   -0.1704 C   0  0  0  0  0  0  0  0  0  0  0  0
   -0.3198    0.2933   -0.1058 C   0  0  0  0  0  0  0  0  0  0  0  0
    3.2144   -0.2881    0.1960 C   0  0  0  0  0  0  0  0  0  0  0  0
   -0.1711   -1.0831   -0.0303 C   0  0  0  0  0  0  0  0  0  0  0  0
   -1.5730    0.8756   -0.0539 C   0  0  0  0  0  0  0  0  0  0  0  0
   -1.2545   -1.9296    0.1025 C   0  0  0  0  0  0  0  0  0  0  0  0
   -2.6849    0.0379    0.0668 C   0  0  0  0  0  0  0  0  0  0  0  0
   -2.5265   -1.3557    0.1463 C   0  0  0  0  0  0  0  0  0  0  0  0
    5.2867    0.8912    0.4716 C   0  0  0  0  0  0  0  0  0  0  0  0
   -4.0322    1.9974    0.0325 C   0  0  0  0  0  0  0  0  0  0  0  0
  1  4  1  0
  1  8  1  0
  2 11  1  0
  2 14  1  0
  3  7  1  0
  3 13  1  0
  4  5  1  0
  4  7  1  0
  5  6  1  0
  6  8  2  0
  6  9  1  0
  8 10  1  0
  9 11  2  0
 10 12  2  0
 11 12  1  0
M  END
>  <PUBCHEM_COMPOUND_CID>  (1) 
36759

>  <PUBCHEM_CONFORMER_RMSD>  (1) 
0.6

>  <PUBCHEM_CONFORMER_DIVERSEORDER>  (1) 
3
6
5
7
8
12
10
13
1
9
11
2
4

>  <PUBCHEM_MMFF94_PARTIAL_CHARGES>  (1) 
18
1 -0.36
10 -0.15
11 0.08
12 -0.15
13 0.27
14 0.28
2 -0.36
20 0.15
21 0.15
22 0.36
23 0.15
3 -0.9
4 0.28
5 0.14
6 -0.14
7 0.27
8 0.08
9 -0.15

>  <PUBCHEM_EFFECTIVE_ROTOR_COUNT>  (1) 
3.6

>  <PUBCHEM_PHARMACOPHORE_FEATURES>  (1) 
6
1 1 acceptor
1 2 acceptor
1 3 cation
1 3 donor
5 1 4 5 6 8 rings
6 6 8 9 10 11 12 rings

>  <PUBCHEM_HEAVY_ATOM_COUNT>  (1) 
14

>  <PUBCHEM_ATOM_DEF_STEREO_COUNT>  (1) 
0

>  <PUBCHEM_ATOM_UDEF_STEREO_COUNT>  (1) 
1

>  <PUBCHEM_BOND_DEF_STEREO_COUNT>  (1) 
0

>  <PUBCHEM_BOND_UDEF_STEREO_COUNT>  (1) 
0

>  <PUBCHEM_ISOTOPIC_ATOM_COUNT>  (1) 
0

>  <PUBCHEM_COMPONENT_COUNT>  (1) 
1

>  <PUBCHEM_CACTVS_TAUTO_COUNT>  (1) 
1

>  <PUBCHEM_CONFORMER_ID>  (1) 
00008F9700000003

>  <PUBCHEM_MMFF94_ENERGY>  (1) 
42.612

>  <PUBCHEM_FEATURE_SELFOVERLAP>  (1) 
30.548

>  <PUBCHEM_SHAPE_FINGERPRINT>  (1) 
10014705 185 18411697707547083845
10608611 8 18341611563685636328
11132069 177 18409451397002075428
11401426 45 18411978074416762572
11543360 7 15841539786802196357
12119455 92 17418373593293911022
12251169 10 18187648028416129196
12346645 44 18338800005411371177
12500047 106 18342171189402747434
13214271 11 18342174505059445382
13380535 76 18410857650741246679
13675066 3 17894918403523320418
14325111 11 18410294700613414215
14897335 6 18411136913746301471
15196674 1 18410575063204326530
15219456 202 18273222984452690886
15375358 24 18272934920863857006
15536298 74 18341051826837328782
15775835 57 18334577923335760003
16945 1 18337402607631494391
18186145 218 18200889365355613021
20510252 161 18343589533822536201
20645477 56 18410578383224563421
20645477 70 17060067995345779670
23402539 116 18342449352817339284
23402655 69 18271233908284322277
23557571 272 18059302070544865478
23559900 14 18343867693659623966
2748010 2 18195249038562190079
293599 30 18340208501123399417
5104073 3 18408605829341800090
53812653 166 18413106156177521640
573450 72 18261661662794301522
6333449 129 18412824720056100023
6430166 295 18408322176885280220
7364860 26 18268711602439843614

>  <PUBCHEM_SHAPE_MULTIPOLES>  (1) 
271.39
8.24
1.8
0.64
6.93
0.19
0
-4.51
-1.03
-1.41
-0.05
0.12
-0.01
0.14

>  <PUBCHEM_SHAPE_SELFOVERLAP>  (1) 
571.177

>  <PUBCHEM_SHAPE_VOLUME>  (1) 
155.3

>  <PUBCHEM_COORDINATE_TYPE>  (1) 
2
5
10

$$$$
