36765
     RDKit          3D

 13 14  0  0  1  0  0  0  0  0999 V2000
    0.2930   -1.1570   -0.1474 O   0  0  0  0  0  0  0  0  0  0  0  0
    3.6845    0.3075   -0.1898 N   0  0  0  0  0  0  0  0  0  0  0  0
    1.3211   -0.1998   -0.5156 C   0  0  0  0  0  0  0  0  0  0  0  0
    0.8540    1.2080   -0.1138 C   0  0  0  0  0  0  0  0  0  0  0  0
   -0.6046    0.9651   -0.0577 C   0  0  0  0  0  0  0  0  0  0  0  0
   -0.8467   -0.4000   -0.0551 C   0  0  0  0  0  0  0  0  0  0  0  0
    2.6256   -0.5950    0.1569 C   0  0  0  0  0  0  0  0  0  0  0  0
   -2.1233   -0.9163    0.0541 C   0  0  0  0  0  0  0  0  0  0  0  0
   -1.6447    1.8703    0.0464 C   0  0  0  0  0  0  0  0  0  0  0  0
   -3.1837   -0.0134    0.1501 C   0  0  0  0  0  0  0  0  0  0  0  0
   -2.9462    1.3712    0.1447 C   0  0  0  0  0  0  0  0  0  0  0  0
   -2.3741   -2.3831    0.0662 C   0  0  0  0  0  0  0  0  0  0  0  0
    4.9450   -0.0576    0.4610 C   0  0  0  0  0  0  0  0  0  0  0  0
  1  3  1  0
  1  6  1  0
  2  7  1  0
  2 13  1  0
  3  4  1  0
  3  7  1  0
  4  5  1  0
  5  6  2  0
  5  9  1  0
  6  8  1  0
  8 10  2  0
  8 12  1  0
  9 11  2  0
 10 11  1  0
M  END
>  <PUBCHEM_COMPOUND_CID>  (1) 
36765

>  <PUBCHEM_CONFORMER_RMSD>  (1) 
0.6

>  <PUBCHEM_CONFORMER_DIVERSEORDER>  (1) 
1
3
5
4
2

>  <PUBCHEM_MMFF94_PARTIAL_CHARGES>  (1) 
17
1 -0.36
10 -0.15
11 -0.15
12 0.14
13 0.27
19 0.15
2 -0.9
20 0.36
21 0.15
22 0.15
3 0.28
4 0.14
5 -0.14
6 0.08
7 0.27
8 -0.14
9 -0.15

>  <PUBCHEM_EFFECTIVE_ROTOR_COUNT>  (1) 
2.6

>  <PUBCHEM_PHARMACOPHORE_FEATURES>  (1) 
5
1 1 acceptor
1 2 cation
1 2 donor
5 1 3 4 5 6 rings
6 5 6 8 9 10 11 rings

>  <PUBCHEM_HEAVY_ATOM_COUNT>  (1) 
13

>  <PUBCHEM_ATOM_DEF_STEREO_COUNT>  (1) 
0

>  <PUBCHEM_ATOM_UDEF_STEREO_COUNT>  (1) 
1

>  <PUBCHEM_BOND_DEF_STEREO_COUNT>  (1) 
0

>  <PUBCHEM_BOND_UDEF_STEREO_COUNT>  (1) 
0

>  <PUBCHEM_ISOTOPIC_ATOM_COUNT>  (1) 
0

>  <PUBCHEM_COMPONENT_COUNT>  (1) 
1

>  <PUBCHEM_CACTVS_TAUTO_COUNT>  (1) 
1

>  <PUBCHEM_CONFORMER_ID>  (1) 
00008F9D00000001

>  <PUBCHEM_MMFF94_ENERGY>  (1) 
30.7935

>  <PUBCHEM_FEATURE_SELFOVERLAP>  (1) 
25.474

>  <PUBCHEM_SHAPE_FINGERPRINT>  (1) 
11132069 177 18410575067857840572
12251169 10 18409169904523813592
12500047 106 18339072701084662104
13024252 1 14851608765327007317
13214271 11 18272646861765598148
13380535 76 18341332189153544943
14325111 11 18339362968154696836
15219456 202 17988087681998647462
15669948 3 18411131437642068878
16945 1 18339372889613566189
17804303 29 18413393150440571008
20279233 1 18131637763931370334
20510252 161 18200596869709469233
20645464 45 18131636659961218765
20645477 56 18339084791417730213
20871998 184 18201443605447966503
21501502 16 18265623258496472645
23402539 116 18342449353529294455
23463225 33 18334295327773485662
23552423 10 18116438231147850005
23557571 272 18130240306185247932
23559900 14 18270683061538035454
2748010 2 18196089074109702525
3312278 4 18409450292900191714
43471831 8 18261954055240898498
573450 72 18261099756554804458
6333449 129 18413669093451795221
7364860 26 18053664681514821822
75552 356 18410294713519356607
8809292 202 18262804080728814859

>  <PUBCHEM_SHAPE_MULTIPOLES>  (1) 
256.68
6.76
1.88
0.65
8.9
0.39
0
0.3
-0.97
-1.89
-0.04
0.09
0
-0.06

>  <PUBCHEM_SHAPE_SELFOVERLAP>  (1) 
541.406

>  <PUBCHEM_SHAPE_VOLUME>  (1) 
147.1

>  <PUBCHEM_COORDINATE_TYPE>  (1) 
2
5
10

$$$$
