36787
     RDKit          3D

 14 15  0  0  1  0  0  0  0  0999 V2000
   -4.7633    1.5611    0.1403 Cl  0  0  0  0  0  0  0  0  0  0  0  0
    0.1652   -1.5674   -0.0779 O   0  0  0  0  0  0  0  0  0  0  0  0
    3.3807    0.2468   -0.2168 N   0  0  0  0  0  0  0  0  0  0  0  0
    1.0858   -0.5281   -0.5035 C   0  0  0  0  0  0  0  0  0  0  0  0
    0.4697    0.8419   -0.1800 C   0  0  0  0  0  0  0  0  0  0  0  0
    2.4238   -0.7429    0.1846 C   0  0  0  0  0  0  0  0  0  0  0  0
   -0.9550    0.4479   -0.1083 C   0  0  0  0  0  0  0  0  0  0  0  0
   -1.0496   -0.9329   -0.0274 C   0  0  0  0  0  0  0  0  0  0  0  0
   -2.0865    1.2411   -0.0549 C   0  0  0  0  0  0  0  0  0  0  0  0
   -2.2640   -1.5759    0.1126 C   0  0  0  0  0  0  0  0  0  0  0  0
    4.6718    0.0556    0.4483 C   0  0  0  0  0  0  0  0  0  0  0  0
   -3.3275    0.6118    0.0730 C   0  0  0  0  0  0  0  0  0  0  0  0
   -3.4155   -0.7878    0.1580 C   0  0  0  0  0  0  0  0  0  0  0  0
    5.6644    1.1289    0.0520 C   0  0  0  0  0  0  0  0  0  0  0  0
  1 12  1  0
  2  4  1  0
  2  8  1  0
  3  6  1  0
  3 11  1  0
  4  5  1  0
  4  6  1  0
  5  7  1  0
  7  8  2  0
  7  9  1  0
  8 10  1  0
  9 12  2  0
 10 13  2  0
 11 14  1  0
 12 13  1  0
M  END
>  <PUBCHEM_COMPOUND_CID>  (1) 
36787

>  <PUBCHEM_CONFORMER_RMSD>  (1) 
0.6

>  <PUBCHEM_CONFORMER_DIVERSEORDER>  (1) 
1
6
12
11
5
9
4
2
7
8
3
10

>  <PUBCHEM_MMFF94_PARTIAL_CHARGES>  (1) 
17
1 -0.18
10 -0.15
11 0.27
12 0.18
13 -0.15
2 -0.36
20 0.36
21 0.15
22 0.15
25 0.15
3 -0.9
4 0.28
5 0.14
6 0.27
7 -0.14
8 0.08
9 -0.15

>  <PUBCHEM_EFFECTIVE_ROTOR_COUNT>  (1) 
3.6

>  <PUBCHEM_PHARMACOPHORE_FEATURES>  (1) 
5
1 2 acceptor
1 3 cation
1 3 donor
5 2 4 5 7 8 rings
6 7 8 9 10 12 13 rings

>  <PUBCHEM_HEAVY_ATOM_COUNT>  (1) 
14

>  <PUBCHEM_ATOM_DEF_STEREO_COUNT>  (1) 
0

>  <PUBCHEM_ATOM_UDEF_STEREO_COUNT>  (1) 
1

>  <PUBCHEM_BOND_DEF_STEREO_COUNT>  (1) 
0

>  <PUBCHEM_BOND_UDEF_STEREO_COUNT>  (1) 
0

>  <PUBCHEM_ISOTOPIC_ATOM_COUNT>  (1) 
0

>  <PUBCHEM_COMPONENT_COUNT>  (1) 
1

>  <PUBCHEM_CACTVS_TAUTO_COUNT>  (1) 
1

>  <PUBCHEM_CONFORMER_ID>  (1) 
00008FB300000001

>  <PUBCHEM_MMFF94_ENERGY>  (1) 
24.5026

>  <PUBCHEM_FEATURE_SELFOVERLAP>  (1) 
25.474

>  <PUBCHEM_SHAPE_FINGERPRINT>  (1) 
10014705 185 18409727357140687645
11132069 177 18408890619980281124
11401426 45 18410290307178355621
12119455 92 17346596365925519998
12251169 10 18259705592415731324
12390115 104 18057339296450866593
13214271 11 18342174487990384991
13380535 76 18410858716293984759
13675066 3 17530970137555025842
13897977 58 18408324414890159132
15048467 5 18412826867302663592
15196674 1 18410575067578460594
15219456 202 18130514045868193502
15501527 16 18412547612839706864
15536298 74 18339925909734883630
16945 1 18337966597293847583
187816 3 13110957622112036341
200 152 17489862744025568629
20510252 161 18271528593767980617
20645477 56 18410576167063591269
20645477 70 16916512437245267326
21637258 2 14346372233340916729
23402539 116 18342730827814993069
23402655 69 18199739247109688669
23557571 272 18060144283492999935
23559900 14 18343023251417909966
293599 30 18341051830842048249
296302 2 18271808995160895119
34934 24 18409443653228820647
3545911 37 18411140212681877580
449060 50 18409730647227859828
5104073 3 18336266760343018226
53812653 166 18341328912088028433
7364860 26 18124596388230252070

>  <PUBCHEM_SHAPE_MULTIPOLES>  (1) 
279.13
10.1
1.59
0.65
10.74
0.1
0
-4.71
-1.14
-1.08
-0.03
0.05
0
0

>  <PUBCHEM_SHAPE_SELFOVERLAP>  (1) 
575.199

>  <PUBCHEM_SHAPE_VOLUME>  (1) 
162.9

>  <PUBCHEM_COORDINATE_TYPE>  (1) 
2
5
10

$$$$
