36781
     RDKit          3D

 14 15  0  0  1  0  0  0  0  0999 V2000
   -3.0033   -2.4781    0.0823 Cl  0  0  0  0  0  0  0  0  0  0  0  0
   -0.2104   -1.1966   -0.1489 O   0  0  0  0  0  0  0  0  0  0  0  0
    3.2642    0.0574   -0.2190 N   0  0  0  0  0  0  0  0  0  0  0  0
    0.8718   -0.3050   -0.5265 C   0  0  0  0  0  0  0  0  0  0  0  0
    0.4944    1.1294   -0.1248 C   0  0  0  0  0  0  0  0  0  0  0  0
    2.1545   -0.7781    0.1374 C   0  0  0  0  0  0  0  0  0  0  0  0
   -0.9762    0.9766   -0.0617 C   0  0  0  0  0  0  0  0  0  0  0  0
   -1.3013   -0.3711   -0.0538 C   0  0  0  0  0  0  0  0  0  0  0  0
   -1.9584    1.9442    0.0439 C   0  0  0  0  0  0  0  0  0  0  0  0
   -2.6066   -0.8079    0.0623 C   0  0  0  0  0  0  0  0  0  0  0  0
    4.5046   -0.3834    0.4235 C   0  0  0  0  0  0  0  0  0  0  0  0
   -3.2876    1.5260    0.1490 C   0  0  0  0  0  0  0  0  0  0  0  0
   -3.6094    0.1585    0.1599 C   0  0  0  0  0  0  0  0  0  0  0  0
    5.6636    0.5280    0.0765 C   0  0  0  0  0  0  0  0  0  0  0  0
  1 10  1  0
  2  4  1  0
  2  8  1  0
  3  6  1  0
  3 11  1  0
  4  5  1  0
  4  6  1  0
  5  7  1  0
  7  8  2  0
  7  9  1  0
  8 10  1  0
  9 12  2  0
 10 13  2  0
 11 14  1  0
 12 13  1  0
M  END
>  <PUBCHEM_COMPOUND_CID>  (1) 
36781

>  <PUBCHEM_CONFORMER_RMSD>  (1) 
0.6

>  <PUBCHEM_CONFORMER_DIVERSEORDER>  (1) 
1
7
11
6
13
8
9
12
5
10
2
4
3

>  <PUBCHEM_MMFF94_PARTIAL_CHARGES>  (1) 
17
1 -0.18
10 0.18
11 0.27
12 -0.15
13 -0.15
2 -0.36
20 0.36
21 0.15
24 0.15
25 0.15
3 -0.9
4 0.28
5 0.14
6 0.27
7 -0.14
8 0.08
9 -0.15

>  <PUBCHEM_EFFECTIVE_ROTOR_COUNT>  (1) 
3.6

>  <PUBCHEM_PHARMACOPHORE_FEATURES>  (1) 
5
1 2 acceptor
1 3 cation
1 3 donor
5 2 4 5 7 8 rings
6 7 8 9 10 12 13 rings

>  <PUBCHEM_HEAVY_ATOM_COUNT>  (1) 
14

>  <PUBCHEM_ATOM_DEF_STEREO_COUNT>  (1) 
0

>  <PUBCHEM_ATOM_UDEF_STEREO_COUNT>  (1) 
1

>  <PUBCHEM_BOND_DEF_STEREO_COUNT>  (1) 
0

>  <PUBCHEM_BOND_UDEF_STEREO_COUNT>  (1) 
0

>  <PUBCHEM_ISOTOPIC_ATOM_COUNT>  (1) 
0

>  <PUBCHEM_COMPONENT_COUNT>  (1) 
1

>  <PUBCHEM_CACTVS_TAUTO_COUNT>  (1) 
1

>  <PUBCHEM_CONFORMER_ID>  (1) 
00008FAD00000001

>  <PUBCHEM_MMFF94_ENERGY>  (1) 
24.7492

>  <PUBCHEM_FEATURE_SELFOVERLAP>  (1) 
25.474

>  <PUBCHEM_SHAPE_FINGERPRINT>  (1) 
10014705 185 18187079525065050957
11132069 177 18410015403348666020
12251169 10 18408043991774293069
12390115 104 17986127213964502329
13024252 1 14779271886898683485
13140716 1 18339652264530630393
13214271 11 18272086101939588230
13380535 76 18341332176490195639
13897977 58 18409732872174101260
15099037 37 18341896324270188990
15219456 202 17988086573754692806
16945 1 18339373976456530933
17804303 29 18341896324285850760
20510252 161 18128257792247275361
20645477 56 18339646637786070029
20645477 70 16701464446978994294
20871998 184 18201723972507750615
21267235 1 18336837475602655979
21339142 51 18411132537391073565
21501502 16 18264778820860780397
21637258 2 15864649378783482161
2297311 6 18272384074466002916
23402539 116 18410285934622262031
23557571 272 18202292398254012044
23559900 14 18340479062641023608
2748010 2 18196370536417711173
34934 24 18335133151217629299
4214541 1 18410573964272746104
5104073 3 18411979144586404026
573450 72 18260819381005351490
77779 3 18411419497473277994
9709674 26 18342181024952182774

>  <PUBCHEM_SHAPE_MULTIPOLES>  (1) 
279.13
8.94
1.93
0.65
14.29
0.39
0
-0.01
-0.98
-2.44
-0.06
0.05
0.01
-0.08

>  <PUBCHEM_SHAPE_SELFOVERLAP>  (1) 
575.82

>  <PUBCHEM_SHAPE_VOLUME>  (1) 
162.6

>  <PUBCHEM_COORDINATE_TYPE>  (1) 
2
5
10

$$$$
