36783
     RDKit          3D

 13 14  0  0  1  0  0  0  0  0999 V2000
   -2.4400   -2.5657    0.0641 Cl  0  0  0  0  0  0  0  0  0  0  0  0
    0.2847   -1.1425   -0.1486 O   0  0  0  0  0  0  0  0  0  0  0  0
    3.6910    0.2874   -0.1894 N   0  0  0  0  0  0  0  0  0  0  0  0
    1.3225   -0.1955   -0.5158 C   0  0  0  0  0  0  0  0  0  0  0  0
    0.8698    1.2165   -0.1127 C   0  0  0  0  0  0  0  0  0  0  0  0
   -0.5912    0.9885   -0.0568 C   0  0  0  0  0  0  0  0  0  0  0  0
    2.6228   -0.6047    0.1564 C   0  0  0  0  0  0  0  0  0  0  0  0
   -0.8472   -0.3740   -0.0555 C   0  0  0  0  0  0  0  0  0  0  0  0
   -1.6221    1.9042    0.0481 C   0  0  0  0  0  0  0  0  0  0  0  0
   -2.1290   -0.8774    0.0530 C   0  0  0  0  0  0  0  0  0  0  0  0
   -2.9286    1.4183    0.1459 C   0  0  0  0  0  0  0  0  0  0  0  0
   -3.1802    0.0361    0.1499 C   0  0  0  0  0  0  0  0  0  0  0  0
    4.9477   -0.0915    0.4612 C   0  0  0  0  0  0  0  0  0  0  0  0
  1 10  1  0
  2  4  1  0
  2  8  1  0
  3  7  1  0
  3 13  1  0
  4  5  1  0
  4  7  1  0
  5  6  1  0
  6  8  2  0
  6  9  1  0
  8 10  1  0
  9 11  2  0
 10 12  2  0
 11 12  1  0
M  END
>  <PUBCHEM_COMPOUND_CID>  (1) 
36783

>  <PUBCHEM_CONFORMER_RMSD>  (1) 
0.6

>  <PUBCHEM_CONFORMER_DIVERSEORDER>  (1) 
1
4
3
2

>  <PUBCHEM_MMFF94_PARTIAL_CHARGES>  (1) 
17
1 -0.18
10 0.18
11 -0.15
12 -0.15
13 0.27
19 0.15
2 -0.36
20 0.36
21 0.15
22 0.15
3 -0.9
4 0.28
5 0.14
6 -0.14
7 0.27
8 0.08
9 -0.15

>  <PUBCHEM_EFFECTIVE_ROTOR_COUNT>  (1) 
2.6

>  <PUBCHEM_PHARMACOPHORE_FEATURES>  (1) 
5
1 2 acceptor
1 3 cation
1 3 donor
5 2 4 5 6 8 rings
6 6 8 9 10 11 12 rings

>  <PUBCHEM_HEAVY_ATOM_COUNT>  (1) 
13

>  <PUBCHEM_ATOM_DEF_STEREO_COUNT>  (1) 
0

>  <PUBCHEM_ATOM_UDEF_STEREO_COUNT>  (1) 
1

>  <PUBCHEM_BOND_DEF_STEREO_COUNT>  (1) 
0

>  <PUBCHEM_BOND_UDEF_STEREO_COUNT>  (1) 
0

>  <PUBCHEM_ISOTOPIC_ATOM_COUNT>  (1) 
0

>  <PUBCHEM_COMPONENT_COUNT>  (1) 
1

>  <PUBCHEM_CACTVS_TAUTO_COUNT>  (1) 
1

>  <PUBCHEM_CONFORMER_ID>  (1) 
00008FAF00000001

>  <PUBCHEM_MMFF94_ENERGY>  (1) 
29.244

>  <PUBCHEM_FEATURE_SELFOVERLAP>  (1) 
25.474

>  <PUBCHEM_SHAPE_FINGERPRINT>  (1) 
11132069 177 18410575063562873276
12251169 10 18409169904518532344
12500047 106 18338791221797153408
13024252 1 14779551166988863317
13140716 1 18267593575096680929
13214271 11 18272646861760316900
13380535 76 18341331089636635927
14325111 11 18339362959559519964
15219456 202 17988086578186758158
15669948 3 18410568487683366314
16945 1 18339372889603023181
17804303 29 18413393150414184256
20510252 161 18200596865409227185
20645464 45 18131636655634628949
20645477 56 18339365166893362597
20871998 184 18201725084688008943
21501502 16 18265341787814703301
23402539 116 18342449353529294463
23463225 33 18334295323473185156
23552423 10 18116438231147843501
23557571 272 18130240301890300132
23559900 14 18270965636031668158
2748010 2 18196370549086387205
3312278 4 18409731767882183610
5104073 3 18412260662512651248
54173680 148 18337675342281335243
5493415 88 18268709583387911545
573450 72 18261099756560092202
6333449 129 18341611495124174733
7364860 26 18053664677214560294
75552 356 18410012134741325631
8809292 202 18335142050279311411
9709674 26 18343025454309131382

>  <PUBCHEM_SHAPE_MULTIPOLES>  (1) 
258.55
6.78
2.01
0.66
9.01
0.6
0
0.57
-0.96
-2.19
-0.05
0.08
0.01
-0.07

>  <PUBCHEM_SHAPE_SELFOVERLAP>  (1) 
538.23

>  <PUBCHEM_SHAPE_VOLUME>  (1) 
149.8

>  <PUBCHEM_COORDINATE_TYPE>  (1) 
2
5
10

$$$$
