36791
     RDKit          3D

 16 17  0  0  1  0  0  0  0  0999 V2000
   -0.2972   -1.0120   -0.3399 O   0  0  0  0  0  0  0  0  0  0  0  0
   -3.0414   -1.7894   -0.0388 O   0  0  0  0  0  0  0  0  0  0  0  0
    3.2387    0.0639   -0.4936 N   0  0  0  0  0  0  0  0  0  0  0  0
    0.8219   -0.1637   -0.7099 C   0  0  0  0  0  0  0  0  0  0  0  0
    0.5588    1.2576   -0.1888 C   0  0  0  0  0  0  0  0  0  0  0  0
    2.1010   -0.7631   -0.1490 C   0  0  0  0  0  0  0  0  0  0  0  0
   -0.9138    1.1920   -0.0594 C   0  0  0  0  0  0  0  0  0  0  0  0
   -1.3258   -0.1298   -0.1295 C   0  0  0  0  0  0  0  0  0  0  0  0
    4.4776   -0.4893    0.0447 C   0  0  0  0  0  0  0  0  0  0  0  0
   -1.8245    2.2078    0.1659 C   0  0  0  0  0  0  0  0  0  0  0  0
   -2.6498   -0.4926    0.0236 C   0  0  0  0  0  0  0  0  0  0  0  0
    4.3907   -0.6012    1.5642 C   0  0  0  0  0  0  0  0  0  0  0  0
    5.6508    0.3913   -0.3737 C   0  0  0  0  0  0  0  0  0  0  0  0
   -3.1717    1.8660    0.3106 C   0  0  0  0  0  0  0  0  0  0  0  0
   -3.5813    0.5240    0.2414 C   0  0  0  0  0  0  0  0  0  0  0  0
   -4.4338   -2.0614    0.1322 C   0  0  0  0  0  0  0  0  0  0  0  0
  1  4  1  0
  1  8  1  0
  2 11  1  0
  2 16  1  0
  3  6  1  0
  3  9  1  0
  4  5  1  0
  4  6  1  0
  5  7  1  0
  7  8  2  0
  7 10  1  0
  8 11  1  0
  9 12  1  0
  9 13  1  0
 10 14  2  0
 11 15  2  0
 14 15  1  0
M  END
>  <PUBCHEM_COMPOUND_CID>  (1) 
36791

>  <PUBCHEM_CONFORMER_RMSD>  (1) 
0.6

>  <PUBCHEM_CONFORMER_DIVERSEORDER>  (1) 
1
17
30
31
21
7
28
13
26
8
25
2
16
9
12
10
4
3
27
15
29
18
24
14
23
11
19
22
6
20
5

>  <PUBCHEM_MMFF94_PARTIAL_CHARGES>  (1) 
18
1 -0.36
10 -0.15
11 0.08
14 -0.15
15 -0.15
16 0.28
2 -0.36
22 0.36
24 0.15
3 -0.9
31 0.15
32 0.15
4 0.28
5 0.14
6 0.27
7 -0.14
8 0.08
9 0.27

>  <PUBCHEM_EFFECTIVE_ROTOR_COUNT>  (1) 
4.6

>  <PUBCHEM_PHARMACOPHORE_FEATURES>  (1) 
7
1 1 acceptor
1 2 acceptor
1 3 cation
1 3 donor
3 9 12 13 hydrophobe
5 1 4 5 7 8 rings
6 7 8 10 11 14 15 rings

>  <PUBCHEM_HEAVY_ATOM_COUNT>  (1) 
16

>  <PUBCHEM_ATOM_DEF_STEREO_COUNT>  (1) 
0

>  <PUBCHEM_ATOM_UDEF_STEREO_COUNT>  (1) 
1

>  <PUBCHEM_BOND_DEF_STEREO_COUNT>  (1) 
0

>  <PUBCHEM_BOND_UDEF_STEREO_COUNT>  (1) 
0

>  <PUBCHEM_ISOTOPIC_ATOM_COUNT>  (1) 
0

>  <PUBCHEM_COMPONENT_COUNT>  (1) 
1

>  <PUBCHEM_CACTVS_TAUTO_COUNT>  (1) 
1

>  <PUBCHEM_CONFORMER_ID>  (1) 
00008FB700000001

>  <PUBCHEM_MMFF94_ENERGY>  (1) 
41.0002

>  <PUBCHEM_FEATURE_SELFOVERLAP>  (1) 
35.625

>  <PUBCHEM_SHAPE_FINGERPRINT>  (1) 
10062212 137 18260832600571699349
10319926 262 18198891540697896810
10912923 1 18040715857881178480
11046707 91 18408039632535377455
11132069 177 18339928112535791076
12107183 9 17613711519182847810
12236239 1 17894351064176548048
12390115 104 17771362884818639857
13140716 1 18341058505569522561
13167823 11 18260546693616358146
13214271 11 18201436956595732821
13288520 33 18411421730344679591
13675066 3 17917709089555711118
13897977 58 18410578388036501996
14420673 8 17907012877512680178
15099037 37 18342459244295768455
15196674 1 18411702106110650588
15219456 202 17845661326423779934
16945 1 18268444455642415333
17804303 29 18343302591025695624
17834072 33 18187650228093584092
17862501 102 18187362125607789274
18186145 218 15554438596850653046
200 152 16515400763809173622
20281475 54 18260543390723028466
20510252 161 18201443540664390546
20645477 56 18340773620167264961
20645477 70 14707203284922678690
21065198 48 18260263028311581178
21267235 1 18337964479273895791
21728266 224 18334283267073087883
22079108 93 14907893924809298903
2297311 6 18201733855248305316
23366157 5 17970069061220471412
23402539 116 18408881845425548487
23557571 272 18131363993846309956
23559900 14 18127698132560458790
25147074 1 18263945369862409037
2748010 2 17688890635422524061
34934 24 18335699374062665765
4214541 1 18411139100222206780
474 4 17314803000004676892
5104073 3 18412825802467110648
573450 72 18260822662133414752
77779 3 18411984624917037710
90316 7 18042120960379515804

>  <PUBCHEM_SHAPE_MULTIPOLES>  (1) 
312.55
10.27
1.95
0.84
11.5
0.16
0.22
-2.48
1.34
-2.91
0.13
0.77
-0.07
-0.45

>  <PUBCHEM_SHAPE_SELFOVERLAP>  (1) 
650.773

>  <PUBCHEM_SHAPE_VOLUME>  (1) 
180.5

>  <PUBCHEM_COORDINATE_TYPE>  (1) 
2
5
10

$$$$
