36796
     RDKit          3D

 26 28  0  0  0  0  0  0  0  0999 V2000
    0.1054   -0.3391    1.7219 O   0  0  0  0  0  0  0  0  0  0  0  0
    1.1865   -0.9841   -2.6958 O   0  0  0  0  0  0  0  0  0  0  0  0
    1.0125   -0.7235   -0.3807 N   0  0  0  0  0  0  0  0  0  0  0  0
   -0.7844   -0.3488   -1.6331 N   0  0  0  0  0  0  0  0  0  0  0  0
    4.6030   -0.1941    0.4730 N   0  0  0  0  0  0  0  0  0  0  0  0
   -1.2884   -0.0829   -0.2880 C   0  0  0  0  0  0  0  0  0  0  0  0
    0.0075   -0.3863    0.5003 C   0  0  0  0  0  0  0  0  0  0  0  0
    2.3621   -1.0638    0.0239 C   0  0  0  0  0  0  0  0  0  0  0  0
   -2.3759   -1.0671    0.1601 C   0  0  0  0  0  0  0  0  0  0  0  0
   -1.7377    1.3807   -0.2315 C   0  0  0  0  0  0  0  0  0  0  0  0
    0.5581   -0.7177   -1.6796 C   0  0  0  0  0  0  0  0  0  0  0  0
    3.2598    0.1647    0.0366 C   0  0  0  0  0  0  0  0  0  0  0  0
   -2.8410   -2.0466   -0.7205 C   0  0  0  0  0  0  0  0  0  0  0  0
   -1.0563    2.2924    0.5780 C   0  0  0  0  0  0  0  0  0  0  0  0
   -2.9050   -0.9879    1.4503 C   0  0  0  0  0  0  0  0  0  0  0  0
   -2.8300    1.8087   -0.9894 C   0  0  0  0  0  0  0  0  0  0  0  0
    5.1679   -1.2307   -0.3934 C   0  0  0  0  0  0  0  0  0  0  0  0
    5.4730    0.9836    0.4878 C   0  0  0  0  0  0  0  0  0  0  0  0
   -3.8299   -2.9419   -0.3129 C   0  0  0  0  0  0  0  0  0  0  0  0
   -1.4651    3.6250    0.6293 C   0  0  0  0  0  0  0  0  0  0  0  0
   -3.8939   -1.8833    1.8578 C   0  0  0  0  0  0  0  0  0  0  0  0
   -3.2388    3.1413   -0.9380 C   0  0  0  0  0  0  0  0  0  0  0  0
    6.5378   -1.6431    0.1105 C   0  0  0  0  0  0  0  0  0  0  0  0
    4.8857    2.0555    1.3857 C   0  0  0  0  0  0  0  0  0  0  0  0
   -4.3565   -2.8603    0.9762 C   0  0  0  0  0  0  0  0  0  0  0  0
   -2.5564    4.0494   -0.1286 C   0  0  0  0  0  0  0  0  0  0  0  0
  1  7  2  0
  2 11  2  0
  3  7  1  0
  3  8  1  0
  3 11  1  0
  4  6  1  0
  4 11  1  0
  5 12  1  0
  5 17  1  0
  5 18  1  0
  6  7  1  0
  6  9  1  0
  6 10  1  0
  8 12  1  0
  9 13  2  0
  9 15  1  0
 10 14  2  0
 10 16  1  0
 13 19  1  0
 14 20  1  0
 15 21  2  0
 16 22  2  0
 17 23  1  0
 18 24  1  0
 19 25  2  0
 20 26  2  0
 21 25  1  0
 22 26  1  0
M  END
>  <PUBCHEM_COMPOUND_CID>  (1) 
36796

>  <PUBCHEM_CONFORMER_RMSD>  (1) 
0.8

>  <PUBCHEM_CONFORMER_DIVERSEORDER>  (1) 
1
13
41
18
35
36
20
19
12
32
23
22
30
38
8
10
25
31
33
28
5
34
37
40
9
24
39
15
16
21
14
6
27
29
3
26
4
11
2
17
7

>  <PUBCHEM_MMFF94_PARTIAL_CHARGES>  (1) 
35
1 -0.57
10 -0.14
11 0.69
12 0.27
13 -0.15
14 -0.15
15 -0.15
16 -0.15
17 0.27
18 0.27
19 -0.15
2 -0.57
20 -0.15
21 -0.15
22 -0.15
25 -0.15
26 -0.15
27 0.37
3 -0.42
32 0.15
33 0.15
34 0.15
35 0.15
4 -0.73
40 0.15
41 0.15
42 0.15
43 0.15
5 -0.81
50 0.15
51 0.15
6 0.65
7 0.57
8 0.3
9 -0.14

>  <PUBCHEM_EFFECTIVE_ROTOR_COUNT>  (1) 
7.6

>  <PUBCHEM_PHARMACOPHORE_FEATURES>  (1) 
7
1 1 acceptor
1 2 acceptor
1 4 donor
1 5 cation
5 3 4 6 7 11 rings
6 10 14 16 20 22 26 rings
6 9 13 15 19 21 25 rings

>  <PUBCHEM_HEAVY_ATOM_COUNT>  (1) 
26

>  <PUBCHEM_ATOM_DEF_STEREO_COUNT>  (1) 
0

>  <PUBCHEM_ATOM_UDEF_STEREO_COUNT>  (1) 
0

>  <PUBCHEM_BOND_DEF_STEREO_COUNT>  (1) 
0

>  <PUBCHEM_BOND_UDEF_STEREO_COUNT>  (1) 
0

>  <PUBCHEM_ISOTOPIC_ATOM_COUNT>  (1) 
0

>  <PUBCHEM_COMPONENT_COUNT>  (1) 
1

>  <PUBCHEM_CACTVS_TAUTO_COUNT>  (1) 
2

>  <PUBCHEM_CONFORMER_ID>  (1) 
00008FBC00000001

>  <PUBCHEM_MMFF94_ENERGY>  (1) 
60.7213

>  <PUBCHEM_FEATURE_SELFOVERLAP>  (1) 
35.522

>  <PUBCHEM_SHAPE_FINGERPRINT>  (1) 
10319926 262 18338222775177078866
10369192 42 16629693993085504828
11101153 10 18115600386561731836
11405975 8 18263356998155552026
11445158 3 16987714786776764120
11545043 162 18410293580476360546
11578080 2 17915766209343584169
12035758 1 18339379508833520033
12403814 3 18060418066172636390
12422481 6 18200605790330188937
12788726 201 18189356695239958742
12892183 10 18409162225929208638
12930653 34 18337110064397792654
13073987 5 18335697231607455282
13583140 156 18272087141860101302
13955234 65 16824475385739447657
14178342 30 18114755814932655638
14713325 29 18271247127407571728
14787075 74 17970910204963601650
15131766 46 17058079167621369872
15775530 1 17842861948191840166
17349148 13 16950571012295779738
17844677 252 18410294714347551182
1813 80 18197518409198203935
20600515 1 18055092088083613115
21033648 144 18264475210145119372
21049683 118 17972580105613487313
21304303 282 17971450950389991829
2132832 1 17822581610751879956
22182313 1 17702397169153970398
22956985 138 17035294121023222563
23227448 37 18410286978568801300
23419403 2 17916855946011072761
23557571 272 18411986827618062829
23559900 14 18125715683025915626
283562 15 18187362151304058731
3187 122 18263066863971462608
3380486 145 18341899649302609871
4409770 3 18337951199925703799
5104073 3 18411411792423184648
57527293 21 18059585740160407934
59755656 520 18044368332107792677
81228 2 18191893179140700385
9981440 41 17986097514106829631

>  <PUBCHEM_SHAPE_MULTIPOLES>  (1) 
508.39
11.2
4.2
1.61
21.21
3.84
-0.35
-4.6
2.81
-6.1
0.36
-0.46
-0.43
2.13

>  <PUBCHEM_SHAPE_SELFOVERLAP>  (1) 
1083.295

>  <PUBCHEM_SHAPE_VOLUME>  (1) 
284.6

>  <PUBCHEM_COORDINATE_TYPE>  (1) 
2
5
10

$$$$
