36795
     RDKit          3D

 14 15  0  0  1  0  0  0  0  0999 V2000
    0.4324   -1.0327   -0.1719 O   0  0  0  0  0  0  0  0  0  0  0  0
   -2.3265   -1.7972    0.0034 O   0  0  0  0  0  0  0  0  0  0  0  0
    3.9792    0.0014   -0.1757 N   0  0  0  0  0  0  0  0  0  0  0  0
    1.5731   -0.2037   -0.5186 C   0  0  0  0  0  0  0  0  0  0  0  0
    1.2812    1.2435   -0.0926 C   0  0  0  0  0  0  0  0  0  0  0  0
   -0.1968    1.1823   -0.0499 C   0  0  0  0  0  0  0  0  0  0  0  0
    2.8150   -0.7694    0.1507 C   0  0  0  0  0  0  0  0  0  0  0  0
   -0.6058   -0.1422   -0.0730 C   0  0  0  0  0  0  0  0  0  0  0  0
   -1.1178    2.2075    0.0636 C   0  0  0  0  0  0  0  0  0  0  0  0
   -1.9373   -0.4982    0.0189 C   0  0  0  0  0  0  0  0  0  0  0  0
   -2.4718    1.8718    0.1446 C   0  0  0  0  0  0  0  0  0  0  0  0
   -2.8787    0.5272    0.1241 C   0  0  0  0  0  0  0  0  0  0  0  0
    5.1813   -0.5285    0.4725 C   0  0  0  0  0  0  0  0  0  0  0  0
   -3.7274   -2.0617    0.1041 C   0  0  0  0  0  0  0  0  0  0  0  0
  1  4  1  0
  1  8  1  0
  2 10  1  0
  2 14  1  0
  3  7  1  0
  3 13  1  0
  4  5  1  0
  4  7  1  0
  5  6  1  0
  6  8  2  0
  6  9  1  0
  8 10  1  0
  9 11  2  0
 10 12  2  0
 11 12  1  0
M  END
>  <PUBCHEM_COMPOUND_CID>  (1) 
36795

>  <PUBCHEM_CONFORMER_RMSD>  (1) 
0.6

>  <PUBCHEM_CONFORMER_DIVERSEORDER>  (1) 
1
7
3
14
6
8
13
12
9
10
4
11
5
2

>  <PUBCHEM_MMFF94_PARTIAL_CHARGES>  (1) 
18
1 -0.36
10 0.08
11 -0.15
12 -0.15
13 0.27
14 0.28
2 -0.36
20 0.15
21 0.36
22 0.15
23 0.15
3 -0.9
4 0.28
5 0.14
6 -0.14
7 0.27
8 0.08
9 -0.15

>  <PUBCHEM_EFFECTIVE_ROTOR_COUNT>  (1) 
3.6

>  <PUBCHEM_PHARMACOPHORE_FEATURES>  (1) 
6
1 1 acceptor
1 2 acceptor
1 3 cation
1 3 donor
5 1 4 5 6 8 rings
6 6 8 9 10 11 12 rings

>  <PUBCHEM_HEAVY_ATOM_COUNT>  (1) 
14

>  <PUBCHEM_ATOM_DEF_STEREO_COUNT>  (1) 
0

>  <PUBCHEM_ATOM_UDEF_STEREO_COUNT>  (1) 
1

>  <PUBCHEM_BOND_DEF_STEREO_COUNT>  (1) 
0

>  <PUBCHEM_BOND_UDEF_STEREO_COUNT>  (1) 
0

>  <PUBCHEM_ISOTOPIC_ATOM_COUNT>  (1) 
0

>  <PUBCHEM_COMPONENT_COUNT>  (1) 
1

>  <PUBCHEM_CACTVS_TAUTO_COUNT>  (1) 
1

>  <PUBCHEM_CONFORMER_ID>  (1) 
00008FBB00000001

>  <PUBCHEM_MMFF94_ENERGY>  (1) 
42.4025

>  <PUBCHEM_FEATURE_SELFOVERLAP>  (1) 
30.551

>  <PUBCHEM_SHAPE_FINGERPRINT>  (1) 
11132069 177 18338800014027672972
12032990 46 18339082699736833143
12251169 10 18410579448360700072
13024252 1 15068632547855297837
13140716 1 18340494451524617633
13214271 11 18272645727883760476
13380535 76 18269835307369763757
15099037 37 18342174466578936334
16945 1 18339934697005674333
17804303 29 18342460348228976888
18186145 218 12107793990896978822
200 152 18260823834390818351
20510252 161 18272371944971853008
20871998 184 18202284697393598151
21061003 4 17060337448139186329
21267235 1 18409458006651126539
21501502 16 18337681913343960341
21501925 9 18339076107157076170
2297311 6 18272945912196838004
23402539 116 18342449331980630925
23552423 10 18261117434234213941
23557571 272 18129959909187260892
23559900 14 18198905804300039190
2748010 2 18340763862006667949
3312278 4 18410293583942990322
43471831 8 18334854966228760746
5104073 3 18341608201416918640
5493415 88 18341328989170917697
573450 72 18188480282031404418
6333449 129 18341611469233181573
8809292 202 18262241118011804443
9709674 26 18199752440552948246

>  <PUBCHEM_SHAPE_MULTIPOLES>  (1) 
271.39
7.31
2.12
0.64
8.84
0.17
0
-3.06
0.98
-2.43
0.08
0.11
0.01
-0.12

>  <PUBCHEM_SHAPE_SELFOVERLAP>  (1) 
571.549

>  <PUBCHEM_SHAPE_VOLUME>  (1) 
155

>  <PUBCHEM_COORDINATE_TYPE>  (1) 
2
5
10

$$$$
