36800
     RDKit          3D

 32 35  0  0  0  0  0  0  0  0999 V2000
    1.7489    0.2264   -0.2692 P   0  0  0  0  0  0  0  0  0  0  0  0
    0.2483    0.6918    0.1307 O   0  0  0  0  0  0  0  0  0  0  0  0
    2.6802    1.3614    0.4081 O   0  0  0  0  0  0  0  0  0  0  0  0
    1.9935   -1.0590    0.6806 O   0  0  0  0  0  0  0  0  0  0  0  0
    1.9790   -0.0039   -1.7366 O   0  0  0  0  0  0  0  0  0  0  0  0
   -1.8842   -3.3235   -1.6601 C   0  0  0  0  0  0  0  0  0  0  0  0
   -1.9684   -1.9978   -0.9820 C   0  0  0  0  0  0  0  0  0  0  0  0
   -3.2076   -1.4916   -0.5900 C   0  0  0  0  0  0  0  0  0  0  0  0
   -3.2855   -0.2515    0.0435 C   0  0  0  0  0  0  0  0  0  0  0  0
   -0.8070   -1.2640   -0.7406 C   0  0  0  0  0  0  0  0  0  0  0  0
   -1.3175   -3.2194   -3.0888 C   0  0  0  0  0  0  0  0  0  0  0  0
   -1.0703   -4.3493   -0.8489 C   0  0  0  0  0  0  0  0  0  0  0  0
   -0.8850   -0.0237   -0.1069 C   0  0  0  0  0  0  0  0  0  0  0  0
   -2.1243    0.4826    0.2849 C   0  0  0  0  0  0  0  0  0  0  0  0
   -4.5708    0.2730    0.4516 C   0  0  0  0  0  0  0  0  0  0  0  0
   -5.3106    1.0662   -0.4255 C   0  0  0  0  0  0  0  0  0  0  0  0
   -5.0703   -0.0148    1.7218 C   0  0  0  0  0  0  0  0  0  0  0  0
   -6.5497    1.5718   -0.0324 C   0  0  0  0  0  0  0  0  0  0  0  0
   -6.3096    0.4907    2.1148 C   0  0  0  0  0  0  0  0  0  0  0  0
   -7.0493    1.2840    1.2377 C   0  0  0  0  0  0  0  0  0  0  0  0
    2.7132    2.6769    0.0322 C   0  0  0  0  0  0  0  0  0  0  0  0
    3.1780   -1.7342    0.7983 C   0  0  0  0  0  0  0  0  0  0  0  0
    1.9007    3.1181   -1.0072 C   0  0  0  0  0  0  0  0  0  0  0  0
    4.2845   -1.3196    0.0641 C   0  0  0  0  0  0  0  0  0  0  0  0
    3.5593    3.5618    0.6925 C   0  0  0  0  0  0  0  0  0  0  0  0
    3.2655   -2.8299    1.6509 C   0  0  0  0  0  0  0  0  0  0  0  0
    1.9349    4.4587   -1.3906 C   0  0  0  0  0  0  0  0  0  0  0  0
    5.4915   -2.0084    0.1835 C   0  0  0  0  0  0  0  0  0  0  0  0
    3.5933    4.9026    0.3091 C   0  0  0  0  0  0  0  0  0  0  0  0
    4.4727   -3.5185    1.7704 C   0  0  0  0  0  0  0  0  0  0  0  0
    2.7810    5.3509   -0.7325 C   0  0  0  0  0  0  0  0  0  0  0  0
    5.5856   -3.1077    1.0367 C   0  0  0  0  0  0  0  0  0  0  0  0
  1  2  1  0
  1  3  1  0
  1  4  1  0
  1  5  2  0
  2 13  1  0
  3 21  1  0
  4 22  1  0
  6  7  1  0
  6 11  1  0
  6 12  1  0
  7  8  2  0
  7 10  1  0
  8  9  1  0
  9 14  2  0
  9 15  1  0
 10 13  2  0
 13 14  1  0
 15 16  2  0
 15 17  1  0
 16 18  1  0
 17 19  2  0
 18 20  2  0
 19 20  1  0
 21 23  2  0
 21 25  1  0
 22 24  2  0
 22 26  1  0
 23 27  1  0
 24 28  1  0
 25 29  2  0
 26 30  2  0
 27 31  2  0
 28 32  2  0
 29 31  1  0
 30 32  1  0
M  END
>  <PUBCHEM_COMPOUND_CID>  (1) 
36800

>  <PUBCHEM_CONFORMER_RMSD>  (1) 
1

>  <PUBCHEM_CONFORMER_DIVERSEORDER>  (1) 
1
125
150
130
11
41
36
12
57
158
7
69
100
108
155
144
31
97
62
96
154
55
63
113
103
86
143
131
52
26
153
90
77
141
51
37
151
75
146
30
98
82
73
35
99
159
45
124
137
72
33
24
67
115
29
117
133
140
101
48
132
43
74
59
88
111
112
122
147
60
95
78
106
129
9
118
114
64
157
13
14
27
135
80
145
127
120
61
89
79
85
50
138
156
20
65
40
81
139
8
109
83
104
149
10
58
128
38
102
123
94
136
116
105
56
119
93
87
15
121
126
134
3
91
44
17
70
54
142
110
16
22
76
49
42
68
66
92
32
107
25
148
6
71
34
47
84
53
2
19
23
39
46
5
4
18
152
28
21

>  <PUBCHEM_MMFF94_PARTIAL_CHARGES>  (1) 
46
1 1.51
10 -0.15
13 0.08
14 -0.15
16 -0.15
17 -0.15
18 -0.15
19 -0.15
2 -0.35
20 -0.15
21 0.08
22 0.08
23 -0.15
24 -0.15
25 -0.15
26 -0.15
27 -0.15
28 -0.15
29 -0.15
3 -0.35
30 -0.15
31 -0.15
32 -0.15
34 0.15
35 0.15
4 -0.35
42 0.15
43 0.15
44 0.15
45 0.15
46 0.15
47 0.15
48 0.15
49 0.15
5 -0.7
50 0.15
51 0.15
52 0.15
53 0.15
54 0.15
55 0.15
56 0.15
57 0.15
6 0.14
7 -0.14
8 -0.15

>  <PUBCHEM_EFFECTIVE_ROTOR_COUNT>  (1) 
8

>  <PUBCHEM_PHARMACOPHORE_FEATURES>  (1) 
6
1 5 acceptor
3 6 11 12 hydrophobe
6 15 16 17 18 19 20 rings
6 21 23 25 27 29 31 rings
6 22 24 26 28 30 32 rings
6 7 8 9 10 13 14 rings

>  <PUBCHEM_HEAVY_ATOM_COUNT>  (1) 
32

>  <PUBCHEM_ATOM_DEF_STEREO_COUNT>  (1) 
0

>  <PUBCHEM_ATOM_UDEF_STEREO_COUNT>  (1) 
0

>  <PUBCHEM_BOND_DEF_STEREO_COUNT>  (1) 
0

>  <PUBCHEM_BOND_UDEF_STEREO_COUNT>  (1) 
0

>  <PUBCHEM_ISOTOPIC_ATOM_COUNT>  (1) 
0

>  <PUBCHEM_COMPONENT_COUNT>  (1) 
1

>  <PUBCHEM_CACTVS_TAUTO_COUNT>  (1) 
1

>  <PUBCHEM_CONFORMER_ID>  (1) 
00008FC000000001

>  <PUBCHEM_MMFF94_ENERGY>  (1) 
93.5269

>  <PUBCHEM_FEATURE_SELFOVERLAP>  (1) 
30.448

>  <PUBCHEM_SHAPE_FINGERPRINT>  (1) 
11049842 53 17417548959135677734
11331351 85 18058730174586061980
11445158 3 18409165476797732061
12107183 9 18341611490765982043
12128747 34 17386849396798593483
13004483 165 18192699065260934770
13540713 5 18128808815087032703
13590594 115 18263362490970700968
13726171 33 17342961526407596385
13968360 50 10303802169160483032
14466204 15 18123750851093085305
14849402 71 18335147496197752432
14955137 171 18263649472100746714
15021287 119 18338227181370444819
15439362 3 18121509222480122500
15448158 71 18195818594329267829
15684970 41 17896857977028109314
16992787 43 18334303085249774620
17980427 26 18193268818468992252
19302320 297 18195542402616188025
19304152 47 17755872157684450961
19319366 153 18050292771219687859
20642791 268 18197475498522496794
21033648 29 17700385036646420304
21033650 10 17405454554853842852
21049683 271 18113629958703362772
21781055 127 16987739921183641995
23559900 14 18259984868738588457
249057 3 18271534147645731252
3178227 256 18339652131392010131
340366 18 18342173358224224879
376196 1 17698452366374090396
4144715 1 17894640262185719025
4173938 77 18409158918139752861
44880168 125 17630312049014560182
4516262 110 18118681252138670517
5104073 3 18340214072212791811
563151 97 17905321080602763764
5912855 24 18123471845960368891
6058803 2 18127116692082153958
6371009 1 18130506319686388185
79837 15 17397544689888766400
9981440 41 17686331380153305008

>  <PUBCHEM_SHAPE_MULTIPOLES>  (1) 
638.92
14.38
6.97
1.85
17.24
6.18
0.5
1.37
-8.42
-11.91
2.08
1
-1.55
-4.27

>  <PUBCHEM_SHAPE_SELFOVERLAP>  (1) 
1373.557

>  <PUBCHEM_SHAPE_VOLUME>  (1) 
351.4

>  <PUBCHEM_COORDINATE_TYPE>  (1) 
2
5
10

$$$$
