36819
     RDKit          3D

 22 23  0  0  1  0  0  0  0  0999 V2000
    0.1209    0.5843   -0.2999 O   0  0  0  0  0  0  0  0  0  0  0  0
    1.7062    2.2421   -0.5952 O   0  0  0  0  0  0  0  0  0  0  0  0
   -6.9457   -0.5409   -0.5176 O   0  0  0  0  0  0  0  0  0  0  0  0
    2.9436   -0.5185    0.8473 C   0  0  0  0  0  0  0  0  0  0  0  0
    3.7813    0.3235   -0.0532 C   0  0  0  0  0  0  0  0  0  0  0  0
    2.3831   -0.0110   -0.4489 C   0  0  0  0  0  0  0  0  0  0  0  0
    2.4948    0.1030    2.1271 C   0  0  0  0  0  0  0  0  0  0  0  0
    3.1925   -1.9858    0.9619 C   0  0  0  0  0  0  0  0  0  0  0  0
    4.8824   -0.2922   -0.8180 C   0  0  0  0  0  0  0  0  0  0  0  0
    1.3820    1.0711   -0.4584 C   0  0  0  0  0  0  0  0  0  0  0  0
    6.1504   -0.5002   -0.4145 C   0  0  0  0  0  0  0  0  0  0  0  0
    6.6681   -0.1195    0.9437 C   0  0  0  0  0  0  0  0  0  0  0  0
    7.1599   -1.1454   -1.3227 C   0  0  0  0  0  0  0  0  0  0  0  0
   -0.9202    1.5664   -0.2961 C   0  0  0  0  0  0  0  0  0  0  0  0
   -2.2414    0.8788   -0.1138 C   0  0  0  0  0  0  0  0  0  0  0  0
   -2.5260   -0.2694   -0.8439 C   0  0  0  0  0  0  0  0  0  0  0  0
   -3.1690    1.3969    0.7829 C   0  0  0  0  0  0  0  0  0  0  0  0
   -3.7545   -0.9082   -0.6752 C   0  0  0  0  0  0  0  0  0  0  0  0
   -4.3975    0.7582    0.9518 C   0  0  0  0  0  0  0  0  0  0  0  0
   -4.6903   -0.3945    0.2227 C   0  0  0  0  0  0  0  0  0  0  0  0
   -6.0039   -1.0771    0.4036 C   0  0  0  0  0  0  0  0  0  0  0  0
   -8.2167   -1.1615   -0.3834 C   0  0  0  0  0  0  0  0  0  0  0  0
  1 10  1  0
  1 14  1  0
  2 10  2  0
  3 21  1  0
  3 22  1  0
  4  5  1  0
  4  6  1  0
  4  7  1  0
  4  8  1  0
  5  6  1  0
  5  9  1  0
  6 10  1  0
  9 11  2  3
 11 12  1  0
 11 13  1  0
 14 15  1  0
 15 16  2  0
 15 17  1  0
 16 18  1  0
 17 19  2  0
 18 20  2  0
 19 20  1  0
 20 21  1  0
M  END
>  <PUBCHEM_COMPOUND_CID>  (1) 
36819

>  <PUBCHEM_CONFORMER_RMSD>  (1) 
1

>  <PUBCHEM_CONFORMER_DIVERSEORDER>  (1) 
1
230
180
267
132
297
537
92
643
371
7
224
624
124
321
418
2
58
316
470
446
611
68
239
393
189
384
39
150
302
70
319
79
83
301
476
457
5
8
167
65
417
356
330
112
107
333
535
146
22
98
288
86
74
396
584
478
93
591
159
466
654
628
472
574
56
63
596
113
431
168
436
52
128
428
17
512
222
102
182
382
6
590
634
635
264
108
3
105
15
407
199
249
509
89
81
616
291
121
335
277
633
266
252
133
339
626
178
188
45
592
313
248
658
448
528
33
351
103
213
603
423
137
218
522
29
402
365
36
575
60
410
259
11
373
406
403
364
409
241
72
210
648
183
30
579
53
84
493
334
284
527
20
10
35
362
608
231
272
521
389
282
21
447
262
644
80
404
12
161
247
298
599
109
391
615
115
650
560
311
380
100
4
97
171
13
145
41
245
251
307
253
153
647
117
567
383
90
622
134
625
274
534
283
185
75
50
23
588
223
114
14
126
577
82
254
387
545
323
613
27
61
525
46
546
139
187
441
589
324
270
359
173
280
49
469
308
666
44
62
59
290
286
572
43
553

>  <PUBCHEM_MMFF94_PARTIAL_CHARGES>  (1) 
29
1 -0.43
10 0.72
11 -0.28
12 0.14
13 0.14
14 0.42
15 -0.14
16 -0.15
17 -0.15
18 -0.15
19 -0.15
2 -0.57
20 -0.14
21 0.42
22 0.28
23 0.1
24 0.1
3 -0.56
31 0.15
4 -0.19
40 0.15
41 0.15
42 0.15
43 0.15
5 -0.06
6 -0.1
7 0.09
8 0.09
9 -0.19

>  <PUBCHEM_EFFECTIVE_ROTOR_COUNT>  (1) 
7.6

>  <PUBCHEM_PHARMACOPHORE_FEATURES>  (1) 
5
1 2 acceptor
1 3 acceptor
3 11 12 13 hydrophobe
3 4 7 8 hydrophobe
6 15 16 17 18 19 20 rings

>  <PUBCHEM_HEAVY_ATOM_COUNT>  (1) 
22

>  <PUBCHEM_ATOM_DEF_STEREO_COUNT>  (1) 
0

>  <PUBCHEM_ATOM_UDEF_STEREO_COUNT>  (1) 
2

>  <PUBCHEM_BOND_DEF_STEREO_COUNT>  (1) 
0

>  <PUBCHEM_BOND_UDEF_STEREO_COUNT>  (1) 
0

>  <PUBCHEM_ISOTOPIC_ATOM_COUNT>  (1) 
0

>  <PUBCHEM_COMPONENT_COUNT>  (1) 
1

>  <PUBCHEM_CACTVS_TAUTO_COUNT>  (1) 
1

>  <PUBCHEM_CONFORMER_ID>  (1) 
00008FD300000001

>  <PUBCHEM_MMFF94_ENERGY>  (1) 
50.6379

>  <PUBCHEM_FEATURE_SELFOVERLAP>  (1) 
25.372

>  <PUBCHEM_SHAPE_FINGERPRINT>  (1) 
10 15 14476960107773191886
10299344 5 18342745100234046974
106641 1 17846776338788928480
11315181 36 18342179973138596393
11545043 162 17703508813658441665
11719270 70 15864062170738787048
12236239 1 18411987957110494085
12516196 113 18410011031240997456
12553582 1 18334845121952013540
12592606 108 18411135875350971511
12596602 18 17989489606452566968
13288520 33 18409451384412702589
13533116 47 18410571825510992689
13668630 136 18334859433199950655
13673619 4 17989490706143808568
13685833 64 18059858363515106270
13862211 1 18040715840896423096
13968360 50 15719387322812668714
14251764 18 14549014394665196369
14341114 176 16917348138970220088
14931854 50 17676487220263058387
15183329 4 16515675638186203749
15537594 2 18335696148178898743
15690457 1 18131347549324219807
15716309 27 17346878953077123253
18335252 98 17989489607386243006
20281389 69 10592047938364265854
21033648 29 15769202835106150096
21150785 3 15430036574292640279
21267235 1 18411425020542679973
21344244 181 18200887197358205734
21521239 73 17604152524448468778
21521721 280 18261402182751548640
22224240 67 16773794809567454919
23035841 295 18412267212137420614
23522609 53 18120126968258942348
23559900 14 17968943140339653097
3004659 81 18040995176673621021
33382 64 17845660240520052254
3472631 163 8286193968499495339
34797466 226 17203055170760667452
351380 3 18408885135380975015
4098825 35 15068886522019048087
4325135 7 16877943837059424806
445580 126 10087644788688828335
5283156 175 17531240634890727234
57724786 102 13685997835663146106
59682541 35 18340481257970387216
59755656 520 13183014112465182621

>  <PUBCHEM_SHAPE_MULTIPOLES>  (1) 
435.14
20.57
1.57
1.25
11.07
0.23
-0.43
-10.32
2.2
0.35
0.04
-1.29
-0.09
-0.31

>  <PUBCHEM_SHAPE_SELFOVERLAP>  (1) 
894.486

>  <PUBCHEM_SHAPE_VOLUME>  (1) 
253.7

>  <PUBCHEM_COORDINATE_TYPE>  (1) 
2
5
10

$$$$
