36817
     RDKit          3D

 22 25  0  0  0  0  0  0  0  0999 V2000
    3.1868    2.0274    0.0996 S   0  0  0  0  0  0  0  0  0  0  0  0
   -0.0664   -1.6380   -0.0617 O   0  0  0  0  0  0  0  0  0  0  0  0
   -0.9395    0.5548   -0.0673 N   0  0  0  0  0  0  0  0  0  0  0  0
    0.5497    2.4393    0.0063 N   0  0  0  0  0  0  0  0  0  0  0  0
    2.7065   -0.4984   -0.0328 C   0  0  0  0  0  0  0  0  0  0  0  0
    2.9712   -1.9751   -0.0736 C   0  0  0  0  0  0  0  0  0  0  0  0
    4.4405   -2.2926   -0.3925 C   0  0  0  0  0  0  0  0  0  0  0  0
    5.4002   -1.4030    0.4079 C   0  0  0  0  0  0  0  0  0  0  0  0
    5.1956    0.0831    0.0806 C   0  0  0  0  0  0  0  0  0  0  0  0
    3.7371    0.4196    0.0560 C   0  0  0  0  0  0  0  0  0  0  0  0
    1.4331    0.1583   -0.0389 C   0  0  0  0  0  0  0  0  0  0  0  0
    1.5548    1.5312    0.0204 C   0  0  0  0  0  0  0  0  0  0  0  0
    0.0965   -0.4210   -0.0772 C   0  0  0  0  0  0  0  0  0  0  0  0
   -0.6506    1.9359   -0.0572 C   0  0  0  0  0  0  0  0  0  0  0  0
   -2.2891    0.0631   -0.0176 C   0  0  0  0  0  0  0  0  0  0  0  0
   -1.7799    2.9391   -0.1841 C   0  0  0  0  0  0  0  0  0  0  0  0
   -2.8973   -0.1462    1.2134 C   0  0  0  0  0  0  0  0  0  0  0  0
   -2.9683   -0.1965   -1.2010 C   0  0  0  0  0  0  0  0  0  0  0  0
   -4.2070   -0.6234    1.2620 C   0  0  0  0  0  0  0  0  0  0  0  0
   -4.2781   -0.6736   -1.1524 C   0  0  0  0  0  0  0  0  0  0  0  0
   -4.8975   -0.8871    0.0792 C   0  0  0  0  0  0  0  0  0  0  0  0
   -6.2982   -1.3968    0.1309 C   0  0  0  0  0  0  0  0  0  0  0  0
  1 10  1  0
  1 12  1  0
  2 13  2  0
  3 13  1  0
  3 14  1  0
  3 15  1  0
  4 12  1  0
  4 14  2  0
  5  6  1  0
  5 10  2  0
  5 11  1  0
  6  7  1  0
  7  8  1  0
  8  9  1  0
  9 10  1  0
 11 12  2  0
 11 13  1  0
 14 16  1  0
 15 17  2  0
 15 18  1  0
 17 19  1  0
 18 20  2  0
 19 21  2  0
 20 21  1  0
 21 22  1  0
M  END
>  <PUBCHEM_COMPOUND_CID>  (1) 
36817

>  <PUBCHEM_CONFORMER_RMSD>  (1) 
0.6

>  <PUBCHEM_CONFORMER_DIVERSEORDER>  (1) 
1

>  <PUBCHEM_MMFF94_PARTIAL_CHARGES>  (1) 
24
1 -0.08
10 -0.14
11 -0.09
12 0.17
13 0.72
14 0.45
15 0.12
16 0.06
17 -0.15
18 -0.15
19 -0.15
2 -0.57
20 -0.15
21 -0.14
22 0.14
3 -0.24
34 0.15
35 0.15
36 0.15
37 0.15
4 -0.58
5 -0.18
6 0.18
9 0.18

>  <PUBCHEM_EFFECTIVE_ROTOR_COUNT>  (1) 
1.8

>  <PUBCHEM_PHARMACOPHORE_FEATURES>  (1) 
5
1 2 acceptor
5 1 5 10 11 12 rings
6 15 17 18 19 20 21 rings
6 3 4 11 12 13 14 rings
6 5 6 7 8 9 10 rings

>  <PUBCHEM_HEAVY_ATOM_COUNT>  (1) 
22

>  <PUBCHEM_ATOM_DEF_STEREO_COUNT>  (1) 
0

>  <PUBCHEM_ATOM_UDEF_STEREO_COUNT>  (1) 
0

>  <PUBCHEM_BOND_DEF_STEREO_COUNT>  (1) 
0

>  <PUBCHEM_BOND_UDEF_STEREO_COUNT>  (1) 
0

>  <PUBCHEM_ISOTOPIC_ATOM_COUNT>  (1) 
0

>  <PUBCHEM_COMPONENT_COUNT>  (1) 
1

>  <PUBCHEM_CACTVS_TAUTO_COUNT>  (1) 
1

>  <PUBCHEM_CONFORMER_ID>  (1) 
00008FD100000001

>  <PUBCHEM_MMFF94_ENERGY>  (1) 
73.0054

>  <PUBCHEM_FEATURE_SELFOVERLAP>  (1) 
25.506

>  <PUBCHEM_SHAPE_FINGERPRINT>  (1) 
10411042 1 18410575046483126932
10688039 33 18187364320072665021
11796584 16 17167861997618727555
12107183 9 17626402124886916627
12166972 35 17676490549099739238
12236239 1 17846502577868815411
12403259 226 18338511946366281940
12553582 1 18341603837123639630
12596602 18 16988843895303797370
12633257 1 15841548608986632779
13140716 1 18051408762922068704
13533116 47 18200876278679959089
13544653 18 18335424560205834357
13685833 64 18334861640865972795
13862211 1 18410008832202034658
14386348 63 18040435525065185675
14739800 52 16270792519489641768
15196674 1 18338797815136357660
15352361 1 18409449184766961275
15848702 151 18202570548810237831
17357779 13 18261944193948059581
17492 89 18195525892302614782
1813 80 18270977781281407165
193927 3 18334304136609082410
19784866 140 18187079538176403427
200 152 18341890792462789017
20028762 73 18202280324991225919
20645477 70 18334291002482929754
21033648 29 18041262353414235213
21033650 10 14274576159518854750
21236236 1 18339360760520803945
21267235 1 18412548687414987102
21279426 13 18334851667878019645
21641784 216 18042140811876646756
21682296 61 18269562654335760278
221357 26 18333724728667965733
221490 88 18409729526363078588
22182313 1 18264182816844772164
23175994 123 18114184163918649013
23402539 116 18412260614756307175
23522609 53 18124066548248586224
23559900 14 17530966933520018025
25147074 1 18339660969965803984
2871803 45 18187081741510404930
3004659 81 17967811656637163402
312423 11 18337965510361458916
314194 84 18342737450728715047
3421961 26 18340205292566558184
345986 75 17988922219824354754
34797466 226 16443353116857663263
350125 39 18412265008576981424
46194498 28 17459188632742113157
465052 167 18341618143512373375
5104073 3 18269548343978776368
5283173 99 18041830715295734869
7970288 3 18410854334963885615
8863177 126 17969796361420999187
9709674 26 18338240362799259902

>  <PUBCHEM_SHAPE_MULTIPOLES>  (1) 
440.77
12.24
2.55
0.9
4.03
1.24
-0.03
-7.61
-0.66
-1.46
0.13
0.9
-0.13
0.21

>  <PUBCHEM_SHAPE_SELFOVERLAP>  (1) 
959.297

>  <PUBCHEM_SHAPE_VOLUME>  (1) 
242.8

>  <PUBCHEM_COORDINATE_TYPE>  (1) 
2
5
10

$$$$
