36826
     RDKit          3D

 18 19  0  0  0  0  0  0  0  0999 V2000
    3.6144    1.6672   -0.2859 S   0  0  0  0  0  0  0  0  0  0  0  0
    3.4780   -1.6920    0.7021 S   0  0  0  0  0  0  0  0  0  0  0  0
    0.6419    2.1251   -1.0897 O   0  0  0  0  0  0  0  0  0  0  0  0
    0.4689   -2.2958    0.1898 O   0  0  0  0  0  0  0  0  0  0  0  0
   -3.5222    0.2044    0.0097 N   0  0  0  0  0  0  0  0  0  0  0  0
    0.1510   -0.0992   -0.5545 N   0  0  0  0  0  0  0  0  0  0  0  0
   -2.1062    0.2080    0.3538 C   0  0  0  0  0  0  0  0  0  0  0  0
   -1.2639   -0.1252   -0.8689 C   0  0  0  0  0  0  0  0  0  0  0  0
   -4.3392    0.5244    1.1818 C   0  0  0  0  0  0  0  0  0  0  0  0
   -3.9159   -1.0928   -0.5438 C   0  0  0  0  0  0  0  0  0  0  0  0
    0.9462    1.0109   -0.6973 C   0  0  0  0  0  0  0  0  0  0  0  0
    0.8590   -1.1684   -0.0646 C   0  0  0  0  0  0  0  0  0  0  0  0
    2.2957    0.5931   -0.2682 C   0  0  0  0  0  0  0  0  0  0  0  0
    2.2420   -0.6822    0.1138 C   0  0  0  0  0  0  0  0  0  0  0  0
    5.0023    0.5107   -0.0641 C   0  0  0  0  0  0  0  0  0  0  0  0
    4.7705   -0.4679    1.0810 C   0  0  0  0  0  0  0  0  0  0  0  0
   -3.9479    1.8679    1.7737 C   0  0  0  0  0  0  0  0  0  0  0  0
   -5.3745   -1.0883   -0.9689 C   0  0  0  0  0  0  0  0  0  0  0  0
  1 13  1  0
  1 15  1  0
  2 14  1  0
  2 16  1  0
  3 11  2  0
  4 12  2  0
  5  7  1  0
  5  9  1  0
  5 10  1  0
  6  8  1  0
  6 11  1  0
  6 12  1  0
  7  8  1  0
  9 17  1  0
 10 18  1  0
 11 13  1  0
 12 14  1  0
 13 14  2  0
 15 16  1  0
M  END
>  <PUBCHEM_COMPOUND_CID>  (1) 
36826

>  <PUBCHEM_CONFORMER_RMSD>  (1) 
0.8

>  <PUBCHEM_CONFORMER_DIVERSEORDER>  (1) 
1
14
13
7
6
11
9
5
2
12
8
3
10
4

>  <PUBCHEM_MMFF94_PARTIAL_CHARGES>  (1) 
16
1 -0.33
10 0.27
11 0.62
12 0.62
13 0.12
14 0.12
15 0.23
16 0.23
2 -0.33
3 -0.57
4 -0.57
5 -0.81
6 -0.42
7 0.27
8 0.3
9 0.27

>  <PUBCHEM_EFFECTIVE_ROTOR_COUNT>  (1) 
6

>  <PUBCHEM_PHARMACOPHORE_FEATURES>  (1) 
5
1 3 acceptor
1 4 acceptor
1 5 cation
5 6 11 12 13 14 rings
6 1 2 13 14 15 16 rings

>  <PUBCHEM_HEAVY_ATOM_COUNT>  (1) 
18

>  <PUBCHEM_ATOM_DEF_STEREO_COUNT>  (1) 
0

>  <PUBCHEM_ATOM_UDEF_STEREO_COUNT>  (1) 
0

>  <PUBCHEM_BOND_DEF_STEREO_COUNT>  (1) 
0

>  <PUBCHEM_BOND_UDEF_STEREO_COUNT>  (1) 
0

>  <PUBCHEM_ISOTOPIC_ATOM_COUNT>  (1) 
0

>  <PUBCHEM_COMPONENT_COUNT>  (1) 
1

>  <PUBCHEM_CACTVS_TAUTO_COUNT>  (1) 
1

>  <PUBCHEM_CONFORMER_ID>  (1) 
00008FDA00000001

>  <PUBCHEM_MMFF94_ENERGY>  (1) 
23.25

>  <PUBCHEM_FEATURE_SELFOVERLAP>  (1) 
25.417

>  <PUBCHEM_SHAPE_FINGERPRINT>  (1) 
10912923 1 18413388739250474491
12107183 9 17695072102214559355
12236239 1 18272929444764853839
12596602 18 18060697312377650168
12644460 14 18040435499627710832
12670546 177 10159691378756839096
12670546 56 18343861138642971728
13544653 18 17676487215851728204
13862211 1 18260258630207385482
14252887 29 17895196567491689666
14341114 328 18202008711263889449
14386348 63 16588024610772869843
14739800 52 17702369840493915688
15209294 21 18201160962081798257
15475509 8 18126875758208916932
15788980 27 15719111379020695747
16945 1 18261938710039375454
17834072 33 18411694430534419015
17862501 102 18341326773168071047
19050596 39 18342182154918289545
19377110 9 18272379685167838243
200 152 18411409636238942223
20279233 1 16877943849938850555
20645477 56 15195277655479616661
20645477 70 17967801734983557142
20739085 24 18187941534002697388
21065198 48 18343582915188398419
231179 274 14836117732880927634
23184049 59 18333732416432578462
23402539 116 18335132081802382269
23557571 272 16343433872839956665
2748010 2 17902772087065020438
2916195 48 17131541825950028960
5104073 3 18410013234558915843
7495541 125 15123223407258304487
9849439 229 16625766275647944577

>  <PUBCHEM_SHAPE_MULTIPOLES>  (1) 
356.43
11.23
1.97
1.19
5.41
0.09
-0.29
-0.11
-2.08
-0.2
-0.15
0.84
0.36
-2.12

>  <PUBCHEM_SHAPE_SELFOVERLAP>  (1) 
708.666

>  <PUBCHEM_SHAPE_VOLUME>  (1) 
214.6

>  <PUBCHEM_COORDINATE_TYPE>  (1) 
2
5
10

$$$$
