36824
     RDKit          3D

 13 14  0  0  0  0  0  0  0  0999 V2000
   -1.9534    1.7440    0.1093 S   0  0  0  0  0  0  0  0  0  0  0  0
   -1.9391   -1.7588    0.0173 S   0  0  0  0  0  0  0  0  0  0  0  0
    1.0960    2.3142   -0.1304 O   0  0  0  0  0  0  0  0  0  0  0  0
    1.1145   -2.2892   -0.2711 O   0  0  0  0  0  0  0  0  0  0  0  0
    1.5201    0.0154   -0.2523 N   0  0  0  0  0  0  0  0  0  0  0  0
   -0.6454    0.6671   -0.0403 C   0  0  0  0  0  0  0  0  0  0  0  0
   -0.6394   -0.6650   -0.0681 C   0  0  0  0  0  0  0  0  0  0  0  0
    0.7480    1.1452   -0.1443 C   0  0  0  0  0  0  0  0  0  0  0  0
    0.7562   -1.1248   -0.2111 C   0  0  0  0  0  0  0  0  0  0  0  0
    2.9646    0.0177   -0.3769 C   0  0  0  0  0  0  0  0  0  0  0  0
   -3.3550    0.6295   -0.2166 C   0  0  0  0  0  0  0  0  0  0  0  0
   -3.2744   -0.6619    0.5887 C   0  0  0  0  0  0  0  0  0  0  0  0
    3.6072   -0.0334    0.9958 C   0  0  0  0  0  0  0  0  0  0  0  0
  1  6  1  0
  1 11  1  0
  2  7  1  0
  2 12  1  0
  3  8  2  0
  4  9  2  0
  5  8  1  0
  5  9  1  0
  5 10  1  0
  6  7  2  0
  6  8  1  0
  7  9  1  0
 10 13  1  0
 11 12  1  0
M  END
>  <PUBCHEM_COMPOUND_CID>  (1) 
36824

>  <PUBCHEM_CONFORMER_RMSD>  (1) 
0.6

>  <PUBCHEM_CONFORMER_DIVERSEORDER>  (1) 
1

>  <PUBCHEM_MMFF94_PARTIAL_CHARGES>  (1) 
12
1 -0.33
10 0.3
11 0.23
12 0.23
2 -0.33
3 -0.57
4 -0.57
5 -0.42
6 0.12
7 0.12
8 0.62
9 0.62

>  <PUBCHEM_EFFECTIVE_ROTOR_COUNT>  (1) 
2

>  <PUBCHEM_PHARMACOPHORE_FEATURES>  (1) 
4
1 3 acceptor
1 4 acceptor
5 5 6 7 8 9 rings
6 1 2 6 7 11 12 rings

>  <PUBCHEM_HEAVY_ATOM_COUNT>  (1) 
13

>  <PUBCHEM_ATOM_DEF_STEREO_COUNT>  (1) 
0

>  <PUBCHEM_ATOM_UDEF_STEREO_COUNT>  (1) 
0

>  <PUBCHEM_BOND_DEF_STEREO_COUNT>  (1) 
0

>  <PUBCHEM_BOND_UDEF_STEREO_COUNT>  (1) 
0

>  <PUBCHEM_ISOTOPIC_ATOM_COUNT>  (1) 
0

>  <PUBCHEM_COMPONENT_COUNT>  (1) 
1

>  <PUBCHEM_CACTVS_TAUTO_COUNT>  (1) 
1

>  <PUBCHEM_CONFORMER_ID>  (1) 
00008FD800000001

>  <PUBCHEM_MMFF94_ENERGY>  (1) 
14.1065

>  <PUBCHEM_FEATURE_SELFOVERLAP>  (1) 
20.343

>  <PUBCHEM_SHAPE_FINGERPRINT>  (1) 
10219947 1 18411699885300938914
10967382 1 18410858728851527183
11132069 177 18410288108017885024
12032990 46 18339651048764864982
12251169 10 18335980951664937067
12382932 28 18338795598384496584
12423570 1 15231068575972171324
124424 183 17967242096681633291
13140716 1 18267306619620257899
13380535 76 18410289190429135103
14144814 61 18410295783134992531
15219456 202 18269838627110776335
16945 1 18411707586177294173
193761 8 17690844883611132708
20201158 50 18409730651612588711
20588541 1 18409450245718738053
21501502 16 18193841663509968109
2334 1 17979076316435517069
23380061 330 18341609347471676287
23402539 116 18341320159393111223
23402655 69 18268979905205233309
23463225 33 18334292042091894698
23552423 10 18044941409367218237
23559900 14 18343029874547299764
2748010 2 18122914122633279279
5084963 1 18059021703579903339
528886 8 18411696595129286283
53812653 166 18343297050565187784
7364860 26 18056478344460036718
8809292 202 18187653560671889691

>  <PUBCHEM_SHAPE_MULTIPOLES>  (1) 
258.51
5.23
2.14
0.75
0.76
0.02
0.09
-0.02
0.97
-0.42
-0.13
0.19
-0.03
0.12

>  <PUBCHEM_SHAPE_SELFOVERLAP>  (1) 
521.887

>  <PUBCHEM_SHAPE_VOLUME>  (1) 
153.8

>  <PUBCHEM_COORDINATE_TYPE>  (1) 
2
5
10

$$$$
