36834
     RDKit          3D

 24 26  0  0  1  0  0  0  0  0999 V2000
    0.1810   -4.7602   -0.5544 Cl  0  0  0  0  0  0  0  0  0  0  0  0
   -4.0855    2.0619   -1.6595 F   0  0  0  0  0  0  0  0  0  0  0  0
   -2.0819    2.6642   -1.0468 F   0  0  0  0  0  0  0  0  0  0  0  0
   -2.4138    0.6865   -1.9164 F   0  0  0  0  0  0  0  0  0  0  0  0
    3.4136    1.1319    1.7569 F   0  0  0  0  0  0  0  0  0  0  0  0
   -1.9611    0.6043    0.8859 N   0  0  0  0  0  0  0  0  0  0  0  0
    0.8174    0.9328    1.8951 N   0  0  0  0  0  0  0  0  0  0  0  0
   -1.5890    1.2459    2.1538 C   0  0  0  0  0  0  0  0  0  0  0  0
   -1.4539   -0.6448    0.5396 C   0  0  0  0  0  0  0  0  0  0  0  0
   -0.0673   -0.9128    0.5392 C   0  0  0  0  0  0  0  0  0  0  0  0
   -3.2067    1.0622    0.2793 C   0  0  0  0  0  0  0  0  0  0  0  0
   -0.3106    0.7270    2.7952 C   0  0  0  0  0  0  0  0  0  0  0  0
    0.9166    0.1619    0.8631 C   0  0  0  0  0  0  0  0  0  0  0  0
   -2.3002   -1.7017    0.1490 C   0  0  0  0  0  0  0  0  0  0  0  0
    0.4360   -2.1832    0.2131 C   0  0  0  0  0  0  0  0  0  0  0  0
    2.0728    0.3788   -0.0536 C   0  0  0  0  0  0  0  0  0  0  0  0
   -2.9383    1.6219   -1.0964 C   0  0  0  0  0  0  0  0  0  0  0  0
   -1.8003   -2.9635   -0.1885 C   0  0  0  0  0  0  0  0  0  0  0  0
   -0.4333   -3.2057   -0.1498 C   0  0  0  0  0  0  0  0  0  0  0  0
    3.2760    0.8588    0.4513 C   0  0  0  0  0  0  0  0  0  0  0  0
    1.9349    0.0970   -1.4082 C   0  0  0  0  0  0  0  0  0  0  0  0
    4.3552    1.0597   -0.4093 C   0  0  0  0  0  0  0  0  0  0  0  0
    3.0142    0.2980   -2.2689 C   0  0  0  0  0  0  0  0  0  0  0  0
    4.2242    0.7793   -1.7695 C   0  0  0  0  0  0  0  0  0  0  0  0
  1 19  1  0
  2 17  1  0
  3 17  1  0
  4 17  1  0
  5 20  1  0
  6  8  1  0
  6  9  1  0
  6 11  1  0
  7 12  1  0
  7 13  2  0
  8 12  1  0
  9 10  2  0
  9 14  1  0
 10 13  1  0
 10 15  1  0
 11 17  1  0
 13 16  1  0
 14 18  2  0
 15 19  2  0
 16 20  2  0
 16 21  1  0
 18 19  1  0
 20 22  1  0
 21 23  2  0
 22 24  2  0
 23 24  1  0
M  END
>  <PUBCHEM_COMPOUND_CID>  (1) 
36834

>  <PUBCHEM_CONFORMER_RMSD>  (1) 
0.6

>  <PUBCHEM_CONFORMER_DIVERSEORDER>  (1) 
1
29
31
27
8
15
25
7
2
28
9
24
30
11
10
19
6
3
26
23
13
12
14
17
21
4
16
20
22
5
18

>  <PUBCHEM_MMFF94_PARTIAL_CHARGES>  (1) 
31
1 -0.18
10 0.09
11 0.37
12 0.25
13 0.28
14 -0.15
15 -0.15
16 0.09
17 1.02
18 -0.15
19 0.18
2 -0.34
20 0.19
21 -0.15
22 -0.15
23 -0.15
24 -0.15
3 -0.34
31 0.15
32 0.15
33 0.15
34 0.15
35 0.15
36 0.15
37 0.15
4 -0.34
5 -0.19
6 -0.84
7 -0.7
8 0.37
9 0.1

>  <PUBCHEM_EFFECTIVE_ROTOR_COUNT>  (1) 
3.6

>  <PUBCHEM_PHARMACOPHORE_FEATURES>  (1) 
5
1 6 cation
1 7 acceptor
6 16 20 21 22 23 24 rings
6 9 10 14 15 18 19 rings
7 6 7 8 9 10 12 13 rings

>  <PUBCHEM_HEAVY_ATOM_COUNT>  (1) 
24

>  <PUBCHEM_ATOM_DEF_STEREO_COUNT>  (1) 
0

>  <PUBCHEM_ATOM_UDEF_STEREO_COUNT>  (1) 
0

>  <PUBCHEM_BOND_DEF_STEREO_COUNT>  (1) 
0

>  <PUBCHEM_BOND_UDEF_STEREO_COUNT>  (1) 
0

>  <PUBCHEM_ISOTOPIC_ATOM_COUNT>  (1) 
0

>  <PUBCHEM_COMPONENT_COUNT>  (1) 
1

>  <PUBCHEM_CACTVS_TAUTO_COUNT>  (1) 
1

>  <PUBCHEM_CONFORMER_ID>  (1) 
00008FE200000001

>  <PUBCHEM_MMFF94_ENERGY>  (1) 
88.7969

>  <PUBCHEM_FEATURE_SELFOVERLAP>  (1) 
25.386

>  <PUBCHEM_SHAPE_FINGERPRINT>  (1) 
10165383 225 18267891431062964001
11221954 11 17315643889512066365
11640471 11 17531513352181324692
121448 382 18200861954842642334
12160290 23 18267313212232183178
12173636 292 18128282032705116273
12403814 3 18116167721317500883
12714826 92 18196101168421448082
13149001 5 18059285595061017113
133893 2 17904778677793660715
13583140 156 18057019502424209584
13681431 1 17543914503328964762
14022347 108 17614549763360603059
14181834 199 17904747899963214803
14817 1 15866930826039181379
15163728 17 18116449049959810189
15463212 79 18115871974370317146
15534591 1 17458346359463949745
16752209 62 18337949120592392018
16945 1 18123762103670193010
17349148 13 17774727438076037330
17357779 13 17842547733011864487
17492 54 17749934653471075317
1813 80 17616260620501214651
18186145 218 18272662242064817888
19868273 293 18333734636751419920
20600515 1 17619056674359941379
21285901 2 17912650395164857127
21330990 113 18269014110024124339
21452121 199 17043735084695750254
22907989 373 18266465492977135133
23114952 82 18047474413827732701
23419403 2 17414707967292225233
23557571 272 17984989442894010792
23559900 14 18059589001147887100
238 59 18047190744091170127
25222932 49 15680175542230513151
26353 1 17474104779257022111
266924 78 17836105376620097777
298252 57 18114178627088535129
469060 322 17900565637178355627
531348 171 18187943810936472054
5845 1 16681751062033041066
6287921 2 17901663770327292917
6438718 38 17676491678613042396
81228 2 17979936112969783810
9709674 26 17130455474339450308

>  <PUBCHEM_SHAPE_MULTIPOLES>  (1) 
456.72
6.32
3.75
2.2
5.42
5.71
-0.27
-4.1
3.07
-3.14
0.71
0.02
-1.66
1.01

>  <PUBCHEM_SHAPE_SELFOVERLAP>  (1) 
989.345

>  <PUBCHEM_SHAPE_VOLUME>  (1) 
250.8

>  <PUBCHEM_COORDINATE_TYPE>  (1) 
2
5
10

$$$$
