36836
     RDKit          3D

 23 24  0  0  0  0  0  0  0  0999 V2000
   -0.6662    1.5099    0.5550 O   0  0  0  0  0  0  0  0  0  0  0  0
   -3.8985   -1.8014    0.3804 O   0  0  0  0  0  0  0  0  0  0  0  0
    0.2798   -2.6509   -1.2824 O   0  0  0  0  0  0  0  0  0  0  0  0
   -0.1698   -0.4826   -0.5419 N   0  0  0  0  0  0  0  0  0  0  0  0
   -1.8177   -2.1780   -0.5089 N   0  0  0  0  0  0  0  0  0  0  0  0
   -2.5226    0.1268   -0.1293 C   0  0  0  0  0  0  0  0  0  0  0  0
   -3.3416    0.8887    0.9247 C   0  0  0  0  0  0  0  0  0  0  0  0
   -2.9545    0.5904   -1.5323 C   0  0  0  0  0  0  0  0  0  0  0  0
   -1.0402    0.4624    0.0246 C   0  0  0  0  0  0  0  0  0  0  0  0
   -2.8256   -1.3590   -0.0275 C   0  0  0  0  0  0  0  0  0  0  0  0
    1.2294   -0.1040   -0.7001 C   0  0  0  0  0  0  0  0  0  0  0  0
   -0.5104   -1.8186   -0.8294 C   0  0  0  0  0  0  0  0  0  0  0  0
    2.0778   -0.4763    0.5134 C   0  0  0  0  0  0  0  0  0  0  0  0
   -2.9484    0.4722    2.3028 C   0  0  0  0  0  0  0  0  0  0  0  0
   -2.6225    2.0312   -1.7419 C   0  0  0  0  0  0  0  0  0  0  0  0
    3.5224   -0.0640    0.3704 C   0  0  0  0  0  0  0  0  0  0  0  0
   -3.7991   -0.0583    3.1885 C   0  0  0  0  0  0  0  0  0  0  0  0
   -3.5320    2.9684   -2.0311 C   0  0  0  0  0  0  0  0  0  0  0  0
    4.4278   -0.9452   -0.1999 C   0  0  0  0  0  0  0  0  0  0  0  0
    3.9188    1.1891    0.8114 C   0  0  0  0  0  0  0  0  0  0  0  0
    5.7630   -0.5642   -0.3324 C   0  0  0  0  0  0  0  0  0  0  0  0
    5.2540    1.5702    0.6788 C   0  0  0  0  0  0  0  0  0  0  0  0
    6.1761    0.6935    0.1069 C   0  0  0  0  0  0  0  0  0  0  0  0
  1  9  2  0
  2 10  2  0
  3 12  2  0
  4  9  1  0
  4 11  1  0
  4 12  1  0
  5 10  1  0
  5 12  1  0
  6  7  1  0
  6  8  1  0
  6  9  1  0
  6 10  1  0
  7 14  1  0
  8 15  1  0
 11 13  1  0
 13 16  1  0
 14 17  2  0
 15 18  2  0
 16 19  2  0
 16 20  1  0
 19 21  1  0
 20 22  2  0
 21 23  2  0
 22 23  1  0
M  END
>  <PUBCHEM_COMPOUND_CID>  (1) 
36836

>  <PUBCHEM_CONFORMER_RMSD>  (1) 
0.8

>  <PUBCHEM_CONFORMER_DIVERSEORDER>  (1) 
1
94
81
35
61
69
12
93
4
27
46
95
50
3
59
88
22
65
32
85
56
28
67
2
62
90
6
78
18
97
44
9
38
17
37
53
73
41
100
83
91
52
36
84
80
68
15
49
8
11
45
29
19
16
48
47
58
21
92
43
89
98
64
42
34
63
13
25
72
79
26
75
99
77
51
40
54
7
76
24
71
20
60
14
23
30
74
66
33
86
82
39
31
10
5
55
96
70
87
57

>  <PUBCHEM_MMFF94_PARTIAL_CHARGES>  (1) 
35
1 -0.57
10 0.57
11 0.3
12 0.69
13 0.14
14 -0.29
15 -0.29
16 -0.14
17 -0.3
18 -0.3
19 -0.15
2 -0.57
20 -0.15
21 -0.15
22 -0.15
23 -0.15
3 -0.57
30 0.37
33 0.15
34 0.15
35 0.15
36 0.15
37 0.15
38 0.15
39 0.15
4 -0.42
40 0.15
41 0.15
42 0.15
43 0.15
5 -0.49
6 0.12
7 0.14
8 0.14
9 0.57

>  <PUBCHEM_EFFECTIVE_ROTOR_COUNT>  (1) 
7.6

>  <PUBCHEM_PHARMACOPHORE_FEATURES>  (1) 
8
1 1 acceptor
1 17 hydrophobe
1 18 hydrophobe
1 2 acceptor
1 3 acceptor
1 5 donor
6 16 19 20 21 22 23 rings
6 4 5 6 9 10 12 rings

>  <PUBCHEM_HEAVY_ATOM_COUNT>  (1) 
23

>  <PUBCHEM_ATOM_DEF_STEREO_COUNT>  (1) 
0

>  <PUBCHEM_ATOM_UDEF_STEREO_COUNT>  (1) 
0

>  <PUBCHEM_BOND_DEF_STEREO_COUNT>  (1) 
0

>  <PUBCHEM_BOND_UDEF_STEREO_COUNT>  (1) 
0

>  <PUBCHEM_ISOTOPIC_ATOM_COUNT>  (1) 
0

>  <PUBCHEM_COMPONENT_COUNT>  (1) 
1

>  <PUBCHEM_CACTVS_TAUTO_COUNT>  (1) 
3

>  <PUBCHEM_CONFORMER_ID>  (1) 
00008FE400000001

>  <PUBCHEM_MMFF94_ENERGY>  (1) 
58.1367

>  <PUBCHEM_FEATURE_SELFOVERLAP>  (1) 
40.596

>  <PUBCHEM_SHAPE_FINGERPRINT>  (1) 
10366900 7 17530960323691989456
10498660 4 18340194229268756756
10680689 15 18113618984534095192
11552529 35 17702659024625679094
12107183 9 17700146404644291690
12390115 104 17560260088121593970
12633257 1 18130786725231747698
12930653 34 17313670339090861827
13583140 156 17894910707116148896
13675066 3 18040437672738581718
14068700 675 15575572399799771835
14142880 1 17988650679455132785
14468879 13 18115580423094556757
15183329 4 18131637760422418998
15534591 1 16630252407326218699
17844677 252 18113900477176264268
21033648 144 17987786527804026728
21033648 29 18337376185125013024
21315759 148 17313115137812252498
21401589 2 17824258190577011125
21756936 100 17060627680549088154
22182313 1 18191601747960501247
23402539 116 16917065547423363960
23557571 272 17750244616385806029
23559900 14 18060135415424841718
376196 1 17393865285843018141
4214541 1 18201438112501019850
497634 4 18130508638388017589
5104073 3 17240755143690950880
59755656 520 17703796902985001799
633830 44 17346328050818262166
90127 26 18113616777311431560
9981440 41 18115857508788523753

>  <PUBCHEM_SHAPE_MULTIPOLES>  (1) 
445.76
11.86
2.37
2
19.51
0.81
1.4
2.95
2.75
-2.6
-1.46
-3.11
0.01
2.06

>  <PUBCHEM_SHAPE_SELFOVERLAP>  (1) 
937.761

>  <PUBCHEM_SHAPE_VOLUME>  (1) 
247.2

>  <PUBCHEM_COORDINATE_TYPE>  (1) 
2
5
10

$$$$
