36830
     RDKit          3D

 12 12  0  0  0  0  0  0  0  0999 V2000
    4.2693    0.4807   -0.0003 O   0  0  0  0  0  0  0  0  0  0  0  0
   -2.1802    1.3690   -0.0008 O   0  0  0  0  0  0  0  0  0  0  0  0
   -1.1400   -0.7423   -0.0003 N   0  0  0  0  0  0  0  0  0  0  0  0
    0.2209   -0.4351   -0.0008 C   0  0  0  0  0  0  0  0  0  0  0  0
    1.1676   -1.4594   -0.0005 C   0  0  0  0  0  0  0  0  0  0  0  0
    0.6346    0.8971   -0.0003 C   0  0  0  0  0  0  0  0  0  0  0  0
    2.5280   -1.1517    0.0005 C   0  0  0  0  0  0  0  0  0  0  0  0
    1.9951    1.2049    0.0006 C   0  0  0  0  0  0  0  0  0  0  0  0
    2.9419    0.1805    0.0009 C   0  0  0  0  0  0  0  0  0  0  0  0
   -2.2255    0.1445   -0.0005 C   0  0  0  0  0  0  0  0  0  0  0  0
   -3.5288   -0.5814    0.0003 C   0  0  0  0  0  0  0  0  0  0  0  0
   -4.6829    0.0932    0.0010 C   0  0  0  0  0  0  0  0  0  0  0  0
  1  9  1  0
  2 10  2  0
  3  4  1  0
  3 10  1  0
  4  5  2  0
  4  6  1  0
  5  7  1  0
  6  8  2  0
  7  9  2  0
  8  9  1  0
 10 11  1  0
 11 12  2  0
M  END
>  <PUBCHEM_COMPOUND_CID>  (1) 
36830

>  <PUBCHEM_CONFORMER_RMSD>  (1) 
0.6

>  <PUBCHEM_CONFORMER_DIVERSEORDER>  (1) 
1
3
2

>  <PUBCHEM_MMFF94_PARTIAL_CHARGES>  (1) 
21
1 -0.53
10 0.62
11 -0.14
12 -0.3
13 0.15
14 0.15
15 0.15
16 0.15
17 0.37
18 0.15
19 0.45
2 -0.57
20 0.15
21 0.15
3 -0.55
4 0.12
5 -0.15
6 -0.15
7 -0.15
8 -0.15
9 0.08

>  <PUBCHEM_EFFECTIVE_ROTOR_COUNT>  (1) 
3

>  <PUBCHEM_PHARMACOPHORE_FEATURES>  (1) 
5
1 1 donor
1 12 hydrophobe
1 2 acceptor
1 3 donor
6 4 5 6 7 8 9 rings

>  <PUBCHEM_HEAVY_ATOM_COUNT>  (1) 
12

>  <PUBCHEM_ATOM_DEF_STEREO_COUNT>  (1) 
0

>  <PUBCHEM_ATOM_UDEF_STEREO_COUNT>  (1) 
0

>  <PUBCHEM_BOND_DEF_STEREO_COUNT>  (1) 
0

>  <PUBCHEM_BOND_UDEF_STEREO_COUNT>  (1) 
0

>  <PUBCHEM_ISOTOPIC_ATOM_COUNT>  (1) 
0

>  <PUBCHEM_COMPONENT_COUNT>  (1) 
1

>  <PUBCHEM_CACTVS_TAUTO_COUNT>  (1) 
4

>  <PUBCHEM_CONFORMER_ID>  (1) 
00008FDE00000001

>  <PUBCHEM_MMFF94_ENERGY>  (1) 
32.0268

>  <PUBCHEM_FEATURE_SELFOVERLAP>  (1) 
25.371

>  <PUBCHEM_SHAPE_FINGERPRINT>  (1) 
10219947 1 18407762538377771014
10608611 8 18408599241110042933
11062470 55 18411419518241265211
11471102 20 18410853252536122743
12932764 1 17060042731920713379
13380535 76 18409168835124806490
14144814 61 18411700954700381411
14251717 144 18411135831351310839
14325111 11 18410573959408066593
15442244 35 18051695447150601947
15775835 57 18201439207195421471
17802600 8 18411131441968704201
18522853 276 18341892987133243577
200 152 18201712960343069431
20201158 50 18407762534135687819
20279233 1 17894355479693273851
20645477 70 18339638932815493711
20871998 22 18054509102192236558
23402539 116 18409439311006328639
23402655 69 18341326713265375973
528886 8 18411414038190088746

>  <PUBCHEM_SHAPE_MULTIPOLES>  (1) 
230.23
7.53
1.33
0.59
4.72
0.04
0
-0.48
0
-0.5
0
0.01
0.01
0

>  <PUBCHEM_SHAPE_SELFOVERLAP>  (1) 
476.461

>  <PUBCHEM_SHAPE_VOLUME>  (1) 
131

>  <PUBCHEM_COORDINATE_TYPE>  (1) 
2
5
10

$$$$
