36841
     RDKit          3D

 13 12  0  0  0  0  0  0  0  0999 V2000
    2.3854   -1.1182    0.0838 S   0  0  0  0  0  0  0  0  0  0  0  0
   -1.5971    0.0130   -0.0571 N   0  0  0  0  0  0  0  0  0  0  0  0
    4.9250   -0.4267    0.1951 N   0  0  0  0  0  0  0  0  0  0  0  0
    3.3749    1.3550    0.1628 N   0  0  0  0  0  0  0  0  0  0  0  0
   -0.3795   -0.8989   -0.0104 C   0  0  0  0  0  0  0  0  0  0  0  0
   -1.4845    0.9488   -1.2521 C   0  0  0  0  0  0  0  0  0  0  0  0
   -2.8572   -0.8300   -0.1898 C   0  0  0  0  0  0  0  0  0  0  0  0
   -1.6672    0.8320    1.2236 C   0  0  0  0  0  0  0  0  0  0  0  0
    0.8967   -0.0751    0.0397 C   0  0  0  0  0  0  0  0  0  0  0  0
   -1.4153    0.1292   -2.5220 C   0  0  0  0  0  0  0  0  0  0  0  0
   -2.9636   -1.7579    1.0006 C   0  0  0  0  0  0  0  0  0  0  0  0
   -2.8793    1.7362    1.1712 C   0  0  0  0  0  0  0  0  0  0  0  0
    3.6616    0.0925    0.1546 C   0  0  0  0  0  0  0  0  0  0  0  0
  1  9  1  0
  1 13  1  0
  2  5  1  0
  2  6  1  0
  2  7  1  0
  2  8  1  0
  3 13  1  0
  4 13  2  0
  5  9  1  0
  6 10  1  0
  7 11  1  0
  8 12  1  0
M  CHG  1   2   1
M  END
>  <PUBCHEM_COMPOUND_CID>  (1) 
36841

>  <PUBCHEM_CONFORMER_RMSD>  (1) 
0.8

>  <PUBCHEM_CONFORMER_DIVERSEORDER>  (1) 
11
16
19
48
38
47
28
39
1
20
2
37
46
21
44
3
29
43
10
30
45
25
12
31
40
52
32
27
42
51
33
41
26
53
4
7
50
8
5
49
9
6
54
17
35
22
14
18
36
23
34
24
13
15

>  <PUBCHEM_MMFF94_PARTIAL_CHARGES>  (1) 
13
1 -0.37
13 0.64
2 -1.01
3 -0.85
33 0.4
34 0.4
35 0.4
4 -0.85
5 0.5
6 0.5
7 0.5
8 0.5
9 0.23

>  <PUBCHEM_EFFECTIVE_ROTOR_COUNT>  (1) 
7

>  <PUBCHEM_PHARMACOPHORE_FEATURES>  (1) 
4
1 2 cation
1 3 donor
1 4 donor
3 3 4 13 cation

>  <PUBCHEM_HEAVY_ATOM_COUNT>  (1) 
13

>  <PUBCHEM_ATOM_DEF_STEREO_COUNT>  (1) 
0

>  <PUBCHEM_ATOM_UDEF_STEREO_COUNT>  (1) 
0

>  <PUBCHEM_BOND_DEF_STEREO_COUNT>  (1) 
0

>  <PUBCHEM_BOND_UDEF_STEREO_COUNT>  (1) 
0

>  <PUBCHEM_ISOTOPIC_ATOM_COUNT>  (1) 
0

>  <PUBCHEM_COMPONENT_COUNT>  (1) 
1

>  <PUBCHEM_CACTVS_TAUTO_COUNT>  (1) 
1

>  <PUBCHEM_CONFORMER_ID>  (1) 
00008FE90000000B

>  <PUBCHEM_MMFF94_ENERGY>  (1) 
45.2417

>  <PUBCHEM_FEATURE_SELFOVERLAP>  (1) 
20.335

>  <PUBCHEM_SHAPE_FINGERPRINT>  (1) 
10680689 15 16988560213014251506
10989021 7 17313955258509901045
122479 349 17844819083395270937
12916754 54 18114181968989699138
12932764 1 17676488285668038386
13024252 1 14056719028812600191
13214271 11 18202003209315661944
18186145 218 18335138653450673666
200 152 18342727555203115103
21524375 3 17199671766827464785
22959321 28 17846787324972347760
2306618 200 18040989614100304437
23557571 272 17894628136822531670
3248919 1 18271231730181962954
4175511 318 16487254357017823941
81228 2 15936967418963051653

>  <PUBCHEM_SHAPE_MULTIPOLES>  (1) 
256.44
7.2
1.58
1.56
9.68
0.23
0.8
0.4
-1.66
-1.05
-0.3
-1.56
-0.68
0.07

>  <PUBCHEM_SHAPE_SELFOVERLAP>  (1) 
461.952

>  <PUBCHEM_SHAPE_VOLUME>  (1) 
167.9

>  <PUBCHEM_COORDINATE_TYPE>  (1) 
2
5
10

$$$$
