36843
     RDKit          3D

 15 15  0  0  0  0  0  0  0  0999 V2000
    1.5351    1.4583    0.5253 S   0  0  0  0  0  0  0  0  0  0  0  0
   -2.2797   -0.0703    0.0054 N   0  0  0  0  0  0  0  0  0  0  0  0
    4.0508    0.9784   -0.3032 N   0  0  0  0  0  0  0  0  0  0  0  0
    2.8293   -0.8635    0.2493 N   0  0  0  0  0  0  0  0  0  0  0  0
   -1.1832    0.9285    0.3464 C   0  0  0  0  0  0  0  0  0  0  0  0
   -2.2076   -0.4175   -1.4746 C   0  0  0  0  0  0  0  0  0  0  0  0
   -3.6378    0.5415    0.3174 C   0  0  0  0  0  0  0  0  0  0  0  0
   -2.0903   -1.3338    0.8325 C   0  0  0  0  0  0  0  0  0  0  0  0
    0.1859    0.3088    0.1196 C   0  0  0  0  0  0  0  0  0  0  0  0
   -3.2998   -1.4103   -1.8074 C   0  0  0  0  0  0  0  0  0  0  0  0
   -3.8203    1.7967   -0.5076 C   0  0  0  0  0  0  0  0  0  0  0  0
   -2.1629   -0.9825    2.3024 C   0  0  0  0  0  0  0  0  0  0  0  0
    2.8857    0.4365    0.1359 C   0  0  0  0  0  0  0  0  0  0  0  0
    5.0046   -0.0596   -0.5557 C   0  0  0  0  0  0  0  0  0  0  0  0
    4.1903   -1.3112   -0.1857 C   0  0  0  0  0  0  0  0  0  0  0  0
  1  9  1  0
  1 13  1  0
  2  5  1  0
  2  6  1  0
  2  7  1  0
  2  8  1  0
  3 13  1  0
  3 14  1  0
  4 13  2  0
  4 15  1  0
  5  9  1  0
  6 10  1  0
  7 11  1  0
  8 12  1  0
 14 15  1  0
M  CHG  1   2   1
M  END
>  <PUBCHEM_COMPOUND_CID>  (1) 
36843

>  <PUBCHEM_CONFORMER_RMSD>  (1) 
0.8

>  <PUBCHEM_CONFORMER_DIVERSEORDER>  (1) 
20
13
36
41
46
43
2
4
40
48
21
15
3
45
47
7
5
19
14
31
44
42
16
1
6
39
27
17
32
11
33
18
25
37
52
26
23
38
9
24
54
8
22
49
12
53
28
50
10
51
30
34
29
35

>  <PUBCHEM_MMFF94_PARTIAL_CHARGES>  (1) 
13
1 -0.37
13 0.64
14 0.37
15 0.25
2 -1.01
3 -0.82
37 0.4
4 -0.7
5 0.5
6 0.5
7 0.5
8 0.5
9 0.23

>  <PUBCHEM_EFFECTIVE_ROTOR_COUNT>  (1) 
7.6

>  <PUBCHEM_PHARMACOPHORE_FEATURES>  (1) 
4
1 2 cation
1 3 donor
3 3 4 13 cation
5 3 4 13 14 15 rings

>  <PUBCHEM_HEAVY_ATOM_COUNT>  (1) 
15

>  <PUBCHEM_ATOM_DEF_STEREO_COUNT>  (1) 
0

>  <PUBCHEM_ATOM_UDEF_STEREO_COUNT>  (1) 
0

>  <PUBCHEM_BOND_DEF_STEREO_COUNT>  (1) 
0

>  <PUBCHEM_BOND_UDEF_STEREO_COUNT>  (1) 
0

>  <PUBCHEM_ISOTOPIC_ATOM_COUNT>  (1) 
0

>  <PUBCHEM_COMPONENT_COUNT>  (1) 
1

>  <PUBCHEM_CACTVS_TAUTO_COUNT>  (1) 
1

>  <PUBCHEM_CONFORMER_ID>  (1) 
00008FEB00000014

>  <PUBCHEM_MMFF94_ENERGY>  (1) 
54.905

>  <PUBCHEM_FEATURE_SELFOVERLAP>  (1) 
20.297

>  <PUBCHEM_SHAPE_FINGERPRINT>  (1) 
10680689 15 18343869926377998964
11046707 91 17418091044269440638
11315181 36 16559031597587537194
12173636 292 17531242803960065853
12346177 29 17274811463571818965
124424 183 18343865498034855105
12596599 1 17346609590203703326
12916754 54 17702941577622830365
13296908 3 18186806915296068842
13533116 47 14979406045157450639
15375358 24 18409448077060836474
18186145 218 17168143451342108072
200 152 18272931626682008616
20325693 3 17095246921094280715
20645477 56 16153705418614713471
20645477 70 18343022147410828878
20871999 31 16733260252805823067
22485316 2 18131627885722906036
22646028 28 17846775247661539614
22854114 59 9871744698243193464
2306618 200 17131838659782706313
23402539 116 18259982661489277692
23402655 69 18412827954546386020
23503958 8 16128664054525553438
23557571 272 16733266849780469012
23559900 14 17274809273275732592
4921388 177 17022913379449377458
58051976 100 18202275940087111421
633830 44 18113337501062369468

>  <PUBCHEM_SHAPE_MULTIPOLES>  (1) 
297.6
9.61
1.65
1.48
9.38
0.09
0.49
-0.63
-2.25
-0.71
-0.2
-1.85
-0.67
-0.03

>  <PUBCHEM_SHAPE_SELFOVERLAP>  (1) 
559.434

>  <PUBCHEM_SHAPE_VOLUME>  (1) 
189.1

>  <PUBCHEM_COORDINATE_TYPE>  (1) 
2
5
10

$$$$
