36857
     RDKit          3D

 24 26  0  0  0  0  0  0  0  0999 V2000
   -5.7216   -1.1016    0.3549 F   0  0  0  0  0  0  0  0  0  0  0  0
   -4.6170   -0.0150    1.8725 F   0  0  0  0  0  0  0  0  0  0  0  0
   -4.9573    0.8880   -0.0762 F   0  0  0  0  0  0  0  0  0  0  0  0
    3.5631    0.0187    0.1300 O   0  0  0  0  0  0  0  0  0  0  0  0
    5.7185   -2.8434    0.4374 O   0  0  0  0  0  0  0  0  0  0  0  0
    6.2012   -0.6175    0.4176 O   0  0  0  0  0  0  0  0  0  0  0  0
    0.2008    0.0078   -0.2205 N   0  0  0  0  0  0  0  0  0  0  0  0
    1.3698   -0.6452   -0.0905 N   0  0  0  0  0  0  0  0  0  0  0  0
   -0.6642    2.2636   -0.3381 N   0  0  0  0  0  0  0  0  0  0  0  0
    0.3295    1.3653   -0.2234 C   0  0  0  0  0  0  0  0  0  0  0  0
    1.6849    1.6206   -0.0849 C   0  0  0  0  0  0  0  0  0  0  0  0
   -0.9899   -0.7083   -0.3361 C   0  0  0  0  0  0  0  0  0  0  0  0
    2.2692    0.3407   -0.0085 C   0  0  0  0  0  0  0  0  0  0  0  0
   -2.1721   -0.1563    0.1413 C   0  0  0  0  0  0  0  0  0  0  0  0
   -3.3631   -0.8732    0.0253 C   0  0  0  0  0  0  0  0  0  0  0  0
   -0.9795   -1.9655   -0.9273 C   0  0  0  0  0  0  0  0  0  0  0  0
    2.1014    2.9573   -0.0576 C   0  0  0  0  0  0  0  0  0  0  0  0
   -3.3622   -2.1361   -0.5669 C   0  0  0  0  0  0  0  0  0  0  0  0
   -2.1705   -2.6822   -1.0432 C   0  0  0  0  0  0  0  0  0  0  0  0
    1.1142    3.9361   -0.1727 C   0  0  0  0  0  0  0  0  0  0  0  0
   -0.2127    3.5408   -0.3064 C   0  0  0  0  0  0  0  0  0  0  0  0
   -4.6377   -0.2900    0.5347 C   0  0  0  0  0  0  0  0  0  0  0  0
    3.9047   -1.3753    0.1827 C   0  0  0  0  0  0  0  0  0  0  0  0
    5.3902   -1.5293    0.3559 C   0  0  0  0  0  0  0  0  0  0  0  0
  1 22  1  0
  2 22  1  0
  3 22  1  0
  4 13  1  0
  4 23  1  0
  5 24  1  0
  6 24  2  0
  7  8  1  0
  7 10  1  0
  7 12  1  0
  8 13  2  0
  9 10  2  0
  9 21  1  0
 10 11  1  0
 11 13  1  0
 11 17  2  0
 12 14  2  0
 12 16  1  0
 14 15  1  0
 15 18  2  0
 15 22  1  0
 16 19  2  0
 17 20  1  0
 18 19  1  0
 20 21  2  0
 23 24  1  0
M  END
>  <PUBCHEM_COMPOUND_CID>  (1) 
36857

>  <PUBCHEM_CONFORMER_RMSD>  (1) 
0.8

>  <PUBCHEM_CONFORMER_DIVERSEORDER>  (1) 
1
29
30
22
7
16
23
5
31
33
21
26
14
25
3
32
9
13
11
18
19
24
2
28
8
15
27
6
17
20
10
12
4

>  <PUBCHEM_MMFF94_PARTIAL_CHARGES>  (1) 
31
1 -0.34
10 0.11
12 -0.02
13 0.35
14 -0.15
15 -0.14
16 -0.15
17 -0.15
18 -0.15
19 -0.15
2 -0.34
20 -0.15
21 0.16
22 1.16
23 0.34
24 0.66
25 0.15
26 0.15
27 0.15
28 0.15
29 0.15
3 -0.34
30 0.15
31 0.15
34 0.5
4 -0.34
5 -0.65
6 -0.57
7 0.59
8 -0.71
9 -0.57

>  <PUBCHEM_EFFECTIVE_ROTOR_COUNT>  (1) 
5

>  <PUBCHEM_PHARMACOPHORE_FEATURES>  (1) 
7
1 5 acceptor
1 6 acceptor
1 9 acceptor
3 5 6 24 anion
5 7 8 10 11 13 rings
6 12 14 15 16 18 19 rings
6 9 10 11 17 20 21 rings

>  <PUBCHEM_HEAVY_ATOM_COUNT>  (1) 
24

>  <PUBCHEM_ATOM_DEF_STEREO_COUNT>  (1) 
0

>  <PUBCHEM_ATOM_UDEF_STEREO_COUNT>  (1) 
0

>  <PUBCHEM_BOND_DEF_STEREO_COUNT>  (1) 
0

>  <PUBCHEM_BOND_UDEF_STEREO_COUNT>  (1) 
0

>  <PUBCHEM_ISOTOPIC_ATOM_COUNT>  (1) 
0

>  <PUBCHEM_COMPONENT_COUNT>  (1) 
1

>  <PUBCHEM_CACTVS_TAUTO_COUNT>  (1) 
1

>  <PUBCHEM_CONFORMER_ID>  (1) 
00008FF900000001

>  <PUBCHEM_MMFF94_ENERGY>  (1) 
59.342

>  <PUBCHEM_FEATURE_SELFOVERLAP>  (1) 
35.689

>  <PUBCHEM_SHAPE_FINGERPRINT>  (1) 
10411042 1 18409165489714067220
10622 236 17842817087385748839
1100329 8 18410856602732322691
11265709 11 18409448077298349644
12107183 9 18341337730003995011
12166972 35 18201715198000016441
12403260 363 18271526494372660095
12553582 1 18335966611186373826
12633257 1 18342178890326725239
12788726 201 18188767215848400898
13004483 165 18338226077774722962
13009979 54 18059303170024741003
13140716 1 18270118040497845154
13533116 47 18119528997368594219
13540713 5 17984987252703484447
13583140 156 18116163353647172723
13590594 115 18408324371598140665
138480 1 18266453381713062116
14178342 30 17622146284837791720
14466204 15 18339364042039049761
14739800 52 17273129335246268280
14955137 171 18408329886235759571
15042514 8 18194118513181557748
15442244 35 18268992153781755725
15475509 84 17989211425727101728
15885798 251 18410292497743577710
16087824 20 18193555571913809357
16110190 28 18342457071379809638
16120349 21 18055923087183328842
17492 89 18122623031352192167
17818456 19 17917439751845414329
17980427 23 17418088866700188917
1813 80 18339655468502341270
19141452 34 18202279212715527974
19784866 135 18338790114170182610
20600515 1 18131361799171009324
20832881 197 18260267438530863858
21033650 10 12325361937545698078
21304253 13 18343864407498426968
21478907 32 18264767671473436714
21781055 127 16771581488782525211
22182313 1 17984988089894929998
22849341 161 18339092539665131664
22950370 63 18409449198216547422
23366157 5 18046064032266950196
23402539 116 18272925003752956031
23559900 14 18268983357377425731
25147074 1 17986391302997488127
3091708 16 9569557134632137228
335352 9 18411134728077323261
3421961 26 18338515343653452944
4409770 3 18118673323338631965
463206 1 18333730234780083922
474 4 17612869709777619917
5104073 3 18200038494202160587
513202 73 18120662318804844898
53777708 50 18053945340331454935
56633871 153 18343019973567098463
6058803 2 17984143940116952695
7097593 13 18196368341135535055
7832392 63 18125444369577609773
79837 15 17331676852388768728
84936 182 17552359190817409593
8863177 126 17751375077801482379

>  <PUBCHEM_SHAPE_MULTIPOLES>  (1) 
439.54
11.18
4.04
0.85
3.57
3.44
0.13
-9.18
3.53
2.78
-0.74
-0.72
-0.19
-1.06

>  <PUBCHEM_SHAPE_SELFOVERLAP>  (1) 
970.884

>  <PUBCHEM_SHAPE_VOLUME>  (1) 
237

>  <PUBCHEM_COORDINATE_TYPE>  (1) 
2
5
10

$$$$
