36851
     RDKit          3D

 17 18  0  0  0  0  0  0  0  0999 V2000
    6.0220    0.0364    0.0438 Cl  0  0  0  0  0  0  0  0  0  0  0  0
   -1.6485   -1.8733   -0.6339 F   0  0  0  0  0  0  0  0  0  0  0  0
   -0.4533    1.9077   -0.4582 O   0  0  0  0  0  0  0  0  0  0  0  0
    0.1876   -0.2741    0.1203 N   0  0  0  0  0  0  0  0  0  0  0  0
    2.2923   -1.3167    0.3966 N   0  0  0  0  0  0  0  0  0  0  0  0
   -2.1419    0.3687   -0.0213 C   0  0  0  0  0  0  0  0  0  0  0  0
   -0.7416    0.7405   -0.1487 C   0  0  0  0  0  0  0  0  0  0  0  0
    1.6022   -0.2018    0.1011 C   0  0  0  0  0  0  0  0  0  0  0  0
   -2.5441   -0.9432   -0.2728 C   0  0  0  0  0  0  0  0  0  0  0  0
   -3.0836    1.3269    0.3539 C   0  0  0  0  0  0  0  0  0  0  0  0
   -3.8878   -1.2965   -0.1490 C   0  0  0  0  0  0  0  0  0  0  0  0
   -4.4273    0.9733    0.4776 C   0  0  0  0  0  0  0  0  0  0  0  0
    2.1591    1.0170   -0.2203 C   0  0  0  0  0  0  0  0  0  0  0  0
   -4.8294   -0.3383    0.2260 C   0  0  0  0  0  0  0  0  0  0  0  0
    3.5470    1.0985   -0.2403 C   0  0  0  0  0  0  0  0  0  0  0  0
    4.3084   -0.0261    0.0580 C   0  0  0  0  0  0  0  0  0  0  0  0
    3.6388   -1.1991    0.3672 C   0  0  0  0  0  0  0  0  0  0  0  0
  1 16  1  0
  2  9  1  0
  3  7  2  0
  4  7  1  0
  4  8  1  0
  5  8  2  0
  5 17  1  0
  6  7  1  0
  6  9  2  0
  6 10  1  0
  8 13  1  0
  9 11  1  0
 10 12  2  0
 11 14  2  0
 12 14  1  0
 13 15  2  0
 15 16  1  0
 16 17  2  0
M  END
>  <PUBCHEM_COMPOUND_CID>  (1) 
36851

>  <PUBCHEM_CONFORMER_RMSD>  (1) 
0.6

>  <PUBCHEM_CONFORMER_DIVERSEORDER>  (1) 
1
2
3
4

>  <PUBCHEM_MMFF94_PARTIAL_CHARGES>  (1) 
25
1 -0.18
10 -0.15
11 -0.15
12 -0.15
13 -0.15
14 -0.15
15 -0.15
16 0.18
17 0.16
18 0.37
19 0.15
2 -0.19
20 0.15
21 0.15
22 0.15
23 0.15
24 0.15
25 0.15
3 -0.57
4 -0.55
5 -0.62
6 0.09
7 0.54
8 0.43
9 0.19

>  <PUBCHEM_EFFECTIVE_ROTOR_COUNT>  (1) 
3

>  <PUBCHEM_PHARMACOPHORE_FEATURES>  (1) 
4
1 3 acceptor
1 4 donor
6 5 8 13 15 16 17 rings
6 6 9 10 11 12 14 rings

>  <PUBCHEM_HEAVY_ATOM_COUNT>  (1) 
17

>  <PUBCHEM_ATOM_DEF_STEREO_COUNT>  (1) 
0

>  <PUBCHEM_ATOM_UDEF_STEREO_COUNT>  (1) 
0

>  <PUBCHEM_BOND_DEF_STEREO_COUNT>  (1) 
0

>  <PUBCHEM_BOND_UDEF_STEREO_COUNT>  (1) 
0

>  <PUBCHEM_ISOTOPIC_ATOM_COUNT>  (1) 
0

>  <PUBCHEM_COMPONENT_COUNT>  (1) 
1

>  <PUBCHEM_CACTVS_TAUTO_COUNT>  (1) 
3

>  <PUBCHEM_CONFORMER_ID>  (1) 
00008FF300000001

>  <PUBCHEM_MMFF94_ENERGY>  (1) 
50.9574

>  <PUBCHEM_FEATURE_SELFOVERLAP>  (1) 
20.297

>  <PUBCHEM_SHAPE_FINGERPRINT>  (1) 
10616163 171 18341332287748460343
10968037 39 18335140911896433695
11315181 36 18342740732115273968
12107183 9 17690844458314367098
12236239 1 18407761439119311820
12251169 10 18413670209921778629
13167823 11 18409729560321779906
13288520 33 18413109454944455012
15196674 1 18410292510180028226
15242433 33 18410293601223170654
15375462 189 18333446530134097553
15536298 74 18412544340338280272
17804303 29 18201720682515062489
17834072 33 18410857685295949452
1813 80 17458635479651168470
18186145 218 17167858685924440160
19050596 39 18408602569709353024
19422 9 18408605868212516331
200 152 18411980265003038392
20279233 1 15841555179980601820
20645477 70 18337108956686535878
21267235 1 18409456902817982322
22485316 2 18408602548076319409
2297311 6 18059586775574411404
23035841 295 18412829058600803390
23402539 116 18413384341246180916
23402655 69 18334856082919659900
23463225 33 18409730642890772463
23557571 272 18272939284804253028
23559900 14 18202274835932629608
26918003 58 17530967990118915816
300161 21 18411411800222003056
3545911 37 18413109450538743832
42 15 18407761430117953069
4214541 1 18411700971885759097
474 4 17678181688299384612
5104073 3 18410572890040351624
542803 24 17313107449409368012
59755656 520 13614518554476391885
77779 3 18411420609110126464
9709674 26 18411426106668960454

>  <PUBCHEM_SHAPE_MULTIPOLES>  (1) 
328.62
11.63
1.6
0.68
6.01
0.05
-0.01
0.64
-1
-0.63
0.11
-0.06
0.01
-0.59

>  <PUBCHEM_SHAPE_SELFOVERLAP>  (1) 
703.252

>  <PUBCHEM_SHAPE_VOLUME>  (1) 
182.5

>  <PUBCHEM_COORDINATE_TYPE>  (1) 
2
5
10

$$$$
