36863
     RDKit          3D

 17 18  0  0  0  0  0  0  0  0999 V2000
   -5.3425   -0.6593   -0.0489 Br  0  0  0  0  0  0  0  0  0  0  0  0
    5.9772    1.0876   -0.1145 O   0  0  0  0  0  0  0  0  0  0  0  0
    5.2417   -1.0556    0.0324 O   0  0  0  0  0  0  0  0  0  0  0  0
    1.2332    0.3906    0.0466 N   0  0  0  0  0  0  0  0  0  0  0  0
   -1.2283    0.3390    0.0141 C   0  0  0  0  0  0  0  0  0  0  0  0
    0.0100   -0.3235    0.0241 C   0  0  0  0  0  0  0  0  0  0  0  0
   -2.4207   -0.4228   -0.0084 C   0  0  0  0  0  0  0  0  0  0  0  0
    2.5040   -0.2580    0.0569 C   0  0  0  0  0  0  0  0  0  0  0  0
    0.0715   -1.7173    0.0121 C   0  0  0  0  0  0  0  0  0  0  0  0
   -1.3094    1.7411    0.0261 C   0  0  0  0  0  0  0  0  0  0  0  0
   -2.3398   -1.8249   -0.0208 C   0  0  0  0  0  0  0  0  0  0  0  0
    3.6278    0.7711    0.0149 C   0  0  0  0  0  0  0  0  0  0  0  0
   -3.6590    0.2396   -0.0185 C   0  0  0  0  0  0  0  0  0  0  0  0
   -1.1009   -2.4665   -0.0105 C   0  0  0  0  0  0  0  0  0  0  0  0
   -2.5484    2.3825    0.0163 C   0  0  0  0  0  0  0  0  0  0  0  0
   -3.7210    1.6334   -0.0060 C   0  0  0  0  0  0  0  0  0  0  0  0
    5.0047    0.1433   -0.0159 C   0  0  0  0  0  0  0  0  0  0  0  0
  1 13  1  0
  2 17  1  0
  3 17  2  0
  4  6  1  0
  4  8  1  0
  5  6  2  0
  5  7  1  0
  5 10  1  0
  6  9  1  0
  7 11  2  0
  7 13  1  0
  8 12  1  0
  9 14  2  0
 10 15  2  0
 11 14  1  0
 12 17  1  0
 13 16  2  0
 15 16  1  0
M  END
>  <PUBCHEM_COMPOUND_CID>  (1) 
36863

>  <PUBCHEM_CONFORMER_RMSD>  (1) 
0.6

>  <PUBCHEM_CONFORMER_DIVERSEORDER>  (1) 
1
9
10
2
6
5
14
7
8
12
4
11
3
13

>  <PUBCHEM_MMFF94_PARTIAL_CHARGES>  (1) 
23
1 -0.11
10 -0.15
11 -0.15
12 0.06
13 0.11
14 -0.15
15 -0.15
16 -0.15
17 0.66
2 -0.65
20 0.4
21 0.15
22 0.15
23 0.15
26 0.15
27 0.15
28 0.15
29 0.5
3 -0.57
4 -0.87
6 0.1
8 0.37
9 -0.15

>  <PUBCHEM_EFFECTIVE_ROTOR_COUNT>  (1) 
4

>  <PUBCHEM_PHARMACOPHORE_FEATURES>  (1) 
8
1 1 hydrophobe
1 2 acceptor
1 3 acceptor
1 4 cation
1 4 donor
3 2 3 17 anion
6 5 6 7 9 11 14 rings
6 5 7 10 13 15 16 rings

>  <PUBCHEM_HEAVY_ATOM_COUNT>  (1) 
17

>  <PUBCHEM_ATOM_DEF_STEREO_COUNT>  (1) 
0

>  <PUBCHEM_ATOM_UDEF_STEREO_COUNT>  (1) 
0

>  <PUBCHEM_BOND_DEF_STEREO_COUNT>  (1) 
0

>  <PUBCHEM_BOND_UDEF_STEREO_COUNT>  (1) 
0

>  <PUBCHEM_ISOTOPIC_ATOM_COUNT>  (1) 
0

>  <PUBCHEM_COMPONENT_COUNT>  (1) 
1

>  <PUBCHEM_CACTVS_TAUTO_COUNT>  (1) 
1

>  <PUBCHEM_CONFORMER_ID>  (1) 
00008FFF00000001

>  <PUBCHEM_MMFF94_ENERGY>  (1) 
55.4886

>  <PUBCHEM_FEATURE_SELFOVERLAP>  (1) 
40.679

>  <PUBCHEM_SHAPE_FINGERPRINT>  (1) 
10411042 1 17978511167902867719
10493431 412 18270129989914884865
11315181 36 18113620123138369420
12107183 9 17758389674418374450
12236239 1 17821726139381879904
12390115 104 18129114337575285481
12916748 109 18409733958684542240
13140716 1 18194411219645258947
13862211 1 18339360872696323359
14251764 18 18261107466422046634
14508225 48 18053648450964896327
15042514 8 18265337385985317587
15196674 1 18338797810260998731
16945 1 18341319051407580083
200 152 16702302355947761202
20300324 65 18273493477071158533
20510252 161 18271528606927221577
20645477 56 18411702097277817512
20645477 70 16916799435834776734
21267235 1 18408892857821921899
2297311 6 18343311370155100508
23175994 123 17060344045425425808
23366157 5 17826518764354598251
23402539 116 18342170094613381199
23557571 272 18202008728559835372
23559900 14 18272369763993597144
2748010 2 18194405490296042431
283562 15 18412262801564762457
3004659 81 18336267852372531886
335352 9 18411135883819086687
34797466 226 17917441973008696812
350125 39 18410576193155609641
3545911 37 18412827997643570044
4214541 1 18410856556030741408
474 4 17313672671770079028
474229 33 18410856564483649415
5104073 3 18337392621526427506
559249 180 18336823075294847866
57003041 33 18335975411900832901
573450 72 18334564751388592170
77779 3 18410012152675484336
9709674 26 18343026584059584062

>  <PUBCHEM_SHAPE_MULTIPOLES>  (1) 
339.07
11.26
2.26
0.61
15.54
0.09
0
-1.63
0.27
-1.72
0
-0.11
0.01
-0.06

>  <PUBCHEM_SHAPE_SELFOVERLAP>  (1) 
710.46

>  <PUBCHEM_SHAPE_VOLUME>  (1) 
196.1

>  <PUBCHEM_COORDINATE_TYPE>  (1) 
2
5
10

$$$$
