36879
     RDKit          3D

 12 11  0  0  1  0  0  0  0  0999 V2000
   -2.9013    0.2440   -1.3589 S   0  0  0  0  0  0  0  0  0  0  0  0
    1.0644   -0.3982    0.4446 O   0  0  0  0  0  0  0  0  0  0  0  0
    2.0800    1.1813   -0.8891 O   0  0  0  0  0  0  0  0  0  0  0  0
   -0.0972    0.3018    0.0952 N   0  0  0  0  0  0  0  0  0  0  0  0
    3.2896   -0.4857    0.1749 N   0  0  0  0  0  0  0  0  0  0  0  0
   -2.5122    0.4124    0.4121 C   0  0  0  0  0  0  0  0  0  0  0  0
   -1.1489   -0.2252    0.6484 C   0  0  0  0  0  0  0  0  0  0  0  0
   -2.5663    1.8777    0.8245 C   0  0  0  0  0  0  0  0  0  0  0  0
   -1.0873   -1.4276    1.5670 C   0  0  0  0  0  0  0  0  0  0  0  0
   -2.8621   -1.5594   -1.4603 C   0  0  0  0  0  0  0  0  0  0  0  0
    2.1376    0.1949   -0.1612 C   0  0  0  0  0  0  0  0  0  0  0  0
    4.6038   -0.1161   -0.2971 C   0  0  0  0  0  0  0  0  0  0  0  0
  1  6  1  0
  1 10  1  0
  2  4  1  0
  2 11  1  0
  3 11  2  0
  4  7  2  0
  5 11  1  0
  5 12  1  0
  6  7  1  0
  6  8  1  0
  7  9  1  0
M  END
>  <PUBCHEM_COMPOUND_CID>  (1) 
36879

>  <PUBCHEM_CONFORMER_RMSD>  (1) 
0.6

>  <PUBCHEM_CONFORMER_DIVERSEORDER>  (1) 
3
89
131
172
41
159
167
50
162
154
114
183
151
147
27
166
155
43
62
64
88
187
111
170
19
108
182
77
128
123
163
143
188
2
145
40
17
129
98
11
174
112
48
104
134
106
177
103
109
34
141
102
175
78
125
79
165
126
169
1
115
138
152
36
25
140
118
56
82
5
157
110
68
135
65
21
23
59
107
101
99
73
190
70
22
47
58
184
87
156
160
93
148
133
120
42
75
6
83
191
55
95
90
28
51
180
124
121
117
94
57
132
153
144
119
49
33
53
30
192
46
7
136
44
161
181
29
189
20
37
80
92
149
146
193
194
16
86
63
8
71
179
24
91
130
45
158
31
139
100
69
176
96
122
116
60
38
76
13
72
67
81
97
18
142
178
32
15
12
113
173
185
127
171
150
137
85
54
74
35
52
39
9
10
14
186
84
4
66
105
168
164
61
26

>  <PUBCHEM_MMFF94_PARTIAL_CHARGES>  (1) 
12
1 -0.46
10 0.23
11 0.78
12 0.3
2 -0.09
23 0.37
3 -0.57
4 -0.51
5 -0.73
6 0.29
7 0.33
9 0.06

>  <PUBCHEM_EFFECTIVE_ROTOR_COUNT>  (1) 
5

>  <PUBCHEM_PHARMACOPHORE_FEATURES>  (1) 
5
1 10 hydrophobe
1 3 acceptor
1 4 acceptor
1 5 donor
1 8 hydrophobe

>  <PUBCHEM_HEAVY_ATOM_COUNT>  (1) 
12

>  <PUBCHEM_ATOM_DEF_STEREO_COUNT>  (1) 
0

>  <PUBCHEM_ATOM_UDEF_STEREO_COUNT>  (1) 
1

>  <PUBCHEM_BOND_DEF_STEREO_COUNT>  (1) 
0

>  <PUBCHEM_BOND_UDEF_STEREO_COUNT>  (1) 
1

>  <PUBCHEM_ISOTOPIC_ATOM_COUNT>  (1) 
0

>  <PUBCHEM_COMPONENT_COUNT>  (1) 
1

>  <PUBCHEM_CACTVS_TAUTO_COUNT>  (1) 
2

>  <PUBCHEM_CONFORMER_ID>  (1) 
0000900F00000003

>  <PUBCHEM_MMFF94_ENERGY>  (1) 
19.6363

>  <PUBCHEM_FEATURE_SELFOVERLAP>  (1) 
25.387

>  <PUBCHEM_SHAPE_FINGERPRINT>  (1) 
10680689 15 17988934366128828672
124424 183 15791718694676232132
12932764 1 17846787303497485442
13024252 1 11819275585753769195
14144814 61 17894632526474176384
18186145 218 17603876606763293084
20645477 56 17632021840670472785
20645477 70 16805592613329634682
20871999 31 17488730204363537085
22169311 21 16773516573264948046
22959321 105 17203324524732461560
23402539 116 18409164415924686045
23557571 272 16988846064051363024
3248919 1 18334018310872543050

>  <PUBCHEM_SHAPE_MULTIPOLES>  (1) 
229.1
6.98
1.47
1.38
8.31
0.12
0.29
-0.53
-2.01
-1.82
-0.12
-0.79
-0.36
-0.64

>  <PUBCHEM_SHAPE_SELFOVERLAP>  (1) 
415.449

>  <PUBCHEM_SHAPE_VOLUME>  (1) 
149.3

>  <PUBCHEM_COORDINATE_TYPE>  (1) 
2
5
10

$$$$
