36872
     RDKit          3D

  5  4  0  0  1  0  0  0  0  0999 V2000
   -2.0701    0.8378   -0.0576 Br  0  0  0  0  0  0  0  0  0  0  0  0
   -0.4595   -1.7194   -0.1415 Cl  0  0  0  0  0  0  0  0  0  0  0  0
    0.7677    0.7363   -0.2691 C   0  0  0  0  0  0  0  0  0  0  0  0
   -0.3772   -0.0272    0.3891 C   0  0  0  0  0  0  0  0  0  0  0  0
    2.1392    0.1725    0.0791 C   0  0  0  0  0  0  0  0  0  0  0  0
  1  4  1  0
  2  4  1  0
  3  4  1  0
  3  5  1  0
M  END
>  <PUBCHEM_COMPOUND_CID>  (1) 
36872

>  <PUBCHEM_CONFORMER_RMSD>  (1) 
0.4

>  <PUBCHEM_CONFORMER_DIVERSEORDER>  (1) 
2
3
6
4
1
5

>  <PUBCHEM_MMFF94_PARTIAL_CHARGES>  (1) 
3
1 -0.23
2 -0.29
4 0.52

>  <PUBCHEM_EFFECTIVE_ROTOR_COUNT>  (1) 
1

>  <PUBCHEM_PHARMACOPHORE_FEATURES>  (1) 
2
1 1 hydrophobe
1 5 hydrophobe

>  <PUBCHEM_HEAVY_ATOM_COUNT>  (1) 
5

>  <PUBCHEM_ATOM_DEF_STEREO_COUNT>  (1) 
0

>  <PUBCHEM_ATOM_UDEF_STEREO_COUNT>  (1) 
1

>  <PUBCHEM_BOND_DEF_STEREO_COUNT>  (1) 
0

>  <PUBCHEM_BOND_UDEF_STEREO_COUNT>  (1) 
0

>  <PUBCHEM_ISOTOPIC_ATOM_COUNT>  (1) 
0

>  <PUBCHEM_COMPONENT_COUNT>  (1) 
1

>  <PUBCHEM_CACTVS_TAUTO_COUNT>  (1) 
1

>  <PUBCHEM_CONFORMER_ID>  (1) 
0000900800000002

>  <PUBCHEM_MMFF94_ENERGY>  (1) 
0.4367

>  <PUBCHEM_FEATURE_SELFOVERLAP>  (1) 
10.149

>  <PUBCHEM_SHAPE_FINGERPRINT>  (1) 
139733 1 8788123199389643914
16714656 1 18334860519283247061
20096714 4 18334296469849917849
21040471 1 18410857650593222216
23552449 1 18126000713544139153
5460574 1 9583516516487629529
5943 1 9248598085102575939

>  <PUBCHEM_SHAPE_MULTIPOLES>  (1) 
110.71
2.7
1.52
0.7
0.11
0.91
0
-1.04
0.01
-0.29
0.12
-0.05
-0.01
-0.02

>  <PUBCHEM_SHAPE_SELFOVERLAP>  (1) 
168.502

>  <PUBCHEM_SHAPE_VOLUME>  (1) 
80.8

>  <PUBCHEM_COORDINATE_TYPE>  (1) 
2
5
10

$$$$
