36883
     RDKit          3D

 28 32  0  0  0  0  0  0  0  0999 V2000
   -5.9784    0.5021   -1.4205 O   0  0  0  0  0  0  0  0  0  0  0  0
   -4.0725   -0.5393   -2.0910 O   0  0  0  0  0  0  0  0  0  0  0  0
   -2.3602   -0.7922    0.0838 N   0  0  0  0  0  0  0  0  0  0  0  0
    2.4971   -0.0256   -0.0781 C   0  0  0  0  0  0  0  0  0  0  0  0
    5.0535    0.1533   -0.1313 C   0  0  0  0  0  0  0  0  0  0  0  0
    3.6758    1.6483   -1.6073 C   0  0  0  0  0  0  0  0  0  0  0  0
    3.7023    2.0106    0.8866 C   0  0  0  0  0  0  0  0  0  0  0  0
    3.8513   -0.7943    0.0193 C   0  0  0  0  0  0  0  0  0  0  0  0
    2.4776    0.6939   -1.4596 C   0  0  0  0  0  0  0  0  0  0  0  0
    2.5042    1.0573    1.0415 C   0  0  0  0  0  0  0  0  0  0  0  0
    4.9812    0.8479   -1.4984 C   0  0  0  0  0  0  0  0  0  0  0  0
    5.0073    1.2084    0.9827 C   0  0  0  0  0  0  0  0  0  0  0  0
    3.6282    2.6992   -0.4861 C   0  0  0  0  0  0  0  0  0  0  0  0
    1.3368   -0.9506    0.0683 C   0  0  0  0  0  0  0  0  0  0  0  0
    1.5522   -2.3149    0.2641 C   0  0  0  0  0  0  0  0  0  0  0  0
    0.0355   -0.4517    0.0093 C   0  0  0  0  0  0  0  0  0  0  0  0
    0.4666   -3.1800    0.4007 C   0  0  0  0  0  0  0  0  0  0  0  0
   -1.0504   -1.3168    0.1458 C   0  0  0  0  0  0  0  0  0  0  0  0
   -0.8347   -2.6810    0.3416 C   0  0  0  0  0  0  0  0  0  0  0  0
    0.7249   -4.6364    0.6097 C   0  0  0  0  0  0  0  0  0  0  0  0
   -1.9967   -3.6125    0.4883 C   0  0  0  0  0  0  0  0  0  0  0  0
   -2.9018    0.4590    0.4314 C   0  0  0  0  0  0  0  0  0  0  0  0
   -4.0119    0.9774   -0.2418 C   0  0  0  0  0  0  0  0  0  0  0  0
   -2.3183    1.1935    1.4678 C   0  0  0  0  0  0  0  0  0  0  0  0
   -4.5341    2.2197    0.1187 C   0  0  0  0  0  0  0  0  0  0  0  0
   -2.8405    2.4356    1.8281 C   0  0  0  0  0  0  0  0  0  0  0  0
   -4.6469    0.2405   -1.3272 C   0  0  0  0  0  0  0  0  0  0  0  0
   -3.9483    2.9487    1.1536 C   0  0  0  0  0  0  0  0  0  0  0  0
  1 27  1  0
  2 27  2  0
  3 18  1  0
  3 22  1  0
  4  8  1  0
  4  9  1  0
  4 10  1  0
  4 14  1  0
  5  8  1  0
  5 11  1  0
  5 12  1  0
  6  9  1  0
  6 11  1  0
  6 13  1  0
  7 10  1  0
  7 12  1  0
  7 13  1  0
 14 15  2  0
 14 16  1  0
 15 17  1  0
 16 18  2  0
 17 19  2  0
 17 20  1  0
 18 19  1  0
 19 21  1  0
 22 23  2  0
 22 24  1  0
 23 25  1  0
 23 27  1  0
 24 26  2  0
 25 28  2  0
 26 28  1  0
M  END
>  <PUBCHEM_COMPOUND_CID>  (1) 
36883

>  <PUBCHEM_CONFORMER_RMSD>  (1) 
0.8

>  <PUBCHEM_CONFORMER_DIVERSEORDER>  (1) 
3
22
16
5
17
12
13
20
2
23
8
15
21
11
14
18
10
4
1
19
9
6
7

>  <PUBCHEM_MMFF94_PARTIAL_CHARGES>  (1) 
27
1 -0.65
14 -0.14
15 -0.15
16 -0.15
17 -0.14
18 0.1
19 -0.14
2 -0.57
20 0.14
21 0.14
22 0.1
23 0.09
24 -0.15
25 -0.15
26 -0.15
27 0.63
28 -0.15
3 -0.6
4 0.14
44 0.15
45 0.15
49 0.4
53 0.15
54 0.15
55 0.15
56 0.15
57 0.5

>  <PUBCHEM_EFFECTIVE_ROTOR_COUNT>  (1) 
5.2

>  <PUBCHEM_PHARMACOPHORE_FEATURES>  (1) 
11
1 1 acceptor
1 2 acceptor
1 3 cation
1 3 donor
3 1 2 27 anion
6 14 15 16 17 18 19 rings
6 22 23 24 25 26 28 rings
6 4 5 6 8 9 11 rings
6 4 5 7 8 10 12 rings
6 4 6 7 9 10 13 rings
6 5 6 7 11 12 13 rings

>  <PUBCHEM_HEAVY_ATOM_COUNT>  (1) 
28

>  <PUBCHEM_ATOM_DEF_STEREO_COUNT>  (1) 
0

>  <PUBCHEM_ATOM_UDEF_STEREO_COUNT>  (1) 
0

>  <PUBCHEM_BOND_DEF_STEREO_COUNT>  (1) 
0

>  <PUBCHEM_BOND_UDEF_STEREO_COUNT>  (1) 
0

>  <PUBCHEM_ISOTOPIC_ATOM_COUNT>  (1) 
0

>  <PUBCHEM_COMPONENT_COUNT>  (1) 
1

>  <PUBCHEM_CACTVS_TAUTO_COUNT>  (1) 
2

>  <PUBCHEM_CONFORMER_ID>  (1) 
0000901300000003

>  <PUBCHEM_MMFF94_ENERGY>  (1) 
111.1079

>  <PUBCHEM_FEATURE_SELFOVERLAP>  (1) 
68.35

>  <PUBCHEM_SHAPE_FINGERPRINT>  (1) 
10498660 4 18339081604546650488
10670039 82 18410583868246441052
108634 29 18059297668646648152
11370993 144 13912315785390419504
12107183 9 18261660525076426290
12160290 23 17900849315230961667
12173636 292 18339083816618546086
12788726 201 17756431817603077786
13540713 5 17984975995889282345
13544653 18 10952046745184730354
13590594 115 17399802596597625770
13878862 14 17756698642773701117
13965767 371 18114454587812586240
14767858 380 18341035403293618759
14848178 96 18408887317272022556
14931854 50 18273492356074612717
19319366 153 18340470206956828535
20511986 3 18128521696607989669
20642791 105 18117831325328824371
21033648 144 18040152915911179909
21033650 10 17702409311053415424
21860390 5 17983018847216108350
22393880 68 17988921115849499705
22907989 373 18052551142243645895
22950370 63 9295286161937270416
23559900 14 18343029917486559310
23569917 315 18408603651804969178
24771293 8 17982718685507099426
283562 15 18191870239341571643
4258327 124 17387143154875349549
44880168 125 12685354263081152984
469060 322 18190764096705387715
474 4 18335423409386603651
5048184 11 18411145705512753537
57527295 17 17559698173677232358
6034566 193 17969522543922181557
6058803 2 17911792476227650339
6328613 192 18335710481539618748
6371009 1 18337940234294442104
6523845 18 17977988714530558803
67856867 119 18196080054694354835
7970288 3 10087639277819208388
79837 15 18334302006015699499
9981440 41 18409445895154608587

>  <PUBCHEM_SHAPE_MULTIPOLES>  (1) 
559.51
11.53
4.34
1.5
2.54
4.68
-0.37
-9.43
-3.2
1.16
1.57
0.65
-0.79
-1.21

>  <PUBCHEM_SHAPE_SELFOVERLAP>  (1) 
1241.742

>  <PUBCHEM_SHAPE_VOLUME>  (1) 
293

>  <PUBCHEM_COORDINATE_TYPE>  (1) 
2
5
10

$$$$
