36889
     RDKit          3D

 15 16  0  0  0  0  0  0  0  0999 V2000
    1.5792   -0.3971    0.1187 O   0  0  0  0  0  0  0  0  0  0  0  0
   -0.6490   -0.9035    0.4634 N   0  0  0  0  0  0  0  0  0  0  0  0
   -2.3314   -1.8862   -0.6061 N   0  0  0  0  0  0  0  0  0  0  0  0
    6.1403    0.8028   -0.9847 N   0  0  0  0  0  0  0  0  0  0  0  0
   -1.5877    0.0786    0.2772 C   0  0  0  0  0  0  0  0  0  0  0  0
    0.6322   -0.7591    1.1143 C   0  0  0  0  0  0  0  0  0  0  0  0
    2.8720   -0.2049    0.6764 C   0  0  0  0  0  0  0  0  0  0  0  0
    3.8366    0.1794   -0.4374 C   0  0  0  0  0  0  0  0  0  0  0  0
   -2.6281   -0.5597   -0.3924 C   0  0  0  0  0  0  0  0  0  0  0  0
   -1.1390   -2.0578   -0.0809 C   0  0  0  0  0  0  0  0  0  0  0  0
   -1.6154    1.4293    0.6265 C   0  0  0  0  0  0  0  0  0  0  0  0
    5.2447    0.4164    0.0987 C   0  0  0  0  0  0  0  0  0  0  0  0
   -3.7717    0.1780   -0.7425 C   0  0  0  0  0  0  0  0  0  0  0  0
   -2.7614    2.1481    0.2705 C   0  0  0  0  0  0  0  0  0  0  0  0
   -3.8214    1.5355   -0.4018 C   0  0  0  0  0  0  0  0  0  0  0  0
  1  6  1  0
  1  7  1  0
  2  5  1  0
  2  6  1  0
  2 10  1  0
  3  9  1  0
  3 10  2  0
  4 12  1  0
  5  9  2  0
  5 11  1  0
  7  8  1  0
  8 12  1  0
  9 13  1  0
 11 14  2  0
 13 15  2  0
 14 15  1  0
M  END
>  <PUBCHEM_COMPOUND_CID>  (1) 
36889

>  <PUBCHEM_CONFORMER_RMSD>  (1) 
0.6

>  <PUBCHEM_CONFORMER_DIVERSEORDER>  (1) 
1
45
43
9
29
61
17
49
27
30
62
40
48
7
22
8
64
33
58
11
13
35
67
46
16
60
63
44
66
24
25
36
51
6
52
38
28
53
15
12
39
55
21
32
47
54
23
65
57
10
19
18
50
20
37
56
31
2
4
68
3
5
59
41
26
34
42
14

>  <PUBCHEM_MMFF94_PARTIAL_CHARGES>  (1) 
21
1 -0.56
10 0.04
11 -0.15
12 0.27
13 -0.15
14 -0.15
15 -0.15
2 0.05
22 0.15
25 0.15
26 0.15
27 0.15
28 0.15
29 0.36
3 -0.57
30 0.36
4 -0.99
5 -0.15
6 0.54
7 0.28
9 0.23

>  <PUBCHEM_EFFECTIVE_ROTOR_COUNT>  (1) 
5

>  <PUBCHEM_PHARMACOPHORE_FEATURES>  (1) 
6
1 1 acceptor
1 4 cation
1 4 donor
3 2 3 10 cation
5 2 3 5 9 10 rings
6 5 9 11 13 14 15 rings

>  <PUBCHEM_HEAVY_ATOM_COUNT>  (1) 
15

>  <PUBCHEM_ATOM_DEF_STEREO_COUNT>  (1) 
0

>  <PUBCHEM_ATOM_UDEF_STEREO_COUNT>  (1) 
0

>  <PUBCHEM_BOND_DEF_STEREO_COUNT>  (1) 
0

>  <PUBCHEM_BOND_UDEF_STEREO_COUNT>  (1) 
0

>  <PUBCHEM_ISOTOPIC_ATOM_COUNT>  (1) 
0

>  <PUBCHEM_COMPONENT_COUNT>  (1) 
1

>  <PUBCHEM_CACTVS_TAUTO_COUNT>  (1) 
1

>  <PUBCHEM_CONFORMER_ID>  (1) 
0000901900000001

>  <PUBCHEM_MMFF94_ENERGY>  (1) 
19.0485

>  <PUBCHEM_FEATURE_SELFOVERLAP>  (1) 
30.553

>  <PUBCHEM_SHAPE_FINGERPRINT>  (1) 
10014705 185 18334013904331302692
10680689 15 18340775939597083722
11046707 91 10664098948011373186
12186901 62 18272368680870755567
12390115 104 17988089868401141729
13214271 11 17385447613514034041
13675066 3 12829482663108640218
14123260 362 18187653504874016924
15669948 3 18341034277205363979
15775835 57 18187643557413267793
16945 1 18056452038401962035
17780758 139 9150907031589754124
17870717 6 17846228760533911844
18186145 218 17417802946205415499
19784866 240 13470682667928368601
200 152 14620795998631843690
20300324 65 18342455962845704604
20325693 3 18272654558067547439
20645476 183 18334007298508305011
20645477 56 18413110554287303720
20871999 31 18273208707785823581
21426921 1 18339643450677808262
23366157 5 17903352611392374195
23402539 116 18342729728324418790
23402655 69 18408323277013820084
23557571 272 18272375320774235310
23559900 14 18059569179657603554
2748010 2 17910080811353345475
2838139 119 16663712663604836949
351380 3 12103844557930701636
4028521 119 18411132520015921536
441001 317 18411698820613546152
474 4 17603588538900909392
57265010 4 11674872286470432198
573450 72 18336250298366433498

>  <PUBCHEM_SHAPE_MULTIPOLES>  (1) 
287.88
10.27
1.9
0.91
18.88
0.11
-0.03
-4.64
3.36
-2.09
0.02
0.24
-0.01
-0.63

>  <PUBCHEM_SHAPE_SELFOVERLAP>  (1) 
601.428

>  <PUBCHEM_SHAPE_VOLUME>  (1) 
166.4

>  <PUBCHEM_COORDINATE_TYPE>  (1) 
2
5
10

$$$$
