36891
     RDKit          3D

 21 23  0  0  0  0  0  0  0  0999 V2000
    0.9790    0.6378    0.1164 O   0  0  0  0  0  0  0  0  0  0  0  0
    3.2655    0.9178    0.5075 N   0  0  0  0  0  0  0  0  0  0  0  0
    5.0278    1.7408   -0.4409 N   0  0  0  0  0  0  0  0  0  0  0  0
   -2.6704    0.2041    0.0537 N   0  0  0  0  0  0  0  0  0  0  0  0
    4.1102   -0.1485    0.2767 C   0  0  0  0  0  0  0  0  0  0  0  0
    5.2479    0.3828   -0.3355 C   0  0  0  0  0  0  0  0  0  0  0  0
    1.9574    0.8459    1.1290 C   0  0  0  0  0  0  0  0  0  0  0  0
    3.8311    2.0477    0.0703 C   0  0  0  0  0  0  0  0  0  0  0  0
   -1.3310    0.3317   -0.4541 C   0  0  0  0  0  0  0  0  0  0  0  0
   -0.3293    0.5532    0.6644 C   0  0  0  0  0  0  0  0  0  0  0  0
    3.9725   -1.5047    0.5489 C   0  0  0  0  0  0  0  0  0  0  0  0
    6.3271   -0.4050   -0.7185 C   0  0  0  0  0  0  0  0  0  0  0  0
   -3.6316   -0.0547   -1.0190 C   0  0  0  0  0  0  0  0  0  0  0  0
    5.0536   -2.3124    0.1684 C   0  0  0  0  0  0  0  0  0  0  0  0
   -5.0407   -0.1530   -0.4979 C   0  0  0  0  0  0  0  0  0  0  0  0
    6.2028   -1.7756   -0.4503 C   0  0  0  0  0  0  0  0  0  0  0  0
   -5.5385   -1.3867   -0.1021 C   0  0  0  0  0  0  0  0  0  0  0  0
   -5.8223    0.9911   -0.4210 C   0  0  0  0  0  0  0  0  0  0  0  0
   -6.8442   -1.4780    0.3803 C   0  0  0  0  0  0  0  0  0  0  0  0
   -7.1279    0.9001    0.0615 C   0  0  0  0  0  0  0  0  0  0  0  0
   -7.6388   -0.3346    0.4621 C   0  0  0  0  0  0  0  0  0  0  0  0
  1  7  1  0
  1 10  1  0
  2  5  1  0
  2  7  1  0
  2  8  2  0
  3  6  1  0
  3  8  1  0
  4  9  1  0
  4 13  1  0
  5  6  2  0
  5 11  1  0
  6 12  1  0
  9 10  1  0
 11 14  2  0
 12 16  2  0
 13 15  1  0
 14 16  1  0
 15 17  2  0
 15 18  1  0
 17 19  1  0
 18 20  2  0
 19 21  2  0
 20 21  1  0
M  CHG  1   2   1
M  END
>  <PUBCHEM_COMPOUND_CID>  (1) 
36891

>  <PUBCHEM_CONFORMER_RMSD>  (1) 
0.8

>  <PUBCHEM_CONFORMER_DIVERSEORDER>  (1) 
1
75
28
62
7
15
89
84
133
5
113
41
40
139
74
20
131
33
45
77
55
16
98
6
27
13
60
91
66
126
9
21
36
59
19
81
63
80
96
50
135
104
115
37
2
100
3
116
44
102
65
86
14
83
47
38
99
140
78
17
54
127
125
71
94
25
18
11
23
114
73
57
70
42
61
35
82
93
8
58
34
10
51
68
141
85
12
134
132
48
92
26
90
49
95
46
105
138
117
32
110
24
108
112
69
122
43
29
111
76
129
31
130
121
64
79
4
109
52
120
72
137
103
107
87
30
118
53
67
123
119
22
124
106
101
56
39
136
97
128
88

>  <PUBCHEM_MMFF94_PARTIAL_CHARGES>  (1) 
33
1 -0.56
10 0.28
11 -0.11
12 -0.11
13 0.41
14 -0.15
15 -0.14
16 -0.15
17 -0.15
18 -0.15
19 -0.15
2 -0.76
20 -0.15
21 -0.15
24 0.15
25 0.45
3 -0.7
30 0.15
33 0.15
34 0.36
35 0.15
36 0.15
37 0.15
38 0.15
39 0.15
4 -0.9
40 0.15
41 0.15
5 0.31
6 0.31
7 0.79
8 0.65
9 0.27

>  <PUBCHEM_EFFECTIVE_ROTOR_COUNT>  (1) 
7

>  <PUBCHEM_PHARMACOPHORE_FEATURES>  (1) 
8
1 1 acceptor
1 3 donor
1 4 cation
1 4 donor
3 2 3 8 cation
5 2 3 5 6 8 rings
6 15 17 18 19 20 21 rings
6 5 6 11 12 14 16 rings

>  <PUBCHEM_HEAVY_ATOM_COUNT>  (1) 
21

>  <PUBCHEM_ATOM_DEF_STEREO_COUNT>  (1) 
0

>  <PUBCHEM_ATOM_UDEF_STEREO_COUNT>  (1) 
0

>  <PUBCHEM_BOND_DEF_STEREO_COUNT>  (1) 
0

>  <PUBCHEM_BOND_UDEF_STEREO_COUNT>  (1) 
0

>  <PUBCHEM_ISOTOPIC_ATOM_COUNT>  (1) 
0

>  <PUBCHEM_COMPONENT_COUNT>  (1) 
1

>  <PUBCHEM_CACTVS_TAUTO_COUNT>  (1) 
2

>  <PUBCHEM_CONFORMER_ID>  (1) 
0000901B00000001

>  <PUBCHEM_MMFF94_ENERGY>  (1) 
39.3222

>  <PUBCHEM_FEATURE_SELFOVERLAP>  (1) 
40.703

>  <PUBCHEM_SHAPE_FINGERPRINT>  (1) 
10299344 5 18413390938732789167
11524674 6 16988841701113612215
11719270 70 17561083583708072751
11724838 91 10881406443494918656
12166972 35 18334017202719090869
12616971 3 17703779336521139357
12730499 353 17894629253883215746
13533116 47 18342455954556573960
13668630 136 18272655627820515358
13685833 64 18411981347429761882
14251752 14 18130787837417287361
14933364 13 18334857221270726589
15183329 4 18413107238947065323
15348495 7 13542169641306747423
15352257 5 18408041823269905059
15716309 27 18413108381899047703
17844677 252 18408606959287788021
21150785 3 17022626376944630518
21267235 1 18201441342516938614
220451 1 18130786806477151037
22061861 79 18408600357627148383
221357 26 18261109647796337276
2303208 19 18113615686220725549
23035841 295 18259701203518142211
23081809 10 17703783765149496349
23424782 7 17895199938993791203
23522609 53 17986418726427697953
23536379 177 18411418414962294873
28498 318 18202282468621984973
29717793 49 18131072628103456236
3004659 81 18410008828128197818
3014965 18 18342172245938244087
328311 84 18409171013221364539
33532 11 18412261744644468559
3472631 163 13912620359402855018
34797466 226 17095246933942129844
4073 2 18042126616524091906
4325135 7 11530483333132062275
46194498 28 18040151825696576828
465052 167 18202002114705611310
53794403 172 16443922707089214988
999808 66 17968669310963775859

>  <PUBCHEM_SHAPE_MULTIPOLES>  (1) 
411.36
24.47
1.88
0.87
24.3
0.4
0.01
6.18
-1.54
-2.51
0.08
-0.07
-0.03
0.34

>  <PUBCHEM_SHAPE_SELFOVERLAP>  (1) 
877.432

>  <PUBCHEM_SHAPE_VOLUME>  (1) 
231.3

>  <PUBCHEM_COORDINATE_TYPE>  (1) 
2
5
10

$$$$
