36899
     RDKit          3D

 25 28  0  0  0  0  0  0  0  0999 V2000
    0.6990   -0.6676   -1.2280 O   0  0  0  0  0  0  0  0  0  0  0  0
   -2.0879   -1.2230   -1.0405 N   0  0  0  0  0  0  0  0  0  0  0  0
   -2.5717   -2.3030    0.7710 N   0  0  0  0  0  0  0  0  0  0  0  0
   -1.4434   -0.8766   -2.2925 C   0  0  0  0  0  0  0  0  0  0  0  0
    1.8572    0.1206   -0.9889 C   0  0  0  0  0  0  0  0  0  0  0  0
   -3.0929   -0.5065   -0.4238 C   0  0  0  0  0  0  0  0  0  0  0  0
   -0.2268    0.0069   -2.0691 C   0  0  0  0  0  0  0  0  0  0  0  0
   -3.4051   -1.2037    0.7457 C   0  0  0  0  0  0  0  0  0  0  0  0
   -1.7852   -2.3013   -0.3102 C   0  0  0  0  0  0  0  0  0  0  0  0
    1.4716    1.4216   -0.3161 C   0  0  0  0  0  0  0  0  0  0  0  0
    2.9138   -0.6502   -0.2214 C   0  0  0  0  0  0  0  0  0  0  0  0
   -3.7385    0.6694   -0.7876 C   0  0  0  0  0  0  0  0  0  0  0  0
   -4.3849   -0.7739    1.6328 C   0  0  0  0  0  0  0  0  0  0  0  0
   -4.7299    1.1159    0.0979 C   0  0  0  0  0  0  0  0  0  0  0  0
    2.2394    2.5504   -0.5408 C   0  0  0  0  0  0  0  0  0  0  0  0
    4.2474   -0.3464   -0.4236 C   0  0  0  0  0  0  0  0  0  0  0  0
    0.3602    1.4515    0.5073 C   0  0  0  0  0  0  0  0  0  0  0  0
    2.5174   -1.6372    0.6620 C   0  0  0  0  0  0  0  0  0  0  0  0
   -5.0454    0.4114    1.2792 C   0  0  0  0  0  0  0  0  0  0  0  0
    1.8843    3.7486    0.0787 C   0  0  0  0  0  0  0  0  0  0  0  0
    5.2193   -1.0551    0.2825 C   0  0  0  0  0  0  0  0  0  0  0  0
    0.0051    2.6499    1.1267 C   0  0  0  0  0  0  0  0  0  0  0  0
    3.4894   -2.3458    1.3681 C   0  0  0  0  0  0  0  0  0  0  0  0
    0.7672    3.7985    0.9122 C   0  0  0  0  0  0  0  0  0  0  0  0
    4.8404   -2.0547    1.1783 C   0  0  0  0  0  0  0  0  0  0  0  0
  1  5  1  0
  1  7  1  0
  2  4  1  0
  2  6  1  0
  2  9  2  0
  3  8  1  0
  3  9  1  0
  4  7  1  0
  5 10  1  0
  5 11  1  0
  6  8  2  0
  6 12  1  0
  8 13  1  0
 10 15  2  0
 10 17  1  0
 11 16  2  0
 11 18  1  0
 12 14  2  0
 13 19  2  0
 14 19  1  0
 15 20  1  0
 16 21  1  0
 17 22  2  0
 18 23  2  0
 20 24  2  0
 21 25  2  0
 22 24  1  0
 23 25  1  0
M  CHG  1   2   1
M  END
>  <PUBCHEM_COMPOUND_CID>  (1) 
36899

>  <PUBCHEM_CONFORMER_RMSD>  (1) 
0.8

>  <PUBCHEM_CONFORMER_DIVERSEORDER>  (1) 
1
17
37
36
38
18
2
26
4
25
5
19
32
45
28
12
35
15
34
22
7
27
29
11
21
30
20
33
39
44
31
24
42
8
6
13
43
3
9
23
10
40
14
16
41

>  <PUBCHEM_MMFF94_PARTIAL_CHARGES>  (1) 
41
1 -0.56
10 -0.14
11 -0.14
12 -0.11
13 -0.11
14 -0.15
15 -0.15
16 -0.15
17 -0.15
18 -0.15
19 -0.15
2 -0.76
20 -0.15
21 -0.15
22 -0.15
23 -0.15
24 -0.15
25 -0.15
3 -0.7
31 0.15
32 0.45
33 0.15
34 0.15
35 0.15
36 0.15
37 0.15
38 0.15
39 0.15
4 0.51
40 0.15
41 0.15
42 0.15
43 0.15
44 0.15
45 0.15
46 0.15
5 0.57
6 0.31
7 0.28
8 0.31
9 0.65

>  <PUBCHEM_EFFECTIVE_ROTOR_COUNT>  (1) 
6

>  <PUBCHEM_PHARMACOPHORE_FEATURES>  (1) 
7
1 1 acceptor
1 3 donor
3 2 3 9 cation
5 2 3 6 8 9 rings
6 10 15 17 20 22 24 rings
6 11 16 18 21 23 25 rings
6 6 8 12 13 14 19 rings

>  <PUBCHEM_HEAVY_ATOM_COUNT>  (1) 
25

>  <PUBCHEM_ATOM_DEF_STEREO_COUNT>  (1) 
0

>  <PUBCHEM_ATOM_UDEF_STEREO_COUNT>  (1) 
0

>  <PUBCHEM_BOND_DEF_STEREO_COUNT>  (1) 
0

>  <PUBCHEM_BOND_UDEF_STEREO_COUNT>  (1) 
0

>  <PUBCHEM_ISOTOPIC_ATOM_COUNT>  (1) 
0

>  <PUBCHEM_COMPONENT_COUNT>  (1) 
1

>  <PUBCHEM_CACTVS_TAUTO_COUNT>  (1) 
2

>  <PUBCHEM_CONFORMER_ID>  (1) 
0000902300000001

>  <PUBCHEM_MMFF94_ENERGY>  (1) 
64.8106

>  <PUBCHEM_FEATURE_SELFOVERLAP>  (1) 
35.63

>  <PUBCHEM_SHAPE_FINGERPRINT>  (1) 
10074138 170 17761189039602869808
10366900 7 17832711540644037527
10674148 151 14852169455842677556
10675989 125 16391268864857480397
11265709 11 18338518543451580800
11456790 92 18336557006634873617
11759241 127 10735878378503133235
12166972 35 17704065222766755603
12403259 327 18336841865460230775
12403260 363 18272929462540822015
12422481 6 17557996051761316475
12553582 1 18412257303563583238
12633257 1 18342186570086842215
12788726 201 18268154158607595952
13004483 165 18265041432609996866
13103583 49 18337682944494664843
133893 2 17838582859706385836
13533116 47 18192147316556289199
13583140 156 18265899245011030495
14022347 108 18199207121508576198
14466204 15 18195809566434196481
14790565 3 17834955652752275320
14950920 106 18193301743799014475
15238133 3 18338529546709348469
15295992 7 18408037412622887245
17349148 13 17489863865080695799
17974551 9 18115038505764802363
17980427 23 17203316840883221973
19078846 21 18343024414741870676
20600515 1 17989496211985666952
20739085 24 18272369802368948716
21033648 29 16845292691978388995
2132832 1 17200763839508139167
23559900 14 17895190060806088415
3052486 1 18054810389372860340
345986 75 17971176046206867866
3472631 163 13038639388479889571
3552219 110 18187942629868120124
392239 28 18266153155320367114
513202 73 17912090447778742918
57527573 199 17764589815998166309
5895379 119 17273445844202295953
6009941 240 17677328286412596709
6287921 2 17462575218771257117
6703917 75 17179986523066684004
7097593 13 18339640156479863047
79837 15 17188406067794757536
8509985 295 18411985728528492885

>  <PUBCHEM_SHAPE_MULTIPOLES>  (1) 
498.66
9.97
3.74
1.65
1.85
3.73
0.49
-5.01
-3.76
-2.62
-1.32
0.72
-0.42
-0.87

>  <PUBCHEM_SHAPE_SELFOVERLAP>  (1) 
1098.578

>  <PUBCHEM_SHAPE_VOLUME>  (1) 
269.7

>  <PUBCHEM_COORDINATE_TYPE>  (1) 
2
5
10

$$$$
