36897
     RDKit          3D

 21 23  0  0  0  0  0  0  0  0999 V2000
   -5.7541    2.1830   -0.0991 F   0  0  0  0  0  0  0  0  0  0  0  0
   -0.6310   -1.2524    0.5136 O   0  0  0  0  0  0  0  0  0  0  0  0
   -1.7115   -2.6125   -0.9970 O   0  0  0  0  0  0  0  0  0  0  0  0
    2.0282   -0.3102    1.0661 N   0  0  0  0  0  0  0  0  0  0  0  0
    2.2060    1.8352    0.8474 N   0  0  0  0  0  0  0  0  0  0  0  0
    3.1040   -0.0981    0.2286 C   0  0  0  0  0  0  0  0  0  0  0  0
    1.5309   -1.6017    1.4989 C   0  0  0  0  0  0  0  0  0  0  0  0
    3.2187    1.2870    0.0873 C   0  0  0  0  0  0  0  0  0  0  0  0
    1.4981    0.8620    1.4299 C   0  0  0  0  0  0  0  0  0  0  0  0
    0.4766   -2.1422    0.5468 C   0  0  0  0  0  0  0  0  0  0  0  0
    3.9661   -0.9874   -0.4021 C   0  0  0  0  0  0  0  0  0  0  0  0
    4.2034    1.8793   -0.6945 C   0  0  0  0  0  0  0  0  0  0  0  0
    4.9653   -0.4045   -1.1946 C   0  0  0  0  0  0  0  0  0  0  0  0
    5.0811    0.9947   -1.3374 C   0  0  0  0  0  0  0  0  0  0  0  0
   -1.6611   -1.6091   -0.3028 C   0  0  0  0  0  0  0  0  0  0  0  0
   -2.7496   -0.6008   -0.2486 C   0  0  0  0  0  0  0  0  0  0  0  0
   -4.0504   -1.0117   -0.4550 C   0  0  0  0  0  0  0  0  0  0  0  0
   -2.4265    0.7164    0.0065 C   0  0  0  0  0  0  0  0  0  0  0  0
   -5.0730   -0.0644   -0.4040 C   0  0  0  0  0  0  0  0  0  0  0  0
   -3.4489    1.6638    0.0575 C   0  0  0  0  0  0  0  0  0  0  0  0
   -4.7723    1.2735   -0.1476 C   0  0  0  0  0  0  0  0  0  0  0  0
  1 21  1  0
  2 10  1  0
  2 15  1  0
  3 15  2  0
  4  6  1  0
  4  7  1  0
  4  9  2  0
  5  8  1  0
  5  9  1  0
  6  8  2  0
  6 11  1  0
  7 10  1  0
  8 12  1  0
 11 13  2  0
 12 14  2  0
 13 14  1  0
 15 16  1  0
 16 17  2  0
 16 18  1  0
 17 19  1  0
 18 20  2  0
 19 21  2  0
 20 21  1  0
M  CHG  1   4   1
M  END
>  <PUBCHEM_COMPOUND_CID>  (1) 
36897

>  <PUBCHEM_CONFORMER_RMSD>  (1) 
0.8

>  <PUBCHEM_CONFORMER_DIVERSEORDER>  (1) 
2
62
23
17
16
53
73
33
21
54
60
77
57
71
55
12
65
11
32
22
66
80
30
61
52
31
76
39
67
59
8
6
63
72
69
45
29
35
44
3
4
82
43
47
81
13
68
70
26
46
38
34
1
9
56
15
5
7
10
78
75
18
27
20
64
41
19
24
51
36
79
25
40
74
14
48
42
58
50
49
37
28

>  <PUBCHEM_MMFF94_PARTIAL_CHARGES>  (1) 
31
1 -0.19
10 0.28
11 -0.11
12 -0.11
13 -0.15
14 -0.15
15 0.63
16 0.09
17 -0.15
18 -0.15
19 -0.15
2 -0.43
20 -0.15
21 0.19
24 0.15
25 0.45
28 0.15
29 0.15
3 -0.57
30 0.15
31 0.15
32 0.15
33 0.15
34 0.15
35 0.15
4 -0.76
5 -0.7
6 0.31
7 0.51
8 0.31
9 0.65

>  <PUBCHEM_EFFECTIVE_ROTOR_COUNT>  (1) 
5

>  <PUBCHEM_PHARMACOPHORE_FEATURES>  (1) 
6
1 3 acceptor
1 5 donor
3 4 5 9 cation
5 4 5 6 8 9 rings
6 16 17 18 19 20 21 rings
6 6 8 11 12 13 14 rings

>  <PUBCHEM_HEAVY_ATOM_COUNT>  (1) 
21

>  <PUBCHEM_ATOM_DEF_STEREO_COUNT>  (1) 
0

>  <PUBCHEM_ATOM_UDEF_STEREO_COUNT>  (1) 
0

>  <PUBCHEM_BOND_DEF_STEREO_COUNT>  (1) 
0

>  <PUBCHEM_BOND_UDEF_STEREO_COUNT>  (1) 
0

>  <PUBCHEM_ISOTOPIC_ATOM_COUNT>  (1) 
0

>  <PUBCHEM_COMPONENT_COUNT>  (1) 
1

>  <PUBCHEM_CACTVS_TAUTO_COUNT>  (1) 
2

>  <PUBCHEM_CONFORMER_ID>  (1) 
0000902100000002

>  <PUBCHEM_MMFF94_ENERGY>  (1) 
42.9604

>  <PUBCHEM_FEATURE_SELFOVERLAP>  (1) 
30.554

>  <PUBCHEM_SHAPE_FINGERPRINT>  (1) 
10447042 23 9439394705688020873
10498660 4 18187074074809496661
10670039 82 18408039593706969157
10681291 71 18334861614758201617
10759866 29 18261671476314537971
11045977 3 11458414765479209734
11796584 16 14692567706566372229
12363563 72 13686307906321051338
12892183 10 10665216095175806262
13899415 180 13901906691619820307
1420 369 10519988166398032644
14251751 18 13685997839900065093
14289585 56 17607544444236313604
14341114 328 14201402698432629294
14528608 73 18408034118161230061
14840074 17 17531252759731376893
14848178 5 11239995646671026309
15183329 4 18200603509971144510
15210252 30 18114466751297710004
15238133 3 18335972078589577562
15575132 122 17968094188514004981
17349148 13 11240000078792237700
18608769 82 18192156116638213507
19862831 5 18202283610545241674
20465049 17 18410864226204282106
20626108 58 10952042338664595479
20645477 70 15625943200663762086
21069387 34 13326569678812438750
21857420 4 15473887476760782661
21864079 5 18262230157070414952
221357 26 18201438103452279281
23253445 4 13334740137049694895
23402655 69 18410014372988973132
23559900 14 17845928623671605808
251288 83 9799699194917940430
2637199 183 18407760330754239450
3004659 81 18339646647035394334
3009799 131 18271533065925830708
32948 21 18343585144418739342
3459 83 17487074270657700542
38570 142 17967545557949457502
439807 62 11671191139633994445
44062 13 17489305338500919983
46194498 28 17843694497858846348
474 4 17748827448828910119
5161694 15 17418373631532047382
633830 44 18261387875424279318
6442390 28 17386295379781614706
7399639 24 16765336498627746850
76465 3 11527948945565477835
7808743 9 18261673774016474436

>  <PUBCHEM_SHAPE_MULTIPOLES>  (1) 
403.2
12.44
2.42
1.17
4.63
0.25
0.15
-6.11
-4.46
0.83
0
-1.15
0.14
-0.63

>  <PUBCHEM_SHAPE_SELFOVERLAP>  (1) 
883.457

>  <PUBCHEM_SHAPE_VOLUME>  (1) 
219.7

>  <PUBCHEM_COORDINATE_TYPE>  (1) 
2
5
10

$$$$
