36893
     RDKit          3D

 16 17  0  0  0  0  0  0  0  0999 V2000
   -1.2545    0.5050   -0.0341 O   0  0  0  0  0  0  0  0  0  0  0  0
    1.0006    0.9125   -0.4908 N   0  0  0  0  0  0  0  0  0  0  0  0
    2.7306    1.8681    0.3900 N   0  0  0  0  0  0  0  0  0  0  0  0
   -4.8824   -0.0779    0.1413 N   0  0  0  0  0  0  0  0  0  0  0  0
    1.9146   -0.0934   -0.2529 C   0  0  0  0  0  0  0  0  0  0  0  0
    3.0314    0.5236    0.3157 C   0  0  0  0  0  0  0  0  0  0  0  0
   -0.3151    0.7432   -1.0766 C   0  0  0  0  0  0  0  0  0  0  0  0
   -3.5169    0.0855    0.6174 C   0  0  0  0  0  0  0  0  0  0  0  0
   -2.5693    0.3349   -0.5451 C   0  0  0  0  0  0  0  0  0  0  0  0
    1.5058    2.0868   -0.0991 C   0  0  0  0  0  0  0  0  0  0  0  0
    1.8542   -1.4626   -0.4845 C   0  0  0  0  0  0  0  0  0  0  0  0
    4.1660   -0.1856    0.6922 C   0  0  0  0  0  0  0  0  0  0  0  0
    2.9917   -2.1919   -0.1096 C   0  0  0  0  0  0  0  0  0  0  0  0
    4.1201   -1.5685    0.4647 C   0  0  0  0  0  0  0  0  0  0  0  0
   -5.8023   -0.2766    1.2639 C   0  0  0  0  0  0  0  0  0  0  0  0
   -4.9745   -1.2029   -0.7926 C   0  0  0  0  0  0  0  0  0  0  0  0
  1  7  1  0
  1  9  1  0
  2  5  1  0
  2  7  1  0
  2 10  2  0
  3  6  1  0
  3 10  1  0
  4  8  1  0
  4 15  1  0
  4 16  1  0
  5  6  2  0
  5 11  1  0
  6 12  1  0
  8  9  1  0
 11 13  2  0
 12 14  2  0
 13 14  1  0
M  CHG  1   2   1
M  END
>  <PUBCHEM_COMPOUND_CID>  (1) 
36893

>  <PUBCHEM_CONFORMER_RMSD>  (1) 
0.6

>  <PUBCHEM_CONFORMER_DIVERSEORDER>  (1) 
1
48
7
52
13
34
6
15
30
12
10
47
39
31
41
33
49
32
40
24
23
11
18
5
38
27
36
51
44
50
2
20
19
17
21
42
9
43
35
8
45
4
26
14
22
25
28
29
46
3
37
16

>  <PUBCHEM_MMFF94_PARTIAL_CHARGES>  (1) 
22
1 -0.56
10 0.65
11 -0.11
12 -0.11
13 -0.15
14 -0.15
15 0.27
16 0.27
2 -0.76
23 0.15
24 0.45
25 0.15
26 0.15
27 0.15
28 0.15
3 -0.7
4 -0.81
5 0.31
6 0.31
7 0.79
8 0.27
9 0.28

>  <PUBCHEM_EFFECTIVE_ROTOR_COUNT>  (1) 
5

>  <PUBCHEM_PHARMACOPHORE_FEATURES>  (1) 
6
1 1 acceptor
1 3 donor
1 4 cation
3 2 3 10 cation
5 2 3 5 6 10 rings
6 5 6 11 12 13 14 rings

>  <PUBCHEM_HEAVY_ATOM_COUNT>  (1) 
16

>  <PUBCHEM_ATOM_DEF_STEREO_COUNT>  (1) 
0

>  <PUBCHEM_ATOM_UDEF_STEREO_COUNT>  (1) 
0

>  <PUBCHEM_BOND_DEF_STEREO_COUNT>  (1) 
0

>  <PUBCHEM_BOND_UDEF_STEREO_COUNT>  (1) 
0

>  <PUBCHEM_ISOTOPIC_ATOM_COUNT>  (1) 
0

>  <PUBCHEM_COMPONENT_COUNT>  (1) 
1

>  <PUBCHEM_CACTVS_TAUTO_COUNT>  (1) 
2

>  <PUBCHEM_CONFORMER_ID>  (1) 
0000901D00000001

>  <PUBCHEM_MMFF94_ENERGY>  (1) 
31.6995

>  <PUBCHEM_FEATURE_SELFOVERLAP>  (1) 
30.554

>  <PUBCHEM_SHAPE_FINGERPRINT>  (1) 
10912923 1 17845938532756775393
114674 6 18261679164259402066
11796584 16 16807836647689383266
12107183 9 17767978536735787385
12251169 10 18272649047561112430
12596602 18 17203324541664658147
13167823 11 18272650177776048519
13464513 79 18409165494236037282
13533116 47 18411986879774881387
13955234 65 18261115235395925536
14251764 30 17558002649538777798
14252887 29 18260547826960112576
14386348 63 17748549242533373411
14863182 85 18412550886306627702
15885798 251 18333735689187537269
19050596 39 18060420240000893149
20028762 73 18201428186152228311
20432913 95 18409450280416086563
20645477 70 18187081784380949931
20871998 22 18199189477972750038
21065198 48 18202566198472421545
21637258 2 16153974752520810026
22224240 67 18341038727445233936
23557571 272 16732975427533232148
26918003 58 18410854361165166873
2748010 2 17766817461468854724
3060560 45 7925913690585902176
33824 294 18335417972090057690
341906 21 15769786727937090163
4047638 21 11455888070557462716
42 15 18411140225561615077
5104073 3 18338791196249143280
573450 72 17704072902600868939
94968 8 18186804647548249970

>  <PUBCHEM_SHAPE_MULTIPOLES>  (1) 
308.46
11.6
1.91
0.96
17.16
0.05
0.04
4.35
3.34
-2.24
-0.12
0.71
0.04
-0.1

>  <PUBCHEM_SHAPE_SELFOVERLAP>  (1) 
641.161

>  <PUBCHEM_SHAPE_VOLUME>  (1) 
180.5

>  <PUBCHEM_COORDINATE_TYPE>  (1) 
2
5
10

$$$$
