36895
     RDKit          3D

 24 26  0  0  0  0  0  0  0  0999 V2000
   -0.3344   -2.5783   -0.3229 S   0  0  0  0  0  0  0  0  0  0  0  0
    0.9442   -1.8158    0.3504 O   0  0  0  0  0  0  0  0  0  0  0  0
   -0.7333   -3.6795    0.5318 O   0  0  0  0  0  0  0  0  0  0  0  0
   -0.0439   -2.7783   -1.7302 O   0  0  0  0  0  0  0  0  0  0  0  0
   -4.9053    2.2169   -0.9596 O   0  0  0  0  0  0  0  0  0  0  0  0
   -5.4752    1.4323    1.0098 O   0  0  0  0  0  0  0  0  0  0  0  0
    3.4453   -0.3986    0.3181 N   0  0  0  0  0  0  0  0  0  0  0  0
    4.2945    0.9555   -1.1406 N   0  0  0  0  0  0  0  0  0  0  0  0
   -4.7401    1.4169   -0.0071 N   0  0  0  0  0  0  0  0  0  0  0  0
    3.2182   -1.6032    1.0926 C   0  0  0  0  0  0  0  0  0  0  0  0
    2.7593    0.7909    0.4541 C   0  0  0  0  0  0  0  0  0  0  0  0
    3.3076    1.6650   -0.4876 C   0  0  0  0  0  0  0  0  0  0  0  0
    2.1850   -2.5037    0.4354 C   0  0  0  0  0  0  0  0  0  0  0  0
    4.3658   -0.2842   -0.6449 C   0  0  0  0  0  0  0  0  0  0  0  0
    1.7265    1.1628    1.3065 C   0  0  0  0  0  0  0  0  0  0  0  0
    2.8613    2.9721   -0.6424 C   0  0  0  0  0  0  0  0  0  0  0  0
   -1.6397   -1.3937   -0.2291 C   0  0  0  0  0  0  0  0  0  0  0  0
    1.2652    2.4791    1.1620 C   0  0  0  0  0  0  0  0  0  0  0  0
    1.8191    3.3622    0.2107 C   0  0  0  0  0  0  0  0  0  0  0  0
   -1.8281   -0.5070   -1.2769 C   0  0  0  0  0  0  0  0  0  0  0  0
   -2.4554   -1.3703    0.8907 C   0  0  0  0  0  0  0  0  0  0  0  0
   -2.8599    0.4287   -1.2028 C   0  0  0  0  0  0  0  0  0  0  0  0
   -3.4872   -0.4347    0.9646 C   0  0  0  0  0  0  0  0  0  0  0  0
   -3.6895    0.4649   -0.0823 C   0  0  0  0  0  0  0  0  0  0  0  0
  1  2  1  0
  1  3  2  0
  1  4  2  0
  1 17  1  0
  2 13  1  0
  5  9  1  0
  6  9  2  0
  7 10  1  0
  7 11  1  0
  7 14  2  0
  8 12  1  0
  8 14  1  0
  9 24  1  0
 10 13  1  0
 11 12  2  0
 11 15  1  0
 12 16  1  0
 15 18  2  0
 16 19  2  0
 17 20  2  0
 17 21  1  0
 18 19  1  0
 20 22  1  0
 21 23  2  0
 22 24  2  0
 23 24  1  0
M  CHG  3   5  -1   7   1   9   1
M  END
>  <PUBCHEM_COMPOUND_CID>  (1) 
36895

>  <PUBCHEM_CONFORMER_RMSD>  (1) 
0.8

>  <PUBCHEM_CONFORMER_DIVERSEORDER>  (1) 
1
9
19
14
17
5
2
22
18
23
6
25
24
11
16
20
15
10
7
12
21
26
4
8
13
3

>  <PUBCHEM_MMFF94_PARTIAL_CHARGES>  (1) 
34
1 1.49
10 0.51
11 0.31
12 0.31
13 0.28
14 0.65
15 -0.11
16 -0.11
17 -0.01
18 -0.15
19 -0.15
2 -0.46
20 -0.15
21 -0.15
22 -0.15
23 -0.15
24 0.13
29 0.15
3 -0.65
30 0.45
31 0.15
32 0.15
33 0.15
34 0.15
35 0.15
36 0.15
37 0.15
38 0.15
4 -0.65
5 -0.52
6 -0.52
7 -0.76
8 -0.7
9 0.91

>  <PUBCHEM_EFFECTIVE_ROTOR_COUNT>  (1) 
6

>  <PUBCHEM_PHARMACOPHORE_FEATURES>  (1) 
10
1 3 acceptor
1 4 acceptor
1 5 acceptor
1 5 anion
1 6 acceptor
1 8 donor
3 7 8 14 cation
5 7 8 11 12 14 rings
6 11 12 15 16 18 19 rings
6 17 20 21 22 23 24 rings

>  <PUBCHEM_HEAVY_ATOM_COUNT>  (1) 
24

>  <PUBCHEM_ATOM_DEF_STEREO_COUNT>  (1) 
0

>  <PUBCHEM_ATOM_UDEF_STEREO_COUNT>  (1) 
0

>  <PUBCHEM_BOND_DEF_STEREO_COUNT>  (1) 
0

>  <PUBCHEM_BOND_UDEF_STEREO_COUNT>  (1) 
0

>  <PUBCHEM_ISOTOPIC_ATOM_COUNT>  (1) 
0

>  <PUBCHEM_COMPONENT_COUNT>  (1) 
1

>  <PUBCHEM_CACTVS_TAUTO_COUNT>  (1) 
2

>  <PUBCHEM_CONFORMER_ID>  (1) 
0000901F00000001

>  <PUBCHEM_MMFF94_ENERGY>  (1) 
41.3146

>  <PUBCHEM_FEATURE_SELFOVERLAP>  (1) 
50.952

>  <PUBCHEM_SHAPE_FINGERPRINT>  (1) 
10498660 4 17612577226567413302
11578080 2 14636026460287219710
12156800 1 11534762739909275102
12633257 1 18188477012986493378
12769317 202 18265324015661694367
12788726 201 17916880036171906248
128993 33 18122057878084997870
14178342 30 17834660965975497312
14251764 75 18265345073539076909
14386348 128 18192145130106140394
14713325 29 16673604295769020496
151778 21 18334579065776293069
15238133 3 18261107461868778962
15322687 12 18410289207603716753
1601671 61 18410855426143002416
16752209 62 17632303323968001969
16992727 255 18188791538681247828
17921350 177 18129112276175047982
18981168 100 17826487128015437878
20465049 17 18339375118511760262
21475661 188 18044367237207857381
21860390 5 18127689340203358351
21864079 5 18338510966659557722
238 59 17976215202332992254
2637199 183 18410298033692665154
3298306 158 18339356375612331061
350125 39 18265899253110952283
3797600 57 12973595643333909686
474 4 18341046307793732467
5048184 11 18266177416625491189
5081480 168 17342132262538037046
5252454 2 18188489189413833156
54672768 99 18408602578130956764
6287921 2 17538292026266767084
7399639 24 16905807935502618114
7832392 63 18340481279123619090
8509985 295 18337666417212251920

>  <PUBCHEM_SHAPE_MULTIPOLES>  (1) 
453.47
9.43
4.09
1.3
6.65
0.45
-0.12
-5.92
-0.4
-0.98
0.06
0.13
0.04
-0.22

>  <PUBCHEM_SHAPE_SELFOVERLAP>  (1) 
972.648

>  <PUBCHEM_SHAPE_VOLUME>  (1) 
252.6

>  <PUBCHEM_COORDINATE_TYPE>  (1) 
2
5
10

$$$$
