36900
     RDKit          3D

 27 31  0  0  0  0  0  0  0  0999 V2000
   -5.9470    0.3397    1.4276 O   0  0  0  0  0  0  0  0  0  0  0  0
   -4.0554   -0.7645    2.0351 O   0  0  0  0  0  0  0  0  0  0  0  0
   -2.3481   -0.9208   -0.1524 N   0  0  0  0  0  0  0  0  0  0  0  0
    2.5217   -0.2359    0.0398 C   0  0  0  0  0  0  0  0  0  0  0  0
    5.0807   -0.0999    0.0952 C   0  0  0  0  0  0  0  0  0  0  0  0
    3.7568    1.8308   -0.8163 C   0  0  0  0  0  0  0  0  0  0  0  0
    3.7297    1.3337    1.6542 C   0  0  0  0  0  0  0  0  0  0  0  0
    3.8634   -1.0193   -0.1029 C   0  0  0  0  0  0  0  0  0  0  0  0
    2.5434    0.9061   -1.0193 C   0  0  0  0  0  0  0  0  0  0  0  0
    2.5163    0.4077    1.4583 C   0  0  0  0  0  0  0  0  0  0  0  0
    5.0490    1.0149   -0.9597 C   0  0  0  0  0  0  0  0  0  0  0  0
    5.0219    0.5202    1.4981 C   0  0  0  0  0  0  0  0  0  0  0  0
    3.6963    2.4447    0.5919 C   0  0  0  0  0  0  0  0  0  0  0  0
    1.3467   -1.1333   -0.1539 C   0  0  0  0  0  0  0  0  0  0  0  0
    0.0531   -0.6188   -0.0648 C   0  0  0  0  0  0  0  0  0  0  0  0
    1.5412   -2.4879   -0.4245 C   0  0  0  0  0  0  0  0  0  0  0  0
   -1.0458   -1.4588   -0.2461 C   0  0  0  0  0  0  0  0  0  0  0  0
    0.4426   -3.3278   -0.6058 C   0  0  0  0  0  0  0  0  0  0  0  0
   -0.8509   -2.8133   -0.5168 C   0  0  0  0  0  0  0  0  0  0  0  0
   -2.0093   -3.7358   -0.7158 C   0  0  0  0  0  0  0  0  0  0  0  0
   -2.8737    0.3544   -0.4310 C   0  0  0  0  0  0  0  0  0  0  0  0
   -3.9761    0.8500    0.2713 C   0  0  0  0  0  0  0  0  0  0  0  0
   -2.2813    1.1363   -1.4266 C   0  0  0  0  0  0  0  0  0  0  0  0
   -4.4816    2.1170   -0.0198 C   0  0  0  0  0  0  0  0  0  0  0  0
   -2.7867    2.4034   -1.7175 C   0  0  0  0  0  0  0  0  0  0  0  0
   -4.6199    0.0636    1.3160 C   0  0  0  0  0  0  0  0  0  0  0  0
   -3.8868    2.8937   -1.0143 C   0  0  0  0  0  0  0  0  0  0  0  0
  1 26  1  0
  2 26  2  0
  3 17  1  0
  3 21  1  0
  4  8  1  0
  4  9  1  0
  4 10  1  0
  4 14  1  0
  5  8  1  0
  5 11  1  0
  5 12  1  0
  6  9  1  0
  6 11  1  0
  6 13  1  0
  7 10  1  0
  7 12  1  0
  7 13  1  0
 14 15  2  0
 14 16  1  0
 15 17  1  0
 16 18  2  0
 17 19  2  0
 18 19  1  0
 19 20  1  0
 21 22  2  0
 21 23  1  0
 22 24  1  0
 22 26  1  0
 23 25  2  0
 24 27  2  0
 25 27  1  0
M  END
>  <PUBCHEM_COMPOUND_CID>  (1) 
36900

>  <PUBCHEM_CONFORMER_RMSD>  (1) 
0.8

>  <PUBCHEM_CONFORMER_DIVERSEORDER>  (1) 
3
22
16
5
17
12
13
18
2
24
19
8
23
15
11
14
20
4
1
10
7
21
9
6

>  <PUBCHEM_MMFF94_PARTIAL_CHARGES>  (1) 
27
1 -0.65
14 -0.14
15 -0.15
16 -0.15
17 0.1
18 -0.15
19 -0.14
2 -0.57
20 0.14
21 0.1
22 0.09
23 -0.15
24 -0.15
25 -0.15
26 0.63
27 -0.15
3 -0.6
4 0.14
43 0.15
44 0.15
45 0.15
46 0.4
50 0.15
51 0.15
52 0.15
53 0.15
54 0.5

>  <PUBCHEM_EFFECTIVE_ROTOR_COUNT>  (1) 
5.2

>  <PUBCHEM_PHARMACOPHORE_FEATURES>  (1) 
11
1 1 acceptor
1 2 acceptor
1 3 cation
1 3 donor
3 1 2 26 anion
6 14 15 16 17 18 19 rings
6 21 22 23 24 25 27 rings
6 4 5 6 8 9 11 rings
6 4 5 7 8 10 12 rings
6 4 6 7 9 10 13 rings
6 5 6 7 11 12 13 rings

>  <PUBCHEM_HEAVY_ATOM_COUNT>  (1) 
27

>  <PUBCHEM_ATOM_DEF_STEREO_COUNT>  (1) 
0

>  <PUBCHEM_ATOM_UDEF_STEREO_COUNT>  (1) 
0

>  <PUBCHEM_BOND_DEF_STEREO_COUNT>  (1) 
0

>  <PUBCHEM_BOND_UDEF_STEREO_COUNT>  (1) 
0

>  <PUBCHEM_ISOTOPIC_ATOM_COUNT>  (1) 
0

>  <PUBCHEM_COMPONENT_COUNT>  (1) 
1

>  <PUBCHEM_CACTVS_TAUTO_COUNT>  (1) 
2

>  <PUBCHEM_CONFORMER_ID>  (1) 
0000902400000003

>  <PUBCHEM_MMFF94_ENERGY>  (1) 
105.6318

>  <PUBCHEM_FEATURE_SELFOVERLAP>  (1) 
68.35

>  <PUBCHEM_SHAPE_FINGERPRINT>  (1) 
10074138 170 18190451860735819739
10165383 225 18270976703576613081
10319926 262 17750230309775851202
10670039 82 18337676442087947020
11595378 159 17167859763992977445
11796584 16 11815896730101911564
12107183 9 18264751209196594898
12107698 1 17748829635030944136
12173636 292 18267855254421840766
12403259 118 18113332003283041973
12403259 415 18412263909075415964
12422481 6 18113907039553866117
12596602 18 16370729252856892552
12633257 1 18340484577252372588
12769317 202 18199739259039437848
12788726 201 17901095636153412922
12925494 130 18050849910574033449
12978246 48 18408604759874252740
13544653 18 12107786298135836782
13583140 156 16951106422517582799
13965767 371 18189032258290805372
14294032 229 18413389865228342303
14341114 328 17095528387328381305
1454969 45 18338239371031092847
14840074 17 18188496886417201197
14932701 244 16769539815621632549
14950920 106 17023175059143470984
151778 21 18411982420918319788
15183329 4 9223239516509361059
1601671 61 18333726893590173132
17913733 40 18271529697933206843
18222031 100 12035451648716281906
20261772 1 18261113014654733676
21033648 144 18059565940888583408
21033648 29 18340475699549892136
21223535 225 17131562613592417352
21458453 9 18191887814747771219
23536364 44 17480315469966446798
23559900 14 17826801326564222127
329604 57 10015575134498511274
350125 39 18411983593502972702
469060 322 18192435388666089699
49207404 50 18334581200759745237
50009960 94 16883321725121091835
5081480 168 17414176623871228054
508706 21 18410571807671961710
5104073 3 18117000971069887001
5252454 2 18343021107474790235
59755656 520 17917999373088768527
633830 44 17418373614489373768
7226269 152 17988914575220443584
7808743 9 18337112396891841924
9862522 239 18335409175701558623

>  <PUBCHEM_SHAPE_MULTIPOLES>  (1) 
538.93
11.95
3.64
1.52
1.59
2.39
0.43
-7.68
3.5
2.01
-1.4
0.55
-0.58
1.06

>  <PUBCHEM_SHAPE_SELFOVERLAP>  (1) 
1198.529

>  <PUBCHEM_SHAPE_VOLUME>  (1) 
280.6

>  <PUBCHEM_COORDINATE_TYPE>  (1) 
2
5
10

$$$$
