36918
     RDKit          3D

 17 20  0  0  0  0  0  0  0  0999 V2000
    1.5589    1.9424   -0.0013 N   0  0  0  0  0  0  0  0  0  0  0  0
    0.0486    0.1579    0.0007 C   0  0  0  0  0  0  0  0  0  0  0  0
   -1.1986   -0.3428    0.0013 C   0  0  0  0  0  0  0  0  0  0  0  0
    1.3859   -0.4167    0.0004 C   0  0  0  0  0  0  0  0  0  0  0  0
    0.2897    1.6348   -0.0002 C   0  0  0  0  0  0  0  0  0  0  0  0
   -2.3282    0.6095    0.0010 C   0  0  0  0  0  0  0  0  0  0  0  0
   -1.4962   -1.8282    0.0010 C   0  0  0  0  0  0  0  0  0  0  0  0
    2.2440    0.7009   -0.0009 C   0  0  0  0  0  0  0  0  0  0  0  0
   -0.8514    2.5636    0.0004 C   0  0  0  0  0  0  0  0  0  0  0  0
   -2.0886    2.0508    0.0013 C   0  0  0  0  0  0  0  0  0  0  0  0
   -3.5971    0.1557   -0.0002 C   0  0  0  0  0  0  0  0  0  0  0  0
   -2.9578   -2.1776   -0.0016 C   0  0  0  0  0  0  0  0  0  0  0  0
    1.8854   -1.7057    0.0012 C   0  0  0  0  0  0  0  0  0  0  0  0
   -3.9210   -1.2488   -0.0020 C   0  0  0  0  0  0  0  0  0  0  0  0
    3.6205    0.5377   -0.0014 C   0  0  0  0  0  0  0  0  0  0  0  0
    3.2731   -1.8720    0.0010 C   0  0  0  0  0  0  0  0  0  0  0  0
    4.1329   -0.7614   -0.0005 C   0  0  0  0  0  0  0  0  0  0  0  0
  1  5  2  0
  1  8  1  0
  2  3  2  0
  2  4  1  0
  2  5  1  0
  3  6  1  0
  3  7  1  0
  4  8  2  0
  4 13  1  0
  5  9  1  0
  6 10  1  0
  6 11  2  0
  7 12  1  0
  8 15  1  0
  9 10  2  0
 11 14  1  0
 12 14  2  0
 13 16  2  0
 15 17  2  0
 16 17  1  0
M  END
>  <PUBCHEM_COMPOUND_CID>  (1) 
36918

>  <PUBCHEM_CONFORMER_RMSD>  (1) 
0.4

>  <PUBCHEM_CONFORMER_DIVERSEORDER>  (1) 
1

>  <PUBCHEM_MMFF94_PARTIAL_CHARGES>  (1) 
25
1 -0.63
10 -0.15
11 -0.15
12 -0.29
13 -0.15
14 -0.15
15 -0.15
16 -0.15
17 -0.15
2 -0.01
20 0.15
21 0.15
22 0.15
23 0.15
24 0.15
25 0.15
26 0.15
27 0.15
28 0.15
3 -0.14
4 0.03
5 0.42
7 0.28
8 0.18
9 -0.14

>  <PUBCHEM_EFFECTIVE_ROTOR_COUNT>  (1) 
0.2

>  <PUBCHEM_PHARMACOPHORE_FEATURES>  (1) 
5
1 1 acceptor
5 1 2 4 5 8 rings
6 2 3 5 6 9 10 rings
6 3 6 7 11 12 14 rings
6 4 8 13 15 16 17 rings

>  <PUBCHEM_HEAVY_ATOM_COUNT>  (1) 
17

>  <PUBCHEM_ATOM_DEF_STEREO_COUNT>  (1) 
0

>  <PUBCHEM_ATOM_UDEF_STEREO_COUNT>  (1) 
0

>  <PUBCHEM_BOND_DEF_STEREO_COUNT>  (1) 
0

>  <PUBCHEM_BOND_UDEF_STEREO_COUNT>  (1) 
0

>  <PUBCHEM_ISOTOPIC_ATOM_COUNT>  (1) 
0

>  <PUBCHEM_COMPONENT_COUNT>  (1) 
1

>  <PUBCHEM_CACTVS_TAUTO_COUNT>  (1) 
1

>  <PUBCHEM_CONFORMER_ID>  (1) 
0000903600000001

>  <PUBCHEM_MMFF94_ENERGY>  (1) 
57.7122

>  <PUBCHEM_FEATURE_SELFOVERLAP>  (1) 
25.59

>  <PUBCHEM_SHAPE_FINGERPRINT>  (1) 
10319926 262 18124570030996808114
10608611 8 18412258407227779392
10616163 171 18412266103698592534
10618630 7 18409730672623143182
10967382 1 18122626312347711174
1100329 8 17040352415977402075
11132069 177 18411695487075105888
11578080 2 17345167065460962825
11806522 49 18408603690716870774
12032990 46 18410858780201289075
12553582 1 18411136982481738839
13140716 1 18339645654048337267
13221675 6 18410573989494112078
13583140 156 14189574092285637655
138480 1 15384155731702467049
14115302 16 17967823772566066271
14144814 61 18412263908859151162
14178342 30 18265319630653163712
14223421 5 18413102862212061544
14790565 3 17545046356161336485
15196674 1 18410855460128200775
15375462 189 18187365406678097059
15442244 35 18265895765818716146
15536298 74 18342738554751211168
16752209 62 18263910056556469825
16945 1 18410856559687619616
17804303 29 18342179946682730421
19107657 46 18411699876589912494
19141452 34 18343867727834875743
19591789 44 16540186736474698657
200 152 18131343146660669535
20510252 161 18200030621052249089
20645477 70 18118956143130540799
20871998 184 18201718414360867343
21029758 11 18341886390506607849
21267235 1 18410583889357052938
21501502 16 18410016502971180364
21634736 98 18335708273171541318
221490 88 18191311682780387154
22721475 48 18410859866769888741
23184049 29 18410573955218750294
2334 1 18050569839312032775
23402539 116 18343292648740557247
23463225 33 18410857684926534983
23557571 272 18201165347622916742
23559900 14 18412819171306630192
2748010 2 17977944910169864177
2871803 45 18407754841696409702
3091708 16 9064030279377355345
3312278 4 18410293601138683736
335352 9 18194683670230964573
34934 24 18411129264340800047
427121 178 15765037829810999289
5104073 3 18412261705794065306
54173680 148 18338517439096099467
7364860 26 18197214969278739040
81228 2 18334583412298988553
8809292 202 18334297586546761227
9709674 26 18270401573012051102

>  <PUBCHEM_SHAPE_MULTIPOLES>  (1) 
344.87
6.85
2.67
0.61
1.48
0.46
0
-2.93
0
-0.84
0
-0.01
-0.01
0

>  <PUBCHEM_SHAPE_SELFOVERLAP>  (1) 
786.863

>  <PUBCHEM_SHAPE_VOLUME>  (1) 
178.2

>  <PUBCHEM_COORDINATE_TYPE>  (1) 
2
5
10

$$$$
