36926
     RDKit          3D

 20 22  0  0  0  0  0  0  0  0999 V2000
   -0.8971    1.2301    0.6039 N   0  0  0  0  0  0  0  0  0  0  0  0
    1.0927   -2.3507   -0.3008 N   0  0  0  0  0  0  0  0  0  0  0  0
   -0.9574   -1.1560    0.1611 C   0  0  0  0  0  0  0  0  0  0  0  0
   -2.4557   -1.1274    0.2866 C   0  0  0  0  0  0  0  0  0  0  0  0
   -3.0705   -2.5156    0.4608 C   0  0  0  0  0  0  0  0  0  0  0  0
   -2.4652   -3.4973   -0.5356 C   0  0  0  0  0  0  0  0  0  0  0  0
   -0.9644   -3.6400   -0.2923 C   0  0  0  0  0  0  0  0  0  0  0  0
   -0.2568   -2.3176   -0.1541 C   0  0  0  0  0  0  0  0  0  0  0  0
   -0.2198    0.0203    0.2969 C   0  0  0  0  0  0  0  0  0  0  0  0
    1.1719    0.0122    0.1430 C   0  0  0  0  0  0  0  0  0  0  0  0
    1.7958   -1.2125   -0.1587 C   0  0  0  0  0  0  0  0  0  0  0  0
   -2.2913    1.4093    0.3703 C   0  0  0  0  0  0  0  0  0  0  0  0
    1.9361    1.1836    0.2809 C   0  0  0  0  0  0  0  0  0  0  0  0
   -2.6556    2.8915    0.3804 C   0  0  0  0  0  0  0  0  0  0  0  0
    3.1796   -1.2236   -0.3110 C   0  0  0  0  0  0  0  0  0  0  0  0
    3.3185    1.1454    0.1230 C   0  0  0  0  0  0  0  0  0  0  0  0
   -1.9476    3.6808   -0.7236 C   0  0  0  0  0  0  0  0  0  0  0  0
    3.9410   -0.0605   -0.1731 C   0  0  0  0  0  0  0  0  0  0  0  0
    4.1266    2.3893    0.2708 C   0  0  0  0  0  0  0  0  0  0  0  0
   -2.3807    5.1387   -0.7288 C   0  0  0  0  0  0  0  0  0  0  0  0
  1  9  1  0
  1 12  1  0
  2  8  2  0
  2 11  1  0
  3  4  1  0
  3  8  1  0
  3  9  2  0
  4  5  1  0
  5  6  1  0
  6  7  1  0
  7  8  1  0
  9 10  1  0
 10 11  2  0
 10 13  1  0
 11 15  1  0
 12 14  1  0
 13 16  2  0
 14 17  1  0
 15 18  2  0
 16 18  1  0
 16 19  1  0
 17 20  1  0
M  END
>  <PUBCHEM_COMPOUND_CID>  (1) 
36926

>  <PUBCHEM_CONFORMER_RMSD>  (1) 
0.6

>  <PUBCHEM_CONFORMER_DIVERSEORDER>  (1) 
1
8
4
10
5
6
2
12
11
7
3
9

>  <PUBCHEM_MMFF94_PARTIAL_CHARGES>  (1) 
18
1 -0.87
11 0.31
12 0.37
13 -0.15
15 -0.15
16 -0.14
18 -0.15
19 0.14
2 -0.62
29 0.4
3 -0.14
32 0.15
35 0.15
38 0.15
4 0.14
7 0.14
8 0.17
9 0.1

>  <PUBCHEM_EFFECTIVE_ROTOR_COUNT>  (1) 
4.8

>  <PUBCHEM_PHARMACOPHORE_FEATURES>  (1) 
7
1 1 cation
1 1 donor
1 2 acceptor
1 20 hydrophobe
6 10 11 13 15 16 18 rings
6 2 3 8 9 10 11 rings
6 3 4 5 6 7 8 rings

>  <PUBCHEM_HEAVY_ATOM_COUNT>  (1) 
20

>  <PUBCHEM_ATOM_DEF_STEREO_COUNT>  (1) 
0

>  <PUBCHEM_ATOM_UDEF_STEREO_COUNT>  (1) 
0

>  <PUBCHEM_BOND_DEF_STEREO_COUNT>  (1) 
0

>  <PUBCHEM_BOND_UDEF_STEREO_COUNT>  (1) 
0

>  <PUBCHEM_ISOTOPIC_ATOM_COUNT>  (1) 
0

>  <PUBCHEM_COMPONENT_COUNT>  (1) 
1

>  <PUBCHEM_CACTVS_TAUTO_COUNT>  (1) 
5

>  <PUBCHEM_CONFORMER_ID>  (1) 
0000903E00000001

>  <PUBCHEM_MMFF94_ENERGY>  (1) 
77.2353

>  <PUBCHEM_FEATURE_SELFOVERLAP>  (1) 
35.576

>  <PUBCHEM_SHAPE_FINGERPRINT>  (1) 
10670039 82 18047483494022736540
10693767 8 16761399723225562223
10871710 139 17975435794818902740
10967382 1 17402899916547397770
1100329 8 17905890275734207722
11833330 49 18193550305618486697
12173636 292 18410291376388134589
12403259 226 18127973207861714488
12553582 1 17978239583570564946
12730499 353 17688318880776226401
12769317 202 17471565534436106813
12788726 201 18189609621916933472
13140716 1 18340491058526483402
13583140 156 17313663754673998800
138480 1 16681473985081540621
14178342 30 18337374007897711066
14508225 48 18053093209981827517
14790565 3 14013659340266287547
14955137 171 17542533941862599322
15196674 1 18126288777328138706
15961568 22 17762620994748093188
16945 1 18413389864827935066
17134986 127 18050004394030306188
19591789 44 18195817271204157115
20510252 161 18271812388111284330
20645477 70 17111005942446699897
20739085 24 17979110319929574523
21267235 1 17909279322758389894
21524375 3 18117565024159885993
22907989 373 18334576879653640941
2334 1 18413394224124366362
23402539 116 17983855867701567414
23558518 356 18334297582610314682
23559900 14 17118313846259355627
238 59 17250304234278815773
2748010 2 18053400811292552774
3060560 45 17618781353854548917
3091708 16 9201405448273581587
34934 24 18124873714110331690
350125 39 18339654347093792688
352729 6 18270402668080713106
3886686 26 18051661431859243562
5104073 3 18126571347758913594
7164475 11 18338234989715765678
7364860 26 17185314245059783973
81228 2 18194692681035473875
84936 182 17551218580573634312
90316 7 18121766481401550490

>  <PUBCHEM_SHAPE_MULTIPOLES>  (1) 
401.63
6.2
6.06
0.75
4.45
11.34
-0.03
-3.77
0.34
-3.68
-1.85
-0.12
0.23
-0.04

>  <PUBCHEM_SHAPE_SELFOVERLAP>  (1) 
858.354

>  <PUBCHEM_SHAPE_VOLUME>  (1) 
222.2

>  <PUBCHEM_COORDINATE_TYPE>  (1) 
2
5
10

$$$$
