36928
     RDKit          3D

 20 22  0  0  0  0  0  0  0  0999 V2000
    4.9552   -0.2836    0.2837 Cl  0  0  0  0  0  0  0  0  0  0  0  0
   -0.0528    1.5175    0.6026 N   0  0  0  0  0  0  0  0  0  0  0  0
   -0.4411   -2.5608   -0.3007 N   0  0  0  0  0  0  0  0  0  0  0  0
   -1.4539   -0.4152    0.1623 C   0  0  0  0  0  0  0  0  0  0  0  0
   -2.6726    0.4566    0.2895 C   0  0  0  0  0  0  0  0  0  0  0  0
   -3.9651   -0.3396    0.4658 C   0  0  0  0  0  0  0  0  0  0  0  0
   -4.0234   -1.4917   -0.5303 C   0  0  0  0  0  0  0  0  0  0  0  0
   -2.8667   -2.4589   -0.2886 C   0  0  0  0  0  0  0  0  0  0  0  0
   -1.5346   -1.7695   -0.1525 C   0  0  0  0  0  0  0  0  0  0  0  0
   -0.1799    0.1369    0.2961 C   0  0  0  0  0  0  0  0  0  0  0  0
    0.9626   -0.6578    0.1406 C   0  0  0  0  0  0  0  0  0  0  0  0
    0.7830   -2.0205   -0.1606 C   0  0  0  0  0  0  0  0  0  0  0  0
   -1.1009    2.4546    0.3704 C   0  0  0  0  0  0  0  0  0  0  0  0
   -0.5621    3.8826    0.3796 C   0  0  0  0  0  0  0  0  0  0  0  0
    2.2559   -0.1248    0.2765 C   0  0  0  0  0  0  0  0  0  0  0  0
    1.9172   -2.8131   -0.3145 C   0  0  0  0  0  0  0  0  0  0  0  0
    0.4669    4.1322   -0.7259 C   0  0  0  0  0  0  0  0  0  0  0  0
    3.3735   -0.9389    0.1170 C   0  0  0  0  0  0  0  0  0  0  0  0
    3.2035   -2.2854   -0.1786 C   0  0  0  0  0  0  0  0  0  0  0  0
    0.9353    5.5791   -0.7323 C   0  0  0  0  0  0  0  0  0  0  0  0
  1 18  1  0
  2 10  1  0
  2 13  1  0
  3  9  2  0
  3 12  1  0
  4  5  1  0
  4  9  1  0
  4 10  2  0
  5  6  1  0
  6  7  1  0
  7  8  1  0
  8  9  1  0
 10 11  1  0
 11 12  2  0
 11 15  1  0
 12 16  1  0
 13 14  1  0
 14 17  1  0
 15 18  2  0
 16 19  2  0
 17 20  1  0
 18 19  1  0
M  END
>  <PUBCHEM_COMPOUND_CID>  (1) 
36928

>  <PUBCHEM_CONFORMER_RMSD>  (1) 
0.6

>  <PUBCHEM_CONFORMER_DIVERSEORDER>  (1) 
1
8
4
10
5
6
2
12
7
11
3
9

>  <PUBCHEM_MMFF94_PARTIAL_CHARGES>  (1) 
18
1 -0.18
10 0.1
12 0.31
13 0.37
15 -0.15
16 -0.15
18 0.18
19 -0.15
2 -0.87
29 0.4
3 -0.62
34 0.15
35 0.15
38 0.15
4 -0.14
5 0.14
8 0.14
9 0.17

>  <PUBCHEM_EFFECTIVE_ROTOR_COUNT>  (1) 
4.8

>  <PUBCHEM_PHARMACOPHORE_FEATURES>  (1) 
7
1 2 cation
1 2 donor
1 20 hydrophobe
1 3 acceptor
6 11 12 15 16 18 19 rings
6 3 4 9 10 11 12 rings
6 4 5 6 7 8 9 rings

>  <PUBCHEM_HEAVY_ATOM_COUNT>  (1) 
20

>  <PUBCHEM_ATOM_DEF_STEREO_COUNT>  (1) 
0

>  <PUBCHEM_ATOM_UDEF_STEREO_COUNT>  (1) 
0

>  <PUBCHEM_BOND_DEF_STEREO_COUNT>  (1) 
0

>  <PUBCHEM_BOND_UDEF_STEREO_COUNT>  (1) 
0

>  <PUBCHEM_ISOTOPIC_ATOM_COUNT>  (1) 
0

>  <PUBCHEM_COMPONENT_COUNT>  (1) 
1

>  <PUBCHEM_CACTVS_TAUTO_COUNT>  (1) 
5

>  <PUBCHEM_CONFORMER_ID>  (1) 
0000904000000001

>  <PUBCHEM_MMFF94_ENERGY>  (1) 
75.4639

>  <PUBCHEM_FEATURE_SELFOVERLAP>  (1) 
35.576

>  <PUBCHEM_SHAPE_FINGERPRINT>  (1) 
10670039 82 18336561430603870212
10693767 8 14962229943209084374
10871710 139 18265357056903586228
10967382 1 18341048630869951171
1100329 8 17834397096412494104
11833330 49 18409443652996868264
12173636 292 17833550089748016804
12403259 226 18271518689995382650
12553582 1 18411429409624976339
12730499 353 16175673313188862505
12788726 201 18188769427392399058
13140716 1 18340768255515534538
138480 1 14735918829935191765
14178342 30 17975680702818497810
14508225 48 18340758273858460341
14790565 3 16103612034801691355
14955137 171 18193305028726308563
15196674 1 18342738477147186707
15927050 60 17116079642594405223
15961568 22 18411139178117434124
167882 2 17976534241383966157
16945 1 18125157126206911635
18785283 64 18047480199259573763
19591789 44 16465306253791502163
20028762 73 14668101820851099614
20510252 161 18199749137532972714
20642791 178 17977384159240004065
20739085 24 17981922711891082147
21267235 1 18342464758987063591
21524375 3 17181384598817688825
22907989 373 18118690902586780404
2334 1 18197494236658064338
23366157 5 17828471801910549160
23402539 116 18271798016950673815
23558518 356 17974296425947016418
23559900 14 18126271185421331603
2748010 2 18270951436084018275
3071541 12 18122626325469944435
3091708 16 9210672132277836905
34934 24 18340762663684782283
350125 39 17764035666078487922
352729 6 17405708077786965794
43471831 8 17186153717813288161
458136 41 17690009255312034899
46194498 28 17832384913188458791
5104073 3 18342738468710376762
532947 4 17979361090148227356
7364860 26 18051409866527950081
81228 2 18339368456885440315
90316 7 18337095779161960643

>  <PUBCHEM_SHAPE_MULTIPOLES>  (1) 
403.5
6.39
6.04
0.76
2.76
12.19
-0.03
-4.91
0.33
-0.08
-1.77
-0.07
0.25
-0.4

>  <PUBCHEM_SHAPE_SELFOVERLAP>  (1) 
855.259

>  <PUBCHEM_SHAPE_VOLUME>  (1) 
226.5

>  <PUBCHEM_COORDINATE_TYPE>  (1) 
2
5
10

$$$$
