36927
     RDKit          3D

 20 22  0  0  0  0  0  0  0  0999 V2000
    0.7982   -1.3636    0.6078 N   0  0  0  0  0  0  0  0  0  0  0  0
   -1.1558    2.2428   -0.2723 N   0  0  0  0  0  0  0  0  0  0  0  0
    0.8814    1.0259    0.1890 C   0  0  0  0  0  0  0  0  0  0  0  0
    2.3788    0.9834    0.3225 C   0  0  0  0  0  0  0  0  0  0  0  0
    3.0046    2.3646    0.5132 C   0  0  0  0  0  0  0  0  0  0  0  0
    2.4130    3.3612   -0.4768 C   0  0  0  0  0  0  0  0  0  0  0  0
    0.9122    3.5141   -0.2401 C   0  0  0  0  0  0  0  0  0  0  0  0
    0.1925    2.1967   -0.1186 C   0  0  0  0  0  0  0  0  0  0  0  0
    0.1332   -0.1452    0.3092 C   0  0  0  0  0  0  0  0  0  0  0  0
   -1.2576   -0.1236    0.1479 C   0  0  0  0  0  0  0  0  0  0  0  0
   -1.8693    1.1092   -0.1452 C   0  0  0  0  0  0  0  0  0  0  0  0
    2.1922   -1.5526    0.3799 C   0  0  0  0  0  0  0  0  0  0  0  0
    2.5238   -3.0080    0.0216 C   0  0  0  0  0  0  0  0  0  0  0  0
   -2.0327   -1.2896    0.2705 C   0  0  0  0  0  0  0  0  0  0  0  0
   -3.2521    1.1337   -0.3046 C   0  0  0  0  0  0  0  0  0  0  0  0
   -3.4138   -1.2381    0.1055 C   0  0  0  0  0  0  0  0  0  0  0  0
    1.7797   -3.4759   -1.2303 C   0  0  0  0  0  0  0  0  0  0  0  0
    4.0289   -3.2341   -0.1314 C   0  0  0  0  0  0  0  0  0  0  0  0
   -4.0241   -0.0240   -0.1820 C   0  0  0  0  0  0  0  0  0  0  0  0
   -4.2329   -2.4769    0.2342 C   0  0  0  0  0  0  0  0  0  0  0  0
  1  9  1  0
  1 12  1  0
  2  8  2  0
  2 11  1  0
  3  4  1  0
  3  8  1  0
  3  9  2  0
  4  5  1  0
  5  6  1  0
  6  7  1  0
  7  8  1  0
  9 10  1  0
 10 11  2  0
 10 14  1  0
 11 15  1  0
 12 13  1  0
 13 17  1  0
 13 18  1  0
 14 16  2  0
 15 19  2  0
 16 19  1  0
 16 20  1  0
M  END
>  <PUBCHEM_COMPOUND_CID>  (1) 
36927

>  <PUBCHEM_CONFORMER_RMSD>  (1) 
0.6

>  <PUBCHEM_CONFORMER_DIVERSEORDER>  (1) 
1
2

>  <PUBCHEM_MMFF94_PARTIAL_CHARGES>  (1) 
18
1 -0.87
11 0.31
12 0.37
14 -0.15
15 -0.15
16 -0.14
19 -0.15
2 -0.62
20 0.14
29 0.4
3 -0.14
33 0.15
34 0.15
4 0.14
41 0.15
7 0.14
8 0.17
9 0.1

>  <PUBCHEM_EFFECTIVE_ROTOR_COUNT>  (1) 
3.8

>  <PUBCHEM_PHARMACOPHORE_FEATURES>  (1) 
7
1 1 cation
1 1 donor
1 2 acceptor
3 13 17 18 hydrophobe
6 10 11 14 15 16 19 rings
6 2 3 8 9 10 11 rings
6 3 4 5 6 7 8 rings

>  <PUBCHEM_HEAVY_ATOM_COUNT>  (1) 
20

>  <PUBCHEM_ATOM_DEF_STEREO_COUNT>  (1) 
0

>  <PUBCHEM_ATOM_UDEF_STEREO_COUNT>  (1) 
0

>  <PUBCHEM_BOND_DEF_STEREO_COUNT>  (1) 
0

>  <PUBCHEM_BOND_UDEF_STEREO_COUNT>  (1) 
0

>  <PUBCHEM_ISOTOPIC_ATOM_COUNT>  (1) 
0

>  <PUBCHEM_COMPONENT_COUNT>  (1) 
1

>  <PUBCHEM_CACTVS_TAUTO_COUNT>  (1) 
5

>  <PUBCHEM_CONFORMER_ID>  (1) 
0000903F00000001

>  <PUBCHEM_MMFF94_ENERGY>  (1) 
83.6674

>  <PUBCHEM_FEATURE_SELFOVERLAP>  (1) 
35.576

>  <PUBCHEM_SHAPE_FINGERPRINT>  (1) 
10411042 1 18265895761429245067
10616163 171 18120372318180492107
10967382 1 18120371214157632137
1100329 8 17979074886285994801
11578080 2 16806984594643983374
11680986 33 18339071606026289721
116883 192 18124030122434737182
12107183 9 18197794211092589123
12553582 1 18048027476613951667
12592029 89 18194688295910813755
12788726 201 17685501948849014882
12839892 36 18123170566472049858
13140716 1 18338802204466256083
138480 1 18410292484726755080
14790565 3 17689163722286141177
14863182 85 18046355402864108967
15042514 8 17544760027749398347
15196674 1 18118680156900787113
15442244 35 18339924805827906057
15475509 8 17481435880873630781
16945 1 18408603690743796713
17492 89 18410854399915597555
18681886 176 17975125762699904632
19591789 44 17906173206371775058
20028762 73 17263009554831302175
20101258 96 18194136117867505922
20510252 161 17116629948553776184
20645477 70 18263914596553361543
20905425 154 18411704244872313588
21197605 99 17326062149001988851
21267235 1 18046349901042735641
21524375 3 17901097843560562960
221490 88 18408046225199758051
2334 1 18408317774643833849
23366157 5 18186238441777327834
23419403 2 17970042510117009838
23557571 272 17624132703418917070
23559900 14 18411409588245163537
23566358 27 18337125513595135857
2748010 2 18120075209296210861
3060560 45 18121217846795782988
3091708 16 9359553690417293944
314173 41 18337676287121600795
352729 6 17758682534746809337
4280585 95 18192700164467016514
43471831 8 18266177429531271241
458136 41 18120956132921552681
5104073 3 18118680148622005353
59755656 215 18263646341253808031
6138700 20 18410017654808328012
6669772 16 18054238897573285820
7364860 26 18411135852820658168
81228 2 17836647426835395346
9709674 26 18335419101724777691

>  <PUBCHEM_SHAPE_MULTIPOLES>  (1) 
401.63
6.75
5.07
0.77
4.48
0.81
-0.08
3.98
0.05
-5.68
-1
-0.2
0.21
0.6

>  <PUBCHEM_SHAPE_SELFOVERLAP>  (1) 
860.931

>  <PUBCHEM_SHAPE_VOLUME>  (1) 
222.1

>  <PUBCHEM_COORDINATE_TYPE>  (1) 
2
5
10

$$$$
