36920
     RDKit          3D

 20 21  0  0  1  0  0  0  0  0999 V2000
   -2.5442   -1.8130    0.3913 S   0  0  0  0  0  0  0  0  0  0  0  0
   -0.3765    0.0650    1.1259 O   0  0  0  0  0  0  0  0  0  0  0  0
    1.0215   -2.1426    0.1837 O   0  0  0  0  0  0  0  0  0  0  0  0
    3.8885    0.1912    0.3824 N   0  0  0  0  0  0  0  0  0  0  0  0
    5.1624    0.2278   -0.3230 C   0  0  0  0  0  0  0  0  0  0  0  0
    3.0697   -0.9216   -0.0788 C   0  0  0  0  0  0  0  0  0  0  0  0
    1.7277   -0.9908    0.6538 C   0  0  0  0  0  0  0  0  0  0  0  0
    5.9820    1.4079    0.2098 C   0  0  0  0  0  0  0  0  0  0  0  0
    5.9033   -1.0878   -0.0610 C   0  0  0  0  0  0  0  0  0  0  0  0
    4.9074    0.3990   -1.8251 C   0  0  0  0  0  0  0  0  0  0  0  0
   -4.9732   -0.0247   -0.8071 C   0  0  0  0  0  0  0  0  0  0  0  0
   -5.1945   -1.4251   -0.2462 C   0  0  0  0  0  0  0  0  0  0  0  0
   -3.7202    0.6574   -0.3193 C   0  0  0  0  0  0  0  0  0  0  0  0
    0.8545    0.2424    0.4324 C   0  0  0  0  0  0  0  0  0  0  0  0
   -2.6097   -0.0357    0.1922 C   0  0  0  0  0  0  0  0  0  0  0  0
   -4.0135   -2.3323   -0.5393 C   0  0  0  0  0  0  0  0  0  0  0  0
   -1.4757    0.6863    0.6017 C   0  0  0  0  0  0  0  0  0  0  0  0
   -3.6547    2.0583   -0.4351 C   0  0  0  0  0  0  0  0  0  0  0  0
   -1.4328    2.0759    0.4913 C   0  0  0  0  0  0  0  0  0  0  0  0
   -2.5222    2.7626   -0.0296 C   0  0  0  0  0  0  0  0  0  0  0  0
  1 15  1  0
  1 16  1  0
  2 14  1  0
  2 17  1  0
  3  7  1  0
  4  5  1  0
  4  6  1  0
  5  8  1  0
  5  9  1  0
  5 10  1  0
  6  7  1  0
  7 14  1  0
 11 12  1  0
 11 13  1  0
 12 16  1  0
 13 15  2  0
 13 18  1  0
 15 17  1  0
 17 19  2  0
 18 20  2  0
 19 20  1  0
M  END
>  <PUBCHEM_COMPOUND_CID>  (1) 
36920

>  <PUBCHEM_CONFORMER_RMSD>  (1) 
0.8

>  <PUBCHEM_CONFORMER_DIVERSEORDER>  (1) 
1
58
55
13
40
21
46
35
78
43
61
16
66
2
79
34
73
10
71
45
36
32
76
9
68
15
42
12
17
14
69
29
7
65
48
11
27
54
52
5
38
3
70
50
63
23
59
19
25
51
53
72
49
60
8
57
56
47
67
24
31
37
20
74
44
39
22
41
30
26
18
28
64
77
62
33
6
4
75

>  <PUBCHEM_MMFF94_PARTIAL_CHARGES>  (1) 
21
1 -0.33
11 0.14
13 -0.14
14 0.28
15 0.1
16 0.23
17 0.08
18 -0.15
19 -0.15
2 -0.36
20 -0.15
23 0.36
3 -0.68
4 -0.9
42 0.15
43 0.15
44 0.15
45 0.4
5 0.27
6 0.27
7 0.28

>  <PUBCHEM_EFFECTIVE_ROTOR_COUNT>  (1) 
6.8

>  <PUBCHEM_PHARMACOPHORE_FEATURES>  (1) 
8
1 2 acceptor
1 3 acceptor
1 3 donor
1 4 cation
1 4 donor
4 5 8 9 10 hydrophobe
6 1 11 12 13 15 16 rings
6 13 15 17 18 19 20 rings

>  <PUBCHEM_HEAVY_ATOM_COUNT>  (1) 
20

>  <PUBCHEM_ATOM_DEF_STEREO_COUNT>  (1) 
0

>  <PUBCHEM_ATOM_UDEF_STEREO_COUNT>  (1) 
1

>  <PUBCHEM_BOND_DEF_STEREO_COUNT>  (1) 
0

>  <PUBCHEM_BOND_UDEF_STEREO_COUNT>  (1) 
0

>  <PUBCHEM_ISOTOPIC_ATOM_COUNT>  (1) 
0

>  <PUBCHEM_COMPONENT_COUNT>  (1) 
1

>  <PUBCHEM_CACTVS_TAUTO_COUNT>  (1) 
1

>  <PUBCHEM_CONFORMER_ID>  (1) 
0000903800000001

>  <PUBCHEM_MMFF94_ENERGY>  (1) 
50.1383

>  <PUBCHEM_FEATURE_SELFOVERLAP>  (1) 
40.613

>  <PUBCHEM_SHAPE_FINGERPRINT>  (1) 
10042902 136 17487324083562916783
10498660 4 18411139095879909608
10595046 47 18407758127836787170
10670039 82 18261123941732004292
10759866 29 18334850567860411803
11089746 13 15719388460746944604
12107183 9 17613990790651743394
12236239 1 17967247589781398002
12788726 201 18336539439769837011
13533116 47 13623794026331640808
13631057 29 18341889727601322859
14251757 5 18336263547987516107
14528608 73 18334016095017681924
14951699 99 11530781326912424142
15295992 7 12613046006303852423
15348495 7 10881691234444793060
16087824 20 18410291373586175133
17834072 33 18408040702187839110
17844677 252 18342463642764467472
17870717 6 18272938210967178367
1813 80 14045748144640182600
19438510 23 14347171470999307759
19489759 90 18260266343630642744
20300324 65 18409730647006619065
20511986 3 17967797341421449596
20871999 31 18411131420947165201
21267235 1 18339081596885202139
21403212 168 10159432989724767885
22393880 68 18339922611188944102
22950370 63 11384111943212233472
2297311 6 18342461460831098447
23402539 116 18260264152870358551
235170 7 17560810887987321804
23557571 272 18272937106786205493
23559900 14 18340757252094548353
238078 22 18272087197646989057
329604 57 18337393837112921718
335352 9 18411409641203894167
34797466 226 17988932197313165484
351380 3 13039190295175993084
4214541 1 18410855421631906616
4325135 7 18408040714719378262
474 4 17385450903722726896
497634 4 17846226556968100497
5385378 56 7853035895286158517
67856867 119 18189607264286141826
7237137 82 18408600370860229565
7495541 125 17561359608840282594
9709674 26 18198904717103841311
9981440 41 18186524288857394466

>  <PUBCHEM_SHAPE_MULTIPOLES>  (1) 
398.72
14.38
2.52
0.98
17.16
0.48
-0.25
-0.96
-3.84
-2.84
0.01
0.55
0.05
-0.26

>  <PUBCHEM_SHAPE_SELFOVERLAP>  (1) 
800.826

>  <PUBCHEM_SHAPE_VOLUME>  (1) 
236.5

>  <PUBCHEM_COORDINATE_TYPE>  (1) 
2
5
10

$$$$
