3693
     RDKit          3D

 29 30  0  0  1  0  0  0  0  0999 V2000
   -1.0631   -2.1123   -0.2084 O   0  0  0  0  0  0  0  0  0  0  0  0
   -3.2527    1.4064   -1.4334 O   0  0  0  0  0  0  0  0  0  0  0  0
   -4.2548   -3.0604    1.7315 O   0  0  0  0  0  0  0  0  0  0  0  0
    0.0284    1.6862    0.4592 O   0  0  0  0  0  0  0  0  0  0  0  0
   -4.7354   -2.1974   -0.3228 O   0  0  0  0  0  0  0  0  0  0  0  0
    1.1626    2.1969   -1.4815 O   0  0  0  0  0  0  0  0  0  0  0  0
   -2.6884   -0.4520   -0.0307 N   0  0  0  0  0  0  0  0  0  0  0  0
   -4.2874    1.0368    0.6446 N   0  0  0  0  0  0  0  0  0  0  0  0
    0.3981   -0.6417   -1.8726 N   0  0  0  0  0  0  0  0  0  0  0  0
   -3.2802   -0.9915    1.1873 C   0  0  0  0  0  0  0  0  0  0  0  0
   -4.1049    0.1435    1.7670 C   0  0  0  0  0  0  0  0  0  0  0  0
   -1.0330   -0.3888   -1.8501 C   0  0  0  0  0  0  0  0  0  0  0  0
    1.0434   -0.1066   -0.6800 C   0  0  0  0  0  0  0  0  0  0  0  0
   -1.5809   -1.0757   -0.6272 C   0  0  0  0  0  0  0  0  0  0  0  0
   -3.3927    0.7525   -0.4078 C   0  0  0  0  0  0  0  0  0  0  0  0
    2.5595   -0.3600   -0.6921 C   0  0  0  0  0  0  0  0  0  0  0  0
   -1.7016   -0.9350   -3.0965 C   0  0  0  0  0  0  0  0  0  0  0  0
   -4.1662   -2.1235    0.7560 C   0  0  0  0  0  0  0  0  0  0  0  0
    3.3191    0.1474    0.5419 C   0  0  0  0  0  0  0  0  0  0  0  0
   -5.1531    2.1932    0.7224 C   0  0  0  0  0  0  0  0  0  0  0  0
    0.7761    1.3891   -0.6469 C   0  0  0  0  0  0  0  0  0  0  0  0
    4.7923   -0.1733    0.5232 C   0  0  0  0  0  0  0  0  0  0  0  0
    5.2381   -1.3627    1.0799 C   0  0  0  0  0  0  0  0  0  0  0  0
    5.6777    0.7269   -0.0505 C   0  0  0  0  0  0  0  0  0  0  0  0
   -0.3119    3.0667    0.6221 C   0  0  0  0  0  0  0  0  0  0  0  0
    6.6012   -1.6591    1.0621 C   0  0  0  0  0  0  0  0  0  0  0  0
    7.0407    0.4306   -0.0680 C   0  0  0  0  0  0  0  0  0  0  0  0
    7.5026   -0.7626    0.4879 C   0  0  0  0  0  0  0  0  0  0  0  0
   -1.1337    3.2264    1.8833 C   0  0  0  0  0  0  0  0  0  0  0  0
  1 14  2  0
  2 15  2  0
  3 18  1  0
  4 21  1  0
  4 25  1  0
  5 18  2  0
  6 21  2  0
  7 10  1  0
  7 14  1  0
  7 15  1  0
  8 11  1  0
  8 15  1  0
  8 20  1  0
  9 12  1  0
  9 13  1  0
 10 11  1  0
 10 18  1  0
 12 14  1  0
 12 17  1  0
 13 16  1  0
 13 21  1  0
 16 19  1  0
 19 22  1  0
 22 23  2  0
 22 24  1  0
 23 26  1  0
 24 27  2  0
 25 29  1  0
 26 28  2  0
 27 28  1  0
M  END
>  <PUBCHEM_COMPOUND_CID>  (1) 
3693

>  <PUBCHEM_CONFORMER_RMSD>  (1) 
1

>  <PUBCHEM_CONFORMER_DIVERSEORDER>  (1) 
8
137
67
131
94
219
170
100
63
267
176
62
241
259
159
192
49
256
262
189
76
276
33
289
58
1
110
293
64
184
254
109
158
268
105
237
113
126
171
132
99
88
53
29
82
201
290
34
234
86
140
173
51
46
243
24
141
93
124
83
160
221
283
252
122
206
85
216
77
10
217
185
150
169
302
13
74
279
280
125
147
205
16
108
89
162
19
166
179
138
79
129
191
5
72
286
253
255
278
151
180
235
42
97
152
78
60
111
214
119
84
230
204
44
81
248
142
298
182
114
91
178
165
161
37
133
70
27
167
275
250
177
157
40
155
52
116
213
194
186
18
269
164
274
96
121
61
2
299
43
107
199
209
50
301
168
20
236
218
134
227
56
11
135
153
264
277
39
117
31
282
15
112
257
284
154
28
104
183
9
190
291
23
263
144
265
47
32
246
128
3
68
224
55
239
115
210
197
285
260
136
195
196
80
261
211
12
296
6
238
45
198
181
21
232
57
223
297
272
143
127
288
75
215
245
226
212
101
207
130
244
187
242
156
193
69
4
35
71
172
233
208
48
294
25
203
251
54
139
123
273
266
231
146
148
295
59
66
22
292
73
188
118
271
247
103
145
249
175
202
300
229
90
87
174
225
222
36
281
14
120
258
17
38
98
65
270
240
220
163
26
102
92
106
228
30
200
149
287
95
41
7

>  <PUBCHEM_MMFF94_PARTIAL_CHARGES>  (1) 
33
1 -0.57
10 0.36
11 0.3
12 0.33
13 0.33
14 0.57
15 0.69
18 0.66
19 0.14
2 -0.57
20 0.3
21 0.66
22 -0.14
23 -0.15
24 -0.15
25 0.28
26 -0.15
27 -0.15
28 -0.15
3 -0.65
35 0.36
4 -0.43
46 0.5
47 0.15
48 0.15
5 -0.57
51 0.15
52 0.15
53 0.15
6 -0.57
7 -0.42
8 -0.66
9 -0.9

>  <PUBCHEM_EFFECTIVE_ROTOR_COUNT>  (1) 
11.8

>  <PUBCHEM_PHARMACOPHORE_FEATURES>  (1) 
10
1 1 acceptor
1 2 acceptor
1 3 acceptor
1 5 acceptor
1 6 acceptor
1 9 cation
1 9 donor
3 3 5 18 anion
5 7 8 10 11 15 rings
6 22 23 24 26 27 28 rings

>  <PUBCHEM_HEAVY_ATOM_COUNT>  (1) 
29

>  <PUBCHEM_ATOM_DEF_STEREO_COUNT>  (1) 
0

>  <PUBCHEM_ATOM_UDEF_STEREO_COUNT>  (1) 
3

>  <PUBCHEM_BOND_DEF_STEREO_COUNT>  (1) 
0

>  <PUBCHEM_BOND_UDEF_STEREO_COUNT>  (1) 
0

>  <PUBCHEM_ISOTOPIC_ATOM_COUNT>  (1) 
0

>  <PUBCHEM_COMPONENT_COUNT>  (1) 
1

>  <PUBCHEM_CACTVS_TAUTO_COUNT>  (1) 
1

>  <PUBCHEM_CONFORMER_ID>  (1) 
00000E6D00000008

>  <PUBCHEM_MMFF94_ENERGY>  (1) 
60.2659

>  <PUBCHEM_FEATURE_SELFOVERLAP>  (1) 
50.803

>  <PUBCHEM_SHAPE_FINGERPRINT>  (1) 
10675989 125 16827002062933075873
11089746 13 13039184802234672034
11578080 2 16055488128386914449
12422481 6 18059860541385396052
12596602 18 18334296479104276842
12633257 1 18198087913640646633
12788726 201 18202565043263642376
13103583 49 18334301958780965306
13782708 43 15936680481716251218
14856354 85 18259711102922257854
16110190 28 18260271841178310052
17780758 139 18408603647524553034
19958102 18 11530759268081431768
21033648 29 16558487330182950699
22950370 63 18113617894066004710
23522609 53 17605583031672353492
23559900 14 17823692165404977831
2838139 119 12535633773664689722
392239 28 18341341036606619120
4015057 19 15068918489814183924
5104073 3 18338242660068765040
57527573 199 18057053406595902617
6009941 240 18114458985415784165
7226269 152 18341046311640566865

>  <PUBCHEM_SHAPE_MULTIPOLES>  (1) 
546.65
15.62
2.94
1.94
28.01
1.28
-0.91
-4.52
6.81
-3.72
1.18
-1.69
-0.49
-0.54

>  <PUBCHEM_SHAPE_SELFOVERLAP>  (1) 
1130.859

>  <PUBCHEM_SHAPE_VOLUME>  (1) 
311.6

>  <PUBCHEM_COORDINATE_TYPE>  (1) 
2
5
10

$$$$
