36935
     RDKit          3D

  7  6  0  0  0  0  0  0  0  0999 V2000
   -0.8972    1.1476    1.3682 Cl  0  0  0  0  0  0  0  0  0  0  0  0
   -0.8907   -1.6673    0.6621 Cl  0  0  0  0  0  0  0  0  0  0  0  0
   -2.2762    0.2680   -1.0285 Cl  0  0  0  0  0  0  0  0  0  0  0  0
   -0.8395   -0.0074   -0.0007 C   0  0  0  0  0  0  0  0  0  0  0  0
    0.4212    0.2001   -0.7932 C   0  0  0  0  0  0  0  0  0  0  0  0
    1.6362    0.0860   -0.3320 C   0  0  0  0  0  0  0  0  0  0  0  0
    2.8462   -0.0269    0.1240 C   0  0  0  0  0  0  0  0  0  0  0  0
  1  4  1  0
  2  4  1  0
  3  4  1  0
  4  5  1  0
  5  6  2  0
  6  7  2  0
M  END
>  <PUBCHEM_COMPOUND_CID>  (1) 
36935

>  <PUBCHEM_CONFORMER_RMSD>  (1) 
0.4

>  <PUBCHEM_CONFORMER_DIVERSEORDER>  (1) 
1
2

>  <PUBCHEM_MMFF94_PARTIAL_CHARGES>  (1) 
10
1 -0.29
10 0.15
2 -0.29
3 -0.29
4 1.01
5 -0.22
6 -0.13
7 -0.24
8 0.15
9 0.15

>  <PUBCHEM_EFFECTIVE_ROTOR_COUNT>  (1) 
1

>  <PUBCHEM_PHARMACOPHORE_FEATURES>  (1) 
1
1 7 hydrophobe

>  <PUBCHEM_HEAVY_ATOM_COUNT>  (1) 
7

>  <PUBCHEM_ATOM_DEF_STEREO_COUNT>  (1) 
0

>  <PUBCHEM_ATOM_UDEF_STEREO_COUNT>  (1) 
0

>  <PUBCHEM_BOND_DEF_STEREO_COUNT>  (1) 
0

>  <PUBCHEM_BOND_UDEF_STEREO_COUNT>  (1) 
0

>  <PUBCHEM_ISOTOPIC_ATOM_COUNT>  (1) 
0

>  <PUBCHEM_COMPONENT_COUNT>  (1) 
1

>  <PUBCHEM_CACTVS_TAUTO_COUNT>  (1) 
1

>  <PUBCHEM_CONFORMER_ID>  (1) 
0000904700000001

>  <PUBCHEM_MMFF94_ENERGY>  (1) 
3.4572

>  <PUBCHEM_FEATURE_SELFOVERLAP>  (1) 
5.074

>  <PUBCHEM_SHAPE_FINGERPRINT>  (1) 
12932741 1 18339647840624560148
137420 1 10645630232193457777
16714656 1 17385434414884367839
20653085 51 17603587395986220693
21040471 1 17894625924756027486
24536 1 18198930104533715108
29004967 10 17203044187790183183
3248919 1 18342466932809246878
5943 1 7851841782528989307

>  <PUBCHEM_SHAPE_MULTIPOLES>  (1) 
149.67
3.25
1.27
1.24
2.05
0.29
-0.12
-0.1
0.61
-0.55
-0.62
-0.59
-0.17
0.01

>  <PUBCHEM_SHAPE_SELFOVERLAP>  (1) 
252.249

>  <PUBCHEM_SHAPE_VOLUME>  (1) 
101.9

>  <PUBCHEM_COORDINATE_TYPE>  (1) 
2
5
10

$$$$
