36933
     RDKit          3D

 20 22  0  0  0  0  0  0  0  0999 V2000
   -4.6098   -2.5045    0.2546 Br  0  0  0  0  0  0  0  0  0  0  0  0
    0.7214   -1.3969    0.6047 N   0  0  0  0  0  0  0  0  0  0  0  0
   -0.9991    2.3277   -0.2716 N   0  0  0  0  0  0  0  0  0  0  0  0
    0.9561    0.9835    0.1909 C   0  0  0  0  0  0  0  0  0  0  0  0
    2.4476    0.8461    0.3268 C   0  0  0  0  0  0  0  0  0  0  0  0
    3.1592    2.1845    0.5214 C   0  0  0  0  0  0  0  0  0  0  0  0
    2.6337    3.2184   -0.4677 C   0  0  0  0  0  0  0  0  0  0  0  0
    1.1451    3.4655   -0.2334 C   0  0  0  0  0  0  0  0  0  0  0  0
    0.3433    2.1961   -0.1156 C   0  0  0  0  0  0  0  0  0  0  0  0
    0.1351   -0.1382    0.3075 C   0  0  0  0  0  0  0  0  0  0  0  0
   -1.2512   -0.0283    0.1438 C   0  0  0  0  0  0  0  0  0  0  0  0
    2.1009   -1.6731    0.3789 C   0  0  0  0  0  0  0  0  0  0  0  0
   -1.7831    1.2413   -0.1480 C   0  0  0  0  0  0  0  0  0  0  0  0
    2.3405   -3.1458    0.0183 C   0  0  0  0  0  0  0  0  0  0  0  0
   -2.0988   -1.1432    0.2628 C   0  0  0  0  0  0  0  0  0  0  0  0
   -3.1614    1.3535   -0.3097 C   0  0  0  0  0  0  0  0  0  0  0  0
    1.5707   -3.5633   -1.2358 C   0  0  0  0  0  0  0  0  0  0  0  0
    3.8286   -3.4661   -0.1326 C   0  0  0  0  0  0  0  0  0  0  0  0
   -3.4735   -1.0040    0.0955 C   0  0  0  0  0  0  0  0  0  0  0  0
   -4.0053    0.2468   -0.1907 C   0  0  0  0  0  0  0  0  0  0  0  0
  1 19  1  0
  2 10  1  0
  2 12  1  0
  3  9  2  0
  3 13  1  0
  4  5  1  0
  4  9  1  0
  4 10  2  0
  5  6  1  0
  6  7  1  0
  7  8  1  0
  8  9  1  0
 10 11  1  0
 11 13  2  0
 11 15  1  0
 12 14  1  0
 13 16  1  0
 14 17  1  0
 14 18  1  0
 15 19  2  0
 16 20  2  0
 19 20  1  0
M  END
>  <PUBCHEM_COMPOUND_CID>  (1) 
36933

>  <PUBCHEM_CONFORMER_RMSD>  (1) 
0.6

>  <PUBCHEM_CONFORMER_DIVERSEORDER>  (1) 
1
2

>  <PUBCHEM_MMFF94_PARTIAL_CHARGES>  (1) 
18
1 -0.11
10 0.1
12 0.37
13 0.31
15 -0.15
16 -0.15
19 0.11
2 -0.87
20 -0.15
29 0.4
3 -0.62
33 0.15
34 0.15
4 -0.14
41 0.15
5 0.14
8 0.14
9 0.17

>  <PUBCHEM_EFFECTIVE_ROTOR_COUNT>  (1) 
3.8

>  <PUBCHEM_PHARMACOPHORE_FEATURES>  (1) 
8
1 1 hydrophobe
1 2 cation
1 2 donor
1 3 acceptor
3 14 17 18 hydrophobe
6 11 13 15 16 19 20 rings
6 3 4 9 10 11 13 rings
6 4 5 6 7 8 9 rings

>  <PUBCHEM_HEAVY_ATOM_COUNT>  (1) 
20

>  <PUBCHEM_ATOM_DEF_STEREO_COUNT>  (1) 
0

>  <PUBCHEM_ATOM_UDEF_STEREO_COUNT>  (1) 
0

>  <PUBCHEM_BOND_DEF_STEREO_COUNT>  (1) 
0

>  <PUBCHEM_BOND_UDEF_STEREO_COUNT>  (1) 
0

>  <PUBCHEM_ISOTOPIC_ATOM_COUNT>  (1) 
0

>  <PUBCHEM_COMPONENT_COUNT>  (1) 
1

>  <PUBCHEM_CACTVS_TAUTO_COUNT>  (1) 
5

>  <PUBCHEM_CONFORMER_ID>  (1) 
0000904500000001

>  <PUBCHEM_MMFF94_ENERGY>  (1) 
82.093

>  <PUBCHEM_FEATURE_SELFOVERLAP>  (1) 
40.65

>  <PUBCHEM_SHAPE_FINGERPRINT>  (1) 
10411042 1 18265614273546540051
10616163 171 18192711374341857819
10967382 1 18192428790994611369
1100329 8 17978793402756266329
11578080 2 16806985685481280542
11680986 33 18338790118191037937
12107183 9 18197794198212916531
12553582 1 17976252439884454003
12592029 89 18266745877100782539
12788726 201 17613445441400896098
12839892 36 18122890178042950290
13140716 1 18339364042012539739
138480 1 18410292467578540872
14178342 30 18411972572680195097
14790565 3 17761220216812337377
14863182 85 18118694454704127151
15042514 8 17399516122610772202
15196674 1 18190737733753577609
16945 1 18408604773033389777
17492 89 18410853283239892363
18681886 176 17975126849279131744
19591789 44 17978512262485687490
20028762 73 17623291984444356927
20101258 96 18122078510870875042
20645477 70 18263634212503592799
21197605 99 17398119730207742907
21267235 1 18118688957140843305
21524375 3 17973156524225203792
221490 88 18408326587843262027
2334 1 18336260159104773609
23366157 5 18186239528367162946
23419403 2 17970043592459324446
23557571 272 17552075092185341158
23559900 14 18339069406886736305
23566358 27 18337405880512423673
2748010 2 18048017589446326629
3060560 45 18121217838163604900
3091708 16 9360393721611732344
314173 41 18265900155238791635
352729 6 17830458636633464665
4280585 95 18192701251051583370
43471831 8 18266177416646356361
458136 41 18193294080902312713
474229 33 17975412739454874505
5104073 3 18191019204699072481
59755656 215 18263646332658689607
6138700 20 18410017633343917596
6438718 38 16762835139718248110
6669772 16 18126296478689297660
7364860 26 18411698776977869424
81228 2 17764590910865907202
9709674 26 18335138713401153715

>  <PUBCHEM_SHAPE_MULTIPOLES>  (1) 
407.57
7.1
5.16
0.77
6.65
3.05
-0.07
2.49
0.28
-5.85
-1.1
-0.13
0.25
0.51

>  <PUBCHEM_SHAPE_SELFOVERLAP>  (1) 
860.318

>  <PUBCHEM_SHAPE_VOLUME>  (1) 
234.4

>  <PUBCHEM_COORDINATE_TYPE>  (1) 
2
5
10

$$$$
