36930
     RDKit          3D

 20 22  0  0  0  0  0  0  0  0999 V2000
   -4.4469   -2.4985    0.2477 Cl  0  0  0  0  0  0  0  0  0  0  0  0
    0.7545   -1.3830    0.6059 N   0  0  0  0  0  0  0  0  0  0  0  0
   -1.0671    2.2926   -0.2720 N   0  0  0  0  0  0  0  0  0  0  0  0
    0.9243    1.0024    0.1901 C   0  0  0  0  0  0  0  0  0  0  0  0
    2.4190    0.9057    0.3251 C   0  0  0  0  0  0  0  0  0  0  0  0
    3.0941    2.2631    0.5182 C   0  0  0  0  0  0  0  0  0  0  0  0
    2.5400    3.2815   -0.4713 C   0  0  0  0  0  0  0  0  0  0  0  0
    1.0455    3.4883   -0.2361 C   0  0  0  0  0  0  0  0  0  0  0  0
    0.2785    2.1976   -0.1169 C   0  0  0  0  0  0  0  0  0  0  0  0
    0.1341   -0.1411    0.3081 C   0  0  0  0  0  0  0  0  0  0  0  0
   -1.2547   -0.0691    0.1453 C   0  0  0  0  0  0  0  0  0  0  0  0
    2.1411   -1.6219    0.3793 C   0  0  0  0  0  0  0  0  0  0  0  0
   -1.8212    1.1853   -0.1470 C   0  0  0  0  0  0  0  0  0  0  0  0
    2.4203   -3.0878    0.0196 C   0  0  0  0  0  0  0  0  0  0  0  0
   -2.0716   -1.2065    0.2657 C   0  0  0  0  0  0  0  0  0  0  0  0
   -3.2021    1.2600   -0.3079 C   0  0  0  0  0  0  0  0  0  0  0  0
    1.6612   -3.5271   -1.2337 C   0  0  0  0  0  0  0  0  0  0  0  0
    3.9164   -3.3678   -0.1321 C   0  0  0  0  0  0  0  0  0  0  0  0
   -3.4497   -1.1049    0.0993 C   0  0  0  0  0  0  0  0  0  0  0  0
   -4.0155    0.1308   -0.1874 C   0  0  0  0  0  0  0  0  0  0  0  0
  1 19  1  0
  2 10  1  0
  2 12  1  0
  3  9  2  0
  3 13  1  0
  4  5  1  0
  4  9  1  0
  4 10  2  0
  5  6  1  0
  6  7  1  0
  7  8  1  0
  8  9  1  0
 10 11  1  0
 11 13  2  0
 11 15  1  0
 12 14  1  0
 13 16  1  0
 14 17  1  0
 14 18  1  0
 15 19  2  0
 16 20  2  0
 19 20  1  0
M  END
>  <PUBCHEM_COMPOUND_CID>  (1) 
36930

>  <PUBCHEM_CONFORMER_RMSD>  (1) 
0.6

>  <PUBCHEM_CONFORMER_DIVERSEORDER>  (1) 
1
2

>  <PUBCHEM_MMFF94_PARTIAL_CHARGES>  (1) 
18
1 -0.18
10 0.1
12 0.37
13 0.31
15 -0.15
16 -0.15
19 0.18
2 -0.87
20 -0.15
29 0.4
3 -0.62
33 0.15
34 0.15
4 -0.14
41 0.15
5 0.14
8 0.14
9 0.17

>  <PUBCHEM_EFFECTIVE_ROTOR_COUNT>  (1) 
3.8

>  <PUBCHEM_PHARMACOPHORE_FEATURES>  (1) 
7
1 2 cation
1 2 donor
1 3 acceptor
3 14 17 18 hydrophobe
6 11 13 15 16 19 20 rings
6 3 4 9 10 11 13 rings
6 4 5 6 7 8 9 rings

>  <PUBCHEM_HEAVY_ATOM_COUNT>  (1) 
20

>  <PUBCHEM_ATOM_DEF_STEREO_COUNT>  (1) 
0

>  <PUBCHEM_ATOM_UDEF_STEREO_COUNT>  (1) 
0

>  <PUBCHEM_BOND_DEF_STEREO_COUNT>  (1) 
0

>  <PUBCHEM_BOND_UDEF_STEREO_COUNT>  (1) 
0

>  <PUBCHEM_ISOTOPIC_ATOM_COUNT>  (1) 
0

>  <PUBCHEM_COMPONENT_COUNT>  (1) 
1

>  <PUBCHEM_CACTVS_TAUTO_COUNT>  (1) 
5

>  <PUBCHEM_CONFORMER_ID>  (1) 
0000904200000001

>  <PUBCHEM_MMFF94_ENERGY>  (1) 
81.9151

>  <PUBCHEM_FEATURE_SELFOVERLAP>  (1) 
35.576

>  <PUBCHEM_SHAPE_FINGERPRINT>  (1) 
10411042 1 18265895752828747979
10616163 171 18120372309611637027
10967382 1 18192428799595101961
1100329 8 17979074877701341465
11578080 2 16806984590290987310
11680986 33 18338790122459650969
116883 192 18052252890987526748
12107183 9 18197794202502615563
12553582 1 18048028567535612379
12592029 89 18194688287341984659
12788726 201 17685784514726332714
12839892 36 18122890182353728842
13140716 1 18339082571325593099
138480 1 18410292471878808904
14790565 3 17761221312008028785
14863182 85 18046636869256146791
15042514 8 17327458532862523818
15196674 1 18190737738043270145
15475509 8 17481153297821751021
16945 1 18408604781644397377
17492 89 18410853291824565195
18681886 176 17975125754083583280
19591789 44 17978512266791197802
20028762 73 17407122526725067391
20101258 96 18122078515202739618
20510252 161 17044572345925894168
20645477 70 18263914592258368247
20905425 154 18339646633680890244
21197605 99 17325780665477528627
21267235 1 18118407486464368209
21524375 3 17901097839270863920
221490 88 18408326592111836091
2334 1 18336260167705231729
23366157 5 18186239532662104258
23419403 2 17970325071709883910
23557571 272 17552075100785805766
23559900 14 18339069411155336337
23566358 27 18337125509326529305
2748010 2 18048017598046797717
3060560 45 18121217842479690700
3091708 16 9359831866869696760
314173 41 18265899060006293907
352729 6 17830458645218111513
4280585 95 18192701255367623690
43471831 8 18266177420936055409
458136 41 18193295189024948097
474229 33 17903354050179193569
5104073 3 18190737734022590881
59755656 215 18263646336953617943
6138700 20 18410017641933904156
6438718 38 16762836243514274206
6669772 16 18054238888977998524
7364860 26 18411418418676805456
81228 2 17764590919440011050
9709674 26 18335137622458374515

>  <PUBCHEM_SHAPE_MULTIPOLES>  (1) 
403.5
6.88
5.12
0.77
5.49
1.83
-0.08
3.36
0.16
-5.8
-1.04
-0.17
0.23
0.57

>  <PUBCHEM_SHAPE_SELFOVERLAP>  (1) 
857.789

>  <PUBCHEM_SHAPE_VOLUME>  (1) 
226.4

>  <PUBCHEM_COORDINATE_TYPE>  (1) 
2
5
10

$$$$
