36931
     RDKit          3D

 20 22  0  0  0  0  0  0  0  0999 V2000
   -5.0750    0.5803    0.2929 Br  0  0  0  0  0  0  0  0  0  0  0  0
   -0.0465   -1.5148    0.6016 N   0  0  0  0  0  0  0  0  0  0  0  0
    0.6281    2.5262   -0.3006 N   0  0  0  0  0  0  0  0  0  0  0  0
    1.4873    0.3148    0.1631 C   0  0  0  0  0  0  0  0  0  0  0  0
    2.6416   -0.6405    0.2916 C   0  0  0  0  0  0  0  0  0  0  0  0
    3.9866    0.0630    0.4695 C   0  0  0  0  0  0  0  0  0  0  0  0
    4.1268    1.2083   -0.5263 C   0  0  0  0  0  0  0  0  0  0  0  0
    3.0405    2.2543   -0.2857 C   0  0  0  0  0  0  0  0  0  0  0  0
    1.6631    1.6601   -0.1513 C   0  0  0  0  0  0  0  0  0  0  0  0
    0.1774   -0.1466    0.2954 C   0  0  0  0  0  0  0  0  0  0  0  0
   -0.9062    0.7263    0.1388 C   0  0  0  0  0  0  0  0  0  0  0  0
   -0.6311    2.0732   -0.1620 C   0  0  0  0  0  0  0  0  0  0  0  0
    0.9335   -2.5232    0.3705 C   0  0  0  0  0  0  0  0  0  0  0  0
    0.2958   -3.9099    0.3789 C   0  0  0  0  0  0  0  0  0  0  0  0
   -2.2339    0.2855    0.2730 C   0  0  0  0  0  0  0  0  0  0  0  0
   -1.7067    2.9434   -0.3169 C   0  0  0  0  0  0  0  0  0  0  0  0
   -0.7470   -4.0867   -0.7278 C   0  0  0  0  0  0  0  0  0  0  0  0
   -3.2915    1.1760    0.1125 C   0  0  0  0  0  0  0  0  0  0  0  0
   -3.0270    2.5073   -0.1826 C   0  0  0  0  0  0  0  0  0  0  0  0
   -1.3157   -5.4971   -0.7346 C   0  0  0  0  0  0  0  0  0  0  0  0
  1 18  1  0
  2 10  1  0
  2 13  1  0
  3  9  2  0
  3 12  1  0
  4  5  1  0
  4  9  1  0
  4 10  2  0
  5  6  1  0
  6  7  1  0
  7  8  1  0
  8  9  1  0
 10 11  1  0
 11 12  2  0
 11 15  1  0
 12 16  1  0
 13 14  1  0
 14 17  1  0
 15 18  2  0
 16 19  2  0
 17 20  1  0
 18 19  1  0
M  END
>  <PUBCHEM_COMPOUND_CID>  (1) 
36931

>  <PUBCHEM_CONFORMER_RMSD>  (1) 
0.6

>  <PUBCHEM_CONFORMER_DIVERSEORDER>  (1) 
1
8
4
6
10
3
2
9
11
7
12
5

>  <PUBCHEM_MMFF94_PARTIAL_CHARGES>  (1) 
18
1 -0.11
10 0.1
12 0.31
13 0.37
15 -0.15
16 -0.15
18 0.11
19 -0.15
2 -0.87
29 0.4
3 -0.62
34 0.15
35 0.15
38 0.15
4 -0.14
5 0.14
8 0.14
9 0.17

>  <PUBCHEM_EFFECTIVE_ROTOR_COUNT>  (1) 
4.8

>  <PUBCHEM_PHARMACOPHORE_FEATURES>  (1) 
8
1 1 hydrophobe
1 2 cation
1 2 donor
1 20 hydrophobe
1 3 acceptor
6 11 12 15 16 18 19 rings
6 3 4 9 10 11 12 rings
6 4 5 6 7 8 9 rings

>  <PUBCHEM_HEAVY_ATOM_COUNT>  (1) 
20

>  <PUBCHEM_ATOM_DEF_STEREO_COUNT>  (1) 
0

>  <PUBCHEM_ATOM_UDEF_STEREO_COUNT>  (1) 
0

>  <PUBCHEM_BOND_DEF_STEREO_COUNT>  (1) 
0

>  <PUBCHEM_BOND_UDEF_STEREO_COUNT>  (1) 
0

>  <PUBCHEM_ISOTOPIC_ATOM_COUNT>  (1) 
0

>  <PUBCHEM_COMPONENT_COUNT>  (1) 
1

>  <PUBCHEM_CACTVS_TAUTO_COUNT>  (1) 
5

>  <PUBCHEM_CONFORMER_ID>  (1) 
0000904300000001

>  <PUBCHEM_MMFF94_ENERGY>  (1) 
75.6435

>  <PUBCHEM_FEATURE_SELFOVERLAP>  (1) 
40.65

>  <PUBCHEM_SHAPE_FINGERPRINT>  (1) 
10411042 1 16825307707213738603
10616163 171 18335985268492230385
10967382 1 18335984173006836776
1100329 8 18122342642890853033
116883 192 17691691503275152574
12553582 1 16679503664718862195
12788726 201 17614836740474522290
12839892 36 18193257625124731626
13140716 1 18336263543396565425
138480 1 17545883728585538307
14178342 30 17978218370959471960
14790565 3 18410302436335538489
14863182 85 18264502710408758527
14866123 147 18411128161125756930
15042514 8 18265053711758101930
15196674 1 18262519186805616784
16087824 20 18121782992221784511
16728300 4 17244960676766947626
16945 1 17975978665699975088
17138139 8 17700098245376260839
18681886 176 18334011684044733528
19591789 44 18410294692018139866
20028762 73 18272085024351690175
20642791 13 17691119761766314864
20645477 70 18189610545641122925
21267235 1 18335148552738647072
21478907 32 17906451382940703138
21524375 3 18259985959549407576
221490 88 17975139742743625715
2334 1 18263648526975599113
23366157 5 17609224454683778624
23419403 2 12341523701336745564
23558518 356 17829889094200902872
23559900 14 17761483699506062776
25147074 1 17896873464980565344
2748010 2 18334587849137452600
3091708 16 9194939207516375978
314173 41 17328306840596474835
352729 6 18335430083481062072
43471831 8 18264206924353227536
474229 33 18335141994407767817
5104073 3 18262800653319143737
6138700 20 17977108955865254070
6438718 38 17843968267295372199
7164475 11 17905890628137037246
7364860 26 17977664208429555264
81228 2 17760642968347941530
9709674 26 18045786685117476497

>  <PUBCHEM_SHAPE_MULTIPOLES>  (1) 
407.57
6.68
6
0.76
3.2
11.99
-0.02
-4.89
0.38
0.36
-1.75
-0.03
0.25
-0.44

>  <PUBCHEM_SHAPE_SELFOVERLAP>  (1) 
857.854

>  <PUBCHEM_SHAPE_VOLUME>  (1) 
234.4

>  <PUBCHEM_COORDINATE_TYPE>  (1) 
2
5
10

$$$$
