36943
     RDKit          3D

 19 21  0  0  0  0  0  0  0  0999 V2000
   -4.0593    0.6724   -0.1216 O   0  0  0  0  0  0  0  0  0  0  0  0
   -3.7265   -1.6918    0.1961 O   0  0  0  0  0  0  0  0  0  0  0  0
    1.3529   -2.4738    0.2367 O   0  0  0  0  0  0  0  0  0  0  0  0
    4.0477   -1.8740   -0.4205 O   0  0  0  0  0  0  0  0  0  0  0  0
    0.7803    1.5321   -0.3014 N   0  0  0  0  0  0  0  0  0  0  0  0
   -0.3648    0.7084   -0.1742 C   0  0  0  0  0  0  0  0  0  0  0  0
   -0.1970   -0.6955    0.0150 C   0  0  0  0  0  0  0  0  0  0  0  0
   -1.6798    1.2114   -0.2261 C   0  0  0  0  0  0  0  0  0  0  0  0
    0.5939    2.9682   -0.4948 C   0  0  0  0  0  0  0  0  0  0  0  0
   -2.7405    0.3341   -0.0928 C   0  0  0  0  0  0  0  0  0  0  0  0
    2.0388    0.9625   -0.2400 C   0  0  0  0  0  0  0  0  0  0  0  0
   -2.5521   -1.0132    0.0884 C   0  0  0  0  0  0  0  0  0  0  0  0
   -1.2919   -1.5637    0.1473 C   0  0  0  0  0  0  0  0  0  0  0  0
    1.1722   -1.2731    0.0762 C   0  0  0  0  0  0  0  0  0  0  0  0
    2.3117   -0.3352   -0.0662 C   0  0  0  0  0  0  0  0  0  0  0  0
    0.5455    3.6740    0.8467 C   0  0  0  0  0  0  0  0  0  0  0  0
   -4.6783   -0.6170    0.0618 C   0  0  0  0  0  0  0  0  0  0  0  0
    3.7138   -0.7531   -0.0274 C   0  0  0  0  0  0  0  0  0  0  0  0
    4.7335    0.2273    0.4967 C   0  0  0  0  0  0  0  0  0  0  0  0
  1 10  1  0
  1 17  1  0
  2 12  1  0
  2 17  1  0
  3 14  2  0
  4 18  2  0
  5  6  1  0
  5  9  1  0
  5 11  1  0
  6  7  2  0
  6  8  1  0
  7 13  1  0
  7 14  1  0
  8 10  2  0
  9 16  1  0
 10 12  1  0
 11 15  2  0
 12 13  2  0
 14 15  1  0
 15 18  1  0
 18 19  1  0
M  END
>  <PUBCHEM_COMPOUND_CID>  (1) 
36943

>  <PUBCHEM_CONFORMER_RMSD>  (1) 
0.6

>  <PUBCHEM_CONFORMER_DIVERSEORDER>  (1) 
1
3
4
2

>  <PUBCHEM_MMFF94_PARTIAL_CHARGES>  (1) 
21
1 -0.36
10 0.08
11 -0.05
12 0.08
13 -0.15
14 0.47
15 0.03
17 0.56
18 0.49
19 0.06
2 -0.36
20 0.15
23 0.15
24 0.15
3 -0.57
4 -0.57
5 -0.57
6 0.1
7 0.09
8 -0.15
9 0.37

>  <PUBCHEM_EFFECTIVE_ROTOR_COUNT>  (1) 
2.6

>  <PUBCHEM_PHARMACOPHORE_FEATURES>  (1) 
9
1 1 acceptor
1 15 anion
1 2 acceptor
1 3 acceptor
1 4 acceptor
1 5 cation
5 1 2 10 12 17 rings
6 5 6 7 11 14 15 rings
6 6 7 8 10 12 13 rings

>  <PUBCHEM_HEAVY_ATOM_COUNT>  (1) 
19

>  <PUBCHEM_ATOM_DEF_STEREO_COUNT>  (1) 
0

>  <PUBCHEM_ATOM_UDEF_STEREO_COUNT>  (1) 
0

>  <PUBCHEM_BOND_DEF_STEREO_COUNT>  (1) 
0

>  <PUBCHEM_BOND_UDEF_STEREO_COUNT>  (1) 
0

>  <PUBCHEM_ISOTOPIC_ATOM_COUNT>  (1) 
0

>  <PUBCHEM_COMPONENT_COUNT>  (1) 
1

>  <PUBCHEM_CACTVS_TAUTO_COUNT>  (1) 
2

>  <PUBCHEM_CONFORMER_ID>  (1) 
0000904F00000001

>  <PUBCHEM_MMFF94_ENERGY>  (1) 
54.1128

>  <PUBCHEM_FEATURE_SELFOVERLAP>  (1) 
45.852

>  <PUBCHEM_SHAPE_FINGERPRINT>  (1) 
108231 29 18410012143531824360
10967382 1 18337673126040839046
11132069 177 18408038502916826082
11471102 20 18408881875817263111
11680986 33 18119250816019324385
11806522 49 18409448119646765871
12032990 46 18410296886989294166
12403259 226 18335698386294170757
12954195 1 17910971149489231222
13027679 85 18410571756338283437
13132413 78 18413108333831786461
13140716 1 18121222236405372891
13221675 6 18408322185475273263
138480 1 18338517546492043445
13862211 1 18408598158541069842
14115302 16 17676217895675039999
14787075 74 18261393399142196204
14790565 3 18120945159618371044
14866123 147 17620480107846204299
15196674 1 18409167696937010214
15442244 35 18411422829951382641
15536298 74 18341332287647466792
16945 1 18409729599276958023
17804303 29 18335706069827009565
18522853 276 18411699889390216883
18785283 64 18044948010763957881
193761 8 17761212519919420806
200 152 18201995543400516343
20510252 161 18268707221583381128
20645477 70 18190454051442816511
20671657 1 18196376042112532637
21029758 11 18411696578107854485
21267235 1 18409176497298931207
21296965 67 18410573972477870660
221490 88 18190749832628698467
2297311 6 18341340998716862702
2334 1 18120377819737965220
23366157 5 17825101768923364148
23402539 116 18342448227604628878
23463225 33 18335139786894609470
23557571 272 18269281170942454614
23558518 356 17758688749949835730
23559900 14 18339355395969377889
2748010 2 18410002265270645308
3091708 16 9139455669041336352
3286 77 18262798596250451511
335352 9 18409167693185160893
34934 24 18337101272652114959
350125 39 18120941869514348067
352729 6 16822491372202799229
5104073 3 18410573950913331834
537710 114 18334863839810009716
7364860 26 18268429229345235800
7471813 234 17917700340887242285
81228 2 18120110389626332192
84936 182 17912650408197432497
8809292 202 18113906000050662763
9709674 26 18191307285198197099
9981440 41 17259051321518746769

>  <PUBCHEM_SHAPE_MULTIPOLES>  (1) 
362.55
7.6
3.03
0.69
0.88
2.63
-0.03
-3.38
-0.34
-1.1
-0.35
-0.13
0.19
0.28

>  <PUBCHEM_SHAPE_SELFOVERLAP>  (1) 
797.852

>  <PUBCHEM_SHAPE_VOLUME>  (1) 
194.9

>  <PUBCHEM_COORDINATE_TYPE>  (1) 
2
5
10

$$$$
