36945
     RDKit          3D

 18 17  0  0  1  0  0  0  0  0999 V2000
   -0.5932    2.2832    0.5642 F   0  0  0  0  0  0  0  0  0  0  0  0
   -1.6494    0.8672    1.8271 F   0  0  0  0  0  0  0  0  0  0  0  0
   -2.7265    1.9648    0.2822 F   0  0  0  0  0  0  0  0  0  0  0  0
   -2.5791   -1.4545    0.5933 F   0  0  0  0  0  0  0  0  0  0  0  0
   -3.5925   -0.0838   -0.7618 F   0  0  0  0  0  0  0  0  0  0  0  0
   -2.2714   -1.6284   -1.5531 F   0  0  0  0  0  0  0  0  0  0  0  0
   -1.1287    0.8561   -1.7325 O   0  0  0  0  0  0  0  0  0  0  0  0
    0.1922   -2.4223    1.3137 O   0  0  0  0  0  0  0  0  0  0  0  0
    0.0844   -0.5270   -0.1846 C   0  0  0  0  0  0  0  0  0  0  0  0
   -1.2505    0.2314   -0.4443 C   0  0  0  0  0  0  0  0  0  0  0  0
    1.3440    0.3550   -0.3148 C   0  0  0  0  0  0  0  0  0  0  0  0
    2.6399   -0.4566   -0.1778 C   0  0  0  0  0  0  0  0  0  0  0  0
   -1.5640    1.3390    0.5649 C   0  0  0  0  0  0  0  0  0  0  0  0
   -2.4309   -0.7417   -0.5471 C   0  0  0  0  0  0  0  0  0  0  0  0
    3.8718    0.4466   -0.2694 C   0  0  0  0  0  0  0  0  0  0  0  0
    0.1014   -1.2063    1.1720 C   0  0  0  0  0  0  0  0  0  0  0  0
    5.1624   -0.3555   -0.1045 C   0  0  0  0  0  0  0  0  0  0  0  0
    6.3900    0.5328   -0.2277 C   0  0  0  0  0  0  0  0  0  0  0  0
  1 13  1  0
  2 13  1  0
  3 13  1  0
  4 14  1  0
  5 14  1  0
  6 14  1  0
  7 10  1  0
  8 16  2  0
  9 10  1  0
  9 11  1  0
  9 16  1  0
 10 13  1  0
 10 14  1  0
 11 12  1  0
 12 15  1  0
 15 17  1  0
 17 18  1  0
M  END
>  <PUBCHEM_COMPOUND_CID>  (1) 
36945

>  <PUBCHEM_CONFORMER_RMSD>  (1) 
0.8

>  <PUBCHEM_CONFORMER_DIVERSEORDER>  (1) 
1
17
28
14
25
22
7
24
31
8
29
13
23
33
32
12
6
3
27
9
26
20
15
10
19
30
16
34
2
4
21
5
18
11

>  <PUBCHEM_MMFF94_PARTIAL_CHARGES>  (1) 
15
1 -0.34
10 0.28
13 1.02
14 1.02
16 0.45
2 -0.34
26 0.06
29 0.4
3 -0.34
4 -0.34
5 -0.34
6 -0.34
7 -0.68
8 -0.57
9 0.06

>  <PUBCHEM_EFFECTIVE_ROTOR_COUNT>  (1) 
8

>  <PUBCHEM_PHARMACOPHORE_FEATURES>  (1) 
5
1 18 hydrophobe
1 7 acceptor
1 7 donor
1 8 acceptor
5 9 11 12 15 17 hydrophobe

>  <PUBCHEM_HEAVY_ATOM_COUNT>  (1) 
18

>  <PUBCHEM_ATOM_DEF_STEREO_COUNT>  (1) 
0

>  <PUBCHEM_ATOM_UDEF_STEREO_COUNT>  (1) 
1

>  <PUBCHEM_BOND_DEF_STEREO_COUNT>  (1) 
0

>  <PUBCHEM_BOND_UDEF_STEREO_COUNT>  (1) 
0

>  <PUBCHEM_ISOTOPIC_ATOM_COUNT>  (1) 
0

>  <PUBCHEM_COMPONENT_COUNT>  (1) 
1

>  <PUBCHEM_CACTVS_TAUTO_COUNT>  (1) 
2

>  <PUBCHEM_CONFORMER_ID>  (1) 
0000905100000001

>  <PUBCHEM_MMFF94_ENERGY>  (1) 
26.1603

>  <PUBCHEM_FEATURE_SELFOVERLAP>  (1) 
25.371

>  <PUBCHEM_SHAPE_FINGERPRINT>  (1) 
10680689 15 16271923822934482900
11315181 36 18259987107096875204
13024252 1 11818994097602051541
14142880 1 18261112920128926373
15048467 5 16487266451914703307
15309172 13 17603592910993169378
15775835 57 18262237712018121572
16945 1 18201164346795316429
187816 3 18335978752742083566
19489759 90 18342454847029764682
200 152 18412258467346622894
20300324 65 18201719565844592964
20645477 70 17917438576079787262
21339142 149 18341058475219719826
2306618 200 17894911819481107916
23236772 104 18337108969307141675
23380061 127 18201718453463874764
23402539 116 18410006667728155462
23419403 2 17755033225863782769
23557571 272 17632864126806896956
23559900 14 18336541746431317224
9709674 26 18340778083160531678

>  <PUBCHEM_SHAPE_MULTIPOLES>  (1) 
315.05
8.62
1.82
1.25
18.01
0.1
-0.03
-1.07
1.39
-1.36
-0.57
-0.97
0.13
-0.52

>  <PUBCHEM_SHAPE_SELFOVERLAP>  (1) 
626.204

>  <PUBCHEM_SHAPE_VOLUME>  (1) 
186.8

>  <PUBCHEM_COORDINATE_TYPE>  (1) 
2
5
10

$$$$
