36941
     RDKit          3D

 19 20  0  0  0  0  0  0  0  0999 V2000
   -1.1320    1.8753    0.5877 S   0  0  0  0  0  0  0  0  0  0  0  0
   -2.0185    2.1347    1.7068 O   0  0  0  0  0  0  0  0  0  0  0  0
   -0.9662    2.8774   -0.4475 O   0  0  0  0  0  0  0  0  0  0  0  0
    1.0902   -2.6880    1.1432 O   0  0  0  0  0  0  0  0  0  0  0  0
    0.8085   -0.9717    2.6065 O   0  0  0  0  0  0  0  0  0  0  0  0
    0.4049    1.3919    1.1937 N   0  0  0  0  0  0  0  0  0  0  0  0
   -1.7036    0.3893   -0.1854 C   0  0  0  0  0  0  0  0  0  0  0  0
    1.3407    0.7907    0.2938 C   0  0  0  0  0  0  0  0  0  0  0  0
    1.7143   -0.5459    0.4334 C   0  0  0  0  0  0  0  0  0  0  0  0
    1.8803    1.5619   -0.7357 C   0  0  0  0  0  0  0  0  0  0  0  0
   -2.4375   -0.5170    0.5579 C   0  0  0  0  0  0  0  0  0  0  0  0
   -1.4036    0.1643   -1.5166 C   0  0  0  0  0  0  0  0  0  0  0  0
    2.6276   -1.1114   -0.4564 C   0  0  0  0  0  0  0  0  0  0  0  0
    2.7936    0.9964   -1.6256 C   0  0  0  0  0  0  0  0  0  0  0  0
   -2.8869   -1.6889   -0.0507 C   0  0  0  0  0  0  0  0  0  0  0  0
   -1.8530   -1.0075   -2.1253 C   0  0  0  0  0  0  0  0  0  0  0  0
    3.1672   -0.3402   -1.4859 C   0  0  0  0  0  0  0  0  0  0  0  0
   -2.5947   -1.9341   -1.3925 C   0  0  0  0  0  0  0  0  0  0  0  0
    1.1687   -1.3774    1.4985 C   0  0  0  0  0  0  0  0  0  0  0  0
  1  2  2  0
  1  3  2  0
  1  6  1  0
  1  7  1  0
  4 19  1  0
  5 19  2  0
  6  8  1  0
  7 11  2  0
  7 12  1  0
  8  9  2  0
  8 10  1  0
  9 13  1  0
  9 19  1  0
 10 14  2  0
 11 15  1  0
 12 16  2  0
 13 17  2  0
 14 17  1  0
 15 18  2  0
 16 18  1  0
M  END
>  <PUBCHEM_COMPOUND_CID>  (1) 
36941

>  <PUBCHEM_CONFORMER_RMSD>  (1) 
0.6

>  <PUBCHEM_CONFORMER_DIVERSEORDER>  (1) 
1
13
6
22
19
4
10
15
2
26
28
14
3
24
29
9
20
23
21
8
30
27
12
18
11
25
16
17
7
5

>  <PUBCHEM_MMFF94_PARTIAL_CHARGES>  (1) 
30
1 1.45
10 -0.15
11 -0.15
12 -0.15
13 -0.15
14 -0.15
15 -0.15
16 -0.15
17 -0.15
18 -0.15
19 0.63
2 -0.65
20 0.42
21 0.15
22 0.15
23 0.15
24 0.15
25 0.15
26 0.15
27 0.15
28 0.15
29 0.15
3 -0.65
30 0.5
4 -0.65
5 -0.57
6 -0.76
7 -0.01
8 0.2
9 0.09

>  <PUBCHEM_EFFECTIVE_ROTOR_COUNT>  (1) 
4

>  <PUBCHEM_PHARMACOPHORE_FEATURES>  (1) 
8
1 2 acceptor
1 3 acceptor
1 4 acceptor
1 5 acceptor
1 6 donor
3 4 5 19 anion
6 7 11 12 15 16 18 rings
6 8 9 10 13 14 17 rings

>  <PUBCHEM_HEAVY_ATOM_COUNT>  (1) 
19

>  <PUBCHEM_ATOM_DEF_STEREO_COUNT>  (1) 
0

>  <PUBCHEM_ATOM_UDEF_STEREO_COUNT>  (1) 
0

>  <PUBCHEM_BOND_DEF_STEREO_COUNT>  (1) 
0

>  <PUBCHEM_BOND_UDEF_STEREO_COUNT>  (1) 
0

>  <PUBCHEM_ISOTOPIC_ATOM_COUNT>  (1) 
0

>  <PUBCHEM_COMPONENT_COUNT>  (1) 
1

>  <PUBCHEM_CACTVS_TAUTO_COUNT>  (1) 
2

>  <PUBCHEM_CONFORMER_ID>  (1) 
0000904D00000001

>  <PUBCHEM_MMFF94_ENERGY>  (1) 
48.0695

>  <PUBCHEM_FEATURE_SELFOVERLAP>  (1) 
40.673

>  <PUBCHEM_SHAPE_FINGERPRINT>  (1) 
11067466 332 17827051181543222027
11578080 2 18120341359930297612
121448 382 18187085104781105408
12202030 40 16486966302077187734
12326174 3 17622129757830185761
12633257 1 13038079912791170023
13299463 15 17675921010334201903
13464513 79 16592539399080814491
13538477 17 18339645533895033469
13544592 271 17476080606216225096
13898156 1 18266732489703544864
14817 1 14435321181448725306
15375462 175 17916869006658154317
15852999 172 12685079406574457555
16752209 62 18129372714502474229
16945 1 18046643217144054480
17349148 13 18261118508777774556
17357779 13 16888089288093882203
17492 54 15433990610683975439
18981168 100 12036291546740321349
20645476 183 18048323245188887333
20645477 70 17263540602310734431
20905425 154 15744409281686807471
21634736 98 18340220673234634124
21731516 1 18272926154651171463
22112679 90 18192144902620580042
23402539 116 18335986479952875228
23419403 2 16962696640979690172
23559900 14 17201363954584238614
238 59 17240472628614813942
34934 24 18272372031140750121
5845 1 16673921989734959584
68419 9 18264479598936628488
81228 2 17845070931877477441
90525 40 18125733291800427101

>  <PUBCHEM_SHAPE_MULTIPOLES>  (1) 
366.4
4.55
2.63
2.09
0.32
0.85
0.35
-1.53
-1.94
-0.86
0.57
0.23
-0.56
-1.16

>  <PUBCHEM_SHAPE_SELFOVERLAP>  (1) 
776.622

>  <PUBCHEM_SHAPE_VOLUME>  (1) 
203.7

>  <PUBCHEM_COORDINATE_TYPE>  (1) 
2
5
10

$$$$
