36949
     RDKit          3D

 17 16  0  0  1  0  0  0  0  0999 V2000
   -0.5328   -2.2720    0.0770 F   0  0  0  0  0  0  0  0  0  0  0  0
   -2.6175   -1.6750    0.1732 F   0  0  0  0  0  0  0  0  0  0  0  0
   -1.4510   -1.2550   -1.6200 F   0  0  0  0  0  0  0  0  0  0  0  0
   -2.0676    1.3319   -1.3967 F   0  0  0  0  0  0  0  0  0  0  0  0
   -3.2725    0.7654    0.3300 F   0  0  0  0  0  0  0  0  0  0  0  0
   -1.7489    2.3127    0.5209 F   0  0  0  0  0  0  0  0  0  0  0  0
    1.6332   -0.6253    1.5864 O   0  0  0  0  0  0  0  0  0  0  0  0
   -0.9886   -0.0486    1.7337 O   0  0  0  0  0  0  0  0  0  0  0  0
    3.0016    0.1930   -0.2497 C   0  0  0  0  0  0  0  0  0  0  0  0
    1.6088   -0.3741    0.1806 C   0  0  0  0  0  0  0  0  0  0  0  0
    0.4056    0.5321   -0.1639 C   0  0  0  0  0  0  0  0  0  0  0  0
   -0.9953    0.0599    0.3092 C   0  0  0  0  0  0  0  0  0  0  0  0
    3.0987    0.3899   -1.7746 C   0  0  0  0  0  0  0  0  0  0  0  0
    4.1414   -0.7363    0.2063 C   0  0  0  0  0  0  0  0  0  0  0  0
    3.2122    1.5703    0.4190 C   0  0  0  0  0  0  0  0  0  0  0  0
   -1.3972   -1.2946   -0.2704 C   0  0  0  0  0  0  0  0  0  0  0  0
   -2.0300    1.1256   -0.0609 C   0  0  0  0  0  0  0  0  0  0  0  0
  1 16  1  0
  2 16  1  0
  3 16  1  0
  4 17  1  0
  5 17  1  0
  6 17  1  0
  7 10  1  0
  8 12  1  0
  9 10  1  0
  9 13  1  0
  9 14  1  0
  9 15  1  0
 10 11  1  0
 11 12  1  0
 12 16  1  0
 12 17  1  0
M  END
>  <PUBCHEM_COMPOUND_CID>  (1) 
36949

>  <PUBCHEM_CONFORMER_RMSD>  (1) 
0.6

>  <PUBCHEM_CONFORMER_DIVERSEORDER>  (1) 
1
4
6
5
3
2

>  <PUBCHEM_MMFF94_PARTIAL_CHARGES>  (1) 
14
1 -0.34
10 0.28
12 0.28
16 1.02
17 1.02
2 -0.34
3 -0.34
30 0.4
31 0.4
4 -0.34
5 -0.34
6 -0.34
7 -0.68
8 -0.68

>  <PUBCHEM_EFFECTIVE_ROTOR_COUNT>  (1) 
5

>  <PUBCHEM_PHARMACOPHORE_FEATURES>  (1) 
5
1 7 acceptor
1 7 donor
1 8 acceptor
1 8 donor
4 9 13 14 15 hydrophobe

>  <PUBCHEM_HEAVY_ATOM_COUNT>  (1) 
17

>  <PUBCHEM_ATOM_DEF_STEREO_COUNT>  (1) 
0

>  <PUBCHEM_ATOM_UDEF_STEREO_COUNT>  (1) 
1

>  <PUBCHEM_BOND_DEF_STEREO_COUNT>  (1) 
0

>  <PUBCHEM_BOND_UDEF_STEREO_COUNT>  (1) 
0

>  <PUBCHEM_ISOTOPIC_ATOM_COUNT>  (1) 
0

>  <PUBCHEM_COMPONENT_COUNT>  (1) 
1

>  <PUBCHEM_CACTVS_TAUTO_COUNT>  (1) 
1

>  <PUBCHEM_CONFORMER_ID>  (1) 
0000905500000001

>  <PUBCHEM_MMFF94_ENERGY>  (1) 
40.7694

>  <PUBCHEM_FEATURE_SELFOVERLAP>  (1) 
25.386

>  <PUBCHEM_SHAPE_FINGERPRINT>  (1) 
10922523 26 18188494571282167902
12173636 292 18412825776475747133
12491281 212 18335427820260156808
12716758 59 18342174462294317216
12932764 1 18339375140345195328
13024252 1 16443066110295241353
13296908 3 18271807960247843560
13538477 17 18334003982582166314
13581323 91 18411982446941344174
15309172 13 18340780242964247961
15342168 16 15937844979718859700
15775835 57 18261116261887347172
16945 1 18341603772867876649
18186145 218 17631458864620147769
19422 9 18113344123907409534
19868273 293 18410017619683588164
20279233 1 16558750113925965950
20510252 161 18271247217496136673
20525323 117 18339917242195039452
20645476 183 18187078408515848651
20645477 56 18412545409859165568
20871998 184 18201726201326595887
21296965 12 17824258203113155709
21524375 3 18044940065116716761
22802520 49 17988094309074928948
23236772 104 18187364388770548840
23402539 116 18201427035211008797
23557571 272 18129388262178590608
23559900 14 18201435849607324850
2748010 2 18127116687955575641
3248919 1 17131841958354421592
58051976 100 18409453574656268902
6333449 129 18412260653231794652
69090 78 18412539899183710797
74978 22 18413390925911177792
77492 1 17967252005271346942
8030462 33 18041000682726606026
81228 2 18192711361172022011
93112 12 18413671305687013300

>  <PUBCHEM_SHAPE_MULTIPOLES>  (1) 
294.47
5.81
1.82
1.32
3.66
0
0.2
-0.65
0.45
-1.04
0
0.26
0.01
-0.21

>  <PUBCHEM_SHAPE_SELFOVERLAP>  (1) 
590.424

>  <PUBCHEM_SHAPE_VOLUME>  (1) 
174.5

>  <PUBCHEM_COORDINATE_TYPE>  (1) 
2
5
10

$$$$
