36946
     RDKit          3D

 17 16  0  0  1  0  0  0  0  0999 V2000
    0.4115   -1.8413    1.4350 Cl  0  0  0  0  0  0  0  0  0  0  0  0
    1.7879   -2.0186   -0.7158 F   0  0  0  0  0  0  0  0  0  0  0  0
   -0.2914   -1.4760   -0.9936 F   0  0  0  0  0  0  0  0  0  0  0  0
    2.4223    0.3044    1.7752 F   0  0  0  0  0  0  0  0  0  0  0  0
    2.9481    1.7651    0.2478 F   0  0  0  0  0  0  0  0  0  0  0  0
    3.5053   -0.3270   -0.0028 F   0  0  0  0  0  0  0  0  0  0  0  0
    1.4144    0.5576   -1.6418 O   0  0  0  0  0  0  0  0  0  0  0  0
   -1.4418    1.1690   -1.5203 O   0  0  0  0  0  0  0  0  0  0  0  0
    1.1919    0.2316   -0.2618 C   0  0  0  0  0  0  0  0  0  0  0  0
    0.1319    1.2036    0.3006 C   0  0  0  0  0  0  0  0  0  0  0  0
    0.7883   -1.2547   -0.1977 C   0  0  0  0  0  0  0  0  0  0  0  0
    2.5289    0.4944    0.4391 C   0  0  0  0  0  0  0  0  0  0  0  0
   -1.2508    1.0494   -0.3129 C   0  0  0  0  0  0  0  0  0  0  0  0
   -2.3704    0.7925    0.6367 C   0  0  0  0  0  0  0  0  0  0  0  0
   -3.4716    0.0745    0.3545 C   0  0  0  0  0  0  0  0  0  0  0  0
   -4.5474   -0.0876    1.3966 C   0  0  0  0  0  0  0  0  0  0  0  0
   -3.7571   -0.6371   -0.9385 C   0  0  0  0  0  0  0  0  0  0  0  0
  1 11  1  0
  2 11  1  0
  3 11  1  0
  4 12  1  0
  5 12  1  0
  6 12  1  0
  7  9  1  0
  8 13  2  0
  9 10  1  0
  9 11  1  0
  9 12  1  0
 10 13  1  0
 13 14  1  0
 14 15  2  3
 15 16  1  0
 15 17  1  0
M  END
>  <PUBCHEM_COMPOUND_CID>  (1) 
36946

>  <PUBCHEM_CONFORMER_RMSD>  (1) 
0.6

>  <PUBCHEM_CONFORMER_DIVERSEORDER>  (1) 
1
140
70
124
128
69
78
91
120
116
115
119
114
89
100
31
49
123
23
130
88
129
83
36
59
125
62
18
110
97
82
57
68
39
131
37
38
71
101
108
53
112
90
6
126
20
134
21
65
107
111
35
132
117
87
113
139
5
122
96
73
135
63
136
93
99
50
61
4
64
51
76
80
102
81
56
66
60
75
118
24
8
121
55
137
67
85
74
127
12
52
2
138
103
95
133
44
106
48
84
17
28
47
41
42
19
105
16
109
79
43
98
72
92
86
77
22
94
14
40
10
104
15
9
25
46
30
58
13
26
45
27
33
7
11
3
32
34
54
29

>  <PUBCHEM_MMFF94_PARTIAL_CHARGES>  (1) 
19
1 -0.29
10 0.06
11 0.97
12 1.02
13 0.49
14 -0.14
15 -0.28
16 0.14
17 0.14
2 -0.34
20 0.4
21 0.15
3 -0.34
4 -0.34
5 -0.34
6 -0.34
7 -0.68
8 -0.57
9 0.28

>  <PUBCHEM_EFFECTIVE_ROTOR_COUNT>  (1) 
5

>  <PUBCHEM_PHARMACOPHORE_FEATURES>  (1) 
4
1 7 acceptor
1 7 donor
1 8 acceptor
3 15 16 17 hydrophobe

>  <PUBCHEM_HEAVY_ATOM_COUNT>  (1) 
17

>  <PUBCHEM_ATOM_DEF_STEREO_COUNT>  (1) 
0

>  <PUBCHEM_ATOM_UDEF_STEREO_COUNT>  (1) 
1

>  <PUBCHEM_BOND_DEF_STEREO_COUNT>  (1) 
0

>  <PUBCHEM_BOND_UDEF_STEREO_COUNT>  (1) 
0

>  <PUBCHEM_ISOTOPIC_ATOM_COUNT>  (1) 
0

>  <PUBCHEM_COMPONENT_COUNT>  (1) 
1

>  <PUBCHEM_CACTVS_TAUTO_COUNT>  (1) 
5

>  <PUBCHEM_CONFORMER_ID>  (1) 
0000905200000001

>  <PUBCHEM_MMFF94_ENERGY>  (1) 
28.8516

>  <PUBCHEM_FEATURE_SELFOVERLAP>  (1) 
20.299

>  <PUBCHEM_SHAPE_FINGERPRINT>  (1) 
10219947 1 18187080676153079357
11067466 332 18187940464281273961
11132069 177 18338786922650713907
12382932 28 18411702101831137411
12491281 212 17917429886163220731
12808571 1 17561358508690461405
12932764 1 18059864922209943389
13296908 3 18262242114828968479
13705890 14 15791727503406347049
14178342 30 17751636550867419081
14252887 29 18262535735946805945
14943859 89 13901902319237259860
14993402 34 17530973475245671030
15207287 21 17894344497408923251
15375358 24 17967806146684797981
15775835 57 18202004334871348123
16945 1 18199733796263089004
17834072 14 17023169506003671779
18186145 218 17775568632441929821
18981168 100 12822140132631672291
19422 9 17275105037534673197
20201158 50 17749107773260683779
20279233 1 17821446846823490643
20645477 70 18340478951356606271
20820808 20 13901902341070766626
21069387 34 13479133484487787961
21730867 7 18339923723152950529
22926399 65 12535344593051939219
23402539 116 16226040107279629189
23557571 272 16153707601170197797
25 1 10447934979323753973
2748010 2 18194674865558700197
276578 36 17989211446879261337
458136 41 18271255987993428078
57812782 119 15357693111109752449
581208 293 18413105074088440425
81228 2 17764281226792078226

>  <PUBCHEM_SHAPE_MULTIPOLES>  (1) 
303.61
6.28
1.71
1.42
4.81
0.53
-0.02
-0.03
1.46
-0.72
-0.04
0.18
0.15
0.27

>  <PUBCHEM_SHAPE_SELFOVERLAP>  (1) 
602.455

>  <PUBCHEM_SHAPE_VOLUME>  (1) 
183.1

>  <PUBCHEM_COORDINATE_TYPE>  (1) 
2
5
10

$$$$
