3694
     RDKit          3D

 20 20  0  0  1  0  0  0  0  0999 V2000
    1.7724    0.6787   -1.6291 S   0  0  0  0  0  0  0  0  0  0  0  0
   -4.0508   -1.5371    2.1981 O   0  0  0  0  0  0  0  0  0  0  0  0
   -2.8909   -2.5602   -1.5497 O   0  0  0  0  0  0  0  0  0  0  0  0
   -0.8912    3.4382    1.0245 O   0  0  0  0  0  0  0  0  0  0  0  0
    1.2117    3.2254    0.1511 O   0  0  0  0  0  0  0  0  0  0  0  0
   -1.7607    1.2322   -0.0429 N   0  0  0  0  0  0  0  0  0  0  0  0
    4.6922   -1.0640    0.5710 N   0  0  0  0  0  0  0  0  0  0  0  0
    6.8662   -1.8773    1.2859 N   0  0  0  0  0  0  0  0  0  0  0  0
   -2.1279   -0.0086   -0.6973 C   0  0  0  0  0  0  0  0  0  0  0  0
   -2.5916   -1.0318    0.3260 C   0  0  0  0  0  0  0  0  0  0  0  0
   -0.8100   -0.4202   -1.4080 C   0  0  0  0  0  0  0  0  0  0  0  0
   -3.8016   -0.5803    1.1697 C   0  0  0  0  0  0  0  0  0  0  0  0
    0.1577    0.6909   -1.0551 C   0  0  0  0  0  0  0  0  0  0  0  0
   -0.4602    1.5909   -0.2774 C   0  0  0  0  0  0  0  0  0  0  0  0
   -2.9366   -2.3580   -0.3405 C   0  0  0  0  0  0  0  0  0  0  0  0
   -5.0668   -0.4156    0.3351 C   0  0  0  0  0  0  0  0  0  0  0  0
    0.0691    2.8202    0.3012 C   0  0  0  0  0  0  0  0  0  0  0  0
    2.5834   -0.2259   -0.2897 C   0  0  0  0  0  0  0  0  0  0  0  0
    4.0781   -0.3391   -0.5451 C   0  0  0  0  0  0  0  0  0  0  0  0
    5.9575   -1.2584    0.4721 C   0  0  0  0  0  0  0  0  0  0  0  0
  1 13  1  0
  1 18  1  0
  2 12  1  0
  3 15  2  0
  4 17  1  0
  5 17  2  0
  6  9  1  0
  6 14  1  0
  7 19  1  0
  7 20  2  0
  8 20  1  0
  9 10  1  0
  9 11  1  0
 10 12  1  0
 10 15  1  0
 11 13  1  0
 12 16  1  0
 13 14  2  0
 14 17  1  0
 18 19  1  0
M  END
>  <PUBCHEM_COMPOUND_CID>  (1) 
3694

>  <PUBCHEM_CONFORMER_RMSD>  (1) 
1

>  <PUBCHEM_CONFORMER_DIVERSEORDER>  (1) 
1
620
207
21
160
548
383
562
528
482
430
352
509
337
139
201
607
127
329
224
484
197
97
212
289
631
381
254
163
667
400
271
67
580
111
99
306
64
483
538
130
89
502
390
503
564
168
185
188
179
109
331
639
283
605
325
573
95
281
19
593
69
24
285
244
190
35
601
284
184
63
148
296
340
488
87
119
406
507
219
532
571
159
630
118
152
180
452
586
457
4
59
592
78
246
170
176
239
610
23
569
150
553
243
522
25
72
36
379
31
223
40
446
328
56
653
82
51
294
420
301
663
169
471
75
485
199
17
196
292
221
578
83
11
427
20
32
68
582
192
39
106
309
125
216
248
104
455
251
275
640
43
389
15
268
510
227
146
113
116
398
658
267
401
388
42
421
16
61
49
86
29
7
45
2
91
613
9
6
231

>  <PUBCHEM_MMFF94_PARTIAL_CHARGES>  (1) 
26
1 -0.33
10 0.06
11 0.14
12 0.28
13 -0.04
14 0.11
15 0.45
17 0.71
18 0.23
19 0.25
2 -0.68
20 0.44
25 0.4
27 0.06
3 -0.57
31 0.4
36 0.5
37 0.06
38 0.4
39 0.4
4 -0.65
5 -0.57
6 -0.87
7 -0.7
8 -0.85
9 0.37

>  <PUBCHEM_EFFECTIVE_ROTOR_COUNT>  (1) 
8.6

>  <PUBCHEM_PHARMACOPHORE_FEATURES>  (1) 
11
1 2 acceptor
1 2 donor
1 3 acceptor
1 4 acceptor
1 5 acceptor
1 6 cation
1 6 donor
1 8 donor
3 4 5 17 anion
3 7 8 20 cation
5 6 9 11 13 14 rings

>  <PUBCHEM_HEAVY_ATOM_COUNT>  (1) 
20

>  <PUBCHEM_ATOM_DEF_STEREO_COUNT>  (1) 
0

>  <PUBCHEM_ATOM_UDEF_STEREO_COUNT>  (1) 
3

>  <PUBCHEM_BOND_DEF_STEREO_COUNT>  (1) 
0

>  <PUBCHEM_BOND_UDEF_STEREO_COUNT>  (1) 
0

>  <PUBCHEM_ISOTOPIC_ATOM_COUNT>  (1) 
0

>  <PUBCHEM_COMPONENT_COUNT>  (1) 
1

>  <PUBCHEM_CACTVS_TAUTO_COUNT>  (1) 
4

>  <PUBCHEM_CONFORMER_ID>  (1) 
00000E6E00000001

>  <PUBCHEM_MMFF94_ENERGY>  (1) 
54.4855

>  <PUBCHEM_FEATURE_SELFOVERLAP>  (1) 
55.875

>  <PUBCHEM_SHAPE_FINGERPRINT>  (1) 
11357001 24 18340489954509242148
12553582 1 18271262593500331055
12633257 1 17346593093387293578
12760667 363 18334290950875166134
12788726 201 18266480774871953692
13140716 1 18057055811819039247
14178342 30 18193564355163153462
14251764 38 12030138726916570642
14466204 15 18270134409520511577
14844126 61 18338510833668578650
15163728 17 9222965801900387106
15375462 189 18265629855534448140
15475509 35 17682141081194835315
16945 1 17771941391628104813
17780758 139 18264479608249223514
193927 3 18113910342462993926
19784866 240 17385731270476763918
20600515 1 17988939863508009253
20832881 197 18261115196656265425
20871999 31 11819278841080835222
21033648 29 16343440431080905515
21650355 55 18342735195997413964
23366157 5 17977672240071724869
23557571 272 17773614745056792332
23559900 14 17676770989021285149
2838139 119 12175627231064500938
314173 85 18272376364688522358
351380 3 18040152907780564298
392239 28 18340755036302308898
5104073 3 17913510188242127475
559249 180 17968372338816184679
69474 34 17988924482929481113

>  <PUBCHEM_SHAPE_MULTIPOLES>  (1) 
377.02
11.37
3.18
1.49
17.36
2.46
0.03
-11.35
5.69
-0.29
0.78
-0.51
-0.47
-1.14

>  <PUBCHEM_SHAPE_SELFOVERLAP>  (1) 
745.96

>  <PUBCHEM_SHAPE_VOLUME>  (1) 
224.6

>  <PUBCHEM_COORDINATE_TYPE>  (1) 
2
5
10

$$$$
