36956
     RDKit          3D

 18 18  0  0  1  0  0  0  0  0999 V2000
   -2.8747   -1.3377    0.2268 S   0  0  0  0  0  0  0  0  0  0  0  0
    2.0342    2.2840    0.4742 F   0  0  0  0  0  0  0  0  0  0  0  0
    3.0559    0.5645    1.3415 F   0  0  0  0  0  0  0  0  0  0  0  0
    3.0953    0.8861   -0.8145 F   0  0  0  0  0  0  0  0  0  0  0  0
    2.1480   -1.5913   -1.0594 F   0  0  0  0  0  0  0  0  0  0  0  0
    0.2787   -2.1035   -0.0620 F   0  0  0  0  0  0  0  0  0  0  0  0
    2.0922   -1.7764    1.1022 F   0  0  0  0  0  0  0  0  0  0  0  0
    0.2672    0.3380    1.3201 O   0  0  0  0  0  0  0  0  0  0  0  0
   -1.6033    0.5336   -2.6327 O   0  0  0  0  0  0  0  0  0  0  0  0
    1.0417    0.1414    0.1374 C   0  0  0  0  0  0  0  0  0  0  0  0
    0.2454    0.6575   -1.0856 C   0  0  0  0  0  0  0  0  0  0  0  0
   -1.0856   -0.0429   -1.4274 C   0  0  0  0  0  0  0  0  0  0  0  0
    2.3167    0.9754    0.2874 C   0  0  0  0  0  0  0  0  0  0  0  0
    1.3912   -1.3420    0.0340 C   0  0  0  0  0  0  0  0  0  0  0  0
   -2.1662    0.0805   -0.3798 C   0  0  0  0  0  0  0  0  0  0  0  0
   -2.6658    1.2221    0.1616 C   0  0  0  0  0  0  0  0  0  0  0  0
   -3.6785    0.9326    1.1211 C   0  0  0  0  0  0  0  0  0  0  0  0
   -3.8923   -0.4217    1.2551 C   0  0  0  0  0  0  0  0  0  0  0  0
  1 15  1  0
  1 18  1  0
  2 13  1  0
  3 13  1  0
  4 13  1  0
  5 14  1  0
  6 14  1  0
  7 14  1  0
  8 10  1  0
  9 12  1  0
 10 11  1  0
 10 13  1  0
 10 14  1  0
 11 12  1  0
 12 15  1  0
 15 16  2  0
 16 17  1  0
 17 18  2  0
M  END
>  <PUBCHEM_COMPOUND_CID>  (1) 
36956

>  <PUBCHEM_CONFORMER_RMSD>  (1) 
0.6

>  <PUBCHEM_CONFORMER_DIVERSEORDER>  (1) 
2
13
14
18
4
12
10
19
3
15
7
9
8
16
20
1
17
6
11
5

>  <PUBCHEM_MMFF94_PARTIAL_CHARGES>  (1) 
22
1 -0.08
10 0.28
12 0.46
13 1.02
14 1.02
15 -0.14
16 -0.15
17 -0.15
18 -0.11
2 -0.34
22 0.4
23 0.15
24 0.4
25 0.15
26 0.15
3 -0.34
4 -0.34
5 -0.34
6 -0.34
7 -0.34
8 -0.68
9 -0.68

>  <PUBCHEM_EFFECTIVE_ROTOR_COUNT>  (1) 
5

>  <PUBCHEM_PHARMACOPHORE_FEATURES>  (1) 
5
1 8 acceptor
1 8 donor
1 9 acceptor
1 9 donor
5 1 15 16 17 18 rings

>  <PUBCHEM_HEAVY_ATOM_COUNT>  (1) 
18

>  <PUBCHEM_ATOM_DEF_STEREO_COUNT>  (1) 
0

>  <PUBCHEM_ATOM_UDEF_STEREO_COUNT>  (1) 
1

>  <PUBCHEM_BOND_DEF_STEREO_COUNT>  (1) 
0

>  <PUBCHEM_BOND_UDEF_STEREO_COUNT>  (1) 
0

>  <PUBCHEM_ISOTOPIC_ATOM_COUNT>  (1) 
0

>  <PUBCHEM_COMPONENT_COUNT>  (1) 
1

>  <PUBCHEM_CACTVS_TAUTO_COUNT>  (1) 
1

>  <PUBCHEM_CONFORMER_ID>  (1) 
0000905C00000002

>  <PUBCHEM_MMFF94_ENERGY>  (1) 
29.5099

>  <PUBCHEM_FEATURE_SELFOVERLAP>  (1) 
25.371

>  <PUBCHEM_SHAPE_FINGERPRINT>  (1) 
10366900 7 18337115673951752433
10980938 120 18272653441391764273
11132069 177 17823131396672677813
11471102 22 18260263049116452713
12202030 40 17604142606524514823
12382932 28 18333452058194883105
12808571 1 17916587677367622397
13296908 3 17167861942005503103
13538477 17 16988553606937780085
13693222 15 17240473741111199793
13764800 53 15267059289811773863
14252887 29 17095823074072608217
14289901 80 18410864282481715577
14787075 74 17334205127736784103
15309172 13 18261951954784859043
15775835 57 17346880057189738265
16945 1 18338791320602298876
17834072 14 10809617177201133278
18186145 218 18131354141418439296
18981168 100 18339344293584386621
201361 129 18272378572053727465
20279233 1 17676481740295959279
21041028 32 18056764226257354656
21061003 4 18121208779935516418
21730867 7 18410303505449274049
21731516 1 15502387720512631141
21756936 100 17842555434020484688
23493267 7 17488765418478117547
23557571 272 16660638544851859221
25 1 18272378615362304224
2748010 2 17895459328815986871
276578 36 18272660059867789176
3286 77 18260833640033257355
458136 41 18261688050893987150
57812782 119 7997970137619317041
6049 1 17895471410606326781
81228 2 17324630571844813714
9882013 296 17749676297765293417

>  <PUBCHEM_SHAPE_MULTIPOLES>  (1) 
318.9
5.82
1.78
1.59
2.15
0.41
-0.73
-0.63
2.16
-0.75
0.19
0.4
-0.25
0.18

>  <PUBCHEM_SHAPE_SELFOVERLAP>  (1) 
658.671

>  <PUBCHEM_SHAPE_VOLUME>  (1) 
185.4

>  <PUBCHEM_COORDINATE_TYPE>  (1) 
2
5
10

$$$$
