36952
     RDKit          3D

 19 19  0  0  1  0  0  0  0  0999 V2000
    2.2862    2.3507    0.5581 F   0  0  0  0  0  0  0  0  0  0  0  0
    3.8641    0.9357    0.0470 F   0  0  0  0  0  0  0  0  0  0  0  0
    2.3774    1.5008   -1.4444 F   0  0  0  0  0  0  0  0  0  0  0  0
    1.8973   -1.1017   -1.7468 F   0  0  0  0  0  0  0  0  0  0  0  0
    1.3104   -2.2701   -0.0026 F   0  0  0  0  0  0  0  0  0  0  0  0
    3.3558   -1.5434   -0.2014 F   0  0  0  0  0  0  0  0  0  0  0  0
    1.8816   -0.1248    1.7126 O   0  0  0  0  0  0  0  0  0  0  0  0
   -0.8504   -0.7772    1.8798 O   0  0  0  0  0  0  0  0  0  0  0  0
    1.6616    0.0617    0.3148 C   0  0  0  0  0  0  0  0  0  0  0  0
    0.1815    0.4485    0.0783 C   0  0  0  0  0  0  0  0  0  0  0  0
   -0.9026   -0.5793    0.4615 C   0  0  0  0  0  0  0  0  0  0  0  0
    2.5554    1.2211   -0.1336 C   0  0  0  0  0  0  0  0  0  0  0  0
    2.0614   -1.2226   -0.4092 C   0  0  0  0  0  0  0  0  0  0  0  0
   -2.3194   -0.1807    0.1234 C   0  0  0  0  0  0  0  0  0  0  0  0
   -3.2491   -1.1646   -0.1722 C   0  0  0  0  0  0  0  0  0  0  0  0
   -2.6630    1.1615    0.1147 C   0  0  0  0  0  0  0  0  0  0  0  0
   -4.5577   -0.7963   -0.4848 C   0  0  0  0  0  0  0  0  0  0  0  0
   -3.9716    1.5299   -0.1978 C   0  0  0  0  0  0  0  0  0  0  0  0
   -4.9190    0.5509   -0.4975 C   0  0  0  0  0  0  0  0  0  0  0  0
  1 12  1  0
  2 12  1  0
  3 12  1  0
  4 13  1  0
  5 13  1  0
  6 13  1  0
  7  9  1  0
  8 11  1  0
  9 10  1  0
  9 12  1  0
  9 13  1  0
 10 11  1  0
 11 14  1  0
 14 15  2  0
 14 16  1  0
 15 17  1  0
 16 18  2  0
 17 19  2  0
 18 19  1  0
M  END
>  <PUBCHEM_COMPOUND_CID>  (1) 
36952

>  <PUBCHEM_CONFORMER_RMSD>  (1) 
0.6

>  <PUBCHEM_CONFORMER_DIVERSEORDER>  (1) 
1
9
6
8
5
3
7
4
2

>  <PUBCHEM_MMFF94_PARTIAL_CHARGES>  (1) 
25
1 -0.34
11 0.42
12 1.02
13 1.02
14 -0.14
15 -0.15
16 -0.15
17 -0.15
18 -0.15
19 -0.15
2 -0.34
23 0.4
24 0.15
25 0.15
26 0.4
27 0.15
28 0.15
29 0.15
3 -0.34
4 -0.34
5 -0.34
6 -0.34
7 -0.68
8 -0.68
9 0.28

>  <PUBCHEM_EFFECTIVE_ROTOR_COUNT>  (1) 
5

>  <PUBCHEM_PHARMACOPHORE_FEATURES>  (1) 
5
1 7 acceptor
1 7 donor
1 8 acceptor
1 8 donor
6 14 15 16 17 18 19 rings

>  <PUBCHEM_HEAVY_ATOM_COUNT>  (1) 
19

>  <PUBCHEM_ATOM_DEF_STEREO_COUNT>  (1) 
0

>  <PUBCHEM_ATOM_UDEF_STEREO_COUNT>  (1) 
1

>  <PUBCHEM_BOND_DEF_STEREO_COUNT>  (1) 
0

>  <PUBCHEM_BOND_UDEF_STEREO_COUNT>  (1) 
0

>  <PUBCHEM_ISOTOPIC_ATOM_COUNT>  (1) 
0

>  <PUBCHEM_COMPONENT_COUNT>  (1) 
1

>  <PUBCHEM_CACTVS_TAUTO_COUNT>  (1) 
1

>  <PUBCHEM_CONFORMER_ID>  (1) 
0000905800000001

>  <PUBCHEM_MMFF94_ENERGY>  (1) 
46.4507

>  <PUBCHEM_FEATURE_SELFOVERLAP>  (1) 
25.379

>  <PUBCHEM_SHAPE_FINGERPRINT>  (1) 
10498660 4 18041550361474221981
10608611 8 18410290307336792925
10871710 139 15743041515012951821
11543360 7 18272082846966274783
116883 192 18056202362540541932
11715629 250 18260260833388140149
12173636 292 18411131412657943789
12616999 72 18202283627735582143
12707595 3 15769770282349155315
128620 24 18410013282030337165
12932764 1 17203601614710963245
13296908 3 18342738507754646599
13705890 14 18060133228494976347
14289901 80 18343579659977636955
14415576 193 18408604777116847445
15375462 6 18413107264643074405
15442244 35 18196091032377438641
15536298 74 18411135823056632437
16752209 62 15625949690538545259
18186145 218 17822287968638909303
19784866 240 17560528274311527526
200 152 17918273151726307489
20281475 54 17917990607782982823
20361792 2 14692567719815231841
20645477 70 18201720622280337439
21756936 100 11604836763611156270
221490 88 18411706499471992627
22169311 14 8070034367597936583
2255824 54 18113337487982555258
23402539 116 18261945340530026501
23402655 69 18412545392647511421
23557571 272 17751088118130169019
23559900 14 18270957947301801219
3060560 45 18272934959677006836
3082319 5 18342455946061389871
3545911 37 18409730677350860981
4028521 119 18186794752307642613
474 4 17822012051165549389
5104073 3 18410573977252555459
5281201 14 18341054034323476879
58051976 378 18271803574917448959
633830 44 18113336380392338399
7364860 26 18412824664247684538
77779 3 18412544306289518493
93112 12 18412263900627873695
9709674 26 18411703209838241359

>  <PUBCHEM_SHAPE_MULTIPOLES>  (1) 
335.63
8.34
1.87
1.13
6.12
0.16
-0.15
1.23
1.66
-0.93
0.17
-0.57
-0.14
0.16

>  <PUBCHEM_SHAPE_SELFOVERLAP>  (1) 
708.713

>  <PUBCHEM_SHAPE_VOLUME>  (1) 
188.1

>  <PUBCHEM_COORDINATE_TYPE>  (1) 
2
5
10

$$$$
