36955
     RDKit          3D

 22 22  0  0  1  0  0  0  0  0999 V2000
    2.0097    2.6287   -0.1873 F   0  0  0  0  0  0  0  0  0  0  0  0
    3.3242    1.6688    1.2631 F   0  0  0  0  0  0  0  0  0  0  0  0
    3.6463    1.3662   -0.8720 F   0  0  0  0  0  0  0  0  0  0  0  0
    3.5322   -1.2482   -0.3754 F   0  0  0  0  0  0  0  0  0  0  0  0
    1.7525   -2.0564    0.5896 F   0  0  0  0  0  0  0  0  0  0  0  0
    3.1532   -0.8269    1.7197 F   0  0  0  0  0  0  0  0  0  0  0  0
    0.7765    0.5229    1.1050 O   0  0  0  0  0  0  0  0  0  0  0  0
   -0.3405   -1.0383   -2.8291 O   0  0  0  0  0  0  0  0  0  0  0  0
   -4.9473    1.3172    0.8861 O   0  0  0  0  0  0  0  0  0  0  0  0
   -3.6207    2.2720   -0.5792 O   0  0  0  0  0  0  0  0  0  0  0  0
   -3.9241    1.3042    0.1598 N   0  0  0  0  0  0  0  0  0  0  0  0
    1.7703    0.2743    0.1111 C   0  0  0  0  0  0  0  0  0  0  0  0
    1.0858    0.1279   -1.2695 C   0  0  0  0  0  0  0  0  0  0  0  0
    0.1034   -1.0447   -1.4668 C   0  0  0  0  0  0  0  0  0  0  0  0
    2.6947    1.4943    0.0801 C   0  0  0  0  0  0  0  0  0  0  0  0
    2.5551   -0.9713    0.5186 C   0  0  0  0  0  0  0  0  0  0  0  0
   -1.1324   -1.0025   -0.5999 C   0  0  0  0  0  0  0  0  0  0  0  0
   -1.9417    0.1220   -0.6251 C   0  0  0  0  0  0  0  0  0  0  0  0
   -1.4349   -2.0902    0.2037 C   0  0  0  0  0  0  0  0  0  0  0  0
   -3.0840    0.1599    0.1748 C   0  0  0  0  0  0  0  0  0  0  0  0
   -2.5769   -2.0523    1.0035 C   0  0  0  0  0  0  0  0  0  0  0  0
   -3.4015   -0.9275    0.9890 C   0  0  0  0  0  0  0  0  0  0  0  0
  1 15  1  0
  2 15  1  0
  3 15  1  0
  4 16  1  0
  5 16  1  0
  6 16  1  0
  7 12  1  0
  8 14  1  0
  9 11  1  0
 10 11  2  0
 11 20  1  0
 12 13  1  0
 12 15  1  0
 12 16  1  0
 13 14  1  0
 14 17  1  0
 17 18  2  0
 17 19  1  0
 18 20  1  0
 19 21  2  0
 20 22  2  0
 21 22  1  0
M  CHG  2   9  -1  11   1
M  END
>  <PUBCHEM_COMPOUND_CID>  (1) 
36955

>  <PUBCHEM_CONFORMER_RMSD>  (1) 
0.8

>  <PUBCHEM_CONFORMER_DIVERSEORDER>  (1) 
2
10
14
11
7
15
21
16
18
13
5
6
20
1
3
8
12
19
9
17
4

>  <PUBCHEM_MMFF94_PARTIAL_CHARGES>  (1) 
27
1 -0.34
10 -0.52
11 0.91
12 0.28
14 0.42
15 1.02
16 1.02
17 -0.14
18 -0.15
19 -0.15
2 -0.34
20 0.13
21 -0.15
22 -0.15
26 0.4
27 0.15
28 0.15
29 0.4
3 -0.34
30 0.15
31 0.15
4 -0.34
5 -0.34
6 -0.34
7 -0.68
8 -0.68
9 -0.52

>  <PUBCHEM_EFFECTIVE_ROTOR_COUNT>  (1) 
6

>  <PUBCHEM_PHARMACOPHORE_FEATURES>  (1) 
8
1 10 acceptor
1 7 acceptor
1 7 donor
1 8 acceptor
1 8 donor
1 9 acceptor
1 9 anion
6 17 18 19 20 21 22 rings

>  <PUBCHEM_HEAVY_ATOM_COUNT>  (1) 
22

>  <PUBCHEM_ATOM_DEF_STEREO_COUNT>  (1) 
0

>  <PUBCHEM_ATOM_UDEF_STEREO_COUNT>  (1) 
1

>  <PUBCHEM_BOND_DEF_STEREO_COUNT>  (1) 
0

>  <PUBCHEM_BOND_UDEF_STEREO_COUNT>  (1) 
0

>  <PUBCHEM_ISOTOPIC_ATOM_COUNT>  (1) 
0

>  <PUBCHEM_COMPONENT_COUNT>  (1) 
1

>  <PUBCHEM_CACTVS_TAUTO_COUNT>  (1) 
1

>  <PUBCHEM_CONFORMER_ID>  (1) 
0000905B00000002

>  <PUBCHEM_MMFF94_ENERGY>  (1) 
54.6897

>  <PUBCHEM_FEATURE_SELFOVERLAP>  (1) 
40.679

>  <PUBCHEM_SHAPE_FINGERPRINT>  (1) 
10064457 181 17676500452978234970
10366900 7 17972602357511291547
10759866 29 18335994128930965344
10863032 1 18335986449307666811
1100329 8 16103038466934409051
11221954 11 18200886058764006169
11640471 11 17346019139184470943
12173636 292 18337385058368924487
12363563 72 13985207968951670523
12403260 363 18337944577128448181
12507560 40 18411704321807178258
12596599 1 15936699262954316843
12633257 1 18187919534874141867
12670546 56 18334573572940226995
12788726 201 17771043171885184751
12892183 10 18113903796779678835
13134695 92 17130989742121746486
13533116 47 18260826004003723035
13681431 1 16482788012010931799
14178342 30 17968655046280081090
14223421 5 18263365969783005435
14289901 80 18116155647842684867
15238133 3 18263647273251129076
16945 1 18263350426365114942
17804303 29 18187370869966447215
1813 80 15574717992922798399
18981168 100 18117533288614997652
192875 21 17703224006040304105
19862831 5 14692576502859873565
201361 129 18262237832472326240
20361792 2 14923939085187620855
21475661 188 18122902019790609149
21524375 3 18201431446669552615
21731516 1 14201392798464680503
21756936 100 17979635968376996116
23419403 2 16336657311815725286
23493267 7 18271259303576376690
23526113 38 17697351458691650087
23559900 14 18338809939349077734
474 4 18129669569799055665
7097593 13 18186514410453088315
81228 2 14419505071787407263

>  <PUBCHEM_SHAPE_MULTIPOLES>  (1) 
380.65
7.4
2.37
1.53
2.56
0.52
0.74
3.28
-2.43
0.39
-0.26
-0.32
-0.43
0.16

>  <PUBCHEM_SHAPE_SELFOVERLAP>  (1) 
809.082

>  <PUBCHEM_SHAPE_VOLUME>  (1) 
212.3

>  <PUBCHEM_COORDINATE_TYPE>  (1) 
2
5
10

$$$$
