36958
     RDKit          3D

 21 21  0  0  1  0  0  0  0  0999 V2000
   -0.4865    0.5050    2.1396 F   0  0  0  0  0  0  0  0  0  0  0  0
   -1.9297    1.9428    1.3701 F   0  0  0  0  0  0  0  0  0  0  0  0
   -2.4905   -0.1418    1.5980 F   0  0  0  0  0  0  0  0  0  0  0  0
   -3.1843   -0.0632   -1.0698 F   0  0  0  0  0  0  0  0  0  0  0  0
   -2.5566    2.0237   -1.0419 F   0  0  0  0  0  0  0  0  0  0  0  0
   -1.6739    0.6470   -2.4672 F   0  0  0  0  0  0  0  0  0  0  0  0
    0.0556    1.3016   -0.4600 O   0  0  0  0  0  0  0  0  0  0  0  0
    0.6392   -1.3471    1.7769 O   0  0  0  0  0  0  0  0  0  0  0  0
   -0.4934   -1.0975   -0.4079 C   0  0  0  0  0  0  0  0  0  0  0  0
   -1.0109    0.3801   -0.1911 C   0  0  0  0  0  0  0  0  0  0  0  0
    0.8343   -1.4402    0.3617 C   0  0  0  0  0  0  0  0  0  0  0  0
   -1.5808   -2.1668   -0.1003 C   0  0  0  0  0  0  0  0  0  0  0  0
   -1.4753    0.6788    1.2367 C   0  0  0  0  0  0  0  0  0  0  0  0
   -2.1167    0.7584   -1.1915 C   0  0  0  0  0  0  0  0  0  0  0  0
    2.0195   -0.5458    0.0718 C   0  0  0  0  0  0  0  0  0  0  0  0
   -1.1204   -3.5906   -0.3985 C   0  0  0  0  0  0  0  0  0  0  0  0
    2.8818   -0.8791   -0.9588 C   0  0  0  0  0  0  0  0  0  0  0  0
    2.2166    0.5869    0.8429 C   0  0  0  0  0  0  0  0  0  0  0  0
    3.9745   -0.0544   -1.2263 C   0  0  0  0  0  0  0  0  0  0  0  0
    3.3093    1.4116    0.5752 C   0  0  0  0  0  0  0  0  0  0  0  0
    4.1882    1.0908   -0.4595 C   0  0  0  0  0  0  0  0  0  0  0  0
  1 13  1  0
  2 13  1  0
  3 13  1  0
  4 14  1  0
  5 14  1  0
  6 14  1  0
  7 10  1  0
  8 11  1  0
  9 10  1  0
  9 11  1  0
  9 12  1  0
 10 13  1  0
 10 14  1  0
 11 15  1  0
 12 16  1  0
 15 17  2  0
 15 18  1  0
 17 19  1  0
 18 20  2  0
 19 21  2  0
 20 21  1  0
M  END
>  <PUBCHEM_COMPOUND_CID>  (1) 
36958

>  <PUBCHEM_CONFORMER_RMSD>  (1) 
0.8

>  <PUBCHEM_CONFORMER_DIVERSEORDER>  (1) 
5
4
3
1
2

>  <PUBCHEM_MMFF94_PARTIAL_CHARGES>  (1) 
25
1 -0.34
10 0.28
11 0.42
13 1.02
14 1.02
15 -0.14
17 -0.15
18 -0.15
19 -0.15
2 -0.34
20 -0.15
21 -0.15
29 0.4
3 -0.34
30 0.4
31 0.15
32 0.15
33 0.15
34 0.15
35 0.15
4 -0.34
5 -0.34
6 -0.34
7 -0.68
8 -0.68

>  <PUBCHEM_EFFECTIVE_ROTOR_COUNT>  (1) 
6

>  <PUBCHEM_PHARMACOPHORE_FEATURES>  (1) 
6
1 16 hydrophobe
1 7 acceptor
1 7 donor
1 8 acceptor
1 8 donor
6 15 17 18 19 20 21 rings

>  <PUBCHEM_HEAVY_ATOM_COUNT>  (1) 
21

>  <PUBCHEM_ATOM_DEF_STEREO_COUNT>  (1) 
0

>  <PUBCHEM_ATOM_UDEF_STEREO_COUNT>  (1) 
2

>  <PUBCHEM_BOND_DEF_STEREO_COUNT>  (1) 
0

>  <PUBCHEM_BOND_UDEF_STEREO_COUNT>  (1) 
0

>  <PUBCHEM_ISOTOPIC_ATOM_COUNT>  (1) 
0

>  <PUBCHEM_COMPONENT_COUNT>  (1) 
1

>  <PUBCHEM_CACTVS_TAUTO_COUNT>  (1) 
1

>  <PUBCHEM_CONFORMER_ID>  (1) 
0000905E00000005

>  <PUBCHEM_MMFF94_ENERGY>  (1) 
65.822

>  <PUBCHEM_FEATURE_SELFOVERLAP>  (1) 
30.446

>  <PUBCHEM_SHAPE_FINGERPRINT>  (1) 
10863032 1 18113891624620802595
10948715 1 17677320615711600453
11640471 11 17604691335994102438
12173636 292 18201171974293347648
12403814 3 18113902722937549883
13024252 1 15647056005538817227
13583140 156 17749387096612013680
13693222 15 11674881138835787940
13764800 53 17095531655893315708
14614273 12 18262231230933980302
14817 1 13930841096018898555
15309172 13 18336837389613282047
15534591 1 17774174404468983777
15775835 57 18113892763034809086
15881359 60 17822863094312983473
16945 1 18343300375065027746
17349148 13 17987783143411690378
17357779 13 17767949188903214911
18186145 218 18341060653184577990
18219364 16 18409175389592637468
18981168 100 18343294873327998722
19868273 293 18187078477535888958
20361792 2 13326851149852559978
21524375 3 17968650519611235206
22802520 49 17632300120317764850
23419403 2 17409630482719292947
23557571 272 18126001809283091102
23559900 14 18272660013936965286
2748010 2 18188496757035484158
3082319 5 17132115723780615348
74978 22 18342177752587594290
81228 2 18046919443839742578

>  <PUBCHEM_SHAPE_MULTIPOLES>  (1) 
376.79
5.64
2.45
1.7
5.31
1.78
-0.02
-1.54
1.63
-1.7
-0.01
-0.82
-0.49
0.34

>  <PUBCHEM_SHAPE_SELFOVERLAP>  (1) 
794.616

>  <PUBCHEM_SHAPE_VOLUME>  (1) 
210.9

>  <PUBCHEM_COORDINATE_TYPE>  (1) 
2
5
10

$$$$
