36968
     RDKit          3D

 18 18  0  0  1  0  0  0  0  0999 V2000
    2.0919    2.8659    0.0018 Cl  0  0  0  0  0  0  0  0  0  0  0  0
    1.5872   -1.7220    1.7699 Cl  0  0  0  0  0  0  0  0  0  0  0  0
   -3.2203   -0.8290    1.2583 S   0  0  0  0  0  0  0  0  0  0  0  0
    3.6592    0.8446    0.0186 F   0  0  0  0  0  0  0  0  0  0  0  0
    2.3532    1.0018    1.7354 F   0  0  0  0  0  0  0  0  0  0  0  0
    0.9702   -2.1388   -0.6702 F   0  0  0  0  0  0  0  0  0  0  0  0
    3.0370   -1.5577   -0.3295 F   0  0  0  0  0  0  0  0  0  0  0  0
    1.5548    0.3293   -1.6952 O   0  0  0  0  0  0  0  0  0  0  0  0
   -1.0883   -0.4342   -1.9591 O   0  0  0  0  0  0  0  0  0  0  0  0
    1.3916    0.1743   -0.2766 C   0  0  0  0  0  0  0  0  0  0  0  0
   -0.0993    0.4518    0.0831 C   0  0  0  0  0  0  0  0  0  0  0  0
   -1.1529   -0.4855   -0.5366 C   0  0  0  0  0  0  0  0  0  0  0  0
    2.3872    1.1570    0.3838 C   0  0  0  0  0  0  0  0  0  0  0  0
    1.7592   -1.2962    0.0479 C   0  0  0  0  0  0  0  0  0  0  0  0
   -2.5578   -0.0974   -0.1192 C   0  0  0  0  0  0  0  0  0  0  0  0
   -3.3792    0.7906   -0.7297 C   0  0  0  0  0  0  0  0  0  0  0  0
   -4.6230    0.8866   -0.0414 C   0  0  0  0  0  0  0  0  0  0  0  0
   -4.6707    0.0590    1.0589 C   0  0  0  0  0  0  0  0  0  0  0  0
  1 13  1  0
  2 14  1  0
  3 15  1  0
  3 18  1  0
  4 13  1  0
  5 13  1  0
  6 14  1  0
  7 14  1  0
  8 10  1  0
  9 12  1  0
 10 11  1  0
 10 13  1  0
 10 14  1  0
 11 12  1  0
 12 15  1  0
 15 16  2  0
 16 17  1  0
 17 18  2  0
M  END
>  <PUBCHEM_COMPOUND_CID>  (1) 
36968

>  <PUBCHEM_CONFORMER_RMSD>  (1) 
0.6

>  <PUBCHEM_CONFORMER_DIVERSEORDER>  (1) 
1
19
67
93
14
112
74
76
71
84
105
68
62
2
33
77
109
87
56
86
57
108
96
27
35
61
92
23
102
107
100
66
50
20
111
94
80
3
7
89
98
116
26
8
69
106
46
115
22
64
114
49
17
39
43
55
95
31
73
53
101
99
70
113
34
15
54
58
4
10
44
88
24
45
85
82
59
47
11
81
37
40
21
78
28
52
103
32
16
42
29
41
104
110
63
90
75
38
48
72
60
30
65
12
36
91
51
9
13
97
5
79
25
83
6
18

>  <PUBCHEM_MMFF94_PARTIAL_CHARGES>  (1) 
22
1 -0.29
10 0.28
12 0.46
13 0.97
14 0.97
15 -0.14
16 -0.15
17 -0.15
18 -0.11
2 -0.29
22 0.4
23 0.15
24 0.4
25 0.15
26 0.15
3 -0.08
4 -0.34
5 -0.34
6 -0.34
7 -0.34
8 -0.68
9 -0.68

>  <PUBCHEM_EFFECTIVE_ROTOR_COUNT>  (1) 
5

>  <PUBCHEM_PHARMACOPHORE_FEATURES>  (1) 
5
1 8 acceptor
1 8 donor
1 9 acceptor
1 9 donor
5 3 15 16 17 18 rings

>  <PUBCHEM_HEAVY_ATOM_COUNT>  (1) 
18

>  <PUBCHEM_ATOM_DEF_STEREO_COUNT>  (1) 
0

>  <PUBCHEM_ATOM_UDEF_STEREO_COUNT>  (1) 
1

>  <PUBCHEM_BOND_DEF_STEREO_COUNT>  (1) 
0

>  <PUBCHEM_BOND_UDEF_STEREO_COUNT>  (1) 
0

>  <PUBCHEM_ISOTOPIC_ATOM_COUNT>  (1) 
0

>  <PUBCHEM_COMPONENT_COUNT>  (1) 
1

>  <PUBCHEM_CACTVS_TAUTO_COUNT>  (1) 
1

>  <PUBCHEM_CONFORMER_ID>  (1) 
0000906800000001

>  <PUBCHEM_MMFF94_ENERGY>  (1) 
32.5446

>  <PUBCHEM_FEATURE_SELFOVERLAP>  (1) 
25.381

>  <PUBCHEM_SHAPE_FINGERPRINT>  (1) 
10366900 7 18187082905705336153
10498660 4 15339124507453361737
10608611 8 18334012774897393669
10980938 120 18343578560112691621
12251169 10 17022620909794147421
12500047 106 18040714766822354667
12507560 40 18333735698051336741
12633257 1 17895460518706667849
12932764 1 18411705387465340167
13134695 92 18338510820820658294
13296908 3 18259988154509661323
13538477 17 17346588703603650071
13583140 156 18336263522644298005
14178342 30 17240486952868563211
14252887 29 16732989704115013793
14289901 80 18337955688071563169
15219456 202 18334297556877330019
15775835 57 17917991698208686989
16945 1 18190154932624188364
1813 80 17414734076620438414
18186145 218 18131359609069802933
19049666 15 17896307018343315109
20279233 1 17603583028547662859
20281475 54 11819287667734435253
20442098 301 17530971302066390627
20539784 86 18334570252671946752
20559304 39 18130228142558238507
20645477 70 18339919325475971255
21041028 32 18265889156075005200
21503847 285 18271816695852887601
21730867 7 18408042918011181769
21756936 100 17761496189836241580
21864079 5 16558481850295233617
22854114 111 18341895190609500973
22854114 59 18410860984141867761
231179 274 18202566189281314613
23557571 272 16009017372454554741
23559900 14 17676491605772586759
25 1 18339926034141073228
276578 36 18343303694953350094
2838139 119 15122363615457590432
3060560 45 18202848738279216846
31174 14 18114454583148191303
474 4 18198054983282973160
49207404 50 18263092161697256953
495365 180 18265033783383843091
6049 1 17822285743703659557
7364860 26 18411983537768052932
74978 22 16845282886931626507
81228 2 17041170474145144586
8272917 22 18272095946474219799
9999458 23 18260831548642608052

>  <PUBCHEM_SHAPE_MULTIPOLES>  (1) 
337.19
7.52
2.06
1.45
7.44
0.31
0.09
1.44
-1.82
-2.02
-0.46
-0.2
-0.24
0.64

>  <PUBCHEM_SHAPE_SELFOVERLAP>  (1) 
670.012

>  <PUBCHEM_SHAPE_VOLUME>  (1) 
203.2

>  <PUBCHEM_COORDINATE_TYPE>  (1) 
2
5
10

$$$$
