36964
     RDKit          3D

 21 21  0  0  1  0  0  0  0  0999 V2000
    6.4962    0.7402   -0.4396 Br  0  0  0  0  0  0  0  0  0  0  0  0
   -1.7393   -2.2619   -0.2208 F   0  0  0  0  0  0  0  0  0  0  0  0
   -2.3656   -0.9347   -1.8292 F   0  0  0  0  0  0  0  0  0  0  0  0
   -3.7494   -1.4407   -0.2185 F   0  0  0  0  0  0  0  0  0  0  0  0
   -2.8880    1.6795   -1.1658 F   0  0  0  0  0  0  0  0  0  0  0  0
   -2.5838    2.2790    0.9027 F   0  0  0  0  0  0  0  0  0  0  0  0
   -4.1882    0.8985    0.3860 F   0  0  0  0  0  0  0  0  0  0  0  0
   -2.0464   -0.3256    1.6810 O   0  0  0  0  0  0  0  0  0  0  0  0
    0.3825   -0.9916    1.8411 O   0  0  0  0  0  0  0  0  0  0  0  0
   -0.4409    0.3887   -0.0216 C   0  0  0  0  0  0  0  0  0  0  0  0
   -1.9480    0.0561    0.2996 C   0  0  0  0  0  0  0  0  0  0  0  0
    0.5646   -0.7105    0.4528 C   0  0  0  0  0  0  0  0  0  0  0  0
   -0.1843    0.7267   -1.5002 C   0  0  0  0  0  0  0  0  0  0  0  0
   -2.4611   -1.1505   -0.4984 C   0  0  0  0  0  0  0  0  0  0  0  0
   -2.9094    1.2332    0.1129 C   0  0  0  0  0  0  0  0  0  0  0  0
    2.0241   -0.3536    0.2347 C   0  0  0  0  0  0  0  0  0  0  0  0
    2.9352   -1.3667    0.0050 C   0  0  0  0  0  0  0  0  0  0  0  0
    2.4026    0.9748    0.2704 C   0  0  0  0  0  0  0  0  0  0  0  0
    4.2760   -1.0389   -0.1965 C   0  0  0  0  0  0  0  0  0  0  0  0
    3.7434    1.3025    0.0689 C   0  0  0  0  0  0  0  0  0  0  0  0
    4.6800    0.2956   -0.1645 C   0  0  0  0  0  0  0  0  0  0  0  0
  1 21  1  0
  2 14  1  0
  3 14  1  0
  4 14  1  0
  5 15  1  0
  6 15  1  0
  7 15  1  0
  8 11  1  0
  9 12  1  0
 10 11  1  0
 10 12  1  0
 10 13  1  0
 11 14  1  0
 11 15  1  0
 12 16  1  0
 16 17  2  0
 16 18  1  0
 17 19  1  0
 18 20  2  0
 19 21  2  0
 20 21  1  0
M  END
>  <PUBCHEM_COMPOUND_CID>  (1) 
36964

>  <PUBCHEM_CONFORMER_RMSD>  (1) 
0.8

>  <PUBCHEM_CONFORMER_DIVERSEORDER>  (1) 
1
4
5
2
3

>  <PUBCHEM_MMFF94_PARTIAL_CHARGES>  (1) 
25
1 -0.11
11 0.28
12 0.42
14 1.02
15 1.02
16 -0.14
17 -0.15
18 -0.15
19 -0.15
2 -0.34
20 -0.15
21 0.11
27 0.4
28 0.4
29 0.15
3 -0.34
30 0.15
31 0.15
32 0.15
4 -0.34
5 -0.34
6 -0.34
7 -0.34
8 -0.68
9 -0.68

>  <PUBCHEM_EFFECTIVE_ROTOR_COUNT>  (1) 
5

>  <PUBCHEM_PHARMACOPHORE_FEATURES>  (1) 
7
1 1 hydrophobe
1 13 hydrophobe
1 8 acceptor
1 8 donor
1 9 acceptor
1 9 donor
6 16 17 18 19 20 21 rings

>  <PUBCHEM_HEAVY_ATOM_COUNT>  (1) 
21

>  <PUBCHEM_ATOM_DEF_STEREO_COUNT>  (1) 
0

>  <PUBCHEM_ATOM_UDEF_STEREO_COUNT>  (1) 
2

>  <PUBCHEM_BOND_DEF_STEREO_COUNT>  (1) 
0

>  <PUBCHEM_BOND_UDEF_STEREO_COUNT>  (1) 
0

>  <PUBCHEM_ISOTOPIC_ATOM_COUNT>  (1) 
0

>  <PUBCHEM_COMPONENT_COUNT>  (1) 
1

>  <PUBCHEM_CACTVS_TAUTO_COUNT>  (1) 
1

>  <PUBCHEM_CONFORMER_ID>  (1) 
0000906400000001

>  <PUBCHEM_MMFF94_ENERGY>  (1) 
59.999

>  <PUBCHEM_FEATURE_SELFOVERLAP>  (1) 
35.555

>  <PUBCHEM_SHAPE_FINGERPRINT>  (1) 
10014705 185 18187362095242545821
10616163 171 18271807960148227814
10680689 15 18341620342999371754
11132069 177 17967250884385311076
11315181 36 18187644752036661820
12107183 9 17764594214101809986
121448 382 16878219869948718146
12173636 292 18271517615942211661
12236239 1 18333449824790673185
12507557 5 18060136566011847072
12707595 3 16128651972856104090
12788726 201 17059220224425270520
13214271 11 17748832912011401913
13224815 77 17821725044323539938
13288520 33 18202286930924291374
13583140 156 17346588686750776386
13760787 19 18059856156033908446
14289901 80 18341331171393781018
15196674 1 18410856547483043870
15309172 13 16008469828290413298
15788980 27 14405191660098610672
16945 1 18196643218926505883
18186145 218 17894628137202280858
200 152 18201438103863632010
20325693 3 17917993875535534165
20645477 56 18411983546205266585
20645477 70 18271248201798495566
20871999 31 18201431493529207311
21267235 1 18340212993463960270
21709351 56 18412825815905919516
23402539 116 18187361035213603748
23402655 69 18341052939386566328
23557571 272 18202008750124186660
23559900 14 18200866374585861104
296302 2 18260550013493929654
300161 21 18341607110384513180
34934 24 18114176380826004828
3545911 37 18413672405003592160
4028521 119 18187640254631156397
4175511 318 17489586749089705829
4214541 1 18413108364117791716
474 4 18040721393925438708
5104073 3 18409728448521285066
58051976 100 18272650172963915222
59755656 520 17385726898289786266
633830 44 18041000614149775018
69090 78 18411135805845010699
77779 3 18413672405061393566
9709674 26 18341900696905891334

>  <PUBCHEM_SHAPE_MULTIPOLES>  (1) 
382.73
10.31
1.78
1.19
11.91
0.03
-0.02
2.14
-1.15
-1.05
-0.02
-0.8
-0.06
-0.36

>  <PUBCHEM_SHAPE_SELFOVERLAP>  (1) 
793.949

>  <PUBCHEM_SHAPE_VOLUME>  (1) 
223.7

>  <PUBCHEM_COORDINATE_TYPE>  (1) 
2
5
10

$$$$
