36963
     RDKit          3D

 22 22  0  0  1  0  0  0  0  0999 V2000
   -0.7534    0.3439    2.1754 F   0  0  0  0  0  0  0  0  0  0  0  0
   -2.0087    1.9783    1.4719 F   0  0  0  0  0  0  0  0  0  0  0  0
   -2.7937   -0.0446    1.5322 F   0  0  0  0  0  0  0  0  0  0  0  0
   -3.3797    0.2925   -1.1414 F   0  0  0  0  0  0  0  0  0  0  0  0
   -2.5371    2.2927   -0.9445 F   0  0  0  0  0  0  0  0  0  0  0  0
   -1.7540    0.9309   -2.4405 F   0  0  0  0  0  0  0  0  0  0  0  0
    5.1822    1.2912   -0.4095 F   0  0  0  0  0  0  0  0  0  0  0  0
   -0.0379    1.2553   -0.3433 O   0  0  0  0  0  0  0  0  0  0  0  0
    0.1832   -1.5892    1.7111 O   0  0  0  0  0  0  0  0  0  0  0  0
   -0.8381   -1.0687   -0.4808 C   0  0  0  0  0  0  0  0  0  0  0  0
   -1.2044    0.4375   -0.1721 C   0  0  0  0  0  0  0  0  0  0  0  0
    0.4178   -1.6047    0.2989 C   0  0  0  0  0  0  0  0  0  0  0  0
   -2.0424   -2.0335   -0.2823 C   0  0  0  0  0  0  0  0  0  0  0  0
   -1.6855    0.6850    1.2601 C   0  0  0  0  0  0  0  0  0  0  0  0
   -2.2278    1.0008   -1.1730 C   0  0  0  0  0  0  0  0  0  0  0  0
    1.7002   -0.8251    0.1081 C   0  0  0  0  0  0  0  0  0  0  0  0
   -1.7241   -3.4745   -0.6699 C   0  0  0  0  0  0  0  0  0  0  0  0
    2.5587   -1.1772   -0.9188 C   0  0  0  0  0  0  0  0  0  0  0  0
    1.9873    0.2236    0.9648 C   0  0  0  0  0  0  0  0  0  0  0  0
    3.7411   -0.4584   -1.0946 C   0  0  0  0  0  0  0  0  0  0  0  0
    3.1696    0.9426    0.7889 C   0  0  0  0  0  0  0  0  0  0  0  0
    4.0466    0.6016   -0.2409 C   0  0  0  0  0  0  0  0  0  0  0  0
  1 14  1  0
  2 14  1  0
  3 14  1  0
  4 15  1  0
  5 15  1  0
  6 15  1  0
  7 22  1  0
  8 11  1  0
  9 12  1  0
 10 11  1  0
 10 12  1  0
 10 13  1  0
 11 14  1  0
 11 15  1  0
 12 16  1  0
 13 17  1  0
 16 18  2  0
 16 19  1  0
 18 20  1  0
 19 21  2  0
 20 22  2  0
 21 22  1  0
M  END
>  <PUBCHEM_COMPOUND_CID>  (1) 
36963

>  <PUBCHEM_CONFORMER_RMSD>  (1) 
0.8

>  <PUBCHEM_CONFORMER_DIVERSEORDER>  (1) 
5
1
3
2
4

>  <PUBCHEM_MMFF94_PARTIAL_CHARGES>  (1) 
25
1 -0.34
11 0.28
12 0.42
14 1.02
15 1.02
16 -0.14
18 -0.15
19 -0.15
2 -0.34
20 -0.15
21 -0.15
22 0.19
3 -0.34
30 0.4
31 0.4
32 0.15
33 0.15
34 0.15
35 0.15
4 -0.34
5 -0.34
6 -0.34
7 -0.19
8 -0.68
9 -0.68

>  <PUBCHEM_EFFECTIVE_ROTOR_COUNT>  (1) 
6

>  <PUBCHEM_PHARMACOPHORE_FEATURES>  (1) 
6
1 17 hydrophobe
1 8 acceptor
1 8 donor
1 9 acceptor
1 9 donor
6 16 18 19 20 21 22 rings

>  <PUBCHEM_HEAVY_ATOM_COUNT>  (1) 
22

>  <PUBCHEM_ATOM_DEF_STEREO_COUNT>  (1) 
0

>  <PUBCHEM_ATOM_UDEF_STEREO_COUNT>  (1) 
2

>  <PUBCHEM_BOND_DEF_STEREO_COUNT>  (1) 
0

>  <PUBCHEM_BOND_UDEF_STEREO_COUNT>  (1) 
0

>  <PUBCHEM_ISOTOPIC_ATOM_COUNT>  (1) 
0

>  <PUBCHEM_COMPONENT_COUNT>  (1) 
1

>  <PUBCHEM_CACTVS_TAUTO_COUNT>  (1) 
1

>  <PUBCHEM_CONFORMER_ID>  (1) 
0000906300000005

>  <PUBCHEM_MMFF94_ENERGY>  (1) 
65.915

>  <PUBCHEM_FEATURE_SELFOVERLAP>  (1) 
30.446

>  <PUBCHEM_SHAPE_FINGERPRINT>  (1) 
10498660 4 18335134323902093564
10863032 1 17168424844234269107
10948715 1 17531794737090160261
11221954 11 17172639156334656372
11640471 11 17750213868778048738
121448 382 18187640366695945114
12173636 292 18130801013817548386
12403814 3 18187369869465465907
13024252 1 16008751333553479811
13583140 156 17821447959072353680
13693222 15 12035737543567761286
13764800 53 17313675845080828644
14142880 1 18334301946133914329
14614273 12 18334571369237265566
14817 1 11990506156104448675
15309172 13 18337962168660312911
15534591 1 17631463275699033281
15775835 57 18186512190260873246
16945 1 18272646831368712618
17349148 13 17774149107897860066
17357779 13 17840566408711157399
18186145 218 18341342106681339846
18219364 16 18408328778492685272
18981168 100 18272641329731903890
19868273 293 18260823796041937886
200 152 16200434676360570678
20449540 30 18340769363643359908
21524375 3 17969213443663029430
22802520 49 17561364006538854874
23402539 116 18191579968440240846
23419403 2 17554870441236420867
23557571 272 18199188571518743022
23559900 14 18201724999706716678
27216 239 17894354392850471308
3082319 5 17060617763917981172
469060 322 17823426074627094971
81228 2 18191876831878662722

>  <PUBCHEM_SHAPE_MULTIPOLES>  (1) 
390.09
6.36
2.45
1.67
7.27
1.53
-0.08
-1.83
1.7
-2.02
0.18
-0.96
-0.5
0.29

>  <PUBCHEM_SHAPE_SELFOVERLAP>  (1) 
825.627

>  <PUBCHEM_SHAPE_VOLUME>  (1) 
217.9

>  <PUBCHEM_COORDINATE_TYPE>  (1) 
2
5
10

$$$$
