36979
     RDKit          3D

 12 12  0  0  0  0  0  0  0  0999 V2000
   -2.3089   -0.4137    0.3463 O   0  0  0  0  0  0  0  0  0  0  0  0
    2.2893   -1.6546   -0.0626 O   0  0  0  0  0  0  0  0  0  0  0  0
   -0.0141   -1.0504    0.1417 C   0  0  0  0  0  0  0  0  0  0  0  0
   -0.6420    1.2824    0.1227 C   0  0  0  0  0  0  0  0  0  0  0  0
   -0.9980   -0.0638    0.2040 C   0  0  0  0  0  0  0  0  0  0  0  0
    1.6820    0.6554   -0.0833 C   0  0  0  0  0  0  0  0  0  0  0  0
    1.3260   -0.6909   -0.0019 C   0  0  0  0  0  0  0  0  0  0  0  0
    0.6981    1.6420   -0.0211 C   0  0  0  0  0  0  0  0  0  0  0  0
   -0.3954   -2.4934    0.2307 C   0  0  0  0  0  0  0  0  0  0  0  0
   -1.6813    2.3527    0.1883 C   0  0  0  0  0  0  0  0  0  0  0  0
    3.1113    1.0595   -0.2383 C   0  0  0  0  0  0  0  0  0  0  0  0
   -3.0669   -0.6255   -0.8263 C   0  0  0  0  0  0  0  0  0  0  0  0
  1  5  1  0
  1 12  1  0
  2  7  1  0
  3  5  2  0
  3  7  1  0
  3  9  1  0
  4  5  1  0
  4  8  2  0
  4 10  1  0
  6  7  2  0
  6  8  1  0
  6 11  1  0
M  END
>  <PUBCHEM_COMPOUND_CID>  (1) 
36979

>  <PUBCHEM_CONFORMER_RMSD>  (1) 
0.4

>  <PUBCHEM_CONFORMER_DIVERSEORDER>  (1) 
2
1

>  <PUBCHEM_MMFF94_PARTIAL_CHARGES>  (1) 
14
1 -0.36
10 0.14
11 0.14
12 0.28
13 0.15
2 -0.53
23 0.45
3 -0.14
4 -0.14
5 0.08
6 -0.14
7 0.08
8 -0.15
9 0.14

>  <PUBCHEM_EFFECTIVE_ROTOR_COUNT>  (1) 
1

>  <PUBCHEM_PHARMACOPHORE_FEATURES>  (1) 
3
1 1 acceptor
1 2 donor
6 3 4 5 6 7 8 rings

>  <PUBCHEM_HEAVY_ATOM_COUNT>  (1) 
12

>  <PUBCHEM_ATOM_DEF_STEREO_COUNT>  (1) 
0

>  <PUBCHEM_ATOM_UDEF_STEREO_COUNT>  (1) 
0

>  <PUBCHEM_BOND_DEF_STEREO_COUNT>  (1) 
0

>  <PUBCHEM_BOND_UDEF_STEREO_COUNT>  (1) 
0

>  <PUBCHEM_ISOTOPIC_ATOM_COUNT>  (1) 
0

>  <PUBCHEM_COMPONENT_COUNT>  (1) 
1

>  <PUBCHEM_CACTVS_TAUTO_COUNT>  (1) 
3

>  <PUBCHEM_CONFORMER_ID>  (1) 
0000907300000002

>  <PUBCHEM_MMFF94_ENERGY>  (1) 
44.5201

>  <PUBCHEM_FEATURE_SELFOVERLAP>  (1) 
15.223

>  <PUBCHEM_SHAPE_FINGERPRINT>  (1) 
11206711 2 18410298012028295324
12423570 1 11062337171750369645
12897270 3 18339361971395282076
13140716 1 17978231891463466848
13380535 76 18338513157446592274
14617773 55 18059579040243229529
16945 1 18338241582116148440
193761 8 18122344579731024049
20588541 1 18266180710859749170
21040471 1 18410017624057864952
21501502 16 18339361851278752408
2334 1 18410295770255618608
23402539 116 18341883147484325484
23402655 69 18339344315771211389
23419403 2 16532775156314869787
23552423 10 18263927631124756186
23559900 14 17910966738848566486
241688 4 18265333898022934856
2748010 2 18337394820707996228
353137 74 18408316696580740101
5084963 1 18130223757381039034
528886 8 18267581488678817203
53812654 25 18128518522299765886
63268167 104 18412824720119260643
66348 1 18267307705977958096

>  <PUBCHEM_SHAPE_MULTIPOLES>  (1) 
235.22
3.76
2.49
0.69
0.23
0.15
0.05
-0.22
0.74
-0.32
-0.22
-0.18
0.01
-0.19

>  <PUBCHEM_SHAPE_SELFOVERLAP>  (1) 
487.318

>  <PUBCHEM_SHAPE_VOLUME>  (1) 
138.3

>  <PUBCHEM_COORDINATE_TYPE>  (1) 
2
5
10

$$$$
