36984
     RDKit          3D

 17 17  0  0  1  0  0  0  0  0999 V2000
    1.6954    0.9502   -0.7575 O   0  0  0  0  0  0  0  0  0  0  0  0
    2.0062   -0.8091    0.7314 O   0  0  0  0  0  0  0  0  0  0  0  0
    5.4672   -0.8012    0.4948 O   0  0  0  0  0  0  0  0  0  0  0  0
    3.6270   -0.2863   -0.8418 N   0  0  0  0  0  0  0  0  0  0  0  0
   -3.1166    0.1100   -0.6171 C   0  0  0  0  0  0  0  0  0  0  0  0
   -3.0418   -1.4296   -0.5331 C   0  0  0  0  0  0  0  0  0  0  0  0
   -1.8756    0.8024   -0.0807 C   0  0  0  0  0  0  0  0  0  0  0  0
   -2.8830   -1.9431    0.9018 C   0  0  0  0  0  0  0  0  0  0  0  0
   -3.3910    0.5415   -2.0630 C   0  0  0  0  0  0  0  0  0  0  0  0
   -0.6562    0.5493   -0.6779 C   0  0  0  0  0  0  0  0  0  0  0  0
   -2.0008    1.6660    0.9900 C   0  0  0  0  0  0  0  0  0  0  0  0
   -2.8271   -3.4627    0.9438 C   0  0  0  0  0  0  0  0  0  0  0  0
    0.4832    1.1851   -0.1851 C   0  0  0  0  0  0  0  0  0  0  0  0
   -0.8615    2.3018    1.4829 C   0  0  0  0  0  0  0  0  0  0  0  0
    0.3806    2.0614    0.8954 C   0  0  0  0  0  0  0  0  0  0  0  0
    2.4158   -0.1235   -0.2007 C   0  0  0  0  0  0  0  0  0  0  0  0
    4.5781   -1.3121   -0.4830 C   0  0  0  0  0  0  0  0  0  0  0  0
  1 13  1  0
  1 16  1  0
  2 16  2  0
  3 17  1  0
  4 16  1  0
  4 17  1  0
  5  6  1  0
  5  7  1  0
  5  9  1  0
  6  8  1  0
  7 10  2  0
  7 11  1  0
  8 12  1  0
 10 13  1  0
 11 14  2  0
 13 15  2  0
 14 15  1  0
M  END
>  <PUBCHEM_COMPOUND_CID>  (1) 
36984

>  <PUBCHEM_CONFORMER_RMSD>  (1) 
0.8

>  <PUBCHEM_CONFORMER_DIVERSEORDER>  (1) 
1
346
62
120
122
74
255
128
343
331
212
261
64
327
310
271
281
177
232
142
58
221
57
300
191
160
337
125
330
71
267
83
31
334
229
194
197
235
269
218
7
277
14
47
153
131
192
166
326
213
248
280
108
188
102
257
317
12
272
133
325
159
204
227
28
151
60
15
116
130
243
40
182
184
103
308
33
335
162
3
144
82
306
26
38
169
298
321
109
78
219
174
283
6
333
211
251
230
339
242
341
146
237
86
90
301
195
228
287
170
249
113
49
89
23
69
107
92
196
180
129
123
79
45
172
223
95
259
185
322
323
338
67
319
240
245
187
156
4
226
345
106
244
225
152
273
311
266
56
329
52
241
236
314
246
147
254
309
118
264
167
278
332
155
268
141
205
290
200
258
189
18
202
73
179
247
148
98
138
252
193
340
336
11
135
186
24
209
320
215
53
270
127
295
157
27
149
75
161
32
238
48
265
207
178
80
104
312
233
260
88
101
39
61
85
217
68
176
292
165
275
274
30
164
21
99
93
231
305
41
110
119
115
55
54
136
286
42
316
121
5
100
10
94
183
91
65
203
318
256
250
175
262
190
35
222
299
124
239
37
105
201
328
140
16
81
279
303
59
70
224
154
253
313
17
276
29
87
97
20
36
111
284
342
158
315
216
112
288
294
84
263
137
168
220
198
51
13
293
285
25
126
289
307
76
63
171
173
208
22
291
163
96
139
324
44
282
19
206
77
344
2
8
132
150
181
199
50
304
72
9
145
134
117
43
46
296
210
114
234
143
34
297
66
302
214

>  <PUBCHEM_MMFF94_PARTIAL_CHARGES>  (1) 
19
1 -0.23
10 -0.15
11 -0.15
13 0.08
14 -0.15
15 -0.15
16 0.78
17 0.58
2 -0.57
26 0.15
27 0.15
3 -0.68
31 0.15
32 0.15
33 0.37
36 0.4
4 -0.73
5 0.14
7 -0.14

>  <PUBCHEM_EFFECTIVE_ROTOR_COUNT>  (1) 
7

>  <PUBCHEM_PHARMACOPHORE_FEATURES>  (1) 
7
1 12 hydrophobe
1 2 acceptor
1 3 acceptor
1 3 donor
1 4 donor
1 9 hydrophobe
6 7 10 11 13 14 15 rings

>  <PUBCHEM_HEAVY_ATOM_COUNT>  (1) 
17

>  <PUBCHEM_ATOM_DEF_STEREO_COUNT>  (1) 
0

>  <PUBCHEM_ATOM_UDEF_STEREO_COUNT>  (1) 
1

>  <PUBCHEM_BOND_DEF_STEREO_COUNT>  (1) 
0

>  <PUBCHEM_BOND_UDEF_STEREO_COUNT>  (1) 
0

>  <PUBCHEM_ISOTOPIC_ATOM_COUNT>  (1) 
0

>  <PUBCHEM_COMPONENT_COUNT>  (1) 
1

>  <PUBCHEM_CACTVS_TAUTO_COUNT>  (1) 
2

>  <PUBCHEM_CONFORMER_ID>  (1) 
0000907800000001

>  <PUBCHEM_MMFF94_ENERGY>  (1) 
35.3153

>  <PUBCHEM_FEATURE_SELFOVERLAP>  (1) 
35.565

>  <PUBCHEM_SHAPE_FINGERPRINT>  (1) 
10803635 8 17822281341035224302
11543360 7 17531252815444404748
11552529 35 13757486986384111652
12202030 40 18120086449752618981
12363563 72 17988639726850593845
12892183 10 12319736973021364884
14115302 16 18335145301843822229
14251731 5 18119255210119644987
14863182 85 16102491632189204531
18927931 339 18060424577918077030
200 152 18270953566387595996
221490 88 18190747616477976862
23466295 7 17968958485730541563
23526113 38 18196352931157036161
23559900 14 18410567405984591136
238078 22 18337403715695938590
5493415 88 18340487884255533385
57003041 14 18118128193810740923
633830 44 15068344505936551316
81228 2 17916596314911377785
8809292 202 18410294731079163895

>  <PUBCHEM_SHAPE_MULTIPOLES>  (1) 
327.26
8.03
2.87
1.4
11.47
1.5
0.24
5.85
1.37
-2.42
-1.64
-1.16
-0.29
0.78

>  <PUBCHEM_SHAPE_SELFOVERLAP>  (1) 
659.083

>  <PUBCHEM_SHAPE_VOLUME>  (1) 
190.5

>  <PUBCHEM_COORDINATE_TYPE>  (1) 
2
5
10

$$$$
