36989
     RDKit          3D

 21 22  0  0  1  0  0  0  0  0999 V2000
   -3.3514   -1.0316   -1.6051 S   0  0  0  0  0  0  0  0  0  0  0  0
    4.0123   -1.9721    1.8961 O   0  0  0  0  0  0  0  0  0  0  0  0
    4.1714    3.6580   -0.7731 O   0  0  0  0  0  0  0  0  0  0  0  0
    0.3665   -2.0477   -0.3389 N   0  0  0  0  0  0  0  0  0  0  0  0
    2.7477   -2.5637   -0.0762 C   0  0  0  0  0  0  0  0  0  0  0  0
    2.9443   -1.5378    1.0517 C   0  0  0  0  0  0  0  0  0  0  0  0
    1.6342   -2.1755   -1.0494 C   0  0  0  0  0  0  0  0  0  0  0  0
    3.2732   -0.1462    0.5634 C   0  0  0  0  0  0  0  0  0  0  0  0
   -0.7031   -1.6682   -1.2507 C   0  0  0  0  0  0  0  0  0  0  0  0
   -2.0068   -1.5048   -0.4793 C   0  0  0  0  0  0  0  0  0  0  0  0
    2.4613    0.9123    0.9357 C   0  0  0  0  0  0  0  0  0  0  0  0
    4.3798    0.0430   -0.2479 C   0  0  0  0  0  0  0  0  0  0  0  0
    2.7648    2.1967    0.4839 C   0  0  0  0  0  0  0  0  0  0  0  0
    4.6832    1.3274   -0.6995 C   0  0  0  0  0  0  0  0  0  0  0  0
    3.8756    2.4043   -0.3336 C   0  0  0  0  0  0  0  0  0  0  0  0
   -4.3972   -0.0658   -0.5211 C   0  0  0  0  0  0  0  0  0  0  0  0
   -4.9416   -0.6527    0.6170 C   0  0  0  0  0  0  0  0  0  0  0  0
   -4.6598    1.2669   -0.8224 C   0  0  0  0  0  0  0  0  0  0  0  0
   -5.7566    0.1005    1.4621 C   0  0  0  0  0  0  0  0  0  0  0  0
   -5.4747    2.0202    0.0226 C   0  0  0  0  0  0  0  0  0  0  0  0
   -6.0231    1.4369    1.1649 C   0  0  0  0  0  0  0  0  0  0  0  0
  1 10  1  0
  1 16  1  0
  2  6  1  0
  3 15  1  0
  4  7  1  0
  4  9  1  0
  5  6  1  0
  5  7  1  0
  6  8  1  0
  8 11  2  0
  8 12  1  0
  9 10  1  0
 11 13  1  0
 12 14  2  0
 13 15  2  0
 14 15  1  0
 16 17  2  0
 16 18  1  0
 17 19  1  0
 18 20  2  0
 19 21  2  0
 20 21  1  0
M  END
>  <PUBCHEM_COMPOUND_CID>  (1) 
36989

>  <PUBCHEM_CONFORMER_RMSD>  (1) 
0.8

>  <PUBCHEM_CONFORMER_DIVERSEORDER>  (1) 
6
394
123
29
399
332
225
14
135
420
229
414
398
233
412
437
368
219
362
220
268
114
356
35
8
334
273
429
49
217
300
410
306
54
416
18
365
236
440
15
408
246
183
453
150
311
63
97
203
325
227
93
106
30
222
57
144
17
340
189
462
401
191
275
53
331
196
363
254
103
348
442
138
468
234
132
415
288
33
179
376
210
240
264
34
158
87
121
71
82
274
338
92
296
430
178
404
346
423
42
88
297
129
313
118
396
4
157
116
461
450
215
13
108
22
367
69
327
134
431
168
355
162
418
205
245
156
62
422
388
83
326
184
232
95
32
11
181
389
23
369
392
433
403
466
40
171
322
113
167
19
12
44
253
100
212
73
262
312
105
204
271
339
111
432
289
427
177
243
248
324
104
136
380
211
28
242
276
58
400
267
469
295
43
38
107
90
25
72
170
84
465
145
292
444
454
149
413
318
224
343
303
37
3
284
128
393
471
27
417
75
341
357
424
451
137
291
81
247
7
330
323
439
143
441
169
208
5
151
94
299
48
141
359
102
309
250
154
256
395
133
257
186
244
117
161
68
305
397
64
21
46
165
386
378
160
198
443
237
80
317
173
350
455
194
155
266
428
41
409
199
122
159
99
255
447
26
148
70
352
310
50
147
47
2
89
333
277
473
206
280
265
91
448
425
419
56
354
166
192
24
51
366
197
182
328
358
249
230
76
142
364
98
119
360
435
379
382
130
321
1
214
66
407
16
405
112
374
377
152
10
370
307
464
463
269
457
375
460
231
385
314
336
308
282
320
125
279
445
20
163
383
459
421
52
187
190
342
373
188
36
258
345
77
101
110
319
226
218
391
202
251
31
85
185
139
45
301
270
390
252
39
67
371
235
65
61
384
335
402
239
180
438
329
278
290
259
470
131
281
472
458
302
60
387
353
260
298
74
124
351
241
372
86
263
456
361
79
153
59
261
293
221
436
78
238
349
347
172
120
446
109
452
411
96
287
146
406
337
126
164
213
176
286
207
381
223
9
195
201
285
283
127
175
140
304
209
193
228
315
294
55
316
426
200
216
272
174
467
449
434
115
344

>  <PUBCHEM_MMFF94_PARTIAL_CHARGES>  (1) 
32
1 -0.33
10 0.23
11 -0.15
12 -0.15
13 -0.15
14 -0.15
15 0.08
16 0.1
17 -0.15
18 -0.15
19 -0.15
2 -0.68
20 -0.15
21 -0.15
27 0.36
3 -0.53
32 0.15
33 0.15
34 0.4
35 0.15
36 0.15
37 0.15
38 0.15
39 0.15
4 -0.9
40 0.15
41 0.45
42 0.15
6 0.42
7 0.27
8 -0.14
9 0.27

>  <PUBCHEM_EFFECTIVE_ROTOR_COUNT>  (1) 
8

>  <PUBCHEM_PHARMACOPHORE_FEATURES>  (1) 
7
1 2 acceptor
1 2 donor
1 3 donor
1 4 cation
1 4 donor
6 16 17 18 19 20 21 rings
6 8 11 12 13 14 15 rings

>  <PUBCHEM_HEAVY_ATOM_COUNT>  (1) 
21

>  <PUBCHEM_ATOM_DEF_STEREO_COUNT>  (1) 
0

>  <PUBCHEM_ATOM_UDEF_STEREO_COUNT>  (1) 
1

>  <PUBCHEM_BOND_DEF_STEREO_COUNT>  (1) 
0

>  <PUBCHEM_BOND_UDEF_STEREO_COUNT>  (1) 
0

>  <PUBCHEM_ISOTOPIC_ATOM_COUNT>  (1) 
0

>  <PUBCHEM_COMPONENT_COUNT>  (1) 
1

>  <PUBCHEM_CACTVS_TAUTO_COUNT>  (1) 
2

>  <PUBCHEM_CONFORMER_ID>  (1) 
0000907D00000006

>  <PUBCHEM_MMFF94_ENERGY>  (1) 
42.1989

>  <PUBCHEM_FEATURE_SELFOVERLAP>  (1) 
35.522

>  <PUBCHEM_SHAPE_FINGERPRINT>  (1) 
10670039 82 16773527581234440475
10674148 151 18270974535552390532
12596602 18 17894915114274606955
12616971 3 18339351990202866747
12633257 1 18336528457000884062
12788726 201 17703519813217724577
13398642 44 17897457313385318581
13828863 39 18190748720189893189
14251740 57 12613021774224956080
14251764 38 18267026064046733953
14251764 75 18194126432769429636
14347332 77 7853571302046775207
14950920 106 17895185568112288227
151778 21 18411412925434759044
15238133 3 18201429286253893850
15348495 7 18114467769246799915
16760501 71 18411987966522848245
1768 23 17488485009085956609
17868525 174 18046893905869086034
20465049 17 18338812151948019924
20567600 9 18412543249574667748
21120745 212 17770211980239856863
23559900 14 17489594406911491502
245318 6 18262249931290244061
338550 245 18200313195551253841
3459 110 18336557118119445395
38570 142 18338531840648990148
397830 11 18336565858694196315
474 4 18342453729737563039
54076057 255 18263664891264980942
543358 83 18343018887277404502
57724786 102 18411985741133917559

>  <PUBCHEM_SHAPE_MULTIPOLES>  (1) 
419.3
15.61
3.41
1.44
16.56
1.19
-0.22
8.81
-3.03
-3.99
0.61
0.44
-0.37
-1.96

>  <PUBCHEM_SHAPE_SELFOVERLAP>  (1) 
853.914

>  <PUBCHEM_SHAPE_VOLUME>  (1) 
244.2

>  <PUBCHEM_COORDINATE_TYPE>  (1) 
2
5
10

$$$$
