36985
     RDKit          3D

 29 31  0  0  0  0  0  0  0  0999 V2000
   -6.5547    0.9201   -0.1266 O   0  0  0  0  0  0  0  0  0  0  0  0
    1.1882    1.6970   -0.2995 N   0  0  0  0  0  0  0  0  0  0  0  0
    1.0572   -0.4988    0.6845 N   0  0  0  0  0  0  0  0  0  0  0  0
    8.0542   -0.8277   -0.3447 C   0  0  0  0  0  0  0  0  0  0  0  0
    9.5779   -0.8979   -0.2035 C   0  0  0  0  0  0  0  0  0  0  0  0
    7.4338    0.3353    0.4513 C   0  0  0  0  0  0  0  0  0  0  0  0
   10.1525   -2.0793   -0.9863 C   0  0  0  0  0  0  0  0  0  0  0  0
    5.9452    0.3985    0.3904 C   0  0  0  0  0  0  0  0  0  0  0  0
   -9.3961   -1.5290    0.0859 C   0  0  0  0  0  0  0  0  0  0  0  0
   -8.5847   -0.3236   -0.3839 C   0  0  0  0  0  0  0  0  0  0  0  0
  -10.6998   -1.6624   -0.7007 C   0  0  0  0  0  0  0  0  0  0  0  0
    5.3186    1.1338   -0.6157 C   0  0  0  0  0  0  0  0  0  0  0  0
    5.1794   -0.2785    1.3396 C   0  0  0  0  0  0  0  0  0  0  0  0
   11.6604   -2.1776   -0.8190 C   0  0  0  0  0  0  0  0  0  0  0  0
   -7.2650   -0.2077    0.3656 C   0  0  0  0  0  0  0  0  0  0  0  0
    3.1603    0.5152    0.2765 C   0  0  0  0  0  0  0  0  0  0  0  0
    3.9261    1.1922   -0.6726 C   0  0  0  0  0  0  0  0  0  0  0  0
    3.7870   -0.2201    1.2827 C   0  0  0  0  0  0  0  0  0  0  0  0
  -11.4947   -2.8810   -0.2590 C   0  0  0  0  0  0  0  0  0  0  0  0
    1.7231    0.5744    0.2173 C   0  0  0  0  0  0  0  0  0  0  0  0
   -5.1864    0.8632   -0.0682 C   0  0  0  0  0  0  0  0  0  0  0  0
   -2.4016    0.7444    0.0473 C   0  0  0  0  0  0  0  0  0  0  0  0
   -0.9575    0.6849    0.1068 C   0  0  0  0  0  0  0  0  0  0  0  0
   -4.4196    1.5385   -1.0178 C   0  0  0  0  0  0  0  0  0  0  0  0
   -4.5609    0.1285    0.9391 C   0  0  0  0  0  0  0  0  0  0  0  0
   -3.0273    1.4791   -0.9600 C   0  0  0  0  0  0  0  0  0  0  0  0
   -3.1684    0.0691    0.9967 C   0  0  0  0  0  0  0  0  0  0  0  0
   -0.1601    1.7189   -0.3399 C   0  0  0  0  0  0  0  0  0  0  0  0
   -0.2873   -0.4096    0.6139 C   0  0  0  0  0  0  0  0  0  0  0  0
  1 15  1  0
  1 21  1  0
  2 20  2  0
  2 28  1  0
  3 20  1  0
  3 29  2  0
  4  5  1  0
  4  6  1  0
  5  7  1  0
  6  8  1  0
  7 14  1  0
  8 12  2  0
  8 13  1  0
  9 10  1  0
  9 11  1  0
 10 15  1  0
 11 19  1  0
 12 17  1  0
 13 18  2  0
 16 17  2  0
 16 18  1  0
 16 20  1  0
 21 24  2  0
 21 25  1  0
 22 23  1  0
 22 26  2  0
 22 27  1  0
 23 28  2  0
 23 29  1  0
 24 26  1  0
 25 27  2  0
M  END
>  <PUBCHEM_COMPOUND_CID>  (1) 
36985

>  <PUBCHEM_CONFORMER_RMSD>  (1) 
1

>  <PUBCHEM_CONFORMER_DIVERSEORDER>  (1) 
1
10
17
23
22
2
31
7
11
12
25
24
30
27
20
28
14
6
3
26
32
16
9
15
4
18
21
19
5
33
13
29
8

>  <PUBCHEM_MMFF94_PARTIAL_CHARGES>  (1) 
28
1 -0.36
12 -0.15
13 -0.15
15 0.28
17 -0.15
18 -0.15
2 -0.62
20 0.62
21 0.08
24 -0.15
25 -0.15
26 -0.15
27 -0.15
28 0.16
29 0.16
3 -0.62
44 0.15
45 0.15
51 0.15
52 0.15
56 0.15
57 0.15
58 0.15
59 0.15
6 0.14
60 0.15
61 0.15
8 -0.14

>  <PUBCHEM_EFFECTIVE_ROTOR_COUNT>  (1) 
11

>  <PUBCHEM_PHARMACOPHORE_FEATURES>  (1) 
9
1 1 acceptor
1 14 hydrophobe
1 19 hydrophobe
1 3 acceptor
3 2 3 20 cation
4 4 5 6 7 hydrophobe
6 2 3 20 23 28 29 rings
6 21 22 24 25 26 27 rings
6 8 12 13 16 17 18 rings

>  <PUBCHEM_HEAVY_ATOM_COUNT>  (1) 
29

>  <PUBCHEM_ATOM_DEF_STEREO_COUNT>  (1) 
0

>  <PUBCHEM_ATOM_UDEF_STEREO_COUNT>  (1) 
0

>  <PUBCHEM_BOND_DEF_STEREO_COUNT>  (1) 
0

>  <PUBCHEM_BOND_UDEF_STEREO_COUNT>  (1) 
0

>  <PUBCHEM_ISOTOPIC_ATOM_COUNT>  (1) 
0

>  <PUBCHEM_COMPONENT_COUNT>  (1) 
1

>  <PUBCHEM_CACTVS_TAUTO_COUNT>  (1) 
1

>  <PUBCHEM_CONFORMER_ID>  (1) 
0000907900000001

>  <PUBCHEM_MMFF94_ENERGY>  (1) 
72.6719

>  <PUBCHEM_FEATURE_SELFOVERLAP>  (1) 
45.671

>  <PUBCHEM_SHAPE_FINGERPRINT>  (1) 
10 15 13398638273395391061
10162869 55 17385720322351834069
10429389 143 10881400936967075894
10533779 47 14620525501892261868
10674148 151 10952051156912956111
11211813 128 18412262848640720879
11315181 36 13768215973582553789
11408170 108 17060064680253824798
11463208 3 18342460339349710830
11638347 137 17703791410254274594
12089408 11 18342461443198113985
12498461 61 17417806267101800631
12522641 33 13117997786823418608
12539745 222 17988365875478562777
13553643 46 11600004340960816659
14202775 3 18342181063406831095
14251764 18 17385439903837176617
14251764 46 17846499235703874592
15065858 18 18343857814333126881
15247644 1 18273215300445670295
15461852 350 17967811644211236813
15510794 2 18272654536550571510
155225 1 8142085359991867654
15840311 113 18114746035830440028
16120349 18 17531246209468770452
20105231 36 18410576155033530402
2026 5 17915182305353327342
21095086 128 18342175565837213490
21102433 48 18412542098693204942
21267235 1 18187652380241724184
21362267 313 9222963551923184228
21792961 116 18261397719304575817
232437 2 18342739615281241490
23569917 315 18340772550546887214
249057 3 16153432765511540544
306946 40 11458425751995360814
335352 9 17530965786853304008
4073 2 15195271080285866876
4325135 7 17894348882322729061
4760202 170 13407083625623189878
5381727 24 18273494572061362031
54039377 194 18409165520068872093
636775 8 17313114059643618515

>  <PUBCHEM_SHAPE_MULTIPOLES>  (1) 
580.98
42.1
2.03
1.04
9.09
1.07
0.09
41.9
-10.38
1.49
-0.69
-0.62
0.03
1.04

>  <PUBCHEM_SHAPE_SELFOVERLAP>  (1) 
1218.643

>  <PUBCHEM_SHAPE_VOLUME>  (1) 
328.1

>  <PUBCHEM_COORDINATE_TYPE>  (1) 
2
5
10

$$$$
