37005
     RDKit          3D

 24 26  0  0  1  0  0  0  0  0999 V2000
    1.9864   -0.5352    1.1662 O   0  0  0  0  0  0  0  0  0  0  0  0
   -0.3893    0.0358    2.8485 O   0  0  0  0  0  0  0  0  0  0  0  0
   -0.8000    1.2210    0.8487 N   0  0  0  0  0  0  0  0  0  0  0  0
    3.1134   -2.5164   -0.5339 N   0  0  0  0  0  0  0  0  0  0  0  0
    1.4565    0.7561    1.3956 C   0  0  0  0  0  0  0  0  0  0  0  0
    1.3370    1.4983    0.0957 C   0  0  0  0  0  0  0  0  0  0  0  0
   -0.0081    1.7483   -0.1804 C   0  0  0  0  0  0  0  0  0  0  0  0
   -0.0142    0.6063    1.8343 C   0  0  0  0  0  0  0  0  0  0  0  0
    2.2720    1.4989    2.4441 C   0  0  0  0  0  0  0  0  0  0  0  0
   -2.2410    1.3008    0.8891 C   0  0  0  0  0  0  0  0  0  0  0  0
    2.3280    1.9180   -0.7756 C   0  0  0  0  0  0  0  0  0  0  0  0
   -0.4057    2.4210   -1.3231 C   0  0  0  0  0  0  0  0  0  0  0  0
    1.1583   -1.2994    0.2960 C   0  0  0  0  0  0  0  0  0  0  0  0
   -2.8871    0.1186    0.2170 C   0  0  0  0  0  0  0  0  0  0  0  0
    1.9451    2.5988   -1.9340 C   0  0  0  0  0  0  0  0  0  0  0  0
    0.5891    2.8484   -2.2051 C   0  0  0  0  0  0  0  0  0  0  0  0
    1.8015   -2.6599    0.0795 C   0  0  0  0  0  0  0  0  0  0  0  0
   -3.1766    0.1776   -1.1392 C   0  0  0  0  0  0  0  0  0  0  0  0
   -3.1840   -1.0137    0.9627 C   0  0  0  0  0  0  0  0  0  0  0  0
    3.0126   -1.8105   -1.8137 C   0  0  0  0  0  0  0  0  0  0  0  0
    3.7413   -3.8257   -0.7271 C   0  0  0  0  0  0  0  0  0  0  0  0
   -3.7750   -0.9176   -1.7621 C   0  0  0  0  0  0  0  0  0  0  0  0
   -3.7824   -2.1090    0.3396 C   0  0  0  0  0  0  0  0  0  0  0  0
   -4.0778   -2.0607   -1.0228 C   0  0  0  0  0  0  0  0  0  0  0  0
  1  5  1  0
  1 13  1  0
  2  8  2  0
  3  7  1  0
  3  8  1  0
  3 10  1  0
  4 17  1  0
  4 20  1  0
  4 21  1  0
  5  6  1  0
  5  8  1  0
  5  9  1  0
  6  7  2  0
  6 11  1  0
  7 12  1  0
 10 14  1  0
 11 15  2  0
 12 16  2  0
 13 17  1  0
 14 18  2  0
 14 19  1  0
 15 16  1  0
 18 22  1  0
 19 23  2  0
 22 24  2  0
 23 24  1  0
M  END
>  <PUBCHEM_COMPOUND_CID>  (1) 
37005

>  <PUBCHEM_CONFORMER_RMSD>  (1) 
0.8

>  <PUBCHEM_CONFORMER_DIVERSEORDER>  (1) 
6
24
35
15
12
5
32
46
30
33
43
36
2
4
47
49
10
1
41
37
18
7
40
13
39
31
48
21
27
8
16
44
14
45
19
29
3
42
26
34
22
50
38
17
28
25
11
20
23
9

>  <PUBCHEM_MMFF94_PARTIAL_CHARGES>  (1) 
32
1 -0.56
10 0.44
11 -0.15
12 -0.15
13 0.28
14 -0.14
15 -0.15
16 -0.15
17 0.27
18 -0.15
19 -0.15
2 -0.57
20 0.27
21 0.27
22 -0.15
23 -0.15
24 -0.15
3 -0.48
30 0.15
31 0.15
34 0.15
37 0.15
38 0.15
39 0.15
4 -0.81
46 0.15
47 0.15
48 0.15
5 0.48
6 -0.14
7 0.12
8 0.57

>  <PUBCHEM_EFFECTIVE_ROTOR_COUNT>  (1) 
6.4

>  <PUBCHEM_PHARMACOPHORE_FEATURES>  (1) 
6
1 1 acceptor
1 2 acceptor
1 4 cation
5 3 5 6 7 8 rings
6 14 18 19 22 23 24 rings
6 6 7 11 12 15 16 rings

>  <PUBCHEM_HEAVY_ATOM_COUNT>  (1) 
24

>  <PUBCHEM_ATOM_DEF_STEREO_COUNT>  (1) 
0

>  <PUBCHEM_ATOM_UDEF_STEREO_COUNT>  (1) 
1

>  <PUBCHEM_BOND_DEF_STEREO_COUNT>  (1) 
0

>  <PUBCHEM_BOND_UDEF_STEREO_COUNT>  (1) 
0

>  <PUBCHEM_ISOTOPIC_ATOM_COUNT>  (1) 
0

>  <PUBCHEM_COMPONENT_COUNT>  (1) 
1

>  <PUBCHEM_CACTVS_TAUTO_COUNT>  (1) 
1

>  <PUBCHEM_CONFORMER_ID>  (1) 
0000908D00000006

>  <PUBCHEM_MMFF94_ENERGY>  (1) 
76.7955

>  <PUBCHEM_FEATURE_SELFOVERLAP>  (1) 
30.533

>  <PUBCHEM_SHAPE_FINGERPRINT>  (1) 
11477941 20 17539446170643660950
11488393 25 17826258438060233890
11578080 2 18200585883273245040
116883 192 18116693163374774061
12553582 1 18044377123710928355
12969540 37 18201988911697113814
13583140 156 16844137152491661768
14863182 85 18054498372883538867
15163728 17 13551484678284559740
15219462 58 17845917594338287377
17357779 13 18196632043416626071
17980427 23 17970884860293847993
20602899 9 17691158201765961660
20775530 9 18271242725061344775
21421566 26 17903935352617658798
21452121 71 17988368053036764274
22889148 1 17030202892512719181
23419403 2 17841681077430773786
238 59 17389095956499229877
25222932 49 16554499569645891199
26353 1 17968380022407267116
4280585 95 18188480269009780754
46194498 28 17968371359943709567
5262128 65 18040989674704502769

>  <PUBCHEM_SHAPE_MULTIPOLES>  (1) 
472.21
6.53
4
2.39
5.4
2.22
0.62
5.83
-2.15
-4.14
-2.25
-0.73
-1.12
0.25

>  <PUBCHEM_SHAPE_SELFOVERLAP>  (1) 
1013.046

>  <PUBCHEM_SHAPE_VOLUME>  (1) 
264.9

>  <PUBCHEM_COORDINATE_TYPE>  (1) 
2
5
10

$$$$
