37009
     RDKit          3D

 27 30  0  0  1  0  0  0  0  0999 V2000
   -0.6926    2.1357    1.3888 O   0  0  0  0  0  0  0  0  0  0  0  0
   -1.7150   -0.2871    2.7620 O   0  0  0  0  0  0  0  0  0  0  0  0
    4.1101    1.8500    0.9009 N   0  0  0  0  0  0  0  0  0  0  0  0
   -2.1546   -0.6896    0.4778 N   0  0  0  0  0  0  0  0  0  0  0  0
    2.8459    1.2166    0.5049 C   0  0  0  0  0  0  0  0  0  0  0  0
    2.7224    1.1571   -1.0238 C   0  0  0  0  0  0  0  0  0  0  0  0
   -1.9693    1.5673    1.1702 C   0  0  0  0  0  0  0  0  0  0  0  0
    1.6829    2.0040    1.1062 C   0  0  0  0  0  0  0  0  0  0  0  0
    3.9182    0.4425   -1.6473 C   0  0  0  0  0  0  0  0  0  0  0  0
    5.2245    1.0583   -1.1579 C   0  0  0  0  0  0  0  0  0  0  0  0
    5.2656    1.1292    0.3666 C   0  0  0  0  0  0  0  0  0  0  0  0
    0.3432    1.3455    0.8146 C   0  0  0  0  0  0  0  0  0  0  0  0
   -2.2331    1.4537   -0.3038 C   0  0  0  0  0  0  0  0  0  0  0  0
   -1.9274    0.0928    1.6194 C   0  0  0  0  0  0  0  0  0  0  0  0
   -2.3343    0.1081   -0.6604 C   0  0  0  0  0  0  0  0  0  0  0  0
   -3.0437    2.3419    1.9195 C   0  0  0  0  0  0  0  0  0  0  0  0
   -2.1975   -2.1327    0.4754 C   0  0  0  0  0  0  0  0  0  0  0  0
   -2.3703    2.4502   -1.2554 C   0  0  0  0  0  0  0  0  0  0  0  0
   -2.5761   -0.2847   -1.9656 C   0  0  0  0  0  0  0  0  0  0  0  0
   -2.6149    2.0721   -2.5780 C   0  0  0  0  0  0  0  0  0  0  0  0
   -0.8443   -2.7347    0.2296 C   0  0  0  0  0  0  0  0  0  0  0  0
   -2.7172    0.7157   -2.9298 C   0  0  0  0  0  0  0  0  0  0  0  0
   -0.4368   -3.0025   -1.0721 C   0  0  0  0  0  0  0  0  0  0  0  0
   -0.0121   -3.0187    1.3062 C   0  0  0  0  0  0  0  0  0  0  0  0
    0.8203   -3.5623   -1.3003 C   0  0  0  0  0  0  0  0  0  0  0  0
    1.2449   -3.5783    1.0780 C   0  0  0  0  0  0  0  0  0  0  0  0
    1.6612   -3.8501   -0.2254 C   0  0  0  0  0  0  0  0  0  0  0  0
  1  7  1  0
  1 12  1  0
  2 14  2  0
  3  5  1  0
  3 11  1  0
  4 14  1  0
  4 15  1  0
  4 17  1  0
  5  6  1  0
  5  8  1  0
  6  9  1  0
  7 13  1  0
  7 14  1  0
  7 16  1  0
  8 12  1  0
  9 10  1  0
 10 11  1  0
 13 15  2  0
 13 18  1  0
 15 19  1  0
 17 21  1  0
 18 20  2  0
 19 22  2  0
 20 22  1  0
 21 23  2  0
 21 24  1  0
 23 25  1  0
 24 26  2  0
 25 27  2  0
 26 27  1  0
M  END
>  <PUBCHEM_COMPOUND_CID>  (1) 
37009

>  <PUBCHEM_CONFORMER_RMSD>  (1) 
0.8

>  <PUBCHEM_CONFORMER_DIVERSEORDER>  (1) 
3
92
177
81
115
165
47
60
121
142
49
143
55
187
219
154
16
215
113
76
129
56
50
83
53
12
237
186
91
100
136
120
227
182
236
62
5
178
199
1
169
234
128
222
216
212
59
242
2
125
194
48
238
119
61
69
167
97
202
105
185
135
233
40
28
29
114
210
42
124
75
226
183
117
79
225
96
148
133
80
88
192
171
57
168
127
179
63
161
64
217
43
230
112
26
201
102
99
214
98
235
45
46
146
52
184
231
82
163
221
9
160
118
67
240
162
137
196
21
38
95
239
106
190
156
24
243
109
122
228
172
73
207
27
111
195
58
189
203
44
101
35
77
31
174
10
223
37
198
144
4
107
36
8
30
218
130
32
211
166
19
15
25
244
104
175
116
224
54
191
6
170
84
39
138
204
158
23
206
232
208
140
126
176
7
20
209
147
200
157
241
132
74
245
86
68
110
131
150
152
14
155
34
180
51
94
193
134
85
13
11
78
87
89
72
17
22
108
153
18
103
188
65
66
145
197
181
151
220
71
159
41
149
173
90
93
164
229
205
33
141
123
213
70
139

>  <PUBCHEM_MMFF94_PARTIAL_CHARGES>  (1) 
32
1 -0.56
11 0.27
12 0.28
13 -0.14
14 0.57
15 0.12
17 0.44
18 -0.15
19 -0.15
2 -0.57
20 -0.15
21 -0.14
22 -0.15
23 -0.15
24 -0.15
25 -0.15
26 -0.15
27 -0.15
3 -0.9
37 0.36
4 -0.48
47 0.15
48 0.15
49 0.15
5 0.27
50 0.15
51 0.15
52 0.15
53 0.15
54 0.15
55 0.15
7 0.48

>  <PUBCHEM_EFFECTIVE_ROTOR_COUNT>  (1) 
7.6

>  <PUBCHEM_PHARMACOPHORE_FEATURES>  (1) 
8
1 1 acceptor
1 2 acceptor
1 3 cation
1 3 donor
5 4 7 13 14 15 rings
6 13 15 18 19 20 22 rings
6 21 23 24 25 26 27 rings
6 3 5 6 9 10 11 rings

>  <PUBCHEM_HEAVY_ATOM_COUNT>  (1) 
27

>  <PUBCHEM_ATOM_DEF_STEREO_COUNT>  (1) 
0

>  <PUBCHEM_ATOM_UDEF_STEREO_COUNT>  (1) 
2

>  <PUBCHEM_BOND_DEF_STEREO_COUNT>  (1) 
0

>  <PUBCHEM_BOND_UDEF_STEREO_COUNT>  (1) 
0

>  <PUBCHEM_ISOTOPIC_ATOM_COUNT>  (1) 
0

>  <PUBCHEM_COMPONENT_COUNT>  (1) 
1

>  <PUBCHEM_CACTVS_TAUTO_COUNT>  (1) 
1

>  <PUBCHEM_CONFORMER_ID>  (1) 
0000909100000003

>  <PUBCHEM_MMFF94_ENERGY>  (1) 
64.2279

>  <PUBCHEM_FEATURE_SELFOVERLAP>  (1) 
40.684

>  <PUBCHEM_SHAPE_FINGERPRINT>  (1) 
107951 10 18128561304511368293
11578080 2 17825685361043491709
12156800 1 16834814514102009086
133893 2 18047177566841472203
13615921 28 17405745508891415262
14114207 22 17248033841820926298
14251757 5 17975989970744306366
14279260 333 17048568074757158974
14468879 13 17676763176248803445
15463212 79 17969210313127678000
20600515 1 17762069035029835583
20775530 9 17259064520253589230
21285901 2 16826958653571144391
21330990 113 18335421331134070331
22907989 373 18115865376688770653
23419403 2 17609512522989566241
238 59 18265880380950463150
25265897 201 16082504245577363686
26353 1 16962936355978650764
3027735 51 18337664317163551287
3298306 158 18336815408197527590
35225 105 18195509605680666022
469060 322 17970360418990386643

>  <PUBCHEM_SHAPE_MULTIPOLES>  (1) 
533.95
7.24
4.8
2.52
10.75
5.79
0.64
-6.25
2.04
1.02
-0.27
-2.18
-0.93
0.38

>  <PUBCHEM_SHAPE_SELFOVERLAP>  (1) 
1148.901

>  <PUBCHEM_SHAPE_VOLUME>  (1) 
295.9

>  <PUBCHEM_COORDINATE_TYPE>  (1) 
2
5
10

$$$$
