37003
     RDKit          3D

 26 29  0  0  1  0  0  0  0  0999 V2000
    0.9022   -0.3728    2.8442 O   0  0  0  0  0  0  0  0  0  0  0  0
   -5.1365    1.5240   -0.9684 O   0  0  0  0  0  0  0  0  0  0  0  0
    1.8581   -0.7460    0.7206 N   0  0  0  0  0  0  0  0  0  0  0  0
   -2.8202    0.5495    0.3683 N   0  0  0  0  0  0  0  0  0  0  0  0
   -0.1088   -1.9639    1.2595 C   0  0  0  0  0  0  0  0  0  0  0  0
   -1.4971   -1.3265    1.2138 C   0  0  0  0  0  0  0  0  0  0  0  0
    0.4034   -2.2913   -0.1215 C   0  0  0  0  0  0  0  0  0  0  0  0
    0.9243   -0.9218    1.7515 C   0  0  0  0  0  0  0  0  0  0  0  0
   -1.4876   -0.0504    0.3810 C   0  0  0  0  0  0  0  0  0  0  0  0
    1.5567   -1.5506   -0.3856 C   0  0  0  0  0  0  0  0  0  0  0  0
   -0.0827   -3.1848    2.1788 C   0  0  0  0  0  0  0  0  0  0  0  0
    2.9953    0.1423    0.7676 C   0  0  0  0  0  0  0  0  0  0  0  0
   -0.1036   -3.1686   -1.0665 C   0  0  0  0  0  0  0  0  0  0  0  0
   -3.7978   -0.3638   -0.2397 C   0  0  0  0  0  0  0  0  0  0  0  0
   -2.8094    1.8291   -0.3542 C   0  0  0  0  0  0  0  0  0  0  0  0
    2.2348   -1.6589   -1.5878 C   0  0  0  0  0  0  0  0  0  0  0  0
   -5.1773    0.2884   -0.2535 C   0  0  0  0  0  0  0  0  0  0  0  0
   -4.2123    2.4296   -0.3641 C   0  0  0  0  0  0  0  0  0  0  0  0
    0.5680   -3.2906   -2.2854 C   0  0  0  0  0  0  0  0  0  0  0  0
    1.7278   -2.5415   -2.5439 C   0  0  0  0  0  0  0  0  0  0  0  0
    2.6555    1.5160    0.2534 C   0  0  0  0  0  0  0  0  0  0  0  0
    2.8139    1.7990   -1.0961 C   0  0  0  0  0  0  0  0  0  0  0  0
    2.1891    2.4801    1.1359 C   0  0  0  0  0  0  0  0  0  0  0  0
    2.4996    3.0718   -1.5726 C   0  0  0  0  0  0  0  0  0  0  0  0
    1.8747    3.7528    0.6596 C   0  0  0  0  0  0  0  0  0  0  0  0
    2.0299    4.0487   -0.6947 C   0  0  0  0  0  0  0  0  0  0  0  0
  1  8  2  0
  2 17  1  0
  2 18  1  0
  3  8  1  0
  3 10  1  0
  3 12  1  0
  4  9  1  0
  4 14  1  0
  4 15  1  0
  5  6  1  0
  5  7  1  0
  5  8  1  0
  5 11  1  0
  6  9  1  0
  7 10  2  0
  7 13  1  0
 10 16  1  0
 12 21  1  0
 13 19  2  0
 14 17  1  0
 15 18  1  0
 16 20  2  0
 19 20  1  0
 21 22  2  0
 21 23  1  0
 22 24  1  0
 23 25  2  0
 24 26  2  0
 25 26  1  0
M  END
>  <PUBCHEM_COMPOUND_CID>  (1) 
37003

>  <PUBCHEM_CONFORMER_RMSD>  (1) 
0.8

>  <PUBCHEM_CONFORMER_DIVERSEORDER>  (1) 
3
22
44
49
20
50
47
27
8
32
36
12
31
37
16
38
46
21
23
7
24
10
43
41
15
30
34
4
17
28
18
45
39
6
42
40
11
1
19
33
26
9
14
35
25
29
13
48
2
5

>  <PUBCHEM_MMFF94_PARTIAL_CHARGES>  (1) 
33
1 -0.57
10 0.12
12 0.44
13 -0.15
14 0.27
15 0.27
16 -0.15
17 0.28
18 0.28
19 -0.15
2 -0.56
20 -0.15
21 -0.14
22 -0.15
23 -0.15
24 -0.15
25 -0.15
26 -0.15
3 -0.48
36 0.15
4 -0.81
41 0.15
46 0.15
47 0.15
48 0.15
49 0.15
5 0.2
50 0.15
51 0.15
52 0.15
7 -0.14
8 0.57
9 0.27

>  <PUBCHEM_EFFECTIVE_ROTOR_COUNT>  (1) 
6.6

>  <PUBCHEM_PHARMACOPHORE_FEATURES>  (1) 
7
1 1 acceptor
1 2 acceptor
1 4 cation
5 3 5 7 8 10 rings
6 2 4 14 15 17 18 rings
6 21 22 23 24 25 26 rings
6 7 10 13 16 19 20 rings

>  <PUBCHEM_HEAVY_ATOM_COUNT>  (1) 
26

>  <PUBCHEM_ATOM_DEF_STEREO_COUNT>  (1) 
0

>  <PUBCHEM_ATOM_UDEF_STEREO_COUNT>  (1) 
1

>  <PUBCHEM_BOND_DEF_STEREO_COUNT>  (1) 
0

>  <PUBCHEM_BOND_UDEF_STEREO_COUNT>  (1) 
0

>  <PUBCHEM_ISOTOPIC_ATOM_COUNT>  (1) 
0

>  <PUBCHEM_COMPONENT_COUNT>  (1) 
1

>  <PUBCHEM_CACTVS_TAUTO_COUNT>  (1) 
1

>  <PUBCHEM_CONFORMER_ID>  (1) 
0000908B00000003

>  <PUBCHEM_MMFF94_ENERGY>  (1) 
72.1513

>  <PUBCHEM_FEATURE_SELFOVERLAP>  (1) 
35.608

>  <PUBCHEM_SHAPE_FINGERPRINT>  (1) 
10871710 139 16969146419106339796
11221954 11 18262529219906618921
11763715 3 16452385802971104450
12156800 1 15599956358984263741
12788726 201 17327731207166772029
13761468 95 17400405549950957716
14537116 161 17472970706814289261
15210252 30 17684390372457495020
15219462 58 17680433552769928410
161222 619 17972905784799465161
17980427 23 18051374527257587643
20567600 299 18270955748337074697
21524375 3 18337387248538046880
21857420 4 17688014324017384037
21860390 5 18267015068587116893
23559900 14 18057596561234135895
238 59 18342189885237137908
26353 1 17480888340687679478
3493558 16 16305966038370514679
35225 105 17906183093413430173
394071 54 18337956697848462981
46194498 28 18271250417874669191
474 4 18259980470792349121
5081480 168 17698192584996928637
5262128 65 18055926402575736615
5939293 188 18262507100835899520
6287921 2 18343589521175011119

>  <PUBCHEM_SHAPE_MULTIPOLES>  (1) 
513.37
6.78
5.32
2.22
10.22
1.26
-0.21
7.54
1.95
-2.55
1.81
-1.13
-1.97
1.03

>  <PUBCHEM_SHAPE_SELFOVERLAP>  (1) 
1110.006

>  <PUBCHEM_SHAPE_VOLUME>  (1) 
283.5

>  <PUBCHEM_COORDINATE_TYPE>  (1) 
2
5
10

$$$$
