37011
     RDKit          3D

 27 29  0  0  1  0  0  0  0  0999 V2000
    1.2160    0.7951    1.7333 O   0  0  0  0  0  0  0  0  0  0  0  0
   -1.5398    1.6304    2.4457 O   0  0  0  0  0  0  0  0  0  0  0  0
   -1.5694    1.4936    0.0892 N   0  0  0  0  0  0  0  0  0  0  0  0
    3.1283   -1.6259    0.1489 N   0  0  0  0  0  0  0  0  0  0  0  0
    0.5226    1.8715    1.1324 C   0  0  0  0  0  0  0  0  0  0  0  0
    0.6486    1.7907   -0.3618 C   0  0  0  0  0  0  0  0  0  0  0  0
   -0.6079    1.5686   -0.9277 C   0  0  0  0  0  0  0  0  0  0  0  0
   -0.9885    1.6601    1.3548 C   0  0  0  0  0  0  0  0  0  0  0  0
    0.9839    3.2028    1.7076 C   0  0  0  0  0  0  0  0  0  0  0  0
   -2.9781    1.2733   -0.1373 C   0  0  0  0  0  0  0  0  0  0  0  0
    0.7016   -0.4647    1.3144 C   0  0  0  0  0  0  0  0  0  0  0  0
    1.7746    1.9004   -1.1601 C   0  0  0  0  0  0  0  0  0  0  0  0
    1.5061   -1.5717    1.9822 C   0  0  0  0  0  0  0  0  0  0  0  0
   -0.7816    1.4520   -2.2961 C   0  0  0  0  0  0  0  0  0  0  0  0
    2.9797   -1.5048    1.5941 C   0  0  0  0  0  0  0  0  0  0  0  0
    1.6181    1.7855   -2.5437 C   0  0  0  0  0  0  0  0  0  0  0  0
   -3.3255   -0.1873   -0.1368 C   0  0  0  0  0  0  0  0  0  0  0  0
    0.3500    1.5635   -3.1068 C   0  0  0  0  0  0  0  0  0  0  0  0
    2.5827   -2.9007   -0.3207 C   0  0  0  0  0  0  0  0  0  0  0  0
    4.5352   -1.5033   -0.2369 C   0  0  0  0  0  0  0  0  0  0  0  0
   -3.2852   -0.9039   -1.3272 C   0  0  0  0  0  0  0  0  0  0  0  0
   -3.6834   -0.8088    1.0540 C   0  0  0  0  0  0  0  0  0  0  0  0
    2.6709   -3.0117   -1.8333 C   0  0  0  0  0  0  0  0  0  0  0  0
    5.1227   -0.1861    0.2406 C   0  0  0  0  0  0  0  0  0  0  0  0
   -3.6077   -2.2610   -1.3269 C   0  0  0  0  0  0  0  0  0  0  0  0
   -4.0058   -2.1659    1.0541 C   0  0  0  0  0  0  0  0  0  0  0  0
   -3.9679   -2.8920   -0.1363 C   0  0  0  0  0  0  0  0  0  0  0  0
  1  5  1  0
  1 11  1  0
  2  8  2  0
  3  7  1  0
  3  8  1  0
  3 10  1  0
  4 15  1  0
  4 19  1  0
  4 20  1  0
  5  6  1  0
  5  8  1  0
  5  9  1  0
  6  7  2  0
  6 12  1  0
  7 14  1  0
 10 17  1  0
 11 13  1  0
 12 16  2  0
 13 15  1  0
 14 18  2  0
 16 18  1  0
 17 21  2  0
 17 22  1  0
 19 23  1  0
 20 24  1  0
 21 25  1  0
 22 26  2  0
 25 27  2  0
 26 27  1  0
M  END
>  <PUBCHEM_COMPOUND_CID>  (1) 
37011

>  <PUBCHEM_CONFORMER_RMSD>  (1) 
1

>  <PUBCHEM_CONFORMER_DIVERSEORDER>  (1) 
2
39
115
4
48
108
32
114
68
63
54
109
84
20
81
121
52
122
85
94
96
119
67
76
88
112
61
90
117
71
120
25
75
33
116
3
93
105
107
5
126
51
30
45
128
10
72
12
127
55
74
1
97
44
77
79
8
110
18
53
100
59
65
9
31
123
73
82
104
16
11
15
129
113
58
92
49
57
6
29
27
38
78
41
37
83
62
13
118
50
125
69
102
28
111
43
56
101
42
80
23
95
21
87
35
70
98
64
103
89
14
46
19
106
24
99
26
40
60
17
91
22
36
7
86
124
66
47
34

>  <PUBCHEM_MMFF94_PARTIAL_CHARGES>  (1) 
32
1 -0.56
10 0.44
11 0.28
12 -0.15
14 -0.15
15 0.27
16 -0.15
17 -0.14
18 -0.15
19 0.27
2 -0.57
20 0.27
21 -0.15
22 -0.15
25 -0.15
26 -0.15
27 -0.15
3 -0.48
35 0.15
38 0.15
4 -0.81
41 0.15
42 0.15
47 0.15
48 0.15
5 0.48
55 0.15
56 0.15
57 0.15
6 -0.14
7 0.12
8 0.57

>  <PUBCHEM_EFFECTIVE_ROTOR_COUNT>  (1) 
9.4

>  <PUBCHEM_PHARMACOPHORE_FEATURES>  (1) 
6
1 1 acceptor
1 2 acceptor
1 4 cation
5 3 5 6 7 8 rings
6 17 21 22 25 26 27 rings
6 6 7 12 14 16 18 rings

>  <PUBCHEM_HEAVY_ATOM_COUNT>  (1) 
27

>  <PUBCHEM_ATOM_DEF_STEREO_COUNT>  (1) 
0

>  <PUBCHEM_ATOM_UDEF_STEREO_COUNT>  (1) 
1

>  <PUBCHEM_BOND_DEF_STEREO_COUNT>  (1) 
0

>  <PUBCHEM_BOND_UDEF_STEREO_COUNT>  (1) 
0

>  <PUBCHEM_ISOTOPIC_ATOM_COUNT>  (1) 
0

>  <PUBCHEM_COMPONENT_COUNT>  (1) 
1

>  <PUBCHEM_CACTVS_TAUTO_COUNT>  (1) 
1

>  <PUBCHEM_CONFORMER_ID>  (1) 
0000909300000002

>  <PUBCHEM_MMFF94_ENERGY>  (1) 
73.2236

>  <PUBCHEM_FEATURE_SELFOVERLAP>  (1) 
30.534

>  <PUBCHEM_SHAPE_FINGERPRINT>  (1) 
107951 10 16476569036910453020
11477941 20 17172108136181249414
11578080 2 18263906830762679141
11725454 13 9150880719929119110
12156800 1 14757649835687778707
12422481 6 17974254881039449632
12596599 1 18193567657697773378
133893 2 17677916662567129165
13583140 156 18059277851161648720
14251757 17 17168431578738025978
14863182 85 17903065982459507547
17357779 13 18335689563983250859
17492 54 17386582365760093222
1813 80 18187091615672230543
18336668 15 18335982064462588278
192875 21 15214160548512186374
20600515 1 18264198115465039231
20775530 9 18264196075698906571
21421861 104 18056786371003120961
21452121 71 18412260640384024273
21475661 188 11311784998241665602
23419403 2 17976780377338259896
238 59 16952552404904332084
25222932 49 16978692341074295271
26353 1 17168413883588460845
35225 105 17618488892536780831
3737641 26 17917721158356648294
392239 28 17988915700417498306
4280585 95 17604128394604365722
463206 1 18192722369342389931
469060 322 17967529043900626262
5262128 65 16951670558594251117
6669772 16 17624412382930609960

>  <PUBCHEM_SHAPE_MULTIPOLES>  (1) 
533.95
7.65
3.9
2.67
0.28
0.98
-0.81
7.61
-0.12
-0.71
-0.47
-0.53
-1.25
-0.24

>  <PUBCHEM_SHAPE_SELFOVERLAP>  (1) 
1129.767

>  <PUBCHEM_SHAPE_VOLUME>  (1) 
302.7

>  <PUBCHEM_COORDINATE_TYPE>  (1) 
2
5
10

$$$$
