37017
     RDKit          3D

  4  3  0  0  1  0  0  0  0  0999 V2000
   -1.8467   -0.5116    0.1450 I   0  0  0  0  0  0  0  0  0  0  0  0
    1.3640   -1.2191    0.1584 Br  0  0  0  0  0  0  0  0  0  0  0  0
    0.4294    1.6639    0.1801 Cl  0  0  0  0  0  0  0  0  0  0  0  0
    0.0532    0.0668   -0.4835 C   0  0  0  0  0  0  0  0  0  0  0  0
  1  4  1  0
  2  4  1  0
  3  4  1  0
M  END
>  <PUBCHEM_COMPOUND_CID>  (1) 
37017

>  <PUBCHEM_CONFORMER_RMSD>  (1) 
0.4

>  <PUBCHEM_CONFORMER_DIVERSEORDER>  (1) 
1
2

>  <PUBCHEM_MMFF94_PARTIAL_CHARGES>  (1) 
4
1 -0.19
2 -0.23
3 -0.29
4 0.71

>  <PUBCHEM_EFFECTIVE_ROTOR_COUNT>  (1) 
0

>  <PUBCHEM_PHARMACOPHORE_FEATURES>  (1) 
3
1 1 hydrophobe
1 2 hydrophobe
3 1 2 4 hydrophobe

>  <PUBCHEM_HEAVY_ATOM_COUNT>  (1) 
4

>  <PUBCHEM_ATOM_DEF_STEREO_COUNT>  (1) 
0

>  <PUBCHEM_ATOM_UDEF_STEREO_COUNT>  (1) 
1

>  <PUBCHEM_BOND_DEF_STEREO_COUNT>  (1) 
0

>  <PUBCHEM_BOND_UDEF_STEREO_COUNT>  (1) 
0

>  <PUBCHEM_ISOTOPIC_ATOM_COUNT>  (1) 
0

>  <PUBCHEM_COMPONENT_COUNT>  (1) 
1

>  <PUBCHEM_CACTVS_TAUTO_COUNT>  (1) 
1

>  <PUBCHEM_CONFORMER_ID>  (1) 
0000909900000001

>  <PUBCHEM_MMFF94_ENERGY>  (1) 
0.0127

>  <PUBCHEM_FEATURE_SELFOVERLAP>  (1) 
16.399

>  <PUBCHEM_SHAPE_FINGERPRINT>  (1) 
139733 1 9943510912867311007
16714656 1 17907869400594564111
20096714 4 17840315741423544813
23552449 11 18263067946482004219
29004967 10 18408886217649612075
5943 1 17175225259211684445

>  <PUBCHEM_SHAPE_MULTIPOLES>  (1) 
102.07
2.32
1.79
0.79
1.01
0.62
-0.01
-0.9
-0.19
-0.77
-0.18
0.06
-0.03
0

>  <PUBCHEM_SHAPE_SELFOVERLAP>  (1) 
136.423

>  <PUBCHEM_SHAPE_VOLUME>  (1) 
83.6

>  <PUBCHEM_COORDINATE_TYPE>  (1) 
2
5
10

$$$$
