37026
     RDKit          3D

 20 21  0  0  1  0  0  0  0  0999 V2000
    0.5814   -1.0305    1.8152 O   0  0  0  0  0  0  0  0  0  0  0  0
   -2.4762   -2.6637   -1.3615 O   0  0  0  0  0  0  0  0  0  0  0  0
   -4.1359   -1.7810   -0.1000 O   0  0  0  0  0  0  0  0  0  0  0  0
   -0.5398   -1.3688   -0.1867 N   0  0  0  0  0  0  0  0  0  0  0  0
   -1.8831   -1.0216    0.3084 C   0  0  0  0  0  0  0  0  0  0  0  0
   -2.1441    0.4618    0.1852 C   0  0  0  0  0  0  0  0  0  0  0  0
    1.8490   -1.7389   -0.1248 C   0  0  0  0  0  0  0  0  0  0  0  0
    0.5868   -1.3404    0.6266 C   0  0  0  0  0  0  0  0  0  0  0  0
    2.8968   -0.6778   -0.1475 C   0  0  0  0  0  0  0  0  0  0  0  0
   -1.6090    1.1573   -0.8866 C   0  0  0  0  0  0  0  0  0  0  0  0
   -2.9136    1.0968    1.1461 C   0  0  0  0  0  0  0  0  0  0  0  0
   -2.9478   -1.8336   -0.3996 C   0  0  0  0  0  0  0  0  0  0  0  0
    2.9174    0.2601   -1.1800 C   0  0  0  0  0  0  0  0  0  0  0  0
    3.8561   -0.6228    0.8638 C   0  0  0  0  0  0  0  0  0  0  0  0
   -1.8500    2.5265   -1.0005 C   0  0  0  0  0  0  0  0  0  0  0  0
   -3.1546    2.4660    1.0320 C   0  0  0  0  0  0  0  0  0  0  0  0
   -2.6227    3.1807   -0.0414 C   0  0  0  0  0  0  0  0  0  0  0  0
    3.8971    1.2526   -1.2012 C   0  0  0  0  0  0  0  0  0  0  0  0
    4.8358    0.3699    0.8425 C   0  0  0  0  0  0  0  0  0  0  0  0
    4.8563    1.3075   -0.1901 C   0  0  0  0  0  0  0  0  0  0  0  0
  1  8  2  0
  2 12  1  0
  3 12  2  0
  4  5  1  0
  4  8  1  0
  5  6  1  0
  5 12  1  0
  6 10  2  0
  6 11  1  0
  7  8  1  0
  7  9  1  0
  9 13  2  0
  9 14  1  0
 10 15  1  0
 11 16  2  0
 13 18  1  0
 14 19  2  0
 15 17  2  0
 16 17  1  0
 18 20  2  0
 19 20  1  0
M  END
>  <PUBCHEM_COMPOUND_CID>  (1) 
37026

>  <PUBCHEM_CONFORMER_RMSD>  (1) 
0.8

>  <PUBCHEM_CONFORMER_DIVERSEORDER>  (1) 
1
3
11
29
10
24
7
13
25
23
30
26
32
14
9
18
4
12
15
28
31
20
22
27
5
8
16
17
21
19
6
2

>  <PUBCHEM_MMFF94_PARTIAL_CHARGES>  (1) 
32
1 -0.57
10 -0.15
11 -0.15
12 0.66
13 -0.15
14 -0.15
15 -0.15
16 -0.15
17 -0.15
18 -0.15
19 -0.15
2 -0.65
20 -0.15
22 0.37
25 0.15
26 0.15
27 0.15
28 0.15
29 0.15
3 -0.57
30 0.15
31 0.15
32 0.15
33 0.15
34 0.15
35 0.5
4 -0.73
5 0.5
6 -0.14
7 0.2
8 0.57
9 -0.14

>  <PUBCHEM_EFFECTIVE_ROTOR_COUNT>  (1) 
6

>  <PUBCHEM_PHARMACOPHORE_FEATURES>  (1) 
7
1 1 acceptor
1 2 acceptor
1 3 acceptor
1 4 donor
3 2 3 12 anion
6 6 10 11 15 16 17 rings
6 9 13 14 18 19 20 rings

>  <PUBCHEM_HEAVY_ATOM_COUNT>  (1) 
20

>  <PUBCHEM_ATOM_DEF_STEREO_COUNT>  (1) 
0

>  <PUBCHEM_ATOM_UDEF_STEREO_COUNT>  (1) 
1

>  <PUBCHEM_BOND_DEF_STEREO_COUNT>  (1) 
0

>  <PUBCHEM_BOND_UDEF_STEREO_COUNT>  (1) 
0

>  <PUBCHEM_ISOTOPIC_ATOM_COUNT>  (1) 
0

>  <PUBCHEM_COMPONENT_COUNT>  (1) 
1

>  <PUBCHEM_CACTVS_TAUTO_COUNT>  (1) 
2

>  <PUBCHEM_CONFORMER_ID>  (1) 
000090A200000001

>  <PUBCHEM_MMFF94_ENERGY>  (1) 
48.5684

>  <PUBCHEM_FEATURE_SELFOVERLAP>  (1) 
35.581

>  <PUBCHEM_SHAPE_FINGERPRINT>  (1) 
10369192 42 16195907072003001480
10498660 4 18408319977745947917
10646746 165 18342737412733087104
10670039 82 18261971729690295780
10871710 139 18335430100940571181
11405975 8 18268993090311843434
11715629 250 18337397041279856798
12107183 9 17975402522202827858
12173636 292 18129662976728902445
12403260 363 18335695100844538840
12403814 3 18335990809126487017
14142880 1 18335137566634037293
14251764 38 18197212758167680184
14910302 57 17704082814831890814
15342168 16 18053671274405698369
1741750 31 18199467671098489769
17492 89 18335416833840120874
18186145 218 18270688545863008686
18785283 64 17622459242299744131
192875 21 17968652843309615068
21864079 5 18114477707653247756
22182937 141 18342460287862343961
22749437 52 18335980853308424804
22907989 373 18200296754954060423
23227448 37 18410856525512608221
23402539 116 18265888232251355022
235170 7 17346328123911951068
23557571 272 18131355223929357546
23558518 356 18263078825724433419
23559900 14 17772749378114466474
27216 239 18189059711495109881
312423 11 18186524289310781898
3268164 11 18130500924558221494
474 4 17894635850810479298
5048184 11 18336835177990565460
7615 1 18115293506389079026
7808743 9 18411982421267077400
7832392 63 18191868929338830318

>  <PUBCHEM_SHAPE_MULTIPOLES>  (1) 
389
9.22
3.14
1.28
8.48
0.77
0.09
2.75
0.46
-3.85
-0.55
0.11
0.06
-1.23

>  <PUBCHEM_SHAPE_SELFOVERLAP>  (1) 
825.845

>  <PUBCHEM_SHAPE_VOLUME>  (1) 
215.1

>  <PUBCHEM_COORDINATE_TYPE>  (1) 
2
5
10

$$$$
