37028
     RDKit          3D

 13 13  0  0  0  0  0  0  0  0999 V2000
   -3.6059   -0.5003   -0.4570 S   0  0  0  0  0  0  0  0  0  0  0  0
    0.5983    2.0433   -0.1903 O   0  0  0  0  0  0  0  0  0  0  0  0
    0.2198   -1.4468   -0.0043 N   0  0  0  0  0  0  0  0  0  0  0  0
   -1.1265   -1.4323   -0.1431 N   0  0  0  0  0  0  0  0  0  0  0  0
   -1.3987    0.9184   -0.3234 N   0  0  0  0  0  0  0  0  0  0  0  0
    2.2782   -0.1472    0.1221 C   0  0  0  0  0  0  0  0  0  0  0  0
    0.7858   -0.2803   -0.0223 C   0  0  0  0  0  0  0  0  0  0  0  0
    2.5588    0.6984    1.3660 C   0  0  0  0  0  0  0  0  0  0  0  0
    2.8376    0.5389   -1.1263 C   0  0  0  0  0  0  0  0  0  0  0  0
    2.8876   -1.5426    0.2775 C   0  0  0  0  0  0  0  0  0  0  0  0
   -0.0298    0.9909   -0.1878 C   0  0  0  0  0  0  0  0  0  0  0  0
   -1.8695   -0.2888   -0.2933 C   0  0  0  0  0  0  0  0  0  0  0  0
   -4.1357    0.4483    0.9821 C   0  0  0  0  0  0  0  0  0  0  0  0
  1 12  1  0
  1 13  1  0
  2 11  2  0
  3  4  1  0
  3  7  2  0
  4 12  1  0
  5 11  1  0
  5 12  2  0
  6  7  1  0
  6  8  1  0
  6  9  1  0
  6 10  1  0
  7 11  1  0
M  END
>  <PUBCHEM_COMPOUND_CID>  (1) 
37028

>  <PUBCHEM_CONFORMER_RMSD>  (1) 
0.6

>  <PUBCHEM_CONFORMER_DIVERSEORDER>  (1) 
1
3
4
2

>  <PUBCHEM_MMFF94_PARTIAL_CHARGES>  (1) 
11
1 -0.37
11 0.78
12 0.64
13 0.23
2 -0.57
23 0.4
3 -0.49
4 -0.41
5 -0.66
6 0.06
7 0.39

>  <PUBCHEM_EFFECTIVE_ROTOR_COUNT>  (1) 
2

>  <PUBCHEM_PHARMACOPHORE_FEATURES>  (1) 
7
1 13 hydrophobe
1 2 acceptor
1 3 acceptor
1 4 donor
1 5 donor
4 6 8 9 10 hydrophobe
6 3 4 5 7 11 12 rings

>  <PUBCHEM_HEAVY_ATOM_COUNT>  (1) 
13

>  <PUBCHEM_ATOM_DEF_STEREO_COUNT>  (1) 
0

>  <PUBCHEM_ATOM_UDEF_STEREO_COUNT>  (1) 
0

>  <PUBCHEM_BOND_DEF_STEREO_COUNT>  (1) 
0

>  <PUBCHEM_BOND_UDEF_STEREO_COUNT>  (1) 
0

>  <PUBCHEM_ISOTOPIC_ATOM_COUNT>  (1) 
0

>  <PUBCHEM_COMPONENT_COUNT>  (1) 
1

>  <PUBCHEM_CACTVS_TAUTO_COUNT>  (1) 
3

>  <PUBCHEM_CONFORMER_ID>  (1) 
000090A400000001

>  <PUBCHEM_MMFF94_ENERGY>  (1) 
34.8883

>  <PUBCHEM_FEATURE_SELFOVERLAP>  (1) 
35.556

>  <PUBCHEM_SHAPE_FINGERPRINT>  (1) 
10130415 120 18260543420286639722
10219947 1 18409448076981819015
10980938 120 18409445882142936339
11132069 177 18409439289484025611
11471102 20 18408317783423601127
12032990 46 18335985272539479015
12932764 1 18201712951167663421
13705890 14 14417850336709534185
13760787 5 18260831492654864039
14144814 61 18411698803138024363
14325111 11 18411697690641241943
14993402 34 18411141359174421199
15775835 57 18342739628303287002
16945 1 18335976562239995997
17844478 74 17748827397695426189
18186145 218 17988924470360797785
18522853 295 18410297982058300590
19026448 4 15574711400427391671
19026448 5 16487247790250023455
20281475 54 18334015012401236023
20645477 70 18187917344747087631
23463225 33 18335981965287982638
23552423 10 17973723867829610893
2748010 2 18121207697656044445
5084963 1 18189330182791604758
53812653 166 18342451603680811160

>  <PUBCHEM_SHAPE_MULTIPOLES>  (1) 
250.57
6.14
1.55
0.98
4.57
0.02
-0.14
-0.35
-0.88
-0.52
0.01
-0.29
0.19
-0.29

>  <PUBCHEM_SHAPE_SELFOVERLAP>  (1) 
496.645

>  <PUBCHEM_SHAPE_VOLUME>  (1) 
152.8

>  <PUBCHEM_COORDINATE_TYPE>  (1) 
2
5
10

$$$$
