37024
     RDKit          3D

 11 10  0  0  1  0  0  0  0  0999 V2000
   -1.5355    1.2873   -1.4726 Cl  0  0  0  0  0  0  0  0  0  0  0  0
   -0.5522    1.6470    1.2340 Cl  0  0  0  0  0  0  0  0  0  0  0  0
    1.6195    1.3745   -1.4079 Cl  0  0  0  0  0  0  0  0  0  0  0  0
   -3.1572   -0.2640    1.0180 Cl  0  0  0  0  0  0  0  0  0  0  0  0
   -1.8247   -1.9913   -0.8897 Cl  0  0  0  0  0  0  0  0  0  0  0  0
    3.1943   -1.2476   -0.3825 Cl  0  0  0  0  0  0  0  0  0  0  0  0
    2.0747    0.2392    1.8444 Cl  0  0  0  0  0  0  0  0  0  0  0  0
   -0.6782    0.4331   -0.1083 C   0  0  0  0  0  0  0  0  0  0  0  0
    0.7429   -0.0015   -0.6169 C   0  0  0  0  0  0  0  0  0  0  0  0
   -1.5494   -0.7580    0.3826 C   0  0  0  0  0  0  0  0  0  0  0  0
    1.6658   -0.7188    0.3989 C   0  0  0  0  0  0  0  0  0  0  0  0
  1  8  1  0
  2  8  1  0
  3  9  1  0
  4 10  1  0
  5 10  1  0
  6 11  1  0
  7 11  1  0
  8  9  1  0
  8 10  1  0
  9 11  1  0
M  END
>  <PUBCHEM_COMPOUND_CID>  (1) 
37024

>  <PUBCHEM_CONFORMER_RMSD>  (1) 
0.6

>  <PUBCHEM_CONFORMER_DIVERSEORDER>  (1) 
1
31
33
32
4
10
24
25
23
21
35
34
7
36
11
13
17
20
28
19
2
22
3
14
8
18
5
12
38
9
27
15
6
30
37
16
26
29

>  <PUBCHEM_MMFF94_PARTIAL_CHARGES>  (1) 
11
1 -0.29
10 0.58
11 0.58
2 -0.29
3 -0.29
4 -0.29
5 -0.29
6 -0.29
7 -0.29
8 0.58
9 0.29

>  <PUBCHEM_EFFECTIVE_ROTOR_COUNT>  (1) 
3

>  <PUBCHEM_PHARMACOPHORE_FEATURES>  (1) 
0

>  <PUBCHEM_HEAVY_ATOM_COUNT>  (1) 
11

>  <PUBCHEM_ATOM_DEF_STEREO_COUNT>  (1) 
0

>  <PUBCHEM_ATOM_UDEF_STEREO_COUNT>  (1) 
1

>  <PUBCHEM_BOND_DEF_STEREO_COUNT>  (1) 
0

>  <PUBCHEM_BOND_UDEF_STEREO_COUNT>  (1) 
0

>  <PUBCHEM_ISOTOPIC_ATOM_COUNT>  (1) 
0

>  <PUBCHEM_COMPONENT_COUNT>  (1) 
1

>  <PUBCHEM_CACTVS_TAUTO_COUNT>  (1) 
1

>  <PUBCHEM_CONFORMER_ID>  (1) 
000090A000000001

>  <PUBCHEM_MMFF94_ENERGY>  (1) 
26.2932

>  <PUBCHEM_FEATURE_SELFOVERLAP>  (1) 
0

>  <PUBCHEM_SHAPE_FINGERPRINT>  (1) 
12423570 1 12348802962175338944
12932741 1 18199729398116286034
12932764 1 18337099099451462866
13299463 15 14634874158056034586
14128692 85 18335142028878152590
14817 1 8384281228624530745
15310529 11 17530688714286649893
16945 1 18115569470721918485
20082192 1 18334295349016259204
23552333 60 18114194080365048224
23552423 10 16877950467998144285
2748010 2 17902790765086857263
5084963 1 18335430014798372058
68250623 7 17240490173909515893

>  <PUBCHEM_SHAPE_MULTIPOLES>  (1) 
239.46
4.27
1.87
1.74
0.51
0.19
-0.15
1.61
-0.62
-0.33
0.44
0.21
-0.66
-0.1

>  <PUBCHEM_SHAPE_SELFOVERLAP>  (1) 
390.254

>  <PUBCHEM_SHAPE_VOLUME>  (1) 
165.5

>  <PUBCHEM_COORDINATE_TYPE>  (1) 
2
5
10

$$$$
