37020
     RDKit          3D

 16 17  0  0  1  0  0  0  0  0999 V2000
   -5.0907   -0.5790    0.0587 Cl  0  0  0  0  0  0  0  0  0  0  0  0
    1.5908   -0.8534    0.5587 O   0  0  0  0  0  0  0  0  0  0  0  0
    3.5790   -1.9665    0.3035 O   0  0  0  0  0  0  0  0  0  0  0  0
    1.9884    1.4529    1.6038 O   0  0  0  0  0  0  0  0  0  0  0  0
    0.6818    2.5984    0.0956 N   0  0  0  0  0  0  0  0  0  0  0  0
    0.8869    0.2026   -0.1185 C   0  0  0  0  0  0  0  0  0  0  0  0
    1.4728    0.1807   -1.5249 C   0  0  0  0  0  0  0  0  0  0  0  0
    2.8904   -0.3027   -1.3130 C   0  0  0  0  0  0  0  0  0  0  0  0
   -0.6167    0.0069   -0.0736 C   0  0  0  0  0  0  0  0  0  0  0  0
    2.7579   -1.1516   -0.0876 C   0  0  0  0  0  0  0  0  0  0  0  0
    1.2551    1.4633    0.6181 C   0  0  0  0  0  0  0  0  0  0  0  0
   -1.4243    0.5476   -1.0765 C   0  0  0  0  0  0  0  0  0  0  0  0
   -1.1984   -0.7155    0.9706 C   0  0  0  0  0  0  0  0  0  0  0  0
   -2.8069    0.3671   -1.0354 C   0  0  0  0  0  0  0  0  0  0  0  0
   -2.5809   -0.8960    1.0117 C   0  0  0  0  0  0  0  0  0  0  0  0
   -3.3852   -0.3547    0.0087 C   0  0  0  0  0  0  0  0  0  0  0  0
  1 16  1  0
  2  6  1  0
  2 10  1  0
  3 10  2  0
  4 11  2  0
  5 11  1  0
  6  7  1  0
  6  9  1  0
  6 11  1  0
  7  8  1  0
  8 10  1  0
  9 12  2  0
  9 13  1  0
 12 14  1  0
 13 15  2  0
 14 16  2  0
 15 16  1  0
M  END
>  <PUBCHEM_COMPOUND_CID>  (1) 
37020

>  <PUBCHEM_CONFORMER_RMSD>  (1) 
0.6

>  <PUBCHEM_CONFORMER_DIVERSEORDER>  (1) 
2
11
3
13
6
12
4
15
8
14
10
5
1
9
7

>  <PUBCHEM_MMFF94_PARTIAL_CHARGES>  (1) 
21
1 -0.18
10 0.66
11 0.57
12 -0.15
13 -0.15
14 -0.15
15 -0.15
16 0.18
2 -0.43
21 0.15
22 0.15
23 0.15
24 0.15
25 0.37
26 0.37
3 -0.57
4 -0.57
5 -0.8
6 0.48
8 0.06
9 -0.14

>  <PUBCHEM_EFFECTIVE_ROTOR_COUNT>  (1) 
2.8

>  <PUBCHEM_PHARMACOPHORE_FEATURES>  (1) 
5
1 3 acceptor
1 4 acceptor
1 5 donor
5 2 6 7 8 10 rings
6 9 12 13 14 15 16 rings

>  <PUBCHEM_HEAVY_ATOM_COUNT>  (1) 
16

>  <PUBCHEM_ATOM_DEF_STEREO_COUNT>  (1) 
0

>  <PUBCHEM_ATOM_UDEF_STEREO_COUNT>  (1) 
1

>  <PUBCHEM_BOND_DEF_STEREO_COUNT>  (1) 
0

>  <PUBCHEM_BOND_UDEF_STEREO_COUNT>  (1) 
0

>  <PUBCHEM_ISOTOPIC_ATOM_COUNT>  (1) 
0

>  <PUBCHEM_COMPONENT_COUNT>  (1) 
1

>  <PUBCHEM_CACTVS_TAUTO_COUNT>  (1) 
4

>  <PUBCHEM_CONFORMER_ID>  (1) 
0000909C00000002

>  <PUBCHEM_MMFF94_ENERGY>  (1) 
36.594

>  <PUBCHEM_FEATURE_SELFOVERLAP>  (1) 
25.371

>  <PUBCHEM_SHAPE_FINGERPRINT>  (1) 
10465860 250 18335974269160132570
12251169 10 13686291361848531555
12326174 3 18059580234381235652
12423570 1 11865281282305479772
12507560 14 18273494555060678383
12725867 57 18409446998971693836
12932764 1 18411701023667895015
13134695 92 18342451539103548268
13675066 3 15913332373306031847
14115302 16 17968105208819538271
16752209 62 16878209901867219655
16945 1 18265888236530049661
1813 80 17130731408702990956
18186145 218 18413388752894933969
20361792 2 18130791122602824412
20559304 39 16128666270527821713
20645476 183 14418138448033398043
20645477 70 18202004360815478887
21296965 67 18341049606059311034
21524375 3 17267495523638664200
2255824 54 18272374229804783550
22802520 49 17313684709814011363
23175994 123 18338240358039822230
23419403 2 18119216555693185636
23493267 7 15357700760704950121
23526113 38 18113626655192958746
23557571 272 17385992988277157892
23559900 14 17894352210779991431
2748010 2 17533224300107314611
3286 77 18411697686530988455
528886 8 16950570994883516198
6049 1 18261101985600964245
7364860 26 17896046592721799628
74978 22 18342463689803242907
77492 1 16702019820240754997
81228 2 17840036143495489208
9981440 41 15001394319619542188

>  <PUBCHEM_SHAPE_MULTIPOLES>  (1) 
308.55
6.75
1.65
1.31
6
0.53
0.06
-2.78
0.51
-1.35
-0.45
-0.46
0.25
0.61

>  <PUBCHEM_SHAPE_SELFOVERLAP>  (1) 
658.489

>  <PUBCHEM_SHAPE_VOLUME>  (1) 
173.5

>  <PUBCHEM_COORDINATE_TYPE>  (1) 
2
5
10

$$$$
