37033
     RDKit          3D

 15 16  0  0  1  0  0  0  0  0999 V2000
    2.6125   -2.0205    0.1760 O   0  0  0  0  0  0  0  0  0  0  0  0
    4.3684    0.0971    0.1494 O   0  0  0  0  0  0  0  0  0  0  0  0
   -3.4871    0.1823   -0.1980 N   0  0  0  0  0  0  0  0  0  0  0  0
   -2.0976   -0.0716    0.1795 C   0  0  0  0  0  0  0  0  0  0  0  0
   -1.6062   -1.3680   -0.4673 C   0  0  0  0  0  0  0  0  0  0  0  0
   -1.2037    1.1001   -0.2498 C   0  0  0  0  0  0  0  0  0  0  0  0
   -0.1926   -1.6984    0.0125 C   0  0  0  0  0  0  0  0  0  0  0  0
    0.2699    0.8003   -0.1157 C   0  0  0  0  0  0  0  0  0  0  0  0
    0.7476   -0.5204   -0.0340 C   0  0  0  0  0  0  0  0  0  0  0  0
    2.1287   -0.7480    0.0651 C   0  0  0  0  0  0  0  0  0  0  0  0
    1.1850    1.8639   -0.1336 C   0  0  0  0  0  0  0  0  0  0  0  0
   -3.9777    1.4002    0.4464 C   0  0  0  0  0  0  0  0  0  0  0  0
   -4.3301   -0.9589    0.1573 C   0  0  0  0  0  0  0  0  0  0  0  0
    3.0272    0.3183    0.0569 C   0  0  0  0  0  0  0  0  0  0  0  0
    2.5557    1.6236   -0.0449 C   0  0  0  0  0  0  0  0  0  0  0  0
  1 10  1  0
  2 14  1  0
  3  4  1  0
  3 12  1  0
  3 13  1  0
  4  5  1  0
  4  6  1  0
  5  7  1  0
  6  8  1  0
  7  9  1  0
  8  9  2  0
  8 11  1  0
  9 10  1  0
 10 14  2  0
 11 15  2  0
 14 15  1  0
M  END
>  <PUBCHEM_COMPOUND_CID>  (1) 
37033

>  <PUBCHEM_CONFORMER_RMSD>  (1) 
0.6

>  <PUBCHEM_CONFORMER_DIVERSEORDER>  (1) 
1
2
3

>  <PUBCHEM_MMFF94_PARTIAL_CHARGES>  (1) 
18
1 -0.53
10 0.08
11 -0.15
12 0.27
13 0.27
14 0.08
15 -0.15
2 -0.53
23 0.15
3 -0.81
30 0.15
31 0.45
32 0.45
4 0.27
6 0.14
7 0.14
8 -0.14
9 -0.14

>  <PUBCHEM_EFFECTIVE_ROTOR_COUNT>  (1) 
1.8

>  <PUBCHEM_PHARMACOPHORE_FEATURES>  (1) 
5
1 1 donor
1 2 donor
1 3 cation
6 4 5 6 7 8 9 rings
6 8 9 10 11 14 15 rings

>  <PUBCHEM_HEAVY_ATOM_COUNT>  (1) 
15

>  <PUBCHEM_ATOM_DEF_STEREO_COUNT>  (1) 
0

>  <PUBCHEM_ATOM_UDEF_STEREO_COUNT>  (1) 
1

>  <PUBCHEM_BOND_DEF_STEREO_COUNT>  (1) 
0

>  <PUBCHEM_BOND_UDEF_STEREO_COUNT>  (1) 
0

>  <PUBCHEM_ISOTOPIC_ATOM_COUNT>  (1) 
0

>  <PUBCHEM_COMPONENT_COUNT>  (1) 
1

>  <PUBCHEM_CACTVS_TAUTO_COUNT>  (1) 
53

>  <PUBCHEM_CONFORMER_ID>  (1) 
000090A900000001

>  <PUBCHEM_MMFF94_ENERGY>  (1) 
38.0075

>  <PUBCHEM_FEATURE_SELFOVERLAP>  (1) 
25.398

>  <PUBCHEM_SHAPE_FINGERPRINT>  (1) 
10608611 8 18409445908044732381
10967382 1 18410292531675970270
10980938 120 18409449180487662274
11132069 177 18341324569833939512
11471102 20 18409443678618712518
12032990 46 18409733923971609878
12251169 10 18411982489843563863
13140716 1 18193268818205150160
13221675 6 18409446990096630318
13380535 76 18410856598331840774
14144814 61 18411699885327429649
14178342 30 18123732399887214690
14251717 144 18409726270566644295
14325111 11 18411138047928851925
15196674 1 18410856542459920389
15442244 35 18339924801210905899
15501101 241 18259985963538484820
15536298 74 18343584023231951374
15775835 57 18410859871122962853
16945 1 18409720790235788932
17844478 74 17821445746789831557
18186145 218 18341336604395664981
19422 9 18411984650428378579
200 152 18201146729293097085
20201158 50 18408041818668462970
20645477 70 18338510851138929367
20671657 1 18191875723618903365
21267235 1 18411145761326333079
21501502 16 18193836161630377854
22854114 111 18336829787574142981
2334 1 17833268997197286556
23402539 116 18131344211279925877
23402655 69 18341608209695850125
23463225 33 18409729543094210581
23559900 14 18271811285312686252
2748010 2 18121489155727250908
335352 9 18194402178332873567
4990 188 18059587883707382308
5104073 3 18410855455870144729
528886 8 18411131467843691322
53655031 270 18411982451178451664
53812653 166 18341608243981683344
63268167 104 18411139134180921217
69090 78 18271522091445944151
7364860 26 18343302565809617334
7832392 63 18341890826685318924
8809292 202 18114746048240172130
9709674 26 18411143558140212911

>  <PUBCHEM_SHAPE_MULTIPOLES>  (1) 
291.97
7.15
1.97
0.64
2.91
0.09
-0.01
-0.41
0.73
-0.3
0
0.1
-0.01
-0.27

>  <PUBCHEM_SHAPE_SELFOVERLAP>  (1) 
616.202

>  <PUBCHEM_SHAPE_VOLUME>  (1) 
164.9

>  <PUBCHEM_COORDINATE_TYPE>  (1) 
2
5
10

$$$$
