37039
     RDKit          3D

 13 12  0  0  1  0  0  0  0  0999 V2000
    2.2002    0.1597   -0.0981 O   0  0  0  0  0  0  0  0  0  0  0  0
   -2.5994    0.1035   -0.2044 O   0  0  0  0  0  0  0  0  0  0  0  0
   -4.9296    1.4581    0.4456 O   0  0  0  0  0  0  0  0  0  0  0  0
   -0.1917    0.1270   -0.1675 C   0  0  0  0  0  0  0  0  0  0  0  0
    4.5819    0.4055   -0.1108 C   0  0  0  0  0  0  0  0  0  0  0  0
    1.0668   -0.6535    0.1746 C   0  0  0  0  0  0  0  0  0  0  0  0
   -1.4531   -0.6745    0.1132 C   0  0  0  0  0  0  0  0  0  0  0  0
    3.4128   -0.5173    0.2027 C   0  0  0  0  0  0  0  0  0  0  0  0
    5.9221   -0.2659    0.1751 C   0  0  0  0  0  0  0  0  0  0  0  0
   -3.8014   -0.6128    0.0449 C   0  0  0  0  0  0  0  0  0  0  0  0
   -4.9876    0.2646   -0.3341 C   0  0  0  0  0  0  0  0  0  0  0  0
    7.0878    0.6432   -0.1799 C   0  0  0  0  0  0  0  0  0  0  0  0
   -6.3090   -0.4376   -0.0611 C   0  0  0  0  0  0  0  0  0  0  0  0
  1  6  1  0
  1  8  1  0
  2  7  1  0
  2 10  1  0
  3 11  1  0
  4  6  1  0
  4  7  1  0
  5  8  1  0
  5  9  1  0
  9 12  1  0
 10 11  1  0
 11 13  1  0
M  END
>  <PUBCHEM_COMPOUND_CID>  (1) 
37039

>  <PUBCHEM_CONFORMER_RMSD>  (1) 
1

>  <PUBCHEM_CONFORMER_DIVERSEORDER>  (1) 
1
80
441
426
207
285
3
419
42
36
546
76
351
402
45
132
260
312
14
283
255
482
262
6
187
209
147
332
103
39
144
59
167
15
577
2
251
293
111
308
429
56
201
248
149
297
503
117
342
574
501
250
58
471
378
157
13
323
284
89
189
146
52
150
345
182
561
22
10
271
183
489
450
35
301
83
519
153
222
125
366
112
25
481
469
106
221
18
528
240
27
290
379
401
121
43
28
115
94

>  <PUBCHEM_MMFF94_PARTIAL_CHARGES>  (1) 
9
1 -0.56
10 0.28
11 0.28
2 -0.56
3 -0.68
35 0.4
6 0.28
7 0.28
8 0.28

>  <PUBCHEM_EFFECTIVE_ROTOR_COUNT>  (1) 
9

>  <PUBCHEM_PHARMACOPHORE_FEATURES>  (1) 
5
1 1 acceptor
1 12 hydrophobe
1 2 acceptor
1 3 acceptor
1 3 donor

>  <PUBCHEM_HEAVY_ATOM_COUNT>  (1) 
13

>  <PUBCHEM_ATOM_DEF_STEREO_COUNT>  (1) 
0

>  <PUBCHEM_ATOM_UDEF_STEREO_COUNT>  (1) 
1

>  <PUBCHEM_BOND_DEF_STEREO_COUNT>  (1) 
0

>  <PUBCHEM_BOND_UDEF_STEREO_COUNT>  (1) 
0

>  <PUBCHEM_ISOTOPIC_ATOM_COUNT>  (1) 
0

>  <PUBCHEM_COMPONENT_COUNT>  (1) 
1

>  <PUBCHEM_CACTVS_TAUTO_COUNT>  (1) 
1

>  <PUBCHEM_CONFORMER_ID>  (1) 
000090AF00000001

>  <PUBCHEM_MMFF94_ENERGY>  (1) 
13.0259

>  <PUBCHEM_FEATURE_SELFOVERLAP>  (1) 
25.377

>  <PUBCHEM_SHAPE_FINGERPRINT>  (1) 
11315181 36 18187367649489489881
12091667 2 18273214209971408063
12714333 28 18202563986479764138
13533116 47 18337103472303430378
14123238 8 18113616781279162847
1420 363 12829489233917986120
14251718 22 18060419114223693315
14251764 18 18259983786005805275
14251764 46 18040434399509408335
15048467 5 18409166610626736916
15242439 84 16200147711988595626
15716309 27 8574712399206448496
17834072 8 15841551885898895662
17834076 25 18408040719119872854
187816 3 15626224623636901375
20281389 69 18040994038243745020
20621476 8 18334296418526315500
20767249 213 18335421283425173862
21130983 4 17968099742101474652
220451 1 16702301247872891439
22224240 67 15574713620883156130
23402539 116 18202558492757656951
23521765 1 18342175574474659822
33684 2 18334573542738234258
42788 4 18410855464428416838
4463277 17 18410573994306089532
8209 1 18410855469361668182

>  <PUBCHEM_SHAPE_MULTIPOLES>  (1) 
249.93
19.19
0.92
0.63
7.81
0.13
0
3.1
-0.32
-0.48
0.07
-0.05
0.01
-0.32

>  <PUBCHEM_SHAPE_SELFOVERLAP>  (1) 
448.886

>  <PUBCHEM_SHAPE_VOLUME>  (1) 
162.2

>  <PUBCHEM_COORDINATE_TYPE>  (1) 
2
5
10

$$$$
