37045
     RDKit          3D

 15 14  0  0  0  0  0  0  0  0999 V2000
    0.4970   -3.4366   -0.1193 O   0  0  0  0  0  0  0  0  0  0  0  0
    2.5072    2.5623   -0.9698 O   0  0  0  0  0  0  0  0  0  0  0  0
    3.4975    2.1421    0.9250 O   0  0  0  0  0  0  0  0  0  0  0  0
    1.0592   -1.3353    0.1573 N   0  0  0  0  0  0  0  0  0  0  0  0
    1.3464   -2.5788   -0.3820 N   0  0  0  0  0  0  0  0  0  0  0  0
    3.1455   -0.5994   -0.7911 N   0  0  0  0  0  0  0  0  0  0  0  0
    1.7093    0.9465    0.3413 N   0  0  0  0  0  0  0  0  0  0  0  0
    2.6136    1.9160    0.0840 N   0  0  0  0  0  0  0  0  0  0  0  0
   -2.5442   -0.1866    0.6510 C   0  0  0  0  0  0  0  0  0  0  0  0
   -1.2496   -0.5677   -0.0758 C   0  0  0  0  0  0  0  0  0  0  0  0
   -3.5961    0.3340   -0.3320 C   0  0  0  0  0  0  0  0  0  0  0  0
   -0.1525   -1.0305    0.8793 C   0  0  0  0  0  0  0  0  0  0  0  0
   -4.9012    0.7588    0.3445 C   0  0  0  0  0  0  0  0  0  0  0  0
   -5.9233    1.3423   -0.6188 C   0  0  0  0  0  0  0  0  0  0  0  0
    1.9910   -0.2671   -0.0935 C   0  0  0  0  0  0  0  0  0  0  0  0
  1  5  2  0
  2  8  1  0
  3  8  2  0
  4  5  1  0
  4 12  1  0
  4 15  1  0
  6 15  1  0
  7  8  1  0
  7 15  2  0
  9 10  1  0
  9 11  1  0
 10 12  1  0
 11 13  1  0
 13 14  1  0
M  CHG  2   2  -1   8   1
M  END
>  <PUBCHEM_COMPOUND_CID>  (1) 
37045

>  <PUBCHEM_CONFORMER_RMSD>  (1) 
0.8

>  <PUBCHEM_CONFORMER_DIVERSEORDER>  (1) 
1
181
96
164
253
92
75
102
160
278
268
78
106
174
190
206
232
99
154
22
238
125
167
2
161
282
28
276
194
214
266
3
65
255
259
24
34
21
258
233
105
249
123
219
205
141
117
70
115
254
74
124
211
37
226
270
235
4
8
220
225
188
6
196
279
94
234
57
275
200
140
151
131
244
118
59
12
221
86
246
52
186
285
203
269
43
272
165
241
212
148
261
177
91
169
17
55
136
138
239
23
100
271
217
41
19
242
229
175
38
133
185
240
15
218
121
284
172
283
143
89
83
71
119
40
126
280
56
157
182
262
72
230
198
281
112
16
146
18
139
237
180
173
77
264
129
35
273
137
274
207
51
191
26
247
84
252
88
150
179
170
152
158
10
224
64
66
178
33
135
54
257
103
120
47
243
195
153
199
260
222
90
127
48
149
236
98
45
82
134
9
20
79
183
73
36
27
162
187
147
5
42
122
231
128
223
95
159
11
63
69
53
156
210
60
201
267
7
215
61
189
176
93
192
171
50
132
30
209
80
168
144
58
97
250
227
228
213
25
208
46
110
67
197
248
85
251
263
142
113
193
184
14
130
245
256
29
204
265
87
166
108
68
155
277
163
111
107
76
216
202
32
39
116
104
109
81
44
145
114
101
13
31
62
49

>  <PUBCHEM_MMFF94_PARTIAL_CHARGES>  (1) 
11
1 -0.16
12 0.37
15 0.55
2 -0.52
29 0.4
3 -0.52
30 0.4
4 -0.25
6 -0.85
7 -0.5
8 1.09

>  <PUBCHEM_EFFECTIVE_ROTOR_COUNT>  (1) 
8

>  <PUBCHEM_PHARMACOPHORE_FEATURES>  (1) 
6
1 14 hydrophobe
1 2 acceptor
1 3 acceptor
1 6 donor
4 4 6 7 15 cation
4 9 10 11 13 hydrophobe

>  <PUBCHEM_HEAVY_ATOM_COUNT>  (1) 
15

>  <PUBCHEM_ATOM_DEF_STEREO_COUNT>  (1) 
0

>  <PUBCHEM_ATOM_UDEF_STEREO_COUNT>  (1) 
0

>  <PUBCHEM_BOND_DEF_STEREO_COUNT>  (1) 
0

>  <PUBCHEM_BOND_UDEF_STEREO_COUNT>  (1) 
1

>  <PUBCHEM_ISOTOPIC_ATOM_COUNT>  (1) 
0

>  <PUBCHEM_COMPONENT_COUNT>  (1) 
1

>  <PUBCHEM_CACTVS_TAUTO_COUNT>  (1) 
2

>  <PUBCHEM_CONFORMER_ID>  (1) 
000090B500000001

>  <PUBCHEM_MMFF94_ENERGY>  (1) 
31.1928

>  <PUBCHEM_FEATURE_SELFOVERLAP>  (1) 
30.534

>  <PUBCHEM_SHAPE_FINGERPRINT>  (1) 
11471102 20 18339082583946867395
122479 349 18115590494634344193
12730499 353 18336275574233126483
13955234 65 18338798901784559939
14123255 52 18412261778877041169
14178000 15 18051692135778659739
14415576 193 18410295809105308189
17134986 127 18410298042187803806
17539 30 16755227038792587230
17834072 32 18119532286807316276
17834072 33 18413102850054965151
18186145 218 18199487586877769450
20645477 70 18131073697523893911
20820808 20 18342737429269501835
21499 59 18340201994358397467
21524375 3 18190171476316077322
22096605 113 18411982447236788947
22289505 5 18191021197336647757
2255824 54 18270118994429387007
23402655 69 18273215300719086397
23532345 1 18410576159132864379
23557571 272 17604450547733346995
23558518 356 18118681265028944178
3060560 45 18342179916776722046
43658 37 18341890839907934961
474 4 18408605885503486641
7364860 26 18340486655868746827
81539 233 18409449198026240559

>  <PUBCHEM_SHAPE_MULTIPOLES>  (1) 
266.18
9.33
2.91
0.86
15.56
0.93
0.03
-6.57
-1.2
-3.63
-0.32
-0.09
-0.17
0.59

>  <PUBCHEM_SHAPE_SELFOVERLAP>  (1) 
499.91

>  <PUBCHEM_SHAPE_VOLUME>  (1) 
164.5

>  <PUBCHEM_COORDINATE_TYPE>  (1) 
2
5
10

$$$$
