37048
     RDKit          3D

 18 19  0  0  0  0  0  0  0  0999 V2000
   -0.5432    2.5146   -0.1964 O   0  0  0  0  0  0  0  0  0  0  0  0
    2.9554   -1.7124    0.3721 O   0  0  0  0  0  0  0  0  0  0  0  0
   -2.7845    0.4325    0.6989 N   0  0  0  0  0  0  0  0  0  0  0  0
   -3.0182   -1.5421   -0.4083 N   0  0  0  0  0  0  0  0  0  0  0  0
   -0.0131    0.2056   -0.5688 C   0  0  0  0  0  0  0  0  0  0  0  0
   -1.3257    0.0085   -1.2715 C   0  0  0  0  0  0  0  0  0  0  0  0
   -2.3954   -0.3949   -0.3104 C   0  0  0  0  0  0  0  0  0  0  0  0
    0.8689   -0.8613   -0.4257 C   0  0  0  0  0  0  0  0  0  0  0  0
   -3.8462   -0.1704    1.4466 C   0  0  0  0  0  0  0  0  0  0  0  0
    0.3112    1.4614   -0.0636 C   0  0  0  0  0  0  0  0  0  0  0  0
    2.0861   -0.6710    0.2282 C   0  0  0  0  0  0  0  0  0  0  0  0
   -3.9853   -1.5232    0.7325 C   0  0  0  0  0  0  0  0  0  0  0  0
    2.4159    0.5856    0.7362 C   0  0  0  0  0  0  0  0  0  0  0  0
    1.5283    1.6518    0.5903 C   0  0  0  0  0  0  0  0  0  0  0  0
    0.5206   -2.2110   -0.9683 C   0  0  0  0  0  0  0  0  0  0  0  0
    3.7141    0.8095    1.4393 C   0  0  0  0  0  0  0  0  0  0  0  0
   -0.4029    3.3190   -1.3655 C   0  0  0  0  0  0  0  0  0  0  0  0
    3.9140   -1.9022   -0.6656 C   0  0  0  0  0  0  0  0  0  0  0  0
  1 10  1  0
  1 17  1  0
  2 11  1  0
  2 18  1  0
  3  7  1  0
  3  9  1  0
  4  7  2  0
  4 12  1  0
  5  6  1  0
  5  8  2  0
  5 10  1  0
  6  7  1  0
  8 11  1  0
  8 15  1  0
  9 12  1  0
 10 14  2  0
 11 13  2  0
 13 14  1  0
 13 16  1  0
M  END
>  <PUBCHEM_COMPOUND_CID>  (1) 
37048

>  <PUBCHEM_CONFORMER_RMSD>  (1) 
0.6

>  <PUBCHEM_CONFORMER_DIVERSEORDER>  (1) 
2
10
13
8
12
16
1
14
7
9
11
17
6
15
4
3
5

>  <PUBCHEM_MMFF94_PARTIAL_CHARGES>  (1) 
20
1 -0.36
10 0.08
11 0.08
12 0.25
13 -0.14
14 -0.15
15 0.14
16 0.14
17 0.28
18 0.28
2 -0.36
25 0.4
26 0.15
3 -0.82
4 -0.7
5 -0.14
6 0.2
7 0.44
8 -0.14
9 0.37

>  <PUBCHEM_EFFECTIVE_ROTOR_COUNT>  (1) 
4.6

>  <PUBCHEM_PHARMACOPHORE_FEATURES>  (1) 
6
1 1 acceptor
1 2 acceptor
1 3 donor
3 3 4 7 cation
5 3 4 7 9 12 rings
6 5 8 10 11 13 14 rings

>  <PUBCHEM_HEAVY_ATOM_COUNT>  (1) 
18

>  <PUBCHEM_ATOM_DEF_STEREO_COUNT>  (1) 
0

>  <PUBCHEM_ATOM_UDEF_STEREO_COUNT>  (1) 
0

>  <PUBCHEM_BOND_DEF_STEREO_COUNT>  (1) 
0

>  <PUBCHEM_BOND_UDEF_STEREO_COUNT>  (1) 
0

>  <PUBCHEM_ISOTOPIC_ATOM_COUNT>  (1) 
0

>  <PUBCHEM_COMPONENT_COUNT>  (1) 
1

>  <PUBCHEM_CACTVS_TAUTO_COUNT>  (1) 
1

>  <PUBCHEM_CONFORMER_ID>  (1) 
000090B800000002

>  <PUBCHEM_MMFF94_ENERGY>  (1) 
76.8026

>  <PUBCHEM_FEATURE_SELFOVERLAP>  (1) 
30.446

>  <PUBCHEM_SHAPE_FINGERPRINT>  (1) 
10382601 240 18341044229092546800
10764073 3 12671634312255469694
1100329 8 15095650207224031771
11086676 242 18342177764981912032
11132069 177 18342729719813663762
11471102 22 18338236067325224203
11578080 2 13841363286374605927
12138202 97 17685489845440867796
12251169 10 18270118045162064667
12633257 1 18115029744020767995
12696612 119 18339650061059309581
12892183 10 17917429877657617683
13140716 1 18054495925400936072
13296908 3 18334007281159305903
13583140 156 13829831514165286118
14178342 30 17840570819679187874
14252887 29 18409445925113507370
14787075 74 17677894711447955464
14790565 3 18196378245679299096
15209294 21 17346023589171282776
15422964 175 18334289885622660283
15501101 241 18343864433014561688
15527383 91 18272099261703773171
16945 1 18198885076386948380
17844478 74 18409441462737464460
1813 80 17967255307842910428
19862831 5 11746924409057725907
20559304 39 18196383721777639561
20739085 24 18340220647037328148
20871998 22 18409166618931860868
21061003 4 18411138017748017007
22182313 1 18199168613274917724
2255824 54 17829897881661993909
23184049 59 18272088322390473487
23382010 3 8286192829942608957
2748010 2 18126824033648550316
6049 1 18269546153302848444
6992083 37 18199175372893941983
7097593 13 18270685397530901811
81228 2 18045222644074102509
8809292 202 18193269685318967364

>  <PUBCHEM_SHAPE_MULTIPOLES>  (1) 
348.73
6.52
2.82
1.29
1.86
1.58
-0.07
-3.59
-2.92
-0.67
1.13
0.15
0.27
0.91

>  <PUBCHEM_SHAPE_SELFOVERLAP>  (1) 
731.859

>  <PUBCHEM_SHAPE_VOLUME>  (1) 
200.6

>  <PUBCHEM_COORDINATE_TYPE>  (1) 
2
5
10

$$$$
