37057
     RDKit          3D

 25 27  0  0  0  0  0  0  0  0999 V2000
    0.2803    2.1173   -0.8735 O   0  0  0  0  0  0  0  0  0  0  0  0
   -3.1680   -2.2519   -0.0958 O   0  0  0  0  0  0  0  0  0  0  0  0
    0.0595    2.2118    1.3868 O   0  0  0  0  0  0  0  0  0  0  0  0
    2.8899    0.4757    0.5386 N   0  0  0  0  0  0  0  0  0  0  0  0
   -1.9070   -0.2829    0.0997 N   0  0  0  0  0  0  0  0  0  0  0  0
    1.7809   -0.3901    0.4064 C   0  0  0  0  0  0  0  0  0  0  0  0
    0.4827    0.1128    0.3196 C   0  0  0  0  0  0  0  0  0  0  0  0
   -0.5791   -0.7677    0.1910 C   0  0  0  0  0  0  0  0  0  0  0  0
    1.9998   -1.7671    0.3635 C   0  0  0  0  0  0  0  0  0  0  0  0
   -0.3775   -2.1383    0.1469 C   0  0  0  0  0  0  0  0  0  0  0  0
    4.2306    0.3737    0.1259 C   0  0  0  0  0  0  0  0  0  0  0  0
    0.9206   -2.6411    0.2339 C   0  0  0  0  0  0  0  0  0  0  0  0
   -3.0958   -1.0137   -0.0343 C   0  0  0  0  0  0  0  0  0  0  0  0
    0.2544    1.5554    0.3633 C   0  0  0  0  0  0  0  0  0  0  0  0
   -4.3161   -0.2289   -0.1309 C   0  0  0  0  0  0  0  0  0  0  0  0
    5.2401    1.0015    0.8595 C   0  0  0  0  0  0  0  0  0  0  0  0
    4.5583   -0.3556   -1.0195 C   0  0  0  0  0  0  0  0  0  0  0  0
   -5.5301   -0.7726    0.2895 C   0  0  0  0  0  0  0  0  0  0  0  0
   -4.2728    1.0677   -0.6433 C   0  0  0  0  0  0  0  0  0  0  0  0
    6.5696    0.9009    0.4499 C   0  0  0  0  0  0  0  0  0  0  0  0
    5.8879   -0.4562   -1.4290 C   0  0  0  0  0  0  0  0  0  0  0  0
    6.8936    0.1720   -0.6943 C   0  0  0  0  0  0  0  0  0  0  0  0
   -6.7007   -0.0198    0.1971 C   0  0  0  0  0  0  0  0  0  0  0  0
   -5.4435    1.8206   -0.7356 C   0  0  0  0  0  0  0  0  0  0  0  0
   -6.6574    1.2767   -0.3154 C   0  0  0  0  0  0  0  0  0  0  0  0
  1 14  1  0
  2 13  2  0
  3 14  2  0
  4  6  1  0
  4 11  1  0
  5  8  1  0
  5 13  1  0
  6  7  2  0
  6  9  1  0
  7  8  1  0
  7 14  1  0
  8 10  2  0
  9 12  2  0
 10 12  1  0
 11 16  2  0
 11 17  1  0
 13 15  1  0
 15 18  2  0
 15 19  1  0
 16 20  1  0
 17 21  2  0
 18 23  1  0
 19 24  2  0
 20 22  2  0
 21 22  1  0
 23 25  2  0
 24 25  1  0
M  END
>  <PUBCHEM_COMPOUND_CID>  (1) 
37057

>  <PUBCHEM_CONFORMER_RMSD>  (1) 
0.8

>  <PUBCHEM_CONFORMER_DIVERSEORDER>  (1) 
1
11
6
2
4
7
12
5
8
3
9
13
10

>  <PUBCHEM_MMFF94_PARTIAL_CHARGES>  (1) 
41
1 -0.65
10 -0.15
11 0.1
12 -0.15
13 0.54
14 0.63
15 0.09
16 -0.15
17 -0.15
18 -0.15
19 -0.15
2 -0.57
20 -0.15
21 -0.15
22 -0.15
23 -0.15
24 -0.15
25 -0.15
26 0.4
27 0.15
28 0.15
29 0.37
3 -0.57
30 0.15
31 0.15
32 0.15
33 0.15
34 0.15
35 0.15
36 0.15
37 0.15
38 0.15
39 0.15
4 -0.6
40 0.15
41 0.5
5 -0.55
6 0.1
7 0.09
8 0.12
9 -0.15

>  <PUBCHEM_EFFECTIVE_ROTOR_COUNT>  (1) 
6

>  <PUBCHEM_PHARMACOPHORE_FEATURES>  (1) 
10
1 1 acceptor
1 2 acceptor
1 3 acceptor
1 4 cation
1 4 donor
1 5 donor
3 1 3 14 anion
6 11 16 17 20 21 22 rings
6 15 18 19 23 24 25 rings
6 6 7 8 9 10 12 rings

>  <PUBCHEM_HEAVY_ATOM_COUNT>  (1) 
25

>  <PUBCHEM_ATOM_DEF_STEREO_COUNT>  (1) 
0

>  <PUBCHEM_ATOM_UDEF_STEREO_COUNT>  (1) 
0

>  <PUBCHEM_BOND_DEF_STEREO_COUNT>  (1) 
0

>  <PUBCHEM_BOND_UDEF_STEREO_COUNT>  (1) 
0

>  <PUBCHEM_ISOTOPIC_ATOM_COUNT>  (1) 
0

>  <PUBCHEM_COMPONENT_COUNT>  (1) 
1

>  <PUBCHEM_CACTVS_TAUTO_COUNT>  (1) 
13

>  <PUBCHEM_CONFORMER_ID>  (1) 
000090C100000001

>  <PUBCHEM_MMFF94_ENERGY>  (1) 
103.2028

>  <PUBCHEM_FEATURE_SELFOVERLAP>  (1) 
50.803

>  <PUBCHEM_SHAPE_FINGERPRINT>  (1) 
10 15 17967816029504682347
10906281 52 18041011612943646889
11646440 116 18271818946594982161
12011746 2 18272089396211185120
12236239 1 17603584145370996178
12293681 160 18273215279017475378
12516196 113 17846497045270735776
12788726 201 17845935105072459873
12838862 33 18337653270760873245
13533116 47 14548748274935151798
14294032 229 17969787367670096428
14617045 38 18409449163903943997
14790565 3 18335140946430635196
14856354 85 16950571012459290779
14931854 50 18200302227011972701
15048467 5 18040154011069714039
15183329 4 17489592238073877302
15198563 99 18059301946034129264
15849732 13 17989205971154798509
1601671 61 18408036308109338625
18608769 82 18335987571201771907
18681886 176 18339637940519448513
18769570 83 17749389269332663220
19611394 137 17605010280845701041
20281389 69 18186516596575630468
21033648 29 18199175351471847040
21150785 3 17275379915599788503
21236236 1 17703516497608395417
21267235 1 18338801225783651779
21279426 13 18271805756750630160
221357 26 17775289344463331712
22393880 68 18200865275190355495
23402539 116 18341890835892679054
23559900 14 17988919028769239576
23569914 152 16907219175408592628
293599 30 18410008840517539179
3009799 131 18060420218062092960
335352 9 18411136969469931364
34934 24 18411411804665046707
350125 39 18409447033943238459
3545911 37 18411981369337199579
38695281 34 18202846556288754567
4073 2 17822016402189421627
4340502 62 16081085970220015290
5104073 3 18115026291215228179
59755656 215 18341615888944459422
59755656 520 17530681030501253594

>  <PUBCHEM_SHAPE_MULTIPOLES>  (1) 
486.92
18.03
2.22
0.96
0.51
0.54
-0.09
-5.81
-3.32
1.07
0.16
-0.9
-0.23
0.96

>  <PUBCHEM_SHAPE_SELFOVERLAP>  (1) 
1065.188

>  <PUBCHEM_SHAPE_VOLUME>  (1) 
261.1

>  <PUBCHEM_COORDINATE_TYPE>  (1) 
2
5
10

$$$$
