3705
     RDKit          3D

 28 31  0  0  0  0  0  0  0  0999 V2000
   -6.9980   -0.2893    0.0634 S   0  0  0  0  0  0  0  0  0  0  0  0
    6.9838    0.3950   -0.0926 S   0  0  0  0  0  0  0  0  0  0  0  0
   -1.4971   -2.3025    0.0423 O   0  0  0  0  0  0  0  0  0  0  0  0
    1.4865    2.1206    0.0140 O   0  0  0  0  0  0  0  0  0  0  0  0
   -7.4182   -0.4339   -1.5095 O   0  0  0  0  0  0  0  0  0  0  0  0
    7.4117    0.5637    1.4760 O   0  0  0  0  0  0  0  0  0  0  0  0
   -7.0460   -1.6240    0.6411 O   0  0  0  0  0  0  0  0  0  0  0  0
   -7.7716    0.7983    0.6404 O   0  0  0  0  0  0  0  0  0  0  0  0
    7.8004   -0.6764   -0.6432 O   0  0  0  0  0  0  0  0  0  0  0  0
    6.9789    1.7143   -0.7044 O   0  0  0  0  0  0  0  0  0  0  0  0
   -1.3255    1.2077    0.0026 N   0  0  0  0  0  0  0  0  0  0  0  0
    1.3228   -1.3572    0.0304 N   0  0  0  0  0  0  0  0  0  0  0  0
   -0.7232   -0.0218    0.0115 C   0  0  0  0  0  0  0  0  0  0  0  0
   -2.9658   -0.3040    0.0325 C   0  0  0  0  0  0  0  0  0  0  0  0
   -2.6947    1.0658    0.0150 C   0  0  0  0  0  0  0  0  0  0  0  0
    0.7101   -0.2045    0.0037 C   0  0  0  0  0  0  0  0  0  0  0  0
   -1.7125   -0.9778    0.0304 C   0  0  0  0  0  0  0  0  0  0  0  0
    3.0058    0.2730   -0.0326 C   0  0  0  0  0  0  0  0  0  0  0  0
    2.7058   -1.0857    0.0030 C   0  0  0  0  0  0  0  0  0  0  0  0
    1.7149    0.9385   -0.0178 C   0  0  0  0  0  0  0  0  0  0  0  0
   -4.3090   -0.7294    0.0476 C   0  0  0  0  0  0  0  0  0  0  0  0
   -3.7038    2.0354    0.0119 C   0  0  0  0  0  0  0  0  0  0  0  0
   -5.3288    0.2291    0.0449 C   0  0  0  0  0  0  0  0  0  0  0  0
    4.2881    0.7769   -0.0614 C   0  0  0  0  0  0  0  0  0  0  0  0
   -5.0287    1.5898    0.0272 C   0  0  0  0  0  0  0  0  0  0  0  0
    5.3258   -0.1551   -0.0582 C   0  0  0  0  0  0  0  0  0  0  0  0
    3.7353   -2.0103    0.0064 C   0  0  0  0  0  0  0  0  0  0  0  0
    5.0527   -1.5362   -0.0248 C   0  0  0  0  0  0  0  0  0  0  0  0
  1  5  1  0
  1  7  2  0
  1  8  2  0
  1 23  1  0
  2  6  1  0
  2  9  2  0
  2 10  2  0
  2 26  1  0
  3 17  1  0
  4 20  2  0
 11 13  1  0
 11 15  1  0
 12 16  2  0
 12 19  1  0
 13 16  1  0
 13 17  2  0
 14 15  2  0
 14 17  1  0
 14 21  1  0
 15 22  1  0
 16 20  1  0
 18 19  2  0
 18 20  1  0
 18 24  1  0
 19 27  1  0
 21 23  2  0
 22 25  2  0
 23 25  1  0
 24 26  2  0
 26 28  1  0
 27 28  2  0
M  END
>  <PUBCHEM_COMPOUND_CID>  (1) 
3705

>  <PUBCHEM_CONFORMER_RMSD>  (1) 
0.8

>  <PUBCHEM_CONFORMER_DIVERSEORDER>  (1) 
1
3
2

>  <PUBCHEM_MMFF94_PARTIAL_CHARGES>  (1) 
37
1 1.49
10 -0.65
11 0.03
12 -0.63
13 -0.24
15 -0.15
16 0.53
17 0.06
18 0.09
19 0.18
2 1.49
20 0.48
21 -0.15
22 -0.15
23 -0.01
24 -0.15
25 -0.15
26 -0.01
27 -0.15
28 -0.15
29 0.27
3 -0.51
30 0.15
31 0.15
32 0.15
33 0.15
34 0.15
35 0.15
36 0.45
37 0.5
38 0.5
4 -0.57
5 -0.68
6 -0.68
7 -0.65
8 -0.65
9 -0.65

>  <PUBCHEM_EFFECTIVE_ROTOR_COUNT>  (1) 
3

>  <PUBCHEM_PHARMACOPHORE_FEATURES>  (1) 
17
1 10 acceptor
1 11 cation
1 11 donor
1 12 acceptor
1 3 donor
1 4 acceptor
1 5 acceptor
1 6 acceptor
1 7 acceptor
1 8 acceptor
1 9 acceptor
4 1 5 7 8 anion
4 2 6 9 10 anion
5 11 13 14 15 17 rings
5 12 16 18 19 20 rings
6 14 15 21 22 23 25 rings
6 18 19 24 26 27 28 rings

>  <PUBCHEM_HEAVY_ATOM_COUNT>  (1) 
28

>  <PUBCHEM_ATOM_DEF_STEREO_COUNT>  (1) 
0

>  <PUBCHEM_ATOM_UDEF_STEREO_COUNT>  (1) 
0

>  <PUBCHEM_BOND_DEF_STEREO_COUNT>  (1) 
0

>  <PUBCHEM_BOND_UDEF_STEREO_COUNT>  (1) 
0

>  <PUBCHEM_ISOTOPIC_ATOM_COUNT>  (1) 
0

>  <PUBCHEM_COMPONENT_COUNT>  (1) 
1

>  <PUBCHEM_CACTVS_TAUTO_COUNT>  (1) 
11

>  <PUBCHEM_CONFORMER_ID>  (1) 
00000E7900000001

>  <PUBCHEM_MMFF94_ENERGY>  (1) 
53.379

>  <PUBCHEM_FEATURE_SELFOVERLAP>  (1) 
86.58

>  <PUBCHEM_SHAPE_FINGERPRINT>  (1) 
10 15 18259703424153644256
10050765 1 18121781616855725572
10299344 5 18273497857858633655
10595046 47 18339080393355070169
11007060 377 18335428949952373417
11315181 36 18259989280181593417
11524674 6 15985101929752212807
11578080 2 16986854968831595202
11719270 70 18411979144729263178
12166972 35 18202845461256626009
12236239 1 18272652307430733905
12516196 113 18201999919861551128
12838862 33 18338218432057605248
13073987 5 18339361855446878984
13533116 47 17917148304092337698
13685833 64 18410013221404981368
14170010 4 18411980278331331192
14251764 18 18410855455833194497
14251764 46 18409448089539582306
14461889 52 18335421283547052554
14849402 71 18342180006829019720
14933364 13 18412829070646876808
15131766 46 16011021928698058574
15183329 4 18410573976561516577
15196674 1 18338235968409081320
1577012 14 18339642235639653737
15840311 113 18261397776078232244
15849732 13 18411138038980046436
16120349 18 18336262431174505108
18335252 98 18408891745900457931
18608769 82 18409450327639946219
18681886 176 18412256259965573857
19611394 137 17969799646912036635
21130935 74 18341896229775958706
21150785 3 18060419118439468102
21236236 1 18340487769262289073
21267235 1 18411987957110052333
21315763 28 18408886209745180700
220451 1 15626217992301959215
22224240 67 17703787033355858006
23522609 53 18126315054349863377
23559900 14 18340763853131942401
3004659 81 18260830393196119936
335352 9 18410575110459269862
34797466 226 16917071075336573536
350125 39 18411419510136770241
3545911 37 18412544310283818376
4073 2 18041568030537226122
4325135 7 18410856559681987925
4340502 62 16660362576608843234
5104073 3 18338517434806401272
54039377 194 18058158597093636879
59755656 520 17023180565550403611

>  <PUBCHEM_SHAPE_MULTIPOLES>  (1) 
527.01
22.81
1.9
0.76
0.2
0.04
-0.01
-0.8
-0.2
-0.03
0.01
0
-0.01
-0.02

>  <PUBCHEM_SHAPE_SELFOVERLAP>  (1) 
1162.495

>  <PUBCHEM_SHAPE_VOLUME>  (1) 
286.5

>  <PUBCHEM_COORDINATE_TYPE>  (1) 
2
5
10

$$$$
