37051
     RDKit          3D

 15 15  0  0  0  0  0  0  0  0999 V2000
   -2.3952   -0.2726    0.1916 O   0  0  0  0  0  0  0  0  0  0  0  0
   -0.9889   -1.6445   -0.9768 O   0  0  0  0  0  0  0  0  0  0  0  0
    0.1607    2.5514    0.7597 O   0  0  0  0  0  0  0  0  0  0  0  0
   -0.1934    0.3852   -0.0968 N   0  0  0  0  0  0  0  0  0  0  0  0
   -1.6341    2.1837   -0.5994 N   0  0  0  0  0  0  0  0  0  0  0  0
    1.1932   -0.0290   -0.0111 C   0  0  0  0  0  0  0  0  0  0  0  0
    2.1560    0.8629   -0.3985 C   0  0  0  0  0  0  0  0  0  0  0  0
    1.4603   -1.2881    0.4534 C   0  0  0  0  0  0  0  0  0  0  0  0
   -1.1756   -0.6096   -0.3389 C   0  0  0  0  0  0  0  0  0  0  0  0
    3.4902    0.4646   -0.3151 C   0  0  0  0  0  0  0  0  0  0  0  0
    2.7944   -1.6865    0.5370 C   0  0  0  0  0  0  0  0  0  0  0  0
   -3.4611   -1.2013   -0.0372 C   0  0  0  0  0  0  0  0  0  0  0  0
    3.8093   -0.8101    0.1526 C   0  0  0  0  0  0  0  0  0  0  0  0
   -0.4931    1.7680    0.0669 C   0  0  0  0  0  0  0  0  0  0  0  0
   -4.7226   -0.6741    0.6126 C   0  0  0  0  0  0  0  0  0  0  0  0
  1  9  1  0
  1 12  1  0
  2  9  2  0
  3 14  2  0
  4  6  1  0
  4  9  1  0
  4 14  1  0
  5 14  1  0
  6  7  2  0
  6  8  1  0
  7 10  1  0
  8 11  2  0
 10 13  2  0
 11 13  1  0
 12 15  1  0
M  END
>  <PUBCHEM_COMPOUND_CID>  (1) 
37051

>  <PUBCHEM_CONFORMER_RMSD>  (1) 
0.6

>  <PUBCHEM_CONFORMER_DIVERSEORDER>  (1) 
1
3
50
48
47
15
5
18
11
30
20
32
40
25
28
54
22
44
16
13
53
51
38
41
27
19
36
7
46
37
2
52
31
26
39
24
23
4
42
43
10
35
8
14
9
45
49
29
12
17
33
21
6
34

>  <PUBCHEM_MMFF94_PARTIAL_CHARGES>  (1) 
21
1 -0.43
10 -0.15
11 -0.15
12 0.28
13 -0.15
14 0.69
16 0.15
17 0.15
18 0.15
19 0.15
2 -0.57
22 0.15
26 0.37
27 0.37
3 -0.57
4 -0.24
5 -0.8
6 0.12
7 -0.15
8 -0.15
9 0.78

>  <PUBCHEM_EFFECTIVE_ROTOR_COUNT>  (1) 
5

>  <PUBCHEM_PHARMACOPHORE_FEATURES>  (1) 
4
1 2 acceptor
1 3 acceptor
1 5 donor
6 6 7 8 10 11 13 rings

>  <PUBCHEM_HEAVY_ATOM_COUNT>  (1) 
15

>  <PUBCHEM_ATOM_DEF_STEREO_COUNT>  (1) 
0

>  <PUBCHEM_ATOM_UDEF_STEREO_COUNT>  (1) 
0

>  <PUBCHEM_BOND_DEF_STEREO_COUNT>  (1) 
0

>  <PUBCHEM_BOND_UDEF_STEREO_COUNT>  (1) 
0

>  <PUBCHEM_ISOTOPIC_ATOM_COUNT>  (1) 
0

>  <PUBCHEM_COMPONENT_COUNT>  (1) 
1

>  <PUBCHEM_CACTVS_TAUTO_COUNT>  (1) 
2

>  <PUBCHEM_CONFORMER_ID>  (1) 
000090BB00000001

>  <PUBCHEM_MMFF94_ENERGY>  (1) 
54.5318

>  <PUBCHEM_FEATURE_SELFOVERLAP>  (1) 
20.297

>  <PUBCHEM_SHAPE_FINGERPRINT>  (1) 
10130415 120 18409449210742506419
10618630 7 18408040706124324614
11680986 33 17765996099579828415
12032990 46 18410578383229909639
12119455 92 11959737031955013507
12553582 1 18340477949970200326
13538477 17 18118677717353575096
14115302 16 17677061242542006798
14178342 30 18046892789583608978
14252887 29 18201733863326971926
14993402 34 18272936063415120847
15375462 189 18409728495164635339
15490181 8 17478889385635651996
161256 15 18340196513606016720
16945 1 18337659919185202484
200 152 18260264135927957218
20510252 161 18272368620867710376
20645477 70 18334007281439504471
20871998 184 18201151036243338310
20871998 22 18271253728640534271
21267235 1 18409176493373151090
21296965 67 18410853269800465817
21501502 16 18261676948392932040
23402539 116 18202275913927157830
23463225 33 18411420609210587183
23557571 272 18202290169551068172
25610 137 18333453161732355334
2748010 2 18268983198701071140
3250762 1 17481723956945920247
465052 167 18340495572875344847
5104073 3 18338509721614836936
537710 114 18335990855922825124
83771 10 18335138704536470571

>  <PUBCHEM_SHAPE_MULTIPOLES>  (1) 
281.12
6.83
2.19
0.78
3.85
1.17
0.01
-3.01
-0.78
0.17
-0.15
0.07
-0.03
-0.22

>  <PUBCHEM_SHAPE_SELFOVERLAP>  (1) 
580.878

>  <PUBCHEM_SHAPE_VOLUME>  (1) 
159.8

>  <PUBCHEM_COORDINATE_TYPE>  (1) 
2
5
10

$$$$
