37062
     RDKit          3D

 21 21  0  0  1  0  0  0  0  0999 V2000
   -2.7451   -0.2093   -2.6371 Cl  0  0  0  0  0  0  0  0  0  0  0  0
   -6.7052    1.1872    0.7365 Cl  0  0  0  0  0  0  0  0  0  0  0  0
   -1.4014   -1.1828   -0.1305 O   0  0  0  0  0  0  0  0  0  0  0  0
    3.3933   -2.2631    1.1017 O   0  0  0  0  0  0  0  0  0  0  0  0
    1.0083   -1.3513   -1.3187 O   0  0  0  0  0  0  0  0  0  0  0  0
    5.2297   -1.7790   -0.1345 O   0  0  0  0  0  0  0  0  0  0  0  0
    3.8082    3.3115    0.8279 O   0  0  0  0  0  0  0  0  0  0  0  0
    2.8627    2.5140   -1.0757 O   0  0  0  0  0  0  0  0  0  0  0  0
    2.0466   -0.1717    0.3966 N   0  0  0  0  0  0  0  0  0  0  0  0
    3.3886   -0.2006   -0.1336 C   0  0  0  0  0  0  0  0  0  0  0  0
    4.1884    1.0220    0.3251 C   0  0  0  0  0  0  0  0  0  0  0  0
    0.9644   -0.7539   -0.2466 C   0  0  0  0  0  0  0  0  0  0  0  0
    4.1106   -1.4778    0.2630 C   0  0  0  0  0  0  0  0  0  0  0  0
   -0.3181   -0.5711    0.5366 C   0  0  0  0  0  0  0  0  0  0  0  0
    3.5413    2.3313   -0.0747 C   0  0  0  0  0  0  0  0  0  0  0  0
   -2.6452   -0.6251    0.0493 C   0  0  0  0  0  0  0  0  0  0  0  0
   -3.3696   -0.1372   -1.0305 C   0  0  0  0  0  0  0  0  0  0  0  0
   -3.1586   -0.5610    1.3388 C   0  0  0  0  0  0  0  0  0  0  0  0
   -4.6286    0.4242   -0.8179 C   0  0  0  0  0  0  0  0  0  0  0  0
   -4.4175    0.0005    1.5513 C   0  0  0  0  0  0  0  0  0  0  0  0
   -5.1526    0.4932    0.4730 C   0  0  0  0  0  0  0  0  0  0  0  0
  1 17  1  0
  2 21  1  0
  3 14  1  0
  3 16  1  0
  4 13  1  0
  5 12  2  0
  6 13  2  0
  7 15  1  0
  8 15  2  0
  9 10  1  0
  9 12  1  0
 10 11  1  0
 10 13  1  0
 11 15  1  0
 12 14  1  0
 16 17  2  0
 16 18  1  0
 17 19  1  0
 18 20  2  0
 19 21  2  0
 20 21  1  0
M  END
>  <PUBCHEM_COMPOUND_CID>  (1) 
37062

>  <PUBCHEM_CONFORMER_RMSD>  (1) 
0.8

>  <PUBCHEM_CONFORMER_DIVERSEORDER>  (1) 
1
88
17
56
29
60
105
48
75
10
64
118
119
113
111
94
18
104
79
12
54
72
23
62
43
127
57
106
71
4
91
116
108
112
96
63
28
76
38
128
49
120
41
101
86
15
21
42
82
122
33
95
68
9
32
126
78
109
81
50
115
20
27
52
125
34
45
65
114
121
77
92
19
93
58
6
51
47
59
37
85
89
97
30
87
53
74
90
14
31
66
73
117
84
124
16
44
11
98
3
100
123
110
70
26
36
103
22
7
46
99
61
25
5
40
69
107
80
2
35
39
55
13
67
102
83
24
8

>  <PUBCHEM_MMFF94_PARTIAL_CHARGES>  (1) 
27
1 -0.18
10 0.36
11 0.06
12 0.57
13 0.66
14 0.34
15 0.66
16 0.08
17 0.18
18 -0.15
19 -0.15
2 -0.18
20 -0.15
21 0.18
25 0.37
28 0.15
29 0.15
3 -0.36
30 0.15
31 0.5
32 0.5
4 -0.65
5 -0.57
6 -0.57
7 -0.65
8 -0.57
9 -0.73

>  <PUBCHEM_EFFECTIVE_ROTOR_COUNT>  (1) 
8

>  <PUBCHEM_PHARMACOPHORE_FEATURES>  (1) 
10
1 3 acceptor
1 4 acceptor
1 5 acceptor
1 6 acceptor
1 7 acceptor
1 8 acceptor
1 9 donor
3 4 6 13 anion
3 7 8 15 anion
6 16 17 18 19 20 21 rings

>  <PUBCHEM_HEAVY_ATOM_COUNT>  (1) 
21

>  <PUBCHEM_ATOM_DEF_STEREO_COUNT>  (1) 
1

>  <PUBCHEM_ATOM_UDEF_STEREO_COUNT>  (1) 
0

>  <PUBCHEM_BOND_DEF_STEREO_COUNT>  (1) 
0

>  <PUBCHEM_BOND_UDEF_STEREO_COUNT>  (1) 
0

>  <PUBCHEM_ISOTOPIC_ATOM_COUNT>  (1) 
0

>  <PUBCHEM_COMPONENT_COUNT>  (1) 
1

>  <PUBCHEM_CACTVS_TAUTO_COUNT>  (1) 
2

>  <PUBCHEM_CONFORMER_ID>  (1) 
000090C600000001

>  <PUBCHEM_MMFF94_ENERGY>  (1) 
46.076

>  <PUBCHEM_FEATURE_SELFOVERLAP>  (1) 
50.874

>  <PUBCHEM_SHAPE_FINGERPRINT>  (1) 
11059845 2 14205003504736020436
11370993 144 18187085040224694635
11405975 8 18334293184179013234
12236239 1 17775279452473309735
12403259 415 17603581907176031607
12616971 3 18202277000785751863
13167372 99 18270967834733430385
13533116 47 17822291211218406011
13583140 156 18113333098447214643
13631057 29 10954902211294986097
13675066 3 17530684316266817743
13878862 14 18337091424223910725
14251764 75 18051136088091546640
14341114 176 18186807958572344364
15342168 16 18343306993878617341
15348495 7 18113626711338484451
17844677 252 18335988597112912209
18186145 218 18113893875305030562
19433438 15 17774997999039741199
19433438 28 17458343018274630095
20645477 56 17821723961844283159
21033648 144 18339068402017500196
21033648 29 17603853507928256165
21033650 10 15696901218369940906
21065201 7 16008742472677459890
22122407 14 18269851852111926465
22849339 104 15266778940243304061
2297311 6 16226340205213917119
23559900 14 17458350736357501142
268830 7 18411972576985178637
34797466 226 13758068632282478355
474 4 18272936028786408883
5104073 3 18261671570851512523
57724786 102 18408606984693556036
633830 44 18343863333471649454
9971528 1 18060135406576366138

>  <PUBCHEM_SHAPE_MULTIPOLES>  (1) 
395.71
14.12
2.3
1.55
6.39
1.77
0.83
3.77
-2.99
-4.87
-0.26
1.84
-0.14
-0.51

>  <PUBCHEM_SHAPE_SELFOVERLAP>  (1) 
798.522

>  <PUBCHEM_SHAPE_VOLUME>  (1) 
230.8

>  <PUBCHEM_COORDINATE_TYPE>  (1) 
2
5
10

$$$$
