37063
     RDKit          3D

 27 28  0  0  0  0  0  0  0  0999 V2000
   -4.7569   -2.3987   -0.4111 O   0  0  0  0  0  0  0  0  0  0  0  0
    4.7659    2.3939   -0.4184 O   0  0  0  0  0  0  0  0  0  0  0  0
   -4.7737    2.3908   -0.4022 O   0  0  0  0  0  0  0  0  0  0  0  0
    4.7627   -2.3957   -0.3962 O   0  0  0  0  0  0  0  0  0  0  0  0
   -5.9304   -0.0061   -1.1681 O   0  0  0  0  0  0  0  0  0  0  0  0
    5.9289   -0.0056   -1.1695 O   0  0  0  0  0  0  0  0  0  0  0  0
   -0.0019    0.0096    1.0956 N   0  0  0  0  0  0  0  0  0  0  0  0
   -1.1938    0.0040    1.9283 C   0  0  0  0  0  0  0  0  0  0  0  0
    1.2063    0.0124    1.9223 C   0  0  0  0  0  0  0  0  0  0  0  0
   -2.4538    0.0012    1.1042 C   0  0  0  0  0  0  0  0  0  0  0  0
    2.4538    0.0078    1.1051 C   0  0  0  0  0  0  0  0  0  0  0  0
   -3.0418    1.2079    0.7249 C   0  0  0  0  0  0  0  0  0  0  0  0
    3.0366   -1.2023    0.7288 C   0  0  0  0  0  0  0  0  0  0  0  0
   -3.0334   -1.2080    0.7203 C   0  0  0  0  0  0  0  0  0  0  0  0
    3.0382    1.2135    0.7175 C   0  0  0  0  0  0  0  0  0  0  0  0
   -4.2010   -1.2107   -0.0429 C   0  0  0  0  0  0  0  0  0  0  0  0
    4.2053    1.2091   -0.0465 C   0  0  0  0  0  0  0  0  0  0  0  0
   -4.2093    1.2053   -0.0384 C   0  0  0  0  0  0  0  0  0  0  0  0
    4.2036   -1.2068   -0.0353 C   0  0  0  0  0  0  0  0  0  0  0  0
   -4.7889   -0.0039   -0.4223 C   0  0  0  0  0  0  0  0  0  0  0  0
    4.7878   -0.0010   -0.4230 C   0  0  0  0  0  0  0  0  0  0  0  0
   -4.0928   -3.5856    0.0182 C   0  0  0  0  0  0  0  0  0  0  0  0
    4.1071    3.5847    0.0081 C   0  0  0  0  0  0  0  0  0  0  0  0
   -4.1180    3.5807    0.0315 C   0  0  0  0  0  0  0  0  0  0  0  0
    4.1023   -3.5816    0.0412 C   0  0  0  0  0  0  0  0  0  0  0  0
   -5.7771   -0.0031   -2.5854 C   0  0  0  0  0  0  0  0  0  0  0  0
    5.7745   -0.0119   -2.5868 C   0  0  0  0  0  0  0  0  0  0  0  0
  1 16  1  0
  1 22  1  0
  2 17  1  0
  2 23  1  0
  3 18  1  0
  3 24  1  0
  4 19  1  0
  4 25  1  0
  5 20  1  0
  5 26  1  0
  6 21  1  0
  6 27  1  0
  7  8  1  0
  7  9  1  0
  8 10  1  0
  9 11  1  0
 10 12  2  0
 10 14  1  0
 11 13  2  0
 11 15  1  0
 12 18  1  0
 13 19  1  0
 14 16  2  0
 15 17  2  0
 16 20  1  0
 17 21  1  0
 18 20  2  0
 19 21  2  0
M  END
>  <PUBCHEM_COMPOUND_CID>  (1) 
37063

>  <PUBCHEM_CONFORMER_RMSD>  (1) 
1

>  <PUBCHEM_CONFORMER_DIVERSEORDER>  (1) 
1
5
13
12
6
14
15
16
3
8
10
9
4
11
7
2

>  <PUBCHEM_MMFF94_PARTIAL_CHARGES>  (1) 
32
1 -0.36
10 -0.14
11 -0.14
12 -0.15
13 -0.15
14 -0.15
15 -0.15
16 0.08
17 0.08
18 0.08
19 0.08
2 -0.36
20 0.08
21 0.08
22 0.28
23 0.28
24 0.28
25 0.28
26 0.28
27 0.28
3 -0.36
32 0.36
33 0.15
34 0.15
35 0.15
36 0.15
4 -0.36
5 -0.36
6 -0.36
7 -0.9
8 0.41
9 0.41

>  <PUBCHEM_EFFECTIVE_ROTOR_COUNT>  (1) 
10

>  <PUBCHEM_PHARMACOPHORE_FEATURES>  (1) 
10
1 1 acceptor
1 2 acceptor
1 3 acceptor
1 4 acceptor
1 5 acceptor
1 6 acceptor
1 7 cation
1 7 donor
6 10 12 14 16 18 20 rings
6 11 13 15 17 19 21 rings

>  <PUBCHEM_HEAVY_ATOM_COUNT>  (1) 
27

>  <PUBCHEM_ATOM_DEF_STEREO_COUNT>  (1) 
0

>  <PUBCHEM_ATOM_UDEF_STEREO_COUNT>  (1) 
0

>  <PUBCHEM_BOND_DEF_STEREO_COUNT>  (1) 
0

>  <PUBCHEM_BOND_UDEF_STEREO_COUNT>  (1) 
0

>  <PUBCHEM_ISOTOPIC_ATOM_COUNT>  (1) 
0

>  <PUBCHEM_COMPONENT_COUNT>  (1) 
1

>  <PUBCHEM_CACTVS_TAUTO_COUNT>  (1) 
1

>  <PUBCHEM_CONFORMER_ID>  (1) 
000090C700000001

>  <PUBCHEM_MMFF94_ENERGY>  (1) 
127.7484

>  <PUBCHEM_FEATURE_SELFOVERLAP>  (1) 
50.767

>  <PUBCHEM_SHAPE_FINGERPRINT>  (1) 
10693767 8 18057901156437351286
13782708 43 16988262280044681479
14528608 73 18261393390320185680
14910302 57 18341316830413596683
15003188 33 18411416176777847249
15064981 194 18114476638586303029
15183329 4 18410575067483216465
15188451 53 11311762948275421169
15250474 111 18343581806971473754
15475509 84 12325612798195184678
16989378 47 17129893568311197718
17844677 252 18411143549375912809
19958102 18 18338786832931524631
21968339 14 18410290333592225080
22393880 68 18413673521652696466
23522609 53 17702406068648565545
23559900 14 18271232894028209171
3004659 81 17917713478986056842
312425 83 18408322163873596264
34797466 226 18268715076672331561
3610482 184 18265350412367892781
44062 13 18273209781844444619
44317340 157 18114186353913866931
59682541 52 18410284783539163791
633830 44 17458352900889013722
960060 61 18410857633877687442

>  <PUBCHEM_SHAPE_MULTIPOLES>  (1) 
515.45
17.27
3.76
1.75
0.03
0.01
-0.79
-0.01
-9.86
0
-0.15
0
0
-0.04

>  <PUBCHEM_SHAPE_SELFOVERLAP>  (1) 
1075.059

>  <PUBCHEM_SHAPE_VOLUME>  (1) 
296

>  <PUBCHEM_COORDINATE_TYPE>  (1) 
2
5
10

$$$$
