37061
     RDKit          3D

 30 33  0  0  1  0  0  0  0  0999 V2000
    1.0803    0.5170    1.3493 F   0  0  0  0  0  0  0  0  0  0  0  0
    3.3762   -2.8958    0.0095 F   0  0  0  0  0  0  0  0  0  0  0  0
    2.6878   -2.0240   -1.8506 F   0  0  0  0  0  0  0  0  0  0  0  0
   -3.2732   -0.0063    1.8525 O   0  0  0  0  0  0  0  0  0  0  0  0
   -0.0082    2.1847   -1.6652 O   0  0  0  0  0  0  0  0  0  0  0  0
   -5.4844   -0.3114   -0.5260 O   0  0  0  0  0  0  0  0  0  0  0  0
   -6.0267    2.2437    0.3559 O   0  0  0  0  0  0  0  0  0  0  0  0
    5.9653    0.8839    1.7313 O   0  0  0  0  0  0  0  0  0  0  0  0
   -2.0237    0.1899   -0.2754 C   0  0  0  0  0  0  0  0  0  0  0  0
   -1.0550   -0.9304    0.1628 C   0  0  0  0  0  0  0  0  0  0  0  0
    0.3469   -0.8059   -0.4559 C   0  0  0  0  0  0  0  0  0  0  0  0
    0.9792    0.5641   -0.0326 C   0  0  0  0  0  0  0  0  0  0  0  0
   -3.3121   -0.2881    0.4576 C   0  0  0  0  0  0  0  0  0  0  0  0
   -1.8477   -2.2150   -0.0779 C   0  0  0  0  0  0  0  0  0  0  0  0
   -1.4180    1.5267    0.1986 C   0  0  0  0  0  0  0  0  0  0  0  0
   -3.3191   -1.8293    0.2237 C   0  0  0  0  0  0  0  0  0  0  0  0
    0.0219    1.7618   -0.3126 C   0  0  0  0  0  0  0  0  0  0  0  0
    2.4602    0.7232   -0.5614 C   0  0  0  0  0  0  0  0  0  0  0  0
    1.2322   -1.9827   -0.0100 C   0  0  0  0  0  0  0  0  0  0  0  0
   -2.2922    0.2138   -1.8069 C   0  0  0  0  0  0  0  0  0  0  0  0
    2.6649   -1.8500   -0.5012 C   0  0  0  0  0  0  0  0  0  0  0  0
    3.2509   -0.5164   -0.1150 C   0  0  0  0  0  0  0  0  0  0  0  0
   -4.5827    0.3544   -0.0192 C   0  0  0  0  0  0  0  0  0  0  0  0
   -3.8905   -2.6462    1.3803 C   0  0  0  0  0  0  0  0  0  0  0  0
    2.5826    0.8364   -2.0984 C   0  0  0  0  0  0  0  0  0  0  0  0
    3.0786    1.9994   -0.0059 C   0  0  0  0  0  0  0  0  0  0  0  0
    4.3704   -0.4530    0.6238 C   0  0  0  0  0  0  0  0  0  0  0  0
   -4.6838    1.8544    0.1597 C   0  0  0  0  0  0  0  0  0  0  0  0
    4.1915    2.0642    0.7308 C   0  0  0  0  0  0  0  0  0  0  0  0
    4.9284    0.8369    1.0781 C   0  0  0  0  0  0  0  0  0  0  0  0
  1 12  1  0
  2 21  1  0
  3 21  1  0
  4 13  1  0
  5 17  1  0
  6 23  2  0
  7 28  1  0
  8 30  2  0
  9 10  1  0
  9 13  1  0
  9 15  1  0
  9 20  1  0
 10 11  1  0
 10 14  1  0
 11 12  1  0
 11 19  1  0
 12 17  1  0
 12 18  1  0
 13 16  1  0
 13 23  1  0
 14 16  1  0
 15 17  1  0
 16 24  1  0
 18 22  1  0
 18 25  1  0
 18 26  1  0
 19 21  1  0
 21 22  1  0
 22 27  2  0
 23 28  1  0
 26 29  2  0
 27 30  1  0
 29 30  1  0
M  END
>  <PUBCHEM_COMPOUND_CID>  (1) 
37061

>  <PUBCHEM_CONFORMER_RMSD>  (1) 
0.8

>  <PUBCHEM_CONFORMER_DIVERSEORDER>  (1) 
1
10
23
33
29
20
27
22
12
7
16
30
35
3
34
2
21
25
13
24
26
32
9
31
15
28
8
19
17
11
4
5
14
18
6

>  <PUBCHEM_MMFF94_PARTIAL_CHARGES>  (1) 
26
1 -0.34
12 0.34
13 0.34
17 0.28
18 0.28
2 -0.34
21 0.82
22 -0.28
23 0.45
26 -0.29
27 -0.14
28 0.34
29 -0.14
3 -0.34
30 0.54
4 -0.68
5 -0.68
50 0.4
51 0.15
52 0.4
53 0.15
56 0.15
57 0.4
6 -0.57
7 -0.68
8 -0.57

>  <PUBCHEM_EFFECTIVE_ROTOR_COUNT>  (1) 
3.4

>  <PUBCHEM_PHARMACOPHORE_FEATURES>  (1) 
12
1 4 acceptor
1 4 donor
1 5 acceptor
1 5 donor
1 6 acceptor
1 7 acceptor
1 7 donor
1 8 acceptor
5 9 10 13 14 16 rings
6 11 12 18 19 21 22 rings
6 18 22 26 27 29 30 rings
6 9 10 11 12 15 17 rings

>  <PUBCHEM_HEAVY_ATOM_COUNT>  (1) 
30

>  <PUBCHEM_ATOM_DEF_STEREO_COUNT>  (1) 
5

>  <PUBCHEM_ATOM_UDEF_STEREO_COUNT>  (1) 
3

>  <PUBCHEM_BOND_DEF_STEREO_COUNT>  (1) 
0

>  <PUBCHEM_BOND_UDEF_STEREO_COUNT>  (1) 
0

>  <PUBCHEM_ISOTOPIC_ATOM_COUNT>  (1) 
0

>  <PUBCHEM_COMPONENT_COUNT>  (1) 
1

>  <PUBCHEM_CACTVS_TAUTO_COUNT>  (1) 
3

>  <PUBCHEM_CONFORMER_ID>  (1) 
000090C500000001

>  <PUBCHEM_MMFF94_ENERGY>  (1) 
99.0891

>  <PUBCHEM_FEATURE_SELFOVERLAP>  (1) 
61

>  <PUBCHEM_SHAPE_FINGERPRINT>  (1) 
10863032 1 18410302423381395799
10906281 52 18114194063823534380
1100329 8 16606596143760565251
11370993 70 18341894103745541243
11405975 8 18113059345947666353
11578080 2 17416946470103355865
11961588 58 13542170728334152856
12035758 1 18113909230446142665
12236239 1 17561078103408481967
12403814 3 17603581954694998021
12422481 6 18410566293461227210
12553582 1 18264788686258039717
12616971 3 16805324413658745061
12633257 1 17385720335115254260
12788726 201 16916790634597617217
13140716 1 18408323254853772691
13224815 77 18335710480442073702
13583140 156 17917709162448946513
14178342 30 18336829804701056766
14223421 5 18412261706010335798
14790565 3 17976267060312345436
15196674 1 18410294739294630027
15238133 3 16226044440780519901
15375358 24 18411982476900659139
15788980 27 16515677875067560421
15840311 113 18056487154250519505
16945 1 18341620325756244604
17349148 13 17968097577121264296
17980427 23 18114738365050173076
1813 80 16950567670478518372
20511986 3 18059559279119630499
20691752 17 17312822688519204519
20715895 44 18337387120169549889
21033648 29 17896320217131581653
21421861 104 17896308143725051994
21452121 103 18341327821250731210
21859007 373 17533765019262994421
22149856 69 18270141084068436507
22182313 1 18115579336283124180
23402539 116 18115016510967948594
23557571 272 17676479519381396188
23559900 14 18336275535241129070
335352 9 18337676291342429599
34797466 226 16988566831363805973
34934 24 18272082799136176079
350125 39 18410013196342137356
3633792 109 18270110215953811125
3680242 22 18187643544496717962
392239 28 17845091959894603306
4340502 62 18131349734707906672
460360 51 18339098020191016569
495365 180 17846772979702490166
5104073 3 18410299082018341467
5265222 85 18053106409477027212
59755656 215 18412547583518370542
9709674 26 18412831256906757807

>  <PUBCHEM_SHAPE_MULTIPOLES>  (1) 
566.22
11.24
2.77
1.43
2.52
0.8
-0.28
-2.8
3.85
0.59
0
-0.69
-0.11
0.99

>  <PUBCHEM_SHAPE_SELFOVERLAP>  (1) 
1238.349

>  <PUBCHEM_SHAPE_VOLUME>  (1) 
307.5

>  <PUBCHEM_COORDINATE_TYPE>  (1) 
2
5
10

$$$$
