37079
     RDKit          3D

  8  7  0  0  0  0  0  0  0  0999 V2000
    3.1057   -0.5075   -0.0190 N   0  0  0  0  0  0  0  0  0  0  0  0
   -0.6064    0.4317    0.0099 C   0  0  0  0  0  0  0  0  0  0  0  0
    0.6571   -0.4343   -0.0159 C   0  0  0  0  0  0  0  0  0  0  0  0
   -1.9020   -0.3827    0.0197 C   0  0  0  0  0  0  0  0  0  0  0  0
   -3.1289    0.5292   -0.0280 C   0  0  0  0  0  0  0  0  0  0  0  0
    1.9491    0.3818    0.0007 C   0  0  0  0  0  0  0  0  0  0  0  0
   -4.4205   -0.2722    0.0134 C   0  0  0  0  0  0  0  0  0  0  0  0
    4.3458    0.2540    0.0192 C   0  0  0  0  0  0  0  0  0  0  0  0
  1  6  1  0
  1  8  1  0
  2  3  1  0
  2  4  1  0
  3  6  1  0
  4  5  1  0
  5  7  1  0
M  END
>  <PUBCHEM_COMPOUND_CID>  (1) 
37079

>  <PUBCHEM_CONFORMER_RMSD>  (1) 
0.6

>  <PUBCHEM_CONFORMER_DIVERSEORDER>  (1) 
1
68
26
72
34
21
36
66
14
70
23
69
58
32
71
17
29
8
7
25
67
18
38
51
42
59
24
15
41
6
49
5
33
12
43
4
28
53
10
64
9
52
19
65
62
35
16
22
61
57
31
46
2
55
27
20
60
50
54
48
45
40
37
39
63
11
3
30
56
44
13
47

>  <PUBCHEM_MMFF94_PARTIAL_CHARGES>  (1) 
4
1 -0.9
22 0.36
6 0.27
8 0.27

>  <PUBCHEM_EFFECTIVE_ROTOR_COUNT>  (1) 
5

>  <PUBCHEM_PHARMACOPHORE_FEATURES>  (1) 
4
1 1 cation
1 1 donor
1 7 hydrophobe
4 2 3 4 5 hydrophobe

>  <PUBCHEM_HEAVY_ATOM_COUNT>  (1) 
8

>  <PUBCHEM_ATOM_DEF_STEREO_COUNT>  (1) 
0

>  <PUBCHEM_ATOM_UDEF_STEREO_COUNT>  (1) 
0

>  <PUBCHEM_BOND_DEF_STEREO_COUNT>  (1) 
0

>  <PUBCHEM_BOND_UDEF_STEREO_COUNT>  (1) 
0

>  <PUBCHEM_ISOTOPIC_ATOM_COUNT>  (1) 
0

>  <PUBCHEM_COMPONENT_COUNT>  (1) 
1

>  <PUBCHEM_CACTVS_TAUTO_COUNT>  (1) 
1

>  <PUBCHEM_CONFORMER_ID>  (1) 
000090D700000001

>  <PUBCHEM_MMFF94_ENERGY>  (1) 
-4.2178

>  <PUBCHEM_FEATURE_SELFOVERLAP>  (1) 
20.297

>  <PUBCHEM_SHAPE_FINGERPRINT>  (1) 
11062470 55 18410575084663085412
14123238 8 18410575101848235901
14325111 11 18410856538196699046
17834076 25 16917068867195550920
190213 19 15647055953793396785
20645477 70 18272091535559125102
20719005 15 18410573993741405219
22485316 2 18335416867961663603
23402539 116 18335975424648584767
42788 4 18411136935395074757

>  <PUBCHEM_SHAPE_MULTIPOLES>  (1) 
159.66
8.81
0.77
0.61
0.79
0.01
0
0.01
0.03
-0.06
0
-0.03
0.01
0.02

>  <PUBCHEM_SHAPE_SELFOVERLAP>  (1) 
273.229

>  <PUBCHEM_SHAPE_VOLUME>  (1) 
106.9

>  <PUBCHEM_COORDINATE_TYPE>  (1) 
2
5
10

$$$$
