37084
     RDKit          3D

 15 14  0  0  0  0  0  0  0  0999 V2000
   -4.6339   -0.8690   -1.2900 O   0  0  0  0  0  0  0  0  0  0  0  0
    1.3232    1.9926   -0.0270 C   0  0  0  0  0  0  0  0  0  0  0  0
   -0.0100    1.4688   -0.6303 C   0  0  0  0  0  0  0  0  0  0  0  0
    2.1402    0.8934    0.7102 C   0  0  0  0  0  0  0  0  0  0  0  0
   -0.9632    0.7854    0.3588 C   0  0  0  0  0  0  0  0  0  0  0  0
    2.1623    2.5924   -1.1755 C   0  0  0  0  0  0  0  0  0  0  0  0
    1.0364    3.1271    0.9802 C   0  0  0  0  0  0  0  0  0  0  0  0
    2.5371   -0.3221   -0.1415 C   0  0  0  0  0  0  0  0  0  0  0  0
   -2.2135    0.2605   -0.3579 C   0  0  0  0  0  0  0  0  0  0  0  0
    3.2949   -1.3872    0.6617 C   0  0  0  0  0  0  0  0  0  0  0  0
   -3.2050   -0.3924    0.6041 C   0  0  0  0  0  0  0  0  0  0  0  0
    3.6230   -2.6093   -0.1444 C   0  0  0  0  0  0  0  0  0  0  0  0
   -4.4538   -0.9306   -0.0748 C   0  0  0  0  0  0  0  0  0  0  0  0
   -5.4995   -1.5226    0.8341 C   0  0  0  0  0  0  0  0  0  0  0  0
    4.8617   -3.0871   -0.3079 C   0  0  0  0  0  0  0  0  0  0  0  0
  1 13  2  0
  2  3  1  0
  2  4  1  0
  2  6  1  0
  2  7  1  0
  3  5  1  0
  4  8  1  0
  5  9  1  0
  8 10  1  0
  9 11  1  0
 10 12  1  0
 11 13  1  0
 12 15  2  0
 13 14  1  0
M  END
>  <PUBCHEM_COMPOUND_CID>  (1) 
37084

>  <PUBCHEM_CONFORMER_RMSD>  (1) 
0.8

>  <PUBCHEM_CONFORMER_DIVERSEORDER>  (1) 
1
48
19
42
49
101
193
177
153
84
194
93
191
73
173
72
164
22
115
196
54
17
92
55
132
189
175
38
163
118
64
52
3
154
169
150
158
161
199
120
192
70
155
8
204
60
13
16
159
33
180
148
174
142
43
5
96
162
21
6
65
179
160
86
122
188
190
62
176
45
134
111
30
34
136
97
28
91
131
18
125
50
59
24
7
140
77
20
78
157
186
76
41
98
10
95
114
172
201
182
200
47
141
147
25
185
44
29
58
171
151
83
187
94
116
113
127
27
117
66
75
81
63
183
35
123
133
165
40
104
139
36
4
87
184
145
156
80
46
39
85
31
103
119
67
100
53
56
195
202
37
14
144
143
26
112
197
82
128
146
130
135
166
124
2
198
51
12
61
89
106
167
149
90
15
152
57
74
108
203
181
129
178
138
168
170
69
88
110
126
105
23
11
137
102
71
99
121
109
68
107
79
32
9

>  <PUBCHEM_MMFF94_PARTIAL_CHARGES>  (1) 
10
1 -0.57
10 0.14
11 0.06
12 -0.29
13 0.45
14 0.06
15 -0.3
36 0.15
40 0.15
41 0.15

>  <PUBCHEM_EFFECTIVE_ROTOR_COUNT>  (1) 
9

>  <PUBCHEM_PHARMACOPHORE_FEATURES>  (1) 
3
1 1 acceptor
1 15 hydrophobe
3 2 6 7 hydrophobe

>  <PUBCHEM_HEAVY_ATOM_COUNT>  (1) 
15

>  <PUBCHEM_ATOM_DEF_STEREO_COUNT>  (1) 
0

>  <PUBCHEM_ATOM_UDEF_STEREO_COUNT>  (1) 
0

>  <PUBCHEM_BOND_DEF_STEREO_COUNT>  (1) 
0

>  <PUBCHEM_BOND_UDEF_STEREO_COUNT>  (1) 
0

>  <PUBCHEM_ISOTOPIC_ATOM_COUNT>  (1) 
0

>  <PUBCHEM_COMPONENT_COUNT>  (1) 
1

>  <PUBCHEM_CACTVS_TAUTO_COUNT>  (1) 
3

>  <PUBCHEM_CONFORMER_ID>  (1) 
000090DC00000001

>  <PUBCHEM_MMFF94_ENERGY>  (1) 
19.2596

>  <PUBCHEM_FEATURE_SELFOVERLAP>  (1) 
15.223

>  <PUBCHEM_SHAPE_FINGERPRINT>  (1) 
114674 6 18261105305209939754
12107183 9 18198356052686199529
122479 349 9870877188127531130
12363563 72 18337958878858139746
12616999 72 17896604087977330765
13533116 47 18339646758651718771
13955234 65 18196938983265055761
14251731 5 18339079281212027286
14251732 14 14418430931301406515
14252887 29 18409442622183637888
14863182 85 18339359777437172496
14866123 147 17979073774094615489
15352361 1 18338516331221968578
15477762 27 18408041827443052856
17539 30 17901941951027261444
17859628 70 18338802341472718627
193927 3 18410012096081748067
20388580 30 18335426746744965340
20645477 70 18187363289559627355
20671657 53 18409452470643685533
20871998 22 18411132515990083640
314194 84 18413108376765706574
3421961 26 18412543223614894712
4416823 128 18338234864924434522
4463277 69 18411694374652228510
5207 123 18338510842390388447
59682541 52 18267843134814941999
6025842 7 18189899905571075885
77188 2 18341049632056617968
8217 86 18198633134101698822
94968 8 18334013891330291418

>  <PUBCHEM_SHAPE_MULTIPOLES>  (1) 
302.82
10.64
3.76
1.04
11.19
0.43
0.08
-12.73
0.16
-5.49
0.02
0.26
0.31
0.21

>  <PUBCHEM_SHAPE_SELFOVERLAP>  (1) 
558.937

>  <PUBCHEM_SHAPE_VOLUME>  (1) 
192

>  <PUBCHEM_COORDINATE_TYPE>  (1) 
2
5
10

$$$$
