37086
     RDKit          3D

  8  8  0  0  0  0  0  0  0  0999 V2000
   -2.1915   -0.2050   -0.1563 O   0  0  0  0  0  0  0  0  0  0  0  0
    1.4884    0.1364    0.5773 C   0  0  0  0  0  0  0  0  0  0  0  0
    1.9853    1.3081   -0.1901 C   0  0  0  0  0  0  0  0  0  0  0  0
    2.6026   -0.0450   -0.3896 C   0  0  0  0  0  0  0  0  0  0  0  0
    0.1606   -0.4156    0.2145 C   0  0  0  0  0  0  0  0  0  0  0  0
    0.1231   -1.8806   -0.1273 C   0  0  0  0  0  0  0  0  0  0  0  0
   -0.9691    0.3095    0.1792 C   0  0  0  0  0  0  0  0  0  0  0  0
   -3.1993    0.7921   -0.1077 C   0  0  0  0  0  0  0  0  0  0  0  0
  1  7  1  0
  1  8  1  0
  2  3  1  0
  2  4  1  0
  2  5  1  0
  3  4  1  0
  5  6  1  0
  5  7  2  0
M  END
>  <PUBCHEM_COMPOUND_CID>  (1) 
37086

>  <PUBCHEM_CONFORMER_RMSD>  (1) 
0.4

>  <PUBCHEM_CONFORMER_DIVERSEORDER>  (1) 
2
4
5
7
6
3
1

>  <PUBCHEM_MMFF94_PARTIAL_CHARGES>  (1) 
14
1 -0.36
10 0.1
11 0.1
12 0.1
13 0.1
17 0.15
2 -0.06
3 -0.2
4 -0.2
5 -0.18
6 0.14
7 -0.07
8 0.28
9 0.1

>  <PUBCHEM_EFFECTIVE_ROTOR_COUNT>  (1) 
2.6

>  <PUBCHEM_PHARMACOPHORE_FEATURES>  (1) 
2
1 1 acceptor
1 6 hydrophobe

>  <PUBCHEM_HEAVY_ATOM_COUNT>  (1) 
8

>  <PUBCHEM_ATOM_DEF_STEREO_COUNT>  (1) 
0

>  <PUBCHEM_ATOM_UDEF_STEREO_COUNT>  (1) 
0

>  <PUBCHEM_BOND_DEF_STEREO_COUNT>  (1) 
0

>  <PUBCHEM_BOND_UDEF_STEREO_COUNT>  (1) 
1

>  <PUBCHEM_ISOTOPIC_ATOM_COUNT>  (1) 
0

>  <PUBCHEM_COMPONENT_COUNT>  (1) 
1

>  <PUBCHEM_CACTVS_TAUTO_COUNT>  (1) 
1

>  <PUBCHEM_CONFORMER_ID>  (1) 
000090DE00000002

>  <PUBCHEM_MMFF94_ENERGY>  (1) 
20.2266

>  <PUBCHEM_FEATURE_SELFOVERLAP>  (1) 
10.148

>  <PUBCHEM_SHAPE_FINGERPRINT>  (1) 
11062470 55 13183019614011715968
12897270 3 18412824672874730773
12932764 1 17023176128584811939
14325111 11 18410575114849208273
14390081 3 18410289211998871633
20096714 4 18262236728581335200
20653085 51 18262531397597521224
21028194 46 18335143102472198897
21040471 1 18339637949035347978
23235685 24 18409727361214017820
5084963 1 18202284692908655016

>  <PUBCHEM_SHAPE_MULTIPOLES>  (1) 
158.77
4.17
1.41
0.69
2.43
0.52
0.02
-1.62
-0.49
-0.21
-0.1
-0.13
-0.01
-0.01

>  <PUBCHEM_SHAPE_SELFOVERLAP>  (1) 
302.667

>  <PUBCHEM_SHAPE_VOLUME>  (1) 
99.8

>  <PUBCHEM_COORDINATE_TYPE>  (1) 
2
5
10

$$$$
