3708
     RDKit          3D

 24 27  0  0  0  0  0  0  0  0999 V2000
    3.9738    2.0979   -0.1189 S   0  0  0  0  0  0  0  0  0  0  0  0
   -1.0157   -3.6195    0.2838 O   0  0  0  0  0  0  0  0  0  0  0  0
   -2.9639   -1.9895   -1.0244 O   0  0  0  0  0  0  0  0  0  0  0  0
    4.1478    2.3782   -1.7197 O   0  0  0  0  0  0  0  0  0  0  0  0
    3.0204    3.0758    0.3831 O   0  0  0  0  0  0  0  0  0  0  0  0
    5.2995    1.9839    0.4673 O   0  0  0  0  0  0  0  0  0  0  0  0
    1.2597   -3.0913    0.2398 N   0  0  0  0  0  0  0  0  0  0  0  0
   -1.3691    0.6643    0.5555 N   0  0  0  0  0  0  0  0  0  0  0  0
    1.2471   -0.8653    0.0910 C   0  0  0  0  0  0  0  0  0  0  0  0
   -0.0951   -1.3366    0.1276 C   0  0  0  0  0  0  0  0  0  0  0  0
    2.0772   -1.9862    0.1627 C   0  0  0  0  0  0  0  0  0  0  0  0
   -1.3163   -0.5524    0.0804 C   0  0  0  0  0  0  0  0  0  0  0  0
   -0.0547   -2.7088    0.2191 C   0  0  0  0  0  0  0  0  0  0  0  0
    1.8374    0.4111    0.0035 C   0  0  0  0  0  0  0  0  0  0  0  0
    3.2328    0.5187   -0.0091 C   0  0  0  0  0  0  0  0  0  0  0  0
    3.4735   -1.8939    0.1512 C   0  0  0  0  0  0  0  0  0  0  0  0
   -2.6736   -0.9512   -0.4872 C   0  0  0  0  0  0  0  0  0  0  0  0
   -3.5170    0.2068   -0.2563 C   0  0  0  0  0  0  0  0  0  0  0  0
   -2.6839    1.1321    0.3625 C   0  0  0  0  0  0  0  0  0  0  0  0
    4.0363   -0.6174    0.0637 C   0  0  0  0  0  0  0  0  0  0  0  0
   -4.8434    0.4405   -0.5485 C   0  0  0  0  0  0  0  0  0  0  0  0
   -3.1880    2.3701    0.7203 C   0  0  0  0  0  0  0  0  0  0  0  0
   -5.3522    1.6879   -0.1882 C   0  0  0  0  0  0  0  0  0  0  0  0
   -4.5325    2.6449    0.4407 C   0  0  0  0  0  0  0  0  0  0  0  0
  1  4  1  0
  1  5  2  0
  1  6  2  0
  1 15  1  0
  2 13  1  0
  3 17  2  0
  7 11  1  0
  7 13  1  0
  8 12  2  0
  8 19  1  0
  9 10  1  0
  9 11  2  0
  9 14  1  0
 10 12  1  0
 10 13  2  0
 11 16  1  0
 12 17  1  0
 14 15  2  0
 15 20  1  0
 16 20  2  0
 17 18  1  0
 18 19  2  0
 18 21  1  0
 19 22  1  0
 21 23  2  0
 22 24  2  0
 23 24  1  0
M  END
>  <PUBCHEM_COMPOUND_CID>  (1) 
3708

>  <PUBCHEM_CONFORMER_RMSD>  (1) 
0.6

>  <PUBCHEM_CONFORMER_DIVERSEORDER>  (1) 
1
4
6
2
5
3

>  <PUBCHEM_MMFF94_PARTIAL_CHARGES>  (1) 
33
1 1.49
10 -0.09
11 -0.15
12 0.54
13 -0.09
14 -0.15
15 -0.01
16 -0.15
17 0.48
18 0.09
19 0.18
2 -0.51
20 -0.15
21 -0.15
22 -0.15
23 -0.15
24 -0.15
25 0.27
26 0.15
27 0.15
28 0.15
29 0.15
3 -0.57
30 0.15
31 0.45
32 0.15
33 0.15
34 0.5
4 -0.68
5 -0.65
6 -0.65
7 0.03
8 -0.63

>  <PUBCHEM_EFFECTIVE_ROTOR_COUNT>  (1) 
2

>  <PUBCHEM_PHARMACOPHORE_FEATURES>  (1) 
13
1 2 donor
1 3 acceptor
1 4 acceptor
1 5 acceptor
1 6 acceptor
1 7 cation
1 7 donor
1 8 acceptor
4 1 4 5 6 anion
5 7 9 10 11 13 rings
5 8 12 17 18 19 rings
6 18 19 21 22 23 24 rings
6 9 11 14 15 16 20 rings

>  <PUBCHEM_HEAVY_ATOM_COUNT>  (1) 
24

>  <PUBCHEM_ATOM_DEF_STEREO_COUNT>  (1) 
0

>  <PUBCHEM_ATOM_UDEF_STEREO_COUNT>  (1) 
0

>  <PUBCHEM_BOND_DEF_STEREO_COUNT>  (1) 
0

>  <PUBCHEM_BOND_UDEF_STEREO_COUNT>  (1) 
0

>  <PUBCHEM_ISOTOPIC_ATOM_COUNT>  (1) 
0

>  <PUBCHEM_COMPONENT_COUNT>  (1) 
1

>  <PUBCHEM_CACTVS_TAUTO_COUNT>  (1) 
24

>  <PUBCHEM_CONFORMER_ID>  (1) 
00000E7C00000001

>  <PUBCHEM_MMFF94_ENERGY>  (1) 
52.5724

>  <PUBCHEM_FEATURE_SELFOVERLAP>  (1) 
66.26

>  <PUBCHEM_SHAPE_FINGERPRINT>  (1) 
10411042 1 17473260977208651410
1100329 8 18338795611733998954
12173636 292 18267020755266481726
12403259 327 15719397260713402264
12403260 363 18338502114948803626
12633257 1 18262508204995519586
12769317 202 18339630149174785001
12788726 201 17901095644558920138
13140716 1 18335421222974222938
13583140 156 16878492557427232418
13590594 115 17546455479159123122
13617811 41 18339625837945790449
138480 1 17834114139139335962
13878862 14 17972579010549736045
13965767 371 18114726236157610408
14251764 75 18341345430512085505
14528608 73 18411698751603815189
14767858 380 18269258218975030151
14790565 3 18270123409919440249
14840074 17 17168718547305288284
14848178 96 18409445881990163484
15196674 1 18411698781420620707
15342168 16 18259989292264668517
15475509 8 18126295138802406406
17980427 23 18055603223804750738
18681886 176 18199458879585979682
19427546 62 18336548193050693043
20739085 24 18041566836588805428
21033648 144 18187357718834076983
21033648 29 16805599214530545869
21033650 10 14907914725420134427
21709351 56 18195519299295057583
21860390 5 18199473177663321246
21864079 5 18410855460233910314
22393880 68 18272375308295567412
2255824 54 18194402191097008011
23227448 37 18413668015604856325
23558518 356 18116155639427447194
23559900 14 18201434714834281294
245318 6 17896336859497026772
335352 9 18410293576334523614
3380486 145 17685793710341374331
345986 75 17028228200427631154
350125 39 18336264523087062380
394222 165 18261668182017002931
474 4 18335420132120828563
5048184 11 18410578404757610512
5104073 3 18333450924096839803
6034566 193 17824562977939586804
6328613 192 18189620605040385188
633830 44 18412822456397618246
67856867 119 18338789018484134123
7288768 16 18041277767745853538
7808743 9 18265051512919612056
84936 182 18342735208887545264
9981440 41 18337103591987469450

>  <PUBCHEM_SHAPE_MULTIPOLES>  (1) 
458.45
10.78
3.94
0.82
3.21
0.61
-0.18
-9.07
-0.87
-1.98
0.19
-0.09
-0.26
-1.14

>  <PUBCHEM_SHAPE_SELFOVERLAP>  (1) 
1029.348

>  <PUBCHEM_SHAPE_VOLUME>  (1) 
243.9

>  <PUBCHEM_COORDINATE_TYPE>  (1) 
2
5
10

$$$$
