37082
     RDKit          3D

 20 23  0  0  0  0  0  0  0  0999 V2000
    0.5804    0.0880   -0.0001 C   0  0  0  0  0  0  0  0  0  0  0  0
    0.2085   -1.2788    0.0000 C   0  0  0  0  0  0  0  0  0  0  0  0
   -1.1466   -1.6532    0.0001 C   0  0  0  0  0  0  0  0  0  0  0  0
   -2.1739   -0.7000    0.0001 C   0  0  0  0  0  0  0  0  0  0  0  0
   -1.8348    0.6649    0.0000 C   0  0  0  0  0  0  0  0  0  0  0  0
    1.9788    0.4357    0.0000 C   0  0  0  0  0  0  0  0  0  0  0  0
   -0.4761    1.0346    0.0000 C   0  0  0  0  0  0  0  0  0  0  0  0
    2.9502   -0.5993    0.0000 C   0  0  0  0  0  0  0  0  0  0  0  0
   -2.8610    1.6258    0.0000 C   0  0  0  0  0  0  0  0  0  0  0  0
    1.1940   -2.2697    0.0001 C   0  0  0  0  0  0  0  0  0  0  0  0
   -3.5281   -1.0759    0.0002 C   0  0  0  0  0  0  0  0  0  0  0  0
    2.5440   -1.9355    0.0002 C   0  0  0  0  0  0  0  0  0  0  0  0
   -1.5156   -3.1142   -0.0007 C   0  0  0  0  0  0  0  0  0  0  0  0
    2.4692    1.7659   -0.0002 C   0  0  0  0  0  0  0  0  0  0  0  0
   -4.2016    1.2395    0.0003 C   0  0  0  0  0  0  0  0  0  0  0  0
   -4.5350   -0.1108    0.0002 C   0  0  0  0  0  0  0  0  0  0  0  0
    4.3221   -0.2942    0.0001 C   0  0  0  0  0  0  0  0  0  0  0  0
   -2.5740    3.0958   -0.0004 C   0  0  0  0  0  0  0  0  0  0  0  0
    3.8364    2.0560    0.0000 C   0  0  0  0  0  0  0  0  0  0  0  0
    4.7632    1.0254    0.0001 C   0  0  0  0  0  0  0  0  0  0  0  0
  1  2  1  0
  1  6  1  0
  1  7  2  0
  2  3  2  0
  2 10  1  0
  3  4  1  0
  3 13  1  0
  4  5  2  0
  4 11  1  0
  5  7  1  0
  5  9  1  0
  6  8  2  0
  6 14  1  0
  8 12  1  0
  8 17  1  0
  9 15  2  0
  9 18  1  0
 10 12  2  0
 11 16  2  0
 14 19  2  0
 15 16  1  0
 17 20  2  0
 19 20  1  0
M  END
>  <PUBCHEM_COMPOUND_CID>  (1) 
37082

>  <PUBCHEM_CONFORMER_RMSD>  (1) 
0.6

>  <PUBCHEM_CONFORMER_DIVERSEORDER>  (1) 
1

>  <PUBCHEM_MMFF94_PARTIAL_CHARGES>  (1) 
24
10 -0.15
11 -0.15
12 -0.15
13 0.14
14 -0.15
15 -0.15
16 -0.15
17 -0.15
18 0.14
19 -0.15
20 -0.15
21 0.15
22 0.15
23 0.15
24 0.15
28 0.15
29 0.15
3 -0.14
30 0.15
31 0.15
35 0.15
36 0.15
7 -0.15
9 -0.14

>  <PUBCHEM_EFFECTIVE_ROTOR_COUNT>  (1) 
0

>  <PUBCHEM_PHARMACOPHORE_FEATURES>  (1) 
4
6 1 2 3 4 5 7 rings
6 1 2 6 8 10 12 rings
6 4 5 9 11 15 16 rings
6 6 8 14 17 19 20 rings

>  <PUBCHEM_HEAVY_ATOM_COUNT>  (1) 
20

>  <PUBCHEM_ATOM_DEF_STEREO_COUNT>  (1) 
0

>  <PUBCHEM_ATOM_UDEF_STEREO_COUNT>  (1) 
0

>  <PUBCHEM_BOND_DEF_STEREO_COUNT>  (1) 
0

>  <PUBCHEM_BOND_UDEF_STEREO_COUNT>  (1) 
0

>  <PUBCHEM_ISOTOPIC_ATOM_COUNT>  (1) 
0

>  <PUBCHEM_COMPONENT_COUNT>  (1) 
1

>  <PUBCHEM_CACTVS_TAUTO_COUNT>  (1) 
1

>  <PUBCHEM_CONFORMER_ID>  (1) 
000090DA00000001

>  <PUBCHEM_MMFF94_ENERGY>  (1) 
81.5063

>  <PUBCHEM_FEATURE_SELFOVERLAP>  (1) 
20.37

>  <PUBCHEM_SHAPE_FINGERPRINT>  (1) 
10319926 262 18126263455023486080
10498660 4 18408882927926332877
10608611 8 18410573955097372500
10616163 171 18339081608931431430
10646746 165 18410576180275514804
10967382 1 18410573976587909796
11370993 70 18410289198770812036
12107183 9 17688587165306335320
12173636 292 18410571756385477157
12390115 104 18199486405873007129
12403260 363 18266729204227727667
13140716 1 17977674430673168625
13583140 156 16950553398481612873
138480 1 17689997834361797282
14787075 74 18342735252158828275
14790565 3 18269562654731373369
15042514 8 18265055923729861595
15196674 1 18410573972266614215
15442244 35 18266176119793073338
15536298 74 18341895156228787046
16945 1 18410575110501792263
17492 89 18410855417464286883
18186145 218 18128826252258322832
19591789 44 18337954476252514474
200 152 17989204862794642817
20510252 161 18342741801794219849
20715895 44 17976248046344289781
21267235 1 18410864252026800774
21279426 13 18196658393853084558
21524375 3 18413389838751675958
21652331 79 18410012147869086953
221490 88 18337962190140820458
23227448 37 18340768242466998294
2334 1 18410855417526635475
23366157 5 18042127566118214642
23402539 116 18341887528609326383
23559900 14 18271524174705873958
238 59 16816823956845302957
2748010 2 18336834070015168415
3004659 81 18261965047148606710
335352 9 18410573938571761374
350125 39 18338239258618098993
3545911 37 18410294717877822324
4214541 1 18410856542602708964
474 4 17749394810098918348
5104073 3 18408886209048881891
58051976 378 18412823556056620501
633830 44 18057323886239408365
69090 78 18411417323576351927
7364860 26 18341333280265336982
7808743 9 18122903402954668856
9709674 26 18412550911480319110
9981440 41 18335697282155572322

>  <PUBCHEM_SHAPE_MULTIPOLES>  (1) 
411.59
8.64
3.06
0.62
1.94
0.25
0
-3.47
0
-0.81
0
0
0
0

>  <PUBCHEM_SHAPE_SELFOVERLAP>  (1) 
940.25

>  <PUBCHEM_SHAPE_VOLUME>  (1) 
198.3

>  <PUBCHEM_COORDINATE_TYPE>  (1) 
2
5
10

$$$$
