37095
     RDKit          3D

 35 38  0  0  1  0  0  0  0  0999 V2000
    1.1567   -0.6387    1.4259 O   0  0  0  0  0  0  0  0  0  0  0  0
   -4.4666    0.5569   -1.0712 O   0  0  0  0  0  0  0  0  0  0  0  0
    3.7136    4.8134   -0.2020 O   0  0  0  0  0  0  0  0  0  0  0  0
    7.1373   -2.1544    0.8266 O   0  0  0  0  0  0  0  0  0  0  0  0
   -7.6533   -0.6687    0.2998 N   0  0  0  0  0  0  0  0  0  0  0  0
    1.0165   -0.1350    0.0642 C   0  0  0  0  0  0  0  0  0  0  0  0
    1.8220   -1.2205   -0.8185 C   0  0  0  0  0  0  0  0  0  0  0  0
   -8.9076   -1.1363   -0.2896 C   0  0  0  0  0  0  0  0  0  0  0  0
   -8.0369    0.4280    1.1883 C   0  0  0  0  0  0  0  0  0  0  0  0
   -9.8619   -1.1344    0.8954 C   0  0  0  0  0  0  0  0  0  0  0  0
   -9.2916   -0.1038    1.8651 C   0  0  0  0  0  0  0  0  0  0  0  0
    1.0443   -2.5637   -0.9159 C   0  0  0  0  0  0  0  0  0  0  0  0
   -0.4327    0.0475   -0.2358 C   0  0  0  0  0  0  0  0  0  0  0  0
    1.7621    1.2339   -0.0093 C   0  0  0  0  0  0  0  0  0  0  0  0
    3.2687   -1.4744   -0.3705 C   0  0  0  0  0  0  0  0  0  0  0  0
   -6.6863   -0.2564   -0.7067 C   0  0  0  0  0  0  0  0  0  0  0  0
   -5.3846    0.1801   -0.0533 C   0  0  0  0  0  0  0  0  0  0  0  0
    1.6972   -3.5618   -1.8677 C   0  0  0  0  0  0  0  0  0  0  0  0
   -1.3301    0.3165    0.7976 C   0  0  0  0  0  0  0  0  0  0  0  0
   -0.8909   -0.0500   -1.5497 C   0  0  0  0  0  0  0  0  0  0  0  0
    2.3914    1.6673    1.1177 C   0  0  0  0  0  0  0  0  0  0  0  0
    1.7338    1.9019   -1.1952 C   0  0  0  0  0  0  0  0  0  0  0  0
    4.2606   -0.6739   -0.8810 C   0  0  0  0  0  0  0  0  0  0  0  0
    3.5070   -2.4916    0.5208 C   0  0  0  0  0  0  0  0  0  0  0  0
   -3.1347    0.3895   -0.7948 C   0  0  0  0  0  0  0  0  0  0  0  0
   -2.6858    0.4879    0.5172 C   0  0  0  0  0  0  0  0  0  0  0  0
   -2.2464    0.1216   -1.8300 C   0  0  0  0  0  0  0  0  0  0  0  0
    3.0586    2.8905    1.0520 C   0  0  0  0  0  0  0  0  0  0  0  0
    2.4012    3.1250   -1.2609 C   0  0  0  0  0  0  0  0  0  0  0  0
    5.5748   -0.9055   -0.4745 C   0  0  0  0  0  0  0  0  0  0  0  0
    4.8211   -2.7229    0.9274 C   0  0  0  0  0  0  0  0  0  0  0  0
    3.0636    3.6194   -0.1372 C   0  0  0  0  0  0  0  0  0  0  0  0
    5.8550   -1.9299    0.4298 C   0  0  0  0  0  0  0  0  0  0  0  0
    4.3703    5.2603    0.9833 C   0  0  0  0  0  0  0  0  0  0  0  0
    7.3537   -3.2177    1.7531 C   0  0  0  0  0  0  0  0  0  0  0  0
  1  6  1  0
  2 17  1  0
  2 25  1  0
  3 32  1  0
  3 34  1  0
  4 33  1  0
  4 35  1  0
  5  8  1  0
  5  9  1  0
  5 16  1  0
  6  7  1  0
  6 13  1  0
  6 14  1  0
  7 12  1  0
  7 15  1  0
  8 10  1  0
  9 11  1  0
 10 11  1  0
 12 18  1  0
 13 19  2  0
 13 20  1  0
 14 21  2  0
 14 22  1  0
 15 23  2  0
 15 24  1  0
 16 17  1  0
 19 26  1  0
 20 27  2  0
 21 28  1  0
 22 29  2  0
 23 30  1  0
 24 31  2  0
 25 26  2  0
 25 27  1  0
 28 32  2  0
 29 32  1  0
 30 33  2  0
 31 33  1  0
M  END
>  <PUBCHEM_COMPOUND_CID>  (1) 
37095

>  <PUBCHEM_CONFORMER_RMSD>  (1) 
1.2

>  <PUBCHEM_CONFORMER_DIVERSEORDER>  (1) 
3
85
102
130
36
48
56
109
121
61
129
106
53
67
132
119
31
82
101
76
126
47
96
88
30
66
116
49
79
63
69
107
75
94
90
17
27
81
127
50
98
92
117
65
34
84
83
71
35
120
1
125
78
38
103
11
43
110
28
73
115
22
9
32
89
39
118
57
133
18
122
33
114
111
80
60
59
6
128
68
41
26
87
24
14
46
86
40
91
97
16
37
105
72
12
58
51
113
104
7
134
42
93
108
5
15
95
8
124
52
100
54
2
99
4
64
29
77
55
131
44
21
25
70
20
10
123
62
74
112
13
45
19
23

>  <PUBCHEM_MMFF94_PARTIAL_CHARGES>  (1) 
44
1 -0.68
13 -0.14
14 -0.14
15 -0.14
16 0.27
17 0.28
19 -0.15
2 -0.36
20 -0.15
21 -0.15
22 -0.15
23 -0.15
24 -0.15
25 0.08
26 -0.15
27 -0.15
28 -0.15
29 -0.15
3 -0.36
30 -0.15
31 -0.15
32 0.08
33 0.08
34 0.28
35 0.28
4 -0.36
5 -0.81
54 0.4
55 0.15
56 0.15
57 0.15
58 0.15
59 0.15
6 0.57
60 0.15
61 0.15
62 0.15
63 0.15
64 0.15
65 0.15
66 0.15
7 0.14
8 0.27
9 0.27

>  <PUBCHEM_EFFECTIVE_ROTOR_COUNT>  (1) 
12

>  <PUBCHEM_PHARMACOPHORE_FEATURES>  (1) 
11
1 1 acceptor
1 1 donor
1 18 hydrophobe
1 2 acceptor
1 3 acceptor
1 4 acceptor
1 5 cation
5 5 8 9 10 11 rings
6 13 19 20 25 26 27 rings
6 14 21 22 28 29 32 rings
6 15 23 24 30 31 33 rings

>  <PUBCHEM_HEAVY_ATOM_COUNT>  (1) 
35

>  <PUBCHEM_ATOM_DEF_STEREO_COUNT>  (1) 
0

>  <PUBCHEM_ATOM_UDEF_STEREO_COUNT>  (1) 
2

>  <PUBCHEM_BOND_DEF_STEREO_COUNT>  (1) 
0

>  <PUBCHEM_BOND_UDEF_STEREO_COUNT>  (1) 
0

>  <PUBCHEM_ISOTOPIC_ATOM_COUNT>  (1) 
0

>  <PUBCHEM_COMPONENT_COUNT>  (1) 
1

>  <PUBCHEM_CACTVS_TAUTO_COUNT>  (1) 
1

>  <PUBCHEM_CONFORMER_ID>  (1) 
000090E700000003

>  <PUBCHEM_MMFF94_ENERGY>  (1) 
136.7204

>  <PUBCHEM_FEATURE_SELFOVERLAP>  (1) 
55.822

>  <PUBCHEM_SHAPE_FINGERPRINT>  (1) 
10050765 1 18267582601281698815
10162869 55 17989196037723631095
10169797 241 18192452945949498767
11297750 10 18040986303139936540
11411753 29 17967808328465303997
11456790 92 18338231570378473019
11828532 37 16878523309767793555
12107698 1 18410856521465508713
12522641 24 18341054094437577857
12788726 201 17900808359429934906
13008946 282 18131344258688876913
13540713 5 17915161632287867686
13560911 43 18411135801381602649
13673619 4 17967815998722584095
13782708 43 17749951047129544015
14170010 4 18411978074807340984
14400156 188 18261109634785244666
14849402 71 18411702105884135076
14955137 171 18343024355150762694
15131766 46 17984134040429345065
15183329 4 12540695930184741879
15439362 3 18266733761805889264
15554971 5 17917714618091354649
15840311 113 17203888570071244826
15927050 60 18053095418465195870
18365409 1 16916487255462121518
19301679 30 18052253999796750286
20505436 4 17915179246028051692
21049683 271 18259987050956605700
21781055 127 16486992690535647647
22311459 1 18341049635845176646
23522609 53 17702400601571915433
23559900 14 17603873324965225997
24771750 20 18335427923756279396
249057 25 17988375797427594265
3178227 256 18341894077981401951
4073 2 18269280231078398091
4112364 45 16630516358414648336
4149490 64 18336272344776559299
469060 322 18126568912944342992
5385378 56 18338512070894284564
58260988 587 18262804098225474332
6004065 56 18408884006232117130
6086070 43 17969211253652078329
9962374 69 18411691106879026631

>  <PUBCHEM_SHAPE_MULTIPOLES>  (1) 
691.83
23.79
4.85
1.6
70.3
5.84
0.03
-12.77
-12.02
-14.24
-0.57
0.16
-0.39
-0.93

>  <PUBCHEM_SHAPE_SELFOVERLAP>  (1) 
1480.292

>  <PUBCHEM_SHAPE_VOLUME>  (1) 
386

>  <PUBCHEM_COORDINATE_TYPE>  (1) 
2
5
10

$$$$
