37094
     RDKit          3D

 32 34  0  0  1  0  0  0  0  0999 V2000
   -3.3434   -2.8170    0.5790 S   0  0  0  0  0  0  0  0  0  0  0  0
    1.9860    0.7931   -1.8814 O   0  0  0  0  0  0  0  0  0  0  0  0
   -3.1408   -4.1236    1.1767 O   0  0  0  0  0  0  0  0  0  0  0  0
   -4.4774   -2.5936   -0.2970 O   0  0  0  0  0  0  0  0  0  0  0  0
    3.7487   -0.6921   -1.6048 N   0  0  0  0  0  0  0  0  0  0  0  0
   -3.3112   -1.6208    1.8189 N   0  0  0  0  0  0  0  0  0  0  0  0
   -4.2204    0.2916    0.7783 N   0  0  0  0  0  0  0  0  0  0  0  0
   -2.0418    0.3672    1.8055 N   0  0  0  0  0  0  0  0  0  0  0  0
   -2.1653    3.9985   -1.0253 C   0  0  0  0  0  0  0  0  0  0  0  0
   -2.8105    3.7839    0.3579 C   0  0  0  0  0  0  0  0  0  0  0  0
    4.6883    0.2548   -1.0515 C   0  0  0  0  0  0  0  0  0  0  0  0
   -2.9453    2.3327    0.7499 C   0  0  0  0  0  0  0  0  0  0  0  0
   -2.0266    5.4970   -1.3056 C   0  0  0  0  0  0  0  0  0  0  0  0
   -2.9739    3.3377   -2.1446 C   0  0  0  0  0  0  0  0  0  0  0  0
    1.6801   -1.5185   -2.5344 C   0  0  0  0  0  0  0  0  0  0  0  0
    4.5285    0.3811    0.4483 C   0  0  0  0  0  0  0  0  0  0  0  0
    0.4417   -1.8388   -1.7676 C   0  0  0  0  0  0  0  0  0  0  0  0
   -1.8742   -2.4364   -0.3316 C   0  0  0  0  0  0  0  0  0  0  0  0
    2.4603   -0.3359   -1.9772 C   0  0  0  0  0  0  0  0  0  0  0  0
    6.1118   -0.1183   -1.4604 C   0  0  0  0  0  0  0  0  0  0  0  0
    0.4942   -2.7370   -0.7016 C   0  0  0  0  0  0  0  0  0  0  0  0
   -0.7689   -1.2394   -2.1154 C   0  0  0  0  0  0  0  0  0  0  0  0
   -4.0667    1.5895    0.4434 C   0  0  0  0  0  0  0  0  0  0  0  0
   -1.9549    1.6628    1.4390 C   0  0  0  0  0  0  0  0  0  0  0  0
   -0.6636   -3.0358    0.0164 C   0  0  0  0  0  0  0  0  0  0  0  0
   -1.9269   -1.5382   -1.3974 C   0  0  0  0  0  0  0  0  0  0  0  0
   -3.1848   -0.2488    1.4484 C   0  0  0  0  0  0  0  0  0  0  0  0
    4.1670   -0.7319    1.2074 C   0  0  0  0  0  0  0  0  0  0  0  0
    4.7424    1.6106    1.0713 C   0  0  0  0  0  0  0  0  0  0  0  0
    4.0193   -0.6154    2.5896 C   0  0  0  0  0  0  0  0  0  0  0  0
    4.5948    1.7271    2.4535 C   0  0  0  0  0  0  0  0  0  0  0  0
    4.2332    0.6140    3.2126 C   0  0  0  0  0  0  0  0  0  0  0  0
  1  3  2  0
  1  4  2  0
  1  6  1  0
  1 18  1  0
  2 19  2  0
  5 11  1  0
  5 19  1  0
  6 27  1  0
  7 23  2  0
  7 27  1  0
  8 24  1  0
  8 27  2  0
  9 10  1  0
  9 13  1  0
  9 14  1  0
 10 12  1  0
 11 16  1  0
 11 20  1  0
 12 23  1  0
 12 24  2  0
 15 17  1  0
 15 19  1  0
 16 28  2  0
 16 29  1  0
 17 21  2  0
 17 22  1  0
 18 25  2  0
 18 26  1  0
 21 25  1  0
 22 26  2  0
 28 30  1  0
 29 31  2  0
 30 32  2  0
 31 32  1  0
M  END
>  <PUBCHEM_COMPOUND_CID>  (1) 
37094

>  <PUBCHEM_CONFORMER_RMSD>  (1) 
1.4

>  <PUBCHEM_CONFORMER_DIVERSEORDER>  (1) 
1
41
37
43
44
64
90
50
45
32
89
27
11
81
10
15
63
19
14
46
75
94
42
55
95
98
53
88
93
101
62
100
66
73
72
76
91
61
92
2
18
35
3
99
24
16
6
86
96
5
58
52
26
60
57
49
51
13
97
78
39
80
4
56
17
40
77
29
69
85
38
7
33
68
70
84
47
30
54
8
87
67
31
34
82
20
48
83
59
79
28
21
71
36
12
65
9
22
74
23
25

>  <PUBCHEM_MMFF94_PARTIAL_CHARGES>  (1) 
41
1 1.45
10 0.14
11 0.44
12 -0.14
15 0.2
16 -0.14
17 -0.14
18 -0.01
19 0.57
2 -0.57
21 -0.15
22 -0.15
23 0.16
24 0.16
25 -0.15
26 -0.15
27 0.82
28 -0.15
29 -0.15
3 -0.65
30 -0.15
31 -0.15
32 -0.15
4 -0.65
45 0.37
49 0.15
5 -0.73
50 0.15
51 0.15
52 0.15
53 0.15
54 0.15
55 0.42
56 0.15
57 0.15
58 0.15
59 0.15
6 -0.76
60 0.15
7 -0.62
8 -0.62

>  <PUBCHEM_EFFECTIVE_ROTOR_COUNT>  (1) 
10

>  <PUBCHEM_PHARMACOPHORE_FEATURES>  (1) 
10
1 2 acceptor
1 3 acceptor
1 4 acceptor
1 5 donor
1 6 donor
1 7 acceptor
3 9 13 14 hydrophobe
6 16 28 29 30 31 32 rings
6 17 18 21 22 25 26 rings
6 7 8 12 23 24 27 rings

>  <PUBCHEM_HEAVY_ATOM_COUNT>  (1) 
32

>  <PUBCHEM_ATOM_DEF_STEREO_COUNT>  (1) 
1

>  <PUBCHEM_ATOM_UDEF_STEREO_COUNT>  (1) 
0

>  <PUBCHEM_BOND_DEF_STEREO_COUNT>  (1) 
0

>  <PUBCHEM_BOND_UDEF_STEREO_COUNT>  (1) 
0

>  <PUBCHEM_ISOTOPIC_ATOM_COUNT>  (1) 
0

>  <PUBCHEM_COMPONENT_COUNT>  (1) 
1

>  <PUBCHEM_CACTVS_TAUTO_COUNT>  (1) 
4

>  <PUBCHEM_CONFORMER_ID>  (1) 
000090E600000001

>  <PUBCHEM_MMFF94_ENERGY>  (1) 
67.5237

>  <PUBCHEM_FEATURE_SELFOVERLAP>  (1) 
50.766

>  <PUBCHEM_SHAPE_FINGERPRINT>  (1) 
10256941 240 18045202869760114781
10439779 11 16676405245346989801
10670039 82 18340774818747821250
10842077 115 17844503596857633704
11595378 159 18409165554149223922
12128747 34 18270132214586846014
12156800 1 17191722443782146789
12422481 6 17772209723694180019
12596602 18 17825113850998651094
13383661 66 13535359369395082405
13402501 40 17561094634859164162
13422730 73 16556747842806038432
13561361 72 18343020021064550096
14747282 140 16334101458488211032
16067690 210 18115608065667539136
17921350 177 18200582619577557112
19315092 285 17099177842546466050
20567600 299 16676416244953362157
20764821 26 16773794840069854832
21591340 35 17187851913412475920
3187 122 18268711782653740587
3298306 158 18128245688670752209
4371632 12 16629373944273916328
469060 322 18340210803595089927
4742675 86 17489293235256510636
508706 21 18343021077462838148
6086070 43 17274534318471081038
9982175 41 18262496144918022944
9982175 5 16903491964535967880

>  <PUBCHEM_SHAPE_MULTIPOLES>  (1) 
624.86
11.48
5.57
3.01
13.02
4.19
0.42
3.41
3.9
-9.41
-1.53
2.91
0.36
3.04

>  <PUBCHEM_SHAPE_SELFOVERLAP>  (1) 
1304.487

>  <PUBCHEM_SHAPE_VOLUME>  (1) 
354.4

>  <PUBCHEM_COORDINATE_TYPE>  (1) 
2
5
10

$$$$
