3710
     RDKit          3D

 28 30  0  0  0  0  0  0  0  0999 V2000
    2.6938   -1.6725    0.4670 O   0  0  0  0  0  0  0  0  0  0  0  0
    0.3220    3.7353   -1.1334 O   0  0  0  0  0  0  0  0  0  0  0  0
    8.5479   -0.0041   -0.0047 O   0  0  0  0  0  0  0  0  0  0  0  0
    7.7323   -2.1050   -0.2852 O   0  0  0  0  0  0  0  0  0  0  0  0
   -2.2656    0.2977   -0.7894 N   0  0  0  0  0  0  0  0  0  0  0  0
    0.7565    4.9880    0.7432 N   0  0  0  0  0  0  0  0  0  0  0  0
   -0.9619    1.7105    0.3201 C   0  0  0  0  0  0  0  0  0  0  0  0
   -1.0826   -0.3714   -0.5700 C   0  0  0  0  0  0  0  0  0  0  0  0
   -0.2423    0.4979    0.1289 C   0  0  0  0  0  0  0  0  0  0  0  0
   -2.2021    1.5567   -0.2553 C   0  0  0  0  0  0  0  0  0  0  0  0
   -3.4105   -0.2520   -1.4861 C   0  0  0  0  0  0  0  0  0  0  0  0
   -0.4678    2.9188    1.0134 C   0  0  0  0  0  0  0  0  0  0  0  0
    1.0473    0.0551    0.4843 C   0  0  0  0  0  0  0  0  0  0  0  0
   -0.6961   -1.6665   -0.9328 C   0  0  0  0  0  0  0  0  0  0  0  0
   -3.3351    2.5029   -0.3414 C   0  0  0  0  0  0  0  0  0  0  0  0
    1.4475   -1.2379    0.1281 C   0  0  0  0  0  0  0  0  0  0  0  0
   -4.3469   -0.9508   -0.5378 C   0  0  0  0  0  0  0  0  0  0  0  0
    0.5876   -2.0838   -0.5696 C   0  0  0  0  0  0  0  0  0  0  0  0
    0.2352    3.8965    0.0807 C   0  0  0  0  0  0  0  0  0  0  0  0
   -5.3727   -0.2338    0.0631 C   0  0  0  0  0  0  0  0  0  0  0  0
   -4.1729   -2.3032   -0.2767 C   0  0  0  0  0  0  0  0  0  0  0  0
    3.7211   -0.6875    0.5562 C   0  0  0  0  0  0  0  0  0  0  0  0
    5.0685   -1.3079    0.2091 C   0  0  0  0  0  0  0  0  0  0  0  0
   -6.2409   -0.8814    0.9420 C   0  0  0  0  0  0  0  0  0  0  0  0
   -5.0413   -2.9507    0.6021 C   0  0  0  0  0  0  0  0  0  0  0  0
    6.2081   -0.2894    0.2703 C   0  0  0  0  0  0  0  0  0  0  0  0
   -6.0753   -2.2397    1.2115 C   0  0  0  0  0  0  0  0  0  0  0  0
    7.5462   -0.9218   -0.0376 C   0  0  0  0  0  0  0  0  0  0  0  0
  1 16  1  0
  1 22  1  0
  2 19  2  0
  3 28  1  0
  4 28  2  0
  5  8  1  0
  5 10  1  0
  5 11  1  0
  6 19  1  0
  7  9  1  0
  7 10  2  0
  7 12  1  0
  8  9  2  0
  8 14  1  0
  9 13  1  0
 10 15  1  0
 11 17  1  0
 12 19  1  0
 13 16  2  0
 14 18  2  0
 16 18  1  0
 17 20  2  0
 17 21  1  0
 20 24  1  0
 21 25  2  0
 22 23  1  0
 23 26  1  0
 24 27  2  0
 25 27  1  0
 26 28  1  0
M  END
>  <PUBCHEM_COMPOUND_CID>  (1) 
3710

>  <PUBCHEM_CONFORMER_RMSD>  (1) 
1

>  <PUBCHEM_CONFORMER_DIVERSEORDER>  (1) 
1
7
61
57
35
48
55
45
53
4
44
22
25
50
38
58
40
34
28
27
23
51
33
18
20
46
19
9
36
54
39
10
37
32
11
17
56
3
41
16
43
14
8
26
12
24
30
5
59
6
47
31
29
52
21
60
2
15
13
42
49

>  <PUBCHEM_MMFF94_PARTIAL_CHARGES>  (1) 
37
1 -0.36
10 -0.33
11 0.4
12 0.24
13 -0.15
14 -0.15
15 0.18
16 0.08
17 -0.14
18 -0.15
19 0.57
2 -0.57
20 -0.15
21 -0.15
22 0.28
24 -0.15
25 -0.15
26 0.06
27 -0.15
28 0.66
3 -0.65
33 0.15
34 0.15
38 0.15
39 0.15
4 -0.57
40 0.15
45 0.15
46 0.15
49 0.15
5 0.05
50 0.37
51 0.37
52 0.5
6 -0.8
7 -0.18
8 -0.15

>  <PUBCHEM_EFFECTIVE_ROTOR_COUNT>  (1) 
9

>  <PUBCHEM_PHARMACOPHORE_FEATURES>  (1) 
10
1 1 acceptor
1 2 acceptor
1 3 acceptor
1 4 acceptor
1 5 cation
1 6 donor
3 3 4 28 anion
5 5 7 8 9 10 rings
6 17 20 21 24 25 27 rings
6 8 9 13 14 16 18 rings

>  <PUBCHEM_HEAVY_ATOM_COUNT>  (1) 
28

>  <PUBCHEM_ATOM_DEF_STEREO_COUNT>  (1) 
0

>  <PUBCHEM_ATOM_UDEF_STEREO_COUNT>  (1) 
0

>  <PUBCHEM_BOND_DEF_STEREO_COUNT>  (1) 
0

>  <PUBCHEM_BOND_UDEF_STEREO_COUNT>  (1) 
0

>  <PUBCHEM_ISOTOPIC_ATOM_COUNT>  (1) 
0

>  <PUBCHEM_COMPONENT_COUNT>  (1) 
1

>  <PUBCHEM_CACTVS_TAUTO_COUNT>  (1) 
2

>  <PUBCHEM_CONFORMER_ID>  (1) 
00000E7E00000001

>  <PUBCHEM_MMFF94_ENERGY>  (1) 
63.8976

>  <PUBCHEM_FEATURE_SELFOVERLAP>  (1) 
50.896

>  <PUBCHEM_SHAPE_FINGERPRINT>  (1) 
10670039 82 18339356350448714248
10675989 125 16966309108720468829
12166972 35 17894352202860054748
12522641 126 17825953903140146205
12788726 201 18261947440811538226
13140716 1 18268423543172429001
13631057 29 18114178648938405187
14790565 3 17328309551285834701
14955137 171 18341049721828457289
15131766 46 14115510027562293122
15927050 60 17620477247746170788
16087824 20 18267303137220295929
17093844 174 10231745691635009518
17686467 74 18410566289862767656
18336668 15 18186804677238722124
18608769 82 18413387644725534050
18785283 64 18046622584400797817
19611394 137 18262526995362045154
20101258 96 18409165507031502273
20771845 171 17463131589583425517
21049683 271 18188212112399575276
21267235 1 18410576193276597550
21304253 13 18343304781870402009
21792961 116 18261664883561253311
21796203 349 18194426552441648899
23559900 14 18337098069228965433
25019877 29 17418094326004484806
2747138 104 18411138056708548378
2838139 119 11455890261170937715
335352 9 18411129222398702725
3552219 110 18260842500630001212
469060 322 18341065024802026392
5104073 3 18270107995070812378

>  <PUBCHEM_SHAPE_MULTIPOLES>  (1) 
542.79
17.25
4.47
1.01
33.25
6.66
-0.06
-15.88
2.58
-1.35
0.53
-0.93
0.02
0.96

>  <PUBCHEM_SHAPE_SELFOVERLAP>  (1) 
1163.729

>  <PUBCHEM_SHAPE_VOLUME>  (1) 
301.3

>  <PUBCHEM_COORDINATE_TYPE>  (1) 
2
5
10

$$$$
