37100
     RDKit          3D

 20 23  0  0  0  0  0  0  0  0999 V2000
    0.0180   -1.2528    0.1055 C   0  0  0  0  0  0  0  0  0  0  0  0
   -0.4460    0.0796    0.0492 C   0  0  0  0  0  0  0  0  0  0  0  0
   -0.9757   -2.3855    0.2096 C   0  0  0  0  0  0  0  0  0  0  0  0
   -2.2514   -2.0819   -0.5758 C   0  0  0  0  0  0  0  0  0  0  0  0
   -1.9072    0.3396    0.0631 C   0  0  0  0  0  0  0  0  0  0  0  0
    1.3925   -1.5351    0.1219 C   0  0  0  0  0  0  0  0  0  0  0  0
   -2.8001   -0.7194   -0.2271 C   0  0  0  0  0  0  0  0  0  0  0  0
    0.5164    1.1028   -0.0334 C   0  0  0  0  0  0  0  0  0  0  0  0
    2.3409   -0.5066    0.0491 C   0  0  0  0  0  0  0  0  0  0  0  0
    1.8981    0.8303   -0.0340 C   0  0  0  0  0  0  0  0  0  0  0  0
   -2.4628    1.5948    0.3684 C   0  0  0  0  0  0  0  0  0  0  0  0
    1.8483   -2.9624    0.2327 C   0  0  0  0  0  0  0  0  0  0  0  0
   -4.1862   -0.5045   -0.2481 C   0  0  0  0  0  0  0  0  0  0  0  0
    0.1351    2.5340   -0.2979 C   0  0  0  0  0  0  0  0  0  0  0  0
    3.7192   -0.7784    0.0545 C   0  0  0  0  0  0  0  0  0  0  0  0
    2.8490    1.8618   -0.1139 C   0  0  0  0  0  0  0  0  0  0  0  0
   -3.8461    1.7979    0.3611 C   0  0  0  0  0  0  0  0  0  0  0  0
   -4.7063    0.7513    0.0486 C   0  0  0  0  0  0  0  0  0  0  0  0
    4.6495    0.2579   -0.0242 C   0  0  0  0  0  0  0  0  0  0  0  0
    4.2148    1.5767   -0.1090 C   0  0  0  0  0  0  0  0  0  0  0  0
  1  2  2  0
  1  3  1  0
  1  6  1  0
  2  5  1  0
  2  8  1  0
  3  4  1  0
  4  7  1  0
  5  7  2  0
  5 11  1  0
  6  9  2  0
  6 12  1  0
  7 13  1  0
  8 10  2  0
  8 14  1  0
  9 10  1  0
  9 15  1  0
 10 16  1  0
 11 17  2  0
 13 18  2  0
 15 19  2  0
 16 20  2  0
 17 18  1  0
 19 20  1  0
M  END
>  <PUBCHEM_COMPOUND_CID>  (1) 
37100

>  <PUBCHEM_CONFORMER_RMSD>  (1) 
0.6

>  <PUBCHEM_CONFORMER_DIVERSEORDER>  (1) 
1

>  <PUBCHEM_MMFF94_PARTIAL_CHARGES>  (1) 
24
1 -0.14
11 -0.15
12 0.14
13 -0.15
14 0.14
15 -0.15
16 -0.15
17 -0.15
18 -0.15
19 -0.15
20 -0.15
25 0.15
29 0.15
3 0.14
33 0.15
34 0.15
35 0.15
36 0.15
37 0.15
38 0.15
4 0.14
6 -0.14
7 -0.14
8 -0.14

>  <PUBCHEM_EFFECTIVE_ROTOR_COUNT>  (1) 
0.4

>  <PUBCHEM_PHARMACOPHORE_FEATURES>  (1) 
4
6 1 2 3 4 5 7 rings
6 1 2 6 8 9 10 rings
6 5 7 11 13 17 18 rings
6 9 10 15 16 19 20 rings

>  <PUBCHEM_HEAVY_ATOM_COUNT>  (1) 
20

>  <PUBCHEM_ATOM_DEF_STEREO_COUNT>  (1) 
0

>  <PUBCHEM_ATOM_UDEF_STEREO_COUNT>  (1) 
0

>  <PUBCHEM_BOND_DEF_STEREO_COUNT>  (1) 
0

>  <PUBCHEM_BOND_UDEF_STEREO_COUNT>  (1) 
0

>  <PUBCHEM_ISOTOPIC_ATOM_COUNT>  (1) 
0

>  <PUBCHEM_COMPONENT_COUNT>  (1) 
1

>  <PUBCHEM_CACTVS_TAUTO_COUNT>  (1) 
1

>  <PUBCHEM_CONFORMER_ID>  (1) 
000090EC00000001

>  <PUBCHEM_MMFF94_ENERGY>  (1) 
88.8729

>  <PUBCHEM_FEATURE_SELFOVERLAP>  (1) 
20.367

>  <PUBCHEM_SHAPE_FINGERPRINT>  (1) 
10062212 137 18338226150251350066
10411042 1 16897646784966595971
10493431 412 18411421717449325609
10616163 171 18340488962282145511
10967382 1 18410292480268231466
11132069 177 18411694400675369648
11471102 20 18409445869305312428
11578080 2 13625258622600456892
12107183 9 17620760479390996633
12236239 1 18060417989548962185
12403814 3 17749384867128309021
12644460 14 18187930512821100186
12838862 33 18338496599994491653
13132413 78 18412545426827888821
13140716 1 18409161147623359696
13583140 156 16878216550017859401
138480 1 17834114139160805138
14178342 30 18267568281680743026
14790565 3 18409175432426935140
15196674 1 18410856576819665255
15442244 35 18195808457725621883
15536298 74 18343021056088091910
16945 1 18337382726354247822
17492 89 18411699915192721542
19591789 44 18337954493622339734
200 152 18202278126309886733
20510252 161 18126007314940268634
20739085 24 17976286563526403113
21267235 1 18411145739840875615
21421861 104 17898003538920120786
23227448 37 18412544348891240015
2334 1 18265616679033524666
23366157 5 18042127570418482674
23402539 116 18343294885880532700
23558518 356 17755863374190883448
23559900 14 18272932761076003968
25 1 18334853930898477374
2748010 2 18265621059953050526
335352 9 18338517431044391350
34934 24 18410006624356437031
4214541 1 18412263947508750885
4340502 62 17167867444059135011
4409770 3 16097689364619852710
474 4 18113621222080239636
495365 180 17346026875069300760
5104073 3 18410011052388514442
6034566 193 16086181322057736108
6138700 20 18338240341704478622
69090 78 18411698789989358833
7364860 26 18341050697139649590
7832392 63 18411979178202278030
9709674 26 18341900709442484206
9981440 41 18264763440746430946

>  <PUBCHEM_SHAPE_MULTIPOLES>  (1) 
411.59
8.33
2.87
0.66
0.6
0.82
-0.01
-2.61
-0.07
-0.32
0.03
0.09
0.02
-0.53

>  <PUBCHEM_SHAPE_SELFOVERLAP>  (1) 
930.813

>  <PUBCHEM_SHAPE_VOLUME>  (1) 
202.6

>  <PUBCHEM_COORDINATE_TYPE>  (1) 
2
5
10

$$$$
