37105
     RDKit          3D

 23 24  0  0  0  0  0  0  0  0999 V2000
   -0.0066   -3.2586   -0.5140 S   0  0  0  0  0  0  0  0  0  0  0  0
   -0.5435   -4.4416    0.1476 O   0  0  0  0  0  0  0  0  0  0  0  0
    0.2409   -3.2948   -1.9497 O   0  0  0  0  0  0  0  0  0  0  0  0
    1.7915   -0.6242    1.9828 O   0  0  0  0  0  0  0  0  0  0  0  0
   -3.2073    2.7948   -1.2044 O   0  0  0  0  0  0  0  0  0  0  0  0
    1.4411   -2.8063    0.2770 N   0  0  0  0  0  0  0  0  0  0  0  0
    2.0195   -1.5415   -0.1291 N   0  0  0  0  0  0  0  0  0  0  0  0
   -3.5896    1.3325    0.6051 N   0  0  0  0  0  0  0  0  0  0  0  0
    3.8369    3.0965   -0.5998 N   0  0  0  0  0  0  0  0  0  0  0  0
   -1.0609   -1.9069   -0.1844 C   0  0  0  0  0  0  0  0  0  0  0  0
   -1.1007   -0.8231   -1.0617 C   0  0  0  0  0  0  0  0  0  0  0  0
   -1.8637   -1.9107    0.9561 C   0  0  0  0  0  0  0  0  0  0  0  0
   -2.7463    0.2529    0.3423 C   0  0  0  0  0  0  0  0  0  0  0  0
   -1.9435    0.2568   -0.7983 C   0  0  0  0  0  0  0  0  0  0  0  0
   -2.7065   -0.8308    1.2195 C   0  0  0  0  0  0  0  0  0  0  0  0
    2.1403   -0.5356    0.8086 C   0  0  0  0  0  0  0  0  0  0  0  0
    2.7331    0.7332    0.3165 C   0  0  0  0  0  0  0  0  0  0  0  0
   -3.7648    2.4984   -0.1527 C   0  0  0  0  0  0  0  0  0  0  0  0
    3.3961    1.5485    1.2039 C   0  0  0  0  0  0  0  0  0  0  0  0
    2.6032    1.0590   -1.0134 C   0  0  0  0  0  0  0  0  0  0  0  0
   -4.7738    3.4270    0.4750 C   0  0  0  0  0  0  0  0  0  0  0  0
    3.9311    2.7210    0.6955 C   0  0  0  0  0  0  0  0  0  0  0  0
    3.1735    2.2536   -1.4226 C   0  0  0  0  0  0  0  0  0  0  0  0
  1  2  2  0
  1  3  2  0
  1  6  1  0
  1 10  1  0
  4 16  2  0
  5 18  2  0
  6  7  1  0
  7 16  1  0
  8 13  1  0
  8 18  1  0
  9 22  2  0
  9 23  1  0
 10 11  2  0
 10 12  1  0
 11 14  1  0
 12 15  2  0
 13 14  2  0
 13 15  1  0
 16 17  1  0
 17 19  2  0
 17 20  1  0
 18 21  1  0
 19 22  1  0
 20 23  2  0
M  END
>  <PUBCHEM_COMPOUND_CID>  (1) 
37105

>  <PUBCHEM_CONFORMER_RMSD>  (1) 
0.8

>  <PUBCHEM_CONFORMER_DIVERSEORDER>  (1) 
1
20
37
50
26
45
47
29
51
4
46
22
52
53
8
28
48
39
3
40
24
2
27
38
33
7
25
49
31
54
10
34
18
15
41
13
30
12
32
36
43
35
9
44
5
42
16
19
11
17
6
14
21
23

>  <PUBCHEM_MMFF94_PARTIAL_CHARGES>  (1) 
34
1 1.45
10 -0.01
11 -0.15
12 -0.15
13 0.12
14 -0.15
15 -0.15
16 0.54
17 0.09
18 0.57
19 -0.15
2 -0.65
20 -0.15
21 0.06
22 0.16
23 0.16
24 0.15
25 0.15
26 0.15
27 0.15
28 0.42
29 0.37
3 -0.65
30 0.37
31 0.15
32 0.15
36 0.15
37 0.15
4 -0.57
5 -0.57
6 -0.64
7 -0.35
8 -0.55
9 -0.62

>  <PUBCHEM_EFFECTIVE_ROTOR_COUNT>  (1) 
7

>  <PUBCHEM_PHARMACOPHORE_FEATURES>  (1) 
10
1 2 acceptor
1 3 acceptor
1 4 acceptor
1 5 acceptor
1 6 donor
1 7 donor
1 8 donor
1 9 acceptor
6 10 11 12 13 14 15 rings
6 9 17 19 20 22 23 rings

>  <PUBCHEM_HEAVY_ATOM_COUNT>  (1) 
23

>  <PUBCHEM_ATOM_DEF_STEREO_COUNT>  (1) 
0

>  <PUBCHEM_ATOM_UDEF_STEREO_COUNT>  (1) 
0

>  <PUBCHEM_BOND_DEF_STEREO_COUNT>  (1) 
0

>  <PUBCHEM_BOND_UDEF_STEREO_COUNT>  (1) 
0

>  <PUBCHEM_ISOTOPIC_ATOM_COUNT>  (1) 
0

>  <PUBCHEM_COMPONENT_COUNT>  (1) 
1

>  <PUBCHEM_CACTVS_TAUTO_COUNT>  (1) 
6

>  <PUBCHEM_CONFORMER_ID>  (1) 
000090F100000001

>  <PUBCHEM_MMFF94_ENERGY>  (1) 
48.5316

>  <PUBCHEM_FEATURE_SELFOVERLAP>  (1) 
52.009

>  <PUBCHEM_SHAPE_FINGERPRINT>  (1) 
10087517 78 17402892714589401512
10165383 225 17912676714602672786
10498660 4 17979067515989823694
10670039 82 18190754218033219556
10871710 139 18050006898191269359
10937287 8 18411417332066410521
11221954 11 18335143059675435395
12173636 292 18339640156653825871
12293681 4 16032381646742095109
12633257 1 17677322810313327513
12788726 201 18052797415948467063
128993 33 18341056310439995554
13134695 92 17546725950667102151
13965767 371 18187917353247331852
14251764 38 18265335002478772369
14251764 75 18340782480606377401
14468879 13 18334022696198027529
151778 21 18338244756097344145
15210252 30 17543092090453969102
16988056 13 17617936937657419541
18785283 64 18192718838973659577
20567600 299 17838041611922394057
20621476 13 18120644743524531781
21475661 188 17973156232594929285
21860390 5 17838614453343085231
21864079 5 18410853278369411848
23558518 356 18339347605136722935
23559900 14 18050570643167450803
469060 322 17472714996776174674
474 4 18195520399075677785
5048184 11 18410012177828752820
54672768 99 18339083670558016048
5939293 188 18049154471616141762
7808743 9 18122632914129761272

>  <PUBCHEM_SHAPE_MULTIPOLES>  (1) 
433.78
7.84
5.34
1.43
0.04
1.91
-0.06
-11.43
0.98
2.16
-0.99
-0.51
0.13
-0.08

>  <PUBCHEM_SHAPE_SELFOVERLAP>  (1) 
905.756

>  <PUBCHEM_SHAPE_VOLUME>  (1) 
245.2

>  <PUBCHEM_COORDINATE_TYPE>  (1) 
2
5
10

$$$$
