37112
     RDKit          3D

 16 18  0  0  0  0  0  0  0  0999 V2000
   -1.7077    0.6752    0.3200 N   0  0  0  0  0  0  0  0  0  0  0  0
    1.7077   -0.6752   -0.3202 N   0  0  0  0  0  0  0  0  0  0  0  0
   -0.4844    1.4629    0.6214 C   0  0  0  0  0  0  0  0  0  0  0  0
    0.4844   -1.4628   -0.6215 C   0  0  0  0  0  0  0  0  0  0  0  0
    0.4433    1.4724   -0.5898 C   0  0  0  0  0  0  0  0  0  0  0  0
   -0.4432   -1.4724    0.5896 C   0  0  0  0  0  0  0  0  0  0  0  0
   -1.7051   -0.6879    0.3313 C   0  0  0  0  0  0  0  0  0  0  0  0
    1.7051    0.6878   -0.3314 C   0  0  0  0  0  0  0  0  0  0  0  0
   -2.8444    1.3572    0.0371 C   0  0  0  0  0  0  0  0  0  0  0  0
    2.8444   -1.3571   -0.0371 C   0  0  0  0  0  0  0  0  0  0  0  0
   -2.8967   -1.3770    0.0490 C   0  0  0  0  0  0  0  0  0  0  0  0
    2.8967    1.3771   -0.0488 C   0  0  0  0  0  0  0  0  0  0  0  0
   -4.0352    0.7049   -0.2412 C   0  0  0  0  0  0  0  0  0  0  0  0
    4.0351   -0.7050    0.2413 C   0  0  0  0  0  0  0  0  0  0  0  0
   -4.0613   -0.6777   -0.2331 C   0  0  0  0  0  0  0  0  0  0  0  0
    4.0612    0.6776    0.2335 C   0  0  0  0  0  0  0  0  0  0  0  0
  1  3  1  0
  1  7  2  0
  1  9  1  0
  2  4  1  0
  2  8  2  0
  2 10  1  0
  3  5  1  0
  4  6  1  0
  5  8  1  0
  6  7  1  0
  7 11  1  0
  8 12  1  0
  9 13  2  0
 10 14  2  0
 11 15  2  0
 12 16  2  0
 13 15  1  0
 14 16  1  0
M  CHG  2   1   1   2   1
M  END
>  <PUBCHEM_COMPOUND_CID>  (1) 
37112

>  <PUBCHEM_CONFORMER_RMSD>  (1) 
0.4

>  <PUBCHEM_CONFORMER_DIVERSEORDER>  (1) 
1
2
3

>  <PUBCHEM_MMFF94_PARTIAL_CHARGES>  (1) 
24
1 -0.21
10 0.21
11 -0.15
12 -0.15
13 -0.15
14 -0.15
15 -0.15
16 -0.15
2 -0.21
25 0.15
26 0.15
27 0.15
28 0.15
29 0.15
3 0.49
30 0.15
31 0.15
32 0.15
4 0.49
5 0.14
6 0.14
7 0.22
8 0.22
9 0.21

>  <PUBCHEM_EFFECTIVE_ROTOR_COUNT>  (1) 
0.8

>  <PUBCHEM_PHARMACOPHORE_FEATURES>  (1) 
2
6 1 7 9 11 13 15 rings
6 2 8 10 12 14 16 rings

>  <PUBCHEM_HEAVY_ATOM_COUNT>  (1) 
16

>  <PUBCHEM_ATOM_DEF_STEREO_COUNT>  (1) 
0

>  <PUBCHEM_ATOM_UDEF_STEREO_COUNT>  (1) 
0

>  <PUBCHEM_BOND_DEF_STEREO_COUNT>  (1) 
0

>  <PUBCHEM_BOND_UDEF_STEREO_COUNT>  (1) 
0

>  <PUBCHEM_ISOTOPIC_ATOM_COUNT>  (1) 
0

>  <PUBCHEM_COMPONENT_COUNT>  (1) 
1

>  <PUBCHEM_CACTVS_TAUTO_COUNT>  (1) 
1

>  <PUBCHEM_CONFORMER_ID>  (1) 
000090F800000001

>  <PUBCHEM_MMFF94_ENERGY>  (1) 
55.3536

>  <PUBCHEM_FEATURE_SELFOVERLAP>  (1) 
10.149

>  <PUBCHEM_SHAPE_FINGERPRINT>  (1) 
10062212 137 18412819196918165295
10608611 8 18410572889940390213
10967382 1 18410576171453484526
11132069 177 18413105056655298736
11401426 45 18411975866988123669
11471102 20 18410290315789337254
11806522 49 18340483465071815439
12011746 2 18411985750129878276
12251169 10 18410007750133552400
13380535 76 18410576188469992295
14289901 80 15698004024063286026
15196674 1 18410575088958046213
15375358 24 18411135839893506218
15375462 478 18343018895608733518
15442244 35 18266178318921914906
15536298 74 18342458127725519094
16945 1 18338814363059617798
17492 89 18411138038991745143
17802600 8 18410851066381964193
17834072 14 18410572889934823144
18186145 218 18187364303024320055
18522853 276 18412263943440364121
200 152 18060133250027692175
20201158 50 18411703175082493707
20528008 55 18412823590490166216
20645476 183 17751660959261248238
20645477 70 18412825759195774662
21267235 1 18410583885056765418
21501925 9 18410289220562140160
23402539 116 18341885299073121063
23402655 69 18413669093251426309
23463225 33 18408324388851278068
23557571 272 17846787329515514175
23559900 14 18341891858099929722
2748010 2 18338530684780742566
296302 2 17822295716575451004
335352 9 18194402177995243959
351380 180 18411414007935439522
5104073 3 18410575089005526457
537710 114 18341335564713028809
57005193 9 18410285908820686007
57812782 119 18410573989446437923
69090 78 18413666915877093391
7364860 26 18196372524492392002
8809292 202 18333455365050857691
9709674 26 18411143545160248558

>  <PUBCHEM_SHAPE_MULTIPOLES>  (1) 
319.31
7.67
1.87
0.74
0
0
0
0
0
0
0
0
0
0

>  <PUBCHEM_SHAPE_SELFOVERLAP>  (1) 
689.924

>  <PUBCHEM_SHAPE_VOLUME>  (1) 
170.5

>  <PUBCHEM_COORDINATE_TYPE>  (1) 
2
5
10

$$$$
