37124
     RDKit          3D

 19 20  0  0  1  0  0  0  0  0999 V2000
    1.4891    1.9566   -0.5452 O   0  0  0  0  0  0  0  0  0  0  0  0
   -0.9546    0.5468    0.1707 N   0  0  0  0  0  0  0  0  0  0  0  0
   -0.3153    1.4303    2.3121 N   0  0  0  0  0  0  0  0  0  0  0  0
   -2.3516    0.4740    0.6205 C   0  0  0  0  0  0  0  0  0  0  0  0
   -3.2783    0.6892   -0.5768 C   0  0  0  0  0  0  0  0  0  0  0  0
   -2.5882   -0.8766    1.2973 C   0  0  0  0  0  0  0  0  0  0  0  0
   -3.2633   -0.4858   -1.5542 C   0  0  0  0  0  0  0  0  0  0  0  0
   -2.5777   -2.0427    0.3092 C   0  0  0  0  0  0  0  0  0  0  0  0
   -3.5423   -1.8092   -0.8490 C   0  0  0  0  0  0  0  0  0  0  0  0
   -0.1002    1.0033    1.0204 C   0  0  0  0  0  0  0  0  0  0  0  0
    1.3582    1.0631    0.5491 C   0  0  0  0  0  0  0  0  0  0  0  0
    1.8607   -0.3105    0.1642 C   0  0  0  0  0  0  0  0  0  0  0  0
    2.4590   -1.1061    1.1265 C   0  0  0  0  0  0  0  0  0  0  0  0
    1.7115   -0.7440   -1.1424 C   0  0  0  0  0  0  0  0  0  0  0  0
    1.0247    3.2598   -0.2162 C   0  0  0  0  0  0  0  0  0  0  0  0
    2.9224   -2.3730    0.7717 C   0  0  0  0  0  0  0  0  0  0  0  0
    2.1748   -2.0110   -1.4971 C   0  0  0  0  0  0  0  0  0  0  0  0
    2.7802   -2.8255   -0.5400 C   0  0  0  0  0  0  0  0  0  0  0  0
    1.1911    4.1614   -1.4209 C   0  0  0  0  0  0  0  0  0  0  0  0
  1 11  1  0
  1 15  1  0
  2  4  1  0
  2 10  2  0
  3 10  1  0
  4  5  1  0
  4  6  1  0
  5  7  1  0
  6  8  1  0
  7  9  1  0
  8  9  1  0
 10 11  1  0
 11 12  1  0
 12 13  2  0
 12 14  1  0
 13 16  1  0
 14 17  2  0
 15 19  1  0
 16 18  2  0
 17 18  1  0
M  END
>  <PUBCHEM_COMPOUND_CID>  (1) 
37124

>  <PUBCHEM_CONFORMER_RMSD>  (1) 
0.8

>  <PUBCHEM_CONFORMER_DIVERSEORDER>  (1) 
1
41
14
31
10
46
20
30
45
27
26
11
3
12
16
50
52
23
51
47
39
36
32
21
15
37
35
43
22
2
48
44
17
13
33
34
19
38
42
28
24
49
9
25
7
4
29
18
6
40
5
8

>  <PUBCHEM_MMFF94_PARTIAL_CHARGES>  (1) 
20
1 -0.56
10 0.44
11 0.48
12 -0.14
13 -0.15
14 -0.15
15 0.28
16 -0.15
17 -0.15
18 -0.15
2 -0.7
3 -0.85
32 0.4
33 0.4
34 0.15
35 0.15
38 0.15
39 0.15
4 0.25
40 0.15

>  <PUBCHEM_EFFECTIVE_ROTOR_COUNT>  (1) 
6.2

>  <PUBCHEM_PHARMACOPHORE_FEATURES>  (1) 
5
1 1 acceptor
1 3 donor
3 2 3 10 cation
6 12 13 14 16 17 18 rings
6 4 5 6 7 8 9 rings

>  <PUBCHEM_HEAVY_ATOM_COUNT>  (1) 
19

>  <PUBCHEM_ATOM_DEF_STEREO_COUNT>  (1) 
0

>  <PUBCHEM_ATOM_UDEF_STEREO_COUNT>  (1) 
1

>  <PUBCHEM_BOND_DEF_STEREO_COUNT>  (1) 
0

>  <PUBCHEM_BOND_UDEF_STEREO_COUNT>  (1) 
0

>  <PUBCHEM_ISOTOPIC_ATOM_COUNT>  (1) 
0

>  <PUBCHEM_COMPONENT_COUNT>  (1) 
1

>  <PUBCHEM_CACTVS_TAUTO_COUNT>  (1) 
2

>  <PUBCHEM_CONFORMER_ID>  (1) 
0000910400000001

>  <PUBCHEM_MMFF94_ENERGY>  (1) 
38.8414

>  <PUBCHEM_FEATURE_SELFOVERLAP>  (1) 
25.371

>  <PUBCHEM_SHAPE_FINGERPRINT>  (1) 
116883 192 18122334688532520668
121448 382 17264120057100514101
12156800 1 15247551517819436823
12363563 72 18337951177728778322
12553582 1 18266753388993626454
12788726 201 17829326878660294356
13004483 165 17973990770283297890
13083527 12 18263906784160532360
13681431 1 18410576193018212660
13931106 250 17689146808329941572
14004458 79 17902790760929007620
14181834 199 18272078431291683432
14386348 128 10953749867369473063
15906896 17 16743144565987065552
16752209 62 17541376834807721312
18981168 100 14201401603268709599
20197701 30 17980753054884249448
20361792 2 18265065630117969642
20600515 1 18057604269925186560
20626108 58 18267560495032083915
20645477 70 18267297815254221215
20671657 53 18336259055192754899
21285901 2 17838892634132971765
21421566 26 17692848928647825108
21452121 199 18341883121640564737
21524375 3 17615412892851910680
21731516 1 18271819968544211410
2255824 54 18266465484455797756
23114952 82 18189047745774083125
23419403 2 17267455619055202544
23559900 14 18266441278394624801
23598288 3 16888397778799031728
238 59 18193263324783995799
26353 1 18261966128488556244
3060560 45 17974846478103351900
5262128 65 18409164424440936635
81228 2 17979641134647302712

>  <PUBCHEM_SHAPE_MULTIPOLES>  (1) 
375.18
5.7
4.07
1.65
3.6
3.86
-0.19
-4.53
1.09
-3.09
1.53
0.13
0.18
-0.36

>  <PUBCHEM_SHAPE_SELFOVERLAP>  (1) 
768.618

>  <PUBCHEM_SHAPE_VOLUME>  (1) 
213.5

>  <PUBCHEM_COORDINATE_TYPE>  (1) 
2
5
10

$$$$
