37129
     RDKit          3D

 24 25  0  0  0  0  0  0  0  0999 V2000
   -4.4363   -1.7452    0.7004 Cl  0  0  0  0  0  0  0  0  0  0  0  0
   -6.4699    0.6547   -0.0554 Cl  0  0  0  0  0  0  0  0  0  0  0  0
    1.5486   -1.9821   -0.8149 O   0  0  0  0  0  0  0  0  0  0  0  0
   -0.1447    2.7064    0.2035 O   0  0  0  0  0  0  0  0  0  0  0  0
    0.7114   -4.9583    1.0032 O   0  0  0  0  0  0  0  0  0  0  0  0
   -0.5493   -3.6658   -0.3852 O   0  0  0  0  0  0  0  0  0  0  0  0
    0.2369    0.4430   -0.2826 N   0  0  0  0  0  0  0  0  0  0  0  0
    3.7799    1.4507   -0.1205 C   0  0  0  0  0  0  0  0  0  0  0  0
    1.6507    0.3634   -0.3203 C   0  0  0  0  0  0  0  0  0  0  0  0
    4.5883    2.6791    0.1277 C   0  0  0  0  0  0  0  0  0  0  0  0
    2.3868    1.5136   -0.0871 C   0  0  0  0  0  0  0  0  0  0  0  0
    2.2683   -0.8474   -0.5860 C   0  0  0  0  0  0  0  0  0  0  0  0
    4.4173    0.2389   -0.3866 C   0  0  0  0  0  0  0  0  0  0  0  0
    3.6614   -0.9101   -0.6195 C   0  0  0  0  0  0  0  0  0  0  0  0
    4.9230    2.8653    1.6053 C   0  0  0  0  0  0  0  0  0  0  0  0
   -0.5678    1.5634   -0.0329 C   0  0  0  0  0  0  0  0  0  0  0  0
   -2.0028    1.3272   -0.0335 C   0  0  0  0  0  0  0  0  0  0  0  0
   -2.5021    0.0657    0.2905 C   0  0  0  0  0  0  0  0  0  0  0  0
   -2.8798    2.3621   -0.3584 C   0  0  0  0  0  0  0  0  0  0  0  0
    1.7618   -3.0746    0.0763 C   0  0  0  0  0  0  0  0  0  0  0  0
   -3.8784   -0.1610    0.2897 C   0  0  0  0  0  0  0  0  0  0  0  0
   -4.2561    2.1356   -0.3593 C   0  0  0  0  0  0  0  0  0  0  0  0
   -4.7554    0.8740   -0.0351 C   0  0  0  0  0  0  0  0  0  0  0  0
    0.5083   -3.8984    0.1806 C   0  0  0  0  0  0  0  0  0  0  0  0
  1 21  1  0
  2 23  1  0
  3 12  1  0
  3 20  1  0
  4 16  2  0
  5 24  1  0
  6 24  2  0
  7  9  1  0
  7 16  1  0
  8 10  1  0
  8 11  2  0
  8 13  1  0
  9 11  1  0
  9 12  2  0
 10 15  1  0
 12 14  1  0
 13 14  2  0
 16 17  1  0
 17 18  2  0
 17 19  1  0
 18 21  1  0
 19 22  2  0
 20 24  1  0
 21 23  2  0
 22 23  1  0
M  END
>  <PUBCHEM_COMPOUND_CID>  (1) 
37129

>  <PUBCHEM_CONFORMER_RMSD>  (1) 
0.8

>  <PUBCHEM_CONFORMER_DIVERSEORDER>  (1) 
1
46
38
92
13
101
97
47
80
59
82
55
87
58
93
48
43
19
25
69
76
15
45
7
60
21
98
83
100
61
49
9
103
91
27
90
66
56
95
96
16
18
86
26
50
73
62
77
84
85
54
24
17
37
64
81
70
22
40
51
52
11
14
75
78
12
34
28
94
72
42
74
31
3
10
44
39
8
33
57
67
79
89
35
36
29
6
20
5
65
32
71
88
99
102
41
63
53
68
23
30
4
2

>  <PUBCHEM_MMFF94_PARTIAL_CHARGES>  (1) 
31
1 -0.18
10 0.14
11 -0.15
12 0.08
13 -0.15
14 -0.15
16 0.54
17 0.09
18 -0.15
19 -0.15
2 -0.18
20 0.34
21 0.18
22 -0.15
23 0.18
24 0.66
27 0.15
28 0.15
29 0.15
3 -0.36
30 0.37
34 0.15
35 0.15
38 0.15
39 0.5
4 -0.57
5 -0.65
6 -0.57
7 -0.55
8 -0.14
9 0.12

>  <PUBCHEM_EFFECTIVE_ROTOR_COUNT>  (1) 
7

>  <PUBCHEM_PHARMACOPHORE_FEATURES>  (1) 
9
1 15 hydrophobe
1 3 acceptor
1 4 acceptor
1 5 acceptor
1 6 acceptor
1 7 donor
3 5 6 24 anion
6 17 18 19 21 22 23 rings
6 8 9 11 12 13 14 rings

>  <PUBCHEM_HEAVY_ATOM_COUNT>  (1) 
24

>  <PUBCHEM_ATOM_DEF_STEREO_COUNT>  (1) 
0

>  <PUBCHEM_ATOM_UDEF_STEREO_COUNT>  (1) 
0

>  <PUBCHEM_BOND_DEF_STEREO_COUNT>  (1) 
0

>  <PUBCHEM_BOND_UDEF_STEREO_COUNT>  (1) 
0

>  <PUBCHEM_ISOTOPIC_ATOM_COUNT>  (1) 
0

>  <PUBCHEM_COMPONENT_COUNT>  (1) 
1

>  <PUBCHEM_CACTVS_TAUTO_COUNT>  (1) 
2

>  <PUBCHEM_CONFORMER_ID>  (1) 
0000910900000001

>  <PUBCHEM_MMFF94_ENERGY>  (1) 
70.4898

>  <PUBCHEM_FEATURE_SELFOVERLAP>  (1) 
45.733

>  <PUBCHEM_SHAPE_FINGERPRINT>  (1) 
10074138 170 17835210692209515296
10090160 65 18411411817397007044
10616163 171 18409173182137910791
11370993 70 18409449184756242798
11578080 2 16485556844973720802
12107183 9 17332814846944960313
12553582 1 17042898889007301686
12596602 18 17417822763912304985
12788726 201 17396701356202022472
13140716 1 18411133602579606888
13402501 40 18337116752051886027
13533116 47 18270116791532728657
138480 1 17761212120203112910
13955234 65 18266741281374980178
14617045 38 18337966601652092479
14787075 74 18059291092550531876
14790565 3 18338523039818525189
14863182 85 18261688007654411228
15338160 23 17620458548018552000
15927050 60 18339921619495351062
18681886 176 18260556658136021188
19427546 62 18338237179827904852
19591789 44 18410859866970699742
20028762 73 18272086055101974582
20567600 347 18041001708796886194
20645477 70 18262519165572632917
21049683 118 18196346304080320258
21133410 32 16308871720848302811
21197605 99 18341057431775379631
22393880 68 18339370651608720223
23557571 272 17459191798296995245
23558518 356 17540529554109888168
23559900 14 18122337978308287313
239999 70 18130793296077874582
33824 294 18410577240778970110
4073 2 18409454696164953225
4340502 62 18342454872193368048
5104073 3 18412266112167299417
5486654 2 18339650043827290652
59755656 215 18263087634601481263
59755656 520 18335975476415272988
621550 34 18334571300549554677
6433294 58 18192997019758433327
6442390 28 18410012173897308276
653340 110 17980755262402149810
7399639 24 18334285440406050989
9709674 26 18266466395289583951
9777508 108 18053376888772568048

>  <PUBCHEM_SHAPE_MULTIPOLES>  (1) 
469.19
11.72
5
0.86
8.05
6.89
0.19
-8.08
1.14
-2.84
1.16
-0.56
-0.06
1.57

>  <PUBCHEM_SHAPE_SELFOVERLAP>  (1) 
978.797

>  <PUBCHEM_SHAPE_VOLUME>  (1) 
267.7

>  <PUBCHEM_COORDINATE_TYPE>  (1) 
2
5
10

$$$$
