37121
     RDKit          3D

 14 15  0  0  1  0  0  0  0  0999 V2000
    2.9160   -0.1301    1.0275 O   0  0  0  0  0  0  0  0  0  0  0  0
    0.9866    1.0114    0.5950 N   0  0  0  0  0  0  0  0  0  0  0  0
    2.0626   -0.3117   -1.0819 N   0  0  0  0  0  0  0  0  0  0  0  0
   -0.1600    1.3740   -0.2584 C   0  0  0  0  0  0  0  0  0  0  0  0
   -1.3016    0.4263   -0.1073 C   0  0  0  0  0  0  0  0  0  0  0  0
   -0.5578    2.8312    0.0393 C   0  0  0  0  0  0  0  0  0  0  0  0
    1.9575    0.1883    0.1103 C   0  0  0  0  0  0  0  0  0  0  0  0
    3.6843   -1.1517    0.4121 C   0  0  0  0  0  0  0  0  0  0  0  0
    3.3276   -1.0514   -1.0500 C   0  0  0  0  0  0  0  0  0  0  0  0
   -1.5494   -0.1761    1.1263 C   0  0  0  0  0  0  0  0  0  0  0  0
   -2.1218    0.1423   -1.1992 C   0  0  0  0  0  0  0  0  0  0  0  0
   -2.6171   -1.0624    1.2679 C   0  0  0  0  0  0  0  0  0  0  0  0
   -3.1896   -0.7439   -1.0575 C   0  0  0  0  0  0  0  0  0  0  0  0
   -3.4372   -1.3462    0.1760 C   0  0  0  0  0  0  0  0  0  0  0  0
  1  7  1  0
  1  8  1  0
  2  4  1  0
  2  7  1  0
  3  7  2  0
  3  9  1  0
  4  5  1  0
  4  6  1  0
  5 10  2  0
  5 11  1  0
  8  9  1  0
 10 12  1  0
 11 13  2  0
 12 14  2  0
 13 14  1  0
M  END
>  <PUBCHEM_COMPOUND_CID>  (1) 
37121

>  <PUBCHEM_CONFORMER_RMSD>  (1) 
0.6

>  <PUBCHEM_CONFORMER_DIVERSEORDER>  (1) 
1
15
42
35
39
48
29
25
6
19
16
49
45
20
3
41
30
37
40
22
7
34
28
33
13
27
36
9
44
21
32
18
4
10
17
31
8
11
12
46
26
47
38
23
43
14
2
24
5

>  <PUBCHEM_MMFF94_PARTIAL_CHARGES>  (1) 
19
1 -0.43
10 -0.15
11 -0.15
12 -0.15
13 -0.15
14 -0.15
16 0.4
2 -0.82
24 0.15
25 0.15
26 0.15
27 0.15
28 0.15
3 -0.7
4 0.51
5 -0.14
7 0.65
8 0.28
9 0.25

>  <PUBCHEM_EFFECTIVE_ROTOR_COUNT>  (1) 
3.6

>  <PUBCHEM_PHARMACOPHORE_FEATURES>  (1) 
4
1 2 donor
3 2 3 7 cation
5 1 3 7 8 9 rings
6 5 10 11 12 13 14 rings

>  <PUBCHEM_HEAVY_ATOM_COUNT>  (1) 
14

>  <PUBCHEM_ATOM_DEF_STEREO_COUNT>  (1) 
0

>  <PUBCHEM_ATOM_UDEF_STEREO_COUNT>  (1) 
1

>  <PUBCHEM_BOND_DEF_STEREO_COUNT>  (1) 
0

>  <PUBCHEM_BOND_UDEF_STEREO_COUNT>  (1) 
0

>  <PUBCHEM_ISOTOPIC_ATOM_COUNT>  (1) 
0

>  <PUBCHEM_COMPONENT_COUNT>  (1) 
1

>  <PUBCHEM_CACTVS_TAUTO_COUNT>  (1) 
2

>  <PUBCHEM_CONFORMER_ID>  (1) 
0000910100000001

>  <PUBCHEM_MMFF94_ENERGY>  (1) 
28.9665

>  <PUBCHEM_FEATURE_SELFOVERLAP>  (1) 
20.297

>  <PUBCHEM_SHAPE_FINGERPRINT>  (1) 
10618630 7 18411421704500944726
11127187 94 17894348882523351539
12251169 10 15267344036946850619
12363563 72 18410291423606290270
13296908 3 18409725179375834724
13296909 8 16415482627724263977
16945 1 17240752991532273425
18186145 218 10953732288041365690
19766037 51 18188221982112692591
20201158 50 18187642505125415211
20281407 28 18272934899320474630
20361792 2 18413110588684043381
20645477 70 18267854159410538151
20653085 51 13912325663788482357
20671657 53 17676206870820694660
20711983 138 18334858324897778817
20711985 344 18264201413899884097
20871998 22 18413108393839905336
20871999 31 16153710972582719371
21061003 4 18412549829348448803
21119208 17 15719386226683669974
21296965 67 18411697716453458057
23403322 49 18260824856793702810
23419403 2 13283390693680871121
23559900 14 18040980827398901568
25 1 11602811368159458908
27216 239 11023810786877337959
305870 269 9799425390109541212
3082319 5 15647051572963912010
549884 4 13479126917155660270
81228 2 18266458711271935649

>  <PUBCHEM_SHAPE_MULTIPOLES>  (1) 
272.28
6.35
1.88
1.26
2.9
1.49
-0.06
-4.21
-0.41
-0.39
0.12
-0.28
-0.29
0.36

>  <PUBCHEM_SHAPE_SELFOVERLAP>  (1) 
570.098

>  <PUBCHEM_SHAPE_VOLUME>  (1) 
154.4

>  <PUBCHEM_COORDINATE_TYPE>  (1) 
2
5
10

$$$$
