37126
     RDKit          3D

 10  9  0  0  0  0  0  0  0  0999 V2000
    3.3863   -0.1167    1.1265 O   0  0  0  0  0  0  0  0  0  0  0  0
    2.9372   -0.2514   -1.0951 O   0  0  0  0  0  0  0  0  0  0  0  0
   -1.2012    0.5151   -0.2329 N   0  0  0  0  0  0  0  0  0  0  0  0
   -3.3666   -0.0881    0.4897 N   0  0  0  0  0  0  0  0  0  0  0  0
   -1.9111   -1.7776   -0.1178 N   0  0  0  0  0  0  0  0  0  0  0  0
    0.1564    0.2426   -0.7015 C   0  0  0  0  0  0  0  0  0  0  0  0
    1.1176    0.1457    0.4776 C   0  0  0  0  0  0  0  0  0  0  0  0
   -1.5354    1.9242   -0.0350 C   0  0  0  0  0  0  0  0  0  0  0  0
   -2.1338   -0.4967    0.0338 C   0  0  0  0  0  0  0  0  0  0  0  0
    2.5507   -0.0971    0.0549 C   0  0  0  0  0  0  0  0  0  0  0  0
  1 10  1  0
  2 10  2  0
  3  6  1  0
  3  8  1  0
  3  9  1  0
  4  9  1  0
  5  9  2  0
  6  7  1  0
  7 10  1  0
M  END
>  <PUBCHEM_COMPOUND_CID>  (1) 
37126

>  <PUBCHEM_CONFORMER_RMSD>  (1) 
0.6

>  <PUBCHEM_CONFORMER_DIVERSEORDER>  (1) 
2
15
5
27
29
20
21
23
19
13
28
3
30
14
10
1
6
7
16
11
25
4
18
22
24
8
12
17
9
26

>  <PUBCHEM_MMFF94_PARTIAL_CHARGES>  (1) 
14
1 -0.65
10 0.66
18 0.4
19 0.4
2 -0.57
20 0.4
21 0.5
3 -0.79
4 -0.85
5 -0.85
6 0.37
7 0.06
8 0.37
9 0.55

>  <PUBCHEM_EFFECTIVE_ROTOR_COUNT>  (1) 
4

>  <PUBCHEM_PHARMACOPHORE_FEATURES>  (1) 
6
1 1 acceptor
1 2 acceptor
1 4 donor
1 5 donor
3 1 2 10 anion
4 3 4 5 9 cation

>  <PUBCHEM_HEAVY_ATOM_COUNT>  (1) 
10

>  <PUBCHEM_ATOM_DEF_STEREO_COUNT>  (1) 
0

>  <PUBCHEM_ATOM_UDEF_STEREO_COUNT>  (1) 
0

>  <PUBCHEM_BOND_DEF_STEREO_COUNT>  (1) 
0

>  <PUBCHEM_BOND_UDEF_STEREO_COUNT>  (1) 
0

>  <PUBCHEM_ISOTOPIC_ATOM_COUNT>  (1) 
0

>  <PUBCHEM_COMPONENT_COUNT>  (1) 
1

>  <PUBCHEM_CACTVS_TAUTO_COUNT>  (1) 
1

>  <PUBCHEM_CONFORMER_ID>  (1) 
0000910600000002

>  <PUBCHEM_MMFF94_ENERGY>  (1) 
19.5345

>  <PUBCHEM_FEATURE_SELFOVERLAP>  (1) 
30.553

>  <PUBCHEM_SHAPE_FINGERPRINT>  (1) 
10857977 72 18271801358529720768
12716758 59 18197782102630227980
12932741 1 17917710158823421164
12932764 1 17967812756112010988
20645464 45 17917703587264852426
20715346 28 17775280543611092356
20871998 184 18272937162990162727
23552423 10 17898014778696637605
29004967 10 17489587870392499306
3248919 1 18272083890274205652
369184 2 15554445197603431285

>  <PUBCHEM_SHAPE_MULTIPOLES>  (1) 
179.11
5.34
1.34
0.88
2.13
0.23
-0.01
-0.84
0.83
-1.25
-0.05
0.6
-0.01
0.03

>  <PUBCHEM_SHAPE_SELFOVERLAP>  (1) 
335.72

>  <PUBCHEM_SHAPE_VOLUME>  (1) 
110.5

>  <PUBCHEM_COORDINATE_TYPE>  (1) 
2
5
10

$$$$
