37130
     RDKit          3D

 22 23  0  0  0  0  0  0  0  0999 V2000
    3.1519    3.1547    0.4379 Cl  0  0  0  0  0  0  0  0  0  0  0  0
    5.9436   -1.3519   -0.5759 Cl  0  0  0  0  0  0  0  0  0  0  0  0
   -2.5173    0.8620   -0.7714 O   0  0  0  0  0  0  0  0  0  0  0  0
    0.9069   -2.6477    0.5872 O   0  0  0  0  0  0  0  0  0  0  0  0
   -2.9107    4.1023    0.7151 O   0  0  0  0  0  0  0  0  0  0  0  0
   -1.2548    3.2705   -0.6093 O   0  0  0  0  0  0  0  0  0  0  0  0
   -0.3458   -0.7811   -0.0848 N   0  0  0  0  0  0  0  0  0  0  0  0
   -1.6757   -1.2682   -0.0567 C   0  0  0  0  0  0  0  0  0  0  0  0
   -2.7257   -0.4331   -0.4008 C   0  0  0  0  0  0  0  0  0  0  0  0
    2.0635   -0.6821    0.1287 C   0  0  0  0  0  0  0  0  0  0  0  0
    0.8395   -1.4621    0.2252 C   0  0  0  0  0  0  0  0  0  0  0  0
   -1.8930   -2.5838    0.3191 C   0  0  0  0  0  0  0  0  0  0  0  0
   -4.0297   -0.9273   -0.3683 C   0  0  0  0  0  0  0  0  0  0  0  0
   -3.1971   -3.0779    0.3517 C   0  0  0  0  0  0  0  0  0  0  0  0
   -4.2654   -2.2497    0.0080 C   0  0  0  0  0  0  0  0  0  0  0  0
    3.2750   -1.3166   -0.1447 C   0  0  0  0  0  0  0  0  0  0  0  0
    2.0254    0.7005    0.3090 C   0  0  0  0  0  0  0  0  0  0  0  0
    3.1991    1.4486    0.2161 C   0  0  0  0  0  0  0  0  0  0  0  0
    4.4488   -0.5687   -0.2377 C   0  0  0  0  0  0  0  0  0  0  0  0
    4.4108    0.8140   -0.0574 C   0  0  0  0  0  0  0  0  0  0  0  0
   -3.1371    1.8705    0.0234 C   0  0  0  0  0  0  0  0  0  0  0  0
   -2.3122    3.1269   -0.0142 C   0  0  0  0  0  0  0  0  0  0  0  0
  1 18  1  0
  2 19  1  0
  3  9  1  0
  3 21  1  0
  4 11  2  0
  5 22  1  0
  6 22  2  0
  7  8  1  0
  7 11  1  0
  8  9  2  0
  8 12  1  0
  9 13  1  0
 10 11  1  0
 10 16  2  0
 10 17  1  0
 12 14  2  0
 13 15  2  0
 14 15  1  0
 16 19  1  0
 17 18  2  0
 18 20  1  0
 19 20  2  0
 21 22  1  0
M  END
>  <PUBCHEM_COMPOUND_CID>  (1) 
37130

>  <PUBCHEM_CONFORMER_RMSD>  (1) 
0.8

>  <PUBCHEM_CONFORMER_DIVERSEORDER>  (1) 
1
39
15
30
34
28
25
24
5
17
44
20
12
21
35
42
31
11
33
45
26
6
23
10
41
40
36
32
37
18
2
29
16
7
22
19
43
13
38
4
8
27
14
3
9

>  <PUBCHEM_MMFF94_PARTIAL_CHARGES>  (1) 
31
1 -0.18
10 0.09
11 0.54
12 -0.15
13 -0.15
14 -0.15
15 -0.15
16 -0.15
17 -0.15
18 0.18
19 0.18
2 -0.18
20 -0.15
21 0.34
22 0.66
23 0.37
24 0.15
25 0.15
26 0.15
27 0.15
28 0.15
29 0.15
3 -0.36
30 0.15
33 0.5
4 -0.57
5 -0.65
6 -0.57
7 -0.55
8 0.12
9 0.08

>  <PUBCHEM_EFFECTIVE_ROTOR_COUNT>  (1) 
6

>  <PUBCHEM_PHARMACOPHORE_FEATURES>  (1) 
8
1 3 acceptor
1 4 acceptor
1 5 acceptor
1 6 acceptor
1 7 donor
3 5 6 22 anion
6 10 16 17 18 19 20 rings
6 8 9 12 13 14 15 rings

>  <PUBCHEM_HEAVY_ATOM_COUNT>  (1) 
22

>  <PUBCHEM_ATOM_DEF_STEREO_COUNT>  (1) 
0

>  <PUBCHEM_ATOM_UDEF_STEREO_COUNT>  (1) 
0

>  <PUBCHEM_BOND_DEF_STEREO_COUNT>  (1) 
0

>  <PUBCHEM_BOND_UDEF_STEREO_COUNT>  (1) 
0

>  <PUBCHEM_ISOTOPIC_ATOM_COUNT>  (1) 
0

>  <PUBCHEM_COMPONENT_COUNT>  (1) 
1

>  <PUBCHEM_CACTVS_TAUTO_COUNT>  (1) 
2

>  <PUBCHEM_CONFORMER_ID>  (1) 
0000910A00000001

>  <PUBCHEM_MMFF94_ENERGY>  (1) 
66.5025

>  <PUBCHEM_FEATURE_SELFOVERLAP>  (1) 
40.659

>  <PUBCHEM_SHAPE_FINGERPRINT>  (1) 
10006869 2 18263639564454960515
10498660 4 18335410313999572173
10670039 82 18190191255469359060
1100329 8 17761207713798685074
12107183 9 17830446181740607242
12403259 226 18341610477322349336
12788726 201 18334286561967333363
13402501 40 17908135830575734984
138480 1 16104729516097743677
14341114 176 18335424603287415102
14790565 3 18267585711629480649
14955137 171 18047204209241560491
15196674 1 18337952401793879558
15961568 22 18119245318968230980
17844677 252 18410580600055461646
19611394 137 16960698841706428994
19930381 70 17834110132103595409
20510252 161 18409726296478944419
221357 26 18342457062573701302
221490 88 18412828010470560112
22182937 141 18341616945496014121
2297311 6 18336837479992854919
23227448 37 18340769230715891877
23352939 185 18127978709857135299
23557571 272 18410296934212913679
23559900 14 18411130377059401490
23845131 108 17903647276920195073
350125 39 18410297999164050338
4214541 1 18410011031140790246
5048184 11 18193839228221787473
5104073 3 18336546139397027778
5281201 14 18343026631356685862
9709674 26 18341896272862411430

>  <PUBCHEM_SHAPE_MULTIPOLES>  (1) 
428.03
10.44
4.6
0.73
7.79
4.52
-0.01
-2.79
-1.08
-3.79
0.66
0.01
0.05
0.63

>  <PUBCHEM_SHAPE_SELFOVERLAP>  (1) 
897.535

>  <PUBCHEM_SHAPE_VOLUME>  (1) 
242.6

>  <PUBCHEM_COORDINATE_TYPE>  (1) 
2
5
10

$$$$
