3713
     RDKit          3D

 17 18  0  0  0  0  0  0  0  0999 V2000
   -4.8807    0.3205   -0.2743 P   0  0  0  0  0  0  0  0  0  0  0  0
   -3.3279    0.0412   -0.6293 O   0  0  0  0  0  0  0  0  0  0  0  0
   -4.8171    1.5033    0.8267 O   0  0  0  0  0  0  0  0  0  0  0  0
   -5.2876   -0.9785    0.5986 O   0  0  0  0  0  0  0  0  0  0  0  0
   -5.7640    0.5915   -1.4569 O   0  0  0  0  0  0  0  0  0  0  0  0
    3.1952   -1.8753   -0.4277 N   0  0  0  0  0  0  0  0  0  0  0  0
    0.0028   -0.7644    0.9534 C   0  0  0  0  0  0  0  0  0  0  0  0
    1.3678   -0.9404    0.4171 C   0  0  0  0  0  0  0  0  0  0  0  0
    2.3476    0.0767    0.2420 C   0  0  0  0  0  0  0  0  0  0  0  0
   -1.0372   -0.4534   -0.1358 C   0  0  0  0  0  0  0  0  0  0  0  0
    3.4843   -0.5364   -0.2895 C   0  0  0  0  0  0  0  0  0  0  0  0
    1.9185   -2.1290   -0.0035 C   0  0  0  0  0  0  0  0  0  0  0  0
   -2.4284   -0.2238    0.4381 C   0  0  0  0  0  0  0  0  0  0  0  0
    2.3765    1.4642    0.4852 C   0  0  0  0  0  0  0  0  0  0  0  0
    4.6531    0.1716   -0.5909 C   0  0  0  0  0  0  0  0  0  0  0  0
    3.5388    2.1854    0.1884 C   0  0  0  0  0  0  0  0  0  0  0  0
    4.6584    1.5469   -0.3413 C   0  0  0  0  0  0  0  0  0  0  0  0
  1  2  1  0
  1  3  1  0
  1  4  1  0
  1  5  2  0
  2 13  1  0
  6 11  1  0
  6 12  1  0
  7  8  1  0
  7 10  1  0
  8  9  1  0
  8 12  2  0
  9 11  2  0
  9 14  1  0
 10 13  1  0
 11 15  1  0
 14 16  2  0
 15 17  2  0
 16 17  1  0
M  END
>  <PUBCHEM_COMPOUND_CID>  (1) 
3713

>  <PUBCHEM_CONFORMER_RMSD>  (1) 
0.6

>  <PUBCHEM_CONFORMER_DIVERSEORDER>  (1) 
1
50
77
59
29
20
26
64
30
45
6
18
52
11
2
7
21
71
46
25
9
15
19
43
49
55
75
68
51
54
67
65
10
22
16
74
63
66
23
57
17
24
12
37
70
53
48
8
5
13
62
73
34
41
14
3
40
35
47
4
27
72
76
42
58
61
44
28
31
33
38
69
32
36
56
39
60

>  <PUBCHEM_MMFF94_PARTIAL_CHARGES>  (1) 
23
1 1.51
11 -0.15
12 -0.3
13 0.28
14 -0.15
15 -0.15
16 -0.15
17 -0.15
2 -0.55
22 0.15
25 0.27
26 0.15
27 0.15
28 0.15
29 0.15
3 -0.77
30 0.5
31 0.5
4 -0.77
5 -0.7
6 0.03
7 0.18
8 -0.18

>  <PUBCHEM_EFFECTIVE_ROTOR_COUNT>  (1) 
5

>  <PUBCHEM_PHARMACOPHORE_FEATURES>  (1) 
8
1 3 acceptor
1 4 acceptor
1 5 acceptor
1 6 cation
1 6 donor
4 1 3 4 5 anion
5 6 8 9 11 12 rings
6 9 11 14 15 16 17 rings

>  <PUBCHEM_HEAVY_ATOM_COUNT>  (1) 
17

>  <PUBCHEM_ATOM_DEF_STEREO_COUNT>  (1) 
0

>  <PUBCHEM_ATOM_UDEF_STEREO_COUNT>  (1) 
0

>  <PUBCHEM_BOND_DEF_STEREO_COUNT>  (1) 
0

>  <PUBCHEM_BOND_UDEF_STEREO_COUNT>  (1) 
0

>  <PUBCHEM_ISOTOPIC_ATOM_COUNT>  (1) 
0

>  <PUBCHEM_COMPONENT_COUNT>  (1) 
1

>  <PUBCHEM_CACTVS_TAUTO_COUNT>  (1) 
1

>  <PUBCHEM_CONFORMER_ID>  (1) 
00000E8100000001

>  <PUBCHEM_MMFF94_ENERGY>  (1) 
-9.5529

>  <PUBCHEM_FEATURE_SELFOVERLAP>  (1) 
40.722

>  <PUBCHEM_SHAPE_FINGERPRINT>  (1) 
10693767 8 17845099476673778566
11287383 113 18335423490985922019
11471102 20 18412266134137422682
12616999 72 16773800285624344462
12730499 353 18335428984080470522
13836976 161 17917990568664294486
14528608 73 18341608239707717685
17834072 33 18343017817994026199
17844677 252 18340778052789298665
20612939 158 18411983537873599830
20645477 56 18040435499332389391
20645477 70 18343025458456392398
212847 35 18040714771191155408
221357 26 18340765953286703468
22289505 5 18410006607308677244
23402655 69 18343585157166543126
23559900 14 16878227446197330899
23590187 302 17918273164574370776
25 1 18410576223562784842
2916195 48 17894909663439043669
29717793 49 17418099784517416532
3060560 45 18272936020792612726
3545911 37 18336550498999413219
4047638 21 18259705614465463826
4072396 5 18410564094954852058
465052 167 9007064578042686072
474 4 18261113018897063728
5104073 3 18186522086039707899
522135 26 18343300349274222158
5281201 14 18340487755364271293
5312625 73 18340206401163726363
543358 83 18271250417420845330
633830 44 18339357466639493119
7164475 11 17773040761089605872
77779 3 18412546496654501555
8272917 22 18200881673148664630

>  <PUBCHEM_SHAPE_MULTIPOLES>  (1) 
325.24
12.94
1.94
0.91
18.15
0.06
0.07
4.56
2.63
-2.07
-0.11
0.66
0.07
0.36

>  <PUBCHEM_SHAPE_SELFOVERLAP>  (1) 
671.113

>  <PUBCHEM_SHAPE_VOLUME>  (1) 
188.7

>  <PUBCHEM_COORDINATE_TYPE>  (1) 
2
5
10

$$$$
