37131
     RDKit          3D

 24 25  0  0  0  0  0  0  0  0999 V2000
    0.1870    2.3867    0.7669 O   0  0  0  0  0  0  0  0  0  0  0  0
   -0.4959   -2.5516   -0.2876 O   0  0  0  0  0  0  0  0  0  0  0  0
   -1.2733    5.1313   -1.0213 O   0  0  0  0  0  0  0  0  0  0  0  0
   -2.2231    3.5894    0.3600 O   0  0  0  0  0  0  0  0  0  0  0  0
   -0.5824   -0.2574    0.2178 N   0  0  0  0  0  0  0  0  0  0  0  0
    4.1425   -1.5144   -0.2285 C   0  0  0  0  0  0  0  0  0  0  0  0
    3.0603   -0.4560    0.0419 C   0  0  0  0  0  0  0  0  0  0  0  0
    3.5795   -2.9244   -0.5176 C   0  0  0  0  0  0  0  0  0  0  0  0
    4.9813   -1.0982   -1.4562 C   0  0  0  0  0  0  0  0  0  0  0  0
    5.0682   -1.6365    1.0013 C   0  0  0  0  0  0  0  0  0  0  0  0
    1.7447   -0.8450    0.0049 C   0  0  0  0  0  0  0  0  0  0  0  0
    3.4596    0.8295    0.3082 C   0  0  0  0  0  0  0  0  0  0  0  0
    0.7634    0.1153    0.2506 C   0  0  0  0  0  0  0  0  0  0  0  0
    1.1301    1.4327    0.5254 C   0  0  0  0  0  0  0  0  0  0  0  0
    2.4781    1.7898    0.5542 C   0  0  0  0  0  0  0  0  0  0  0  0
   -1.1189   -1.5247   -0.0402 C   0  0  0  0  0  0  0  0  0  0  0  0
   -2.6034   -1.6003   -0.0327 C   0  0  0  0  0  0  0  0  0  0  0  0
    0.1583    3.5066   -0.1151 C   0  0  0  0  0  0  0  0  0  0  0  0
   -3.2069   -2.7988    0.2849 C   0  0  0  0  0  0  0  0  0  0  0  0
   -3.3284   -0.4694   -0.3441 C   0  0  0  0  0  0  0  0  0  0  0  0
   -1.2421    4.0461   -0.2075 C   0  0  0  0  0  0  0  0  0  0  0  0
   -4.6000   -2.8698    0.2915 C   0  0  0  0  0  0  0  0  0  0  0  0
   -4.7214   -0.5402   -0.3373 C   0  0  0  0  0  0  0  0  0  0  0  0
   -5.3572   -1.7405   -0.0195 C   0  0  0  0  0  0  0  0  0  0  0  0
  1 14  1  0
  1 18  1  0
  2 16  2  0
  3 21  1  0
  4 21  2  0
  5 13  1  0
  5 16  1  0
  6  7  1  0
  6  8  1  0
  6  9  1  0
  6 10  1  0
  7 11  2  0
  7 12  1  0
 11 13  1  0
 12 15  2  0
 13 14  2  0
 14 15  1  0
 16 17  1  0
 17 19  2  0
 17 20  1  0
 18 21  1  0
 19 22  1  0
 20 23  2  0
 22 24  2  0
 23 24  1  0
M  END
>  <PUBCHEM_COMPOUND_CID>  (1) 
37131

>  <PUBCHEM_CONFORMER_RMSD>  (1) 
0.8

>  <PUBCHEM_CONFORMER_DIVERSEORDER>  (1) 
1
25
38
36
15
23
17
24
29
27
7
35
8
21
5
34
37
12
31
28
33
18
9
22
13
3
11
30
14
4
16
26
19
10
6
32
20
2

>  <PUBCHEM_MMFF94_PARTIAL_CHARGES>  (1) 
31
1 -0.36
11 -0.15
12 -0.15
13 0.12
14 0.08
15 -0.15
16 0.54
17 0.09
18 0.34
19 -0.15
2 -0.57
20 -0.15
21 0.66
22 -0.15
23 -0.15
24 -0.15
3 -0.65
34 0.15
35 0.15
36 0.15
37 0.37
4 -0.57
40 0.15
41 0.15
42 0.15
43 0.15
44 0.15
45 0.5
5 -0.55
6 0.14
7 -0.14

>  <PUBCHEM_EFFECTIVE_ROTOR_COUNT>  (1) 
7

>  <PUBCHEM_PHARMACOPHORE_FEATURES>  (1) 
9
1 1 acceptor
1 2 acceptor
1 3 acceptor
1 4 acceptor
1 5 donor
3 3 4 21 anion
4 6 8 9 10 hydrophobe
6 17 19 20 22 23 24 rings
6 7 11 12 13 14 15 rings

>  <PUBCHEM_HEAVY_ATOM_COUNT>  (1) 
24

>  <PUBCHEM_ATOM_DEF_STEREO_COUNT>  (1) 
0

>  <PUBCHEM_ATOM_UDEF_STEREO_COUNT>  (1) 
0

>  <PUBCHEM_BOND_DEF_STEREO_COUNT>  (1) 
0

>  <PUBCHEM_BOND_UDEF_STEREO_COUNT>  (1) 
0

>  <PUBCHEM_ISOTOPIC_ATOM_COUNT>  (1) 
0

>  <PUBCHEM_COMPONENT_COUNT>  (1) 
1

>  <PUBCHEM_CACTVS_TAUTO_COUNT>  (1) 
2

>  <PUBCHEM_CONFORMER_ID>  (1) 
0000910B00000001

>  <PUBCHEM_MMFF94_ENERGY>  (1) 
87.0585

>  <PUBCHEM_FEATURE_SELFOVERLAP>  (1) 
45.733

>  <PUBCHEM_SHAPE_FINGERPRINT>  (1) 
10050765 1 18266177224538899034
10411042 1 18410574010932343699
10688039 33 18408886230528979261
1100329 8 17185027267961494083
116883 192 18411981343250910536
12403259 226 18342735213029395161
12553582 1 18343014523886570286
12788726 201 18334297522470535138
13052359 8 18049718521144305944
13540713 4 18058441025093312488
138480 1 15312377409344041489
13899415 180 18340472461086242903
14114211 80 16461103904056691173
14251757 5 18336552603396115023
14790565 3 17473544028464681376
14866123 147 17978509728481870123
15042514 8 18195244421445999240
15081414 286 18266461099473945841
15210252 30 17898014765996872148
15420108 30 17335600390886916280
15664445 248 18051148165771315452
15885798 251 18411698798674492530
17138139 8 17407069363946925669
18335252 114 18338784694691744487
18785283 64 17759804036807594387
19427546 20 18265346014900857724
19591789 44 17330840114843135874
20645477 70 18271528701406355102
21049683 271 18193003840145257740
21065198 57 18194683907098406403
21285901 2 18059305279086052006
21307412 95 17050222766679226606
21478907 32 18411136896476592730
21641784 216 18262539038724448676
22033318 11 17909309963692689571
221357 26 18410288147110804471
2255824 54 17690841585118531808
23419403 2 17345447359052687288
23558518 356 18261115124000816168
23559900 14 18193831772728228475
3004659 81 18259705601760598598
3103668 31 18190174599586133085
314173 41 18339648957221754518
3421961 26 18342173427328823602
4409770 3 18191863414690726829
5104073 3 18269838769224941355
58779409 8 17977671905201042356
59025328 239 17484480707231763879
6443956 14 18337110193293836102
7164475 11 18337395937884621102
79837 15 17694221071593272456
8863177 126 17972048190983353691
9709674 26 18048878790809211643

>  <PUBCHEM_SHAPE_MULTIPOLES>  (1) 
465.45
10.38
5.51
0.86
2.34
8.52
0.1
-10.76
0.61
2.77
0.78
-0.68
0.01
0.84

>  <PUBCHEM_SHAPE_SELFOVERLAP>  (1) 
988.928

>  <PUBCHEM_SHAPE_VOLUME>  (1) 
259.3

>  <PUBCHEM_COORDINATE_TYPE>  (1) 
2
5
10

$$$$
