37137
     RDKit          3D

 22 22  0  0  0  0  0  0  0  0999 V2000
    5.1110    1.9216    0.6591 Cl  0  0  0  0  0  0  0  0  0  0  0  0
   -4.9599    0.7068   -0.1215 F   0  0  0  0  0  0  0  0  0  0  0  0
   -3.8276    1.3299   -1.8715 F   0  0  0  0  0  0  0  0  0  0  0  0
   -3.4959    2.3153    0.0403 F   0  0  0  0  0  0  0  0  0  0  0  0
   -4.5164   -1.0754    0.7654 F   0  0  0  0  0  0  0  0  0  0  0  0
   -2.9215   -2.2608   -0.1050 F   0  0  0  0  0  0  0  0  0  0  0  0
   -2.5885   -1.2331    1.7832 F   0  0  0  0  0  0  0  0  0  0  0  0
   -0.3742   -1.7977   -0.1131 O   0  0  0  0  0  0  0  0  0  0  0  0
    4.4634   -2.0542   -0.8876 O   0  0  0  0  0  0  0  0  0  0  0  0
    5.7544   -0.3889   -0.2717 O   0  0  0  0  0  0  0  0  0  0  0  0
    4.6203   -0.8958   -0.4362 N   0  0  0  0  0  0  0  0  0  0  0  0
    1.0886    0.0306    0.0377 C   0  0  0  0  0  0  0  0  0  0  0  0
   -2.6716    0.1057   -0.1666 C   0  0  0  0  0  0  0  0  0  0  0  0
   -0.2496   -0.5799   -0.1610 C   0  0  0  0  0  0  0  0  0  0  0  0
   -1.3822    0.3383   -0.4750 C   0  0  0  0  0  0  0  0  0  0  0  0
    2.2121   -0.7025   -0.2866 C   0  0  0  0  0  0  0  0  0  0  0  0
    1.1686    1.3130    0.5414 C   0  0  0  0  0  0  0  0  0  0  0  0
    3.4696   -0.1286   -0.0990 C   0  0  0  0  0  0  0  0  0  0  0  0
   -3.7296    1.1073   -0.5350 C   0  0  0  0  0  0  0  0  0  0  0  0
   -3.1735   -1.1048    0.5650 C   0  0  0  0  0  0  0  0  0  0  0  0
    2.4261    1.8869    0.7289 C   0  0  0  0  0  0  0  0  0  0  0  0
    3.5766    1.1662    0.4087 C   0  0  0  0  0  0  0  0  0  0  0  0
  1 22  1  0
  2 19  1  0
  3 19  1  0
  4 19  1  0
  5 20  1  0
  6 20  1  0
  7 20  1  0
  8 14  2  0
  9 11  1  0
 10 11  2  0
 11 18  1  0
 12 14  1  0
 12 16  2  0
 12 17  1  0
 13 15  2  3
 13 19  1  0
 13 20  1  0
 14 15  1  0
 16 18  1  0
 17 21  2  0
 18 22  2  0
 21 22  1  0
M  CHG  2   9  -1  11   1
M  END
>  <PUBCHEM_COMPOUND_CID>  (1) 
37137

>  <PUBCHEM_CONFORMER_RMSD>  (1) 
0.8

>  <PUBCHEM_CONFORMER_DIVERSEORDER>  (1) 
2
11
13
6
22
15
18
19
7
9
4
10
12
17
8
21
16
20
5
14
1
3

>  <PUBCHEM_MMFF94_PARTIAL_CHARGES>  (1) 
26
1 -0.18
10 -0.52
11 0.91
12 0.09
13 -0.28
14 0.47
15 -0.14
16 -0.15
17 -0.15
18 0.13
19 1.16
2 -0.34
20 1.16
21 -0.15
22 0.18
23 0.15
24 0.15
25 0.15
26 0.15
3 -0.34
4 -0.34
5 -0.34
6 -0.34
7 -0.34
8 -0.57
9 -0.52

>  <PUBCHEM_EFFECTIVE_ROTOR_COUNT>  (1) 
5

>  <PUBCHEM_PHARMACOPHORE_FEATURES>  (1) 
5
1 10 acceptor
1 8 acceptor
1 9 acceptor
1 9 anion
6 12 16 17 18 21 22 rings

>  <PUBCHEM_HEAVY_ATOM_COUNT>  (1) 
22

>  <PUBCHEM_ATOM_DEF_STEREO_COUNT>  (1) 
0

>  <PUBCHEM_ATOM_UDEF_STEREO_COUNT>  (1) 
0

>  <PUBCHEM_BOND_DEF_STEREO_COUNT>  (1) 
0

>  <PUBCHEM_BOND_UDEF_STEREO_COUNT>  (1) 
0

>  <PUBCHEM_ISOTOPIC_ATOM_COUNT>  (1) 
0

>  <PUBCHEM_COMPONENT_COUNT>  (1) 
1

>  <PUBCHEM_CACTVS_TAUTO_COUNT>  (1) 
1

>  <PUBCHEM_CONFORMER_ID>  (1) 
0000911100000002

>  <PUBCHEM_MMFF94_ENERGY>  (1) 
61.7642

>  <PUBCHEM_FEATURE_SELFOVERLAP>  (1) 
25.453

>  <PUBCHEM_SHAPE_FINGERPRINT>  (1) 
10608611 8 18339920514733486593
11370993 144 18341906177214920305
11405975 8 18408039594033542488
11471102 20 18273492377913056004
11552529 35 17487338393998586791
12236239 1 16486976197755670929
12403259 415 18409450297189858124
12507557 5 18201719574060072440
12507560 40 18411138069081870084
12916754 54 18129097986776941231
13134695 92 17561074817917327984
13583140 156 17774152551859802780
13675066 3 18409167748845694448
13760787 5 17561366197019576784
14341114 176 18411143553813343873
14573314 32 18408604760179616892
14866123 147 17263858983777544314
15196674 1 18413107286070489896
15219456 202 18412262865092310404
15242439 84 18408602535154448924
15788980 27 18411698798806120830
17349148 13 16200433572105615334
17844677 252 18411707599226155012
18186145 218 18334288751872749748
19433438 28 18333733537023378035
200 152 17418088797864472497
20645477 56 18337949098995885321
20645477 70 18130787841696346166
21033648 29 18341038696610732304
21065198 57 18411982485432558496
21065199 12 18339643450872597522
21065201 7 17967810565504493506
21279426 13 18195811756539963406
221357 26 18272081669845133565
221490 88 18339646736770622176
23402539 116 13973965385174312362
23557571 272 18040437680943570308
23559900 14 18408885123134448084
268830 7 16415203424685072088
3004659 81 18189059712233847814
3545911 37 18334012770370135901
4214541 1 18410293618286871841
5104073 3 18410854369612690392
5281201 14 18335987544782868204
59755656 215 18333731312832335363
59755656 520 18263078834930870901
602551 16 17386007320888479594
633830 44 18040992973096844414
77779 3 18411138060676486836
90127 26 18261397775566223568
9709674 26 18265052603466615954
9995097 60 18342455967710371168

>  <PUBCHEM_SHAPE_MULTIPOLES>  (1) 
388.39
11.66
2.15
0.98
3.11
0.04
0.01
0.98
-0.54
0.38
0.02
-0.74
0.03
1.9

>  <PUBCHEM_SHAPE_SELFOVERLAP>  (1) 
827.294

>  <PUBCHEM_SHAPE_VOLUME>  (1) 
218.7

>  <PUBCHEM_COORDINATE_TYPE>  (1) 
2
5
10

$$$$
