37140
     RDKit          3D

 19 19  0  0  0  0  0  0  0  0999 V2000
   -4.0768    1.0022    0.1764 F   0  0  0  0  0  0  0  0  0  0  0  0
   -2.9662    1.8046   -1.5134 F   0  0  0  0  0  0  0  0  0  0  0  0
   -2.4313    2.3941    0.5119 F   0  0  0  0  0  0  0  0  0  0  0  0
   -3.7988   -0.9458    0.7126 F   0  0  0  0  0  0  0  0  0  0  0  0
   -2.3947   -2.1178   -0.4542 F   0  0  0  0  0  0  0  0  0  0  0  0
   -1.8549   -1.4829    1.5553 F   0  0  0  0  0  0  0  0  0  0  0  0
    5.7419    0.8420    0.3881 F   0  0  0  0  0  0  0  0  0  0  0  0
    0.1855   -1.9300   -0.5554 O   0  0  0  0  0  0  0  0  0  0  0  0
   -1.8776    0.1824   -0.1261 C   0  0  0  0  0  0  0  0  0  0  0  0
    1.8544   -0.3212   -0.1929 C   0  0  0  0  0  0  0  0  0  0  0  0
   -0.5864    0.3298   -0.4768 C   0  0  0  0  0  0  0  0  0  0  0  0
    0.4469   -0.7431   -0.4022 C   0  0  0  0  0  0  0  0  0  0  0  0
   -2.8299    1.3390   -0.2448 C   0  0  0  0  0  0  0  0  0  0  0  0
   -2.4793   -1.0794    0.4196 C   0  0  0  0  0  0  0  0  0  0  0  0
    2.1059    0.8356    0.5165 C   0  0  0  0  0  0  0  0  0  0  0  0
    2.8690   -1.0992   -0.7129 C   0  0  0  0  0  0  0  0  0  0  0  0
    3.4288    1.2314    0.7143 C   0  0  0  0  0  0  0  0  0  0  0  0
    4.1918   -0.7035   -0.5149 C   0  0  0  0  0  0  0  0  0  0  0  0
    4.4717    0.4618    0.1987 C   0  0  0  0  0  0  0  0  0  0  0  0
  1 13  1  0
  2 13  1  0
  3 13  1  0
  4 14  1  0
  5 14  1  0
  6 14  1  0
  7 19  1  0
  8 12  2  0
  9 11  2  3
  9 13  1  0
  9 14  1  0
 10 12  1  0
 10 15  2  0
 10 16  1  0
 11 12  1  0
 15 17  1  0
 16 18  2  0
 17 19  2  0
 18 19  1  0
M  END
>  <PUBCHEM_COMPOUND_CID>  (1) 
37140

>  <PUBCHEM_CONFORMER_RMSD>  (1) 
0.6

>  <PUBCHEM_CONFORMER_DIVERSEORDER>  (1) 
1
4
3
2

>  <PUBCHEM_MMFF94_PARTIAL_CHARGES>  (1) 
24
1 -0.34
10 0.09
11 -0.14
12 0.47
13 1.16
14 1.16
15 -0.15
16 -0.15
17 -0.15
18 -0.15
19 0.19
2 -0.34
20 0.15
21 0.15
22 0.15
23 0.15
24 0.15
3 -0.34
4 -0.34
5 -0.34
6 -0.34
7 -0.19
8 -0.57
9 -0.28

>  <PUBCHEM_EFFECTIVE_ROTOR_COUNT>  (1) 
4

>  <PUBCHEM_PHARMACOPHORE_FEATURES>  (1) 
2
1 8 acceptor
6 10 15 16 17 18 19 rings

>  <PUBCHEM_HEAVY_ATOM_COUNT>  (1) 
19

>  <PUBCHEM_ATOM_DEF_STEREO_COUNT>  (1) 
0

>  <PUBCHEM_ATOM_UDEF_STEREO_COUNT>  (1) 
0

>  <PUBCHEM_BOND_DEF_STEREO_COUNT>  (1) 
0

>  <PUBCHEM_BOND_UDEF_STEREO_COUNT>  (1) 
0

>  <PUBCHEM_ISOTOPIC_ATOM_COUNT>  (1) 
0

>  <PUBCHEM_COMPONENT_COUNT>  (1) 
1

>  <PUBCHEM_CACTVS_TAUTO_COUNT>  (1) 
1

>  <PUBCHEM_CONFORMER_ID>  (1) 
0000911400000001

>  <PUBCHEM_MMFF94_ENERGY>  (1) 
39.8123

>  <PUBCHEM_FEATURE_SELFOVERLAP>  (1) 
10.148

>  <PUBCHEM_SHAPE_FINGERPRINT>  (1) 
10014705 185 18259980457522351645
10366900 7 18264204875875438626
10608611 8 18342737429517382216
10646746 165 18409732833434772222
10680689 15 18341055198254605502
11132069 177 18259988153971740780
11405975 8 18337391535559265770
11471102 20 17988641874866958996
11543360 7 12751232645194665018
11615757 297 17131835391043477466
12236239 1 15863790607892388906
12251169 10 17967535670349238277
12403259 415 18190746336535836789
12500047 106 18260824860903540510
12507557 5 18131630114837339352
12507560 40 18412266125399938014
13214271 11 18411978078906889436
13296909 8 18260546736164805877
13675066 3 18343580768221526592
14289901 80 18336548317367101394
15196674 1 18342176657344423654
15219456 202 18342742901184476134
15375358 24 18343863290837993670
15653759 3 18409451401249524456
18186145 218 17704081694087785126
200 152 17132110251686136775
20279233 1 18343305859775265870
20510252 161 18412830191891791251
20645477 56 18410294696503095701
20645477 70 17846218796421152254
22182937 141 18200041616480062129
22854114 59 18272656774487027978
2306618 200 18060143171323200451
23402539 116 18261389005512432983
23402655 69 17775564226369798244
23557571 272 18342744056287916743
23559900 14 18271246020181793542
27216 239 18411420622253543233
3545911 37 18413108351238268564
4028521 119 18336539413704939021
4214541 1 18410292506249103272
5104073 3 18337395937352131626
633830 44 16558206946497055486
69090 78 18412542090097151239
90316 7 17168140100808876900
9709674 26 18412832382204299486

>  <PUBCHEM_SHAPE_MULTIPOLES>  (1) 
334.23
9.16
1.95
0.95
6.14
0.07
0.02
2.38
0.72
-1.45
-0.04
-0.38
-0.01
1.13

>  <PUBCHEM_SHAPE_SELFOVERLAP>  (1) 
717.647

>  <PUBCHEM_SHAPE_VOLUME>  (1) 
185.6

>  <PUBCHEM_COORDINATE_TYPE>  (1) 
2
5
10

$$$$
