37141
     RDKit          3D

 21 21  0  0  0  0  0  0  0  0999 V2000
   -4.6490    0.9702    0.1421 F   0  0  0  0  0  0  0  0  0  0  0  0
   -3.5914    1.6118   -1.6475 F   0  0  0  0  0  0  0  0  0  0  0  0
   -3.0287    2.4226    0.2921 F   0  0  0  0  0  0  0  0  0  0  0  0
   -4.3164   -0.9042    0.8740 F   0  0  0  0  0  0  0  0  0  0  0  0
   -2.9104   -2.1644   -0.1944 F   0  0  0  0  0  0  0  0  0  0  0  0
   -2.3442   -1.3099    1.7243 F   0  0  0  0  0  0  0  0  0  0  0  0
    4.6439   -1.4050   -0.9887 F   0  0  0  0  0  0  0  0  0  0  0  0
    5.1935    1.0373    0.1527 O   0  0  0  0  0  0  0  0  0  0  0  0
   -0.3376   -1.9362   -0.3731 O   0  0  0  0  0  0  0  0  0  0  0  0
    1.3017   -0.2648   -0.2197 C   0  0  0  0  0  0  0  0  0  0  0  0
   -2.4386    0.1676   -0.1219 C   0  0  0  0  0  0  0  0  0  0  0  0
   -0.1000   -0.7347   -0.3516 C   0  0  0  0  0  0  0  0  0  0  0  0
   -1.1585    0.3032   -0.5152 C   0  0  0  0  0  0  0  0  0  0  0  0
    2.3225   -1.0736   -0.6763 C   0  0  0  0  0  0  0  0  0  0  0  0
    1.5419    0.9654    0.3582 C   0  0  0  0  0  0  0  0  0  0  0  0
    3.9084    0.6063    0.0306 C   0  0  0  0  0  0  0  0  0  0  0  0
   -3.4189    1.2856   -0.3401 C   0  0  0  0  0  0  0  0  0  0  0  0
   -3.0006   -1.0414    0.5669 C   0  0  0  0  0  0  0  0  0  0  0  0
    3.6400   -0.6333   -0.5499 C   0  0  0  0  0  0  0  0  0  0  0  0
    2.8592    1.4057    0.4847 C   0  0  0  0  0  0  0  0  0  0  0  0
    5.8831    0.6918    1.3530 C   0  0  0  0  0  0  0  0  0  0  0  0
  1 17  1  0
  2 17  1  0
  3 17  1  0
  4 18  1  0
  5 18  1  0
  6 18  1  0
  7 19  1  0
  8 16  1  0
  8 21  1  0
  9 12  2  0
 10 12  1  0
 10 14  2  0
 10 15  1  0
 11 13  2  3
 11 17  1  0
 11 18  1  0
 12 13  1  0
 14 19  1  0
 15 20  2  0
 16 19  2  0
 16 20  1  0
M  END
>  <PUBCHEM_COMPOUND_CID>  (1) 
37141

>  <PUBCHEM_CONFORMER_RMSD>  (1) 
0.8

>  <PUBCHEM_CONFORMER_DIVERSEORDER>  (1) 
1
12
6
9
5
14
3
13
8
10
4
11
2
7

>  <PUBCHEM_MMFF94_PARTIAL_CHARGES>  (1) 
25
1 -0.34
10 0.09
11 -0.28
12 0.47
13 -0.14
14 -0.15
15 -0.15
16 0.08
17 1.16
18 1.16
19 0.19
2 -0.34
20 -0.15
21 0.28
22 0.15
23 0.15
24 0.15
25 0.15
3 -0.34
4 -0.34
5 -0.34
6 -0.34
7 -0.19
8 -0.36
9 -0.57

>  <PUBCHEM_EFFECTIVE_ROTOR_COUNT>  (1) 
5

>  <PUBCHEM_PHARMACOPHORE_FEATURES>  (1) 
3
1 8 acceptor
1 9 acceptor
6 10 14 15 16 19 20 rings

>  <PUBCHEM_HEAVY_ATOM_COUNT>  (1) 
21

>  <PUBCHEM_ATOM_DEF_STEREO_COUNT>  (1) 
0

>  <PUBCHEM_ATOM_UDEF_STEREO_COUNT>  (1) 
0

>  <PUBCHEM_BOND_DEF_STEREO_COUNT>  (1) 
0

>  <PUBCHEM_BOND_UDEF_STEREO_COUNT>  (1) 
0

>  <PUBCHEM_ISOTOPIC_ATOM_COUNT>  (1) 
0

>  <PUBCHEM_COMPONENT_COUNT>  (1) 
1

>  <PUBCHEM_CACTVS_TAUTO_COUNT>  (1) 
1

>  <PUBCHEM_CONFORMER_ID>  (1) 
0000911500000001

>  <PUBCHEM_MMFF94_ENERGY>  (1) 
55.9398

>  <PUBCHEM_FEATURE_SELFOVERLAP>  (1) 
15.223

>  <PUBCHEM_SHAPE_FINGERPRINT>  (1) 
10608611 8 18413388760799300220
10646746 165 18335988588322498150
11132069 177 18113902636869457637
11405975 8 18336548218551250634
11471102 20 18131068212956002420
11543360 7 13110960959544133842
12236239 1 15430036569185224709
12403259 415 18342747307968504462
12507557 5 18202281446024363688
12507560 40 18413111658262762366
12596602 18 16370730386728187489
13583140 156 17677593380642353902
13675066 3 18341894112904934582
13760787 5 16773801376957396486
14341114 176 18411709776368184408
15196674 1 18342177760966395990
15219456 202 18341897389632834614
15375358 24 18272086093829655828
15653759 3 18335143106624676360
15788980 27 18410011040083912310
18186145 218 17775012288517150390
19489759 90 18114175354328515843
200 152 17203324516195151055
20645477 56 18412543236257248700
20645477 70 17917150499031350374
21033648 29 18272923929953330808
21065201 7 18113338604747833858
22854114 59 18271813453168325250
23402539 116 18338225055282336692
23402655 69 17846777395282447980
23559900 14 18341334397405168518
3545911 37 18343303673679116580
4214541 1 18410013238563855412
5104073 3 18412265008719069178
633830 44 18059577919135342220
90127 26 18336557074879167010

>  <PUBCHEM_SHAPE_MULTIPOLES>  (1) 
369.52
11.17
1.92
1.06
6.4
0.01
0.14
2.65
1.72
-1.19
-0.09
-0.14
-0.04
1.57

>  <PUBCHEM_SHAPE_SELFOVERLAP>  (1) 
789.806

>  <PUBCHEM_SHAPE_VOLUME>  (1) 
207

>  <PUBCHEM_COORDINATE_TYPE>  (1) 
2
5
10

$$$$
