37142
     RDKit          3D

 20 20  0  0  0  0  0  0  0  0999 V2000
   -4.3793    1.1364    0.2023 F   0  0  0  0  0  0  0  0  0  0  0  0
   -3.2660    1.8519   -1.5244 F   0  0  0  0  0  0  0  0  0  0  0  0
   -2.6694    2.4623    0.4774 F   0  0  0  0  0  0  0  0  0  0  0  0
   -4.1760   -0.8095    0.7782 F   0  0  0  0  0  0  0  0  0  0  0  0
   -2.8453   -2.0672   -0.3854 F   0  0  0  0  0  0  0  0  0  0  0  0
   -2.2421   -1.4121    1.5994 F   0  0  0  0  0  0  0  0  0  0  0  0
   -0.2617   -1.9945   -0.5352 O   0  0  0  0  0  0  0  0  0  0  0  0
    6.6298    0.8607    0.3942 N   0  0  0  0  0  0  0  0  0  0  0  0
   -2.2234    0.2149   -0.1191 C   0  0  0  0  0  0  0  0  0  0  0  0
    1.4815   -0.4524   -0.2386 C   0  0  0  0  0  0  0  0  0  0  0  0
   -0.9337    0.2980   -0.4952 C   0  0  0  0  0  0  0  0  0  0  0  0
    0.0535   -0.8169   -0.4138 C   0  0  0  0  0  0  0  0  0  0  0  0
   -3.1269    1.4090   -0.2479 C   0  0  0  0  0  0  0  0  0  0  0  0
   -2.8691   -1.0071    0.4657 C   0  0  0  0  0  0  0  0  0  0  0  0
    1.7961    0.7077    0.4396 C   0  0  0  0  0  0  0  0  0  0  0  0
    2.4514   -1.2854   -0.7580 C   0  0  0  0  0  0  0  0  0  0  0  0
    3.1383    1.0495    0.6055 C   0  0  0  0  0  0  0  0  0  0  0  0
    3.7936   -0.9439   -0.5921 C   0  0  0  0  0  0  0  0  0  0  0  0
    4.1370    0.2237    0.0897 C   0  0  0  0  0  0  0  0  0  0  0  0
    5.5117    0.5750    0.2577 C   0  0  0  0  0  0  0  0  0  0  0  0
  1 13  1  0
  2 13  1  0
  3 13  1  0
  4 14  1  0
  5 14  1  0
  6 14  1  0
  7 12  2  0
  8 20  3  0
  9 11  2  3
  9 13  1  0
  9 14  1  0
 10 12  1  0
 10 15  2  0
 10 16  1  0
 11 12  1  0
 15 17  1  0
 16 18  2  0
 17 19  2  0
 18 19  1  0
 19 20  1  0
M  END
>  <PUBCHEM_COMPOUND_CID>  (1) 
37142

>  <PUBCHEM_CONFORMER_RMSD>  (1) 
0.6

>  <PUBCHEM_CONFORMER_DIVERSEORDER>  (1) 
1
4
3
2

>  <PUBCHEM_MMFF94_PARTIAL_CHARGES>  (1) 
25
1 -0.34
10 0.09
11 -0.14
12 0.47
13 1.16
14 1.16
15 -0.15
16 -0.15
17 -0.15
18 -0.15
19 0.07
2 -0.34
20 0.48
21 0.15
22 0.15
23 0.15
24 0.15
25 0.15
3 -0.34
4 -0.34
5 -0.34
6 -0.34
7 -0.57
8 -0.56
9 -0.28

>  <PUBCHEM_EFFECTIVE_ROTOR_COUNT>  (1) 
4

>  <PUBCHEM_PHARMACOPHORE_FEATURES>  (1) 
3
1 7 acceptor
1 8 acceptor
6 10 15 16 17 18 19 rings

>  <PUBCHEM_HEAVY_ATOM_COUNT>  (1) 
20

>  <PUBCHEM_ATOM_DEF_STEREO_COUNT>  (1) 
0

>  <PUBCHEM_ATOM_UDEF_STEREO_COUNT>  (1) 
0

>  <PUBCHEM_BOND_DEF_STEREO_COUNT>  (1) 
0

>  <PUBCHEM_BOND_UDEF_STEREO_COUNT>  (1) 
0

>  <PUBCHEM_ISOTOPIC_ATOM_COUNT>  (1) 
0

>  <PUBCHEM_COMPONENT_COUNT>  (1) 
1

>  <PUBCHEM_CACTVS_TAUTO_COUNT>  (1) 
1

>  <PUBCHEM_CONFORMER_ID>  (1) 
0000911600000001

>  <PUBCHEM_MMFF94_ENERGY>  (1) 
41.0434

>  <PUBCHEM_FEATURE_SELFOVERLAP>  (1) 
15.223

>  <PUBCHEM_SHAPE_FINGERPRINT>  (1) 
10366900 7 18335978782822828650
10608611 8 18342455945755493220
11132069 177 18114186297979162765
11315181 36 17313384573705475072
11405975 8 18336829667821662402
11543360 7 12895064150585745946
12236239 1 15791731923133312298
12403259 415 18191310381763901885
12507557 5 18342175591971352144
12507560 40 18411704261999513046
12596602 18 16443353125468846008
13214271 11 18411133649592099924
13288520 33 8574714611230656944
13675066 3 18412826906684888654
14178342 30 17458635513832065227
14341114 176 18410581664874846808
15196674 1 18342176644475475998
15219456 202 18342461413101382502
15375358 24 18343864386054706126
15653759 3 18409171012656862106
18186145 218 17703518735370433886
19489759 90 18186798097548881434
200 152 17060615599011675983
20281389 69 18342453794968914880
20510252 161 18412831274397636139
20645477 56 18412825789291771701
20645477 70 17845937312770149950
21033648 29 18130496496721447640
21709351 56 18342451586880854292
2306618 200 18059581316744688683
23402539 116 18409441514530143308
23402655 69 17775563113894082396
23557571 272 18341618143480269959
23559900 14 18271246011549764910
2916195 48 18200867491999940720
3545911 37 18342176657001681676
4214541 1 18410292519118239368
5104073 3 18335989649058419906
633830 44 17702390550282254414

>  <PUBCHEM_SHAPE_MULTIPOLES>  (1) 
357.1
11.08
1.92
0.94
10.33
0.09
0.02
3.56
1.3
-1.72
-0.13
-0.52
-0.03
1.14

>  <PUBCHEM_SHAPE_SELFOVERLAP>  (1) 
766.359

>  <PUBCHEM_SHAPE_VOLUME>  (1) 
197.6

>  <PUBCHEM_COORDINATE_TYPE>  (1) 
2
5
10

$$$$
