37150
     RDKit          3D

 11 11  0  0  0  0  0  0  0  0999 V2000
    0.8588    0.3017    0.1788 S   0  0  0  0  0  0  0  0  0  0  0  0
   -4.2065   -0.1442    0.6338 S   0  0  0  0  0  0  0  0  0  0  0  0
    4.6199   -0.1852   -0.6633 O   0  0  0  0  0  0  0  0  0  0  0  0
    3.6094    0.8981    1.0602 O   0  0  0  0  0  0  0  0  0  0  0  0
   -0.4053   -0.8780   -0.3938 C   0  0  0  0  0  0  0  0  0  0  0  0
   -1.7781   -0.3651   -0.1753 C   0  0  0  0  0  0  0  0  0  0  0  0
   -2.2725    0.8481   -0.7353 C   0  0  0  0  0  0  0  0  0  0  0  0
   -2.7268   -1.0051    0.5915 C   0  0  0  0  0  0  0  0  0  0  0  0
    2.3240   -0.6640   -0.2504 C   0  0  0  0  0  0  0  0  0  0  0  0
   -3.5801    1.0891   -0.3753 C   0  0  0  0  0  0  0  0  0  0  0  0
    3.5571    0.1046    0.1291 C   0  0  0  0  0  0  0  0  0  0  0  0
  1  5  1  0
  1  9  1  0
  2  8  1  0
  2 10  1  0
  3 11  1  0
  4 11  2  0
  5  6  1  0
  6  7  1  0
  6  8  2  0
  7 10  2  0
  9 11  1  0
M  END
>  <PUBCHEM_COMPOUND_CID>  (1) 
37150

>  <PUBCHEM_CONFORMER_RMSD>  (1) 
0.6

>  <PUBCHEM_CONFORMER_DIVERSEORDER>  (1) 
1
41
13
22
39
16
26
42
18
30
5
14
25
10
40
17
29
3
8
15
37
2
27
11
7
12
35
23
6
38
20
9
28
36
24
21
32
31
4
19
34
33

>  <PUBCHEM_MMFF94_PARTIAL_CHARGES>  (1) 
15
1 -0.46
10 -0.11
11 0.66
14 0.15
15 0.15
18 0.15
19 0.5
2 -0.08
3 -0.65
4 -0.57
5 0.41
6 -0.18
7 -0.15
8 -0.11
9 0.29

>  <PUBCHEM_EFFECTIVE_ROTOR_COUNT>  (1) 
4

>  <PUBCHEM_PHARMACOPHORE_FEATURES>  (1) 
4
1 3 acceptor
1 4 acceptor
3 3 4 11 anion
5 2 6 7 8 10 rings

>  <PUBCHEM_HEAVY_ATOM_COUNT>  (1) 
11

>  <PUBCHEM_ATOM_DEF_STEREO_COUNT>  (1) 
0

>  <PUBCHEM_ATOM_UDEF_STEREO_COUNT>  (1) 
0

>  <PUBCHEM_BOND_DEF_STEREO_COUNT>  (1) 
0

>  <PUBCHEM_BOND_UDEF_STEREO_COUNT>  (1) 
0

>  <PUBCHEM_ISOTOPIC_ATOM_COUNT>  (1) 
0

>  <PUBCHEM_COMPONENT_COUNT>  (1) 
1

>  <PUBCHEM_CACTVS_TAUTO_COUNT>  (1) 
1

>  <PUBCHEM_CONFORMER_ID>  (1) 
0000911E00000001

>  <PUBCHEM_MMFF94_ENERGY>  (1) 
12.6986

>  <PUBCHEM_FEATURE_SELFOVERLAP>  (1) 
20.355

>  <PUBCHEM_SHAPE_FINGERPRINT>  (1) 
10680689 15 18412265051473523639
11062470 55 15913329091301989154
12932764 1 18342447154005105966
13897977 58 17749116598986084005
14123238 8 18040156227251674591
177051 138 7853575729487851960
18186145 218 17846497041260442450
190213 19 17240199923892346855
20279233 1 18341898480348942399
20645464 45 18413112753822327167
20645477 70 17775008921258042150
20828058 21 18113620083950809990
21119208 17 13758355565962129115
22485316 2 12901545753976765185
23402539 116 18260261976234712159
42 15 17676483913312131842
449060 50 18408606967602831470

>  <PUBCHEM_SHAPE_MULTIPOLES>  (1) 
222.34
9.17
1.08
0.88
5.88
0.04
0.09
0.95
0.93
-0.71
-0.02
0.18
0.06
0.65

>  <PUBCHEM_SHAPE_SELFOVERLAP>  (1) 
421.548

>  <PUBCHEM_SHAPE_VOLUME>  (1) 
138.7

>  <PUBCHEM_COORDINATE_TYPE>  (1) 
2
5
10

$$$$
