37160
     RDKit          3D

 14 14  0  0  0  0  0  0  0  0999 V2000
    4.8080    0.9856    0.1405 F   0  0  0  0  0  0  0  0  0  0  0  0
   -0.6463   -2.1501   -0.3490 O   0  0  0  0  0  0  0  0  0  0  0  0
   -5.1038   -0.0880    0.0300 O   0  0  0  0  0  0  0  0  0  0  0  0
   -3.8057    1.7643    0.3280 O   0  0  0  0  0  0  0  0  0  0  0  0
    0.9398   -0.4411   -0.0864 C   0  0  0  0  0  0  0  0  0  0  0  0
    1.2245    0.8681   -0.4750 C   0  0  0  0  0  0  0  0  0  0  0  0
    1.9621   -1.2684    0.3786 C   0  0  0  0  0  0  0  0  0  0  0  0
   -0.4226   -0.9434   -0.1681 C   0  0  0  0  0  0  0  0  0  0  0  0
    2.5313    1.3497   -0.3990 C   0  0  0  0  0  0  0  0  0  0  0  0
    3.2689   -0.7867    0.4548 C   0  0  0  0  0  0  0  0  0  0  0  0
    3.5536    0.5223    0.0659 C   0  0  0  0  0  0  0  0  0  0  0  0
   -1.5593    0.0241    0.0025 C   0  0  0  0  0  0  0  0  0  0  0  0
   -2.8266   -0.4038   -0.0503 C   0  0  0  0  0  0  0  0  0  0  0  0
   -3.9237    0.5673    0.1275 C   0  0  0  0  0  0  0  0  0  0  0  0
  1 11  1  0
  2  8  2  0
  3 14  1  0
  4 14  2  0
  5  6  2  0
  5  7  1  0
  5  8  1  0
  6  9  1  0
  7 10  2  0
  8 12  1  0
  9 11  2  0
 10 11  1  0
 12 13  2  0
 13 14  1  0
M  END
>  <PUBCHEM_COMPOUND_CID>  (1) 
37160

>  <PUBCHEM_CONFORMER_RMSD>  (1) 
0.6

>  <PUBCHEM_CONFORMER_DIVERSEORDER>  (1) 
1
4
6
7
2
5
3

>  <PUBCHEM_MMFF94_PARTIAL_CHARGES>  (1) 
21
1 -0.19
10 -0.15
11 0.19
12 -0.14
13 -0.14
14 0.71
15 0.15
16 0.15
17 0.15
18 0.15
19 0.15
2 -0.57
20 0.15
21 0.5
3 -0.65
4 -0.57
5 0.09
6 -0.15
7 -0.15
8 0.47
9 -0.15

>  <PUBCHEM_EFFECTIVE_ROTOR_COUNT>  (1) 
3

>  <PUBCHEM_PHARMACOPHORE_FEATURES>  (1) 
5
1 2 acceptor
1 3 acceptor
1 4 acceptor
3 3 4 14 anion
6 5 6 7 9 10 11 rings

>  <PUBCHEM_HEAVY_ATOM_COUNT>  (1) 
14

>  <PUBCHEM_ATOM_DEF_STEREO_COUNT>  (1) 
0

>  <PUBCHEM_ATOM_UDEF_STEREO_COUNT>  (1) 
0

>  <PUBCHEM_BOND_DEF_STEREO_COUNT>  (1) 
0

>  <PUBCHEM_BOND_UDEF_STEREO_COUNT>  (1) 
1

>  <PUBCHEM_ISOTOPIC_ATOM_COUNT>  (1) 
0

>  <PUBCHEM_COMPONENT_COUNT>  (1) 
1

>  <PUBCHEM_CACTVS_TAUTO_COUNT>  (1) 
1

>  <PUBCHEM_CONFORMER_ID>  (1) 
0000912800000001

>  <PUBCHEM_MMFF94_ENERGY>  (1) 
35.2508

>  <PUBCHEM_FEATURE_SELFOVERLAP>  (1) 
25.427

>  <PUBCHEM_SHAPE_FINGERPRINT>  (1) 
10354089 29 18260834799405213369
10465860 228 18198913500253504107
10980938 120 18260264131717320882
11471102 20 18334853909597460958
12251169 10 18186522124499162391
12346645 6 18411700963596550494
12500047 106 18059287772983910710
13380535 76 18411420626343243407
13922767 16 18410853243935723041
14252887 29 12468637197009731128
14325111 11 18410575084974419239
14897335 6 18412262860850370038
15196674 1 18338234869203746441
15775835 57 18411138051801670165
17802600 8 18409725162660585517
18186145 218 18411140190864240847
20233049 118 18202562882457184000
20279233 1 16081088173585483003
20645477 70 18341332189143417734
212847 35 18272367551225765832
21524375 3 18411419522852893095
22485316 2 8646763387711282195
23402539 116 18060131063615227013
23402655 69 18271803501924227413
4047638 21 18343023302551069050
42 15 17894348860763399203
5104073 3 18407758135893927226
6430166 295 18410572885771880596
7832392 63 18339639061679732492

>  <PUBCHEM_SHAPE_MULTIPOLES>  (1) 
263.23
8.88
1.59
0.66
5.32
0.16
-0.01
-3.13
1.04
-0.17
-0.06
-0.09
0.01
-0.44

>  <PUBCHEM_SHAPE_SELFOVERLAP>  (1) 
552.809

>  <PUBCHEM_SHAPE_VOLUME>  (1) 
148.5

>  <PUBCHEM_COORDINATE_TYPE>  (1) 
2
5
10

$$$$
