37178
     RDKit          3D

 20 23  0  0  1  0  0  0  0  0999 V2000
    0.0788   -2.0515    0.1190 O   0  0  0  0  0  0  0  0  0  0  0  0
   -3.7048   -0.1639   -0.3103 N   0  0  0  0  0  0  0  0  0  0  0  0
    2.4480    1.8526   -0.0700 N   0  0  0  0  0  0  0  0  0  0  0  0
   -1.2946   -0.0480    0.1608 C   0  0  0  0  0  0  0  0  0  0  0  0
   -2.4457   -0.8902   -0.3831 C   0  0  0  0  0  0  0  0  0  0  0  0
   -1.2141    1.2975   -0.5956 C   0  0  0  0  0  0  0  0  0  0  0  0
   -4.8262   -0.9355   -0.8454 C   0  0  0  0  0  0  0  0  0  0  0  0
   -4.0861    0.1561    1.0650 C   0  0  0  0  0  0  0  0  0  0  0  0
   -6.0400   -0.1814   -0.3222 C   0  0  0  0  0  0  0  0  0  0  0  0
   -5.5526    0.5388    0.9312 C   0  0  0  0  0  0  0  0  0  0  0  0
   -0.0570    2.1763   -0.0954 C   0  0  0  0  0  0  0  0  0  0  0  0
    0.0358   -0.8249    0.0843 C   0  0  0  0  0  0  0  0  0  0  0  0
    1.2468   -0.0197    0.0375 C   0  0  0  0  0  0  0  0  0  0  0  0
    1.1775    1.3542   -0.0435 C   0  0  0  0  0  0  0  0  0  0  0  0
    2.6257   -0.3771    0.0502 C   0  0  0  0  0  0  0  0  0  0  0  0
    3.3550    0.8160   -0.0172 C   0  0  0  0  0  0  0  0  0  0  0  0
    3.3343   -1.5951    0.1135 C   0  0  0  0  0  0  0  0  0  0  0  0
    4.7545    0.8469   -0.0245 C   0  0  0  0  0  0  0  0  0  0  0  0
    4.7338   -1.5775    0.1069 C   0  0  0  0  0  0  0  0  0  0  0  0
    5.4311   -0.3739    0.0387 C   0  0  0  0  0  0  0  0  0  0  0  0
  1 12  2  0
  2  5  1  0
  2  7  1  0
  2  8  1  0
  3 14  1  0
  3 16  1  0
  4  5  1  0
  4  6  1  0
  4 12  1  0
  6 11  1  0
  7  9  1  0
  8 10  1  0
  9 10  1  0
 11 14  1  0
 12 13  1  0
 13 14  2  0
 13 15  1  0
 15 16  2  0
 15 17  1  0
 16 18  1  0
 17 19  2  0
 18 20  2  0
 19 20  1  0
M  END
>  <PUBCHEM_COMPOUND_CID>  (1) 
37178

>  <PUBCHEM_CONFORMER_RMSD>  (1) 
0.6

>  <PUBCHEM_CONFORMER_DIVERSEORDER>  (1) 
1
5
3
6
4
7
2

>  <PUBCHEM_MMFF94_PARTIAL_CHARGES>  (1) 
21
1 -0.57
11 0.18
12 0.6
13 -0.09
14 -0.33
16 -0.15
17 -0.15
18 -0.15
19 -0.15
2 -0.81
20 -0.15
3 0.03
36 0.27
37 0.15
38 0.15
39 0.15
4 0.06
40 0.15
5 0.27
7 0.27
8 0.27

>  <PUBCHEM_EFFECTIVE_ROTOR_COUNT>  (1) 
3.6

>  <PUBCHEM_PHARMACOPHORE_FEATURES>  (1) 
8
1 1 acceptor
1 2 cation
1 3 cation
1 3 donor
5 2 7 8 9 10 rings
5 3 13 14 15 16 rings
6 15 16 17 18 19 20 rings
6 4 6 11 12 13 14 rings

>  <PUBCHEM_HEAVY_ATOM_COUNT>  (1) 
20

>  <PUBCHEM_ATOM_DEF_STEREO_COUNT>  (1) 
0

>  <PUBCHEM_ATOM_UDEF_STEREO_COUNT>  (1) 
1

>  <PUBCHEM_BOND_DEF_STEREO_COUNT>  (1) 
0

>  <PUBCHEM_BOND_UDEF_STEREO_COUNT>  (1) 
0

>  <PUBCHEM_ISOTOPIC_ATOM_COUNT>  (1) 
0

>  <PUBCHEM_COMPONENT_COUNT>  (1) 
1

>  <PUBCHEM_CACTVS_TAUTO_COUNT>  (1) 
8

>  <PUBCHEM_CONFORMER_ID>  (1) 
0000913A00000001

>  <PUBCHEM_MMFF94_ENERGY>  (1) 
33.0302

>  <PUBCHEM_FEATURE_SELFOVERLAP>  (1) 
40.772

>  <PUBCHEM_SHAPE_FINGERPRINT>  (1) 
10688039 33 18040435460282435173
10906281 52 18339098063393805862
11089746 13 17632290156336880225
11287383 113 16008755735673366684
11471102 20 18408602582588902156
11578080 2 17129567210309233826
12107183 9 17552932728070418011
12166972 35 18201718500941046153
12236239 1 17988925578636329531
12516196 113 18343299279674475713
12596602 18 17203607111847336842
13140716 1 18337391664007429578
13533116 47 17989489589647516378
13583140 156 14692565520570618559
13685833 64 18260834813007507651
13760787 5 18334296487187912925
13862211 1 18408880720260375562
14115302 16 17676778651369424582
14341114 176 18334583438543227529
14739800 52 16987708176943785952
14790565 3 18410017610898968261
15099037 51 18408603677584282951
15196674 1 18337389348888084060
15527383 91 18413671309744850625
15788980 27 18186519908485915775
15848702 151 18131074792466377743
17492 89 18048592625976055586
17844677 252 16660365883258933405
1813 80 18188503392607002196
19141452 34 18272086127809982583
19489759 90 16057164995488628659
200 152 18272649047777441985
20028762 73 18201995534331242399
20612939 158 18334858359067860069
20645477 70 18410009910317973302
21033648 29 17677315200164295373
21236236 1 18337390431673880589
21267235 1 18337677421694197054
21279426 13 18191020101935241061
21641784 216 17895491227823451252
221357 26 18334847317092031621
22182313 1 18042943480849883356
23402539 116 18202842158441995045
23522609 53 18195276405894372972
23536379 177 17703792509307167955
23559900 14 18338232795198792248
2871803 45 18114460085349437698
3004659 81 18187364316494660886
335352 9 18410292523223432974
3411729 13 16342559834231775680
345986 75 18269826523977014842
34797466 226 15913050970837401985
34934 24 18339637971006017518
350125 39 18410294687929569996
4073 2 18114466772307978659
4340502 62 16226044496636025026
4463277 17 18409730651143291757
465052 167 18412548716809916774
5104073 3 18339077210816134963
542803 24 17489871544176194145
59755656 215 18335423418056185838
7495541 125 14634878577772392301
9971528 1 18410569625823488401

>  <PUBCHEM_SHAPE_MULTIPOLES>  (1) 
395.76
12.99
1.81
0.78
8.18
0.24
-0.06
-2.38
-0.65
-1.28
0.09
0.75
0.01
-0.51

>  <PUBCHEM_SHAPE_SELFOVERLAP>  (1) 
869.619

>  <PUBCHEM_SHAPE_VOLUME>  (1) 
214.1

>  <PUBCHEM_COORDINATE_TYPE>  (1) 
2
5
10

$$$$
