37174
     RDKit          3D

 21 21  0  0  0  0  0  0  0  0999 V2000
   -2.5031   -2.7736   -0.4814 Cl  0  0  0  0  0  0  0  0  0  0  0  0
   -3.9432    1.8696    0.1620 Cl  0  0  0  0  0  0  0  0  0  0  0  0
   -4.2053   -1.2606    0.7038 F   0  0  0  0  0  0  0  0  0  0  0  0
   -2.4732   -1.8041    1.8871 F   0  0  0  0  0  0  0  0  0  0  0  0
   -2.1579    1.3926   -1.6262 F   0  0  0  0  0  0  0  0  0  0  0  0
   -3.7861   -0.0244   -1.5471 F   0  0  0  0  0  0  0  0  0  0  0  0
   -0.5644    2.3708    0.0496 O   0  0  0  0  0  0  0  0  0  0  0  0
    5.1129   -1.6973   -0.4142 O   0  0  0  0  0  0  0  0  0  0  0  0
    3.0985   -2.5277   -0.6827 O   0  0  0  0  0  0  0  0  0  0  0  0
    3.8644   -1.5723   -0.4086 N   0  0  0  0  0  0  0  0  0  0  0  0
    1.3932    1.0904    0.2496 C   0  0  0  0  0  0  0  0  0  0  0  0
   -2.1622   -0.1676    0.1792 C   0  0  0  0  0  0  0  0  0  0  0  0
   -0.0809    1.2658    0.2626 C   0  0  0  0  0  0  0  0  0  0  0  0
   -0.9080    0.0755    0.6093 C   0  0  0  0  0  0  0  0  0  0  0  0
    1.9157   -0.1462   -0.0699 C   0  0  0  0  0  0  0  0  0  0  0  0
    2.1958    2.1698    0.5583 C   0  0  0  0  0  0  0  0  0  0  0  0
    3.3008   -0.3106   -0.0814 C   0  0  0  0  0  0  0  0  0  0  0  0
   -2.8565   -1.4330    0.6331 C   0  0  0  0  0  0  0  0  0  0  0  0
   -2.9545    0.7122   -0.7571 C   0  0  0  0  0  0  0  0  0  0  0  0
    3.5808    2.0055    0.5470 C   0  0  0  0  0  0  0  0  0  0  0  0
    4.1333    0.7652    0.2270 C   0  0  0  0  0  0  0  0  0  0  0  0
  1 18  1  0
  2 19  1  0
  3 18  1  0
  4 18  1  0
  5 19  1  0
  6 19  1  0
  7 13  2  0
  8 10  1  0
  9 10  2  0
 10 17  1  0
 11 13  1  0
 11 15  2  0
 11 16  1  0
 12 14  2  3
 12 18  1  0
 12 19  1  0
 13 14  1  0
 15 17  1  0
 16 20  2  0
 17 21  2  0
 20 21  1  0
M  CHG  2   8  -1  10   1
M  END
>  <PUBCHEM_COMPOUND_CID>  (1) 
37174

>  <PUBCHEM_CONFORMER_RMSD>  (1) 
0.8

>  <PUBCHEM_CONFORMER_DIVERSEORDER>  (1) 
1
81
65
15
67
123
49
83
118
51
93
89
104
113
41
22
85
108
94
76
117
30
91
35
34
80
112
18
106
121
56
42
12
59
101
99
39
86
98
119
10
40
72
79
66
7
77
3
28
82
114
73
46
53
122
92
37
52
71
21
57
14
70
29
9
50
54
55
62
116
25
58
60
17
68
111
69
74
107
109
96
16
5
75
97
105
44
36
19
90
31
43
13
95
87
84
11
120
88
33
32
45
61
78
47
110
23
6
38
103
26
4
48
24
27
64
115
8
20
102
100
2
63

>  <PUBCHEM_MMFF94_PARTIAL_CHARGES>  (1) 
26
1 -0.29
10 0.91
11 0.09
12 -0.28
13 0.47
14 -0.14
15 -0.15
16 -0.15
17 0.13
18 1.11
19 1.11
2 -0.29
20 -0.15
21 -0.15
22 0.15
23 0.15
24 0.15
25 0.15
26 0.15
3 -0.34
4 -0.34
5 -0.34
6 -0.34
7 -0.57
8 -0.52
9 -0.52

>  <PUBCHEM_EFFECTIVE_ROTOR_COUNT>  (1) 
5

>  <PUBCHEM_PHARMACOPHORE_FEATURES>  (1) 
5
1 7 acceptor
1 8 acceptor
1 8 anion
1 9 acceptor
6 11 15 16 17 20 21 rings

>  <PUBCHEM_HEAVY_ATOM_COUNT>  (1) 
21

>  <PUBCHEM_ATOM_DEF_STEREO_COUNT>  (1) 
0

>  <PUBCHEM_ATOM_UDEF_STEREO_COUNT>  (1) 
0

>  <PUBCHEM_BOND_DEF_STEREO_COUNT>  (1) 
0

>  <PUBCHEM_BOND_UDEF_STEREO_COUNT>  (1) 
0

>  <PUBCHEM_ISOTOPIC_ATOM_COUNT>  (1) 
0

>  <PUBCHEM_COMPONENT_COUNT>  (1) 
1

>  <PUBCHEM_CACTVS_TAUTO_COUNT>  (1) 
1

>  <PUBCHEM_CONFORMER_ID>  (1) 
0000913600000001

>  <PUBCHEM_MMFF94_ENERGY>  (1) 
47.3888

>  <PUBCHEM_FEATURE_SELFOVERLAP>  (1) 
25.454

>  <PUBCHEM_SHAPE_FINGERPRINT>  (1) 
10616163 171 18269556198804189934
107951 10 17677054525825124787
10922523 26 18333729156146303429
1100329 8 16752405687644136266
11405975 8 18408602543929136512
11552529 35 17773319152227141019
12553582 1 18126299557964758714
12596602 18 16271643519835081914
12670546 177 17822299023885119500
13135754 10 17241919582312713793
13296908 3 18410856594142128264
13533116 47 18131348657056139907
13544592 145 18334853870700435069
13583140 156 17488453251285749969
14289901 80 18270398441764491000
14866123 147 17478901480543028840
15163728 17 16011818803944977463
15196674 1 18411702084408584026
15219456 202 18410853295580994560
15375358 24 18410847798149339392
15635459 17 18410579517407335026
17834074 16 18410291436469865736
1813 80 17313670463882348413
18186145 218 18040429971345612576
19141452 34 18268152140226434259
19930381 70 17909832029251694927
200 152 17846491522095793128
20281475 54 18412270540536868360
20645477 70 18201997720716612662
20681651 13 17274255179354990635
20693207 138 18335141977428242052
21065198 57 18412545426743707088
21521239 73 18128794427510697749
221490 88 18410860971267541376
22943178 12 18335977653288556080
23557571 272 17967808405141659869
23559900 14 18411132524870142656
4921388 177 17386013883403439307
5104073 3 18412824685828406760
5161694 15 18187078442759282716
5281201 14 18260832622125995148
8809292 202 18335423430613552768
9709674 26 18411414016504372508

>  <PUBCHEM_SHAPE_MULTIPOLES>  (1) 
384.23
9.27
2.92
1.05
3.51
0.94
0.01
2.38
0.56
0.28
0.08
-1.01
0.15
1.37

>  <PUBCHEM_SHAPE_SELFOVERLAP>  (1) 
797.633

>  <PUBCHEM_SHAPE_VOLUME>  (1) 
221.4

>  <PUBCHEM_COORDINATE_TYPE>  (1) 
2
5
10

$$$$
