37181
     RDKit          3D

 22 25  0  0  1  0  0  0  0  0999 V2000
   -0.6765    2.0159   -0.4039 O   0  0  0  0  0  0  0  0  0  0  0  0
    3.1055    0.1382    0.1491 N   0  0  0  0  0  0  0  0  0  0  0  0
   -3.0759   -1.8070    0.3166 N   0  0  0  0  0  0  0  0  0  0  0  0
    0.6761    0.0041   -0.2435 C   0  0  0  0  0  0  0  0  0  0  0  0
    1.8508    0.8902    0.1626 C   0  0  0  0  0  0  0  0  0  0  0  0
    5.5369    0.1953    0.6481 C   0  0  0  0  0  0  0  0  0  0  0  0
    4.2191    0.9869    0.5988 C   0  0  0  0  0  0  0  0  0  0  0  0
    3.3617   -0.4089   -1.1900 C   0  0  0  0  0  0  0  0  0  0  0  0
    5.8383   -0.4351   -0.7159 C   0  0  0  0  0  0  0  0  0  0  0  0
    0.6048   -1.2402    0.6706 C   0  0  0  0  0  0  0  0  0  0  0  0
    4.6422   -1.2437   -1.2069 C   0  0  0  0  0  0  0  0  0  0  0  0
   -0.5744   -2.1575    0.3114 C   0  0  0  0  0  0  0  0  0  0  0  0
   -0.6442    0.8018   -0.2234 C   0  0  0  0  0  0  0  0  0  0  0  0
   -1.8608    0.0236   -0.0468 C   0  0  0  0  0  0  0  0  0  0  0  0
   -1.8021   -1.3317    0.1959 C   0  0  0  0  0  0  0  0  0  0  0  0
    6.6908    1.0911    1.0949 C   0  0  0  0  0  0  0  0  0  0  0  0
   -3.2361    0.3946   -0.0636 C   0  0  0  0  0  0  0  0  0  0  0  0
   -3.9744   -0.7726    0.1653 C   0  0  0  0  0  0  0  0  0  0  0  0
   -3.9347    1.6052   -0.2521 C   0  0  0  0  0  0  0  0  0  0  0  0
   -5.3733   -0.7848    0.2140 C   0  0  0  0  0  0  0  0  0  0  0  0
   -5.3336    1.6063   -0.2053 C   0  0  0  0  0  0  0  0  0  0  0  0
   -6.0400    0.4282    0.0243 C   0  0  0  0  0  0  0  0  0  0  0  0
  1 13  2  0
  2  5  1  0
  2  7  1  0
  2  8  1  0
  3 15  1  0
  3 18  1  0
  4  5  1  0
  4 10  1  0
  4 13  1  0
  6  7  1  0
  6  9  1  0
  6 16  1  0
  8 11  1  0
  9 11  1  0
 10 12  1  0
 12 15  1  0
 13 14  1  0
 14 15  2  0
 14 17  1  0
 17 18  2  0
 17 19  1  0
 18 20  1  0
 19 21  2  0
 20 22  2  0
 21 22  1  0
M  END
>  <PUBCHEM_COMPOUND_CID>  (1) 
37181

>  <PUBCHEM_CONFORMER_RMSD>  (1) 
0.6

>  <PUBCHEM_CONFORMER_DIVERSEORDER>  (1) 
1
6
27
2
3
17
20
12
9
21
13
5
19
10
14
16
26
24
7
4
29
8
11
28
25
22
30
31
15
18
23

>  <PUBCHEM_MMFF94_PARTIAL_CHARGES>  (1) 
21
1 -0.57
12 0.18
13 0.6
14 -0.09
15 -0.33
18 -0.15
19 -0.15
2 -0.81
20 -0.15
21 -0.15
22 -0.15
3 0.03
4 0.06
42 0.27
43 0.15
44 0.15
45 0.15
46 0.15
5 0.27
7 0.27
8 0.27

>  <PUBCHEM_EFFECTIVE_ROTOR_COUNT>  (1) 
3.8

>  <PUBCHEM_PHARMACOPHORE_FEATURES>  (1) 
8
1 1 acceptor
1 2 cation
1 3 cation
1 3 donor
5 3 14 15 17 18 rings
6 17 18 19 20 21 22 rings
6 2 6 7 8 9 11 rings
6 4 10 12 13 14 15 rings

>  <PUBCHEM_HEAVY_ATOM_COUNT>  (1) 
22

>  <PUBCHEM_ATOM_DEF_STEREO_COUNT>  (1) 
0

>  <PUBCHEM_ATOM_UDEF_STEREO_COUNT>  (1) 
2

>  <PUBCHEM_BOND_DEF_STEREO_COUNT>  (1) 
0

>  <PUBCHEM_BOND_UDEF_STEREO_COUNT>  (1) 
0

>  <PUBCHEM_ISOTOPIC_ATOM_COUNT>  (1) 
0

>  <PUBCHEM_COMPONENT_COUNT>  (1) 
1

>  <PUBCHEM_CACTVS_TAUTO_COUNT>  (1) 
8

>  <PUBCHEM_CONFORMER_ID>  (1) 
0000913D00000001

>  <PUBCHEM_MMFF94_ENERGY>  (1) 
34.225

>  <PUBCHEM_FEATURE_SELFOVERLAP>  (1) 
40.772

>  <PUBCHEM_SHAPE_FINGERPRINT>  (1) 
10 15 18260268585419254072
10366900 7 13830133901564555726
10411042 1 17831862718159089883
10835480 77 18201715172114713664
11315181 36 18060424624677420368
11578080 2 14188197469710900121
11646440 116 18341343244642185689
12236239 1 17167582695905796580
12390115 104 18267872670846762201
12516196 113 18060700602096147864
12616971 3 16298106505905815366
12838862 33 18262501634213021693
12916748 109 18409733958283706649
13402501 40 18342457041193862160
13533116 47 14692298305391642206
13544592 145 18342464729275070950
13862211 1 18333729134877351163
14386348 63 18272655649474491934
14573314 32 18343305842394826236
15042514 8 18119254098161043171
15099037 51 18408326592037521783
15183329 4 18408606933211645818
15196674 1 18336830891369987189
16079462 125 18130496496826838368
19141452 34 18202282549641178134
19489759 90 18333732416495895001
200 152 16702304529111561738
20281389 69 18187362112491025512
20645477 70 17418100875866553382
21033648 29 18130776888991645528
21150785 3 16988552524912067693
21267235 1 18335147522795451739
21279426 13 18268149751480410116
21315759 40 16370723759714897803
21859007 373 17896019006031378340
2215653 11 18130793330585416262
23402539 116 18412820308934659767
23536379 177 16917069932284117299
23559900 14 18272929457591999936
239999 70 18272093790917667054
2916195 48 18342451564915394208
3004659 81 18186527613984461724
335352 9 18335421283878971853
34797466 226 17632300072635268142
3545911 37 18411420600594148811
4073 2 18261114131990069034
5104073 3 18189057504171765243
5283173 99 18271528589541968288
5385378 56 18263367988824011731
542803 24 17022624178269417556
59755656 215 18337676317449947278
59755656 520 17022902363011633947
7226269 152 18412824685554236033

>  <PUBCHEM_SHAPE_MULTIPOLES>  (1) 
436.92
15.78
1.81
0.91
8.58
0.18
0.08
-3.39
-0.83
-1.04
-0.07
1.15
0.07
1.41

>  <PUBCHEM_SHAPE_SELFOVERLAP>  (1) 
947.701

>  <PUBCHEM_SHAPE_VOLUME>  (1) 
238

>  <PUBCHEM_COORDINATE_TYPE>  (1) 
2
5
10

$$$$
