37188
     RDKit          3D

 18 18  0  0  0  0  0  0  0  0999 V2000
    2.0064    2.2414    0.4742 O   0  0  0  0  0  0  0  0  0  0  0  0
    3.9333    0.3938   -0.2652 O   0  0  0  0  0  0  0  0  0  0  0  0
    3.1987   -2.2314   -0.7552 O   0  0  0  0  0  0  0  0  0  0  0  0
   -1.6914   -2.3443    0.4988 O   0  0  0  0  0  0  0  0  0  0  0  0
   -2.3654   -0.1791    0.0316 N   0  0  0  0  0  0  0  0  0  0  0  0
   -3.6760   -0.5016    0.1196 N   0  0  0  0  0  0  0  0  0  0  0  0
   -5.9042    0.4120   -0.0522 N   0  0  0  0  0  0  0  0  0  0  0  0
   -4.0766    1.7363   -0.3688 N   0  0  0  0  0  0  0  0  0  0  0  0
   -0.0063   -0.7585    0.1058 C   0  0  0  0  0  0  0  0  0  0  0  0
    1.6624    0.9459    0.2306 C   0  0  0  0  0  0  0  0  0  0  0  0
    2.6298    0.0131   -0.1427 C   0  0  0  0  0  0  0  0  0  0  0  0
    0.3291    0.5557    0.3564 C   0  0  0  0  0  0  0  0  0  0  0  0
    2.2639   -1.3100   -0.3903 C   0  0  0  0  0  0  0  0  0  0  0  0
    0.9307   -1.7002   -0.2647 C   0  0  0  0  0  0  0  0  0  0  0  0
   -1.4272   -1.1732    0.2378 C   0  0  0  0  0  0  0  0  0  0  0  0
    1.9710    3.1404   -0.6324 C   0  0  0  0  0  0  0  0  0  0  0  0
    4.7495    0.2909    0.8992 C   0  0  0  0  0  0  0  0  0  0  0  0
   -4.5279    0.4687   -0.0826 C   0  0  0  0  0  0  0  0  0  0  0  0
  1 10  1  0
  1 16  1  0
  2 11  1  0
  2 17  1  0
  3 13  1  0
  4 15  2  0
  5  6  1  0
  5 15  1  0
  6 18  2  3
  7 18  1  0
  8 18  1  0
  9 12  2  0
  9 14  1  0
  9 15  1  0
 10 11  2  0
 10 12  1  0
 11 13  1  0
 13 14  2  0
M  END
>  <PUBCHEM_COMPOUND_CID>  (1) 
37188

>  <PUBCHEM_CONFORMER_RMSD>  (1) 
0.6

>  <PUBCHEM_CONFORMER_DIVERSEORDER>  (1) 
7
16
9
8
14
10
13
12
6
3
11
1
15
4
2
5

>  <PUBCHEM_MMFF94_PARTIAL_CHARGES>  (1) 
26
1 -0.36
10 0.08
11 0.08
12 -0.15
13 0.08
14 -0.15
15 0.54
16 0.28
17 0.28
18 0.55
19 0.15
2 -0.36
20 0.15
21 0.37
22 0.45
29 0.4
3 -0.53
30 0.4
31 0.4
32 0.4
4 -0.57
5 -0.37
6 -0.51
7 -0.85
8 -0.85
9 0.09

>  <PUBCHEM_EFFECTIVE_ROTOR_COUNT>  (1) 
5

>  <PUBCHEM_PHARMACOPHORE_FEATURES>  (1) 
9
1 1 acceptor
1 2 acceptor
1 3 donor
1 4 acceptor
1 5 donor
1 7 donor
1 8 donor
4 6 7 8 18 cation
6 9 10 11 12 13 14 rings

>  <PUBCHEM_HEAVY_ATOM_COUNT>  (1) 
18

>  <PUBCHEM_ATOM_DEF_STEREO_COUNT>  (1) 
0

>  <PUBCHEM_ATOM_UDEF_STEREO_COUNT>  (1) 
0

>  <PUBCHEM_BOND_DEF_STEREO_COUNT>  (1) 
0

>  <PUBCHEM_BOND_UDEF_STEREO_COUNT>  (1) 
0

>  <PUBCHEM_ISOTOPIC_ATOM_COUNT>  (1) 
0

>  <PUBCHEM_COMPONENT_COUNT>  (1) 
1

>  <PUBCHEM_CACTVS_TAUTO_COUNT>  (1) 
21

>  <PUBCHEM_CONFORMER_ID>  (1) 
0000914400000007

>  <PUBCHEM_MMFF94_ENERGY>  (1) 
79.2235

>  <PUBCHEM_FEATURE_SELFOVERLAP>  (1) 
45.744

>  <PUBCHEM_SHAPE_FINGERPRINT>  (1) 
10608611 8 18337674234300721963
11471102 20 18413389808723932151
116883 192 18198349446609519412
12596602 18 12974184934601832893
12916748 109 18334862688874545891
13134695 92 17632289043217443248
13140716 1 18265889349195598408
13922767 16 18340767130376339072
14170010 4 18342175557479420001
14415576 193 18338519758394484533
14648413 74 18336833107678724042
15003188 100 18261940891888537461
15196674 1 18340487742949088321
15375358 24 18413670218712361690
1601671 61 18410294714084034516
16945 1 18269288996462759178
18186145 218 18342747273761863771
20606313 2 18412546492079913910
20645477 56 18334577966765571723
20645477 70 18059860502108717847
212847 35 18186803582011290765
221357 26 18341047411785041493
22289505 5 18340202990453466708
231179 274 18187078430169766759
23402539 116 18411972585849491479
23402655 69 18201998798879997751
23419403 2 17341780384947747784
23559900 14 18343022177307086954
25 1 18409727348529777431
2748010 2 17908713078780524810
3060560 45 17989212529665058582
335352 9 18411138048213604462
34934 24 18341888606704607274
351380 180 18409727353257066485
3545911 37 18343303673615826091
4072396 5 18341320133628777114
474 4 18410856577283876089
495365 180 17774429594509431216
5104073 3 18263645228662009329
5281201 14 18411141299372076165
6430166 295 18408037424832477657
9709674 26 18411142475950931079
9971528 1 18272089362152062006

>  <PUBCHEM_SHAPE_MULTIPOLES>  (1) 
327.03
9.47
2.57
0.74
11.04
1.03
-0.01
2.34
-0.24
-1.45
0.44
-0.42
0.01
0.54

>  <PUBCHEM_SHAPE_SELFOVERLAP>  (1) 
680.423

>  <PUBCHEM_SHAPE_VOLUME>  (1) 
185.2

>  <PUBCHEM_COORDINATE_TYPE>  (1) 
2
5
10

$$$$
