37199
     RDKit          3D

 15 16  0  0  0  0  0  0  0  0999 V2000
    1.2942    1.9916   -0.2565 O   0  0  0  0  0  0  0  0  0  0  0  0
    3.2094   -1.8718    0.2738 O   0  0  0  0  0  0  0  0  0  0  0  0
    0.7059   -0.1734    0.0291 N   0  0  0  0  0  0  0  0  0  0  0  0
    3.0318    0.4642   -0.0397 N   0  0  0  0  0  0  0  0  0  0  0  0
   -1.7565    0.1066   -0.0268 C   0  0  0  0  0  0  0  0  0  0  0  0
   -0.4116    0.6061   -0.0836 C   0  0  0  0  0  0  0  0  0  0  0  0
   -2.7805    0.9151    0.4667 C   0  0  0  0  0  0  0  0  0  0  0  0
   -2.0391   -1.1872   -0.4650 C   0  0  0  0  0  0  0  0  0  0  0  0
    1.6823    0.6989   -0.0806 C   0  0  0  0  0  0  0  0  0  0  0  0
   -0.0660    1.9187   -0.2568 C   0  0  0  0  0  0  0  0  0  0  0  0
   -4.0871    0.4297    0.5222 C   0  0  0  0  0  0  0  0  0  0  0  0
   -3.3457   -1.6724   -0.4095 C   0  0  0  0  0  0  0  0  0  0  0  0
   -4.3696   -0.8639    0.0841 C   0  0  0  0  0  0  0  0  0  0  0  0
    3.7168   -0.7642    0.1294 C   0  0  0  0  0  0  0  0  0  0  0  0
    5.2157   -0.5978    0.1132 C   0  0  0  0  0  0  0  0  0  0  0  0
  1  9  1  0
  1 10  1  0
  2 14  2  0
  3  6  1  0
  3  9  2  0
  4  9  1  0
  4 14  1  0
  5  6  1  0
  5  7  2  0
  5  8  1  0
  6 10  2  0
  7 11  1  0
  8 12  2  0
 11 13  2  0
 12 13  1  0
 14 15  1  0
M  END
>  <PUBCHEM_COMPOUND_CID>  (1) 
37199

>  <PUBCHEM_CONFORMER_RMSD>  (1) 
0.6

>  <PUBCHEM_CONFORMER_DIVERSEORDER>  (1) 
1
5
4
2
3

>  <PUBCHEM_MMFF94_PARTIAL_CHARGES>  (1) 
22
1 -0.28
10 -0.01
11 -0.15
12 -0.15
13 -0.15
14 0.57
15 0.06
16 0.15
17 0.15
18 0.15
19 0.15
2 -0.57
20 0.15
21 0.37
22 0.15
3 -0.57
4 -0.49
5 0.05
6 0.17
7 -0.15
8 -0.15
9 0.54

>  <PUBCHEM_EFFECTIVE_ROTOR_COUNT>  (1) 
3

>  <PUBCHEM_PHARMACOPHORE_FEATURES>  (1) 
4
1 2 acceptor
1 4 donor
5 1 3 6 9 10 rings
6 5 7 8 11 12 13 rings

>  <PUBCHEM_HEAVY_ATOM_COUNT>  (1) 
15

>  <PUBCHEM_ATOM_DEF_STEREO_COUNT>  (1) 
0

>  <PUBCHEM_ATOM_UDEF_STEREO_COUNT>  (1) 
0

>  <PUBCHEM_BOND_DEF_STEREO_COUNT>  (1) 
0

>  <PUBCHEM_BOND_UDEF_STEREO_COUNT>  (1) 
0

>  <PUBCHEM_ISOTOPIC_ATOM_COUNT>  (1) 
0

>  <PUBCHEM_COMPONENT_COUNT>  (1) 
1

>  <PUBCHEM_CACTVS_TAUTO_COUNT>  (1) 
3

>  <PUBCHEM_CONFORMER_ID>  (1) 
0000914F00000001

>  <PUBCHEM_MMFF94_ENERGY>  (1) 
31.0071

>  <PUBCHEM_FEATURE_SELFOVERLAP>  (1) 
20.297

>  <PUBCHEM_SHAPE_FINGERPRINT>  (1) 
10062212 137 18273212028180970751
10465860 250 17346599677197599289
11046707 91 18411698781278124448
11543360 7 14562822078766521346
11769659 78 18341891935008440357
12032990 46 18407761438734332881
122479 349 10735865193095920236
12251169 10 18272933821067450893
12553582 1 18335128778888369482
13288520 33 18411420592241532686
13583140 156 14620783895187196087
13690532 89 18410855482151624479
14252887 29 18059863839925638206
14965852 173 18341612663555628839
15375462 189 18259982647992485442
15442244 35 18411984667455650233
15536298 74 18342737468087782952
17804303 29 18272936028865406793
17834072 33 18411704322297827684
17834072 8 18261103055121310269
1813 80 17822583719860143670
18186145 218 15719395065742222037
19141452 34 18342738503217086295
19422 9 18337396040626284413
20281475 54 18336547213048738588
20645477 70 18188483704724778031
20871998 22 18270688558579164310
21267235 1 18410865364354771667
21501925 9 18341326777368079760
22094290 60 15936688194580780701
221490 88 18117284867696171091
22485316 2 18409727348534766304
2255824 54 18190747620736358868
22646028 28 18409728477889794450
23402539 116 18412538790997661589
23463225 33 18411984671607829111
23559900 14 18272079543498595296
351380 180 8286195046504780546
42 15 18342459248495621145
4214541 1 18412826858791674825
4990 188 12179842780151599688
5104073 3 18200038468489956995
7364860 26 18268991071476773608
83771 10 18407758127620535308
9981440 41 17329424459448155913

>  <PUBCHEM_SHAPE_MULTIPOLES>  (1) 
286.99
9.31
1.81
0.67
5.3
0.14
0
-4.13
1.04
0.03
-0.15
-0.19
0
-0.56

>  <PUBCHEM_SHAPE_SELFOVERLAP>  (1) 
616.682

>  <PUBCHEM_SHAPE_VOLUME>  (1) 
158.2

>  <PUBCHEM_COORDINATE_TYPE>  (1) 
2
5
10

$$$$
