37190
     RDKit          3D

 25 26  0  0  0  0  0  0  0  0999 V2000
   -1.4704   -0.0474   -0.6653 O   0  0  0  0  0  0  0  0  0  0  0  0
   -1.8293    2.5805    0.1336 O   0  0  0  0  0  0  0  0  0  0  0  0
    0.3721    4.1240    0.7987 O   0  0  0  0  0  0  0  0  0  0  0  0
    4.2851    1.1361   -0.3507 O   0  0  0  0  0  0  0  0  0  0  0  0
    3.4112   -0.9731    0.0334 N   0  0  0  0  0  0  0  0  0  0  0  0
    4.6279   -1.5591   -0.0416 N   0  0  0  0  0  0  0  0  0  0  0  0
    3.4962   -3.5510    0.3577 N   0  0  0  0  0  0  0  0  0  0  0  0
    5.7559   -3.6893    0.0958 N   0  0  0  0  0  0  0  0  0  0  0  0
   -0.3985    0.7253   -0.3337 C   0  0  0  0  0  0  0  0  0  0  0  0
   -0.5754    2.0491    0.0684 C   0  0  0  0  0  0  0  0  0  0  0  0
    1.9613    0.9751   -0.0624 C   0  0  0  0  0  0  0  0  0  0  0  0
    0.5307    2.8297    0.4041 C   0  0  0  0  0  0  0  0  0  0  0  0
    0.8845    0.1819   -0.3996 C   0  0  0  0  0  0  0  0  0  0  0  0
   -1.6772   -1.2322    0.1012 C   0  0  0  0  0  0  0  0  0  0  0  0
    1.8137    2.2866    0.3380 C   0  0  0  0  0  0  0  0  0  0  0  0
   -3.1428   -1.5536    0.1205 C   0  0  0  0  0  0  0  0  0  0  0  0
    3.3282    0.3965   -0.1350 C   0  0  0  0  0  0  0  0  0  0  0  0
   -3.9487   -1.0329    1.1268 C   0  0  0  0  0  0  0  0  0  0  0  0
   -3.6817   -2.3696   -0.8678 C   0  0  0  0  0  0  0  0  0  0  0  0
   -5.3111   -1.3319    1.1449 C   0  0  0  0  0  0  0  0  0  0  0  0
   -5.0440   -2.6686   -0.8498 C   0  0  0  0  0  0  0  0  0  0  0  0
   -5.8586   -2.1498    0.1567 C   0  0  0  0  0  0  0  0  0  0  0  0
   -2.5837    2.6090   -1.0757 C   0  0  0  0  0  0  0  0  0  0  0  0
    0.3951    5.1200   -0.2218 C   0  0  0  0  0  0  0  0  0  0  0  0
    4.6596   -2.8553    0.1236 C   0  0  0  0  0  0  0  0  0  0  0  0
  1  9  1  0
  1 14  1  0
  2 10  1  0
  2 23  1  0
  3 12  1  0
  3 24  1  0
  4 17  2  0
  5  6  1  0
  5 17  1  0
  6 25  2  3
  7 25  1  0
  8 25  1  0
  9 10  2  0
  9 13  1  0
 10 12  1  0
 11 13  2  0
 11 15  1  0
 11 17  1  0
 12 15  2  0
 14 16  1  0
 16 18  2  0
 16 19  1  0
 18 20  1  0
 19 21  2  0
 20 22  2  0
 21 22  1  0
M  END
>  <PUBCHEM_COMPOUND_CID>  (1) 
37190

>  <PUBCHEM_CONFORMER_RMSD>  (1) 
0.8

>  <PUBCHEM_CONFORMER_DIVERSEORDER>  (1) 
1
70
125
138
69
3
67
80
155
185
132
179
121
176
13
81
83
88
134
102
107
60
57
20
183
105
111
77
175
177
94
62
163
73
112
66
150
41
64
168
52
157
142
71
26
72
34
98
156
164
22
130
46
127
6
11
97
158
103
178
95
123
144
28
116
82
47
122
182
38
181
53
108
171
79
184
159
7
24
162
29
43
68
96
36
75
180
133
160
91
124
5
87
59
172
44
161
128
48
110
117
55
35
51
113
19
17
165
174
54
40
136
21
37
89
167
2
139
61
118
166
146
33
4
135
170
106
56
145
90
140
149
50
173
16
131
92
49
25
15
10
32
78
27
12
120
126
99
153
143
85
152
147
86
42
141
58
114
31
109
18
154
74
100
39
101
14
63
115
23
151
93
84
104
8
119
137
148
76
169
9
45
30
129
65

>  <PUBCHEM_MMFF94_PARTIAL_CHARGES>  (1) 
37
1 -0.36
10 0.08
11 0.09
12 0.08
13 -0.15
14 0.42
15 -0.15
16 -0.14
17 0.54
18 -0.15
19 -0.15
2 -0.36
20 -0.15
21 -0.15
22 -0.15
23 0.28
24 0.28
25 0.55
26 0.15
29 0.15
3 -0.36
30 0.15
31 0.15
32 0.15
33 0.15
34 0.15
38 0.37
4 -0.57
42 0.4
43 0.4
44 0.4
45 0.4
5 -0.37
6 -0.51
7 -0.85
8 -0.85
9 0.08

>  <PUBCHEM_EFFECTIVE_ROTOR_COUNT>  (1) 
8

>  <PUBCHEM_PHARMACOPHORE_FEATURES>  (1) 
10
1 1 acceptor
1 2 acceptor
1 3 acceptor
1 4 acceptor
1 5 donor
1 7 donor
1 8 donor
4 6 7 8 25 cation
6 16 18 19 20 21 22 rings
6 9 10 11 12 13 15 rings

>  <PUBCHEM_HEAVY_ATOM_COUNT>  (1) 
25

>  <PUBCHEM_ATOM_DEF_STEREO_COUNT>  (1) 
0

>  <PUBCHEM_ATOM_UDEF_STEREO_COUNT>  (1) 
0

>  <PUBCHEM_BOND_DEF_STEREO_COUNT>  (1) 
0

>  <PUBCHEM_BOND_UDEF_STEREO_COUNT>  (1) 
0

>  <PUBCHEM_ISOTOPIC_ATOM_COUNT>  (1) 
0

>  <PUBCHEM_COMPONENT_COUNT>  (1) 
1

>  <PUBCHEM_CACTVS_TAUTO_COUNT>  (1) 
4

>  <PUBCHEM_CONFORMER_ID>  (1) 
0000914600000001

>  <PUBCHEM_MMFF94_ENERGY>  (1) 
107.8383

>  <PUBCHEM_FEATURE_SELFOVERLAP>  (1) 
50.823

>  <PUBCHEM_SHAPE_FINGERPRINT>  (1) 
10411042 1 18411136913825773454
10622 236 17628899408358690583
11014199 57 18264773156378769414
11049842 53 14927550895428500835
11991303 11 17753898203515442981
12107183 9 18271539628314086563
12293681 25 18122026958294122773
12553582 1 18341044224528774790
12760667 363 18408605837911115531
13140716 1 18270119002903030328
13533116 47 18195529414407717747
13631057 29 18338521842487649814
13690498 29 18268445542337960542
13785724 45 18270977768523378407
13911852 28 18411417310781601543
13955234 65 17981328103412033481
14739800 52 16555659562755534505
14790565 3 16968299800097662453
14844126 61 18194396685001753906
14866123 147 17979354162096395027
14910700 183 18052522564344239784
15042514 8 18267306430436305985
16120349 21 18126859204692814275
17492 89 18337952278068464210
17868525 174 18342458188187864761
19319366 153 18192436501130646054
20775530 9 18261669290461423262
20832881 197 18335703858093289403
21279426 13 18261103042273468039
21478907 32 18410575050324511075
22033318 11 17983053074590550209
23559900 14 18268135463100396080
314194 84 18337678636384101331
3421961 26 18340767156009012330
345986 75 17989495138228019475
4409770 3 18046907074587163605
463206 1 18336548325709986586
5104073 3 18272365318422832608
5309563 4 18411980226433553622
70251023 43 18336826515299518305
7164475 11 18334860506725568428
77188 2 18411138047765724412
7970288 3 18411416207017737174
79837 15 17692818085971090736

>  <PUBCHEM_SHAPE_MULTIPOLES>  (1) 
471.09
11.71
6
0.89
4.65
3.69
-0.02
-16.95
-0.72
-5.85
-0.1
0.91
0.02
-0.16

>  <PUBCHEM_SHAPE_SELFOVERLAP>  (1) 
997.407

>  <PUBCHEM_SHAPE_VOLUME>  (1) 
262.2

>  <PUBCHEM_COORDINATE_TYPE>  (1) 
2
5
10

$$$$
