37194
     RDKit          3D

 28 30  0  0  1  0  0  0  0  0999 V2000
   -0.5746    0.3605    1.8554 S   0  0  0  0  0  0  0  0  0  0  0  0
    0.5276   -3.9689    0.6050 S   0  0  0  0  0  0  0  0  0  0  0  0
    3.2178    1.4980    1.5202 O   0  0  0  0  0  0  0  0  0  0  0  0
    2.3358    1.7362   -1.5344 O   0  0  0  0  0  0  0  0  0  0  0  0
   -3.2455   -0.2327    0.5158 O   0  0  0  0  0  0  0  0  0  0  0  0
   -1.9222    2.6689   -2.4327 O   0  0  0  0  0  0  0  0  0  0  0  0
    3.8687   -0.6229   -0.7523 O   0  0  0  0  0  0  0  0  0  0  0  0
    0.1859    3.5544   -2.3911 O   0  0  0  0  0  0  0  0  0  0  0  0
   -5.3243   -0.9855    1.1575 O   0  0  0  0  0  0  0  0  0  0  0  0
    0.5101    1.8719   -0.0542 N   0  0  0  0  0  0  0  0  0  0  0  0
    2.1219   -0.5484    0.7722 N   0  0  0  0  0  0  0  0  0  0  0  0
   -4.2162   -1.9295   -0.6223 N   0  0  0  0  0  0  0  0  0  0  0  0
    0.7132    1.5258    1.3418 C   0  0  0  0  0  0  0  0  0  0  0  0
    2.0590    0.9156    0.8893 C   0  0  0  0  0  0  0  0  0  0  0  0
    1.7564    1.5883   -0.4841 C   0  0  0  0  0  0  0  0  0  0  0  0
   -1.9612    1.5247    1.5004 C   0  0  0  0  0  0  0  0  0  0  0  0
   -0.6640    2.3362   -0.5354 C   0  0  0  0  0  0  0  0  0  0  0  0
   -1.8099    2.2246    0.1598 C   0  0  0  0  0  0  0  0  0  0  0  0
   -3.2631    0.7282    1.5550 C   0  0  0  0  0  0  0  0  0  0  0  0
    3.0354   -1.1943   -0.0509 C   0  0  0  0  0  0  0  0  0  0  0  0
   -0.7211    2.9270   -1.8736 C   0  0  0  0  0  0  0  0  0  0  0  0
    3.3203    1.2870    2.9200 C   0  0  0  0  0  0  0  0  0  0  0  0
    2.9284   -2.7052    0.0010 C   0  0  0  0  0  0  0  0  0  0  0  0
    1.5591   -3.1167   -0.4636 C   0  0  0  0  0  0  0  0  0  0  0  0
   -4.3481   -1.0426    0.4174 C   0  0  0  0  0  0  0  0  0  0  0  0
    0.9697   -2.9024   -1.6901 C   0  0  0  0  0  0  0  0  0  0  0  0
   -0.3462   -3.4448   -1.7533 C   0  0  0  0  0  0  0  0  0  0  0  0
   -0.7125   -4.0532   -0.5729 C   0  0  0  0  0  0  0  0  0  0  0  0
  1 13  1  0
  1 16  1  0
  2 24  1  0
  2 28  1  0
  3 14  1  0
  3 22  1  0
  4 15  2  0
  5 19  1  0
  5 25  1  0
  6 21  1  0
  7 20  2  0
  8 21  2  0
  9 25  2  0
 10 13  1  0
 10 15  1  0
 10 17  1  0
 11 14  1  0
 11 20  1  0
 12 25  1  0
 13 14  1  0
 14 15  1  0
 16 18  1  0
 16 19  1  0
 17 18  2  0
 17 21  1  0
 20 23  1  0
 23 24  1  0
 24 26  2  0
 26 27  1  0
 27 28  2  0
M  END
>  <PUBCHEM_COMPOUND_CID>  (1) 
37194

>  <PUBCHEM_CONFORMER_RMSD>  (1) 
1

>  <PUBCHEM_CONFORMER_DIVERSEORDER>  (1) 
1
20
29
46
41
65
45
51
12
55
40
61
39
38
18
19
58
30
64
47
63
43
50
9
54
44
56
2
49
52
35
59
6
25
66
10
36
42
57
60
3
11
26
24
62
31
22
68
27
67
23
14
15
34
53
4
13
7
37
33
17
8
21
48
16
32
28
5

>  <PUBCHEM_MMFF94_PARTIAL_CHARGES>  (1) 
36
1 -0.45
10 -0.39
11 -0.65
12 -0.8
13 0.44
14 0.54
15 0.58
16 0.37
17 0.12
18 -0.29
19 0.28
2 -0.08
20 0.57
21 0.71
22 0.28
23 0.24
24 -0.14
25 0.78
26 -0.15
27 -0.15
28 -0.11
3 -0.54
31 0.37
32 0.15
4 -0.57
40 0.5
41 0.15
42 0.15
43 0.15
44 0.37
45 0.37
5 -0.43
6 -0.65
7 -0.57
8 -0.57
9 -0.57

>  <PUBCHEM_EFFECTIVE_ROTOR_COUNT>  (1) 
9.6

>  <PUBCHEM_PHARMACOPHORE_FEATURES>  (1) 
12
1 11 donor
1 12 donor
1 3 acceptor
1 4 acceptor
1 6 acceptor
1 7 acceptor
1 8 acceptor
1 9 acceptor
3 6 8 21 anion
4 10 13 14 15 rings
5 2 24 26 27 28 rings
6 1 10 13 16 17 18 rings

>  <PUBCHEM_HEAVY_ATOM_COUNT>  (1) 
28

>  <PUBCHEM_ATOM_DEF_STEREO_COUNT>  (1) 
2

>  <PUBCHEM_ATOM_UDEF_STEREO_COUNT>  (1) 
1

>  <PUBCHEM_BOND_DEF_STEREO_COUNT>  (1) 
0

>  <PUBCHEM_BOND_UDEF_STEREO_COUNT>  (1) 
0

>  <PUBCHEM_ISOTOPIC_ATOM_COUNT>  (1) 
0

>  <PUBCHEM_COMPONENT_COUNT>  (1) 
1

>  <PUBCHEM_CACTVS_TAUTO_COUNT>  (1) 
4

>  <PUBCHEM_CONFORMER_ID>  (1) 
0000914A00000001

>  <PUBCHEM_MMFF94_ENERGY>  (1) 
60.9337

>  <PUBCHEM_FEATURE_SELFOVERLAP>  (1) 
61.21

>  <PUBCHEM_SHAPE_FINGERPRINT>  (1) 
10032420 55 18044943372268149138
10675989 125 16903813413363931583
107951 10 14027770712618889502
11513181 2 17489031568738054879
12156800 1 16397380315107687971
12403259 327 17415854491701095593
12539773 59 14679044461069652883
13122387 1 17188139994359948683
13583140 156 17560510716643854289
14251757 17 16890056881394244976
14863182 85 18270132334512717737
17093844 170 18341612676008339195
17492 54 17898885510507043342
17921350 177 17534590954379652127
20775530 9 18124886655215962243
21304303 282 15954151020585258781
238 59 17908114626152727014
338550 245 18052256495135819467
35225 105 16258056876347277458
46194498 28 17750793449567377623
463206 1 18201441441217271171
57527573 199 15027792738871972785
57527585 103 14300515533051285403
59444896 2 16818530909993225608
66674814 147 17835485557073918575
7226269 152 15166852376467752949

>  <PUBCHEM_SHAPE_MULTIPOLES>  (1) 
527.9
6.42
5.57
2.33
4.34
4.26
-0.27
2.66
2.02
-0.65
-2.28
0.08
-1.97
2.02

>  <PUBCHEM_SHAPE_SELFOVERLAP>  (1) 
1096.214

>  <PUBCHEM_SHAPE_VOLUME>  (1) 
301.3

>  <PUBCHEM_COORDINATE_TYPE>  (1) 
2
5
10

$$$$
