37198
     RDKit          3D

 11 11  0  0  0  0  0  0  0  0999 V2000
   -0.8032   -1.2805   -0.0004 O   0  0  0  0  0  0  0  0  0  0  0  0
    2.6439    1.3205   -0.0011 O   0  0  0  0  0  0  0  0  0  0  0  0
   -0.3255    0.9301    0.0006 N   0  0  0  0  0  0  0  0  0  0  0  0
    1.4481   -0.7060   -0.0010 N   0  0  0  0  0  0  0  0  0  0  0  0
   -1.9792   -0.5930    0.0003 C   0  0  0  0  0  0  0  0  0  0  0  0
   -1.6848    0.7477    0.0008 C   0  0  0  0  0  0  0  0  0  0  0  0
    0.0970   -0.2855   -0.0001 C   0  0  0  0  0  0  0  0  0  0  0  0
   -3.2147   -1.3838   -0.0004 C   0  0  0  0  0  0  0  0  0  0  0  0
   -2.6026    1.8956    0.0002 C   0  0  0  0  0  0  0  0  0  0  0  0
    2.5828    0.0953   -0.0014 C   0  0  0  0  0  0  0  0  0  0  0  0
    3.8382   -0.7405    0.0023 C   0  0  0  0  0  0  0  0  0  0  0  0
  1  5  1  0
  1  7  1  0
  2 10  2  0
  3  6  1  0
  3  7  2  0
  4  7  1  0
  4 10  1  0
  5  6  2  0
  5  8  1  0
  6  9  1  0
 10 11  1  0
M  END
>  <PUBCHEM_COMPOUND_CID>  (1) 
37198

>  <PUBCHEM_CONFORMER_RMSD>  (1) 
0.4

>  <PUBCHEM_CONFORMER_DIVERSEORDER>  (1) 
1
4
2
3

>  <PUBCHEM_MMFF94_PARTIAL_CHARGES>  (1) 
12
1 -0.28
10 0.57
11 0.06
18 0.37
2 -0.57
3 -0.57
4 -0.49
5 -0.04
6 0.05
7 0.54
8 0.18
9 0.18

>  <PUBCHEM_EFFECTIVE_ROTOR_COUNT>  (1) 
2

>  <PUBCHEM_PHARMACOPHORE_FEATURES>  (1) 
3
1 2 acceptor
1 4 donor
5 1 3 5 6 7 rings

>  <PUBCHEM_HEAVY_ATOM_COUNT>  (1) 
11

>  <PUBCHEM_ATOM_DEF_STEREO_COUNT>  (1) 
0

>  <PUBCHEM_ATOM_UDEF_STEREO_COUNT>  (1) 
0

>  <PUBCHEM_BOND_DEF_STEREO_COUNT>  (1) 
0

>  <PUBCHEM_BOND_UDEF_STEREO_COUNT>  (1) 
0

>  <PUBCHEM_ISOTOPIC_ATOM_COUNT>  (1) 
0

>  <PUBCHEM_COMPONENT_COUNT>  (1) 
1

>  <PUBCHEM_CACTVS_TAUTO_COUNT>  (1) 
3

>  <PUBCHEM_CONFORMER_ID>  (1) 
0000914E00000001

>  <PUBCHEM_MMFF94_ENERGY>  (1) 
13.0737

>  <PUBCHEM_FEATURE_SELFOVERLAP>  (1) 
15.223

>  <PUBCHEM_SHAPE_FINGERPRINT>  (1) 
10608611 8 18413385441016654640
12032990 46 18264492952322533883
12932764 1 17386281004678502668
13380535 76 18268708308077991247
14325111 11 18410856555661391840
15775835 57 18115592534870488024
19973954 147 18411139155877634860
20871998 184 18273218625060833511
23402539 116 18342447128762621941
23552423 10 18333169461962780178
25610 137 18191310579205510707
3248919 1 17274829017092490788
369184 2 18410573998041634291
6333449 129 18412543176512815493

>  <PUBCHEM_SHAPE_MULTIPOLES>  (1) 
204.67
5.85
1.64
0.58
3.79
0.38
0
-0.54
0
-1.22
0
-0.03
0
0

>  <PUBCHEM_SHAPE_SELFOVERLAP>  (1) 
417.231

>  <PUBCHEM_SHAPE_VOLUME>  (1) 
121.5

>  <PUBCHEM_COORDINATE_TYPE>  (1) 
2
5
10

$$$$
