37196
     RDKit          3D

 15 14  0  0  0  0  0  0  0  0999 V2000
    2.2908    1.1236   -0.8729 O   0  0  0  0  0  0  0  0  0  0  0  0
    4.6482    1.7180    0.8913 O   0  0  0  0  0  0  0  0  0  0  0  0
    3.5607   -0.7038   -0.2201 N   0  0  0  0  0  0  0  0  0  0  0  0
   -2.7157    0.3020   -0.0482 C   0  0  0  0  0  0  0  0  0  0  0  0
   -1.4624   -0.5512    0.1702 C   0  0  0  0  0  0  0  0  0  0  0  0
   -4.0182   -0.4435    0.2518 C   0  0  0  0  0  0  0  0  0  0  0  0
   -0.1631    0.1721   -0.2014 C   0  0  0  0  0  0  0  0  0  0  0  0
   -5.2381    0.4291   -0.0522 C   0  0  0  0  0  0  0  0  0  0  0  0
    1.0731   -0.6967    0.0360 C   0  0  0  0  0  0  0  0  0  0  0  0
   -6.5408   -0.3262    0.2102 C   0  0  0  0  0  0  0  0  0  0  0  0
    2.3615   -0.0107   -0.3873 C   0  0  0  0  0  0  0  0  0  0  0  0
    4.8508   -0.1450   -0.6076 C   0  0  0  0  0  0  0  0  0  0  0  0
   -7.7554    0.5481   -0.0583 C   0  0  0  0  0  0  0  0  0  0  0  0
    3.6203   -2.0448    0.3566 C   0  0  0  0  0  0  0  0  0  0  0  0
    5.4883    0.6288    0.5318 C   0  0  0  0  0  0  0  0  0  0  0  0
  1 11  2  0
  2 15  1  0
  3 11  1  0
  3 12  1  0
  3 14  1  0
  4  5  1  0
  4  6  1  0
  5  7  1  0
  6  8  1  0
  7  9  1  0
  8 10  1  0
  9 11  1  0
 10 13  1  0
 12 15  1  0
M  END
>  <PUBCHEM_COMPOUND_CID>  (1) 
37196

>  <PUBCHEM_CONFORMER_RMSD>  (1) 
1

>  <PUBCHEM_CONFORMER_DIVERSEORDER>  (1) 
1
22
80
282
201
155
313
104
271
251
253
171
71
293
108
51
101
133
257
176
45
212
138
252
208
5
329
254
269
146
319
324
148
28
70
119
325
56
8
291
116
105
314
209
10
198
190
99
143
182
88
103
145
141
121
161
163
38
248
63
316
41
40
89
91
233
246
157
131
137
164
331
167
194
142
304
168
7
332
166
112
223
224
25
49
23
258
110
14
6
290
144
35
54
19
323
296
107
84
235
305
174
175
275
16
292
83
139
322
122
203
159
307
237
39
12
226
52
260
77
187
24
339
128
206
81
301
222
334
17
64
183
113
265
127
18
59
340
336
160
306
69
241
36
264
42
193
68
109
330
213
180
111
37
86
311
72
211
243
76
3
310
239
343
26
184
149
210
106
263
188
47
255
96
9
262
192
250
204
295
267
287
15
118
320
256
94
48
247
234
115
67
228
299
195
266
100
220
274
152
117
289
312
11
150
132
30
205
318
44
32
284
308
286
156
242
326
130
191
31
165
298
85
50
60
123
333
162
43
66
277
341
124
13
33
229
98
317
294
215
90
279
244
20
126
114
280
73
4
87
61
151
285
207
172
92
273
238
297
65
154
34
93
219
276
173
189
245
153
21
53
337
288
240
278
236
147
135
125
140
58
232
302
335
272
200
179
338
129
29
230
283
216
214
97
178
57
2
328
186
78
199
227
136
158
217
196
134
27
218
75
270
315
169
300
231
82
202
181
321
177
327
342
261
221
185
46
309
259
225
95
303
74
249
62
281
79
197
55
268
170
120
102

>  <PUBCHEM_MMFF94_PARTIAL_CHARGES>  (1) 
9
1 -0.57
11 0.57
12 0.3
14 0.3
15 0.28
2 -0.68
3 -0.66
40 0.4
9 0.06

>  <PUBCHEM_EFFECTIVE_ROTOR_COUNT>  (1) 
10

>  <PUBCHEM_PHARMACOPHORE_FEATURES>  (1) 
4
1 1 acceptor
1 13 hydrophobe
1 2 acceptor
1 2 donor

>  <PUBCHEM_HEAVY_ATOM_COUNT>  (1) 
15

>  <PUBCHEM_ATOM_DEF_STEREO_COUNT>  (1) 
0

>  <PUBCHEM_ATOM_UDEF_STEREO_COUNT>  (1) 
0

>  <PUBCHEM_BOND_DEF_STEREO_COUNT>  (1) 
0

>  <PUBCHEM_BOND_UDEF_STEREO_COUNT>  (1) 
0

>  <PUBCHEM_ISOTOPIC_ATOM_COUNT>  (1) 
0

>  <PUBCHEM_COMPONENT_COUNT>  (1) 
1

>  <PUBCHEM_CACTVS_TAUTO_COUNT>  (1) 
1

>  <PUBCHEM_CONFORMER_ID>  (1) 
0000914C00000001

>  <PUBCHEM_MMFF94_ENERGY>  (1) 
11.3345

>  <PUBCHEM_FEATURE_SELFOVERLAP>  (1) 
20.298

>  <PUBCHEM_SHAPE_FINGERPRINT>  (1) 
10354089 29 18334296469907738902
12091667 2 18413672410163462823
13073987 5 18335136432546341257
13167372 99 18271530784692067865
13533116 47 18337671914781544746
14123238 8 15267345115358084195
1420 363 16732709337846377491
14251732 16 18272087249191845067
14251764 46 16343705426220492158
17834072 33 18202561787002990399
17834076 25 14764349336081133765
20281389 69 18409450246515615329
20621476 38 10665219350175967529
20645477 70 18335984147601322166
20767249 213 17917993884705639335
21150785 3 13183018548880984408
220451 1 18341897394223486887
23035841 295 8935000365655151781
23402539 116 18335136518772760983
23521765 1 18341896286274489391
23536379 177 18409168788602313611
300161 21 18343298180379184191
33532 11 11097849697006340681
3545911 37 18335140894874917446
42630746 31 18260267434695163538
42788 4 18343866606515816295
4463277 17 18272370863262768241
5374978 207 18409443674877620280
8209 1 18412827979719850526

>  <PUBCHEM_SHAPE_MULTIPOLES>  (1) 
291.97
18.77
1.28
0.76
26.18
0.21
0.01
-2.97
1.42
-1.91
0.19
-0.52
-0.11
0.4

>  <PUBCHEM_SHAPE_SELFOVERLAP>  (1) 
534.168

>  <PUBCHEM_SHAPE_VOLUME>  (1) 
184.9

>  <PUBCHEM_COORDINATE_TYPE>  (1) 
2
5
10

$$$$
