372
     RDKit          3D

 13 13  0  0  0  0  0  0  0  0999 V2000
   -1.2386   -1.1838   -0.0318 O   0  0  0  0  0  0  0  0  0  0  0  0
    2.4456    1.9767   -0.5600 O   0  0  0  0  0  0  0  0  0  0  0  0
   -0.1319   -3.1670   -0.1173 O   0  0  0  0  0  0  0  0  0  0  0  0
   -3.4550    0.1318    0.0270 O   0  0  0  0  0  0  0  0  0  0  0  0
    3.5289    0.2575    0.5164 O   0  0  0  0  0  0  0  0  0  0  0  0
   -2.4505    2.1985    0.1115 O   0  0  0  0  0  0  0  0  0  0  0  0
    1.2227    0.1109    0.0083 C   0  0  0  0  0  0  0  0  0  0  0  0
    0.0096    0.8768    0.0453 C   0  0  0  0  0  0  0  0  0  0  0  0
   -1.1547    0.2206    0.0244 C   0  0  0  0  0  0  0  0  0  0  0  0
    1.1970   -1.2253   -0.0454 C   0  0  0  0  0  0  0  0  0  0  0  0
   -0.0976   -1.9416   -0.0682 C   0  0  0  0  0  0  0  0  0  0  0  0
    2.5303    0.7701    0.0285 C   0  0  0  0  0  0  0  0  0  0  0  0
   -2.4059    0.9747    0.0615 C   0  0  0  0  0  0  0  0  0  0  0  0
  1  9  1  0
  1 11  1  0
  2 12  1  0
  3 11  2  0
  4 13  1  0
  5 12  2  0
  6 13  2  0
  7  8  1  0
  7 10  2  0
  7 12  1  0
  8  9  2  0
  9 13  1  0
 10 11  1  0
M  END
>  <PUBCHEM_COMPOUND_CID>  (1) 
372

>  <PUBCHEM_CONFORMER_RMSD>  (1) 
0.6

>  <PUBCHEM_CONFORMER_DIVERSEORDER>  (1) 
1
2

>  <PUBCHEM_MMFF94_PARTIAL_CHARGES>  (1) 
17
1 -0.23
10 -0.14
11 0.71
12 0.71
13 0.71
14 0.15
15 0.15
16 0.5
17 0.5
2 -0.65
3 -0.57
4 -0.65
5 -0.57
6 -0.57
7 0.01
8 -0.15
9 0.09

>  <PUBCHEM_EFFECTIVE_ROTOR_COUNT>  (1) 
2

>  <PUBCHEM_PHARMACOPHORE_FEATURES>  (1) 
8
1 2 acceptor
1 3 acceptor
1 4 acceptor
1 5 acceptor
1 6 acceptor
3 2 5 12 anion
3 4 6 13 anion
6 1 7 8 9 10 11 rings

>  <PUBCHEM_HEAVY_ATOM_COUNT>  (1) 
13

>  <PUBCHEM_ATOM_DEF_STEREO_COUNT>  (1) 
0

>  <PUBCHEM_ATOM_UDEF_STEREO_COUNT>  (1) 
0

>  <PUBCHEM_BOND_DEF_STEREO_COUNT>  (1) 
0

>  <PUBCHEM_BOND_UDEF_STEREO_COUNT>  (1) 
0

>  <PUBCHEM_ISOTOPIC_ATOM_COUNT>  (1) 
0

>  <PUBCHEM_COMPONENT_COUNT>  (1) 
1

>  <PUBCHEM_CACTVS_TAUTO_COUNT>  (1) 
1

>  <PUBCHEM_CONFORMER_ID>  (1) 
0000017400000001

>  <PUBCHEM_MMFF94_ENERGY>  (1) 
35.0033

>  <PUBCHEM_FEATURE_SELFOVERLAP>  (1) 
40.701

>  <PUBCHEM_SHAPE_FINGERPRINT>  (1) 
1 1 18339360734497493910
10465860 228 17981897345513908617
13380535 76 18411697690335637567
14325111 11 18411418380027640913
14648413 74 17976826380832986129
16945 1 18267587003601564862
17990270 104 17977666411974761395
20510252 161 18199472236622449328
20645477 70 18127404545881156661
20871998 184 18054799647659588167
21028194 46 18272088301073788744
21040471 1 18411701010582389898
21524375 3 18411134736081636411
23402539 116 18270667783600651637
23552423 10 18196092132105214221
241688 4 16825873955084891146
2748010 2 18338526256680055351
305870 269 18265610992090603992
3071541 12 18052824637160622670
528862 383 18262510373569181138
7364860 26 17982450399635572991
81228 2 17908416201508044843

>  <PUBCHEM_SHAPE_MULTIPOLES>  (1) 
232.32
4.43
2.53
0.61
0.11
1.58
0
-2.62
0.29
0.17
-0.2
-0.12
-0.04
-0.17

>  <PUBCHEM_SHAPE_SELFOVERLAP>  (1) 
494.498

>  <PUBCHEM_SHAPE_VOLUME>  (1) 
127.9

>  <PUBCHEM_COORDINATE_TYPE>  (1) 
2
5
10

$$$$
