37203
     RDKit          3D

 17 18  0  0  0  0  0  0  0  0999 V2000
   -3.7349    1.1328   -0.2672 O   0  0  0  0  0  0  0  0  0  0  0  0
   -3.3810   -1.5436    0.3326 O   0  0  0  0  0  0  0  0  0  0  0  0
    4.3144   -1.4611    0.3406 O   0  0  0  0  0  0  0  0  0  0  0  0
    1.1482    1.4277   -0.3131 N   0  0  0  0  0  0  0  0  0  0  0  0
    1.4395   -0.7231    0.1655 N   0  0  0  0  0  0  0  0  0  0  0  0
    3.3891    0.6610   -0.1346 N   0  0  0  0  0  0  0  0  0  0  0  0
   -0.1141    0.9036   -0.2008 C   0  0  0  0  0  0  0  0  0  0  0  0
    0.0946   -0.4400    0.0982 C   0  0  0  0  0  0  0  0  0  0  0  0
   -1.3817    1.4718   -0.3310 C   0  0  0  0  0  0  0  0  0  0  0  0
    2.0413    0.4180   -0.0858 C   0  0  0  0  0  0  0  0  0  0  0  0
   -1.0158   -1.2814    0.2813 C   0  0  0  0  0  0  0  0  0  0  0  0
   -2.4755    0.6201   -0.1453 C   0  0  0  0  0  0  0  0  0  0  0  0
   -2.2979   -0.7324    0.1554 C   0  0  0  0  0  0  0  0  0  0  0  0
    4.4208   -0.2683    0.0759 C   0  0  0  0  0  0  0  0  0  0  0  0
   -4.3384    1.6497    0.9155 C   0  0  0  0  0  0  0  0  0  0  0  0
   -3.8902   -2.2026   -0.8239 C   0  0  0  0  0  0  0  0  0  0  0  0
    5.7817    0.3679   -0.0632 C   0  0  0  0  0  0  0  0  0  0  0  0
  1 12  1  0
  1 15  1  0
  2 13  1  0
  2 16  1  0
  3 14  2  0
  4  7  1  0
  4 10  1  0
  5  8  1  0
  5 10  2  0
  6 10  1  0
  6 14  1  0
  7  8  2  0
  7  9  1  0
  8 11  1  0
  9 12  2  0
 11 13  2  0
 12 13  1  0
 14 17  1  0
M  END
>  <PUBCHEM_COMPOUND_CID>  (1) 
37203

>  <PUBCHEM_CONFORMER_RMSD>  (1) 
0.6

>  <PUBCHEM_CONFORMER_DIVERSEORDER>  (1) 
1
6
3
5
4
2

>  <PUBCHEM_MMFF94_PARTIAL_CHARGES>  (1) 
21
1 -0.36
10 0.25
11 -0.15
12 0.08
13 0.08
14 0.57
15 0.28
16 0.28
17 0.06
18 0.27
19 0.15
2 -0.36
20 0.15
21 0.37
3 -0.57
4 0.03
5 -0.57
6 -0.49
7 -0.15
8 0.23
9 -0.15

>  <PUBCHEM_EFFECTIVE_ROTOR_COUNT>  (1) 
4

>  <PUBCHEM_PHARMACOPHORE_FEATURES>  (1) 
7
1 1 acceptor
1 2 acceptor
1 3 acceptor
1 4 donor
1 6 donor
5 4 5 7 8 10 rings
6 7 8 9 11 12 13 rings

>  <PUBCHEM_HEAVY_ATOM_COUNT>  (1) 
17

>  <PUBCHEM_ATOM_DEF_STEREO_COUNT>  (1) 
0

>  <PUBCHEM_ATOM_UDEF_STEREO_COUNT>  (1) 
0

>  <PUBCHEM_BOND_DEF_STEREO_COUNT>  (1) 
0

>  <PUBCHEM_BOND_UDEF_STEREO_COUNT>  (1) 
0

>  <PUBCHEM_ISOTOPIC_ATOM_COUNT>  (1) 
0

>  <PUBCHEM_COMPONENT_COUNT>  (1) 
1

>  <PUBCHEM_CACTVS_TAUTO_COUNT>  (1) 
3

>  <PUBCHEM_CONFORMER_ID>  (1) 
0000915300000001

>  <PUBCHEM_MMFF94_ENERGY>  (1) 
55.1224

>  <PUBCHEM_FEATURE_SELFOVERLAP>  (1) 
35.669

>  <PUBCHEM_SHAPE_FINGERPRINT>  (1) 
10062212 137 18409163316154913667
11046707 91 18412823624607324455
11132069 177 18335980895920214660
11401426 45 18408601457265441492
12032990 46 18335985366959966874
13140716 1 18337118955285959745
13214271 11 18273213097147584805
13288520 33 18411982485337691070
13583140 156 16415190178816130294
13760787 5 17458349658362713148
14508225 48 18264756831176877653
15196674 1 18409166602253249058
16945 1 18264483997468416669
17804303 29 18411702105820402728
17834072 33 18336829788196537932
18186145 218 15864073208366971412
19141452 34 18411703153760527743
19422 9 18334861657449489636
200 152 18272081738669722223
20281475 54 18335415760197451466
21267235 1 18335990860270903571
21339142 126 18114179688241148773
21501502 16 18337116781805557133
22485316 2 18410009927639818898
23402539 116 18410288120966090612
23557571 272 18131077055687159295
23559900 14 18342455916381688720
25147074 1 18264503934706812765
3286 77 18200308960729194061
34934 24 18262795168803251915
4214541 1 18410855464723939376
5104073 3 18409165528405749040
573450 72 18409440380326675810
633830 44 16950568770206546748
77779 3 18410012139569088328
9709674 26 18408048411855251586

>  <PUBCHEM_SHAPE_MULTIPOLES>  (1) 
317.3
10.19
1.89
0.72
10.37
0.4
-0.01
0.64
-0.49
-2.29
0.08
-0.38
0
-0.76

>  <PUBCHEM_SHAPE_SELFOVERLAP>  (1) 
676.963

>  <PUBCHEM_SHAPE_VOLUME>  (1) 
178.1

>  <PUBCHEM_COORDINATE_TYPE>  (1) 
2
5
10

$$$$
