37208
     RDKit          3D

 14 14  0  0  1  0  0  0  0  0999 V2000
    2.9222    1.1180   -1.7972 Cl  0  0  0  0  0  0  0  0  0  0  0  0
    4.7374   -0.6226   -0.3295 Cl  0  0  0  0  0  0  0  0  0  0  0  0
    2.8281    1.1431    1.3185 O   0  0  0  0  0  0  0  0  0  0  0  0
    0.1186   -1.8939    0.6241 O   0  0  0  0  0  0  0  0  0  0  0  0
    0.8598    0.2928    0.4143 N   0  0  0  0  0  0  0  0  0  0  0  0
    2.2693    0.0235    0.6439 C   0  0  0  0  0  0  0  0  0  0  0  0
   -1.4939   -0.2592    0.1482 C   0  0  0  0  0  0  0  0  0  0  0  0
   -0.1040   -0.7026    0.4248 C   0  0  0  0  0  0  0  0  0  0  0  0
    3.0230   -0.2547   -0.6598 C   0  0  0  0  0  0  0  0  0  0  0  0
   -2.3825   -1.1578   -0.4057 C   0  0  0  0  0  0  0  0  0  0  0  0
   -1.8536    1.0373    0.4542 C   0  0  0  0  0  0  0  0  0  0  0  0
   -3.6883   -0.7415   -0.6654 C   0  0  0  0  0  0  0  0  0  0  0  0
   -3.1594    1.4535    0.1946 C   0  0  0  0  0  0  0  0  0  0  0  0
   -4.0767    0.5641   -0.3651 C   0  0  0  0  0  0  0  0  0  0  0  0
  1  9  1  0
  2  9  1  0
  3  6  1  0
  4  8  2  0
  5  6  1  0
  5  8  1  0
  6  9  1  0
  7  8  1  0
  7 10  2  0
  7 11  1  0
 10 12  1  0
 11 13  2  0
 12 14  2  0
 13 14  1  0
M  END
>  <PUBCHEM_COMPOUND_CID>  (1) 
37208

>  <PUBCHEM_CONFORMER_RMSD>  (1) 
0.6

>  <PUBCHEM_CONFORMER_DIVERSEORDER>  (1) 
1
16
13
22
4
17
18
25
9
24
19
5
20
6
10
12
21
11
2
7
23
3
15
8
14

>  <PUBCHEM_MMFF94_PARTIAL_CHARGES>  (1) 
21
1 -0.29
10 -0.15
11 -0.15
12 -0.15
13 -0.15
14 -0.15
16 0.37
18 0.15
19 0.15
2 -0.29
20 0.15
21 0.15
22 0.15
23 0.4
3 -0.68
4 -0.57
5 -0.73
6 0.58
7 0.09
8 0.54
9 0.58

>  <PUBCHEM_EFFECTIVE_ROTOR_COUNT>  (1) 
4

>  <PUBCHEM_PHARMACOPHORE_FEATURES>  (1) 
5
1 3 acceptor
1 3 donor
1 4 acceptor
1 5 donor
6 7 10 11 12 13 14 rings

>  <PUBCHEM_HEAVY_ATOM_COUNT>  (1) 
14

>  <PUBCHEM_ATOM_DEF_STEREO_COUNT>  (1) 
0

>  <PUBCHEM_ATOM_UDEF_STEREO_COUNT>  (1) 
1

>  <PUBCHEM_BOND_DEF_STEREO_COUNT>  (1) 
0

>  <PUBCHEM_BOND_UDEF_STEREO_COUNT>  (1) 
0

>  <PUBCHEM_ISOTOPIC_ATOM_COUNT>  (1) 
0

>  <PUBCHEM_COMPONENT_COUNT>  (1) 
1

>  <PUBCHEM_CACTVS_TAUTO_COUNT>  (1) 
2

>  <PUBCHEM_CONFORMER_ID>  (1) 
0000915800000001

>  <PUBCHEM_MMFF94_ENERGY>  (1) 
28.399

>  <PUBCHEM_FEATURE_SELFOVERLAP>  (1) 
25.416

>  <PUBCHEM_SHAPE_FINGERPRINT>  (1) 
11615757 297 16877947147946239277
12251169 10 8142079857932942058
12932764 1 18130793373123690699
13296908 3 17560798861624867569
13705890 14 16487252183911902874
14289901 80 13479137908061301405
14350558 41 14549025372870708412
14993402 34 17894348890770161118
15775835 57 18337110072902740089
18186145 218 17917714608124489041
1986462 14 18202565077237875173
200 152 15841549665147647962
20233049 118 18411418384944983624
20279233 1 17203894054422734766
20300324 65 18272089409296495005
20361792 2 12823292394842010579
20645476 183 17967250926918609939
20645477 70 16486976206540778292
20671657 53 16630256826789413896
22854114 59 13695589953190832381
231179 274 16515401863574113062
23402539 116 18411697660798134124
23557571 272 17773875479097970049
23559900 14 18201997746897905472
2748010 2 17907845555553263411
449060 50 12468642720279703278
474 4 17894634721028371523
4990 188 17989208126895999870
57096353 35 18410844487088315511
57812782 119 17489588961029368876
7364860 26 18126841595269053499
74978 22 17895481439650335666
93112 12 18060416923753397134
9882013 296 8646481904081366030
9971528 1 18186520991287147060

>  <PUBCHEM_SHAPE_MULTIPOLES>  (1) 
275.13
8.53
1.45
1.14
2.69
0.07
0.2
-0.81
1.95
-0.36
0.01
0.88
-0.33
-0.52

>  <PUBCHEM_SHAPE_SELFOVERLAP>  (1) 
545.433

>  <PUBCHEM_SHAPE_VOLUME>  (1) 
164.6

>  <PUBCHEM_COORDINATE_TYPE>  (1) 
2
5
10

$$$$
