37201
     RDKit          3D

 24 26  0  0  0  0  0  0  0  0999 V2000
   -0.9889   -0.9344    0.0317 O   0  0  0  0  0  0  0  0  0  0  0  0
   -3.3100    2.4768    0.4788 O   0  0  0  0  0  0  0  0  0  0  0  0
   -3.1157   -2.1076   -0.4243 O   0  0  0  0  0  0  0  0  0  0  0  0
   -0.8889    1.3242   -0.0259 N   0  0  0  0  0  0  0  0  0  0  0  0
   -3.0201    0.1932    0.0249 N   0  0  0  0  0  0  0  0  0  0  0  0
    0.3231   -0.5690    0.0100 C   0  0  0  0  0  0  0  0  0  0  0  0
    0.3792    0.8021   -0.0252 C   0  0  0  0  0  0  0  0  0  0  0  0
    1.2723   -1.6441    0.0287 C   0  0  0  0  0  0  0  0  0  0  0  0
    1.5707    1.5919   -0.0558 C   0  0  0  0  0  0  0  0  0  0  0  0
   -1.5957    0.2570    0.0075 C   0  0  0  0  0  0  0  0  0  0  0  0
    2.5293   -1.4667    0.6169 C   0  0  0  0  0  0  0  0  0  0  0  0
    0.9495   -2.8796   -0.5426 C   0  0  0  0  0  0  0  0  0  0  0  0
    2.1465    1.9501   -1.2784 C   0  0  0  0  0  0  0  0  0  0  0  0
    2.1680    2.0114    1.1365 C   0  0  0  0  0  0  0  0  0  0  0  0
   -3.7224    1.4164    0.0034 C   0  0  0  0  0  0  0  0  0  0  0  0
   -3.6095   -1.0877    0.0622 C   0  0  0  0  0  0  0  0  0  0  0  0
    3.4524   -2.5125    0.6336 C   0  0  0  0  0  0  0  0  0  0  0  0
    1.8722   -3.9255   -0.5257 C   0  0  0  0  0  0  0  0  0  0  0  0
    3.3088    2.7208   -1.3085 C   0  0  0  0  0  0  0  0  0  0  0  0
    3.3302    2.7822    1.1067 C   0  0  0  0  0  0  0  0  0  0  0  0
    3.1238   -3.7417    0.0623 C   0  0  0  0  0  0  0  0  0  0  0  0
    3.9006    3.1368   -0.1159 C   0  0  0  0  0  0  0  0  0  0  0  0
   -5.1019    1.3563   -0.6099 C   0  0  0  0  0  0  0  0  0  0  0  0
   -4.9735   -1.1504    0.7089 C   0  0  0  0  0  0  0  0  0  0  0  0
  1  6  1  0
  1 10  1  0
  2 15  2  0
  3 16  2  0
  4  7  1  0
  4 10  2  0
  5 10  1  0
  5 15  1  0
  5 16  1  0
  6  7  2  0
  6  8  1  0
  7  9  1  0
  8 11  2  0
  8 12  1  0
  9 13  2  0
  9 14  1  0
 11 17  1  0
 12 18  2  0
 13 19  1  0
 14 20  2  0
 15 23  1  0
 16 24  1  0
 17 21  2  0
 18 21  1  0
 19 22  2  0
 20 22  1  0
M  END
>  <PUBCHEM_COMPOUND_CID>  (1) 
37201

>  <PUBCHEM_CONFORMER_RMSD>  (1) 
0.8

>  <PUBCHEM_CONFORMER_DIVERSEORDER>  (1) 
1
5
3
2
4

>  <PUBCHEM_MMFF94_PARTIAL_CHARGES>  (1) 
34
1 -0.28
10 0.54
11 -0.15
12 -0.15
13 -0.15
14 -0.15
15 0.57
16 0.57
17 -0.15
18 -0.15
19 -0.15
2 -0.57
20 -0.15
21 -0.15
22 -0.15
23 0.06
24 0.06
25 0.15
26 0.15
27 0.15
28 0.15
29 0.15
3 -0.57
30 0.15
31 0.15
32 0.15
33 0.15
34 0.15
4 -0.57
5 -0.18
6 0.09
7 0.17
8 0.05
9 0.05

>  <PUBCHEM_EFFECTIVE_ROTOR_COUNT>  (1) 
5

>  <PUBCHEM_PHARMACOPHORE_FEATURES>  (1) 
5
1 2 acceptor
1 3 acceptor
5 1 4 6 7 10 rings
6 8 11 12 17 18 21 rings
6 9 13 14 19 20 22 rings

>  <PUBCHEM_HEAVY_ATOM_COUNT>  (1) 
24

>  <PUBCHEM_ATOM_DEF_STEREO_COUNT>  (1) 
0

>  <PUBCHEM_ATOM_UDEF_STEREO_COUNT>  (1) 
0

>  <PUBCHEM_BOND_DEF_STEREO_COUNT>  (1) 
0

>  <PUBCHEM_BOND_UDEF_STEREO_COUNT>  (1) 
0

>  <PUBCHEM_ISOTOPIC_ATOM_COUNT>  (1) 
0

>  <PUBCHEM_COMPONENT_COUNT>  (1) 
1

>  <PUBCHEM_CACTVS_TAUTO_COUNT>  (1) 
1

>  <PUBCHEM_CONFORMER_ID>  (1) 
0000915100000001

>  <PUBCHEM_MMFF94_ENERGY>  (1) 
78.5255

>  <PUBCHEM_FEATURE_SELFOVERLAP>  (1) 
25.373

>  <PUBCHEM_SHAPE_FINGERPRINT>  (1) 
1100329 8 17836652924737068649
11045515 52 17829617158557215404
11578080 2 15437989268486625148
11582403 64 16340571938657381296
11963148 33 17901944463631356163
12173636 292 17977662344509149380
12422481 6 18118654731052734448
12592029 89 18337114595661623656
12788726 201 17324086932001591386
12839892 36 18265880544327817570
13004483 165 17615682934509609034
13140716 1 18338240362835930161
133893 2 18190766187832467752
13533116 47 18341608192906325277
13540713 4 18187087235469895603
138480 1 18267021661604554274
13911987 19 17830447641992265989
14022347 108 17689448087259000883
140371 6 18054512396167765307
14347424 109 18267043712641957723
14790565 3 18121783000020376380
14955137 171 18341890741524717770
15042514 8 17544477913075884922
15664445 248 17984438351614735446
15927050 60 18197216069718911694
16752209 62 17472413735153688050
17492 89 18409449181110869259
17980427 23 17486202319319293249
1813 80 17975134245211970874
18785283 64 18334577940816348432
19591789 44 17617945072225049659
20028762 73 17191799684400996287
20286276 3 18337117778659735531
20567600 347 18190463950941663042
20600515 1 17766564551549437822
20642791 178 18335709325686578404
21033648 29 18055345005443478400
21120745 212 17552098203535729654
21304303 172 17553481379803618240
21796203 349 17905928857235771170
221490 88 18335709316854278219
22393880 68 18342184400616551511
23366157 5 18187366510663857842
23419403 2 17751619001920646420
23559900 14 18340477860134245579
25147074 1 18201721730798292933
3091708 16 9329769024385991482
314173 41 18120657933237021011
350125 39 18410014342418053132
352729 6 17684378634121437759
43471831 8 18338516472733739080
458136 41 18338249274223052267
469060 322 18048053032270756609
5104073 3 18409739448227818809
5265222 85 17904494244624167892
59755656 215 18409168847983016501
6442390 28 18195813104991213704
6443956 14 18195807371457390722
7364860 26 18412260610493001400
7808743 9 17617939570778723152
81228 2 17330853317889368394
84936 182 18343585157140624360
9709674 26 18408886209740477779
9841814 1 17969215634075122106
9981440 41 18192710261554834657

>  <PUBCHEM_SHAPE_MULTIPOLES>  (1) 
466.34
8.81
5.06
0.97
10.83
2.68
-0.04
-2.68
0.42
-6.75
-0.39
-0.61
-0.45
-0.1

>  <PUBCHEM_SHAPE_SELFOVERLAP>  (1) 
1024.409

>  <PUBCHEM_SHAPE_VOLUME>  (1) 
252.2

>  <PUBCHEM_COORDINATE_TYPE>  (1) 
2
5
10

$$$$
