37204
     RDKit          3D

 15 16  0  0  0  0  0  0  0  0999 V2000
    3.8516   -1.4710    0.0005 O   0  0  0  0  0  0  0  0  0  0  0  0
    0.5881    1.4255    0.0010 N   0  0  0  0  0  0  0  0  0  0  0  0
    0.9053   -0.7743    0.0009 N   0  0  0  0  0  0  0  0  0  0  0  0
    2.8382    0.6644    0.0011 N   0  0  0  0  0  0  0  0  0  0  0  0
   -0.6677    0.8746    0.0005 C   0  0  0  0  0  0  0  0  0  0  0  0
   -0.4429   -0.4991    0.0005 C   0  0  0  0  0  0  0  0  0  0  0  0
   -3.0256    0.5582   -0.0005 C   0  0  0  0  0  0  0  0  0  0  0  0
   -2.8319   -0.8250   -0.0003 C   0  0  0  0  0  0  0  0  0  0  0  0
   -1.9421    1.4427    0.0001 C   0  0  0  0  0  0  0  0  0  0  0  0
   -1.5431   -1.3731    0.0001 C   0  0  0  0  0  0  0  0  0  0  0  0
    1.4933    0.4010    0.0012 C   0  0  0  0  0  0  0  0  0  0  0  0
   -4.4075    1.1308   -0.0009 C   0  0  0  0  0  0  0  0  0  0  0  0
   -4.0010   -1.7573   -0.0009 C   0  0  0  0  0  0  0  0  0  0  0  0
    3.9234   -0.2463    0.0007 C   0  0  0  0  0  0  0  0  0  0  0  0
    5.2618    0.4487   -0.0038 C   0  0  0  0  0  0  0  0  0  0  0  0
  1 14  2  0
  2  5  1  0
  2 11  1  0
  3  6  1  0
  3 11  2  0
  4 11  1  0
  4 14  1  0
  5  6  2  0
  5  9  1  0
  6 10  1  0
  7  8  1  0
  7  9  2  0
  7 12  1  0
  8 10  2  0
  8 13  1  0
 14 15  1  0
M  END
>  <PUBCHEM_COMPOUND_CID>  (1) 
37204

>  <PUBCHEM_CONFORMER_RMSD>  (1) 
0.6

>  <PUBCHEM_CONFORMER_DIVERSEORDER>  (1) 
1
4
3
2

>  <PUBCHEM_MMFF94_PARTIAL_CHARGES>  (1) 
19
1 -0.57
10 -0.15
11 0.25
12 0.14
13 0.14
14 0.57
15 0.06
16 0.15
17 0.15
18 0.27
2 0.03
25 0.37
3 -0.57
4 -0.49
5 -0.15
6 0.23
7 -0.14
8 -0.14
9 -0.15

>  <PUBCHEM_EFFECTIVE_ROTOR_COUNT>  (1) 
2

>  <PUBCHEM_PHARMACOPHORE_FEATURES>  (1) 
5
1 1 acceptor
1 2 donor
1 4 donor
5 2 3 5 6 11 rings
6 5 6 7 8 9 10 rings

>  <PUBCHEM_HEAVY_ATOM_COUNT>  (1) 
15

>  <PUBCHEM_ATOM_DEF_STEREO_COUNT>  (1) 
0

>  <PUBCHEM_ATOM_UDEF_STEREO_COUNT>  (1) 
0

>  <PUBCHEM_BOND_DEF_STEREO_COUNT>  (1) 
0

>  <PUBCHEM_BOND_UDEF_STEREO_COUNT>  (1) 
0

>  <PUBCHEM_ISOTOPIC_ATOM_COUNT>  (1) 
0

>  <PUBCHEM_COMPONENT_COUNT>  (1) 
1

>  <PUBCHEM_CACTVS_TAUTO_COUNT>  (1) 
3

>  <PUBCHEM_CONFORMER_ID>  (1) 
0000915400000001

>  <PUBCHEM_MMFF94_ENERGY>  (1) 
31.04

>  <PUBCHEM_FEATURE_SELFOVERLAP>  (1) 
25.515

>  <PUBCHEM_SHAPE_FINGERPRINT>  (1) 
10014705 185 18259982665140887829
10062212 137 18410567388340563095
11132069 177 18410008823316408640
11401426 45 18410852157340678125
12032990 46 18411703205078641050
13214271 11 18343580750609160509
13288520 33 18412546530644870895
13380535 76 18341333301629273767
13690532 89 18409166636243507943
14325111 11 18410856572640917888
15196674 1 18410573972546500870
15219456 202 18059301971713184007
15242433 33 18408324367629577686
15536298 74 18341331210096446448
16945 1 18338516344544259077
17804303 29 18341896319990883385
17834072 33 18336267941949510908
18186145 218 16226047829298641468
19422 9 18334018323440985829
1986462 14 18408886243582751295
200 152 17775278374805361413
20279233 1 17846505819835894748
20645477 70 17845938412345074742
21267235 1 18337680805353089699
22485316 2 18410291402442462754
2297311 6 18202015334562369596
23402539 116 18341887498228141573
23463225 33 18409167697248116702
23559900 14 18342173341787829250
2748010 2 18267298910592051509
42 15 18408886226645494538
4214541 1 18410573981036039776
474 4 16879640504003053572
5104073 3 18411135831609612138
573450 72 18260818272729566432
69090 78 18272083881436338247
7364860 26 18195809802472885248
77779 3 18410857659594522504
8809292 202 18261959643119483395
9709674 26 18410581690792915262

>  <PUBCHEM_SHAPE_MULTIPOLES>  (1) 
287.88
9.31
1.64
0.59
7.9
0.23
0
0.67
0.01
-1.22
0
-0.05
0
0

>  <PUBCHEM_SHAPE_SELFOVERLAP>  (1) 
617.733

>  <PUBCHEM_SHAPE_VOLUME>  (1) 
161.3

>  <PUBCHEM_COORDINATE_TYPE>  (1) 
2
5
10

$$$$
