37200
     RDKit          3D

 21 23  0  0  0  0  0  0  0  0999 V2000
   -1.1466    1.4758   -0.0470 O   0  0  0  0  0  0  0  0  0  0  0  0
   -4.6255   -1.0818   -0.0182 O   0  0  0  0  0  0  0  0  0  0  0  0
   -1.6655   -0.7249    0.0047 N   0  0  0  0  0  0  0  0  0  0  0  0
   -3.4081    0.9435   -0.0556 N   0  0  0  0  0  0  0  0  0  0  0  0
    0.0162    0.7670   -0.0185 C   0  0  0  0  0  0  0  0  0  0  0  0
   -0.3075   -0.5627    0.0129 C   0  0  0  0  0  0  0  0  0  0  0  0
    1.2223    1.5431   -0.0283 C   0  0  0  0  0  0  0  0  0  0  0  0
    0.6282   -1.6519    0.0485 C   0  0  0  0  0  0  0  0  0  0  0  0
   -2.1075    0.5118   -0.0308 C   0  0  0  0  0  0  0  0  0  0  0  0
    2.3874    1.0311   -0.6094 C   0  0  0  0  0  0  0  0  0  0  0  0
    1.2441    2.8193    0.5445 C   0  0  0  0  0  0  0  0  0  0  0  0
    1.0724   -2.1498    1.2734 C   0  0  0  0  0  0  0  0  0  0  0  0
    1.0923   -2.2118   -1.1416 C   0  0  0  0  0  0  0  0  0  0  0  0
    3.5603    1.7861   -0.6177 C   0  0  0  0  0  0  0  0  0  0  0  0
    2.4169    3.5744    0.5363 C   0  0  0  0  0  0  0  0  0  0  0  0
    1.9808   -3.2078    1.3081 C   0  0  0  0  0  0  0  0  0  0  0  0
    2.0007   -3.2699   -1.1070 C   0  0  0  0  0  0  0  0  0  0  0  0
    3.5749    3.0578   -0.0448 C   0  0  0  0  0  0  0  0  0  0  0  0
    2.4450   -3.7677    0.1179 C   0  0  0  0  0  0  0  0  0  0  0  0
   -4.5616    0.1427   -0.0480 C   0  0  0  0  0  0  0  0  0  0  0  0
   -5.8192    0.9755   -0.0794 C   0  0  0  0  0  0  0  0  0  0  0  0
  1  5  1  0
  1  9  1  0
  2 20  2  0
  3  6  1  0
  3  9  2  0
  4  9  1  0
  4 20  1  0
  5  6  2  0
  5  7  1  0
  6  8  1  0
  7 10  2  0
  7 11  1  0
  8 12  2  0
  8 13  1  0
 10 14  1  0
 11 15  2  0
 12 16  1  0
 13 17  2  0
 14 18  2  0
 15 18  1  0
 16 19  2  0
 17 19  1  0
 20 21  1  0
M  END
>  <PUBCHEM_COMPOUND_CID>  (1) 
37200

>  <PUBCHEM_CONFORMER_RMSD>  (1) 
0.6

>  <PUBCHEM_CONFORMER_DIVERSEORDER>  (1) 
1
7
6
4
3
8
5
2

>  <PUBCHEM_MMFF94_PARTIAL_CHARGES>  (1) 
32
1 -0.28
10 -0.15
11 -0.15
12 -0.15
13 -0.15
14 -0.15
15 -0.15
16 -0.15
17 -0.15
18 -0.15
19 -0.15
2 -0.57
20 0.57
21 0.06
22 0.15
23 0.15
24 0.15
25 0.15
26 0.15
27 0.15
28 0.15
29 0.15
3 -0.57
30 0.37
31 0.15
32 0.15
4 -0.49
5 0.09
6 0.17
7 0.05
8 0.05
9 0.54

>  <PUBCHEM_EFFECTIVE_ROTOR_COUNT>  (1) 
4

>  <PUBCHEM_PHARMACOPHORE_FEATURES>  (1) 
5
1 2 acceptor
1 4 donor
5 1 3 5 6 9 rings
6 7 10 11 14 15 18 rings
6 8 12 13 16 17 19 rings

>  <PUBCHEM_HEAVY_ATOM_COUNT>  (1) 
21

>  <PUBCHEM_ATOM_DEF_STEREO_COUNT>  (1) 
0

>  <PUBCHEM_ATOM_UDEF_STEREO_COUNT>  (1) 
0

>  <PUBCHEM_BOND_DEF_STEREO_COUNT>  (1) 
0

>  <PUBCHEM_BOND_UDEF_STEREO_COUNT>  (1) 
0

>  <PUBCHEM_ISOTOPIC_ATOM_COUNT>  (1) 
0

>  <PUBCHEM_COMPONENT_COUNT>  (1) 
1

>  <PUBCHEM_CACTVS_TAUTO_COUNT>  (1) 
3

>  <PUBCHEM_CONFORMER_ID>  (1) 
0000915000000001

>  <PUBCHEM_MMFF94_ENERGY>  (1) 
52.8084

>  <PUBCHEM_FEATURE_SELFOVERLAP>  (1) 
25.373

>  <PUBCHEM_SHAPE_FINGERPRINT>  (1) 
10411042 1 17978793406792725071
10693767 8 17988369169797197622
107951 10 17605284072015259178
1100329 8 18410289225058184738
11578080 2 17314780807069317141
12532896 13 18122623031288278100
12553582 1 17834121849069842963
12592029 89 18409448115367571240
12644460 14 18410863131446155025
12730499 353 18337681901186630001
12788726 201 17254009549482693090
13009979 54 17486783973823250899
13140716 1 18266452281779265928
13149001 5 17394418352691653965
13257819 37 17900281980310285652
138480 1 18267022752278321142
13878862 14 18192130635299249749
13955234 65 18410857651062597761
14347424 109 18339658750632790019
14787075 74 18042697100430723434
14790565 3 18121503711303585637
14955137 171 18339914940504214298
15502722 9 18410012139384472063
15664445 248 18054519001743785415
15927050 60 18195527215431844030
17980427 26 17986650744497149172
1813 80 17983857774704008919
19591789 44 18123189262338244147
20028762 73 17692821797482587447
20369508 70 18189051985054704803
20554085 129 18058996406470944192
20567600 347 18262519337239826195
20600515 1 17397231985698542072
20645477 70 18410290277604292487
20905425 154 18196376905769912844
21421861 104 18339088073036521409
21452121 199 18194677060413484770
21524375 3 18338800151150206380
22182313 1 17676757675039444805
23366157 5 18188496782852806021
23419403 2 17319063452278302450
23557571 272 17404570083669332150
23558518 356 17690833888679750732
23559900 14 18338793399868026355
23728640 28 17977656843198862082
3084891 72 18269276927431071496
3091708 16 9257148475777713674
3187 122 17685747161806618698
3411729 13 18408039611155603625
3759504 43 17973445691636060508
38695281 34 18272089447766902975
5104073 3 18336557023967489617
5385378 56 18411705387307623905
59755656 215 18334858307686592597
6138700 20 18411144615461258094
633830 44 18199466739354948061
7364860 26 18411982429492488679
77188 2 18050566240361664286
81228 2 17116342975612829008
81539 233 18334857250960717589
8272917 22 18411140229698502245
9841814 1 18189331260781144731

>  <PUBCHEM_SHAPE_MULTIPOLES>  (1) 
410.47
7.75
5.1
0.96
15.63
1.54
0.07
-3.37
-0.57
-7.72
0.58
-0.62
0.65
-0.07

>  <PUBCHEM_SHAPE_SELFOVERLAP>  (1) 
901.365

>  <PUBCHEM_SHAPE_VOLUME>  (1) 
221.2

>  <PUBCHEM_COORDINATE_TYPE>  (1) 
2
5
10

$$$$
