37213
     RDKit          3D

 22 24  0  0  0  0  0  0  0  0999 V2000
    0.9178    1.6345   -0.0806 O   0  0  0  0  0  0  0  0  0  0  0  0
   -2.4504    0.4234    0.0501 O   0  0  0  0  0  0  0  0  0  0  0  0
    5.0202   -1.9777    0.1083 O   0  0  0  0  0  0  0  0  0  0  0  0
    5.6568    0.7809   -0.0892 O   0  0  0  0  0  0  0  0  0  0  0  0
   -1.7226    2.5924   -0.1082 O   0  0  0  0  0  0  0  0  0  0  0  0
   -7.0678   -1.0555    0.2516 N   0  0  0  0  0  0  0  0  0  0  0  0
   -4.7368   -0.3150    0.1320 C   0  0  0  0  0  0  0  0  0  0  0  0
   -6.2013    0.1115    0.1388 C   0  0  0  0  0  0  0  0  0  0  0  0
   -3.8056    0.8860    0.0370 C   0  0  0  0  0  0  0  0  0  0  0  0
    1.6837   -0.4871    0.0538 C   0  0  0  0  0  0  0  0  0  0  0  0
    2.0362    0.8562   -0.0432 C   0  0  0  0  0  0  0  0  0  0  0  0
   -0.1492    0.7972   -0.0079 C   0  0  0  0  0  0  0  0  0  0  0  0
    0.2637   -0.5121    0.0759 C   0  0  0  0  0  0  0  0  0  0  0  0
    2.7044   -1.4538    0.1055 C   0  0  0  0  0  0  0  0  0  0  0  0
    3.3492    1.3240   -0.0939 C   0  0  0  0  0  0  0  0  0  0  0  0
    4.0334   -1.0152    0.0567 C   0  0  0  0  0  0  0  0  0  0  0  0
    4.3473    0.3483   -0.0411 C   0  0  0  0  0  0  0  0  0  0  0  0
   -6.8798   -1.9497   -0.8925 C   0  0  0  0  0  0  0  0  0  0  0  0
   -8.4705   -0.6488    0.3525 C   0  0  0  0  0  0  0  0  0  0  0  0
   -1.4499    1.3748   -0.0287 C   0  0  0  0  0  0  0  0  0  0  0  0
    6.3110   -1.5056    0.0581 C   0  0  0  0  0  0  0  0  0  0  0  0
    6.6102   -0.2088   -0.0349 C   0  0  0  0  0  0  0  0  0  0  0  0
  1 11  1  0
  1 12  1  0
  2  9  1  0
  2 20  1  0
  3 16  1  0
  3 21  1  0
  4 17  1  0
  4 22  1  0
  5 20  2  0
  6  8  1  0
  6 18  1  0
  6 19  1  0
  7  8  1  0
  7  9  1  0
 10 11  2  0
 10 13  1  0
 10 14  1  0
 11 15  1  0
 12 13  2  0
 12 20  1  0
 14 16  2  0
 15 17  2  0
 16 17  1  0
 21 22  2  0
M  END
>  <PUBCHEM_COMPOUND_CID>  (1) 
37213

>  <PUBCHEM_CONFORMER_RMSD>  (1) 
0.8

>  <PUBCHEM_CONFORMER_DIVERSEORDER>  (1) 
1
48
35
6
50
40
13
58
9
46
44
51
8
19
54
45
23
36
53
59
12
42
25
26
29
52
11
7
22
2
38
57
14
27
49
10
31
34
17
41
4
16
33
55
60
15
30
5
39
28
18
3
61
24
32
21
47
43
37
20
56

>  <PUBCHEM_MMFF94_PARTIAL_CHARGES>  (1) 
25
1 -0.28
11 0.14
12 0.05
13 -0.15
14 -0.15
15 -0.15
16 0.08
17 0.08
18 0.27
19 0.27
2 -0.43
20 0.81
21 -0.07
22 -0.07
29 0.15
3 -0.16
30 0.15
31 0.15
38 0.15
39 0.15
4 -0.16
5 -0.57
6 -0.81
8 0.27
9 0.28

>  <PUBCHEM_EFFECTIVE_ROTOR_COUNT>  (1) 
6.4

>  <PUBCHEM_PHARMACOPHORE_FEATURES>  (1) 
8
1 1 acceptor
1 3 acceptor
1 4 acceptor
1 5 acceptor
1 6 cation
5 1 10 11 12 13 rings
6 10 11 14 15 16 17 rings
6 3 4 16 17 21 22 rings

>  <PUBCHEM_HEAVY_ATOM_COUNT>  (1) 
22

>  <PUBCHEM_ATOM_DEF_STEREO_COUNT>  (1) 
0

>  <PUBCHEM_ATOM_UDEF_STEREO_COUNT>  (1) 
0

>  <PUBCHEM_BOND_DEF_STEREO_COUNT>  (1) 
0

>  <PUBCHEM_BOND_UDEF_STEREO_COUNT>  (1) 
0

>  <PUBCHEM_ISOTOPIC_ATOM_COUNT>  (1) 
0

>  <PUBCHEM_COMPONENT_COUNT>  (1) 
1

>  <PUBCHEM_CACTVS_TAUTO_COUNT>  (1) 
1

>  <PUBCHEM_CONFORMER_ID>  (1) 
0000915D00000001

>  <PUBCHEM_MMFF94_ENERGY>  (1) 
45.1871

>  <PUBCHEM_FEATURE_SELFOVERLAP>  (1) 
40.745

>  <PUBCHEM_SHAPE_FINGERPRINT>  (1) 
10 15 12319736973464469695
10299344 5 18343304773538884467
106641 1 18060413630241429802
11524674 6 16559030506856093319
11578080 2 16843300532229275970
11963148 33 18412537700093059743
12166972 35 18408324401652504941
12236239 1 18273216378423613897
12516196 113 18342738529145269161
12592606 108 18341046411653825455
13685833 64 18409168809823974923
13862211 1 18410575076078419073
13885169 127 18336546028708987613
13968360 50 14851597769730734785
14178184 131 18128256891033020351
14251764 18 18273497883886939263
15048467 5 9223228546403186035
15142383 8 11815897860057903886
15183329 4 17822006511116621891
15196674 1 18265333915925613644
15690457 1 18202560705568193207
15706992 2 16845281788469818426
15716309 27 18272089405497477783
17492 89 18123187901277138694
18006028 8 18342457045858179089
18335252 114 8646772166624779795
18335252 98 18413671297382064710
200 152 18342737386298930920
20028762 73 18342738507285947431
20554085 129 12685091544543115212
20621476 66 8934998183458110097
21049683 271 18411703214423891608
21130935 74 18199748047186558746
21150785 3 16805325500290674462
21267235 1 18341335509532328430
22224240 67 15913324698099000623
22288116 15 12613046041470433601
23035841 295 18343021103802250023
23522609 53 18195841563592996177
23559900 14 17968380159946817121
2838139 119 10737287957211473779
28498 318 18408319983164209909
3004659 81 18040432205160876377
3009799 131 14056722352610833518
335352 9 18334301968647623814
34797466 226 17346601885623464676
397830 11 15338255996268057383
4073 2 18041284390822982875
4325135 7 18408324397245969127
4340502 62 15123792877251669532
465052 167 18272654553793549573
5104073 3 18198336265661045120
5385378 56 11095894747688062172
59682541 35 18342730850033544000
59682541 52 13046216131406334248
5969126 39 18260261933206204077
59755656 215 17894631439515570059
999808 66 18041007293452071203

>  <PUBCHEM_SHAPE_MULTIPOLES>  (1) 
418.42
21.57
1.92
0.64
30.27
0.14
0.03
-11.38
-0.26
-0.09
0.16
0.33
-0.09
-0.54

>  <PUBCHEM_SHAPE_SELFOVERLAP>  (1) 
900.511

>  <PUBCHEM_SHAPE_VOLUME>  (1) 
232.4

>  <PUBCHEM_COORDINATE_TYPE>  (1) 
2
5
10

$$$$
