37215
     RDKit          3D

 22 24  0  0  0  0  0  0  0  0999 V2000
    0.1985    0.2799    0.0557 O   0  0  0  0  0  0  0  0  0  0  0  0
    2.7508   -0.0990    0.1067 O   0  0  0  0  0  0  0  0  0  0  0  0
   -5.2274   -0.3982   -0.0636 O   0  0  0  0  0  0  0  0  0  0  0  0
   -4.1962    2.2457   -0.0270 O   0  0  0  0  0  0  0  0  0  0  0  0
    2.5645   -2.3847    0.0903 O   0  0  0  0  0  0  0  0  0  0  0  0
    6.2417    1.0896    0.2026 N   0  0  0  0  0  0  0  0  0  0  0  0
   -1.6311   -1.0454    0.0093 C   0  0  0  0  0  0  0  0  0  0  0  0
   -0.4726   -1.8670    0.0288 C   0  0  0  0  0  0  0  0  0  0  0  0
   -1.1643    0.2661    0.0267 C   0  0  0  0  0  0  0  0  0  0  0  0
    0.6071   -1.0153    0.0567 C   0  0  0  0  0  0  0  0  0  0  0  0
   -3.0194   -1.2704   -0.0215 C   0  0  0  0  0  0  0  0  0  0  0  0
   -1.9845    1.3940    0.0156 C   0  0  0  0  0  0  0  0  0  0  0  0
   -3.8694   -0.1576   -0.0334 C   0  0  0  0  0  0  0  0  0  0  0  0
   -3.3591    1.1488   -0.0153 C   0  0  0  0  0  0  0  0  0  0  0  0
    4.7893    1.1677    0.1555 C   0  0  0  0  0  0  0  0  0  0  0  0
   -0.4355   -3.3425    0.0203 C   0  0  0  0  0  0  0  0  0  0  0  0
    4.1773   -0.2239    0.1353 C   0  0  0  0  0  0  0  0  0  0  0  0
    2.0087   -1.2653    0.0850 C   0  0  0  0  0  0  0  0  0  0  0  0
    6.8310    2.4294    0.2643 C   0  0  0  0  0  0  0  0  0  0  0  0
    6.7596    0.3630   -0.9593 C   0  0  0  0  0  0  0  0  0  0  0  0
   -6.0267    0.7210   -0.0749 C   0  0  0  0  0  0  0  0  0  0  0  0
   -5.5420    1.9638   -0.0578 C   0  0  0  0  0  0  0  0  0  0  0  0
  1  9  1  0
  1 10  1  0
  2 17  1  0
  2 18  1  0
  3 13  1  0
  3 21  1  0
  4 14  1  0
  4 22  1  0
  5 18  2  0
  6 15  1  0
  6 19  1  0
  6 20  1  0
  7  8  1  0
  7  9  2  0
  7 11  1  0
  8 10  2  0
  8 16  1  0
  9 12  1  0
 10 18  1  0
 11 13  2  0
 12 14  2  0
 13 14  1  0
 15 17  1  0
 21 22  2  0
M  END
>  <PUBCHEM_COMPOUND_CID>  (1) 
37215

>  <PUBCHEM_CONFORMER_RMSD>  (1) 
0.8

>  <PUBCHEM_CONFORMER_DIVERSEORDER>  (1) 
1
3
18
14
12
23
9
13
24
2
4
11
5
10
21
15
20
7
19
17
16
8
25
22
6

>  <PUBCHEM_MMFF94_PARTIAL_CHARGES>  (1) 
25
1 -0.28
10 0.05
11 -0.15
12 -0.15
13 0.08
14 0.08
15 0.27
16 0.18
17 0.28
18 0.81
19 0.27
2 -0.43
20 0.27
21 -0.07
22 -0.07
23 0.15
24 0.15
3 -0.16
38 0.15
39 0.15
4 -0.16
5 -0.57
6 -0.81
8 -0.18
9 0.14

>  <PUBCHEM_EFFECTIVE_ROTOR_COUNT>  (1) 
5.4

>  <PUBCHEM_PHARMACOPHORE_FEATURES>  (1) 
8
1 1 acceptor
1 3 acceptor
1 4 acceptor
1 5 acceptor
1 6 cation
5 1 7 8 9 10 rings
6 3 4 13 14 21 22 rings
6 7 9 11 12 13 14 rings

>  <PUBCHEM_HEAVY_ATOM_COUNT>  (1) 
22

>  <PUBCHEM_ATOM_DEF_STEREO_COUNT>  (1) 
0

>  <PUBCHEM_ATOM_UDEF_STEREO_COUNT>  (1) 
0

>  <PUBCHEM_BOND_DEF_STEREO_COUNT>  (1) 
0

>  <PUBCHEM_BOND_UDEF_STEREO_COUNT>  (1) 
0

>  <PUBCHEM_ISOTOPIC_ATOM_COUNT>  (1) 
0

>  <PUBCHEM_COMPONENT_COUNT>  (1) 
1

>  <PUBCHEM_CACTVS_TAUTO_COUNT>  (1) 
1

>  <PUBCHEM_CONFORMER_ID>  (1) 
0000915F00000001

>  <PUBCHEM_MMFF94_ENERGY>  (1) 
47.2711

>  <PUBCHEM_FEATURE_SELFOVERLAP>  (1) 
40.742

>  <PUBCHEM_SHAPE_FINGERPRINT>  (1) 
10 15 18113904840767974721
10411042 1 17689998264375920315
10493431 412 18408322193938386518
12236239 1 18040150712724806210
12293681 160 17989208131328202434
12390115 104 18271255944954285945
12403259 415 18042120951588491247
12596602 18 17458060460665656625
12760667 363 8862946069487410441
14123256 34 9367345963862909452
14257110 125 18409166597673198274
14347332 77 10807943656575287322
14790565 3 18340488855113626497
15048467 5 18410009931465508657
15183329 4 18202009803013471432
15196674 1 18338796702771528483
15961568 22 18334297530818091092
17980427 23 18113621221974751863
19611394 137 17969236696821465355
20281389 69 18260827094861826544
21033648 29 18200583839506602656
23198884 109 16272212989511772889
23272321 79 18410291406632051945
23559900 14 18198621026124751702
2838139 119 18413383246551954732
293599 30 18411138034722112242
3472631 163 18411141376908451348
34797466 226 17917436410229015300
34934 24 18409726261692152387
350125 39 18410572903205334145
3545911 37 18411139130139180812
4073 2 18041285456581598682
5104073 3 18188777128585337067
5486654 2 18342455941703138531
59682541 35 18261402178382410665
59682541 52 17274833407219033140
5969126 39 18054503879522872679
59755656 215 18341058441514005606
59755656 520 18334571356647866814
6327066 14 18410288112133673388
636775 72 18269832185499291440
77188 2 17257087065376050279
7808743 9 18337947987031749178
9981440 41 18261117378347223483

>  <PUBCHEM_SHAPE_MULTIPOLES>  (1) 
418.42
16.32
2.75
0.65
18.38
1.07
0.04
-13.55
1.13
0.1
-0.12
0.34
-0.02
0.24

>  <PUBCHEM_SHAPE_SELFOVERLAP>  (1) 
905.753

>  <PUBCHEM_SHAPE_VOLUME>  (1) 
232.5

>  <PUBCHEM_COORDINATE_TYPE>  (1) 
2
5
10

$$$$
