37223
     RDKit          3D

 20 21  0  0  0  0  0  0  0  0999 V2000
    0.4680    0.2912    0.0007 O   0  0  0  0  0  0  0  0  0  0  0  0
   -2.1028    0.0695    0.0043 O   0  0  0  0  0  0  0  0  0  0  0  0
    5.0039    1.9428   -0.0004 O   0  0  0  0  0  0  0  0  0  0  0  0
   -2.0573   -2.2234    0.0037 O   0  0  0  0  0  0  0  0  0  0  0  0
   -5.5152    1.4710   -0.0059 N   0  0  0  0  0  0  0  0  0  0  0  0
    2.2130   -1.1433   -0.0012 C   0  0  0  0  0  0  0  0  0  0  0  0
    1.0074   -1.8931   -0.0007 C   0  0  0  0  0  0  0  0  0  0  0  0
    1.8272    0.1932    0.0000 C   0  0  0  0  0  0  0  0  0  0  0  0
   -0.0190   -0.9770    0.0006 C   0  0  0  0  0  0  0  0  0  0  0  0
   -4.0600    1.4593    0.0086 C   0  0  0  0  0  0  0  0  0  0  0  0
   -3.5346    0.0327    0.0072 C   0  0  0  0  0  0  0  0  0  0  0  0
    3.5859   -1.4458   -0.0031 C   0  0  0  0  0  0  0  0  0  0  0  0
    2.7190    1.2642    0.0005 C   0  0  0  0  0  0  0  0  0  0  0  0
    0.8808   -3.3635    0.0016 C   0  0  0  0  0  0  0  0  0  0  0  0
   -1.4336   -1.1402    0.0026 C   0  0  0  0  0  0  0  0  0  0  0  0
    4.0790    0.9404   -0.0009 C   0  0  0  0  0  0  0  0  0  0  0  0
    4.5073   -0.3896   -0.0031 C   0  0  0  0  0  0  0  0  0  0  0  0
   -6.0506    0.8213    1.1930 C   0  0  0  0  0  0  0  0  0  0  0  0
   -6.0269    0.8108   -1.2095 C   0  0  0  0  0  0  0  0  0  0  0  0
    4.5085    3.2794    0.0019 C   0  0  0  0  0  0  0  0  0  0  0  0
  1  8  1  0
  1  9  1  0
  2 11  1  0
  2 15  1  0
  3 16  1  0
  3 20  1  0
  4 15  2  0
  5 10  1  0
  5 18  1  0
  5 19  1  0
  6  7  1  0
  6  8  2  0
  6 12  1  0
  7  9  2  0
  7 14  1  0
  8 13  1  0
  9 15  1  0
 10 11  1  0
 12 17  2  0
 13 16  2  0
 16 17  1  0
M  END
>  <PUBCHEM_COMPOUND_CID>  (1) 
37223

>  <PUBCHEM_CONFORMER_RMSD>  (1) 
0.8

>  <PUBCHEM_CONFORMER_DIVERSEORDER>  (1) 
1
40
52
51
32
12
55
36
25
15
38
19
49
33
2
31
57
29
28
53
50
44
43
27
26
10
23
22
39
7
4
54
47
11
45
14
46
6
41
42
3
16
21
35
24
48
37
13
30
34
8
17
20
56
9
18
5

>  <PUBCHEM_MMFF94_PARTIAL_CHARGES>  (1) 
22
1 -0.28
10 0.27
11 0.28
12 -0.15
13 -0.15
14 0.18
15 0.81
16 0.08
17 -0.15
18 0.27
19 0.27
2 -0.43
20 0.28
25 0.15
26 0.15
3 -0.36
30 0.15
4 -0.57
5 -0.81
7 -0.18
8 0.14
9 0.05

>  <PUBCHEM_EFFECTIVE_ROTOR_COUNT>  (1) 
6

>  <PUBCHEM_PHARMACOPHORE_FEATURES>  (1) 
6
1 1 acceptor
1 3 acceptor
1 4 acceptor
1 5 cation
5 1 6 7 8 9 rings
6 6 8 12 13 16 17 rings

>  <PUBCHEM_HEAVY_ATOM_COUNT>  (1) 
20

>  <PUBCHEM_ATOM_DEF_STEREO_COUNT>  (1) 
0

>  <PUBCHEM_ATOM_UDEF_STEREO_COUNT>  (1) 
0

>  <PUBCHEM_BOND_DEF_STEREO_COUNT>  (1) 
0

>  <PUBCHEM_BOND_UDEF_STEREO_COUNT>  (1) 
0

>  <PUBCHEM_ISOTOPIC_ATOM_COUNT>  (1) 
0

>  <PUBCHEM_COMPONENT_COUNT>  (1) 
1

>  <PUBCHEM_CACTVS_TAUTO_COUNT>  (1) 
1

>  <PUBCHEM_CONFORMER_ID>  (1) 
0000916700000001

>  <PUBCHEM_MMFF94_ENERGY>  (1) 
49.9131

>  <PUBCHEM_FEATURE_SELFOVERLAP>  (1) 
30.548

>  <PUBCHEM_SHAPE_FINGERPRINT>  (1) 
10 15 17968098659105298809
10411042 1 17690280404919490086
10595046 47 18343295943349718757
11089746 13 18409725136468444310
11471102 20 18339360760241053702
11796584 16 12967120589129876181
12236239 1 17703222915482275911
12293681 160 17846224396889642984
12390115 104 18268728262126789784
12596602 18 14634878539091702781
12730499 353 18336274457214698723
12769317 202 18342167873577634520
13140716 1 18334855026363285322
13955234 65 18263363594587509186
14251764 75 18341342183506019793
14528608 73 18413385436742455285
14774955 27 18409726270566696389
14790565 3 18411983580760183677
14848178 96 18341327881206758888
15188451 53 15357990014189278809
15196674 1 18410575114733332610
15342168 16 18334859467274872204
15475509 35 16298658375075573242
16760501 71 18336272348491394225
17810953 82 18335425685793714940
17834072 32 18338800121159294740
19427546 62 18409450280263586291
20157964 124 18338231571074707421
20645477 56 18259984872948860549
20645477 70 18128818551545992063
21033650 10 14907642072232429179
23402655 69 18201716271114222679
23558518 356 17971755725316785002
23559900 14 18272653450894627206
245318 6 17751939139745569820
2838139 119 18410568470746168453
2916195 48 18186518800558641073
293599 30 18410858797776855636
335352 9 18410856543436107222
350125 39 18408322156090997268
3545911 37 18335988584491832299
474 4 18410855455875412195
5104073 3 18188203316664918378
59682541 35 18187377566932947985
633830 44 18413385458307372062
636775 72 17402894918245845120
8272917 22 18270121210331688742
9999458 23 18335422322987186030

>  <PUBCHEM_SHAPE_MULTIPOLES>  (1) 
383.13
13.42
3.03
0.75
16.73
0.29
0
-10.73
-0.01
-3.34
0
0.93
-0.11
0

>  <PUBCHEM_SHAPE_SELFOVERLAP>  (1) 
808.282

>  <PUBCHEM_SHAPE_VOLUME>  (1) 
219.9

>  <PUBCHEM_COORDINATE_TYPE>  (1) 
2
5
10

$$$$
