37221
     RDKit          3D

 12 12  0  0  0  0  0  0  0  0999 V2000
    0.2102    1.9620   -0.4004 O   0  0  0  0  0  0  0  0  0  0  0  0
    2.7480    0.3910   -0.2041 O   0  0  0  0  0  0  0  0  0  0  0  0
    2.4975   -1.7658    0.1192 O   0  0  0  0  0  0  0  0  0  0  0  0
   -1.4311    0.2908   -0.1297 N   0  0  0  0  0  0  0  0  0  0  0  0
   -0.2069   -1.5448    0.1240 N   0  0  0  0  0  0  0  0  0  0  0  0
    1.9999   -0.6153   -0.0445 N   0  0  0  0  0  0  0  0  0  0  0  0
   -1.4283   -1.0617    0.0703 C   0  0  0  0  0  0  0  0  0  0  0  0
   -0.1284    0.6959   -0.2083 C   0  0  0  0  0  0  0  0  0  0  0  0
    0.6082   -0.4542   -0.0484 C   0  0  0  0  0  0  0  0  0  0  0  0
   -2.5959    1.1393   -0.2384 C   0  0  0  0  0  0  0  0  0  0  0  0
   -2.6763   -1.8408    0.2035 C   0  0  0  0  0  0  0  0  0  0  0  0
    0.4031    2.8035    0.7568 C   0  0  0  0  0  0  0  0  0  0  0  0
  1  8  1  0
  1 12  1  0
  2  6  1  0
  3  6  2  0
  4  7  1  0
  4  8  1  0
  4 10  1  0
  5  7  2  0
  5  9  1  0
  6  9  1  0
  7 11  1  0
  8  9  2  0
M  CHG  2   2  -1   6   1
M  END
>  <PUBCHEM_COMPOUND_CID>  (1) 
37221

>  <PUBCHEM_CONFORMER_RMSD>  (1) 
0.6

>  <PUBCHEM_CONFORMER_DIVERSEORDER>  (1) 
1

>  <PUBCHEM_MMFF94_PARTIAL_CHARGES>  (1) 
12
1 -0.34
10 0.26
11 0.18
12 0.28
2 -0.52
3 -0.52
4 0.05
5 -0.57
6 0.96
7 0.01
8 -0.09
9 0.31

>  <PUBCHEM_EFFECTIVE_ROTOR_COUNT>  (1) 
2

>  <PUBCHEM_PHARMACOPHORE_FEATURES>  (1) 
6
1 1 acceptor
1 2 acceptor
1 2 anion
1 3 acceptor
3 4 5 7 cation
5 4 5 7 8 9 rings

>  <PUBCHEM_HEAVY_ATOM_COUNT>  (1) 
12

>  <PUBCHEM_ATOM_DEF_STEREO_COUNT>  (1) 
0

>  <PUBCHEM_ATOM_UDEF_STEREO_COUNT>  (1) 
0

>  <PUBCHEM_BOND_DEF_STEREO_COUNT>  (1) 
0

>  <PUBCHEM_BOND_UDEF_STEREO_COUNT>  (1) 
0

>  <PUBCHEM_ISOTOPIC_ATOM_COUNT>  (1) 
0

>  <PUBCHEM_COMPONENT_COUNT>  (1) 
1

>  <PUBCHEM_CACTVS_TAUTO_COUNT>  (1) 
1

>  <PUBCHEM_CONFORMER_ID>  (1) 
0000916500000001

>  <PUBCHEM_MMFF94_ENERGY>  (1) 
25.5845

>  <PUBCHEM_FEATURE_SELFOVERLAP>  (1) 
30.529

>  <PUBCHEM_SHAPE_FINGERPRINT>  (1) 
161256 15 18121218946359982717
16945 1 18195242449776617183
193761 8 18266457796738754861
21040471 1 18120372060271282271
21501502 16 18265619960325365237
2334 1 18410012151953220086
23402539 116 18055335956225842885
23552423 10 18114185211516278646
241688 4 18409727339770739281
2748010 2 18411698781320517486
7364860 26 18054795253928818345

>  <PUBCHEM_SHAPE_MULTIPOLES>  (1) 
214.4
3.53
2.63
0.65
0.23
1.26
-0.04
-1.4
0.03
-0.4
-0.43
0.02
0.17
0.29

>  <PUBCHEM_SHAPE_SELFOVERLAP>  (1) 
440.001

>  <PUBCHEM_SHAPE_VOLUME>  (1) 
125.9

>  <PUBCHEM_COORDINATE_TYPE>  (1) 
2
5
10

$$$$
