37227
     RDKit          3D

 21 23  0  0  0  0  0  0  0  0999 V2000
   -0.3761   -1.5011    0.0682 O   0  0  0  0  0  0  0  0  0  0  0  0
    2.8908   -0.0339    0.1093 O   0  0  0  0  0  0  0  0  0  0  0  0
   -4.7380    1.7956   -0.0716 O   0  0  0  0  0  0  0  0  0  0  0  0
   -5.1649   -1.0100   -0.0347 O   0  0  0  0  0  0  0  0  0  0  0  0
    2.3280   -2.2570    0.1345 O   0  0  0  0  0  0  0  0  0  0  0  0
    6.5307    0.5608    0.1874 N   0  0  0  0  0  0  0  0  0  0  0  0
   -1.2993    0.5607    0.0167 C   0  0  0  0  0  0  0  0  0  0  0  0
   -1.5498   -0.8087    0.0336 C   0  0  0  0  0  0  0  0  0  0  0  0
    5.1112    0.8779    0.1374 C   0  0  0  0  0  0  0  0  0  0  0  0
    0.6246   -0.5828    0.0737 C   0  0  0  0  0  0  0  0  0  0  0  0
    0.1146    0.6941    0.0431 C   0  0  0  0  0  0  0  0  0  0  0  0
    4.2768   -0.3931    0.1418 C   0  0  0  0  0  0  0  0  0  0  0  0
   -2.3897    1.4488   -0.0194 C   0  0  0  0  0  0  0  0  0  0  0  0
   -2.8235   -1.3764    0.0174 C   0  0  0  0  0  0  0  0  0  0  0  0
   -3.6817    0.9092   -0.0363 C   0  0  0  0  0  0  0  0  0  0  0  0
   -3.8919   -0.4775   -0.0181 C   0  0  0  0  0  0  0  0  0  0  0  0
    1.9647   -1.0608    0.1080 C   0  0  0  0  0  0  0  0  0  0  0  0
    7.3341    1.7853    0.2254 C   0  0  0  0  0  0  0  0  0  0  0  0
    6.9187   -0.2626   -0.9605 C   0  0  0  0  0  0  0  0  0  0  0  0
   -5.9894    1.2250   -0.0866 C   0  0  0  0  0  0  0  0  0  0  0  0
   -6.1900   -0.0937   -0.0693 C   0  0  0  0  0  0  0  0  0  0  0  0
  1  8  1  0
  1 10  1  0
  2 12  1  0
  2 17  1  0
  3 15  1  0
  3 20  1  0
  4 16  1  0
  4 21  1  0
  5 17  2  0
  6  9  1  0
  6 18  1  0
  6 19  1  0
  7  8  2  0
  7 11  1  0
  7 13  1  0
  8 14  1  0
  9 12  1  0
 10 11  2  0
 10 17  1  0
 13 15  2  0
 14 16  2  0
 15 16  1  0
 20 21  2  0
M  END
>  <PUBCHEM_COMPOUND_CID>  (1) 
37227

>  <PUBCHEM_CONFORMER_RMSD>  (1) 
0.8

>  <PUBCHEM_CONFORMER_DIVERSEORDER>  (1) 
1
28
17
25
11
26
21
14
8
18
19
13
15
16
10
24
12
5
2
22
20
3
4
7
6
23
27
9

>  <PUBCHEM_MMFF94_PARTIAL_CHARGES>  (1) 
25
1 -0.28
10 0.05
11 -0.15
12 0.28
13 -0.15
14 -0.15
15 0.08
16 0.08
17 0.81
18 0.27
19 0.27
2 -0.43
20 -0.07
21 -0.07
26 0.15
27 0.15
28 0.15
3 -0.16
35 0.15
36 0.15
4 -0.16
5 -0.57
6 -0.81
8 0.14
9 0.27

>  <PUBCHEM_EFFECTIVE_ROTOR_COUNT>  (1) 
5.4

>  <PUBCHEM_PHARMACOPHORE_FEATURES>  (1) 
8
1 1 acceptor
1 3 acceptor
1 4 acceptor
1 5 acceptor
1 6 cation
5 1 7 8 10 11 rings
6 3 4 15 16 20 21 rings
6 7 8 13 14 15 16 rings

>  <PUBCHEM_HEAVY_ATOM_COUNT>  (1) 
21

>  <PUBCHEM_ATOM_DEF_STEREO_COUNT>  (1) 
0

>  <PUBCHEM_ATOM_UDEF_STEREO_COUNT>  (1) 
0

>  <PUBCHEM_BOND_DEF_STEREO_COUNT>  (1) 
0

>  <PUBCHEM_BOND_UDEF_STEREO_COUNT>  (1) 
0

>  <PUBCHEM_ISOTOPIC_ATOM_COUNT>  (1) 
0

>  <PUBCHEM_COMPONENT_COUNT>  (1) 
1

>  <PUBCHEM_CACTVS_TAUTO_COUNT>  (1) 
1

>  <PUBCHEM_CONFORMER_ID>  (1) 
0000916B00000001

>  <PUBCHEM_MMFF94_ENERGY>  (1) 
45.3935

>  <PUBCHEM_FEATURE_SELFOVERLAP>  (1) 
40.745

>  <PUBCHEM_SHAPE_FINGERPRINT>  (1) 
10 15 18113339712585587344
106641 1 18409177610924141081
10730089 173 18413389834472552396
10968037 39 18410573990121638767
11315181 36 18060423534109148649
12236239 1 18040432178990288978
12390115 104 18128828455909368593
14251764 18 18113053843883543931
14933364 13 18412827993190379668
15048467 5 18409165506461458704
15183329 4 18130514050801074226
15196674 1 18338515232116178387
18335252 98 18410016546454025755
20281389 69 18186798072222462044
21033648 29 18199456831519192800
21150785 3 16988559121580966157
21267235 1 18339364162783534419
221357 26 17561083601541997968
22224240 67 14851605510047888928
23035841 295 11024107650821739645
23198884 109 16415764123811801131
23402539 116 18412821408493812327
23559900 14 18270955846931055041
28498 318 9727640496609297969
300161 21 18187079529670955487
34797466 226 17846504742384737324
34934 24 18410006624393717635
350125 39 18410009940071689769
3545911 37 18411419501024381800
4073 2 18041284357012046090
4325135 7 18410573994010417949
4340502 62 16660364761982364410
445580 37 18342748398827361716
4463277 17 18411136935110153704
5104073 3 18189340078501848115
59682541 35 18261119608020163001
59682541 52 17489320664083195276
59755656 215 18412832357072571982
59755656 520 17749385988146967522
67856867 119 18115029726472049173

>  <PUBCHEM_SHAPE_MULTIPOLES>  (1) 
397.84
18.61
1.74
0.65
21.43
0.05
0.05
-7.27
1.37
-0.01
-0.07
0.35
0
0.33

>  <PUBCHEM_SHAPE_SELFOVERLAP>  (1) 
862.692

>  <PUBCHEM_SHAPE_VOLUME>  (1) 
219.4

>  <PUBCHEM_COORDINATE_TYPE>  (1) 
2
5
10

$$$$
