37225
     RDKit          3D

 23 24  0  0  0  0  0  0  0  0999 V2000
    6.6813   -0.2111    0.2285 Br  0  0  0  0  0  0  0  0  0  0  0  0
   -1.8177   -0.3549   -0.1024 O   0  0  0  0  0  0  0  0  0  0  0  0
    0.7030    0.1707    0.0645 O   0  0  0  0  0  0  0  0  0  0  0  0
    4.9643    2.3576    0.5382 O   0  0  0  0  0  0  0  0  0  0  0  0
   -1.4835   -2.6019   -0.4169 O   0  0  0  0  0  0  0  0  0  0  0  0
   -5.3768    0.6156   -0.1075 N   0  0  0  0  0  0  0  0  0  0  0  0
   -3.9333    0.7760   -0.0145 C   0  0  0  0  0  0  0  0  0  0  0  0
   -5.8635   -0.3055    0.9223 C   0  0  0  0  0  0  0  0  0  0  0  0
   -6.0509    1.9106    0.0134 C   0  0  0  0  0  0  0  0  0  0  0  0
   -3.2325   -0.5626   -0.1836 C   0  0  0  0  0  0  0  0  0  0  0  0
    2.6138   -1.0299   -0.0390 C   0  0  0  0  0  0  0  0  0  0  0  0
    1.5130   -1.9108   -0.2064 C   0  0  0  0  0  0  0  0  0  0  0  0
    0.3801   -1.1336   -0.1354 C   0  0  0  0  0  0  0  0  0  0  0  0
    2.0629    0.2371    0.1239 C   0  0  0  0  0  0  0  0  0  0  0  0
   -7.3598   -0.5342    0.7913 C   0  0  0  0  0  0  0  0  0  0  0  0
   -5.5625    2.8849   -1.0452 C   0  0  0  0  0  0  0  0  0  0  0  0
   -1.0017   -1.4631   -0.2340 C   0  0  0  0  0  0  0  0  0  0  0  0
    4.0130   -1.1629   -0.0072 C   0  0  0  0  0  0  0  0  0  0  0  0
    2.8121    1.3961    0.3189 C   0  0  0  0  0  0  0  0  0  0  0  0
    1.5730   -3.3704   -0.4155 C   0  0  0  0  0  0  0  0  0  0  0  0
    4.2012    1.2406    0.3475 C   0  0  0  0  0  0  0  0  0  0  0  0
    4.7933   -0.0148    0.1875 C   0  0  0  0  0  0  0  0  0  0  0  0
    5.3712    3.0667   -0.6283 C   0  0  0  0  0  0  0  0  0  0  0  0
  1 22  1  0
  2 10  1  0
  2 17  1  0
  3 13  1  0
  3 14  1  0
  4 21  1  0
  4 23  1  0
  5 17  2  0
  6  7  1  0
  6  8  1  0
  6  9  1  0
  7 10  1  0
  8 15  1  0
  9 16  1  0
 11 12  1  0
 11 14  2  0
 11 18  1  0
 12 13  2  0
 12 20  1  0
 13 17  1  0
 14 19  1  0
 18 22  2  0
 19 21  2  0
 21 22  1  0
M  END
>  <PUBCHEM_COMPOUND_CID>  (1) 
37225

>  <PUBCHEM_CONFORMER_RMSD>  (1) 
0.8

>  <PUBCHEM_CONFORMER_DIVERSEORDER>  (1) 
1
81
76
160
148
88
14
130
180
87
83
66
19
168
67
70
55
151
60
154
28
141
64
106
9
112
156
134
11
169
111
68
53
166
147
132
116
110
104
57
56
137
17
135
143
183
199
142
144
107
119
105
85
115
91
96
93
114
145
113
165
86
191
41
198
172
65
13
43
153
22
58
131
128
89
62
170
37
109
174
176
181
179
54
101
3
124
175
15
136
50
139
20
173
73
46
61
161
103
5
84
98
4
178
71
8
155
193
185
189
80
194
44
12
69
117
171
100
47
32
40
39
74
186
25
36
45
177
196
157
26
90
140
79
182
192
82
158
49
108
10
125
94
29
59
21
99
34
164
27
188
24
167
92
190
51
121
95
38
162
163
187
97
63
146
126
35
200
48
149
7
16
30
184
133
201
2
102
42
150
120
122
52
72
195
159
138
18
77
31
75
118
6
33
152
197
78
123
129
127
23

>  <PUBCHEM_MMFF94_PARTIAL_CHARGES>  (1) 
22
1 -0.11
10 0.28
12 -0.18
13 0.05
14 0.14
17 0.81
18 -0.15
19 -0.15
2 -0.43
20 0.18
21 0.08
22 0.11
23 0.28
3 -0.28
38 0.15
39 0.15
4 -0.36
5 -0.57
6 -0.81
7 0.27
8 0.27
9 0.27

>  <PUBCHEM_EFFECTIVE_ROTOR_COUNT>  (1) 
8

>  <PUBCHEM_PHARMACOPHORE_FEATURES>  (1) 
7
1 1 hydrophobe
1 3 acceptor
1 4 acceptor
1 5 acceptor
1 6 cation
5 3 11 12 13 14 rings
6 11 14 18 19 21 22 rings

>  <PUBCHEM_HEAVY_ATOM_COUNT>  (1) 
23

>  <PUBCHEM_ATOM_DEF_STEREO_COUNT>  (1) 
0

>  <PUBCHEM_ATOM_UDEF_STEREO_COUNT>  (1) 
0

>  <PUBCHEM_BOND_DEF_STEREO_COUNT>  (1) 
0

>  <PUBCHEM_BOND_UDEF_STEREO_COUNT>  (1) 
0

>  <PUBCHEM_ISOTOPIC_ATOM_COUNT>  (1) 
0

>  <PUBCHEM_COMPONENT_COUNT>  (1) 
1

>  <PUBCHEM_CACTVS_TAUTO_COUNT>  (1) 
1

>  <PUBCHEM_CONFORMER_ID>  (1) 
0000916900000001

>  <PUBCHEM_MMFF94_ENERGY>  (1) 
48.9154

>  <PUBCHEM_FEATURE_SELFOVERLAP>  (1) 
35.623

>  <PUBCHEM_SHAPE_FINGERPRINT>  (1) 
10 15 18187649145418804393
10411042 1 17692252933269957566
10835480 77 18265329513726787581
11796584 16 12967123917291615869
12107183 9 18336535059172577594
12596602 18 17821726131108840337
12730499 353 18411707568903064115
13167372 99 18411417289317054888
13785724 45 17690557490233915810
14790565 3 18265895937796665212
14933364 13 18410014325702329753
15196674 1 18268145530313762166
15419008 145 18115857521842887304
15475509 35 16588576492933739186
16760501 71 18335987574847846949
17844677 252 18268437845861566579
19611394 137 17969235597737066449
20157964 124 18341611465439250839
20281389 69 18408885156856071417
21033648 29 18339067242677374225
21033650 10 14261359020831480211
23559900 14 18202002158241242614
2838139 119 18412818101390125845
2916195 48 18334294258511212929
335352 9 18413389844059564918
350125 39 18409445869912279212
3545911 37 18413672405019461915
4073 2 18114186392521645779
4325135 7 18272929432676589007
4340502 62 17822013103438117387
5104073 3 18259698999736215971
59682541 35 18261683675055549331
59682541 52 16773528672151209964
59755656 215 18340488863909036206
633830 44 18339917216942636030
7970288 3 9295027751125557964

>  <PUBCHEM_SHAPE_MULTIPOLES>  (1) 
450.81
18.57
3.17
0.78
19.42
0.52
0
11.03
-2.47
-1.35
0.86
0.44
0.13
0.99

>  <PUBCHEM_SHAPE_SELFOVERLAP>  (1) 
926.257

>  <PUBCHEM_SHAPE_VOLUME>  (1) 
267.6

>  <PUBCHEM_COORDINATE_TYPE>  (1) 
2
5
10

$$$$
