37231
     RDKit          3D

 21 22  0  0  0  0  0  0  0  0999 V2000
    5.7761    0.2875    0.5498 Br  0  0  0  0  0  0  0  0  0  0  0  0
   -0.1549   -0.1385   -0.1938 O   0  0  0  0  0  0  0  0  0  0  0  0
   -2.6702    0.3741   -0.4590 O   0  0  0  0  0  0  0  0  0  0  0  0
    4.1238   -2.3134    0.1600 O   0  0  0  0  0  0  0  0  0  0  0  0
   -2.3847    2.6407   -0.2584 O   0  0  0  0  0  0  0  0  0  0  0  0
   -4.4941   -1.6351    0.3561 N   0  0  0  0  0  0  0  0  0  0  0  0
    1.7184    1.0844    0.1193 C   0  0  0  0  0  0  0  0  0  0  0  0
    0.6066    1.9645    0.0500 C   0  0  0  0  0  0  0  0  0  0  0  0
    1.1975   -0.1960   -0.0363 C   0  0  0  0  0  0  0  0  0  0  0  0
   -0.5028    1.1736   -0.1405 C   0  0  0  0  0  0  0  0  0  0  0  0
   -4.7483   -0.7798   -0.7936 C   0  0  0  0  0  0  0  0  0  0  0  0
    3.1056    1.2279    0.2966 C   0  0  0  0  0  0  0  0  0  0  0  0
   -4.0799    0.5738   -0.6138 C   0  0  0  0  0  0  0  0  0  0  0  0
    1.9659   -1.3587   -0.0293 C   0  0  0  0  0  0  0  0  0  0  0  0
    0.6356    3.4359    0.1610 C   0  0  0  0  0  0  0  0  0  0  0  0
   -1.8825    1.4965   -0.2819 C   0  0  0  0  0  0  0  0  0  0  0  0
    3.3427   -1.1926    0.1480 C   0  0  0  0  0  0  0  0  0  0  0  0
    3.9047    0.0765    0.3087 C   0  0  0  0  0  0  0  0  0  0  0  0
   -5.1024   -2.9541    0.1656 C   0  0  0  0  0  0  0  0  0  0  0  0
   -5.0011   -1.0175    1.5839 C   0  0  0  0  0  0  0  0  0  0  0  0
    4.6439   -2.7497   -1.0923 C   0  0  0  0  0  0  0  0  0  0  0  0
  1 18  1  0
  2  9  1  0
  2 10  1  0
  3 13  1  0
  3 16  1  0
  4 17  1  0
  4 21  1  0
  5 16  2  0
  6 11  1  0
  6 19  1  0
  6 20  1  0
  7  8  1  0
  7  9  2  0
  7 12  1  0
  8 10  2  0
  8 15  1  0
  9 14  1  0
 10 16  1  0
 11 13  1  0
 12 18  2  0
 14 17  2  0
 17 18  1  0
M  END
>  <PUBCHEM_COMPOUND_CID>  (1) 
37231

>  <PUBCHEM_CONFORMER_RMSD>  (1) 
0.8

>  <PUBCHEM_CONFORMER_DIVERSEORDER>  (1) 
4
24
42
47
49
51
21
3
39
36
14
5
44
17
26
22
18
29
30
19
16
38
34
46
53
52
31
32
13
12
41
15
37
25
23
2
27
40
8
6
7
11
1
10
35
33
50
28
45
48
9
43
20

>  <PUBCHEM_MMFF94_PARTIAL_CHARGES>  (1) 
22
1 -0.11
10 0.05
11 0.27
12 -0.15
13 0.28
14 -0.15
15 0.18
16 0.81
17 0.08
18 0.11
19 0.27
2 -0.28
20 0.27
21 0.28
24 0.15
27 0.15
3 -0.43
4 -0.36
5 -0.57
6 -0.81
8 -0.18
9 0.14

>  <PUBCHEM_EFFECTIVE_ROTOR_COUNT>  (1) 
6

>  <PUBCHEM_PHARMACOPHORE_FEATURES>  (1) 
7
1 1 hydrophobe
1 2 acceptor
1 4 acceptor
1 5 acceptor
1 6 cation
5 2 7 8 9 10 rings
6 7 9 12 14 17 18 rings

>  <PUBCHEM_HEAVY_ATOM_COUNT>  (1) 
21

>  <PUBCHEM_ATOM_DEF_STEREO_COUNT>  (1) 
0

>  <PUBCHEM_ATOM_UDEF_STEREO_COUNT>  (1) 
0

>  <PUBCHEM_BOND_DEF_STEREO_COUNT>  (1) 
0

>  <PUBCHEM_BOND_UDEF_STEREO_COUNT>  (1) 
0

>  <PUBCHEM_ISOTOPIC_ATOM_COUNT>  (1) 
0

>  <PUBCHEM_COMPONENT_COUNT>  (1) 
1

>  <PUBCHEM_CACTVS_TAUTO_COUNT>  (1) 
1

>  <PUBCHEM_CONFORMER_ID>  (1) 
0000916F00000004

>  <PUBCHEM_MMFF94_ENERGY>  (1) 
51.421

>  <PUBCHEM_FEATURE_SELFOVERLAP>  (1) 
35.622

>  <PUBCHEM_SHAPE_FINGERPRINT>  (1) 
108634 29 18114187483564840130
11796584 16 18040705966328870195
11806522 49 18335135405801328572
11963148 33 18336818780312396610
12032990 46 18411698742824086796
12596602 18 16988283187107046211
13103583 49 18059309737784110603
13140716 1 17837765999633863584
13544653 18 18408605855280252149
13740256 8 18336263539296717985
13911882 115 18343865511436669694
14252887 29 18131070428900625244
14787075 74 18260268585740948776
14790565 3 17327744405617733469
14863182 85 18412549834144719382
15196674 1 18268706122066400452
15352361 1 18409164446179620975
15475509 84 18059592282282226721
15927050 60 17476639149849906828
17492 89 18267582417020020230
18785283 64 18118960540866380608
193927 3 18339928125394436214
19591789 44 18411697647581325438
20261772 1 18060131080932460791
20645477 70 18191010400136901597
21267235 1 18411984663476810820
21521721 280 17987516082551051312
221490 88 18408602599721655869
22950370 63 18412271613930149470
23379529 103 18270124504672033102
23402539 116 15936402325794698845
23424784 1240 18410582798493849931
23559900 14 18336815455780200045
314194 84 18272643584420747239
3421961 26 18339359802901203201
5104073 3 18271238297350223248
5486654 36 18336840693144960993
9709674 26 18261674882645765507

>  <PUBCHEM_SHAPE_MULTIPOLES>  (1) 
409.65
12.65
3.34
0.89
5.48
0.16
-0.13
-9.82
-1.42
0.14
0.28
0.51
-0.28
1.43

>  <PUBCHEM_SHAPE_SELFOVERLAP>  (1) 
849.116

>  <PUBCHEM_SHAPE_VOLUME>  (1) 
242.2

>  <PUBCHEM_COORDINATE_TYPE>  (1) 
2
5
10

$$$$
