37243
     RDKit          3D

 26 28  0  0  1  0  0  0  0  0999 V2000
    0.0817    1.0223   -0.8165 O   0  0  0  0  0  0  0  0  0  0  0  0
   -3.4600    1.3373    0.1969 N   0  0  0  0  0  0  0  0  0  0  0  0
    4.0779   -0.5762    0.1289 C   0  0  0  0  0  0  0  0  0  0  0  0
    5.3542   -0.5885    1.0216 C   0  0  0  0  0  0  0  0  0  0  0  0
    6.1296   -0.6914   -0.3222 C   0  0  0  0  0  0  0  0  0  0  0  0
    4.8973   -1.5143   -0.8160 C   0  0  0  0  0  0  0  0  0  0  0  0
    3.8044    0.8325   -0.4294 C   0  0  0  0  0  0  0  0  0  0  0  0
    6.2935    0.6820   -0.9822 C   0  0  0  0  0  0  0  0  0  0  0  0
    4.9263    1.2307   -1.4074 C   0  0  0  0  0  0  0  0  0  0  0  0
    5.5935    0.7171    1.7689 C   0  0  0  0  0  0  0  0  0  0  0  0
    5.5172   -1.7180    2.0169 C   0  0  0  0  0  0  0  0  0  0  0  0
    2.4430    0.8687   -1.1174 C   0  0  0  0  0  0  0  0  0  0  0  0
    1.3157    1.0128   -0.1122 C   0  0  0  0  0  0  0  0  0  0  0  0
   -1.0231    1.1552    0.0677 C   0  0  0  0  0  0  0  0  0  0  0  0
   -2.3129    1.1603   -0.7289 C   0  0  0  0  0  0  0  0  0  0  0  0
   -3.5314    0.1804    1.2028 C   0  0  0  0  0  0  0  0  0  0  0  0
   -3.3265    2.6475    0.9847 C   0  0  0  0  0  0  0  0  0  0  0  0
   -4.7840    1.3786   -0.5780 C   0  0  0  0  0  0  0  0  0  0  0  0
   -3.6641   -1.1622    0.5464 C   0  0  0  0  0  0  0  0  0  0  0  0
   -4.5302    2.8114    1.8869 C   0  0  0  0  0  0  0  0  0  0  0  0
   -4.7404    2.5127   -1.5788 C   0  0  0  0  0  0  0  0  0  0  0  0
   -4.9290   -1.6832    0.2735 C   0  0  0  0  0  0  0  0  0  0  0  0
   -2.5226   -1.8892    0.2082 C   0  0  0  0  0  0  0  0  0  0  0  0
   -5.0525   -2.9312   -0.3370 C   0  0  0  0  0  0  0  0  0  0  0  0
   -2.6462   -3.1373   -0.4024 C   0  0  0  0  0  0  0  0  0  0  0  0
   -3.9113   -3.6582   -0.6750 C   0  0  0  0  0  0  0  0  0  0  0  0
  1 13  1  0
  1 14  1  0
  2 15  1  0
  2 16  1  0
  2 17  1  0
  2 18  1  0
  3  4  1  0
  3  6  1  0
  3  7  1  0
  4  5  1  0
  4 10  1  0
  4 11  1  0
  5  6  1  0
  5  8  1  0
  7  9  1  0
  7 12  1  0
  8  9  1  0
 12 13  1  0
 14 15  1  0
 16 19  1  0
 17 20  1  0
 18 21  1  0
 19 22  2  0
 19 23  1  0
 22 24  1  0
 23 25  2  0
 24 26  2  0
 25 26  1  0
M  CHG  1   2   1
M  END
>  <PUBCHEM_COMPOUND_CID>  (1) 
37243

>  <PUBCHEM_CONFORMER_RMSD>  (1) 
1.4

>  <PUBCHEM_CONFORMER_DIVERSEORDER>  (1) 
4
80
30
27
10
58
107
59
92
98
11
25
2
32
70
116
1
63
9
99
3
41
102
69
39
73
97
8
55
36
108
71
17
101
84
15
38
60
22
40
61
106
35
19
64
82
79
56
87
112
103
6
53
113
68
47
114
34
62
105
12
104
100
86
65
44
81
29
75
18
52
93
89
76
78
74
23
45
50
14
13
26
48
110
20
66
94
33
42
57
24
51
67
21
109
7
90
28
5
16
96
43
54
77
88
95
31
46
49
115
72
37
83
111
91
85

>  <PUBCHEM_MMFF94_PARTIAL_CHARGES>  (1) 
19
1 -0.56
13 0.28
14 0.28
15 0.5
16 0.65
17 0.5
18 0.5
19 -0.14
2 -1.01
22 -0.15
23 -0.15
24 -0.15
25 -0.15
26 -0.15
62 0.15
63 0.15
64 0.15
65 0.15
66 0.15

>  <PUBCHEM_EFFECTIVE_ROTOR_COUNT>  (1) 
11

>  <PUBCHEM_PHARMACOPHORE_FEATURES>  (1) 
5
1 1 acceptor
1 2 cation
3 4 10 11 hydrophobe
6 19 22 23 24 25 26 rings
7 3 4 5 6 7 8 9 rings

>  <PUBCHEM_HEAVY_ATOM_COUNT>  (1) 
26

>  <PUBCHEM_ATOM_DEF_STEREO_COUNT>  (1) 
0

>  <PUBCHEM_ATOM_UDEF_STEREO_COUNT>  (1) 
3

>  <PUBCHEM_BOND_DEF_STEREO_COUNT>  (1) 
0

>  <PUBCHEM_BOND_UDEF_STEREO_COUNT>  (1) 
0

>  <PUBCHEM_ISOTOPIC_ATOM_COUNT>  (1) 
0

>  <PUBCHEM_COMPONENT_COUNT>  (1) 
1

>  <PUBCHEM_CACTVS_TAUTO_COUNT>  (1) 
1

>  <PUBCHEM_CONFORMER_ID>  (1) 
0000917B00000004

>  <PUBCHEM_MMFF94_ENERGY>  (1) 
107.7902

>  <PUBCHEM_FEATURE_SELFOVERLAP>  (1) 
25.371

>  <PUBCHEM_SHAPE_FINGERPRINT>  (1) 
10622 236 18189609613111292407
11524674 6 17775287166814725359
11545043 162 18202562890957265920
11796584 16 18410575050941670196
11809386 21 18260826033909959219
12107183 9 18121502349898855130
12523318 42 18202001049137016459
12596602 18 18343866632692114320
12616971 3 17603585206085558424
13167823 11 18260271862821925652
14068700 675 18269555108562758063
14118638 360 18187931745756412196
14251751 18 18341609356309596026
14347332 77 18336825407166339559
14844126 61 18340495547247472643
15001296 14 18191864750161980938
15183329 4 18187363233424592950
15250474 111 18261388975220847682
15348495 7 18059855065207213104
15361156 5 17895493440100132564
15537594 2 17822017458729542906
15799311 1 18268731475163169526
16990350 14 16903017928647829729
17844677 252 18270971236199893896
17857418 61 18260828237069711902
20511986 3 18187072958492266632
20554085 129 17914888748000233281
20771845 165 17826513263144746405
21033648 29 16917063331025158216
21236236 1 18409169926315180847
21703447 108 18050844721641148888
220451 1 18187938257106258692
23522609 53 18043843968478896460
23559900 14 18269548507051000009
32027 91 17841166458745257526
376196 1 14255499598696570547
397830 11 18200864193391275960
4073 2 18272933808826029776
44062 13 18334293167209854549
484985 159 18261662749643009063
5085150 59 18343011182391315215
5104073 3 18342170077576079824
531348 171 17895749596055144757
559249 180 18187359905236174207
5924683 9 18412828014464684655
59755656 520 18340209592720455777
9981440 41 17346321432548030757

>  <PUBCHEM_SHAPE_MULTIPOLES>  (1) 
524.22
18.33
3.71
1.57
18.95
1.99
-0.5
2.32
-1.35
-8.11
0.1
1
-0.63
-1.81

>  <PUBCHEM_SHAPE_SELFOVERLAP>  (1) 
1077.017

>  <PUBCHEM_SHAPE_VOLUME>  (1) 
304.8

>  <PUBCHEM_COORDINATE_TYPE>  (1) 
2
5
10

$$$$
