37246
     RDKit          3D

 12 12  0  0  0  0  0  0  0  0999 V2000
   -1.6916   -1.8174   -0.2705 O   0  0  0  0  0  0  0  0  0  0  0  0
    2.8115   -0.4011    0.1183 O   0  0  0  0  0  0  0  0  0  0  0  0
    1.8500    2.1626   -0.0688 O   0  0  0  0  0  0  0  0  0  0  0  0
   -1.3859    0.5541    0.0694 C   0  0  0  0  0  0  0  0  0  0  0  0
   -0.3975    1.5281   -0.5741 C   0  0  0  0  0  0  0  0  0  0  0  0
   -0.9016   -0.8852   -0.1146 C   0  0  0  0  0  0  0  0  0  0  0  0
   -2.7588    0.7316   -0.6006 C   0  0  0  0  0  0  0  0  0  0  0  0
   -1.5298    0.8239    1.5764 C   0  0  0  0  0  0  0  0  0  0  0  0
    0.5678   -1.1678   -0.0213 C   0  0  0  0  0  0  0  0  0  0  0  0
    1.0308    1.2518   -0.1812 C   0  0  0  0  0  0  0  0  0  0  0  0
    1.4574   -0.1631   -0.0164 C   0  0  0  0  0  0  0  0  0  0  0  0
    0.9479   -2.6175    0.0833 C   0  0  0  0  0  0  0  0  0  0  0  0
  1  6  2  0
  2 11  1  0
  3 10  2  0
  4  5  1  0
  4  6  1  0
  4  7  1  0
  4  8  1  0
  5 10  1  0
  6  9  1  0
  9 11  2  0
  9 12  1  0
 10 11  1  0
M  END
>  <PUBCHEM_COMPOUND_CID>  (1) 
37246

>  <PUBCHEM_CONFORMER_RMSD>  (1) 
0.4

>  <PUBCHEM_CONFORMER_DIVERSEORDER>  (1) 
2
1

>  <PUBCHEM_MMFF94_PARTIAL_CHARGES>  (1) 
11
1 -0.57
10 0.49
11 0.09
12 0.14
2 -0.53
24 0.45
3 -0.57
4 0.06
5 0.06
6 0.49
9 -0.12

>  <PUBCHEM_EFFECTIVE_ROTOR_COUNT>  (1) 
0.4

>  <PUBCHEM_PHARMACOPHORE_FEATURES>  (1) 
5
1 1 acceptor
1 2 donor
1 3 acceptor
3 4 7 8 hydrophobe
6 4 5 6 9 10 11 rings

>  <PUBCHEM_HEAVY_ATOM_COUNT>  (1) 
12

>  <PUBCHEM_ATOM_DEF_STEREO_COUNT>  (1) 
0

>  <PUBCHEM_ATOM_UDEF_STEREO_COUNT>  (1) 
0

>  <PUBCHEM_BOND_DEF_STEREO_COUNT>  (1) 
0

>  <PUBCHEM_BOND_UDEF_STEREO_COUNT>  (1) 
0

>  <PUBCHEM_ISOTOPIC_ATOM_COUNT>  (1) 
0

>  <PUBCHEM_COMPONENT_COUNT>  (1) 
1

>  <PUBCHEM_CACTVS_TAUTO_COUNT>  (1) 
10

>  <PUBCHEM_CONFORMER_ID>  (1) 
0000917E00000002

>  <PUBCHEM_MMFF94_ENERGY>  (1) 
24.0844

>  <PUBCHEM_FEATURE_SELFOVERLAP>  (1) 
25.371

>  <PUBCHEM_SHAPE_FINGERPRINT>  (1) 
12423570 1 7892372486716019070
12524768 44 18053386504624413254
14817 1 15682880426312252304
16945 1 18338800017926975389
18185500 45 18411980226190187463
193761 8 18193274315478445670
21040471 1 18120937462667003316
2334 1 18193557997931073012
23419403 2 16039058284593101423
23552423 10 18335979877949590678
23559900 14 18341909493879303980
241688 4 17618780262938117419
2748010 2 18264488558180203820
5084963 1 18271525394043478202
528886 8 18409156710410556553
63268167 104 18267021652687429193
66348 1 18410572868496962006

>  <PUBCHEM_SHAPE_MULTIPOLES>  (1) 
229.35
3.08
2.38
0.89
0.23
0.36
0.31
-0.05
-0.04
-1.01
-0.19
0.5
-0.13
-0.14

>  <PUBCHEM_SHAPE_SELFOVERLAP>  (1) 
472.86

>  <PUBCHEM_SHAPE_VOLUME>  (1) 
132

>  <PUBCHEM_COORDINATE_TYPE>  (1) 
2
5
10

$$$$
