37253
     RDKit          3D

 32 34  0  0  0  0  0  0  0  0999 V2000
    5.0266    0.6112   -0.7487 O   0  0  0  0  0  0  0  0  0  0  0  0
   -5.0270   -0.6117   -0.7492 O   0  0  0  0  0  0  0  0  0  0  0  0
    0.4095    2.6402   -0.7515 O   0  0  0  0  0  0  0  0  0  0  0  0
   -0.4102   -2.6412   -0.7494 O   0  0  0  0  0  0  0  0  0  0  0  0
    8.1493   -0.0263    1.0989 N   0  0  0  0  0  0  0  0  0  0  0  0
   -8.1488    0.0275    1.0993 N   0  0  0  0  0  0  0  0  0  0  0  0
    7.1118    0.7397    0.4246 C   0  0  0  0  0  0  0  0  0  0  0  0
   -7.1117   -0.7392    0.4251 C   0  0  0  0  0  0  0  0  0  0  0  0
    1.3651    0.4941   -0.7500 C   0  0  0  0  0  0  0  0  0  0  0  0
   -1.3653   -0.4949   -0.7502 C   0  0  0  0  0  0  0  0  0  0  0  0
    1.1507   -0.8859   -0.7497 C   0  0  0  0  0  0  0  0  0  0  0  0
   -1.1509    0.8849   -0.7504 C   0  0  0  0  0  0  0  0  0  0  0  0
    6.0281   -0.1814   -0.1128 C   0  0  0  0  0  0  0  0  0  0  0  0
   -6.0281    0.1814   -0.1134 C   0  0  0  0  0  0  0  0  0  0  0  0
    8.7614   -0.9901    0.1812 C   0  0  0  0  0  0  0  0  0  0  0  0
    9.1725    0.8634    1.6536 C   0  0  0  0  0  0  0  0  0  0  0  0
   -8.7612    0.9907    0.1811 C   0  0  0  0  0  0  0  0  0  0  0  0
   -9.1719   -0.8617    1.6549 C   0  0  0  0  0  0  0  0  0  0  0  0
    0.2221    1.4299   -0.7502 C   0  0  0  0  0  0  0  0  0  0  0  0
   -0.2224   -1.4308   -0.7501 C   0  0  0  0  0  0  0  0  0  0  0  0
    3.7566    0.1209   -0.7490 C   0  0  0  0  0  0  0  0  0  0  0  0
   -3.7569   -0.1217   -0.7504 C   0  0  0  0  0  0  0  0  0  0  0  0
    2.6714    0.9977   -0.7498 C   0  0  0  0  0  0  0  0  0  0  0  0
   -2.6717   -0.9986   -0.7502 C   0  0  0  0  0  0  0  0  0  0  0  0
    2.2426   -1.7622   -0.7490 C   0  0  0  0  0  0  0  0  0  0  0  0
   -2.2427    1.7613   -0.7509 C   0  0  0  0  0  0  0  0  0  0  0  0
    3.5427   -1.2560   -0.7486 C   0  0  0  0  0  0  0  0  0  0  0  0
   -3.5429    1.2552   -0.7510 C   0  0  0  0  0  0  0  0  0  0  0  0
    9.7984   -1.8430    0.8922 C   0  0  0  0  0  0  0  0  0  0  0  0
    8.5617    1.8736    2.6099 C   0  0  0  0  0  0  0  0  0  0  0  0
   -9.7976    1.8443    0.8920 C   0  0  0  0  0  0  0  0  0  0  0  0
   -8.5609   -1.8714    2.6117 C   0  0  0  0  0  0  0  0  0  0  0  0
  1 13  1  0
  1 21  1  0
  2 14  1  0
  2 22  1  0
  3 19  2  0
  4 20  2  0
  5  7  1  0
  5 15  1  0
  5 16  1  0
  6  8  1  0
  6 17  1  0
  6 18  1  0
  7 13  1  0
  8 14  1  0
  9 11  2  0
  9 19  1  0
  9 23  1  0
 10 12  2  0
 10 20  1  0
 10 24  1  0
 11 20  1  0
 11 25  1  0
 12 19  1  0
 12 26  1  0
 15 29  1  0
 16 30  1  0
 17 31  1  0
 18 32  1  0
 21 23  2  0
 21 27  1  0
 22 24  2  0
 22 28  1  0
 25 27  2  0
 26 28  2  0
M  END
>  <PUBCHEM_COMPOUND_CID>  (1) 
37253

>  <PUBCHEM_CONFORMER_RMSD>  (1) 
1.2

>  <PUBCHEM_CONFORMER_DIVERSEORDER>  (1) 
1
41
31
43
14
24
40
46
2
22
30
13
39
18
10
9
36
5
33
44
15
32
26
35
25
4
21
28
20
19
45
29
34
11
23
17
7
12
3
42
37
27
6
8
38
16

>  <PUBCHEM_MMFF94_PARTIAL_CHARGES>  (1) 
34
1 -0.36
10 0.09
11 0.09
12 0.09
13 0.28
14 0.28
15 0.27
16 0.27
17 0.27
18 0.27
19 0.4
2 -0.36
20 0.4
21 0.08
22 0.08
23 -0.15
24 -0.15
25 -0.15
26 -0.15
27 -0.15
28 -0.15
3 -0.57
4 -0.57
49 0.15
5 -0.81
50 0.15
51 0.15
52 0.15
53 0.15
54 0.15
6 -0.81
7 0.27
8 0.27
9 0.09

>  <PUBCHEM_EFFECTIVE_ROTOR_COUNT>  (1) 
12

>  <PUBCHEM_PHARMACOPHORE_FEATURES>  (1) 
9
1 1 acceptor
1 2 acceptor
1 3 acceptor
1 4 acceptor
1 5 cation
1 6 cation
6 10 12 22 24 26 28 rings
6 9 10 11 12 19 20 rings
6 9 11 21 23 25 27 rings

>  <PUBCHEM_HEAVY_ATOM_COUNT>  (1) 
32

>  <PUBCHEM_ATOM_DEF_STEREO_COUNT>  (1) 
0

>  <PUBCHEM_ATOM_UDEF_STEREO_COUNT>  (1) 
0

>  <PUBCHEM_BOND_DEF_STEREO_COUNT>  (1) 
0

>  <PUBCHEM_BOND_UDEF_STEREO_COUNT>  (1) 
0

>  <PUBCHEM_ISOTOPIC_ATOM_COUNT>  (1) 
0

>  <PUBCHEM_COMPONENT_COUNT>  (1) 
1

>  <PUBCHEM_CACTVS_TAUTO_COUNT>  (1) 
1

>  <PUBCHEM_CONFORMER_ID>  (1) 
0000918500000001

>  <PUBCHEM_MMFF94_ENERGY>  (1) 
90.4499

>  <PUBCHEM_FEATURE_SELFOVERLAP>  (1) 
45.714

>  <PUBCHEM_SHAPE_FINGERPRINT>  (1) 
10076449 9 9871749092279879247
10533779 47 18342174428779312474
10625338 86 16128381437403917273
11135926 11 18335692841439261903
11181472 205 14045479811825716007
11408170 108 14273730716338634489
11456790 92 18341898506298335089
11638347 137 17676205758756617066
11828042 75 15721950452602047491
12539745 222 17168139014762464813
12741549 16 17603302648883377941
12838862 33 18339630192641000933
13383665 225 13110423289330679579
13383668 254 17631998824104789757
13553643 46 17203610380280922921
13740195 50 18343018891809807417
14617042 71 17489022768998729680
15198563 99 9727368943219116362
15247644 1 14851899093244419729
15461852 350 14851602167861758239
15706992 2 16630252497050936176
1754911 235 9799693696705843090
1818759 1 16588025701583773962
19315958 150 17418380177109972430
19841028 212 17096358450209727306
20105231 36 17749108851957566482
2026 5 14491016200504925000
21267235 1 18336836315998163182
21344244 246 13984928594610211672
21792934 111 18411697686494610940
21792961 116 17894622631307402757
21895431 317 15357964656428297480
23576562 1 11023522715236724579
24771293 8 18131063878738213933
3178227 256 18409171029879046341
3383291 50 18186518826123080858
3711267 37 17131844174499960353
4339292 15 17095800014947460383
5104073 3 18266458711176249523
59682541 35 18410573998036353352
9953998 17 18131066065256342975

>  <PUBCHEM_SHAPE_MULTIPOLES>  (1) 
625.11
35.34
2.13
1.67
0.02
0
1.33
0.02
29.75
0
0.22
-0.01
0
2.78

>  <PUBCHEM_SHAPE_SELFOVERLAP>  (1) 
1314.547

>  <PUBCHEM_SHAPE_VOLUME>  (1) 
354.5

>  <PUBCHEM_COORDINATE_TYPE>  (1) 
2
5
10

$$$$
