37259
     RDKit          3D

  9  8  0  0  1  0  0  0  0  0999 V2000
    0.2659    1.2167    1.6811 Cl  0  0  0  0  0  0  0  0  0  0  0  0
    2.4944    0.5975   -0.3652 O   0  0  0  0  0  0  0  0  0  0  0  0
   -2.1215   -0.4117    0.3150 O   0  0  0  0  0  0  0  0  0  0  0  0
   -1.4914    1.1515   -1.0874 O   0  0  0  0  0  0  0  0  0  0  0  0
   -1.2606    0.3106   -0.2061 N   0  0  0  0  0  0  0  0  0  0  0  0
    0.1883    0.1395    0.2479 C   0  0  0  0  0  0  0  0  0  0  0  0
    0.4451   -1.3159    0.6844 C   0  0  0  0  0  0  0  0  0  0  0  0
    1.1505    0.6536   -0.8309 C   0  0  0  0  0  0  0  0  0  0  0  0
    0.3293   -2.3418   -0.4388 C   0  0  0  0  0  0  0  0  0  0  0  0
  1  6  1  0
  2  8  1  0
  3  5  1  0
  4  5  2  0
  5  6  1  0
  6  7  1  0
  6  8  1  0
  7  9  1  0
M  CHG  2   3  -1   5   1
M  END
>  <PUBCHEM_COMPOUND_CID>  (1) 
37259

>  <PUBCHEM_CONFORMER_RMSD>  (1) 
0.6

>  <PUBCHEM_CONFORMER_DIVERSEORDER>  (1) 
1
13
7
11
15
14
16
22
6
12
3
23
10
18
9
4
20
21
2
19
17
8
5

>  <PUBCHEM_MMFF94_PARTIAL_CHARGES>  (1) 
8
1 -0.29
17 0.4
2 -0.68
3 -0.52
4 -0.52
5 0.8
6 0.53
8 0.28

>  <PUBCHEM_EFFECTIVE_ROTOR_COUNT>  (1) 
3

>  <PUBCHEM_PHARMACOPHORE_FEATURES>  (1) 
6
1 2 acceptor
1 2 donor
1 3 acceptor
1 3 anion
1 4 acceptor
1 9 hydrophobe

>  <PUBCHEM_HEAVY_ATOM_COUNT>  (1) 
9

>  <PUBCHEM_ATOM_DEF_STEREO_COUNT>  (1) 
0

>  <PUBCHEM_ATOM_UDEF_STEREO_COUNT>  (1) 
1

>  <PUBCHEM_BOND_DEF_STEREO_COUNT>  (1) 
0

>  <PUBCHEM_BOND_UDEF_STEREO_COUNT>  (1) 
0

>  <PUBCHEM_ISOTOPIC_ATOM_COUNT>  (1) 
0

>  <PUBCHEM_COMPONENT_COUNT>  (1) 
1

>  <PUBCHEM_CACTVS_TAUTO_COUNT>  (1) 
1

>  <PUBCHEM_CONFORMER_ID>  (1) 
0000918B00000001

>  <PUBCHEM_MMFF94_ENERGY>  (1) 
16.8626

>  <PUBCHEM_FEATURE_SELFOVERLAP>  (1) 
30.528

>  <PUBCHEM_SHAPE_FINGERPRINT>  (1) 
12423570 1 15769514069906050920
137420 1 8932986089837621224
16714656 1 18044100269923439911
21040471 1 18336539529420759178
24536 1 17824517722201029917
5084963 1 18260277364427053400
5943 1 7808595159561432144
68250623 7 17240757342138803418

>  <PUBCHEM_SHAPE_MULTIPOLES>  (1) 
164.5
2.1
1.92
1.26
0.05
1.26
0.22
-0.46
-0.58
-0.31
0.27
0
-0.54
0.08

>  <PUBCHEM_SHAPE_SELFOVERLAP>  (1) 
297.945

>  <PUBCHEM_SHAPE_VOLUME>  (1) 
107.1

>  <PUBCHEM_COORDINATE_TYPE>  (1) 
2
5
10

$$$$
