37256
     RDKit          3D

 12 12  0  0  0  0  0  0  0  0999 V2000
    2.9643   -1.4772   -0.0016 O   0  0  0  0  0  0  0  0  0  0  0  0
    2.0299    0.6873    0.0000 N   0  0  0  0  0  0  0  0  0  0  0  0
   -4.6513   -0.4421   -0.0006 N   0  0  0  0  0  0  0  0  0  0  0  0
    0.6542    0.4541    0.0003 C   0  0  0  0  0  0  0  0  0  0  0  0
   -0.2350    1.5289   -0.0003 C   0  0  0  0  0  0  0  0  0  0  0  0
    0.1679   -0.8534    0.0009 C   0  0  0  0  0  0  0  0  0  0  0  0
   -1.6103    1.2964   -0.0003 C   0  0  0  0  0  0  0  0  0  0  0  0
   -1.2075   -1.0858    0.0009 C   0  0  0  0  0  0  0  0  0  0  0  0
   -2.0965   -0.0109    0.0002 C   0  0  0  0  0  0  0  0  0  0  0  0
    3.0671   -0.2547    0.0006 C   0  0  0  0  0  0  0  0  0  0  0  0
    4.4227    0.4061    0.0000 C   0  0  0  0  0  0  0  0  0  0  0  0
   -3.5056   -0.2486   -0.0002 C   0  0  0  0  0  0  0  0  0  0  0  0
  1 10  2  0
  2  4  1  0
  2 10  1  0
  3 12  3  0
  4  5  2  0
  4  6  1  0
  5  7  1  0
  6  8  2  0
  7  9  2  0
  8  9  1  0
  9 12  1  0
 10 11  1  0
M  END
>  <PUBCHEM_COMPOUND_CID>  (1) 
37256

>  <PUBCHEM_CONFORMER_RMSD>  (1) 
0.6

>  <PUBCHEM_CONFORMER_DIVERSEORDER>  (1) 
1
2

>  <PUBCHEM_MMFF94_PARTIAL_CHARGES>  (1) 
17
1 -0.57
10 0.57
11 0.06
12 0.48
13 0.15
14 0.15
15 0.37
16 0.15
17 0.15
2 -0.55
3 -0.56
4 0.12
5 -0.15
6 -0.15
7 -0.15
8 -0.15
9 0.07

>  <PUBCHEM_EFFECTIVE_ROTOR_COUNT>  (1) 
2

>  <PUBCHEM_PHARMACOPHORE_FEATURES>  (1) 
4
1 1 acceptor
1 2 donor
1 3 acceptor
6 4 5 6 7 8 9 rings

>  <PUBCHEM_HEAVY_ATOM_COUNT>  (1) 
12

>  <PUBCHEM_ATOM_DEF_STEREO_COUNT>  (1) 
0

>  <PUBCHEM_ATOM_UDEF_STEREO_COUNT>  (1) 
0

>  <PUBCHEM_BOND_DEF_STEREO_COUNT>  (1) 
0

>  <PUBCHEM_BOND_UDEF_STEREO_COUNT>  (1) 
0

>  <PUBCHEM_ISOTOPIC_ATOM_COUNT>  (1) 
0

>  <PUBCHEM_COMPONENT_COUNT>  (1) 
1

>  <PUBCHEM_CACTVS_TAUTO_COUNT>  (1) 
2

>  <PUBCHEM_CONFORMER_ID>  (1) 
0000918800000001

>  <PUBCHEM_MMFF94_ENERGY>  (1) 
28.5409

>  <PUBCHEM_FEATURE_SELFOVERLAP>  (1) 
20.297

>  <PUBCHEM_SHAPE_FINGERPRINT>  (1) 
10219947 1 18342178877578778055
11062470 55 11527950058183410547
11401426 45 18412257346581613533
12032990 46 18408890641835023035
12932764 1 17131817747439105668
13690532 89 18335419062573757875
14144814 61 18410856525644041728
14252887 29 18130799957393074846
14325111 11 18338798914357841572
14993402 34 18411136956806529887
16945 1 18410575106153804613
193761 8 17689999354869137319
20201158 50 18410857668079143994
20510252 161 18200876179822170184
20645477 70 18338232665753960302
21293036 1 18114179743774588229
22485316 2 18412822495273492751
23402539 116 18201430385627975357
23402655 69 18340480089306668293
23463225 33 18410013212799261486
69090 78 18201433700889378367
7364860 26 18268148841412248724

>  <PUBCHEM_SHAPE_MULTIPOLES>  (1) 
231.12
7.36
1.35
0.59
0.89
0.12
0
-1.09
0
0.11
0
-0.01
0.01
0

>  <PUBCHEM_SHAPE_SELFOVERLAP>  (1) 
478.868

>  <PUBCHEM_SHAPE_VOLUME>  (1) 
129.9

>  <PUBCHEM_COORDINATE_TYPE>  (1) 
2
5
10

$$$$
