37269
     RDKit          3D

 21 23  0  0  1  0  0  0  0  0999 V2000
    2.9388    0.2287    0.7810 O   0  0  0  0  0  0  0  0  0  0  0  0
    0.1807   -0.6099   -1.0350 O   0  0  0  0  0  0  0  0  0  0  0  0
   -1.1282   -2.4520   -1.1786 O   0  0  0  0  0  0  0  0  0  0  0  0
   -3.4029   -2.5039    0.0874 O   0  0  0  0  0  0  0  0  0  0  0  0
   -5.3384    1.7003    1.1324 O   0  0  0  0  0  0  0  0  0  0  0  0
    2.8740    0.3614   -0.6428 C   0  0  0  0  0  0  0  0  0  0  0  0
    4.1762    0.9603   -1.1777 C   0  0  0  0  0  0  0  0  0  0  0  0
    1.6850    1.2532   -0.9727 C   0  0  0  0  0  0  0  0  0  0  0  0
    5.3727    0.1202   -0.7428 C   0  0  0  0  0  0  0  0  0  0  0  0
    0.3870    0.6822   -0.4200 C   0  0  0  0  0  0  0  0  0  0  0  0
    3.9837   -0.6545    1.2020 C   0  0  0  0  0  0  0  0  0  0  0  0
    5.3447   -0.1096    0.7647 C   0  0  0  0  0  0  0  0  0  0  0  0
   -0.7933    1.5932   -0.7239 C   0  0  0  0  0  0  0  0  0  0  0  0
   -2.0352    0.9074   -0.2406 C   0  0  0  0  0  0  0  0  0  0  0  0
    3.9048   -0.7787    2.7173 C   0  0  0  0  0  0  0  0  0  0  0  0
   -2.1172   -0.4890   -0.3062 C   0  0  0  0  0  0  0  0  0  0  0  0
   -0.9930   -1.2766   -0.8655 C   0  0  0  0  0  0  0  0  0  0  0  0
   -3.1277    1.6405    0.2355 C   0  0  0  0  0  0  0  0  0  0  0  0
   -3.2762   -1.1472    0.1173 C   0  0  0  0  0  0  0  0  0  0  0  0
   -4.2814    0.9827    0.6624 C   0  0  0  0  0  0  0  0  0  0  0  0
   -4.3541   -0.4085    0.6058 C   0  0  0  0  0  0  0  0  0  0  0  0
  1  6  1  0
  1 11  1  0
  2 10  1  0
  2 17  1  0
  3 17  2  0
  4 19  1  0
  5 20  1  0
  6  7  1  0
  6  8  1  0
  7  9  1  0
  8 10  1  0
  9 12  1  0
 10 13  1  0
 11 12  1  0
 11 15  1  0
 13 14  1  0
 14 16  2  0
 14 18  1  0
 16 17  1  0
 16 19  1  0
 18 20  2  0
 19 21  2  0
 20 21  1  0
M  END
>  <PUBCHEM_COMPOUND_CID>  (1) 
37269

>  <PUBCHEM_CONFORMER_RMSD>  (1) 
0.6

>  <PUBCHEM_CONFORMER_DIVERSEORDER>  (1) 
2
59
64
52
57
66
42
36
68
33
51
24
41
17
3
9
69
23
73
58
34
70
13
38
55
39
60
63
7
62
19
50
16
6
40
67
11
29
28
5
44
18
74
30
54
35
15
37
8
48
26
45
32
10
20
49
71
47
4
46
21
25
75
72
56
43
53
12
31
1
61
14
27
65
22

>  <PUBCHEM_MMFF94_PARTIAL_CHARGES>  (1) 
20
1 -0.56
10 0.28
11 0.28
13 0.14
14 -0.14
16 0.09
17 0.63
18 -0.15
19 0.08
2 -0.43
20 0.08
21 -0.15
3 -0.57
38 0.15
39 0.15
4 -0.53
40 0.45
41 0.45
5 -0.53
6 0.28

>  <PUBCHEM_EFFECTIVE_ROTOR_COUNT>  (1) 
3.8

>  <PUBCHEM_PHARMACOPHORE_FEATURES>  (1) 
7
1 1 acceptor
1 3 acceptor
1 4 donor
1 5 donor
6 1 6 7 9 11 12 rings
6 14 16 18 19 20 21 rings
6 2 10 13 14 16 17 rings

>  <PUBCHEM_HEAVY_ATOM_COUNT>  (1) 
21

>  <PUBCHEM_ATOM_DEF_STEREO_COUNT>  (1) 
0

>  <PUBCHEM_ATOM_UDEF_STEREO_COUNT>  (1) 
3

>  <PUBCHEM_BOND_DEF_STEREO_COUNT>  (1) 
0

>  <PUBCHEM_BOND_UDEF_STEREO_COUNT>  (1) 
0

>  <PUBCHEM_ISOTOPIC_ATOM_COUNT>  (1) 
0

>  <PUBCHEM_COMPONENT_COUNT>  (1) 
1

>  <PUBCHEM_CACTVS_TAUTO_COUNT>  (1) 
25

>  <PUBCHEM_CONFORMER_ID>  (1) 
0000919500000002

>  <PUBCHEM_MMFF94_ENERGY>  (1) 
51.8213

>  <PUBCHEM_FEATURE_SELFOVERLAP>  (1) 
35.549

>  <PUBCHEM_SHAPE_FINGERPRINT>  (1) 
10062212 137 18334858354983687783
11089746 13 15626222382085751692
11545043 162 17703795846628762054
12107183 9 17246097524181657536
12166972 35 11312059833868868830
12236239 1 18186526513961241148
12403259 415 17132119069111577006
12553582 1 18114169853113726164
12596602 18 18410294744090861792
12633257 1 18411984658844707569
12670546 177 8934997079271830659
12670546 56 18261951946253193788
12788726 201 18188780444100323952
12839892 36 18411419514352967071
13140716 1 18341055224114424225
13167823 11 17967816046141368568
13551218 46 18188771643500876610
13583140 156 17240199932893991941
13675066 3 17703795833606431156
14251764 38 15769782329358005224
14341114 328 18113900463837590842
14420673 8 18267307526239061662
15042514 8 18126572447434155623
15375462 189 17967809449335469436
15537594 2 17894633643360826010
15848702 151 15140966144770163860
17349148 13 18340759434032256991
17804303 29 18271529792016396221
17959699 21 12967131596687807403
1813 80 17023193686516893022
19078846 21 18409728486870171172
19377110 9 17894900863700225808
19489759 90 17917993871736529769
200 152 16443060608400145292
20554085 129 17916014678003255017
20645477 70 15502373405592635128
21033648 29 17275097332215521594
212916 134 18060133211309747971
22950370 63 18040156227668438500
23366157 5 17900264409515668813
23402539 116 18060700589543620661
23557571 272 17775295996871781679
23559900 14 17987535748667807484
23596394 208 13840251573271885232
23598288 3 18042668542928883004
2838139 119 14907907024780850945
351380 180 15339119022474208112
351380 3 17894349969223625418
4072396 5 18336264544714782197
474 4 13686296894288408164
495365 180 16773514369946874910
5104073 3 18337957899531782792
5385378 56 17986407594072153195
573450 72 18409448106824959567
57724786 102 15482394282667008386
58807428 26 18338521846191890379
5924683 9 17488733614061090687
602551 16 18201434831098760430
7064713 232 18342172241537788355
90316 7 18261388936381629837
9862522 239 18338224956593333605
9971528 1 12319466476709186052

>  <PUBCHEM_SHAPE_MULTIPOLES>  (1) 
402.82
11.88
1.92
1.51
5.29
0.52
-0.64
-0.13
-4.33
-1.51
0.23
1.16
0.52
-2.26

>  <PUBCHEM_SHAPE_SELFOVERLAP>  (1) 
861.434

>  <PUBCHEM_SHAPE_VOLUME>  (1) 
222.1

>  <PUBCHEM_COORDINATE_TYPE>  (1) 
2
5
10

$$$$
