37261
     RDKit          3D

 25 27  0  0  1  0  0  0  0  0999 V2000
    1.9288    1.1836    0.2823 O   0  0  0  0  0  0  0  0  0  0  0  0
    3.2569    2.1878   -1.3227 O   0  0  0  0  0  0  0  0  0  0  0  0
   -1.0602    0.3990    0.1920 O   0  0  0  0  0  0  0  0  0  0  0  0
    5.0432   -0.2361   -0.6578 C   0  0  0  0  0  0  0  0  0  0  0  0
    4.0739   -0.8106    0.3179 C   0  0  0  0  0  0  0  0  0  0  0  0
    4.2143    0.6695    0.2052 C   0  0  0  0  0  0  0  0  0  0  0  0
    6.4921   -0.4085   -0.3467 C   0  0  0  0  0  0  0  0  0  0  0  0
    4.7422   -0.2530   -2.1197 C   0  0  0  0  0  0  0  0  0  0  0  0
    2.8232   -1.4242   -0.1678 C   0  0  0  0  0  0  0  0  0  0  0  0
    3.0950    1.4352   -0.3727 C   0  0  0  0  0  0  0  0  0  0  0  0
    1.8740   -2.0451    0.5584 C   0  0  0  0  0  0  0  0  0  0  0  0
    0.6482   -2.6214   -0.0941 C   0  0  0  0  0  0  0  0  0  0  0  0
    1.9426   -2.2190    2.0491 C   0  0  0  0  0  0  0  0  0  0  0  0
    0.7835    1.8860   -0.2111 C   0  0  0  0  0  0  0  0  0  0  0  0
   -0.3811    1.4746    0.6346 C   0  0  0  0  0  0  0  0  0  0  0  0
   -0.9007    1.9792    1.7821 C   0  0  0  0  0  0  0  0  0  0  0  0
   -2.0591    0.2022    1.0923 C   0  0  0  0  0  0  0  0  0  0  0  0
   -2.0042    1.1480    2.0893 C   0  0  0  0  0  0  0  0  0  0  0  0
   -2.9567   -0.9315    0.8298 C   0  0  0  0  0  0  0  0  0  0  0  0
   -4.1716   -0.5819   -0.0248 C   0  0  0  0  0  0  0  0  0  0  0  0
   -4.0731   -0.6948   -1.3947 C   0  0  0  0  0  0  0  0  0  0  0  0
   -5.3259   -0.1657    0.6023 C   0  0  0  0  0  0  0  0  0  0  0  0
   -5.1836   -0.3754   -2.1759 C   0  0  0  0  0  0  0  0  0  0  0  0
   -6.4364    0.1535   -0.1792 C   0  0  0  0  0  0  0  0  0  0  0  0
   -6.3652    0.0485   -1.5683 C   0  0  0  0  0  0  0  0  0  0  0  0
  1 10  1  0
  1 14  1  0
  2 10  2  0
  3 15  1  0
  3 17  1  0
  4  5  1  0
  4  6  1  0
  4  7  1  0
  4  8  1  0
  5  6  1  0
  5  9  1  0
  6 10  1  0
  9 11  2  3
 11 12  1  0
 11 13  1  0
 14 15  1  0
 15 16  2  0
 16 18  1  0
 17 18  2  0
 17 19  1  0
 19 20  1  0
 20 21  2  0
 20 22  1  0
 21 23  1  0
 22 24  2  0
 23 25  2  0
 24 25  1  0
M  END
>  <PUBCHEM_COMPOUND_CID>  (1) 
37261

>  <PUBCHEM_CONFORMER_RMSD>  (1) 
1.2

>  <PUBCHEM_CONFORMER_DIVERSEORDER>  (1) 
5
91
110
50
123
12
3
109
99
115
124
121
11
4
29
24
96
84
139
45
63
151
79
26
71
47
22
2
100
58
46
14
34
37
95
62
133
75
142
72
66
18
25
93
103
82
135
88
8
98
118
32
69
59
140
146
17
74
38
54
129
105
1
15
83
104
6
122
130
67
86
155
39
10
131
113
141
44
97
16
53
120
108
85
23
81
144
36
64
152
43
40
90
13
57
42
70
157
101
132
153
21
143
61
73
145
49
128
52
27
7
87
102
111
28
92
41
150
154
33
60
9
80
125
20
116
76
31
106
137
117
156
48
138
114
126
65
107
68
77
127
136
78
56
89
149
51
30
19
55
147
35
94
112
119
148
134

>  <PUBCHEM_MMFF94_PARTIAL_CHARGES>  (1) 
35
1 -0.43
10 0.72
11 -0.28
12 0.14
13 0.14
14 0.46
15 -0.04
16 -0.15
17 -0.04
18 -0.15
19 0.32
2 -0.57
20 -0.14
21 -0.15
22 -0.15
23 -0.15
24 -0.15
25 -0.15
26 0.1
27 0.1
3 -0.28
34 0.15
4 -0.19
43 0.15
44 0.15
47 0.15
48 0.15
49 0.15
5 -0.06
50 0.15
51 0.15
6 -0.1
7 0.09
8 0.09
9 -0.19

>  <PUBCHEM_EFFECTIVE_ROTOR_COUNT>  (1) 
7.6

>  <PUBCHEM_PHARMACOPHORE_FEATURES>  (1) 
6
1 2 acceptor
1 3 acceptor
3 11 12 13 hydrophobe
3 4 7 8 hydrophobe
5 3 15 16 17 18 rings
6 20 21 22 23 24 25 rings

>  <PUBCHEM_HEAVY_ATOM_COUNT>  (1) 
25

>  <PUBCHEM_ATOM_DEF_STEREO_COUNT>  (1) 
2

>  <PUBCHEM_ATOM_UDEF_STEREO_COUNT>  (1) 
0

>  <PUBCHEM_BOND_DEF_STEREO_COUNT>  (1) 
0

>  <PUBCHEM_BOND_UDEF_STEREO_COUNT>  (1) 
0

>  <PUBCHEM_ISOTOPIC_ATOM_COUNT>  (1) 
0

>  <PUBCHEM_COMPONENT_COUNT>  (1) 
1

>  <PUBCHEM_CACTVS_TAUTO_COUNT>  (1) 
1

>  <PUBCHEM_CONFORMER_ID>  (1) 
0000918D00000005

>  <PUBCHEM_MMFF94_ENERGY>  (1) 
49.9024

>  <PUBCHEM_FEATURE_SELFOVERLAP>  (1) 
30.446

>  <PUBCHEM_SHAPE_FINGERPRINT>  (1) 
10447042 23 18409444770025812642
11069576 57 18190450572034822098
12011746 2 18334020488653336938
12236239 1 17917713508876689453
12788726 201 18129943365289787089
12838862 33 18336531799197187592
14251757 17 17459174214974626549
14840074 17 18272373074933438711
14931854 50 18337119986188555862
15001296 14 18130779114006309047
15183329 4 18187361017896811765
15188451 53 17561362851261204316
17492 54 18260561021690379154
17857418 61 17704076195996876733
18222031 100 16558761151575854337
200 152 18342740710682628977
20028762 73 17917712388244206006
20511986 3 18201429260389060049
20645477 70 18260834816621967025
21033648 29 13768506335257914060
22393880 68 18263075668822860627
23559900 14 18339078323323914833
2871803 45 18408888425684606992
3004659 81 18412822499389144397
339767 52 17418089936410536575
3459 110 11239699916840545125
4098825 35 16370722604305235707
46194498 28 17387136575418241165
463206 1 18272086158185775311
59682541 52 18189314850264871343
960060 61 18341891930787618453

>  <PUBCHEM_SHAPE_MULTIPOLES>  (1) 
496.88
15.12
2.22
1.87
8.39
0.07
-0.12
2.35
-7.73
-1.53
0.67
0.83
0.08
-1.46

>  <PUBCHEM_SHAPE_SELFOVERLAP>  (1) 
1054.405

>  <PUBCHEM_SHAPE_VOLUME>  (1) 
280.7

>  <PUBCHEM_COORDINATE_TYPE>  (1) 
2
5
10

$$$$
