37262
     RDKit          3D

 13 14  0  0  1  0  0  0  0  0999 V2000
    1.3754   -1.3486    0.2097 O   0  0  0  0  0  0  0  0  0  0  0  0
    0.7150    2.6667    0.1866 O   0  0  0  0  0  0  0  0  0  0  0  0
    2.1713    0.8911   -0.0132 N   0  0  0  0  0  0  0  0  0  0  0  0
   -3.8899    0.4288   -0.1501 N   0  0  0  0  0  0  0  0  0  0  0  0
    2.3445   -0.4925   -0.4122 C   0  0  0  0  0  0  0  0  0  0  0  0
   -0.1902    0.4947    0.0070 C   0  0  0  0  0  0  0  0  0  0  0  0
    0.0965   -0.8697    0.0999 C   0  0  0  0  0  0  0  0  0  0  0  0
    0.9202    1.4656    0.0607 C   0  0  0  0  0  0  0  0  0  0  0  0
    3.7269   -0.9984   -0.0314 C   0  0  0  0  0  0  0  0  0  0  0  0
   -1.5142    0.9318   -0.0764 C   0  0  0  0  0  0  0  0  0  0  0  0
   -0.9416   -1.8001    0.1355 C   0  0  0  0  0  0  0  0  0  0  0  0
   -2.5496   -0.0037   -0.0628 C   0  0  0  0  0  0  0  0  0  0  0  0
   -2.2645   -1.3658    0.0467 C   0  0  0  0  0  0  0  0  0  0  0  0
  1  5  1  0
  1  7  1  0
  2  8  2  0
  3  5  1  0
  3  8  1  0
  4 12  1  0
  5  9  1  0
  6  7  2  0
  6  8  1  0
  6 10  1  0
  7 11  1  0
 10 12  2  0
 11 13  2  0
 12 13  1  0
M  END
>  <PUBCHEM_COMPOUND_CID>  (1) 
37262

>  <PUBCHEM_CONFORMER_RMSD>  (1) 
0.4

>  <PUBCHEM_CONFORMER_DIVERSEORDER>  (1) 
2
1
3

>  <PUBCHEM_MMFF94_PARTIAL_CHARGES>  (1) 
18
1 -0.36
10 -0.15
11 -0.15
12 0.1
13 -0.15
15 0.37
19 0.15
2 -0.57
20 0.15
21 0.15
22 0.4
23 0.4
3 -0.73
4 -0.9
5 0.58
6 0.09
7 0.08
8 0.54

>  <PUBCHEM_EFFECTIVE_ROTOR_COUNT>  (1) 
0.6

>  <PUBCHEM_PHARMACOPHORE_FEATURES>  (1) 
7
1 1 acceptor
1 2 acceptor
1 3 donor
1 4 cation
1 4 donor
6 1 3 5 6 7 8 rings
6 6 7 10 11 12 13 rings

>  <PUBCHEM_HEAVY_ATOM_COUNT>  (1) 
13

>  <PUBCHEM_ATOM_DEF_STEREO_COUNT>  (1) 
0

>  <PUBCHEM_ATOM_UDEF_STEREO_COUNT>  (1) 
1

>  <PUBCHEM_BOND_DEF_STEREO_COUNT>  (1) 
0

>  <PUBCHEM_BOND_UDEF_STEREO_COUNT>  (1) 
0

>  <PUBCHEM_ISOTOPIC_ATOM_COUNT>  (1) 
0

>  <PUBCHEM_COMPONENT_COUNT>  (1) 
1

>  <PUBCHEM_CACTVS_TAUTO_COUNT>  (1) 
2

>  <PUBCHEM_CONFORMER_ID>  (1) 
0000918E00000002

>  <PUBCHEM_MMFF94_ENERGY>  (1) 
46.4336

>  <PUBCHEM_FEATURE_SELFOVERLAP>  (1) 
35.553

>  <PUBCHEM_SHAPE_FINGERPRINT>  (1) 
10130415 120 18335137574928455826
10967382 1 18410575037466216747
11471102 20 18410570695654921453
12032990 46 18410863135308962534
13380535 21 18119823644466137005
14325111 11 18338236067483518461
14648413 74 18265334104112890625
14911166 2 18409726236270190199
14993402 34 18412544275824061223
16945 1 18410575089105856235
17990270 104 18266456697021268906
193761 8 18050568744111384938
19973954 147 18194122038959103267
20201158 50 18412827958298086374
20511035 2 18196094566945567342
20588541 1 18336550421468637719
21501502 16 18266742578592285735
2334 1 18122064470638329011
23402539 116 18200582597327182358
23402655 69 18267570331287745053
23463225 33 18336547127487177930
23552423 10 18118404179128235343
23559900 14 18411983547286558310
25 1 18117264858086954981
2748010 2 18193275423611546103
3071541 12 18267307714821691340
3071541 158 18261112997580567636
528886 8 18410852144471646107
53812653 166 18411414020640837592
63268167 104 18338805605653086433
7364860 26 18198904910345545720
81228 2 18124893265265121752
8809292 202 18260554445494380731

>  <PUBCHEM_SHAPE_MULTIPOLES>  (1) 
245.83
4.93
2.05
0.61
0.05
0.73
-0.01
-0.99
-0.34
0.33
0.16
0.02
-0.02
0.1

>  <PUBCHEM_SHAPE_SELFOVERLAP>  (1) 
530.547

>  <PUBCHEM_SHAPE_VOLUME>  (1) 
134.7

>  <PUBCHEM_COORDINATE_TYPE>  (1) 
2
5
10

$$$$
