37271
     RDKit          3D

 17 18  0  0  1  0  0  0  0  0999 V2000
    0.3558    0.3800   -0.5960 O   0  0  0  0  0  0  0  0  0  0  0  0
   -0.8656    2.0827    0.4508 O   0  0  0  0  0  0  0  0  0  0  0  0
    2.9142   -0.6319    0.2198 O   0  0  0  0  0  0  0  0  0  0  0  0
    5.1179   -0.0029    0.0004 O   0  0  0  0  0  0  0  0  0  0  0  0
    4.4910   -2.2116   -0.1235 N   0  0  0  0  0  0  0  0  0  0  0  0
   -0.9270    1.0366   -0.5397 C   0  0  0  0  0  0  0  0  0  0  0  0
    1.0383    0.8008    0.5871 C   0  0  0  0  0  0  0  0  0  0  0  0
    0.5157    2.1988    0.7926 C   0  0  0  0  0  0  0  0  0  0  0  0
   -2.0293    0.0451   -0.1980 C   0  0  0  0  0  0  0  0  0  0  0  0
   -1.1875    1.6733   -1.9044 C   0  0  0  0  0  0  0  0  0  0  0  0
    2.5373    0.7261    0.3918 C   0  0  0  0  0  0  0  0  0  0  0  0
   -1.9052   -1.2925   -0.5733 C   0  0  0  0  0  0  0  0  0  0  0  0
   -3.1641    0.4738    0.4904 C   0  0  0  0  0  0  0  0  0  0  0  0
   -2.9159   -2.2015   -0.2602 C   0  0  0  0  0  0  0  0  0  0  0  0
   -4.1748   -0.4352    0.8036 C   0  0  0  0  0  0  0  0  0  0  0  0
   -4.0506   -1.7728    0.4283 C   0  0  0  0  0  0  0  0  0  0  0  0
    4.2498   -0.8688    0.0302 C   0  0  0  0  0  0  0  0  0  0  0  0
  1  6  1  0
  1  7  1  0
  2  6  1  0
  2  8  1  0
  3 11  1  0
  3 17  1  0
  4 17  2  0
  5 17  1  0
  6  9  1  0
  6 10  1  0
  7  8  1  0
  7 11  1  0
  9 12  2  0
  9 13  1  0
 12 14  1  0
 13 15  2  0
 14 16  2  0
 15 16  1  0
M  END
>  <PUBCHEM_COMPOUND_CID>  (1) 
37271

>  <PUBCHEM_CONFORMER_RMSD>  (1) 
0.6

>  <PUBCHEM_CONFORMER_DIVERSEORDER>  (1) 
25
20
128
114
126
107
90
56
53
9
80
123
44
151
124
1
117
87
7
106
158
5
113
145
42
32
82
30
74
127
83
142
96
103
85
136
49
62
40
159
88
28
148
133
27
122
120
43
94
132
19
109
129
16
75
52
102
137
22
162
150
71
160
97
2
73
58
138
149
51
38
152
65
47
68
156
84
119
153
11
72
140
130
118
147
26
110
23
77
104
70
37
108
99
60
161
14
50
66
35
55
76
91
78
4
10
101
95
45
29
116
8
112
46
157
111
31
105
81
115
144
39
69
64
100
57
63
86
98
155
6
89
15
36
48
146
41
3
79
13
139
125
93
61
92
24
34
33
18
143
134
154
141
21
12
59
54
67
131
121
17
135

>  <PUBCHEM_MMFF94_PARTIAL_CHARGES>  (1) 
23
1 -0.56
11 0.28
12 -0.15
13 -0.15
14 -0.15
15 -0.15
16 -0.15
17 0.78
2 -0.56
26 0.15
27 0.15
28 0.15
29 0.15
3 -0.43
30 0.15
31 0.37
32 0.37
4 -0.57
5 -0.8
6 0.7
7 0.28
8 0.28
9 -0.14

>  <PUBCHEM_EFFECTIVE_ROTOR_COUNT>  (1) 
5

>  <PUBCHEM_PHARMACOPHORE_FEATURES>  (1) 
6
1 1 acceptor
1 2 acceptor
1 4 acceptor
1 5 donor
5 1 2 6 7 8 rings
6 9 12 13 14 15 16 rings

>  <PUBCHEM_HEAVY_ATOM_COUNT>  (1) 
17

>  <PUBCHEM_ATOM_DEF_STEREO_COUNT>  (1) 
0

>  <PUBCHEM_ATOM_UDEF_STEREO_COUNT>  (1) 
2

>  <PUBCHEM_BOND_DEF_STEREO_COUNT>  (1) 
0

>  <PUBCHEM_BOND_UDEF_STEREO_COUNT>  (1) 
0

>  <PUBCHEM_ISOTOPIC_ATOM_COUNT>  (1) 
0

>  <PUBCHEM_COMPONENT_COUNT>  (1) 
1

>  <PUBCHEM_CACTVS_TAUTO_COUNT>  (1) 
2

>  <PUBCHEM_CONFORMER_ID>  (1) 
0000919700000019

>  <PUBCHEM_MMFF94_ENERGY>  (1) 
41.4479

>  <PUBCHEM_FEATURE_SELFOVERLAP>  (1) 
30.488

>  <PUBCHEM_SHAPE_FINGERPRINT>  (1) 
11046707 91 18407758148905428771
12006461 19 18338516460112756931
12251169 10 18059578039621175417
12553582 1 18336815455315937666
12596602 18 16486976253738569418
12633257 1 17489040352341222275
12670546 177 13479143418409403587
12714826 92 18187915158244470613
12760667 363 18270112414265040174
12892183 10 17774439533032151225
13103583 49 17917447439984892299
13533116 47 17983011443362415443
14251764 30 17530975708502610723
15209289 33 18335142020167165299
15375462 189 18408038515817656530
17804303 29 18341055202617897587
1813 80 17894914056916300748
18186145 218 14346077563586304093
19141452 34 18413389856427612191
19422 9 18337115660681760793
19784866 135 18342174419107371776
20281475 54 18338797930535952885
20291156 8 18410008836443988202
20361792 2 17459739505695766933
20871998 22 18338793532510813625
20871999 31 17822283570080949005
22094290 60 17749387044365433020
22620623 9 17458888384842906431
22950370 63 18412834598612671674
23402539 116 16660358160976170044
23557571 272 17749937955853182140
23559900 14 18340760537412084032
238078 22 18412553132415663192
27216 239 9871453348846441238
2871803 45 18114454608997486746
351380 180 8646773279163597562
3759504 43 17978226058824662093
4325135 7 18334017237658493300
4416823 128 18410571829088476603
5104073 3 18129655284996331714
7097593 13 17843399837248244577
83771 10 18409729581902007456

>  <PUBCHEM_SHAPE_MULTIPOLES>  (1) 
321.39
8.81
2.37
1.04
8.26
0.19
0.36
6.52
-1.31
-0.14
0.12
-0.5
-0.49
0.41

>  <PUBCHEM_SHAPE_SELFOVERLAP>  (1) 
674.791

>  <PUBCHEM_SHAPE_VOLUME>  (1) 
181.5

>  <PUBCHEM_COORDINATE_TYPE>  (1) 
2
5
10

$$$$
