37277
     RDKit          3D

  8  9  0  0  1  0  0  0  0  0999 V2000
   -0.6823   -0.6190   -0.6446 N   0  0  0  0  0  0  0  0  0  0  0  0
   -0.5232    0.8567   -0.4636 C   0  0  0  0  0  0  0  0  0  0  0  0
   -1.4697    0.7814    0.7531 C   0  0  0  0  0  0  0  0  0  0  0  0
   -1.9862   -0.5091    0.0779 C   0  0  0  0  0  0  0  0  0  0  0  0
    0.9072    1.3730   -0.3803 C   0  0  0  0  0  0  0  0  0  0  0  0
    0.2499   -1.4197    0.1690 C   0  0  0  0  0  0  0  0  0  0  0  0
    1.8099    0.4933    0.4682 C   0  0  0  0  0  0  0  0  0  0  0  0
    1.6943   -0.9565    0.0203 C   0  0  0  0  0  0  0  0  0  0  0  0
  1  2  1  0
  1  4  1  0
  1  6  1  0
  2  3  1  0
  2  5  1  0
  3  4  1  0
  5  7  1  0
  6  8  1  0
  7  8  1  0
M  END
>  <PUBCHEM_COMPOUND_CID>  (1) 
37277

>  <PUBCHEM_CONFORMER_RMSD>  (1) 
0.4

>  <PUBCHEM_CONFORMER_DIVERSEORDER>  (1) 
1
2
3
4

>  <PUBCHEM_MMFF94_PARTIAL_CHARGES>  (1) 
4
1 -0.69
2 0.21
4 0.21
6 0.27

>  <PUBCHEM_EFFECTIVE_ROTOR_COUNT>  (1) 
1.2

>  <PUBCHEM_PHARMACOPHORE_FEATURES>  (1) 
3
1 1 cation
4 1 2 3 4 rings
6 1 2 5 6 7 8 rings

>  <PUBCHEM_HEAVY_ATOM_COUNT>  (1) 
8

>  <PUBCHEM_ATOM_DEF_STEREO_COUNT>  (1) 
0

>  <PUBCHEM_ATOM_UDEF_STEREO_COUNT>  (1) 
1

>  <PUBCHEM_BOND_DEF_STEREO_COUNT>  (1) 
0

>  <PUBCHEM_BOND_UDEF_STEREO_COUNT>  (1) 
0

>  <PUBCHEM_ISOTOPIC_ATOM_COUNT>  (1) 
0

>  <PUBCHEM_COMPONENT_COUNT>  (1) 
1

>  <PUBCHEM_CACTVS_TAUTO_COUNT>  (1) 
1

>  <PUBCHEM_CONFORMER_ID>  (1) 
0000919D00000001

>  <PUBCHEM_MMFF94_ENERGY>  (1) 
20.1715

>  <PUBCHEM_FEATURE_SELFOVERLAP>  (1) 
15.696

>  <PUBCHEM_SHAPE_FINGERPRINT>  (1) 
18185500 45 18268422606468300382
20096714 4 18342739598185683930
21040471 1 18266743665176787532
21922407 69 16628520710502873094
23552423 10 18334861614573773582
241688 4 18336825269352710002
24536 1 18410846672693665512
29004967 10 17967534575132512800
5084963 1 18341896289878405720

>  <PUBCHEM_SHAPE_MULTIPOLES>  (1) 
159.66
2.38
1.5
0.8
0.08
0.05
0.03
0.09
0.34
-0.28
-0.05
0.08
-0.09
-0.11

>  <PUBCHEM_SHAPE_SELFOVERLAP>  (1) 
321.421

>  <PUBCHEM_SHAPE_VOLUME>  (1) 
95.3

>  <PUBCHEM_COORDINATE_TYPE>  (1) 
2
5
10

$$$$
