37282
     RDKit          3D

 18 19  0  0  1  0  0  0  0  0999 V2000
   -5.2871    2.2083    0.5016 Cl  0  0  0  0  0  0  0  0  0  0  0  0
    0.7233   -0.5013   -0.5893 O   0  0  0  0  0  0  0  0  0  0  0  0
   -0.3353   -2.2678    0.5270 O   0  0  0  0  0  0  0  0  0  0  0  0
    3.1291    0.8274    0.2032 O   0  0  0  0  0  0  0  0  0  0  0  0
    5.3947    0.4371    0.0837 O   0  0  0  0  0  0  0  0  0  0  0  0
    4.5313    2.5465   -0.2195 N   0  0  0  0  0  0  0  0  0  0  0  0
   -0.4818   -1.2909   -0.5235 C   0  0  0  0  0  0  0  0  0  0  0  0
    1.4127   -0.7777    0.6317 C   0  0  0  0  0  0  0  0  0  0  0  0
    1.0399   -2.2115    0.9062 C   0  0  0  0  0  0  0  0  0  0  0  0
   -1.6939   -0.4084   -0.2644 C   0  0  0  0  0  0  0  0  0  0  0  0
   -0.6333   -2.0264   -1.8544 C   0  0  0  0  0  0  0  0  0  0  0  0
    2.8996   -0.5485    0.4670 C   0  0  0  0  0  0  0  0  0  0  0  0
   -2.7950   -0.9195    0.4225 C   0  0  0  0  0  0  0  0  0  0  0  0
   -1.7036    0.9119   -0.7138 C   0  0  0  0  0  0  0  0  0  0  0  0
   -3.9059   -0.1101    0.6598 C   0  0  0  0  0  0  0  0  0  0  0  0
   -2.8145    1.7213   -0.4764 C   0  0  0  0  0  0  0  0  0  0  0  0
   -3.9158    1.2102    0.2104 C   0  0  0  0  0  0  0  0  0  0  0  0
    4.4356    1.1995    0.0281 C   0  0  0  0  0  0  0  0  0  0  0  0
  1 17  1  0
  2  7  1  0
  2  8  1  0
  3  7  1  0
  3  9  1  0
  4 12  1  0
  4 18  1  0
  5 18  2  0
  6 18  1  0
  7 10  1  0
  7 11  1  0
  8  9  1  0
  8 12  1  0
 10 13  2  0
 10 14  1  0
 13 15  1  0
 14 16  2  0
 15 17  2  0
 16 17  1  0
M  END
>  <PUBCHEM_COMPOUND_CID>  (1) 
37282

>  <PUBCHEM_CONFORMER_RMSD>  (1) 
0.6

>  <PUBCHEM_CONFORMER_DIVERSEORDER>  (1) 
7
8
128
74
141
139
92
69
42
80
116
135
39
142
96
46
99
56
88
49
81
95
48
101
24
134
38
3
130
90
100
140
123
28
145
93
72
71
89
86
108
110
127
61
84
76
65
137
22
112
66
20
104
79
97
43
106
52
132
6
63
75
64
68
109
113
85
2
45
91
87
4
114
40
111
78
138
136
26
122
55
77
30
98
53
9
144
94
120
11
41
27
115
73
58
129
118
107
103
67
33
125
25
117
51
36
62
21
143
105
34
121
32
119
82
12
29
131
37
124
13
5
83
44
57
16
1
35
17
126
54
59
19
60
31
47
14
102
23
133
10
18
15
70
50

>  <PUBCHEM_MMFF94_PARTIAL_CHARGES>  (1) 
23
1 -0.18
10 -0.14
12 0.28
13 -0.15
14 -0.15
15 -0.15
16 -0.15
17 0.18
18 0.78
2 -0.56
27 0.15
28 0.15
29 0.15
3 -0.56
30 0.15
31 0.37
32 0.37
4 -0.43
5 -0.57
6 -0.8
7 0.7
8 0.28
9 0.28

>  <PUBCHEM_EFFECTIVE_ROTOR_COUNT>  (1) 
5

>  <PUBCHEM_PHARMACOPHORE_FEATURES>  (1) 
6
1 2 acceptor
1 3 acceptor
1 5 acceptor
1 6 donor
5 2 3 7 8 9 rings
6 10 13 14 15 16 17 rings

>  <PUBCHEM_HEAVY_ATOM_COUNT>  (1) 
18

>  <PUBCHEM_ATOM_DEF_STEREO_COUNT>  (1) 
0

>  <PUBCHEM_ATOM_UDEF_STEREO_COUNT>  (1) 
2

>  <PUBCHEM_BOND_DEF_STEREO_COUNT>  (1) 
0

>  <PUBCHEM_BOND_UDEF_STEREO_COUNT>  (1) 
0

>  <PUBCHEM_ISOTOPIC_ATOM_COUNT>  (1) 
0

>  <PUBCHEM_COMPONENT_COUNT>  (1) 
1

>  <PUBCHEM_CACTVS_TAUTO_COUNT>  (1) 
2

>  <PUBCHEM_CONFORMER_ID>  (1) 
000091A200000007

>  <PUBCHEM_MMFF94_ENERGY>  (1) 
42.2594

>  <PUBCHEM_FEATURE_SELFOVERLAP>  (1) 
30.489

>  <PUBCHEM_SHAPE_FINGERPRINT>  (1) 
10681291 71 18335707134989597740
12173636 292 18191020308479065590
122479 349 18410576223182937714
12346645 44 18334853917892269322
12390115 104 18339377325940437961
12507560 40 17604989209129523653
12892183 10 16515963649464894049
13544653 18 8214138568883776822
14123255 52 18409164420145852288
1420 369 7925913698848886336
14341114 328 17748826314968347273
14774955 27 18339355263310792317
14787075 74 18337389460820958587
15163728 17 17774177716205318657
15209294 21 18333731329489354458
15342168 16 18342455894580116525
15534591 1 18340481265890648550
17834072 14 10375867472575036310
17834072 32 18411419518194182232
17980427 23 18260833713627827213
18785283 64 18197501727223888750
193927 3 8646485271125002360
19784866 170 18186805742696364601
20374829 77 9943809967118666977
204376 136 18410854343790222635
20621476 66 18410294748850279528
20645477 56 17988081218204638002
21069387 34 10807932699665107714
21524375 3 18413386548849022718
21652331 79 18334292093447191228
21756936 100 18337666520734682706
22620623 9 16486109855976856023
23227448 37 18266741470643762748
23403322 49 9295291638078647041
23559900 14 18049440344998274027
27216 239 18333732450702659305
2838139 119 18342731901552055157
38570 142 16589738827517418252
474 4 18408323267701413552
4921388 177 15338827724791416245
5104073 3 18186801357239233835
5283173 99 11887683831732440010
633830 44 18411697656086734326
76465 3 11242552045881991665
7808743 9 18264488554392086904
9999458 23 18191871128183238118

>  <PUBCHEM_SHAPE_MULTIPOLES>  (1) 
343.84
10.01
2.61
1.04
4.58
0.17
-0.3
9.68
1.71
0.44
-0.15
-0.25
-0.54
-0.5

>  <PUBCHEM_SHAPE_SELFOVERLAP>  (1) 
713.853

>  <PUBCHEM_SHAPE_VOLUME>  (1) 
197.7

>  <PUBCHEM_COORDINATE_TYPE>  (1) 
2
5
10

$$$$
