37289
     RDKit          3D

 15 14  0  0  1  0  0  0  0  0999 V2000
    0.3495   -2.3415   -1.1571 O   0  0  0  0  0  0  0  0  0  0  0  0
   -6.4883    0.8573   -0.4708 O   0  0  0  0  0  0  0  0  0  0  0  0
   -4.8930    2.2035    0.4222 O   0  0  0  0  0  0  0  0  0  0  0  0
    0.4035   -2.0013    0.2258 C   0  0  0  0  0  0  0  0  0  0  0  0
    1.8591   -1.7286    0.6404 C   0  0  0  0  0  0  0  0  0  0  0  0
    2.5059   -0.5298   -0.0640 C   0  0  0  0  0  0  0  0  0  0  0  0
   -0.5320   -0.8142    0.4872 C   0  0  0  0  0  0  0  0  0  0  0  0
    3.9551   -0.2817    0.3699 C   0  0  0  0  0  0  0  0  0  0  0  0
   -1.9928   -1.0585    0.0809 C   0  0  0  0  0  0  0  0  0  0  0  0
    4.5800    0.9608   -0.2687 C   0  0  0  0  0  0  0  0  0  0  0  0
   -2.8914    0.1686    0.2703 C   0  0  0  0  0  0  0  0  0  0  0  0
    6.0258    1.1517    0.1922 C   0  0  0  0  0  0  0  0  0  0  0  0
   -4.3208   -0.0772   -0.2168 C   0  0  0  0  0  0  0  0  0  0  0  0
    6.6637    2.3665   -0.4629 C   0  0  0  0  0  0  0  0  0  0  0  0
   -5.2244    1.1243   -0.0486 C   0  0  0  0  0  0  0  0  0  0  0  0
  1  4  1  0
  2 15  1  0
  3 15  2  0
  4  5  1  0
  4  7  1  0
  5  6  1  0
  6  8  1  0
  7  9  1  0
  8 10  1  0
  9 11  1  0
 10 12  1  0
 11 13  1  0
 12 14  1  0
 13 15  1  0
M  END
>  <PUBCHEM_COMPOUND_CID>  (1) 
37289

>  <PUBCHEM_CONFORMER_RMSD>  (1) 
1

>  <PUBCHEM_CONFORMER_DIVERSEORDER>  (1) 
1
55
207
125
99
184
71
128
3
4
166
49
76
200
80
46
11
186
107
6
73
68
138
145
162
38
118
176
163
22
23
95
204
43
164
74
2
35
9
84
90
14
179
41
102
150
86
123
31
170
57
178
15
175
16
153
180
185
62
85
141
5
105
53
72
115
199
110
7
188
30
54
137
98
48
66
191
132
13
78
168
89
64
121
21
44
39
181
117
131
24
147
139
120
91
103
173
159
8
96
157
87
26
29
112
195
34
190
140
174
60
156
198
65
32
127
58
206
196
130
155
19
28
27
154
67
61
172
100
187
114
182
203
152
79
177
36
81
143
45
151
161
17
69
126
202
116
111
169
20
50
167
97
129
42
136
113
10
51
134
201
52
12
47
33
106
25
119
146
56
158
82
88
142
104
183
37
197
144
194
18
70
93
77
149
192
94
108
59
160
148
101
75
92
189
205
208
135
171
133
63
124
109
165
40
122
193
83

>  <PUBCHEM_MMFF94_PARTIAL_CHARGES>  (1) 
8
1 -0.68
13 0.06
15 0.66
2 -0.65
3 -0.57
35 0.4
39 0.5
4 0.28

>  <PUBCHEM_EFFECTIVE_ROTOR_COUNT>  (1) 
10

>  <PUBCHEM_PHARMACOPHORE_FEATURES>  (1) 
8
1 1 acceptor
1 1 donor
1 14 hydrophobe
1 2 acceptor
1 3 acceptor
3 2 3 15 anion
4 7 9 11 13 hydrophobe
5 5 6 8 10 12 hydrophobe

>  <PUBCHEM_HEAVY_ATOM_COUNT>  (1) 
15

>  <PUBCHEM_ATOM_DEF_STEREO_COUNT>  (1) 
0

>  <PUBCHEM_ATOM_UDEF_STEREO_COUNT>  (1) 
1

>  <PUBCHEM_BOND_DEF_STEREO_COUNT>  (1) 
0

>  <PUBCHEM_BOND_UDEF_STEREO_COUNT>  (1) 
0

>  <PUBCHEM_ISOTOPIC_ATOM_COUNT>  (1) 
0

>  <PUBCHEM_COMPONENT_COUNT>  (1) 
1

>  <PUBCHEM_CACTVS_TAUTO_COUNT>  (1) 
1

>  <PUBCHEM_CONFORMER_ID>  (1) 
000091A900000001

>  <PUBCHEM_MMFF94_ENERGY>  (1) 
6.2466

>  <PUBCHEM_FEATURE_SELFOVERLAP>  (1) 
40.655

>  <PUBCHEM_SHAPE_FINGERPRINT>  (1) 
100836 57 18408324401957628626
10753850 27 10952055541715479212
12555020 224 10879699971727185065
12633257 1 15792016726830957670
13955234 65 17897162420841318834
14123256 34 9871752411936158140
14251732 16 18333733529304128403
14251764 30 8070035441329601340
14257110 125 18410293618571831888
14455015 7 11527654311526228191
14576447 43 11959741456251200924
14774955 27 18409444765398575047
15188451 53 14490768900709393849
15501527 16 18409171034100141202
15778101 99 18334860562765806394
17834072 32 18337110172130183940
20281389 69 17968093101338314340
20388580 30 11023819596161373322
20526848 3 18409732863167656120
20605781 2 18409449180477184258
20621476 21 13829265343550694509
20621476 66 18189056551106113612
20767249 142 9871752390666692704
212847 35 18412538813205844794
21637258 2 10735881642936578418
23272321 79 18408885140166546219
23402655 69 18272649056488910222
23590187 198 8934992681842465177
23590187 49 18409166619005583986
270888 7 18409448081060709864
2767999 5 18411694396480739656
2838139 119 18342171202667600316
2916195 48 17968095288104188121
293599 30 18412263960757344370
3472631 163 18340771537313458924
351380 3 9799696987041246552
465052 167 9295281768164543440
5104073 3 17894352155125038243
5283384 27 17895183407685755197
543368 44 18411981352278857421
59682541 35 18187657937997516593
59682541 52 17489321754767446708
7062679 6 18408045130315328900
77188 2 17542780907305607794

>  <PUBCHEM_SHAPE_MULTIPOLES>  (1) 
291.09
17.04
2.44
0.77
1.83
0.06
-0.06
17.32
-1.25
0.97
-0.18
0.08
-0.18
-0.6

>  <PUBCHEM_SHAPE_SELFOVERLAP>  (1) 
532.383

>  <PUBCHEM_SHAPE_VOLUME>  (1) 
184.7

>  <PUBCHEM_COORDINATE_TYPE>  (1) 
2
5
10

$$$$
