37295
     RDKit          3D

 24 25  0  0  0  0  0  0  0  0999 V2000
   -0.5889    1.0761    0.0361 O   0  0  0  0  0  0  0  0  0  0  0  0
   -5.2847    1.9360   -0.3610 O   0  0  0  0  0  0  0  0  0  0  0  0
   -4.3079    1.0056    0.1453 N   0  0  0  0  0  0  0  0  0  0  0  0
    0.4297    0.2311    0.5536 C   0  0  0  0  0  0  0  0  0  0  0  0
   -2.9345    1.5151   -0.2231 C   0  0  0  0  0  0  0  0  0  0  0  0
    0.3013   -1.1590   -0.0340 C   0  0  0  0  0  0  0  0  0  0  0  0
    1.8097    0.8289    0.3586 C   0  0  0  0  0  0  0  0  0  0  0  0
   -1.8848    0.5825    0.3485 C   0  0  0  0  0  0  0  0  0  0  0  0
   -0.0358   -2.2175    0.7942 C   0  0  0  0  0  0  0  0  0  0  0  0
    2.9086    0.1872    0.9044 C   0  0  0  0  0  0  0  0  0  0  0  0
    0.5234   -1.3461   -1.3888 C   0  0  0  0  0  0  0  0  0  0  0  0
    1.9424    2.0044   -0.3611 C   0  0  0  0  0  0  0  0  0  0  0  0
   -4.4787    0.9091    1.6431 C   0  0  0  0  0  0  0  0  0  0  0  0
   -4.5825   -0.3246   -0.5138 C   0  0  0  0  0  0  0  0  0  0  0  0
   -0.1539   -3.4976    0.2531 C   0  0  0  0  0  0  0  0  0  0  0  0
    4.1779    0.7373    0.7253 C   0  0  0  0  0  0  0  0  0  0  0  0
    0.4052   -2.6264   -1.9298 C   0  0  0  0  0  0  0  0  0  0  0  0
    3.2117    2.5543   -0.5403 C   0  0  0  0  0  0  0  0  0  0  0  0
   -0.2771   -2.0253    2.2558 C   0  0  0  0  0  0  0  0  0  0  0  0
    2.7735   -1.0810    1.6822 C   0  0  0  0  0  0  0  0  0  0  0  0
    0.8873   -0.2113   -2.2896 C   0  0  0  0  0  0  0  0  0  0  0  0
    0.7619    2.7026   -0.9530 C   0  0  0  0  0  0  0  0  0  0  0  0
    0.0666   -3.7021   -1.1088 C   0  0  0  0  0  0  0  0  0  0  0  0
    4.3295    1.9208    0.0029 C   0  0  0  0  0  0  0  0  0  0  0  0
  1  4  1  0
  1  8  1  0
  2  3  1  0
  3  5  1  0
  3 13  1  0
  3 14  1  0
  4  6  1  0
  4  7  1  0
  5  8  1  0
  6  9  2  0
  6 11  1  0
  7 10  2  0
  7 12  1  0
  9 15  1  0
  9 19  1  0
 10 16  1  0
 10 20  1  0
 11 17  2  0
 11 21  1  0
 12 18  2  0
 12 22  1  0
 15 23  2  0
 16 24  2  0
 17 23  1  0
 18 24  1  0
M  CHG  1   3   1
M  END
>  <PUBCHEM_COMPOUND_CID>  (1) 
37295

>  <PUBCHEM_CONFORMER_RMSD>  (1) 
0.8

>  <PUBCHEM_CONFORMER_DIVERSEORDER>  (1) 
1
2

>  <PUBCHEM_MMFF94_PARTIAL_CHARGES>  (1) 
31
1 -0.56
10 -0.14
11 -0.14
12 -0.14
13 0.5
14 0.5
15 -0.15
16 -0.15
17 -0.15
18 -0.15
19 0.14
2 -0.15
20 0.14
21 0.14
22 0.14
23 -0.15
24 -0.15
3 -0.76
36 0.15
37 0.15
38 0.15
39 0.15
4 0.57
5 0.5
52 0.4
53 0.15
54 0.15
6 -0.14
7 -0.14
8 0.28
9 -0.14

>  <PUBCHEM_EFFECTIVE_ROTOR_COUNT>  (1) 
6

>  <PUBCHEM_PHARMACOPHORE_FEATURES>  (1) 
4
1 1 acceptor
1 2 anion
6 6 9 11 15 17 23 rings
6 7 10 12 16 18 24 rings

>  <PUBCHEM_HEAVY_ATOM_COUNT>  (1) 
24

>  <PUBCHEM_ATOM_DEF_STEREO_COUNT>  (1) 
0

>  <PUBCHEM_ATOM_UDEF_STEREO_COUNT>  (1) 
0

>  <PUBCHEM_BOND_DEF_STEREO_COUNT>  (1) 
0

>  <PUBCHEM_BOND_UDEF_STEREO_COUNT>  (1) 
0

>  <PUBCHEM_ISOTOPIC_ATOM_COUNT>  (1) 
0

>  <PUBCHEM_COMPONENT_COUNT>  (1) 
1

>  <PUBCHEM_CACTVS_TAUTO_COUNT>  (1) 
1

>  <PUBCHEM_CONFORMER_ID>  (1) 
000091AF00000001

>  <PUBCHEM_MMFF94_ENERGY>  (1) 
111.9357

>  <PUBCHEM_FEATURE_SELFOVERLAP>  (1) 
20.297

>  <PUBCHEM_SHAPE_FINGERPRINT>  (1) 
10764073 3 16736615768729915536
11421498 54 17846787265428628697
12422481 6 17767374939033243250
12788726 201 17837196435394103926
133893 2 17843145622133835594
13583140 156 17385999637265878761
14251757 17 15051730949364658981
15131766 46 15142661747158229892
15852999 172 17631747065942528902
15906896 17 18195805404157095502
16752209 62 17985256624029929030
16945 1 18117823414019845842
17138139 8 17555980871082676759
20197701 30 18341603841276279393
20567600 347 18410579483168753487
20602899 9 17202777010933882126
20645477 70 18267016164399934421
20691752 17 18047214984681184680
20739085 24 18262813847474338080
20905425 154 17616525160716762914
21421861 104 18052267197930265889
21524375 3 18410290358528253929
229495 10 17169803670902852158
23419403 2 17767171649498640046
23558518 356 17613997812923628876
23598288 3 17978517756249908700
25147074 1 17898838309312780224
298252 57 18131063870195569786
3060560 45 18411983520688573092
34934 24 18262514922657245184
474 4 18411983537979192497
6138700 20 18197223542872407550
6438718 38 18195526124156144646
6669772 16 18413113844833983814
7832392 63 18191864733514828960
81228 2 17688568877340895657
81539 233 18341327799675726477
8272917 22 18337951165212862281
9999458 23 18040713619823513178

>  <PUBCHEM_SHAPE_MULTIPOLES>  (1) 
477.19
7.48
3.91
1.77
7.06
2.78
-0.08
-7.56
1.66
-0.04
-1
-0.13
1.09
-0.51

>  <PUBCHEM_SHAPE_SELFOVERLAP>  (1) 
1005.269

>  <PUBCHEM_SHAPE_VOLUME>  (1) 
272.4

>  <PUBCHEM_COORDINATE_TYPE>  (1) 
2
5
10

$$$$
