3730
     RDKit          3D

 34 34  0  0  1  0  0  0  0  0999 V2000
   -2.9545   -1.9438   -0.5144 I   0  0  0  0  0  0  0  0  0  0  0  0
    2.8488   -0.9844    1.1155 I   0  0  0  0  0  0  0  0  0  0  0  0
   -0.7347    3.7416   -0.3363 I   0  0  0  0  0  0  0  0  0  0  0  0
    2.4637   -4.1565    0.2374 O   0  0  0  0  0  0  0  0  0  0  0  0
    3.7544   -4.4094   -2.2143 O   0  0  0  0  0  0  0  0  0  0  0  0
   -0.0795   -4.3738    1.8223 O   0  0  0  0  0  0  0  0  0  0  0  0
    5.4398    1.4649   -1.0123 O   0  0  0  0  0  0  0  0  0  0  0  0
   -6.1465    0.2013    1.0430 O   0  0  0  0  0  0  0  0  0  0  0  0
    2.0614    2.5447    1.7042 O   0  0  0  0  0  0  0  0  0  0  0  0
   -3.0673    1.4236   -1.9542 O   0  0  0  0  0  0  0  0  0  0  0  0
    7.5013    2.5964    0.4744 O   0  0  0  0  0  0  0  0  0  0  0  0
   -8.3786    0.3833   -0.6074 O   0  0  0  0  0  0  0  0  0  0  0  0
    0.0808   -2.4811    0.4233 N   0  0  0  0  0  0  0  0  0  0  0  0
    2.7303    2.3426   -0.5068 N   0  0  0  0  0  0  0  0  0  0  0  0
   -3.7400    1.5941    0.2592 N   0  0  0  0  0  0  0  0  0  0  0  0
    0.4464   -3.2958   -0.7726 C   0  0  0  0  0  0  0  0  0  0  0  0
   -0.0999   -1.1006    0.2541 C   0  0  0  0  0  0  0  0  0  0  0  0
    1.9542   -3.4921   -0.9194 C   0  0  0  0  0  0  0  0  0  0  0  0
   -1.3385   -0.6039   -0.1519 C   0  0  0  0  0  0  0  0  0  0  0  0
    0.9590   -0.2244    0.4920 C   0  0  0  0  0  0  0  0  0  0  0  0
   -1.5182    0.7691   -0.3200 C   0  0  0  0  0  0  0  0  0  0  0  0
    0.7792    1.1486    0.3239 C   0  0  0  0  0  0  0  0  0  0  0  0
   -0.4593    1.6453   -0.0820 C   0  0  0  0  0  0  0  0  0  0  0  0
    2.3353   -4.3058   -2.1520 C   0  0  0  0  0  0  0  0  0  0  0  0
   -0.1570   -3.1524    1.6678 C   0  0  0  0  0  0  0  0  0  0  0  0
    1.8907    2.0680    0.5734 C   0  0  0  0  0  0  0  0  0  0  0  0
   -2.8370    1.2974   -0.7544 C   0  0  0  0  0  0  0  0  0  0  0  0
    3.8824    3.2103   -0.4133 C   0  0  0  0  0  0  0  0  0  0  0  0
   -5.0647    2.0900   -0.0025 C   0  0  0  0  0  0  0  0  0  0  0  0
    5.1591    2.4637   -0.0311 C   0  0  0  0  0  0  0  0  0  0  0  0
   -6.0971    0.9747   -0.1565 C   0  0  0  0  0  0  0  0  0  0  0  0
   -0.4884   -2.3071    2.8763 C   0  0  0  0  0  0  0  0  0  0  0  0
    6.3741    3.3778    0.0903 C   0  0  0  0  0  0  0  0  0  0  0  0
   -7.4998    1.4937   -0.4555 C   0  0  0  0  0  0  0  0  0  0  0  0
  1 19  1  0
  2 20  1  0
  3 23  1  0
  4 18  1  0
  5 24  1  0
  6 25  2  0
  7 30  1  0
  8 31  1  0
  9 26  2  0
 10 27  2  0
 11 33  1  0
 12 34  1  0
 13 16  1  0
 13 17  1  0
 13 25  1  0
 14 26  1  0
 14 28  1  0
 15 27  1  0
 15 29  1  0
 16 18  1  0
 17 19  2  0
 17 20  1  0
 18 24  1  0
 19 21  1  0
 20 22  2  0
 21 23  2  0
 21 27  1  0
 22 23  1  0
 22 26  1  0
 25 32  1  0
 28 30  1  0
 29 31  1  0
 30 33  1  0
 31 34  1  0
M  END
>  <PUBCHEM_COMPOUND_CID>  (1) 
3730

>  <PUBCHEM_CONFORMER_RMSD>  (1) 
1.2

>  <PUBCHEM_CONFORMER_DIVERSEORDER>  (1) 
1
30
20
28
22
23
16
35
7
34
24
6
19
29
15
11
12
13
32
17
38
37
26
39
27
4
36
10
3
18
31
8
9
33
21
2
5
14
25

>  <PUBCHEM_MMFF94_PARTIAL_CHARGES>  (1) 
42
1 -0.08
10 -0.57
11 -0.68
12 -0.68
13 -0.48
14 -0.73
15 -0.73
16 0.3
17 0.12
18 0.28
19 0.08
2 -0.08
20 0.08
21 0.09
22 0.09
23 0.08
24 0.28
25 0.57
26 0.54
27 0.54
28 0.3
29 0.3
3 -0.08
30 0.28
31 0.28
32 0.06
33 0.28
34 0.28
4 -0.68
46 0.37
47 0.37
5 -0.68
51 0.4
56 0.4
57 0.4
58 0.4
59 0.4
6 -0.57
60 0.4
7 -0.68
8 -0.68
9 -0.57

>  <PUBCHEM_EFFECTIVE_ROTOR_COUNT>  (1) 
15

>  <PUBCHEM_PHARMACOPHORE_FEATURES>  (1) 
21
1 1 hydrophobe
1 10 acceptor
1 11 acceptor
1 11 donor
1 12 acceptor
1 12 donor
1 14 donor
1 15 donor
1 2 hydrophobe
1 3 hydrophobe
1 4 acceptor
1 4 donor
1 5 acceptor
1 5 donor
1 6 acceptor
1 7 acceptor
1 7 donor
1 8 acceptor
1 8 donor
1 9 acceptor
6 17 19 20 21 22 23 rings

>  <PUBCHEM_HEAVY_ATOM_COUNT>  (1) 
34

>  <PUBCHEM_ATOM_DEF_STEREO_COUNT>  (1) 
0

>  <PUBCHEM_ATOM_UDEF_STEREO_COUNT>  (1) 
3

>  <PUBCHEM_BOND_DEF_STEREO_COUNT>  (1) 
0

>  <PUBCHEM_BOND_UDEF_STEREO_COUNT>  (1) 
0

>  <PUBCHEM_ISOTOPIC_ATOM_COUNT>  (1) 
0

>  <PUBCHEM_COMPONENT_COUNT>  (1) 
1

>  <PUBCHEM_CACTVS_TAUTO_COUNT>  (1) 
3

>  <PUBCHEM_CONFORMER_ID>  (1) 
00000E9200000001

>  <PUBCHEM_MMFF94_ENERGY>  (1) 
121.4462

>  <PUBCHEM_FEATURE_SELFOVERLAP>  (1) 
106.618

>  <PUBCHEM_SHAPE_FINGERPRINT>  (1) 
10165383 225 18336262431206536629
102385 1 17903911163420908901
10906281 52 18335421313353087466
12160290 23 17614531041270397064
12597179 24 18336550503041140482
13140716 1 18336811053179992881
13692114 37 18196923581575187377
14790565 3 18046349901375584301
15664445 248 17976533915219471026
15927050 60 18411134779190175631
20028762 73 18051975011774500015
20642791 239 17399240746409124036
21033648 29 17986381416273481960
21133665 82 18338234990369977804
23559900 14 18055342541181074593
24771750 20 18411989039980226270
3411729 13 18335698317569354401
350125 39 18335695083190253897
5085150 59 18271235145350655298
5265222 85 18122358032117806540
59755656 215 18412266138279903157
59755656 520 18335975488620121437
6669772 16 18413674612368694222

>  <PUBCHEM_SHAPE_MULTIPOLES>  (1) 
667.74
14.02
6.69
1.68
13.44
5.67
0.35
-15.5
-2.34
-8.5
-1.27
-0.65
2.16
1.97

>  <PUBCHEM_SHAPE_SELFOVERLAP>  (1) 
1298.362

>  <PUBCHEM_SHAPE_VOLUME>  (1) 
410.5

>  <PUBCHEM_COORDINATE_TYPE>  (1) 
2
5
10

$$$$
