37303
     RDKit          3D

 18 18  0  0  1  0  0  0  0  0999 V2000
    0.0154   -0.3382   -1.4249 O   0  0  0  0  0  0  0  0  0  0  0  0
    2.4458   -0.0892   -0.1332 N   0  0  0  0  0  0  0  0  0  0  0  0
   -1.0635   -0.2987    0.6598 N   0  0  0  0  0  0  0  0  0  0  0  0
    3.6836   -0.3703    0.5400 C   0  0  0  0  0  0  0  0  0  0  0  0
    4.8983    0.0882   -0.2602 C   0  0  0  0  0  0  0  0  0  0  0  0
    1.2986   -0.6565    0.5933 C   0  0  0  0  0  0  0  0  0  0  0  0
    6.2200   -0.2340    0.4409 C   0  0  0  0  0  0  0  0  0  0  0  0
    2.2469    1.3584   -0.3087 C   0  0  0  0  0  0  0  0  0  0  0  0
    0.0269   -0.4118   -0.2004 C   0  0  0  0  0  0  0  0  0  0  0  0
   -2.4164   -0.0697    0.3134 C   0  0  0  0  0  0  0  0  0  0  0  0
    7.4131    0.1796   -0.4064 C   0  0  0  0  0  0  0  0  0  0  0  0
   -2.8852    1.2324    0.2215 C   0  0  0  0  0  0  0  0  0  0  0  0
   -3.2506   -1.1511    0.0724 C   0  0  0  0  0  0  0  0  0  0  0  0
   -4.2189    1.4583   -0.1193 C   0  0  0  0  0  0  0  0  0  0  0  0
   -4.5842   -0.9253   -0.2685 C   0  0  0  0  0  0  0  0  0  0  0  0
   -2.0000    2.4088    0.4780 C   0  0  0  0  0  0  0  0  0  0  0  0
   -2.7616   -2.5602    0.1667 C   0  0  0  0  0  0  0  0  0  0  0  0
   -5.0683    0.3794   -0.3643 C   0  0  0  0  0  0  0  0  0  0  0  0
  1  9  2  0
  2  4  1  0
  2  6  1  0
  2  8  1  0
  3  9  1  0
  3 10  1  0
  4  5  1  0
  5  7  1  0
  6  9  1  0
  7 11  1  0
 10 12  2  0
 10 13  1  0
 12 14  1  0
 12 16  1  0
 13 15  2  0
 13 17  1  0
 14 18  2  0
 15 18  1  0
M  END
>  <PUBCHEM_COMPOUND_CID>  (1) 
37303

>  <PUBCHEM_CONFORMER_RMSD>  (1) 
0.8

>  <PUBCHEM_CONFORMER_DIVERSEORDER>  (1) 
6
13
22
4
18
17
21
9
8
5
16
3
15
7
19
12
14
10
11
1
2
20

>  <PUBCHEM_MMFF94_PARTIAL_CHARGES>  (1) 
19
1 -0.57
10 0.12
12 -0.14
13 -0.14
14 -0.15
15 -0.15
16 0.14
17 0.14
18 -0.15
2 -0.81
3 -0.55
30 0.37
34 0.15
35 0.15
4 0.27
42 0.15
6 0.33
8 0.27
9 0.57

>  <PUBCHEM_EFFECTIVE_ROTOR_COUNT>  (1) 
7

>  <PUBCHEM_PHARMACOPHORE_FEATURES>  (1) 
5
1 1 acceptor
1 11 hydrophobe
1 2 cation
1 3 donor
6 10 12 13 14 15 18 rings

>  <PUBCHEM_HEAVY_ATOM_COUNT>  (1) 
18

>  <PUBCHEM_ATOM_DEF_STEREO_COUNT>  (1) 
0

>  <PUBCHEM_ATOM_UDEF_STEREO_COUNT>  (1) 
0

>  <PUBCHEM_BOND_DEF_STEREO_COUNT>  (1) 
0

>  <PUBCHEM_BOND_UDEF_STEREO_COUNT>  (1) 
0

>  <PUBCHEM_ISOTOPIC_ATOM_COUNT>  (1) 
0

>  <PUBCHEM_COMPONENT_COUNT>  (1) 
1

>  <PUBCHEM_CACTVS_TAUTO_COUNT>  (1) 
2

>  <PUBCHEM_CONFORMER_ID>  (1) 
000091B700000006

>  <PUBCHEM_MMFF94_ENERGY>  (1) 
62.2163

>  <PUBCHEM_FEATURE_SELFOVERLAP>  (1) 
25.371

>  <PUBCHEM_SHAPE_FINGERPRINT>  (1) 
10411042 1 18122625231087604251
11315181 36 18114184159037904764
12091667 2 18335423478259178202
12107183 9 17615119989119583330
12236239 1 18040151808173503794
12507557 5 18409449193373018928
13288520 33 18413107286244530719
13403585 85 18342171185371680304
14251764 46 17458345243373702987
14573314 32 18272376330581985078
17834072 33 18333733550530817524
18927931 339 18341618148102635871
19489759 90 18413670205684716722
200 152 18408599275580200207
20567600 75 17703799076918624140
20645477 56 18410856534397539113
20645477 70 16629972014924074766
21033648 29 17060041628435918064
21267235 1 18336831982887948339
2297311 6 18272656752732460761
23402539 116 18341887498634213005
23536379 177 18409448073161625058
23557571 272 18060424590286182737
23559900 14 18340480153346179312
300161 21 18040991835036162066
335352 9 18410853266223150949
351380 180 18413950589750575952
3545911 37 18411418401502230611
4073 2 18041284357217709442
4214541 1 18409448093913735896
441001 317 18341894073759969568
4463277 17 18260829311302107396
542803 24 17748827419101677610
59755656 215 18342459214574148702
59755656 520 16877661279344806971
6327066 14 17826223005060655197
67856867 119 18262520419914697308
9709674 26 18341619196249112615

>  <PUBCHEM_SHAPE_MULTIPOLES>  (1) 
354.6
14.77
1.83
0.81
26.12
0.08
-0.08
0.26
-1.08
-2.66
0.19
0.13
-0.01
-0.28

>  <PUBCHEM_SHAPE_SELFOVERLAP>  (1) 
709.362

>  <PUBCHEM_SHAPE_VOLUME>  (1) 
211.5

>  <PUBCHEM_COORDINATE_TYPE>  (1) 
2
5
10

$$$$
