37309
     RDKit          3D

 21 21  0  0  1  0  0  0  0  0999 V2000
   -1.0243   -0.8115    1.4713 O   0  0  0  0  0  0  0  0  0  0  0  0
    0.7301   -2.5103    0.1884 N   0  0  0  0  0  0  0  0  0  0  0  0
   -2.3364   -0.7532   -0.4747 N   0  0  0  0  0  0  0  0  0  0  0  0
    3.6892   -0.1956   -0.4338 C   0  0  0  0  0  0  0  0  0  0  0  0
    2.8120   -1.2196    0.2913 C   0  0  0  0  0  0  0  0  0  0  0  0
    4.9558    0.1794    0.3411 C   0  0  0  0  0  0  0  0  0  0  0  0
    1.5487   -1.5277   -0.5122 C   0  0  0  0  0  0  0  0  0  0  0  0
    5.8688    1.1463   -0.4160 C   0  0  0  0  0  0  0  0  0  0  0  0
    7.1093    1.4955    0.4075 C   0  0  0  0  0  0  0  0  0  0  0  0
   -0.6593   -2.4434   -0.2679 C   0  0  0  0  0  0  0  0  0  0  0  0
    1.2642   -3.8593   -0.0069 C   0  0  0  0  0  0  0  0  0  0  0  0
    8.0052    2.4812   -0.3257 C   0  0  0  0  0  0  0  0  0  0  0  0
   -1.3433   -1.2461    0.3693 C   0  0  0  0  0  0  0  0  0  0  0  0
   -3.1955    0.3480   -0.2463 C   0  0  0  0  0  0  0  0  0  0  0  0
   -4.5777    0.1612   -0.2219 C   0  0  0  0  0  0  0  0  0  0  0  0
   -2.6603    1.6205   -0.0462 C   0  0  0  0  0  0  0  0  0  0  0  0
   -5.4245    1.2466    0.0022 C   0  0  0  0  0  0  0  0  0  0  0  0
   -3.5072    2.7060    0.1781 C   0  0  0  0  0  0  0  0  0  0  0  0
   -5.1813   -1.1897   -0.4335 C   0  0  0  0  0  0  0  0  0  0  0  0
   -1.1840    1.8528   -0.0664 C   0  0  0  0  0  0  0  0  0  0  0  0
   -4.8893    2.5189    0.2023 C   0  0  0  0  0  0  0  0  0  0  0  0
  1 13  2  0
  2  7  1  0
  2 10  1  0
  2 11  1  0
  3 13  1  0
  3 14  1  0
  4  5  1  0
  4  6  1  0
  5  7  1  0
  6  8  1  0
  8  9  1  0
  9 12  1  0
 10 13  1  0
 14 15  2  0
 14 16  1  0
 15 17  1  0
 15 19  1  0
 16 18  2  0
 16 20  1  0
 17 21  2  0
 18 21  1  0
M  END
>  <PUBCHEM_COMPOUND_CID>  (1) 
37309

>  <PUBCHEM_CONFORMER_RMSD>  (1) 
1

>  <PUBCHEM_CONFORMER_DIVERSEORDER>  (1) 
2
44
3
4
161
144
108
190
218
111
26
177
76
116
209
41
104
68
176
168
77
122
11
51
72
149
201
145
128
106
153
64
191
25
231
97
207
112
230
180
169
206
7
58
82
173
79
33
170
37
84
85
221
9
90
74
135
107
146
182
183
57
204
158
195
115
174
143
167
223
53
23
1
133
91
89
220
212
166
188
225
155
95
96
81
13
222
162
216
119
65
60
27
49
110
36
24
40
86
6
50
226
55
22
228
15
138
139
202
69
62
224
78
63
148
187
54
39
32
83
171
98
214
17
150
163
179
123
113
35
172
185
46
156
141
20
120
184
42
126
92
131
129
132
38
200
130
10
194
219
75
19
93
48
205
164
80
125
73
114
8
208
136
213
109
178
29
203
137
99
229
12
121
140
61
157
28
124
5
217
87
154
152
160
105
30
227
186
147
59
34
18
70
101
165
45
103
31
52
21
47
232
199
66
56
196
197
71
14
134
117
198
210
100
211
193
43
215
192
94
67
189
118
159
16
88
127
181
175
151
102
142

>  <PUBCHEM_MMFF94_PARTIAL_CHARGES>  (1) 
19
1 -0.57
10 0.33
11 0.27
13 0.57
14 0.12
15 -0.14
16 -0.14
17 -0.15
18 -0.15
19 0.14
2 -0.81
20 0.14
21 -0.15
3 -0.55
42 0.37
43 0.15
44 0.15
51 0.15
7 0.27

>  <PUBCHEM_EFFECTIVE_ROTOR_COUNT>  (1) 
10

>  <PUBCHEM_PHARMACOPHORE_FEATURES>  (1) 
6
1 1 acceptor
1 12 hydrophobe
1 2 cation
1 3 donor
5 4 5 6 8 9 hydrophobe
6 14 15 16 17 18 21 rings

>  <PUBCHEM_HEAVY_ATOM_COUNT>  (1) 
21

>  <PUBCHEM_ATOM_DEF_STEREO_COUNT>  (1) 
0

>  <PUBCHEM_ATOM_UDEF_STEREO_COUNT>  (1) 
0

>  <PUBCHEM_BOND_DEF_STEREO_COUNT>  (1) 
0

>  <PUBCHEM_BOND_UDEF_STEREO_COUNT>  (1) 
0

>  <PUBCHEM_ISOTOPIC_ATOM_COUNT>  (1) 
0

>  <PUBCHEM_COMPONENT_COUNT>  (1) 
1

>  <PUBCHEM_CACTVS_TAUTO_COUNT>  (1) 
2

>  <PUBCHEM_CONFORMER_ID>  (1) 
000091BD00000002

>  <PUBCHEM_MMFF94_ENERGY>  (1) 
52.9227

>  <PUBCHEM_FEATURE_SELFOVERLAP>  (1) 
30.446

>  <PUBCHEM_SHAPE_FINGERPRINT>  (1) 
10411042 1 17690279734836098167
12596602 18 17458057179753572184
12633257 1 15936701436255422742
12895837 130 18270963561172288660
13402501 40 18342173384558823352
14123256 34 10159693616550857588
14251764 75 18055926393865262761
14257110 125 18409166619480337670
14429114 114 18268147556921868672
15196674 1 18339079276790316583
17780758 139 11891324357591495134
21401589 2 18261118456267340088
23559900 14 17837204883937906775
245318 6 17750536124680687220
270888 7 18410292493464590580
2838139 119 18342451569706025620
4107672 100 12391251390813932546
437815 12 8718827582982094794
44249763 50 17488167392186205040
474 4 17823151037964388999
5104073 3 18117848690266419307
543368 44 18341331111570544557
59682541 35 18261122893817921937
6327066 14 18410008845276490060
636775 72 18197774613220958480
67856867 119 18192145997352567402
7288768 16 18113618997509220314
77188 2 17401485949485917086
7808743 9 18411132563366410882
9981440 41 18333739017534134130

>  <PUBCHEM_SHAPE_MULTIPOLES>  (1) 
416.34
17.35
3.79
0.77
30.61
1.68
-0.09
-17.36
1
0.51
-0.03
0.06
0.07
-0.51

>  <PUBCHEM_SHAPE_SELFOVERLAP>  (1) 
821.651

>  <PUBCHEM_SHAPE_VOLUME>  (1) 
250.6

>  <PUBCHEM_COORDINATE_TYPE>  (1) 
2
5
10

$$$$
