37319
     RDKit          3D

 32 37  0  0  0  0  0  0  0  0999 V2000
   -1.6346    0.1555   -0.8441 N   0  0  0  0  0  0  0  0  0  0  0  0
    2.3103    1.5509   -0.3343 N   0  0  0  0  0  0  0  0  0  0  0  0
   -1.2105    1.4410   -0.8738 N   0  0  0  0  0  0  0  0  0  0  0  0
    1.0643    0.9494   -0.4839 N   0  0  0  0  0  0  0  0  0  0  0  0
    0.2642    3.1858   -0.7766 N   0  0  0  0  0  0  0  0  0  0  0  0
   -4.8802   -0.8788    0.2205 C   0  0  0  0  0  0  0  0  0  0  0  0
   -4.9502    0.5581    0.3826 C   0  0  0  0  0  0  0  0  0  0  0  0
   -3.6090   -1.2262   -0.2687 C   0  0  0  0  0  0  0  0  0  0  0  0
   -3.7231    1.1281   -0.0032 C   0  0  0  0  0  0  0  0  0  0  0  0
    5.2456   -0.3842    0.2688 C   0  0  0  0  0  0  0  0  0  0  0  0
    4.2208   -1.4034    0.1855 C   0  0  0  0  0  0  0  0  0  0  0  0
    4.6566    0.8784    0.0817 C   0  0  0  0  0  0  0  0  0  0  0  0
    2.9770   -0.7909   -0.0548 C   0  0  0  0  0  0  0  0  0  0  0  0
   -2.8454    0.0218   -0.4235 C   0  0  0  0  0  0  0  0  0  0  0  0
    3.2165    0.6611   -0.1268 C   0  0  0  0  0  0  0  0  0  0  0  0
   -5.8159   -1.8696    0.4615 C   0  0  0  0  0  0  0  0  0  0  0  0
   -5.9768    1.3726    0.8283 C   0  0  0  0  0  0  0  0  0  0  0  0
   -3.2301   -2.5283   -0.5290 C   0  0  0  0  0  0  0  0  0  0  0  0
   -3.4803    2.4871    0.0391 C   0  0  0  0  0  0  0  0  0  0  0  0
    6.6087   -0.4785    0.4887 C   0  0  0  0  0  0  0  0  0  0  0  0
    4.2982   -2.7805    0.3011 C   0  0  0  0  0  0  0  0  0  0  0  0
    5.3747    2.0575    0.1050 C   0  0  0  0  0  0  0  0  0  0  0  0
    1.8016   -1.5045   -0.1849 C   0  0  0  0  0  0  0  0  0  0  0  0
   -5.4557   -3.1984    0.2054 C   0  0  0  0  0  0  0  0  0  0  0  0
   -5.7532    2.7535    0.8795 C   0  0  0  0  0  0  0  0  0  0  0  0
   -4.1765   -3.5235   -0.2845 C   0  0  0  0  0  0  0  0  0  0  0  0
   -4.5182    3.3041    0.4890 C   0  0  0  0  0  0  0  0  0  0  0  0
    7.3592    0.7033    0.5168 C   0  0  0  0  0  0  0  0  0  0  0  0
    3.1193   -3.5242    0.1727 C   0  0  0  0  0  0  0  0  0  0  0  0
    6.7484    1.9574    0.3270 C   0  0  0  0  0  0  0  0  0  0  0  0
    1.8848   -2.8925   -0.0677 C   0  0  0  0  0  0  0  0  0  0  0  0
    0.1095    1.8181   -0.6974 C   0  0  0  0  0  0  0  0  0  0  0  0
  1  3  1  0
  1 14  2  3
  2  4  1  0
  2 15  2  0
  3 32  1  0
  4 32  2  0
  5 32  1  0
  6  7  1  0
  6  8  1  0
  6 16  2  0
  7  9  2  0
  7 17  1  0
  8 14  1  0
  8 18  2  0
  9 14  1  0
  9 19  1  0
 10 11  1  0
 10 12  1  0
 10 20  2  0
 11 13  2  0
 11 21  1  0
 12 15  1  0
 12 22  2  0
 13 15  1  0
 13 23  1  0
 16 24  1  0
 17 25  2  0
 18 26  1  0
 19 27  2  0
 20 28  1  0
 21 29  2  0
 22 30  1  0
 23 31  2  0
 24 26  2  0
 25 27  1  0
 28 30  2  0
 29 31  1  0
M  END
>  <PUBCHEM_COMPOUND_CID>  (1) 
37319

>  <PUBCHEM_CONFORMER_RMSD>  (1) 
0.8

>  <PUBCHEM_CONFORMER_DIVERSEORDER>  (1) 
1
10
9
7
5
8
6
4
3
2

>  <PUBCHEM_MMFF94_PARTIAL_CHARGES>  (1) 
47
1 -0.49
12 0.09
13 0.09
14 0.28
15 0.28
16 -0.15
17 -0.15
18 -0.15
19 -0.15
2 -0.45
20 -0.15
21 -0.15
22 -0.15
23 -0.15
24 -0.15
25 -0.15
26 -0.15
27 -0.15
28 -0.15
29 -0.15
3 -0.41
30 -0.15
31 -0.15
32 0.55
33 0.15
34 0.15
35 0.15
36 0.15
37 0.15
38 0.15
39 0.15
4 -0.45
40 0.15
41 0.15
42 0.15
43 0.15
44 0.15
45 0.15
46 0.15
47 0.15
48 0.15
49 0.4
5 -0.85
50 0.4
51 0.4
8 0.09
9 0.09

>  <PUBCHEM_EFFECTIVE_ROTOR_COUNT>  (1) 
3

>  <PUBCHEM_PHARMACOPHORE_FEATURES>  (1) 
11
1 1 acceptor
1 2 acceptor
1 3 donor
1 5 donor
4 3 4 5 32 cation
5 10 11 12 13 15 rings
5 6 7 8 9 14 rings
6 10 12 20 22 28 30 rings
6 11 13 21 23 29 31 rings
6 6 8 16 18 24 26 rings
6 7 9 17 19 25 27 rings

>  <PUBCHEM_HEAVY_ATOM_COUNT>  (1) 
32

>  <PUBCHEM_ATOM_DEF_STEREO_COUNT>  (1) 
0

>  <PUBCHEM_ATOM_UDEF_STEREO_COUNT>  (1) 
0

>  <PUBCHEM_BOND_DEF_STEREO_COUNT>  (1) 
0

>  <PUBCHEM_BOND_UDEF_STEREO_COUNT>  (1) 
1

>  <PUBCHEM_ISOTOPIC_ATOM_COUNT>  (1) 
0

>  <PUBCHEM_COMPONENT_COUNT>  (1) 
1

>  <PUBCHEM_CACTVS_TAUTO_COUNT>  (1) 
2

>  <PUBCHEM_CONFORMER_ID>  (1) 
000091C700000001

>  <PUBCHEM_MMFF94_ENERGY>  (1) 
151.6941

>  <PUBCHEM_FEATURE_SELFOVERLAP>  (1) 
56.213

>  <PUBCHEM_SHAPE_FINGERPRINT>  (1) 
10319926 262 18272642480683250425
10595046 47 18410853282590851059
10906281 52 18041013859918469692
10939801 23 18268148832758419614
11135926 11 18336818715744520806
11136131 41 18261381231896447642
11963148 33 18260821576077226154
12107183 9 18122628245510223755
12596602 18 18060424620456156744
14394314 77 18342181025464165225
14790565 3 18266179616424232956
14844126 61 18339365270969519227
14849402 71 18265335204284641788
15064986 96 17775011124265178246
15250474 111 18336269036986674111
15320467 1 18337954626825101699
15361156 5 17895208666172118844
15400415 2 18340768143724805265
15419008 145 18334842910856304818
15799311 1 18337686238365023084
15911013 46 18263360446908892915
16110190 28 18411419475465691647
17780758 139 18411417332709774453
1813 80 17095816416578134661
19315958 150 18338239254650445665
20580484 21 17044865920085213913
21130935 74 18410852162516815314
21197605 99 18337674238955047946
23522609 53 17969810568888270164
23559900 14 18339070618790739401
24771293 8 18336825399115118556
3383291 50 17822581620012247715
3633792 109 18262786373549247349
3663271 9 18410291419733258048
4073 2 18334862727086328618
4144715 1 18409740546843757795
4461854 278 18127141976592256758
4616759 239 18272923921547571482
4874694 18 18339913831854090213
5028188 123 18411711997990072292
5104073 3 18409443653086636714
6086070 43 16916202439148520377
6431902 208 18336262448523107647
6823239 73 17986973885046252198

>  <PUBCHEM_SHAPE_MULTIPOLES>  (1) 
633.64
19.37
4.55
0.8
9.9
1.6
0
-2.49
-4.95
-3.98
-0.11
-0.29
-0.17
-0.91

>  <PUBCHEM_SHAPE_SELFOVERLAP>  (1) 
1452.041

>  <PUBCHEM_SHAPE_VOLUME>  (1) 
323.3

>  <PUBCHEM_COORDINATE_TYPE>  (1) 
2
5
10

$$$$
