37310
     RDKit          3D

 48 55  0  0  1  0  0  0  0  0999 V2000
    5.5104   -2.7902    0.3870 O   0  0  0  0  0  0  0  0  0  0  0  0
    1.0428   -2.5066    1.5234 O   0  0  0  0  0  0  0  0  0  0  0  0
   -2.0538    0.8381    0.0467 O   0  0  0  0  0  0  0  0  0  0  0  0
    1.2343    1.0316    3.2385 O   0  0  0  0  0  0  0  0  0  0  0  0
   10.6716    0.9080   -0.4454 O   0  0  0  0  0  0  0  0  0  0  0  0
   -3.4695    1.2902   -1.8128 O   0  0  0  0  0  0  0  0  0  0  0  0
   10.6660    3.2026   -0.2698 O   0  0  0  0  0  0  0  0  0  0  0  0
   -6.1495   -0.6440    0.5086 O   0  0  0  0  0  0  0  0  0  0  0  0
   -6.4167    0.8419   -1.2740 O   0  0  0  0  0  0  0  0  0  0  0  0
    5.3325   -1.5453   -0.2967 C   0  0  0  0  0  0  0  0  0  0  0  0
    3.8365   -1.1259   -0.2288 C   0  0  0  0  0  0  0  0  0  0  0  0
    6.3087   -0.4408    0.2652 C   0  0  0  0  0  0  0  0  0  0  0  0
    3.4247   -0.6848    1.2025 C   0  0  0  0  0  0  0  0  0  0  0  0
    1.9226   -0.2191    1.2808 C   0  0  0  0  0  0  0  0  0  0  0  0
    0.9796   -1.3269    0.7050 C   0  0  0  0  0  0  0  0  0  0  0  0
    7.0979    0.0253   -1.0002 C   0  0  0  0  0  0  0  0  0  0  0  0
    5.5347    0.7577    0.8601 C   0  0  0  0  0  0  0  0  0  0  0  0
    4.4239    0.3290    1.8147 C   0  0  0  0  0  0  0  0  0  0  0  0
    5.7835   -1.7960   -1.7555 C   0  0  0  0  0  0  0  0  0  0  0  0
    2.8934   -2.2344   -0.7253 C   0  0  0  0  0  0  0  0  0  0  0  0
    1.4354   -1.7781   -0.6992 C   0  0  0  0  0  0  0  0  0  0  0  0
    7.1983   -1.2425   -1.8421 C   0  0  0  0  0  0  0  0  0  0  0  0
    1.6808    1.1318    0.5518 C   0  0  0  0  0  0  0  0  0  0  0  0
   -0.4906   -0.8673    0.6622 C   0  0  0  0  0  0  0  0  0  0  0  0
    7.2669   -1.0043    1.3459 C   0  0  0  0  0  0  0  0  0  0  0  0
    0.2079    1.5459    0.4752 C   0  0  0  0  0  0  0  0  0  0  0  0
   -0.6891    0.4479   -0.0831 C   0  0  0  0  0  0  0  0  0  0  0  0
    1.6107   -0.0318    2.7567 C   0  0  0  0  0  0  0  0  0  0  0  0
    8.4161    0.6883   -0.7700 C   0  0  0  0  0  0  0  0  0  0  0  0
    9.6669   -0.0892   -0.6586 C   0  0  0  0  0  0  0  0  0  0  0  0
    8.6467    1.9919   -0.6385 C   0  0  0  0  0  0  0  0  0  0  0  0
   -2.8515    0.2919   -0.9980 C   0  0  0  0  0  0  0  0  0  0  0  0
   10.0877    2.1416   -0.4300 C   0  0  0  0  0  0  0  0  0  0  0  0
   -3.9142   -0.6275   -0.4130 C   0  0  0  0  0  0  0  0  0  0  0  0
   -4.9704    0.1574    0.3668 C   0  0  0  0  0  0  0  0  0  0  0  0
   -5.4494    1.3879   -0.3707 C   0  0  0  0  0  0  0  0  0  0  0  0
   -4.3441    2.1601   -1.0876 C   0  0  0  0  0  0  0  0  0  0  0  0
   -7.0645   -0.1972   -0.5136 C   0  0  0  0  0  0  0  0  0  0  0  0
   -4.9034    3.1737   -2.0789 C   0  0  0  0  0  0  0  0  0  0  0  0
   -7.3769   -1.3616   -1.4523 C   0  0  0  0  0  0  0  0  0  0  0  0
   -8.3576    0.3106    0.1153 C   0  0  0  0  0  0  0  0  0  0  0  0
   -7.6062   -2.6585   -0.6785 C   0  0  0  0  0  0  0  0  0  0  0  0
   -8.8084   -0.2327    1.3184 C   0  0  0  0  0  0  0  0  0  0  0  0
   -9.0896    1.3189   -0.5122 C   0  0  0  0  0  0  0  0  0  0  0  0
   -7.8891   -3.8229   -1.6141 C   0  0  0  0  0  0  0  0  0  0  0  0
   -9.9910    0.2318    1.8938 C   0  0  0  0  0  0  0  0  0  0  0  0
  -10.2722    1.7835    0.0635 C   0  0  0  0  0  0  0  0  0  0  0  0
  -10.7228    1.2399    1.2665 C   0  0  0  0  0  0  0  0  0  0  0  0
  1 10  1  0
  2 15  1  0
  3 27  1  0
  3 32  1  0
  4 28  2  0
  5 30  1  0
  5 33  1  0
  6 32  1  0
  6 37  1  0
  7 33  2  0
  8 35  1  0
  8 38  1  0
  9 36  1  0
  9 38  1  0
 10 11  1  0
 10 12  1  0
 10 19  1  0
 11 13  1  0
 11 20  1  0
 12 16  1  0
 12 17  1  0
 12 25  1  0
 13 14  1  0
 13 18  1  0
 14 15  1  0
 14 23  1  0
 14 28  1  0
 15 21  1  0
 15 24  1  0
 16 22  1  0
 16 29  1  0
 17 18  1  0
 19 22  1  0
 20 21  1  0
 23 26  1  0
 24 27  1  0
 26 27  1  0
 29 30  1  0
 29 31  2  0
 31 33  1  0
 32 34  1  0
 34 35  1  0
 35 36  1  0
 36 37  1  0
 37 39  1  0
 38 40  1  0
 38 41  1  0
 40 42  1  0
 41 43  2  0
 41 44  1  0
 42 45  1  0
 43 46  1  0
 44 47  2  0
 46 48  2  0
 47 48  1  0
M  END
>  <PUBCHEM_COMPOUND_CID>  (1) 
37310

>  <PUBCHEM_CONFORMER_RMSD>  (1) 
1.2

>  <PUBCHEM_CONFORMER_DIVERSEORDER>  (1) 
2
156
138
131
27
30
243
288
71
105
90
164
348
284
242
313
119
117
302
363
240
236
295
143
137
296
298
330
118
58
262
345
376
204
108
320
370
198
220
160
9
273
7
69
381
47
201
311
334
163
65
173
371
151
286
62
31
247
281
379
123
258
361
38
169
329
325
226
112
307
181
155
193
152
142
349
229
266
49
153
230
133
109
237
283
98
303
364
246
147
291
26
333
267
37
91
312
100
270
82
344
337
367
341
75
29
289
107
59
357
321
335
278
290
196
79
97
200
265
338
299
203
116
359
33
346
104
327
368
252
84
176
347
272
111
387
106
87
233
255
136
36
276
179
374
350
126
165
186
73
146
40
254
260
366
129
235
373
93
32
257
343
48
297
92
189
182
248
115
66
211
70
145
217
306
375
86
12
384
20
323
378
277
113
63
336
385
326
67
340
154
314
197
148
183
214
162
304
110
358
96
209
377
130
231
157
140
222
218
261
324
206
159
35
249
279
245
68
21
64
83
191
382
141
215
99
139
244
232
134
94
256
171
360
60
190
22
317
351
122
294
144
310
85
127
331
210
234
386
293
52
251
225
102
88
271
285
342
195
187
308
301
168
239
269
45
95
25
318
14
103
219
316
383
11
212
19
114
74
250
188
369
50
208
202
4
322
259
17
149
43
332
268
352
166
41
287
223
46
300
339
319
328
101
57
6
120
372
18
23
28
192
121
216
10
354
24
315
228
76
353
365
305
42
380
184
253
125
309
205
356
280
39
175
128
172
158
80
362
61
263
177
238
224
264
221
150
3
55
213
124
185
77
167
51
5
194
132
274
34
8
292
282
207
15
1
170
241
161
81
174
355
89
275
227
199
56
78
53
72
13
54
16
178
44
135
180

>  <PUBCHEM_MMFF94_PARTIAL_CHARGES>  (1) 
39
1 -0.68
10 0.28
100 0.15
14 0.06
15 0.28
16 0.14
2 -0.68
27 0.28
28 0.45
29 -0.28
3 -0.56
30 0.42
31 -0.14
32 0.56
33 0.71
35 0.28
36 0.28
37 0.28
38 0.7
4 -0.57
41 -0.14
43 -0.15
44 -0.15
46 -0.15
47 -0.15
48 -0.15
5 -0.43
6 -0.56
7 -0.57
74 0.4
75 0.06
76 0.4
79 0.15
8 -0.56
9 -0.56
93 0.15
94 0.15
98 0.15
99 0.15

>  <PUBCHEM_EFFECTIVE_ROTOR_COUNT>  (1) 
11

>  <PUBCHEM_PHARMACOPHORE_FEATURES>  (1) 
19
1 1 acceptor
1 1 donor
1 2 acceptor
1 2 donor
1 3 acceptor
1 4 acceptor
1 45 hydrophobe
1 6 acceptor
1 7 acceptor
1 8 acceptor
1 9 acceptor
5 10 12 16 19 22 rings
5 5 29 30 31 33 rings
5 8 9 35 36 38 rings
6 10 11 12 13 17 18 rings
6 11 13 14 15 20 21 rings
6 14 15 23 24 26 27 rings
6 41 43 44 46 47 48 rings
6 6 32 34 35 36 37 rings

>  <PUBCHEM_HEAVY_ATOM_COUNT>  (1) 
48

>  <PUBCHEM_ATOM_DEF_STEREO_COUNT>  (1) 
8

>  <PUBCHEM_ATOM_UDEF_STEREO_COUNT>  (1) 
5

>  <PUBCHEM_BOND_DEF_STEREO_COUNT>  (1) 
0

>  <PUBCHEM_BOND_UDEF_STEREO_COUNT>  (1) 
0

>  <PUBCHEM_ISOTOPIC_ATOM_COUNT>  (1) 
0

>  <PUBCHEM_COMPONENT_COUNT>  (1) 
1

>  <PUBCHEM_CACTVS_TAUTO_COUNT>  (1) 
1

>  <PUBCHEM_CONFORMER_ID>  (1) 
000091BE00000002

>  <PUBCHEM_MMFF94_ENERGY>  (1) 
162.343

>  <PUBCHEM_FEATURE_SELFOVERLAP>  (1) 
96.873

>  <PUBCHEM_SHAPE_FINGERPRINT>  (1) 
10162869 55 13840270294675469690
10580692 12 18343865499116140345
10677351 14 18410564111918566981
11115154 58 16988842778686043424
11443803 9 17312819399143806306
12013929 2 11095887051195805360
12202916 173 11241972564246084873
12664476 115 18411979156780598424
12758862 56 13830121793782839951
13811026 1 18113059320668498972
15347591 1 17243004658581715793
15361156 5 18334013904985482551
15669420 48 17967817132446555581
15684393 108 18059576854473991780
15840311 113 12967116221243413218
17686467 74 17458345239084517717
18608769 82 18412819180155053663
20105231 36 17561362889968930855
21223535 225 8790615823338515307
21792934 111 9511457806575817138
21792965 169 15338843113479701514
21895431 317 11458414748220901640
22164985 6 18186519890879279383
24771293 8 17603586301207579460
24893992 56 15357707417503579036
335507 130 18259987063867575909
3418910 222 17895198758063155293
3525247 94 8502362314187063889
4173938 188 15574724612232559137
44280117 145 18271805783438747847
4625314 4 18343578556408321253
474113 269 9799695892051459076
5028188 123 18272087228080979791
5381727 24 12396298175050160161
57303763 39 18341334509264540315

>  <PUBCHEM_SHAPE_MULTIPOLES>  (1) 
934.99
41.21
2.87
1.94
10.19
0.83
0.75
-13.31
-5.98
1
-1.35
0.47
-0.17
-0.75

>  <PUBCHEM_SHAPE_SELFOVERLAP>  (1) 
2037.558

>  <PUBCHEM_SHAPE_VOLUME>  (1) 
502.4

>  <PUBCHEM_COORDINATE_TYPE>  (1) 
2
5
10

$$$$
