37311
     RDKit          3D

 25 29  0  0  1  0  0  0  0  0999 V2000
    3.4147    0.5586    0.5621 O   0  0  0  0  0  0  0  0  0  0  0  0
    2.8616    3.1825    0.4759 O   0  0  0  0  0  0  0  0  0  0  0  0
   -2.6363    0.0080   -0.6376 N   0  0  0  0  0  0  0  0  0  0  0  0
   -4.6042    0.5407    0.7050 C   0  0  0  0  0  0  0  0  0  0  0  0
   -5.6190   -0.2997   -0.0020 C   0  0  0  0  0  0  0  0  0  0  0  0
   -5.6107   -0.2311    1.4970 C   0  0  0  0  0  0  0  0  0  0  0  0
   -3.1786    0.0929    0.7176 C   0  0  0  0  0  0  0  0  0  0  0  0
   -1.2625   -0.5392   -0.7305 C   0  0  0  0  0  0  0  0  0  0  0  0
   -2.7090    1.2970   -1.3383 C   0  0  0  0  0  0  0  0  0  0  0  0
   -0.1529    0.4551   -0.3946 C   0  0  0  0  0  0  0  0  0  0  0  0
   -1.0784   -1.8463    0.0684 C   0  0  0  0  0  0  0  0  0  0  0  0
   -1.7941    2.3623   -0.7295 C   0  0  0  0  0  0  0  0  0  0  0  0
   -0.4127    1.8406   -0.4302 C   0  0  0  0  0  0  0  0  0  0  0  0
    1.1527   -0.0311   -0.1291 C   0  0  0  0  0  0  0  0  0  0  0  0
    0.3226   -2.3899   -0.0905 C   0  0  0  0  0  0  0  0  0  0  0  0
    1.4115   -1.4919   -0.1654 C   0  0  0  0  0  0  0  0  0  0  0  0
    0.6119    2.7443   -0.1364 C   0  0  0  0  0  0  0  0  0  0  0  0
    2.1552    0.9102    0.1638 C   0  0  0  0  0  0  0  0  0  0  0  0
    1.8875    2.2804    0.1631 C   0  0  0  0  0  0  0  0  0  0  0  0
    0.5321   -3.7772   -0.1015 C   0  0  0  0  0  0  0  0  0  0  0  0
    2.7001   -2.0414   -0.2927 C   0  0  0  0  0  0  0  0  0  0  0  0
    1.8193   -4.2917   -0.2185 C   0  0  0  0  0  0  0  0  0  0  0  0
    2.9013   -3.4247   -0.3186 C   0  0  0  0  0  0  0  0  0  0  0  0
    3.6309    0.4170    1.9626 C   0  0  0  0  0  0  0  0  0  0  0  0
    3.6570    3.6747   -0.6000 C   0  0  0  0  0  0  0  0  0  0  0  0
  1 18  1  0
  1 24  1  0
  2 19  1  0
  2 25  1  0
  3  7  1  0
  3  8  1  0
  3  9  1  0
  4  5  1  0
  4  6  1  0
  4  7  1  0
  5  6  1  0
  8 10  1  0
  8 11  1  0
  9 12  1  0
 10 13  2  0
 10 14  1  0
 11 15  1  0
 12 13  1  0
 13 17  1  0
 14 16  1  0
 14 18  2  0
 15 16  2  0
 15 20  1  0
 16 21  1  0
 17 19  2  0
 18 19  1  0
 20 22  2  0
 21 23  2  0
 22 23  1  0
M  END
>  <PUBCHEM_COMPOUND_CID>  (1) 
37311

>  <PUBCHEM_CONFORMER_RMSD>  (1) 
0.8

>  <PUBCHEM_CONFORMER_DIVERSEORDER>  (1) 
1
4
2
9
5
8
3
7
6

>  <PUBCHEM_MMFF94_PARTIAL_CHARGES>  (1) 
33
1 -0.36
10 -0.14
11 0.14
12 0.14
13 -0.14
15 -0.14
17 -0.15
18 0.08
19 0.08
2 -0.36
20 -0.15
21 -0.15
22 -0.15
23 -0.15
24 0.28
25 0.28
26 0.1
27 0.1
28 0.1
29 0.1
3 -0.81
30 0.1
4 -0.19
40 0.15
41 0.15
42 0.15
43 0.15
44 0.15
5 -0.2
6 -0.2
7 0.37
8 0.41
9 0.27

>  <PUBCHEM_EFFECTIVE_ROTOR_COUNT>  (1) 
5.4

>  <PUBCHEM_PHARMACOPHORE_FEATURES>  (1) 
7
1 1 acceptor
1 2 acceptor
1 3 cation
6 10 13 14 17 18 19 rings
6 15 16 20 21 22 23 rings
6 3 8 9 10 12 13 rings
6 8 10 11 14 15 16 rings

>  <PUBCHEM_HEAVY_ATOM_COUNT>  (1) 
25

>  <PUBCHEM_ATOM_DEF_STEREO_COUNT>  (1) 
0

>  <PUBCHEM_ATOM_UDEF_STEREO_COUNT>  (1) 
1

>  <PUBCHEM_BOND_DEF_STEREO_COUNT>  (1) 
0

>  <PUBCHEM_BOND_UDEF_STEREO_COUNT>  (1) 
0

>  <PUBCHEM_ISOTOPIC_ATOM_COUNT>  (1) 
0

>  <PUBCHEM_COMPONENT_COUNT>  (1) 
1

>  <PUBCHEM_CACTVS_TAUTO_COUNT>  (1) 
1

>  <PUBCHEM_CONFORMER_ID>  (1) 
000091BF00000001

>  <PUBCHEM_MMFF94_ENERGY>  (1) 
104.7119

>  <PUBCHEM_FEATURE_SELFOVERLAP>  (1) 
35.614

>  <PUBCHEM_SHAPE_FINGERPRINT>  (1) 
10165383 225 18265627643853520708
10411042 1 18050570642608866295
10493431 412 18123474036103383529
10967382 1 18339353068265811094
1100329 8 18340206388352748766
11227688 84 17549814487699710671
114674 6 18261116223243711275
11578080 2 16766990894355295105
11680986 33 18051118207883529085
12035758 1 18340193121399492042
12403259 226 18118405047059977271
12553582 1 18197210343620495815
12633257 1 18336535118505183688
12788726 201 16680055619403024747
13140716 1 18266734873552786648
138480 1 18266743480413981644
14223421 5 18193271888885103471
14363568 33 18339091393014416886
14787075 74 18043267750775274815
14790565 3 18121508104896744157
14866123 147 17835243720191645890
15230672 131 18191875729264317924
15475509 84 17698736809199336913
15927050 60 18269282437562804726
16945 1 18411127039727296916
18785283 64 18408605855322547618
19591789 44 18266181806435242446
1979834 28 18335712680093064161
20028762 73 18200305671037804255
20101258 96 17764032363249033371
20642791 268 17915192217287694955
20739085 24 18261959642835120885
21041028 32 18126851482425680473
21049683 271 18262256429749452758
21197605 99 18120101838795482419
221490 88 18192994807575748623
22182313 1 18192135019457791781
2334 1 17905033008856459788
23559900 14 18191019002613646965
23845131 108 18194399124806629643
25222932 49 17096935874445379851
2748010 2 18050548665466259044
2818148 4 17836390166921222320
3091708 16 9185090903241086766
31174 14 18337958883321762783
3178227 256 18337685169319047962
3421961 26 18339366241030812643
350125 39 18409172121106999948
352729 6 18194102226470197718
458136 41 18339366360883740941
474 4 18341893030325451179
5309563 4 18195247707186287943
58807428 26 18340753940542439778
6442390 28 18195254548767860437
6669772 16 18341341093116635356
9709674 26 18191574251886113005

>  <PUBCHEM_SHAPE_MULTIPOLES>  (1) 
497.77
8.27
4.99
1.09
12.13
1.81
0.33
-0.88
2.92
-6.87
-0.84
0.22
-0.26
0.8

>  <PUBCHEM_SHAPE_SELFOVERLAP>  (1) 
1093.77

>  <PUBCHEM_SHAPE_VOLUME>  (1) 
269.2

>  <PUBCHEM_COORDINATE_TYPE>  (1) 
2
5
10

$$$$
