37313
     RDKit          3D

 23 25  0  0  1  0  0  0  0  0999 V2000
   -5.3630   -2.8007   -1.1696 Cl  0  0  0  0  0  0  0  0  0  0  0  0
   -3.5416    2.2593   -0.4485 S   0  0  0  0  0  0  0  0  0  0  0  0
    0.2044    1.0657    1.5086 O   0  0  0  0  0  0  0  0  0  0  0  0
   -1.2133    2.3686   -1.6502 O   0  0  0  0  0  0  0  0  0  0  0  0
    6.5154    1.0420   -1.4326 O   0  0  0  0  0  0  0  0  0  0  0  0
    1.8385   -0.3306    0.6210 N   0  0  0  0  0  0  0  0  0  0  0  0
    4.5361   -0.5944   -0.1337 N   0  0  0  0  0  0  0  0  0  0  0  0
   -1.6672    0.5002   -0.3069 N   0  0  0  0  0  0  0  0  0  0  0  0
   -2.7406   -0.1130    0.4745 C   0  0  0  0  0  0  0  0  0  0  0  0
    2.8339    0.0122    1.6309 C   0  0  0  0  0  0  0  0  0  0  0  0
    2.2307   -1.3633   -0.3423 C   0  0  0  0  0  0  0  0  0  0  0  0
    4.2157    0.2641    1.0161 C   0  0  0  0  0  0  0  0  0  0  0  0
    3.6938   -1.7874   -0.1975 C   0  0  0  0  0  0  0  0  0  0  0  0
   -3.7369    0.9994    0.8566 C   0  0  0  0  0  0  0  0  0  0  0  0
   -0.3812   -0.1669   -0.4356 C   0  0  0  0  0  0  0  0  0  0  0  0
    0.5710    0.2516    0.6585 C   0  0  0  0  0  0  0  0  0  0  0  0
    5.9558   -0.9253   -0.1776 C   0  0  0  0  0  0  0  0  0  0  0  0
   -3.3647   -1.2608   -0.2881 C   0  0  0  0  0  0  0  0  0  0  0  0
   -1.9356    1.7145   -0.9123 C   0  0  0  0  0  0  0  0  0  0  0  0
   -5.1741    0.5733    0.9184 C   0  0  0  0  0  0  0  0  0  0  0  0
   -4.6928   -1.4551   -0.3210 C   0  0  0  0  0  0  0  0  0  0  0  0
    6.8174    0.3225   -0.2442 C   0  0  0  0  0  0  0  0  0  0  0  0
   -5.6017   -0.5760    0.3755 C   0  0  0  0  0  0  0  0  0  0  0  0
  1 21  1  0
  2 14  1  0
  2 19  1  0
  3 16  2  0
  4 19  2  0
  5 22  1  0
  6 10  1  0
  6 11  1  0
  6 16  1  0
  7 12  1  0
  7 13  1  0
  7 17  1  0
  8  9  1  0
  8 15  1  0
  8 19  1  0
  9 14  1  0
  9 18  1  0
 10 12  1  0
 11 13  1  0
 14 20  1  0
 15 16  1  0
 17 22  1  0
 18 21  2  0
 20 23  2  0
 21 23  1  0
M  END
>  <PUBCHEM_COMPOUND_CID>  (1) 
37313

>  <PUBCHEM_CONFORMER_RMSD>  (1) 
0.8

>  <PUBCHEM_CONFORMER_DIVERSEORDER>  (1) 
1
20
48
52
11
91
109
74
69
50
80
14
113
28
31
55
85
102
22
115
39
68
90
4
15
65
36
81
23
108
33
12
104
110
82
21
75
60
64
73
37
57
47
18
67
83
101
7
25
77
13
3
95
30
6
5
89
112
54
24
16
2
92
45
70
17
86
100
106
53
99
79
49
93
10
87
96
9
44
43
59
103
27
114
42
56
46
84
111
38
58
76
66
8
35
19
29
78
51
63
32
34
71
41
97
105
62
94
98
107
61
40
88
26
72

>  <PUBCHEM_MMFF94_PARTIAL_CHARGES>  (1) 
27
1 -0.14
10 0.3
11 0.3
12 0.27
13 0.27
14 0.37
15 0.36
16 0.57
17 0.27
18 -0.29
19 0.77
2 -0.37
20 -0.29
21 0.14
22 0.28
23 -0.15
3 -0.57
38 0.15
39 0.15
4 -0.57
42 0.15
43 0.4
5 -0.68
6 -0.66
7 -0.81
8 -0.66
9 0.44

>  <PUBCHEM_EFFECTIVE_ROTOR_COUNT>  (1) 
6.6

>  <PUBCHEM_PHARMACOPHORE_FEATURES>  (1) 
7
1 3 acceptor
1 5 acceptor
1 5 donor
1 7 cation
5 2 8 9 14 19 rings
6 6 7 10 11 12 13 rings
6 9 14 18 20 21 23 rings

>  <PUBCHEM_HEAVY_ATOM_COUNT>  (1) 
23

>  <PUBCHEM_ATOM_DEF_STEREO_COUNT>  (1) 
0

>  <PUBCHEM_ATOM_UDEF_STEREO_COUNT>  (1) 
2

>  <PUBCHEM_BOND_DEF_STEREO_COUNT>  (1) 
0

>  <PUBCHEM_BOND_UDEF_STEREO_COUNT>  (1) 
0

>  <PUBCHEM_ISOTOPIC_ATOM_COUNT>  (1) 
0

>  <PUBCHEM_COMPONENT_COUNT>  (1) 
1

>  <PUBCHEM_CACTVS_TAUTO_COUNT>  (1) 
1

>  <PUBCHEM_CONFORMER_ID>  (1) 
000091C100000001

>  <PUBCHEM_MMFF94_ENERGY>  (1) 
42.5969

>  <PUBCHEM_FEATURE_SELFOVERLAP>  (1) 
35.659

>  <PUBCHEM_SHAPE_FINGERPRINT>  (1) 
10042902 136 18198620119928584415
10366900 7 18040711485050544762
10595046 47 18260830376221829602
11045977 3 17775560957941767411
11089746 13 9007056851085115074
11101153 10 18041002885760727084
11497681 19 17772176768103746647
11524674 6 16271926030178791927
11552529 35 17774992523426222775
12236239 1 16805602534197283010
12403259 415 18201990032762297024
12553582 1 17894906335256082195
12596602 18 15913042170497281827
12633257 1 17561093527274443243
13009979 54 18339931540895490081
13288520 33 18201719570334817163
13583140 156 16343696639097355635
13782708 43 18343017775039650022
13914758 101 11386354942421781276
14251758 9 14764630802563024212
14341114 176 17917712422376473793
14556957 393 17168148922914069239
14856354 85 17846226565726579909
14955137 171 16773516658879691528
15537594 2 18334295340811908027
17844677 252 18131072640577109832
17980427 23 17240773847566292573
1813 80 18113056039176393261
18222031 100 18261943141965628851
19141452 34 18342738508139768483
19377110 9 17749100072384484888
200 152 15574713573802091265
21267235 1 18340769351629201323
220451 1 18342179942461960786
22950370 63 18272933804077473058
2297311 6 18343023285186804569
23402539 116 17530685372696650413
23522609 53 18268175126596341320
23557571 272 18337111176714824332
23559900 14 18130213939760904017
2838139 119 11458423561530468955
3009799 131 16153420662557405927
335352 9 18342735222816646517
34797466 226 18340499915250207756
4214541 1 18201999911229100371
4325135 7 18334861619190357956
497634 4 18343586222250218097
5104073 3 17989194928767877354
5385378 56 11455630793516383301
59755656 520 11167940247604135533
7495541 125 18272929423680342578

>  <PUBCHEM_SHAPE_MULTIPOLES>  (1) 
446.5
16.31
2.23
1.27
17.33
0.35
0.01
4.14
1.94
-3.22
0.99
0.24
-0.46
-0.62

>  <PUBCHEM_SHAPE_SELFOVERLAP>  (1) 
908.434

>  <PUBCHEM_SHAPE_VOLUME>  (1) 
261.3

>  <PUBCHEM_COORDINATE_TYPE>  (1) 
2
5
10

$$$$
