37322
     RDKit          3D

 34 36  0  0  1  0  0  0  0  0999 V2000
    0.2188    0.0347   -0.5988 S   0  0  0  0  0  0  0  0  0  0  0  0
   -2.4764    1.3388    1.6026 O   0  0  0  0  0  0  0  0  0  0  0  0
   -5.2402   -1.9599    0.7336 O   0  0  0  0  0  0  0  0  0  0  0  0
   -3.1404   -1.7209   -0.1703 O   0  0  0  0  0  0  0  0  0  0  0  0
   -3.4388    0.9795   -0.4779 N   0  0  0  0  0  0  0  0  0  0  0  0
   -1.5144    3.6501    0.1445 N   0  0  0  0  0  0  0  0  0  0  0  0
    1.9428   -0.1883   -0.1075 C   0  0  0  0  0  0  0  0  0  0  0  0
    2.7715    0.8598   -0.9123 C   0  0  0  0  0  0  0  0  0  0  0  0
    2.3120   -1.6564   -0.4894 C   0  0  0  0  0  0  0  0  0  0  0  0
    2.0028    0.0558    1.4329 C   0  0  0  0  0  0  0  0  0  0  0  0
   -4.5714    0.2220   -0.0058 C   0  0  0  0  0  0  0  0  0  0  0  0
   -5.8235    0.4002   -0.8916 C   0  0  0  0  0  0  0  0  0  0  0  0
    0.0191    1.7646   -0.0648 C   0  0  0  0  0  0  0  0  0  0  0  0
   -1.3940    2.2775   -0.3529 C   0  0  0  0  0  0  0  0  0  0  0  0
   -2.4706    1.4822    0.3813 C   0  0  0  0  0  0  0  0  0  0  0  0
    2.8937    2.1078   -0.3805 C   0  0  0  0  0  0  0  0  0  0  0  0
    3.1862   -2.3148    0.3205 C   0  0  0  0  0  0  0  0  0  0  0  0
    3.1887    0.4709    1.9573 C   0  0  0  0  0  0  0  0  0  0  0  0
    3.3184    0.4573   -2.0930 C   0  0  0  0  0  0  0  0  0  0  0  0
    1.7343   -2.1789   -1.6060 C   0  0  0  0  0  0  0  0  0  0  0  0
    0.8650   -0.1624    2.1483 C   0  0  0  0  0  0  0  0  0  0  0  0
   -6.2144    1.8764   -1.0097 C   0  0  0  0  0  0  0  0  0  0  0  0
   -5.6699   -0.2130   -2.2876 C   0  0  0  0  0  0  0  0  0  0  0  0
   -4.2220   -1.2518    0.1691 C   0  0  0  0  0  0  0  0  0  0  0  0
    3.6349    3.0451   -1.0999 C   0  0  0  0  0  0  0  0  0  0  0  0
    3.5159   -3.6265   -0.0205 C   0  0  0  0  0  0  0  0  0  0  0  0
    3.2424    0.6894    3.3340 C   0  0  0  0  0  0  0  0  0  0  0  0
    4.0597    1.3947   -2.8124 C   0  0  0  0  0  0  0  0  0  0  0  0
    2.0640   -3.4908   -1.9468 C   0  0  0  0  0  0  0  0  0  0  0  0
    0.9188    0.0561    3.5250 C   0  0  0  0  0  0  0  0  0  0  0  0
    4.2180    2.6886   -2.3157 C   0  0  0  0  0  0  0  0  0  0  0  0
    2.9548   -4.2144   -1.1540 C   0  0  0  0  0  0  0  0  0  0  0  0
    2.1075    0.4820    4.1177 C   0  0  0  0  0  0  0  0  0  0  0  0
   -4.9932   -3.3559    0.9309 C   0  0  0  0  0  0  0  0  0  0  0  0
  1  7  1  0
  1 13  1  0
  2 15  2  0
  3 24  1  0
  3 34  1  0
  4 24  2  0
  5 11  1  0
  5 15  1  0
  6 14  1  0
  7  8  1  0
  7  9  1  0
  7 10  1  0
  8 16  2  0
  8 19  1  0
  9 17  2  0
  9 20  1  0
 10 18  2  0
 10 21  1  0
 11 12  1  0
 11 24  1  0
 12 22  1  0
 12 23  1  0
 13 14  1  0
 14 15  1  0
 16 25  1  0
 17 26  1  0
 18 27  1  0
 19 28  2  0
 20 29  2  0
 21 30  2  0
 25 31  2  0
 26 32  2  0
 27 33  2  0
 28 31  1  0
 29 32  1  0
 30 33  1  0
M  END
>  <PUBCHEM_COMPOUND_CID>  (1) 
37322

>  <PUBCHEM_CONFORMER_RMSD>  (1) 
1.2

>  <PUBCHEM_CONFORMER_DIVERSEORDER>  (1) 
1
24
45
30
33
16
32
42
14
13
35
38
5
29
2
43
17
37
23
15
22
41
39
25
34
27
19
18
20
4
40
11
26
31
10
28
3
6
7
12
9
36
8
21
44

>  <PUBCHEM_MMFF94_PARTIAL_CHARGES>  (1) 
49
1 -0.46
10 -0.14
11 0.36
13 0.23
14 0.33
15 0.57
16 -0.15
17 -0.15
18 -0.15
19 -0.15
2 -0.57
20 -0.15
21 -0.15
24 0.66
25 -0.15
26 -0.15
27 -0.15
28 -0.15
29 -0.15
3 -0.43
30 -0.15
31 -0.15
32 -0.15
33 -0.15
34 0.28
4 -0.57
40 0.37
47 0.15
48 0.15
49 0.15
5 -0.73
50 0.15
51 0.15
52 0.15
53 0.36
54 0.36
55 0.15
56 0.15
57 0.15
58 0.15
59 0.15
6 -0.99
60 0.15
61 0.15
62 0.15
63 0.15
7 0.66
8 -0.14
9 -0.14

>  <PUBCHEM_EFFECTIVE_ROTOR_COUNT>  (1) 
12

>  <PUBCHEM_PHARMACOPHORE_FEATURES>  (1) 
9
1 2 acceptor
1 4 acceptor
1 5 donor
1 6 cation
1 6 donor
3 12 22 23 hydrophobe
6 10 18 21 27 30 33 rings
6 8 16 19 25 28 31 rings
6 9 17 20 26 29 32 rings

>  <PUBCHEM_HEAVY_ATOM_COUNT>  (1) 
34

>  <PUBCHEM_ATOM_DEF_STEREO_COUNT>  (1) 
0

>  <PUBCHEM_ATOM_UDEF_STEREO_COUNT>  (1) 
2

>  <PUBCHEM_BOND_DEF_STEREO_COUNT>  (1) 
0

>  <PUBCHEM_BOND_UDEF_STEREO_COUNT>  (1) 
0

>  <PUBCHEM_ISOTOPIC_ATOM_COUNT>  (1) 
0

>  <PUBCHEM_COMPONENT_COUNT>  (1) 
1

>  <PUBCHEM_CACTVS_TAUTO_COUNT>  (1) 
2

>  <PUBCHEM_CONFORMER_ID>  (1) 
000091CA00000001

>  <PUBCHEM_MMFF94_ENERGY>  (1) 
144.4379

>  <PUBCHEM_FEATURE_SELFOVERLAP>  (1) 
45.671

>  <PUBCHEM_SHAPE_FINGERPRINT>  (1) 
10928967 22 17561367292479227247
10940486 97 17690576190847998844
11093857 51 18199752603661271278
11135609 12 18335693888930466867
11135926 11 18337682995939385597
11421498 54 17273446956951934600
11443803 9 18044090388090526084
13383661 66 17197742398524812398
13726171 33 18189629391984342457
161222 10 17023482944011617375
17809404 112 18129075958164006199
17909252 39 18411146813919991506
19315092 285 16700868584802316535
22393880 68 16877951516260217435
23559900 14 18338793404030929935
23572383 38 18341313549523286655
238 59 18191615054175274972
25222932 49 17459754924596990923
376196 1 17678469777478407796
44802255 64 17469924372636168964
6086070 43 16486406565387590609
70251023 43 17970071032641666741
86090 222 17630886221316228635

>  <PUBCHEM_SHAPE_MULTIPOLES>  (1) 
675.98
11.89
4.41
3.34
22.98
3.22
3.19
0.54
-4.9
-2.74
-2.22
-4.16
-0.75
0.46

>  <PUBCHEM_SHAPE_SELFOVERLAP>  (1) 
1431.207

>  <PUBCHEM_SHAPE_VOLUME>  (1) 
381

>  <PUBCHEM_COORDINATE_TYPE>  (1) 
2
5
10

$$$$
