37327
     RDKit          3D

 22 25  0  0  0  0  0  0  0  0999 V2000
   -2.8503    1.8776   -1.0744 S   0  0  0  0  0  0  0  0  0  0  0  0
   -0.0334   -1.2344    1.4804 O   0  0  0  0  0  0  0  0  0  0  0  0
    0.9493    0.7877    0.8074 N   0  0  0  0  0  0  0  0  0  0  0  0
   -0.3082    2.4078   -0.4417 N   0  0  0  0  0  0  0  0  0  0  0  0
   -2.5839   -0.3877    0.1215 C   0  0  0  0  0  0  0  0  0  0  0  0
   -2.9522   -1.7365    0.6669 C   0  0  0  0  0  0  0  0  0  0  0  0
   -4.2576   -2.2717    0.0582 C   0  0  0  0  0  0  0  0  0  0  0  0
   -5.3423   -1.1888   -0.0018 C   0  0  0  0  0  0  0  0  0  0  0  0
   -4.9079   -0.0052   -0.8778 C   0  0  0  0  0  0  0  0  0  0  0  0
   -3.4986    0.3908   -0.5644 C   0  0  0  0  0  0  0  0  0  0  0  0
   -1.3258    0.2862    0.2431 C   0  0  0  0  0  0  0  0  0  0  0  0
   -1.3353    1.5244   -0.3697 C   0  0  0  0  0  0  0  0  0  0  0  0
   -0.1034   -0.1530    0.9040 C   0  0  0  0  0  0  0  0  0  0  0  0
    0.7883    2.0170    0.1414 C   0  0  0  0  0  0  0  0  0  0  0  0
    2.2244    0.4420    1.4340 C   0  0  0  0  0  0  0  0  0  0  0  0
    3.1109   -0.2834    0.4599 C   0  0  0  0  0  0  0  0  0  0  0  0
    1.9744    2.9522    0.0985 C   0  0  0  0  0  0  0  0  0  0  0  0
    2.5797   -1.2984   -0.3255 C   0  0  0  0  0  0  0  0  0  0  0  0
    4.4500    0.0705    0.3568 C   0  0  0  0  0  0  0  0  0  0  0  0
    3.4019   -1.9713   -1.2293 C   0  0  0  0  0  0  0  0  0  0  0  0
    5.2721   -0.6025   -0.5471 C   0  0  0  0  0  0  0  0  0  0  0  0
    4.7480   -1.6233   -1.3402 C   0  0  0  0  0  0  0  0  0  0  0  0
  1 10  1  0
  1 12  1  0
  2 13  2  0
  3 13  1  0
  3 14  1  0
  3 15  1  0
  4 12  1  0
  4 14  2  0
  5  6  1  0
  5 10  2  0
  5 11  1  0
  6  7  1  0
  7  8  1  0
  8  9  1  0
  9 10  1  0
 11 12  2  0
 11 13  1  0
 14 17  1  0
 15 16  1  0
 16 18  2  0
 16 19  1  0
 18 20  1  0
 19 21  2  0
 20 22  2  0
 21 22  1  0
M  END
>  <PUBCHEM_COMPOUND_CID>  (1) 
37327

>  <PUBCHEM_CONFORMER_RMSD>  (1) 
0.6

>  <PUBCHEM_CONFORMER_DIVERSEORDER>  (1) 
2
4
8
7
3
1
6
5

>  <PUBCHEM_MMFF94_PARTIAL_CHARGES>  (1) 
25
1 -0.08
10 -0.14
11 -0.09
12 0.17
13 0.72
14 0.45
15 0.44
16 -0.14
17 0.06
18 -0.15
19 -0.15
2 -0.57
20 -0.15
21 -0.15
22 -0.15
3 -0.42
36 0.15
37 0.15
38 0.15
39 0.15
4 -0.58
40 0.15
5 -0.18
6 0.18
9 0.18

>  <PUBCHEM_EFFECTIVE_ROTOR_COUNT>  (1) 
2.8

>  <PUBCHEM_PHARMACOPHORE_FEATURES>  (1) 
5
1 2 acceptor
5 1 5 10 11 12 rings
6 16 18 19 20 21 22 rings
6 3 4 11 12 13 14 rings
6 5 6 7 8 9 10 rings

>  <PUBCHEM_HEAVY_ATOM_COUNT>  (1) 
22

>  <PUBCHEM_ATOM_DEF_STEREO_COUNT>  (1) 
0

>  <PUBCHEM_ATOM_UDEF_STEREO_COUNT>  (1) 
0

>  <PUBCHEM_BOND_DEF_STEREO_COUNT>  (1) 
0

>  <PUBCHEM_BOND_UDEF_STEREO_COUNT>  (1) 
0

>  <PUBCHEM_ISOTOPIC_ATOM_COUNT>  (1) 
0

>  <PUBCHEM_COMPONENT_COUNT>  (1) 
1

>  <PUBCHEM_CACTVS_TAUTO_COUNT>  (1) 
1

>  <PUBCHEM_CONFORMER_ID>  (1) 
000091CF00000002

>  <PUBCHEM_MMFF94_ENERGY>  (1) 
51.957

>  <PUBCHEM_FEATURE_SELFOVERLAP>  (1) 
25.508

>  <PUBCHEM_SHAPE_FINGERPRINT>  (1) 
10498660 4 18115303367649580892
116883 192 18410291419411627721
11961588 58 17023474156813952388
12236239 1 16587737616467921130
12596602 18 14692277478272745334
12623949 98 17909568468683847983
12670546 177 18186242831355360468
13103583 49 15698001851158279903
13402501 40 18342741810010134223
13533116 47 17988080118872235123
13544653 18 17846781784580554354
13583140 156 16199009799205815731
14386348 63 18342175561558304350
14790565 3 17473825022531642477
14866123 147 17839468786858078105
15209294 21 9583519819559813417
15352361 1 18412546500516913334
15475509 8 18197223555546234709
15536298 74 18263636432785517553
15848702 151 18343303682326917595
15961568 22 17823133596334952260
17357779 13 18411694383226293294
1813 80 18407761438708180116
19141452 34 18202002166224541799
19784866 240 17917721196636079699
200 152 17417808405525475698
20374829 77 18409163298869471618
20403669 9 18411136935147466815
20645477 70 18338512066208186625
20693207 138 18261385672237828173
20871999 31 18261396606912989204
21033650 10 17460607926529054028
21267235 1 18261111920298013755
212916 134 10303812068632657101
21307412 95 18342460301243332943
221357 26 18409163316476439829
221490 88 18263647431948556963
2215653 11 18342729703177068375
22182313 1 18338216245951400360
22393880 68 18113887274151176333
23379529 103 18267591375921132903
23402539 116 18187359901215591438
23557571 272 18410290285729996760
23559900 14 18337664317216402385
2748010 2 18042675273195662401
2838139 119 14201116803882259238
2871803 45 18411419471455885670
329604 57 18409173203702184510
335352 9 18335133190531809357
394222 165 13900188288348152930
4280585 95 18333725810952212292
4463277 69 17989492913419167846
46194498 28 18335701701491997860
474 4 11602827895220176230
5104073 3 17988076669992670794
59755656 215 18336820893498466719
6823239 73 18410005567847152288
7364860 26 18268144451676065104
9709674 26 18117556456164386635

>  <PUBCHEM_SHAPE_MULTIPOLES>  (1) 
440.77
10.87
2.67
1.18
0.2
1.04
0.02
-6.4
-3.06
-0.11
-0.42
0.51
-0.2
1.7

>  <PUBCHEM_SHAPE_SELFOVERLAP>  (1) 
957.514

>  <PUBCHEM_SHAPE_VOLUME>  (1) 
242.4

>  <PUBCHEM_COORDINATE_TYPE>  (1) 
2
5
10

$$$$
