37328
     RDKit          3D

 25 29  0  0  0  0  0  0  0  0999 V2000
    4.0795   -1.8703    0.2752 S   0  0  0  0  0  0  0  0  0  0  0  0
    0.5623    1.4959   -0.3107 O   0  0  0  0  0  0  0  0  0  0  0  0
   -0.1429   -0.7450   -0.0835 N   0  0  0  0  0  0  0  0  0  0  0  0
    1.4824   -2.4902    0.2124 N   0  0  0  0  0  0  0  0  0  0  0  0
    3.4034    0.6020    0.0325 C   0  0  0  0  0  0  0  0  0  0  0  0
    3.5531    2.0892   -0.1021 C   0  0  0  0  0  0  0  0  0  0  0  0
    4.9602    2.5682    0.2877 C   0  0  0  0  0  0  0  0  0  0  0  0
    6.0513    1.6698   -0.3086 C   0  0  0  0  0  0  0  0  0  0  0  0
    5.9288    0.2249    0.1957 C   0  0  0  0  0  0  0  0  0  0  0  0
    4.5030   -0.2288    0.1487 C   0  0  0  0  0  0  0  0  0  0  0  0
    2.1867   -0.1548    0.0245 C   0  0  0  0  0  0  0  0  0  0  0  0
    2.4146   -1.5088    0.1579 C   0  0  0  0  0  0  0  0  0  0  0  0
    0.8129    0.3088   -0.1208 C   0  0  0  0  0  0  0  0  0  0  0  0
    0.2473   -2.0868    0.1129 C   0  0  0  0  0  0  0  0  0  0  0  0
   -1.5153   -0.3803   -0.3052 C   0  0  0  0  0  0  0  0  0  0  0  0
   -2.3151   -0.0319    0.7761 C   0  0  0  0  0  0  0  0  0  0  0  0
   -0.8114   -3.1585    0.2816 C   0  0  0  0  0  0  0  0  0  0  0  0
   -2.0228   -0.3804   -1.5948 C   0  0  0  0  0  0  0  0  0  0  0  0
   -3.6582    0.3268    0.5766 C   0  0  0  0  0  0  0  0  0  0  0  0
   -4.1858    0.3295   -0.7366 C   0  0  0  0  0  0  0  0  0  0  0  0
   -3.3549   -0.0265   -1.8115 C   0  0  0  0  0  0  0  0  0  0  0  0
   -4.4891    0.6832    1.6513 C   0  0  0  0  0  0  0  0  0  0  0  0
   -5.5289    0.6883   -0.9364 C   0  0  0  0  0  0  0  0  0  0  0  0
   -5.8212    1.0366    1.4343 C   0  0  0  0  0  0  0  0  0  0  0  0
   -6.3401    1.0391    0.1429 C   0  0  0  0  0  0  0  0  0  0  0  0
  1 10  1  0
  1 12  1  0
  2 13  2  0
  3 13  1  0
  3 14  1  0
  3 15  1  0
  4 12  1  0
  4 14  2  0
  5  6  1  0
  5 10  2  0
  5 11  1  0
  6  7  1  0
  7  8  1  0
  8  9  1  0
  9 10  1  0
 11 12  2  0
 11 13  1  0
 14 17  1  0
 15 16  2  0
 15 18  1  0
 16 19  1  0
 18 21  2  0
 19 20  2  0
 19 22  1  0
 20 21  1  0
 20 23  1  0
 22 24  2  0
 23 25  2  0
 24 25  1  0
M  END
>  <PUBCHEM_COMPOUND_CID>  (1) 
37328

>  <PUBCHEM_CONFORMER_RMSD>  (1) 
0.6

>  <PUBCHEM_CONFORMER_DIVERSEORDER>  (1) 
2
1

>  <PUBCHEM_MMFF94_PARTIAL_CHARGES>  (1) 
28
1 -0.08
10 -0.14
11 -0.09
12 0.17
13 0.72
14 0.45
15 0.12
16 -0.15
17 0.06
18 -0.15
2 -0.57
21 -0.15
22 -0.15
23 -0.15
24 -0.15
25 -0.15
3 -0.24
34 0.15
38 0.15
39 0.15
4 -0.58
40 0.15
41 0.15
42 0.15
43 0.15
5 -0.18
6 0.18
9 0.18

>  <PUBCHEM_EFFECTIVE_ROTOR_COUNT>  (1) 
1.8

>  <PUBCHEM_PHARMACOPHORE_FEATURES>  (1) 
6
1 2 acceptor
5 1 5 10 11 12 rings
6 15 16 18 19 20 21 rings
6 19 20 22 23 24 25 rings
6 3 4 11 12 13 14 rings
6 5 6 7 8 9 10 rings

>  <PUBCHEM_HEAVY_ATOM_COUNT>  (1) 
25

>  <PUBCHEM_ATOM_DEF_STEREO_COUNT>  (1) 
0

>  <PUBCHEM_ATOM_UDEF_STEREO_COUNT>  (1) 
0

>  <PUBCHEM_BOND_DEF_STEREO_COUNT>  (1) 
0

>  <PUBCHEM_BOND_UDEF_STEREO_COUNT>  (1) 
0

>  <PUBCHEM_ISOTOPIC_ATOM_COUNT>  (1) 
0

>  <PUBCHEM_COMPONENT_COUNT>  (1) 
1

>  <PUBCHEM_CACTVS_TAUTO_COUNT>  (1) 
1

>  <PUBCHEM_CONFORMER_ID>  (1) 
000091D000000002

>  <PUBCHEM_MMFF94_ENERGY>  (1) 
85.6626

>  <PUBCHEM_FEATURE_SELFOVERLAP>  (1) 
30.61

>  <PUBCHEM_SHAPE_FINGERPRINT>  (1) 
10 15 17530966908051063432
10319926 262 16009298812760394264
10411042 1 17761491388189658370
10493431 412 18409169943241842251
10906281 52 18272382996350168252
11089746 13 17775283880637385072
11796584 16 14548731816150871390
12035758 1 17458356234226766145
12236239 1 17989484091883376319
12390115 104 18338527455134244894
12403259 415 17895189961330926111
12596602 18 18343867710681159763
12616971 3 18270953566345436846
12788726 201 17560813091083979504
13140716 1 18334855048154775938
13540713 5 18265596845165520642
13631057 29 18199460138744711479
13947920 75 16773803588491176688
13955234 65 18189331282335648250
14251764 75 18191874642004751276
14341114 328 18201718431851952983
14790565 3 18412266112156723184
14840074 17 18412545413959019317
15081414 286 18408042901285513252
15183329 4 15626231195205480346
15188451 53 14273742893166627513
15475509 35 16153979133345319458
1577012 14 17918274230037639185
18785283 64 17314525900665938477
19784866 240 8142085364539815265
20511986 3 17917698102581533713
20612939 158 18341328912030168510
21033648 144 18336537300258912551
21033648 29 17603573115267427925
21033650 10 15123524587835301771
21236236 1 18337670940135295479
21315764 119 16343432734652596300
21623969 137 18187369822120475561
21756936 100 18202003273703287083
22122407 14 18270694065112905881
22182313 1 17749658594020785470
22224240 67 18114184138322866715
22393880 68 12607111895020590965
22956985 138 13191715574483638200
23559900 14 13398621766686365006
23569914 152 7874788319349522328
23569943 247 17770227050805922646
23845131 108 18187083974715084235
25147074 1 18270382962665848695
3004659 81 16629970919607239454
3178227 256 18187927219277860666
335352 9 18410575085776305310
34797466 226 14836113407648348872
3680242 22 18334563634791995426
38570 142 18200609054510179588
397830 11 17459204025952536889
4073 2 18041003980802982826
4340502 62 18336557053446801587
474 4 18342174462020270315
5104073 3 18189324844685307378
542803 24 17917991668122842853
59755656 520 18411417332076940799
602551 16 15792025484052964531
633830 44 18272935998626757703
6608658 132 17346329158894003617
7495541 125 15575007177423626365

>  <PUBCHEM_SHAPE_MULTIPOLES>  (1) 
502.51
15.08
2.47
1.17
3.01
1.11
-0.13
-9.3
1.62
-2.94
0.31
1.98
-0.14
-0.66

>  <PUBCHEM_SHAPE_SELFOVERLAP>  (1) 
1117.793

>  <PUBCHEM_SHAPE_VOLUME>  (1) 
269.8

>  <PUBCHEM_COORDINATE_TYPE>  (1) 
2
5
10

$$$$
