37336
     RDKit          3D

 28 29  0  0  1  0  0  0  0  0999 V2000
    3.4631   -0.5835   -2.9312 O   0  0  0  0  0  0  0  0  0  0  0  0
   -3.4847   -0.5255    2.9296 O   0  0  0  0  0  0  0  0  0  0  0  0
    3.7888    3.5147    2.2963 O   0  0  0  0  0  0  0  0  0  0  0  0
   -3.6982    3.5750   -2.2986 O   0  0  0  0  0  0  0  0  0  0  0  0
    2.9817    1.4632    2.8458 O   0  0  0  0  0  0  0  0  0  0  0  0
   -2.9375    1.5055   -2.8472 O   0  0  0  0  0  0  0  0  0  0  0  0
    1.8499    1.2239    0.3523 N   0  0  0  0  0  0  0  0  0  0  0  0
   -1.8161    1.2385   -0.3511 N   0  0  0  0  0  0  0  0  0  0  0  0
    0.6293    1.2311   -0.4532 C   0  0  0  0  0  0  0  0  0  0  0  0
   -0.5986    1.2133    0.4522 C   0  0  0  0  0  0  0  0  0  0  0  0
    2.9824    0.7458   -0.4402 C   0  0  0  0  0  0  0  0  0  0  0  0
   -2.9635    0.7893    0.4391 C   0  0  0  0  0  0  0  0  0  0  0  0
    2.1227    2.5606    0.8790 C   0  0  0  0  0  0  0  0  0  0  0  0
   -2.0572    2.5824   -0.8784 C   0  0  0  0  0  0  0  0  0  0  0  0
    2.9685   -0.7521   -0.5915 C   0  0  0  0  0  0  0  0  0  0  0  0
   -2.9878   -0.7083    0.5915 C   0  0  0  0  0  0  0  0  0  0  0  0
    3.2098   -1.3458   -1.8305 C   0  0  0  0  0  0  0  0  0  0  0  0
   -3.2475   -1.2948    1.8304 C   0  0  0  0  0  0  0  0  0  0  0  0
    2.7106   -1.5478    0.5247 C   0  0  0  0  0  0  0  0  0  0  0  0
   -2.7467   -1.5113   -0.5234 C   0  0  0  0  0  0  0  0  0  0  0  0
    2.9995    2.4292    2.0936 C   0  0  0  0  0  0  0  0  0  0  0  0
   -2.9345    2.4717   -2.0948 C   0  0  0  0  0  0  0  0  0  0  0  0
    3.1934   -2.7352   -1.9531 C   0  0  0  0  0  0  0  0  0  0  0  0
   -3.2663   -2.6842    1.9539 C   0  0  0  0  0  0  0  0  0  0  0  0
    2.6941   -2.9373    0.4020 C   0  0  0  0  0  0  0  0  0  0  0  0
   -2.7654   -2.9005   -0.3995 C   0  0  0  0  0  0  0  0  0  0  0  0
    2.9354   -3.5309   -0.8368 C   0  0  0  0  0  0  0  0  0  0  0  0
   -3.0251   -3.4869    0.8390 C   0  0  0  0  0  0  0  0  0  0  0  0
  1 17  1  0
  2 18  1  0
  3 21  1  0
  4 22  1  0
  5 21  2  0
  6 22  2  0
  7  9  1  0
  7 11  1  0
  7 13  1  0
  8 10  1  0
  8 12  1  0
  8 14  1  0
  9 10  1  0
 11 15  1  0
 12 16  1  0
 13 21  1  0
 14 22  1  0
 15 17  2  0
 15 19  1  0
 16 18  2  0
 16 20  1  0
 17 23  1  0
 18 24  1  0
 19 25  2  0
 20 26  2  0
 23 27  2  0
 24 28  2  0
 25 27  1  0
 26 28  1  0
M  END
>  <PUBCHEM_COMPOUND_CID>  (1) 
37336

>  <PUBCHEM_CONFORMER_RMSD>  (1) 
1

>  <PUBCHEM_CONFORMER_DIVERSEORDER>  (1) 
5
134
209
20
208
161
77
59
215
259
124
247
188
278
155
93
100
176
187
13
207
128
271
211
99
24
241
37
67
179
260
148
139
87
8
269
229
180
221
257
15
75
141
95
6
80
235
267
178
205
41
165
32
118
202
273
234
218
92
119
61
53
206
217
122
277
142
33
133
173
60
94
243
110
264
62
258
253
177
131
108
105
248
231
157
18
146
170
152
160
38
88
175
96
174
66
11
261
274
101
249
86
36
194
198
135
149
123
190
232
164
204
46
181
27
238
265
153
103
130
132
113
252
169
183
213
228
230
242
104
125
74
137
140
171
138
150
143
197
166
121
89
262
84
196
220
49
120
68
98
245
263
154
219
270
227
275
50
136
272
203
112
69
226
195
236
186
182
107
212
129
244
184
39
163
106
172
240
276
90
79
255
167
117
156
151
222
23
250
71
52
224
144
44
266
45
70
237
111
225
158
256
251
214
223
201
233
193
63
185
76
216
78
102
254
168
91
17
159
162
210
43
126
31
114
268
47
72
191
21
246
127
116
22
85
40
35
83
192
115
25
199
81
56
3
189
29
65
109
239
73
147
48
82
54
55
51
2
28
145
42
26
19
97
58
1
200
14
16
7
57
64
4
9
34
12
10
30

>  <PUBCHEM_MMFF94_PARTIAL_CHARGES>  (1) 
40
1 -0.53
10 0.27
11 0.41
12 0.41
13 0.33
14 0.33
15 -0.14
16 -0.14
17 0.08
18 0.08
19 -0.15
2 -0.53
20 -0.15
21 0.66
22 0.66
23 -0.15
24 -0.15
25 -0.15
26 -0.15
27 -0.15
28 -0.15
3 -0.65
4 -0.65
41 0.15
42 0.15
43 0.15
44 0.15
45 0.15
46 0.15
47 0.15
48 0.15
49 0.45
5 -0.57
50 0.45
51 0.5
52 0.5
6 -0.57
7 -0.81
8 -0.81
9 0.27

>  <PUBCHEM_EFFECTIVE_ROTOR_COUNT>  (1) 
11

>  <PUBCHEM_PHARMACOPHORE_FEATURES>  (1) 
12
1 1 donor
1 2 donor
1 3 acceptor
1 4 acceptor
1 5 acceptor
1 6 acceptor
1 7 cation
1 8 cation
3 3 5 21 anion
3 4 6 22 anion
6 15 17 19 23 25 27 rings
6 16 18 20 24 26 28 rings

>  <PUBCHEM_HEAVY_ATOM_COUNT>  (1) 
28

>  <PUBCHEM_ATOM_DEF_STEREO_COUNT>  (1) 
0

>  <PUBCHEM_ATOM_UDEF_STEREO_COUNT>  (1) 
0

>  <PUBCHEM_BOND_DEF_STEREO_COUNT>  (1) 
0

>  <PUBCHEM_BOND_UDEF_STEREO_COUNT>  (1) 
0

>  <PUBCHEM_ISOTOPIC_ATOM_COUNT>  (1) 
0

>  <PUBCHEM_COMPONENT_COUNT>  (1) 
1

>  <PUBCHEM_CACTVS_TAUTO_COUNT>  (1) 
5

>  <PUBCHEM_CONFORMER_ID>  (1) 
000091D800000005

>  <PUBCHEM_MMFF94_ENERGY>  (1) 
69.4286

>  <PUBCHEM_FEATURE_SELFOVERLAP>  (1) 
61.011

>  <PUBCHEM_SHAPE_FINGERPRINT>  (1) 
10675989 125 17113246747091548596
107951 10 16519087280679662465
11578080 2 18410863156710368233
12160290 23 17676198053596201293
12363563 72 17556568851783589332
12549972 3 18338793403725358401
12553582 1 17825679012796621347
12788726 201 17385443250254931953
13149001 5 18194673783142395757
13533116 47 17916321561938124883
13583140 156 17274269464595812657
14725015 67 18260547831509165123
15403338 16 17273718618113218387
17809404 112 18128800976555757546
17974551 9 17842876340922388651
1813 80 17679596798666593955
19315092 285 14903914603149545046
20693207 138 18411428292922884725
20775438 99 17980719906310673199
21285901 2 18189883387807331303
23559900 14 18335421283246339172
25265897 201 18051100671590381627
340366 18 17171538584023726358
469060 322 17549795112573612991
6287921 2 17840889669097519330
9981440 41 17696144374949208584

>  <PUBCHEM_SHAPE_MULTIPOLES>  (1) 
531.05
8.6
5.18
2.91
0.07
0.36
0
1.73
0.18
-0.03
-0.1
-0.02
-1.65
6.37

>  <PUBCHEM_SHAPE_SELFOVERLAP>  (1) 
1110.007

>  <PUBCHEM_SHAPE_VOLUME>  (1) 
299.9

>  <PUBCHEM_COORDINATE_TYPE>  (1) 
2
5
10

$$$$
