37347
     RDKit          3D

 11 11  0  0  0  0  0  0  0  0999 V2000
    1.1580    2.9302   -0.1771 Br  0  0  0  0  0  0  0  0  0  0  0  0
    2.6513    0.2983   -0.1641 O   0  0  0  0  0  0  0  0  0  0  0  0
    1.5967   -2.1361    0.6288 O   0  0  0  0  0  0  0  0  0  0  0  0
   -3.2004    0.3799    0.3672 N   0  0  0  0  0  0  0  0  0  0  0  0
   -1.8754    0.1958    0.0520 C   0  0  0  0  0  0  0  0  0  0  0  0
   -0.9674    1.1590    0.2962 C   0  0  0  0  0  0  0  0  0  0  0  0
    1.2828    0.1148   -0.0181 C   0  0  0  0  0  0  0  0  0  0  0  0
   -1.5528   -1.0684   -0.5804 C   0  0  0  0  0  0  0  0  0  0  0  0
    0.4561    1.1761    0.0152 C   0  0  0  0  0  0  0  0  0  0  0  0
    0.8524   -1.3049    0.1132 C   0  0  0  0  0  0  0  0  0  0  0  0
   -0.4015   -1.7446   -0.5330 C   0  0  0  0  0  0  0  0  0  0  0  0
  1  9  1  0
  2  7  1  0
  3 10  2  0
  4  5  1  0
  5  6  2  0
  5  8  1  0
  6  9  1  0
  7  9  2  0
  7 10  1  0
  8 11  2  0
 10 11  1  0
M  END
>  <PUBCHEM_COMPOUND_CID>  (1) 
37347

>  <PUBCHEM_CONFORMER_RMSD>  (1) 
0.4

>  <PUBCHEM_CONFORMER_DIVERSEORDER>  (1) 
1
2

>  <PUBCHEM_MMFF94_PARTIAL_CHARGES>  (1) 
17
1 -0.11
10 0.54
11 -0.14
12 0.15
13 0.15
14 0.15
15 0.4
16 0.4
17 0.45
2 -0.53
3 -0.57
4 -0.9
5 0.1
6 -0.15
7 0.09
8 -0.15
9 0.11

>  <PUBCHEM_EFFECTIVE_ROTOR_COUNT>  (1) 
0

>  <PUBCHEM_PHARMACOPHORE_FEATURES>  (1) 
6
1 1 hydrophobe
1 2 donor
1 3 acceptor
1 4 cation
1 4 donor
7 5 6 7 8 9 10 11 rings

>  <PUBCHEM_HEAVY_ATOM_COUNT>  (1) 
11

>  <PUBCHEM_ATOM_DEF_STEREO_COUNT>  (1) 
0

>  <PUBCHEM_ATOM_UDEF_STEREO_COUNT>  (1) 
0

>  <PUBCHEM_BOND_DEF_STEREO_COUNT>  (1) 
0

>  <PUBCHEM_BOND_UDEF_STEREO_COUNT>  (1) 
0

>  <PUBCHEM_ISOTOPIC_ATOM_COUNT>  (1) 
0

>  <PUBCHEM_COMPONENT_COUNT>  (1) 
1

>  <PUBCHEM_CACTVS_TAUTO_COUNT>  (1) 
11

>  <PUBCHEM_CONFORMER_ID>  (1) 
000091E300000001

>  <PUBCHEM_MMFF94_ENERGY>  (1) 
39.9931

>  <PUBCHEM_FEATURE_SELFOVERLAP>  (1) 
30.446

>  <PUBCHEM_SHAPE_FINGERPRINT>  (1) 
12423570 1 9403146543177457868
16945 1 18409160034804895029
18185500 45 18411975858182028215
193761 8 17979074117254103366
21040471 1 17907014332725105000
22802520 49 17260497158055780028
2334 1 17907014332783042853
23552423 10 18267015240385678367
241688 4 17978513035563924905
2748010 2 18123748651753188757
5084963 1 18057888150057059489
528862 383 18408323272233614683
66348 1 18340487755338033585

>  <PUBCHEM_SHAPE_MULTIPOLES>  (1) 
215.6
3.18
2.7
0.72
0.12
0.48
0.03
-1.68
0.2
0.6
-0.31
-0.06
0.05
-0.41

>  <PUBCHEM_SHAPE_SELFOVERLAP>  (1) 
434.634

>  <PUBCHEM_SHAPE_VOLUME>  (1) 
126.6

>  <PUBCHEM_COORDINATE_TYPE>  (1) 
2
5
10

$$$$
