3734
     RDKit          3D

 31 31  0  0  1  0  0  0  0  0999 V2000
   -1.8745   -2.2624    1.4173 I   0  0  0  0  0  0  0  0  0  0  0  0
   -1.4187    3.6079   -0.1998 I   0  0  0  0  0  0  0  0  0  0  0  0
    3.5535    0.0684   -0.1283 I   0  0  0  0  0  0  0  0  0  0  0  0
    1.3320   -4.7385   -2.4715 O   0  0  0  0  0  0  0  0  0  0  0  0
    4.1143   -3.7626    0.6516 O   0  0  0  0  0  0  0  0  0  0  0  0
   -5.5200   -0.7430    1.5206 O   0  0  0  0  0  0  0  0  0  0  0  0
   -5.1652    0.2137   -2.6514 O   0  0  0  0  0  0  0  0  0  0  0  0
    1.7502   -2.3571    1.9457 O   0  0  0  0  0  0  0  0  0  0  0  0
   -3.1597    1.1393    1.8739 O   0  0  0  0  0  0  0  0  0  0  0  0
    4.3780    4.9697    0.1330 O   0  0  0  0  0  0  0  0  0  0  0  0
    3.2182    2.8737    1.2573 O   0  0  0  0  0  0  0  0  0  0  0  0
    1.3509   -2.9510   -0.2598 N   0  0  0  0  0  0  0  0  0  0  0  0
   -3.5419    0.5802   -0.3433 N   0  0  0  0  0  0  0  0  0  0  0  0
    1.6423    2.6396   -0.4712 N   0  0  0  0  0  0  0  0  0  0  0  0
    1.9139   -4.2797   -0.1801 C   0  0  0  0  0  0  0  0  0  0  0  0
   -4.9821    0.7311   -0.3067 C   0  0  0  0  0  0  0  0  0  0  0  0
    0.6827   -0.7703    0.5890 C   0  0  0  0  0  0  0  0  0  0  0  0
   -1.2857    0.6303    0.5596 C   0  0  0  0  0  0  0  0  0  0  0  0
   -0.6894   -0.6108    0.7828 C   0  0  0  0  0  0  0  0  0  0  0  0
    0.8622    1.5522   -0.0517 C   0  0  0  0  0  0  0  0  0  0  0  0
   -0.5099    1.7117    0.1423 C   0  0  0  0  0  0  0  0  0  0  0  0
    1.4585    0.3113    0.1718 C   0  0  0  0  0  0  0  0  0  0  0  0
    1.3086   -2.0726    0.8236 C   0  0  0  0  0  0  0  0  0  0  0  0
   -2.7467    0.8012    0.7677 C   0  0  0  0  0  0  0  0  0  0  0  0
    1.1812   -5.2153   -1.1390 C   0  0  0  0  0  0  0  0  0  0  0  0
    3.4093   -4.2392   -0.4891 C   0  0  0  0  0  0  0  0  0  0  0  0
   -5.6403   -0.5822    0.1117 C   0  0  0  0  0  0  0  0  0  0  0  0
   -5.4935    1.1908   -1.6700 C   0  0  0  0  0  0  0  0  0  0  0  0
    2.7315    3.2223    0.1853 C   0  0  0  0  0  0  0  0  0  0  0  0
    3.3128    4.3920   -0.6049 C   0  0  0  0  0  0  0  0  0  0  0  0
    3.8276    3.9493   -1.9665 C   0  0  0  0  0  0  0  0  0  0  0  0
  1 19  1  0
  2 21  1  0
  3 22  1  0
  4 25  1  0
  5 26  1  0
  6 27  1  0
  7 28  1  0
  8 23  2  0
  9 24  2  0
 10 30  1  0
 11 29  2  0
 12 15  1  0
 12 23  1  0
 13 16  1  0
 13 24  1  0
 14 20  1  0
 14 29  1  0
 15 25  1  0
 15 26  1  0
 16 27  1  0
 16 28  1  0
 17 19  2  0
 17 22  1  0
 17 23  1  0
 18 19  1  0
 18 21  2  0
 18 24  1  0
 20 21  1  0
 20 22  2  0
 29 30  1  0
 30 31  1  0
M  END
>  <PUBCHEM_COMPOUND_CID>  (1) 
3734

>  <PUBCHEM_CONFORMER_RMSD>  (1) 
1.2

>  <PUBCHEM_CONFORMER_DIVERSEORDER>  (1) 
5
3
8
4
6
1
7
2

>  <PUBCHEM_MMFF94_PARTIAL_CHARGES>  (1) 
38
1 -0.08
10 -0.68
11 -0.57
12 -0.73
13 -0.73
14 -0.55
15 0.3
16 0.3
17 0.09
18 0.09
19 0.08
2 -0.08
20 0.12
21 0.08
22 0.08
23 0.54
24 0.54
25 0.28
26 0.28
27 0.28
28 0.28
29 0.57
3 -0.08
30 0.34
34 0.37
35 0.37
4 -0.68
44 0.37
46 0.4
47 0.4
48 0.4
49 0.4
5 -0.68
53 0.4
6 -0.68
7 -0.68
8 -0.57
9 -0.57

>  <PUBCHEM_EFFECTIVE_ROTOR_COUNT>  (1) 
13

>  <PUBCHEM_PHARMACOPHORE_FEATURES>  (1) 
20
1 1 hydrophobe
1 10 acceptor
1 10 donor
1 11 acceptor
1 12 donor
1 13 donor
1 14 donor
1 2 hydrophobe
1 3 hydrophobe
1 4 acceptor
1 4 donor
1 5 acceptor
1 5 donor
1 6 acceptor
1 6 donor
1 7 acceptor
1 7 donor
1 8 acceptor
1 9 acceptor
6 17 18 19 20 21 22 rings

>  <PUBCHEM_HEAVY_ATOM_COUNT>  (1) 
31

>  <PUBCHEM_ATOM_DEF_STEREO_COUNT>  (1) 
0

>  <PUBCHEM_ATOM_UDEF_STEREO_COUNT>  (1) 
1

>  <PUBCHEM_BOND_DEF_STEREO_COUNT>  (1) 
0

>  <PUBCHEM_BOND_UDEF_STEREO_COUNT>  (1) 
0

>  <PUBCHEM_ISOTOPIC_ATOM_COUNT>  (1) 
0

>  <PUBCHEM_COMPONENT_COUNT>  (1) 
1

>  <PUBCHEM_CACTVS_TAUTO_COUNT>  (1) 
6

>  <PUBCHEM_CONFORMER_ID>  (1) 
00000E9600000005

>  <PUBCHEM_MMFF94_ENERGY>  (1) 
101.7522

>  <PUBCHEM_FEATURE_SELFOVERLAP>  (1) 
101.529

>  <PUBCHEM_SHAPE_FINGERPRINT>  (1) 
11135926 11 18338797922595066013
11991303 11 17903647619863204540
12160290 23 17326081909660252632
12788726 201 16892299872288074464
13140716 1 18263094356172688696
13690498 29 17047125424537199206
13911987 19 18118969328738844149
140371 6 18337956683929041138
14790565 3 18122067764799266865
15775530 1 18189355578875574819
15927050 60 18123754425012043822
17980427 26 17409143196962113257
21033648 144 18115588287264156181
21304303 282 17692507315422932350
21344244 181 17984448461413387942
22182313 1 17974875030771349512
23559900 14 18408881811049797609
23929065 36 17110138440657521218
24771750 20 18189915251884714286
255183 313 17474410426557458259
3057174 1 18337960107134105132
376196 1 18187362194058169545
4017518 198 18269833268172947068
4353968 344 17619922656617968110
4409770 3 17616812575248096195
5080951 261 17053587744553018388
6669772 16 18269284619711633092
70251023 43 18267299825441210665
7399639 24 17695603192655057898

>  <PUBCHEM_SHAPE_MULTIPOLES>  (1) 
611.87
9.97
7.97
1.71
13.55
2.73
-0.7
-3.34
-2.55
-13.87
-2.93
1.1
0.77
0.73

>  <PUBCHEM_SHAPE_SELFOVERLAP>  (1) 
1192.635

>  <PUBCHEM_SHAPE_VOLUME>  (1) 
376.8

>  <PUBCHEM_COORDINATE_TYPE>  (1) 
2
5
10

$$$$
