37349
     RDKit          3D

 22 24  0  0  1  0  0  0  0  0999 V2000
    4.4225    2.9765    1.5015 Cl  0  0  0  0  0  0  0  0  0  0  0  0
   -0.7348    0.9693   -0.3196 O   0  0  0  0  0  0  0  0  0  0  0  0
   -0.7406   -3.3318   -0.5109 N   0  0  0  0  0  0  0  0  0  0  0  0
   -4.3251    1.7579   -0.2795 N   0  0  0  0  0  0  0  0  0  0  0  0
    0.1477    0.2212    0.5203 C   0  0  0  0  0  0  0  0  0  0  0  0
    1.5994    0.4452    0.1294 C   0  0  0  0  0  0  0  0  0  0  0  0
    1.7216   -1.3224   -1.7938 C   0  0  0  0  0  0  0  0  0  0  0  0
   -0.3122   -1.2125    0.5834 C   0  0  0  0  0  0  0  0  0  0  0  0
    2.2768   -0.2189   -0.9150 C   0  0  0  0  0  0  0  0  0  0  0  0
    0.2133   -1.5396   -1.8513 C   0  0  0  0  0  0  0  0  0  0  0  0
   -0.3172   -2.0422   -0.5389 C   0  0  0  0  0  0  0  0  0  0  0  0
    2.2917    1.4415    0.8564 C   0  0  0  0  0  0  0  0  0  0  0  0
    3.6282    0.1166   -1.1631 C   0  0  0  0  0  0  0  0  0  0  0  0
   -2.0628    0.9426    0.1774 C   0  0  0  0  0  0  0  0  0  0  0  0
   -0.7751   -1.7595    1.7863 C   0  0  0  0  0  0  0  0  0  0  0  0
   -2.9455    1.7711   -0.7423 C   0  0  0  0  0  0  0  0  0  0  0  0
    3.6207    1.7615    0.5852 C   0  0  0  0  0  0  0  0  0  0  0  0
    4.2923    1.0946   -0.4260 C   0  0  0  0  0  0  0  0  0  0  0  0
   -1.2157   -3.0764    1.8384 C   0  0  0  0  0  0  0  0  0  0  0  0
   -1.1800   -3.8138    0.6712 C   0  0  0  0  0  0  0  0  0  0  0  0
   -5.1840    2.5212   -1.1883 C   0  0  0  0  0  0  0  0  0  0  0  0
   -4.4212    2.2978    1.0791 C   0  0  0  0  0  0  0  0  0  0  0  0
  1 17  1  0
  2  5  1  0
  2 14  1  0
  3 11  2  0
  3 20  1  0
  4 16  1  0
  4 21  1  0
  4 22  1  0
  5  6  1  0
  5  8  1  0
  6  9  2  0
  6 12  1  0
  7  9  1  0
  7 10  1  0
  8 11  1  0
  8 15  2  0
  9 13  1  0
 10 11  1  0
 12 17  2  0
 13 18  2  0
 14 16  1  0
 15 19  1  0
 17 18  1  0
 19 20  2  0
M  END
>  <PUBCHEM_COMPOUND_CID>  (1) 
37349

>  <PUBCHEM_CONFORMER_RMSD>  (1) 
0.8

>  <PUBCHEM_CONFORMER_DIVERSEORDER>  (1) 
5
13
9
2
12
8
10
11
4
3
14
1
7
6

>  <PUBCHEM_MMFF94_PARTIAL_CHARGES>  (1) 
28
1 -0.18
10 0.14
11 0.17
12 -0.15
13 -0.15
14 0.28
15 -0.15
16 0.27
17 0.18
18 -0.15
19 -0.15
2 -0.56
20 0.16
21 0.27
22 0.27
28 0.15
29 0.15
3 -0.62
32 0.15
35 0.15
36 0.15
37 0.15
4 -0.81
5 0.57
6 -0.14
7 0.14
8 -0.14
9 -0.14

>  <PUBCHEM_EFFECTIVE_ROTOR_COUNT>  (1) 
4.6

>  <PUBCHEM_PHARMACOPHORE_FEATURES>  (1) 
6
1 2 acceptor
1 3 acceptor
1 4 cation
6 3 8 11 15 19 20 rings
6 6 9 12 13 17 18 rings
7 5 6 7 8 9 10 11 rings

>  <PUBCHEM_HEAVY_ATOM_COUNT>  (1) 
22

>  <PUBCHEM_ATOM_DEF_STEREO_COUNT>  (1) 
0

>  <PUBCHEM_ATOM_UDEF_STEREO_COUNT>  (1) 
1

>  <PUBCHEM_BOND_DEF_STEREO_COUNT>  (1) 
0

>  <PUBCHEM_BOND_UDEF_STEREO_COUNT>  (1) 
0

>  <PUBCHEM_ISOTOPIC_ATOM_COUNT>  (1) 
0

>  <PUBCHEM_COMPONENT_COUNT>  (1) 
1

>  <PUBCHEM_CACTVS_TAUTO_COUNT>  (1) 
1

>  <PUBCHEM_CONFORMER_ID>  (1) 
000091E500000005

>  <PUBCHEM_MMFF94_ENERGY>  (1) 
66.8904

>  <PUBCHEM_FEATURE_SELFOVERLAP>  (1) 
30.464

>  <PUBCHEM_SHAPE_FINGERPRINT>  (1) 
11578080 2 18268168602857315532
12403814 3 17553766553232201042
12532896 13 18409160021904175327
12730499 353 18264499378010249193
12788726 201 17754744054057783339
13540713 4 18057895821755107452
13583140 156 18269270339457018240
13955234 65 18048315540592311713
14178342 30 17970058040934867202
14468879 13 18057876029991939120
14955137 171 17831567691789998594
20567600 347 18188210884428941675
20600515 1 16813753493024818802
21049683 118 18192966353523012361
21304303 282 17901629904262087951
21401589 2 18341328989371618641
21524375 3 18337107848014780708
22182313 1 17915474993803318772
23419403 2 17697644027305063759
23558518 356 18266169711559384669
23559900 14 18343026588865851292
238 59 17774449286786822556
2748010 2 17987533665830311876
376196 1 18201146685436731661
427121 178 18115036199140218313
633830 44 18130506323596389157
6442390 28 18336557049098826787
6669772 16 18337951182387638598
81228 2 18044093690223511539
9981440 41 17915158312815795178

>  <PUBCHEM_SHAPE_MULTIPOLES>  (1) 
438.79
8.11
4.37
1.73
1.82
2.51
0.03
-11.77
-0.25
3.45
1.29
-0.17
0.61
2.49

>  <PUBCHEM_SHAPE_SELFOVERLAP>  (1) 
924.562

>  <PUBCHEM_SHAPE_VOLUME>  (1) 
246.5

>  <PUBCHEM_COORDINATE_TYPE>  (1) 
2
5
10

$$$$
