37341
     RDKit          3D

 20 21  0  0  0  0  0  0  0  0999 V2000
    6.7550    0.6378   -0.1389 Cl  0  0  0  0  0  0  0  0  0  0  0  0
    0.3927   -0.0130    1.6022 O   0  0  0  0  0  0  0  0  0  0  0  0
    0.2739   -0.8541   -1.8464 O   0  0  0  0  0  0  0  0  0  0  0  0
   -5.6580    1.2158    0.2200 O   0  0  0  0  0  0  0  0  0  0  0  0
   -4.0080    2.4358   -0.5598 O   0  0  0  0  0  0  0  0  0  0  0  0
    0.9265   -0.2025    0.3102 N   0  0  0  0  0  0  0  0  0  0  0  0
   -4.4582    1.3497   -0.1215 N   0  0  0  0  0  0  0  0  0  0  0  0
   -1.3856   -0.7325   -0.2731 C   0  0  0  0  0  0  0  0  0  0  0  0
    2.3303    0.0000    0.2020 C   0  0  0  0  0  0  0  0  0  0  0  0
    0.0095   -0.6042   -0.6633 C   0  0  0  0  0  0  0  0  0  0  0  0
   -2.2446    0.3609   -0.3832 C   0  0  0  0  0  0  0  0  0  0  0  0
   -1.8645   -1.9495    0.2121 C   0  0  0  0  0  0  0  0  0  0  0  0
   -3.5824    0.2375   -0.0082 C   0  0  0  0  0  0  0  0  0  0  0  0
    2.9462   -0.2133   -1.0161 C   0  0  0  0  0  0  0  0  0  0  0  0
    3.0373    0.4039    1.3180 C   0  0  0  0  0  0  0  0  0  0  0  0
   -3.2022   -2.0730    0.5872 C   0  0  0  0  0  0  0  0  0  0  0  0
   -4.0612   -0.9795    0.4769 C   0  0  0  0  0  0  0  0  0  0  0  0
    4.3229   -0.0150   -1.1220 C   0  0  0  0  0  0  0  0  0  0  0  0
    4.4138    0.6023    1.2119 C   0  0  0  0  0  0  0  0  0  0  0  0
    5.0567    0.3928   -0.0081 C   0  0  0  0  0  0  0  0  0  0  0  0
  1 20  1  0
  2  6  1  0
  3 10  2  0
  4  7  1  0
  5  7  2  0
  6  9  1  0
  6 10  1  0
  7 13  1  0
  8 10  1  0
  8 11  2  0
  8 12  1  0
  9 14  2  0
  9 15  1  0
 11 13  1  0
 12 16  2  0
 13 17  2  0
 14 18  1  0
 15 19  2  0
 16 17  1  0
 18 20  2  0
 19 20  1  0
M  CHG  2   4  -1   7   1
M  END
>  <PUBCHEM_COMPOUND_CID>  (1) 
37341

>  <PUBCHEM_CONFORMER_RMSD>  (1) 
0.6

>  <PUBCHEM_CONFORMER_DIVERSEORDER>  (1) 
1
16
10
4
11
14
20
9
6
23
29
17
15
13
12
21
19
27
8
3
30
28
22
26
2
24
18
25
7
5

>  <PUBCHEM_MMFF94_PARTIAL_CHARGES>  (1) 
29
1 -0.18
10 0.54
11 -0.15
12 -0.15
13 0.13
14 -0.15
15 -0.15
16 -0.15
17 -0.15
18 -0.15
19 -0.15
2 -0.44
20 0.18
21 0.15
22 0.15
23 0.15
24 0.15
25 0.15
26 0.15
27 0.15
28 0.15
29 0.4
3 -0.57
4 -0.52
5 -0.52
6 -0.14
7 0.91
8 0.09
9 0.12

>  <PUBCHEM_EFFECTIVE_ROTOR_COUNT>  (1) 
4

>  <PUBCHEM_PHARMACOPHORE_FEATURES>  (1) 
6
1 3 acceptor
1 4 acceptor
1 4 anion
1 5 acceptor
6 8 11 12 13 16 17 rings
6 9 14 15 18 19 20 rings

>  <PUBCHEM_HEAVY_ATOM_COUNT>  (1) 
20

>  <PUBCHEM_ATOM_DEF_STEREO_COUNT>  (1) 
0

>  <PUBCHEM_ATOM_UDEF_STEREO_COUNT>  (1) 
0

>  <PUBCHEM_BOND_DEF_STEREO_COUNT>  (1) 
0

>  <PUBCHEM_BOND_UDEF_STEREO_COUNT>  (1) 
0

>  <PUBCHEM_ISOTOPIC_ATOM_COUNT>  (1) 
0

>  <PUBCHEM_COMPONENT_COUNT>  (1) 
1

>  <PUBCHEM_CACTVS_TAUTO_COUNT>  (1) 
1

>  <PUBCHEM_CONFORMER_ID>  (1) 
000091DD00000001

>  <PUBCHEM_MMFF94_ENERGY>  (1) 
70.9339

>  <PUBCHEM_FEATURE_SELFOVERLAP>  (1) 
30.528

>  <PUBCHEM_SHAPE_FINGERPRINT>  (1) 
10912923 1 17385720339842842346
11315181 36 17749953374510922190
11471102 20 16558753425509281278
11552529 35 16227191364346418769
11796584 16 18413392025882365118
12107183 9 17536577522439847496
12236239 1 17240483632521200207
12390115 104 18269563732899955425
12403259 415 17703506691928591227
12596602 18 16805610265465989761
12616971 3 16298390184195435350
12969540 114 17346589768528705748
13583140 156 18201718487402100490
13675066 3 18059575844929998786
13760787 5 15502375660081200230
14251752 14 18411702054918767384
14251764 75 17409098993909029993
14341114 328 17530963579440833576
14573314 32 18342461430413075134
15048467 5 18260830401791264364
15209294 21 17894346661977494433
15788980 27 17917991702561689550
16079462 125 17917701427518938104
17349148 13 13901912219395437590
17834072 8 17489870440591307536
17844677 252 18337678628121039024
17980427 23 18261396689150404005
1813 80 15647057014909392854
18186145 218 16917352566886401142
19141452 34 12324257057308594009
19489759 90 18411135861700885967
200 152 15140948595771298934
20281389 69 18334855009204469472
20645477 56 18411419510073232883
20645477 70 16916793950739604886
21033648 29 17846206787228115544
21065198 48 17967524675312198962
21065201 7 18411418440373707906
21150785 3 11167939204428054640
21709351 56 17346030186357210604
221357 26 16702296815783335121
231179 274 17917710206062767134
23402539 116 18410289233151695158
23536379 177 18333450950546949450
23557571 272 18341338867532076567
23559900 14 18339653239377852790
2916195 48 18341888654075627520
3545911 37 18341897380794824113
5104073 3 18335145241535153347
542803 24 17822009830920365904
573450 72 18040430022800798235
90127 26 18270397312625604464

>  <PUBCHEM_SHAPE_MULTIPOLES>  (1) 
380.02
13.4
1.58
1.21
8.05
0.16
0
4.97
0.54
-3.09
-0.03
0.95
-0.09
0.78

>  <PUBCHEM_SHAPE_SELFOVERLAP>  (1) 
812.722

>  <PUBCHEM_SHAPE_VOLUME>  (1) 
211.8

>  <PUBCHEM_COORDINATE_TYPE>  (1) 
2
5
10

$$$$
