37345
     RDKit          3D

  8  7  0  0  0  0  0  0  0  0999 V2000
    3.2296   -1.0766    0.0001 Cl  0  0  0  0  0  0  0  0  0  0  0  0
    2.2207    1.6876   -0.0003 Cl  0  0  0  0  0  0  0  0  0  0  0  0
   -3.2299    1.0764    0.0001 Cl  0  0  0  0  0  0  0  0  0  0  0  0
   -2.2204   -1.6875   -0.0003 Cl  0  0  0  0  0  0  0  0  0  0  0  0
    0.5907   -0.4223    0.0001 C   0  0  0  0  0  0  0  0  0  0  0  0
   -0.5906    0.4225    0.0001 C   0  0  0  0  0  0  0  0  0  0  0  0
    1.8690   -0.0113    0.0001 C   0  0  0  0  0  0  0  0  0  0  0  0
   -1.8690    0.0113    0.0001 C   0  0  0  0  0  0  0  0  0  0  0  0
  1  7  1  0
  2  7  1  0
  3  8  1  0
  4  8  1  0
  5  6  1  0
  5  7  2  3
  6  8  2  3
M  END
>  <PUBCHEM_COMPOUND_CID>  (1) 
37345

>  <PUBCHEM_CONFORMER_RMSD>  (1) 
0.4

>  <PUBCHEM_CONFORMER_DIVERSEORDER>  (1) 
1

>  <PUBCHEM_MMFF94_PARTIAL_CHARGES>  (1) 
10
1 -0.14
10 0.15
2 -0.14
3 -0.14
4 -0.14
5 -0.15
6 -0.15
7 0.28
8 0.28
9 0.15

>  <PUBCHEM_EFFECTIVE_ROTOR_COUNT>  (1) 
1

>  <PUBCHEM_PHARMACOPHORE_FEATURES>  (1) 
0

>  <PUBCHEM_HEAVY_ATOM_COUNT>  (1) 
8

>  <PUBCHEM_ATOM_DEF_STEREO_COUNT>  (1) 
0

>  <PUBCHEM_ATOM_UDEF_STEREO_COUNT>  (1) 
0

>  <PUBCHEM_BOND_DEF_STEREO_COUNT>  (1) 
0

>  <PUBCHEM_BOND_UDEF_STEREO_COUNT>  (1) 
0

>  <PUBCHEM_ISOTOPIC_ATOM_COUNT>  (1) 
0

>  <PUBCHEM_COMPONENT_COUNT>  (1) 
1

>  <PUBCHEM_CACTVS_TAUTO_COUNT>  (1) 
1

>  <PUBCHEM_CONFORMER_ID>  (1) 
000091E100000001

>  <PUBCHEM_MMFF94_ENERGY>  (1) 
10.7993

>  <PUBCHEM_FEATURE_SELFOVERLAP>  (1) 
0

>  <PUBCHEM_SHAPE_FINGERPRINT>  (1) 
11062470 55 14979945935405104793
12932764 1 18337403724000919559
14325111 11 18410574019542896480
14390081 3 18340204188891812233
15310529 11 18199468933813658415
19973954 147 18410293656941915313
23552423 10 18334012834552078090
3248919 1 18339348760075730063
9939556 21 18410856563934756959

>  <PUBCHEM_SHAPE_MULTIPOLES>  (1) 
172.12
5.56
1.72
0.64
0
0
0
0
0
0
0
0
0
0

>  <PUBCHEM_SHAPE_SELFOVERLAP>  (1) 
290.192

>  <PUBCHEM_SHAPE_VOLUME>  (1) 
112.7

>  <PUBCHEM_COORDINATE_TYPE>  (1) 
2
5
10

$$$$
