37355
     RDKit          3D

 21 23  0  0  0  0  0  0  0  0999 V2000
   -3.5858    1.7502    0.3065 N   0  0  0  0  0  0  0  0  0  0  0  0
   -0.1304   -1.2708   -0.4385 C   0  0  0  0  0  0  0  0  0  0  0  0
    0.7359   -2.3148   -0.0739 C   0  0  0  0  0  0  0  0  0  0  0  0
    2.2172   -2.1908   -0.3230 C   0  0  0  0  0  0  0  0  0  0  0  0
    2.8559   -1.1204    0.5632 C   0  0  0  0  0  0  0  0  0  0  0  0
   -1.5063   -1.3901   -0.1894 C   0  0  0  0  0  0  0  0  0  0  0  0
    2.5282    0.3402    0.3081 C   0  0  0  0  0  0  0  0  0  0  0  0
    0.4224   -0.0562   -1.0741 C   0  0  0  0  0  0  0  0  0  0  0  0
   -2.4694   -0.2939   -0.5222 C   0  0  0  0  0  0  0  0  0  0  0  0
    1.4288    0.8300   -0.4313 C   0  0  0  0  0  0  0  0  0  0  0  0
   -2.6263    0.7009    0.6340 C   0  0  0  0  0  0  0  0  0  0  0  0
    0.2105   -3.4668    0.5283 C   0  0  0  0  0  0  0  0  0  0  0  0
   -2.0163   -2.5410    0.4107 C   0  0  0  0  0  0  0  0  0  0  0  0
   -1.1591   -3.5786    0.7680 C   0  0  0  0  0  0  0  0  0  0  0  0
    3.4018    1.2697    0.9158 C   0  0  0  0  0  0  0  0  0  0  0  0
    1.2420    2.2272   -0.5232 C   0  0  0  0  0  0  0  0  0  0  0  0
    0.0448    0.1827   -2.3453 C   0  0  0  0  0  0  0  0  0  0  0  0
    3.2082    2.6442    0.7974 C   0  0  0  0  0  0  0  0  0  0  0  0
    2.1248    3.1237    0.0780 C   0  0  0  0  0  0  0  0  0  0  0  0
   -3.1263    2.5259   -0.8464 C   0  0  0  0  0  0  0  0  0  0  0  0
   -3.8006    2.6286    1.4573 C   0  0  0  0  0  0  0  0  0  0  0  0
  1 11  1  0
  1 20  1  0
  1 21  1  0
  2  3  2  0
  2  6  1  0
  2  8  1  0
  3  4  1  0
  3 12  1  0
  4  5  1  0
  5  7  1  0
  6  9  1  0
  6 13  2  0
  7 10  2  0
  7 15  1  0
  8 10  1  0
  8 17  2  0
  9 11  1  0
 10 16  1  0
 12 14  2  0
 13 14  1  0
 15 18  2  0
 16 19  2  0
 18 19  1  0
M  END
>  <PUBCHEM_COMPOUND_CID>  (1) 
37355

>  <PUBCHEM_CONFORMER_RMSD>  (1) 
0.6

>  <PUBCHEM_CONFORMER_DIVERSEORDER>  (1) 
1
11
13
9
7
5
2
12
8
3
10
6
4

>  <PUBCHEM_MMFF94_PARTIAL_CHARGES>  (1) 
30
1 -0.81
10 0.03
11 0.27
12 -0.15
13 -0.15
14 -0.15
15 -0.15
16 -0.15
17 -0.3
18 -0.15
19 -0.15
2 0.03
20 0.27
21 0.27
3 -0.14
30 0.15
31 0.15
32 0.15
33 0.15
34 0.15
35 0.15
36 0.15
37 0.15
38 0.15
4 0.14
5 0.14
6 -0.14
7 -0.14
8 -0.06
9 0.14

>  <PUBCHEM_EFFECTIVE_ROTOR_COUNT>  (1) 
3.4

>  <PUBCHEM_PHARMACOPHORE_FEATURES>  (1) 
4
1 1 cation
6 2 3 6 12 13 14 rings
6 7 10 15 16 18 19 rings
7 2 3 4 5 7 8 10 rings

>  <PUBCHEM_HEAVY_ATOM_COUNT>  (1) 
21

>  <PUBCHEM_ATOM_DEF_STEREO_COUNT>  (1) 
0

>  <PUBCHEM_ATOM_UDEF_STEREO_COUNT>  (1) 
0

>  <PUBCHEM_BOND_DEF_STEREO_COUNT>  (1) 
0

>  <PUBCHEM_BOND_UDEF_STEREO_COUNT>  (1) 
0

>  <PUBCHEM_ISOTOPIC_ATOM_COUNT>  (1) 
0

>  <PUBCHEM_COMPONENT_COUNT>  (1) 
1

>  <PUBCHEM_CACTVS_TAUTO_COUNT>  (1) 
1

>  <PUBCHEM_CONFORMER_ID>  (1) 
000091EB00000001

>  <PUBCHEM_MMFF94_ENERGY>  (1) 
75.7705

>  <PUBCHEM_FEATURE_SELFOVERLAP>  (1) 
20.311

>  <PUBCHEM_SHAPE_FINGERPRINT>  (1) 
10708813 3 17480306664766869369
10967382 1 18049720711414025134
1100329 8 18267306434984396570
11221954 11 18130798883635465485
11370993 70 18337377318795412313
12156800 1 14819045821868754561
12633257 1 18262785286189051234
13134695 92 17544470856692238829
13140716 1 18410009892742062546
14178342 30 18191572263294876568
14223421 5 18122065565997531202
14787075 74 18124579032894806063
14790565 3 18193567670936395644
14955137 171 17836389054984141795
15420108 30 17768792188046206535
16945 1 18048035456774041702
17780758 139 17760614334487444352
19591789 44 17906452126354764446
20344682 10 17472141055863941102
20510252 161 17907298002403431483
21041028 32 17039788370612524595
21524375 3 18272085002813270589
21665062 11 17908714929579198321
21731228 192 18410575093490598369
23419403 2 16886371357093790479
23558518 356 18411417349583824983
2748010 2 18260546774778073510
350125 39 18337122236471928275
474 4 18269267981034760241
5895379 119 15908549291314017353
5939293 188 18124594180452992442
81228 2 17978257141998238159
90316 7 17546734106545928203

>  <PUBCHEM_SHAPE_MULTIPOLES>  (1) 
427.19
5.67
4.78
1.29
0.67
1.01
-0.46
-5.14
2.04
1.61
1.3
0.27
-0.41
0.07

>  <PUBCHEM_SHAPE_SELFOVERLAP>  (1) 
917.858

>  <PUBCHEM_SHAPE_VOLUME>  (1) 
234.3

>  <PUBCHEM_COORDINATE_TYPE>  (1) 
2
5
10

$$$$
