37364
     RDKit          3D

 12 12  0  0  0  0  0  0  0  0999 V2000
    3.9716   -0.6709   -1.0925 S   0  0  0  0  0  0  0  0  0  0  0  0
    1.9530    1.6854    0.2300 O   0  0  0  0  0  0  0  0  0  0  0  0
    0.8646   -0.4008    0.2696 N   0  0  0  0  0  0  0  0  0  0  0  0
   -0.4813   -0.0682    0.0964 C   0  0  0  0  0  0  0  0  0  0  0  0
   -1.4635   -1.0579    0.0554 C   0  0  0  0  0  0  0  0  0  0  0  0
   -0.8377    1.2739   -0.0365 C   0  0  0  0  0  0  0  0  0  0  0  0
   -2.8019   -0.7053   -0.1184 C   0  0  0  0  0  0  0  0  0  0  0  0
   -1.1112   -2.5033    0.1952 C   0  0  0  0  0  0  0  0  0  0  0  0
   -2.1760    1.6265   -0.2103 C   0  0  0  0  0  0  0  0  0  0  0  0
   -3.1581    0.6369   -0.2512 C   0  0  0  0  0  0  0  0  0  0  0  0
    1.9671    0.4614    0.3326 C   0  0  0  0  0  0  0  0  0  0  0  0
    3.2733   -0.2778    0.5297 C   0  0  0  0  0  0  0  0  0  0  0  0
  1 12  1  0
  2 11  2  0
  3  4  1  0
  3 11  1  0
  4  5  2  0
  4  6  1  0
  5  7  1  0
  5  8  1  0
  6  9  2  0
  7 10  2  0
  9 10  1  0
 11 12  1  0
M  END
>  <PUBCHEM_COMPOUND_CID>  (1) 
37364

>  <PUBCHEM_CONFORMER_RMSD>  (1) 
0.6

>  <PUBCHEM_CONFORMER_DIVERSEORDER>  (1) 
1
5
3
2
4
6

>  <PUBCHEM_MMFF94_PARTIAL_CHARGES>  (1) 
18
1 -0.41
10 -0.15
11 0.57
12 0.29
13 0.15
14 0.15
15 0.37
19 0.15
2 -0.57
20 0.15
23 0.18
3 -0.55
4 0.12
5 -0.14
6 -0.15
7 -0.15
8 0.14
9 -0.15

>  <PUBCHEM_EFFECTIVE_ROTOR_COUNT>  (1) 
3

>  <PUBCHEM_PHARMACOPHORE_FEATURES>  (1) 
3
1 2 acceptor
1 3 donor
6 4 5 6 7 9 10 rings

>  <PUBCHEM_HEAVY_ATOM_COUNT>  (1) 
12

>  <PUBCHEM_ATOM_DEF_STEREO_COUNT>  (1) 
0

>  <PUBCHEM_ATOM_UDEF_STEREO_COUNT>  (1) 
0

>  <PUBCHEM_BOND_DEF_STEREO_COUNT>  (1) 
0

>  <PUBCHEM_BOND_UDEF_STEREO_COUNT>  (1) 
0

>  <PUBCHEM_ISOTOPIC_ATOM_COUNT>  (1) 
0

>  <PUBCHEM_COMPONENT_COUNT>  (1) 
1

>  <PUBCHEM_CACTVS_TAUTO_COUNT>  (1) 
2

>  <PUBCHEM_CONFORMER_ID>  (1) 
000091F400000001

>  <PUBCHEM_MMFF94_ENERGY>  (1) 
34.3427

>  <PUBCHEM_FEATURE_SELFOVERLAP>  (1) 
15.223

>  <PUBCHEM_SHAPE_FINGERPRINT>  (1) 
10465860 71 18338816537030605300
10608611 8 18341324582756161032
10751810 167 18187937161730991790
12032990 46 18338239374761544603
12716758 59 18411415141695958059
12932764 1 17603855715572977384
13024252 1 14490470876954516081
13380535 76 18339918229900724767
14144814 61 18335977593248405530
14325111 11 18410288112154869568
14993402 34 18113336397018449917
15669948 3 18335415807257832738
15775835 57 18041561330113469480
16945 1 18408877438905004203
18186145 218 18342732979636046481
19973954 147 18337951319604864096
20201158 50 18131072606349077486
20279233 1 18131068234425732830
20510252 161 18343580741945788833
20645476 183 17676496050636801342
20645477 56 18410290332864107624
20645477 70 17275107194056681670
20871998 184 18198625621581165287
20871998 22 17832718141961941867
20871999 31 18339094717672343854
22802520 49 18341620372753023298
23402539 116 18342442756243197991
23463225 33 18116986681323588546
23552423 10 18042964470222533456
23559900 14 18342459206595799278
2748010 2 18121775290453392107
6333449 129 18410569596006091495
74978 22 18409166640691436560
81228 2 18120365712531288523
93112 12 18410295830606466628

>  <PUBCHEM_SHAPE_MULTIPOLES>  (1) 
239.95
6.06
1.94
0.79
4.76
0.6
0.11
0.06
1.26
-0.98
-0.08
0.52
0.06
0.42

>  <PUBCHEM_SHAPE_SELFOVERLAP>  (1) 
480.574

>  <PUBCHEM_SHAPE_VOLUME>  (1) 
142.9

>  <PUBCHEM_COORDINATE_TYPE>  (1) 
2
5
10

$$$$
