37366
     RDKit          3D

 14 16  0  0  0  0  0  0  0  0999 V2000
   -2.5800   -0.3134    1.5192 S   0  0  0  0  0  0  0  0  0  0  0  0
   -2.5816   -0.4642   -1.4690 S   0  0  0  0  0  0  0  0  0  0  0  0
    1.0158    1.9780   -0.1054 N   0  0  0  0  0  0  0  0  0  0  0  0
   -1.5687   -0.6454    0.0366 C   0  0  0  0  0  0  0  0  0  0  0  0
   -0.3233    0.2104   -0.0095 C   0  0  0  0  0  0  0  0  0  0  0  0
    1.0230   -0.2499    0.0126 C   0  0  0  0  0  0  0  0  0  0  0  0
    1.8430    0.8790   -0.0486 C   0  0  0  0  0  0  0  0  0  0  0  0
   -4.0428    0.3110    0.6504 C   0  0  0  0  0  0  0  0  0  0  0  0
   -4.1895   -0.4733   -0.6376 C   0  0  0  0  0  0  0  0  0  0  0  0
   -0.2952    1.5840   -0.0825 C   0  0  0  0  0  0  0  0  0  0  0  0
    1.6244   -1.5223    0.0790 C   0  0  0  0  0  0  0  0  0  0  0  0
    3.2400    0.7985   -0.0467 C   0  0  0  0  0  0  0  0  0  0  0  0
    3.0208   -1.6181    0.0818 C   0  0  0  0  0  0  0  0  0  0  0  0
    3.8141   -0.4742    0.0198 C   0  0  0  0  0  0  0  0  0  0  0  0
  1  4  1  0
  1  8  1  0
  2  4  1  0
  2  9  1  0
  3  7  1  0
  3 10  1  0
  4  5  1  0
  5  6  1  0
  5 10  2  0
  6  7  2  0
  6 11  1  0
  7 12  1  0
  8  9  1  0
 11 13  2  0
 12 14  2  0
 13 14  1  0
M  END
>  <PUBCHEM_COMPOUND_CID>  (1) 
37366

>  <PUBCHEM_CONFORMER_RMSD>  (1) 
0.6

>  <PUBCHEM_CONFORMER_DIVERSEORDER>  (1) 
1
2
5
4
6
3

>  <PUBCHEM_MMFF94_PARTIAL_CHARGES>  (1) 
19
1 -0.46
10 -0.3
11 -0.15
12 -0.15
13 -0.15
14 -0.15
2 -0.46
20 0.15
21 0.27
22 0.15
23 0.15
24 0.15
25 0.15
3 0.03
4 0.64
5 -0.18
7 -0.15
8 0.23
9 0.23

>  <PUBCHEM_EFFECTIVE_ROTOR_COUNT>  (1) 
2

>  <PUBCHEM_PHARMACOPHORE_FEATURES>  (1) 
5
1 3 cation
1 3 donor
5 1 2 4 8 9 rings
5 3 5 6 7 10 rings
6 6 7 11 12 13 14 rings

>  <PUBCHEM_HEAVY_ATOM_COUNT>  (1) 
14

>  <PUBCHEM_ATOM_DEF_STEREO_COUNT>  (1) 
0

>  <PUBCHEM_ATOM_UDEF_STEREO_COUNT>  (1) 
0

>  <PUBCHEM_BOND_DEF_STEREO_COUNT>  (1) 
0

>  <PUBCHEM_BOND_UDEF_STEREO_COUNT>  (1) 
0

>  <PUBCHEM_ISOTOPIC_ATOM_COUNT>  (1) 
0

>  <PUBCHEM_COMPONENT_COUNT>  (1) 
1

>  <PUBCHEM_CACTVS_TAUTO_COUNT>  (1) 
1

>  <PUBCHEM_CONFORMER_ID>  (1) 
000091F600000001

>  <PUBCHEM_MMFF94_ENERGY>  (1) 
20.5022

>  <PUBCHEM_FEATURE_SELFOVERLAP>  (1) 
25.463

>  <PUBCHEM_SHAPE_FINGERPRINT>  (1) 
10130415 120 18335419058294537080
10219947 1 18412266142305441994
11471102 20 18407758153173937876
11578080 2 17630013067276020585
12032990 46 18334862688357724034
12236239 1 17846499244758000299
124424 183 17894909641848019971
13296908 3 18040720276796007587
13581323 91 16487256582069209863
13705890 14 16732984202462387034
14115302 16 17531260455975114903
14144814 61 18272371979484675763
14251717 144 18411697698941383470
14252887 29 18272660021566868590
14576447 43 18128242570777696407
14993402 34 18202565098401644343
15219456 202 17895196648684611337
15375358 24 18113334232244084842
15375462 189 18344145886368671459
15653759 3 17095243644150135483
16945 1 18409449223843601556
17844478 74 17749109984984335413
18186145 218 17385443202429620699
200 152 18273208721082247127
20201158 50 18186802473925604691
20279233 1 17748826327969195923
20645477 70 18408600344668815718
20871998 22 18198912409426977478
21267235 1 18340776974177903638
22094290 60 15502375625689533847
2255824 54 18269837673933998292
232386 152 16917062308801602135
23402539 116 18339917134884258030
23402655 69 18411412891449749093
23559900 14 17313384513834623434
2748010 2 18266170631099117316
474 4 17842545525277569672
581208 293 18412259562679171784
74978 22 18269837673960177079
77492 1 17846501456433997203
81228 2 18042967567015903292
84936 182 17699846520831244985
8809292 202 17894919554590594715

>  <PUBCHEM_SHAPE_MULTIPOLES>  (1) 
290.83
7.3
1.56
1.06
2.27
0.27
-0.03
-1.42
-0.03
-1.12
0.04
1.2
-0.15
-0.29

>  <PUBCHEM_SHAPE_SELFOVERLAP>  (1) 
606.082

>  <PUBCHEM_SHAPE_VOLUME>  (1) 
167.6

>  <PUBCHEM_COORDINATE_TYPE>  (1) 
2
5
10

$$$$
