37373
     RDKit          3D

 22 24  0  0  1  0  0  0  0  0999 V2000
    1.8941   -0.5250   -2.2137 F   0  0  0  0  0  0  0  0  0  0  0  0
   -1.4266   -2.5915    0.5921 O   0  0  0  0  0  0  0  0  0  0  0  0
   -3.8278   -1.5673   -0.3533 O   0  0  0  0  0  0  0  0  0  0  0  0
    0.2334    3.3185    0.6564 N   0  0  0  0  0  0  0  0  0  0  0  0
    0.5874    1.8877    0.5973 C   0  0  0  0  0  0  0  0  0  0  0  0
   -0.5984    0.9736    0.3489 C   0  0  0  0  0  0  0  0  0  0  0  0
   -1.8143    1.4874   -0.1382 C   0  0  0  0  0  0  0  0  0  0  0  0
   -1.9871    2.9683   -0.3534 C   0  0  0  0  0  0  0  0  0  0  0  0
   -0.6526    3.7061   -0.4424 C   0  0  0  0  0  0  0  0  0  0  0  0
    1.7008    1.6583   -0.4316 C   0  0  0  0  0  0  0  0  0  0  0  0
   -0.4852   -0.4046    0.5887 C   0  0  0  0  0  0  0  0  0  0  0  0
   -2.8942    0.6225   -0.3639 C   0  0  0  0  0  0  0  0  0  0  0  0
    2.4882    0.4187   -0.1187 C   0  0  0  0  0  0  0  0  0  0  0  0
   -1.5626   -1.2580    0.3514 C   0  0  0  0  0  0  0  0  0  0  0  0
   -2.7659   -0.7448   -0.1247 C   0  0  0  0  0  0  0  0  0  0  0  0
    2.5402   -0.6177   -1.0432 C   0  0  0  0  0  0  0  0  0  0  0  0
    3.1573    0.3210    1.0957 C   0  0  0  0  0  0  0  0  0  0  0  0
    3.2718   -1.7684   -0.7493 C   0  0  0  0  0  0  0  0  0  0  0  0
    3.8889   -0.8297    1.3897 C   0  0  0  0  0  0  0  0  0  0  0  0
    3.9461   -1.8744    0.4672 C   0  0  0  0  0  0  0  0  0  0  0  0
   -0.9642   -3.4014   -0.4869 C   0  0  0  0  0  0  0  0  0  0  0  0
   -4.7292   -1.7794    0.7319 C   0  0  0  0  0  0  0  0  0  0  0  0
  1 16  1  0
  2 14  1  0
  2 21  1  0
  3 15  1  0
  3 22  1  0
  4  5  1  0
  4  9  1  0
  5  6  1  0
  5 10  1  0
  6  7  2  0
  6 11  1  0
  7  8  1  0
  7 12  1  0
  8  9  1  0
 10 13  1  0
 11 14  2  0
 12 15  2  0
 13 16  2  0
 13 17  1  0
 14 15  1  0
 16 18  1  0
 17 19  2  0
 18 20  2  0
 19 20  1  0
M  END
>  <PUBCHEM_COMPOUND_CID>  (1) 
37373

>  <PUBCHEM_CONFORMER_RMSD>  (1) 
0.8

>  <PUBCHEM_CONFORMER_DIVERSEORDER>  (1) 
4
27
5
30
17
1
29
24
18
21
26
15
14
28
10
11
19
16
20
12
6
13
25
9
7
3
22
8
23
2

>  <PUBCHEM_MMFF94_PARTIAL_CHARGES>  (1) 
29
1 -0.19
10 0.14
11 -0.15
12 -0.15
13 -0.14
14 0.08
15 0.08
16 0.19
17 -0.15
18 -0.15
19 -0.15
2 -0.36
20 -0.15
21 0.28
22 0.28
28 0.36
3 -0.36
31 0.15
32 0.15
33 0.15
34 0.15
35 0.15
36 0.15
4 -0.9
5 0.41
6 -0.14
7 -0.14
8 0.14
9 0.27

>  <PUBCHEM_EFFECTIVE_ROTOR_COUNT>  (1) 
4.8

>  <PUBCHEM_PHARMACOPHORE_FEATURES>  (1) 
7
1 2 acceptor
1 3 acceptor
1 4 cation
1 4 donor
6 13 16 17 18 19 20 rings
6 4 5 6 7 8 9 rings
6 6 7 11 12 14 15 rings

>  <PUBCHEM_HEAVY_ATOM_COUNT>  (1) 
22

>  <PUBCHEM_ATOM_DEF_STEREO_COUNT>  (1) 
0

>  <PUBCHEM_ATOM_UDEF_STEREO_COUNT>  (1) 
1

>  <PUBCHEM_BOND_DEF_STEREO_COUNT>  (1) 
0

>  <PUBCHEM_BOND_UDEF_STEREO_COUNT>  (1) 
0

>  <PUBCHEM_ISOTOPIC_ATOM_COUNT>  (1) 
0

>  <PUBCHEM_COMPONENT_COUNT>  (1) 
1

>  <PUBCHEM_CACTVS_TAUTO_COUNT>  (1) 
1

>  <PUBCHEM_CONFORMER_ID>  (1) 
000091FD00000004

>  <PUBCHEM_MMFF94_ENERGY>  (1) 
76.3631

>  <PUBCHEM_FEATURE_SELFOVERLAP>  (1) 
35.546

>  <PUBCHEM_SHAPE_FINGERPRINT>  (1) 
10967382 1 18194119844151797721
1100329 8 16323437788925142137
11370993 70 17907001890668734426
11578080 2 17097461307954772948
11582403 64 16255528815974499048
116883 192 18411419513898909621
12363563 72 18410014350997327891
12422481 6 18126873533336405123
12553582 1 18339923847659568518
12788726 201 18335146388222316336
13140716 1 18340771442471211673
138480 1 15528265430604156553
14022347 108 18265922269893231151
14178342 30 18056487157516143776
14790565 3 18123194502679283281
15042514 8 18264491685354557089
15885798 251 18409733980185765707
16752209 62 18262516966375330082
16945 1 18193843630415514333
1813 80 18339654429178173625
19591789 44 18410295766530519521
20510252 161 18269832034557536448
20905425 154 18053102817723909422
21452121 199 18336259136913509288
23184049 29 18409446977454548880
2334 1 18411422825508728833
23419403 2 17559647634349070329
23557571 272 18200588077911225680
23559900 14 18054219939661240282
2748010 2 18337093662408085213
314173 41 18192721256697634971
34934 24 18122343742275659392
59755656 215 18049721819847903647
7364860 26 17979918533668680129
81228 2 18339936938693682161
9709674 26 18127966404628080300

>  <PUBCHEM_SHAPE_MULTIPOLES>  (1) 
428.76
6.92
4.07
1.14
0.78
1.61
-0.23
-4.87
0.99
-2.49
-0.18
0.88
-0.19
0.53

>  <PUBCHEM_SHAPE_SELFOVERLAP>  (1) 
922.846

>  <PUBCHEM_SHAPE_VOLUME>  (1) 
238.3

>  <PUBCHEM_COORDINATE_TYPE>  (1) 
2
5
10

$$$$
