37371
     RDKit          3D

 22 24  0  0  1  0  0  0  0  0999 V2000
   -4.9134   -2.6783    0.7379 F   0  0  0  0  0  0  0  0  0  0  0  0
    3.2166   -2.4199    0.1511 O   0  0  0  0  0  0  0  0  0  0  0  0
    5.0012   -0.3347   -0.2693 O   0  0  0  0  0  0  0  0  0  0  0  0
   -0.8600    2.1392    0.6843 N   0  0  0  0  0  0  0  0  0  0  0  0
   -0.5456    0.7280    0.3915 C   0  0  0  0  0  0  0  0  0  0  0  0
    0.9375    0.4537    0.2234 C   0  0  0  0  0  0  0  0  0  0  0  0
    1.8441    1.5066    0.0023 C   0  0  0  0  0  0  0  0  0  0  0  0
    1.3703    2.9366    0.0025 C   0  0  0  0  0  0  0  0  0  0  0  0
   -0.1388    3.0531   -0.2032 C   0  0  0  0  0  0  0  0  0  0  0  0
   -1.3484    0.2456   -0.8225 C   0  0  0  0  0  0  0  0  0  0  0  0
    1.4177   -0.8645    0.2698 C   0  0  0  0  0  0  0  0  0  0  0  0
    3.2088    1.2277   -0.1554 C   0  0  0  0  0  0  0  0  0  0  0  0
   -2.7874    0.0061   -0.4672 C   0  0  0  0  0  0  0  0  0  0  0  0
    2.7763   -1.1321    0.1018 C   0  0  0  0  0  0  0  0  0  0  0  0
    3.6708   -0.0869   -0.1109 C   0  0  0  0  0  0  0  0  0  0  0  0
   -3.1850   -1.2488   -0.0218 C   0  0  0  0  0  0  0  0  0  0  0  0
   -3.7063    1.0416   -0.5871 C   0  0  0  0  0  0  0  0  0  0  0  0
   -4.5218   -1.4716    0.3085 C   0  0  0  0  0  0  0  0  0  0  0  0
   -5.0431    0.8187   -0.2569 C   0  0  0  0  0  0  0  0  0  0  0  0
   -5.4508   -0.4378    0.1910 C   0  0  0  0  0  0  0  0  0  0  0  0
    3.2529   -3.1397   -1.0795 C   0  0  0  0  0  0  0  0  0  0  0  0
    5.8043   -0.3426    0.9096 C   0  0  0  0  0  0  0  0  0  0  0  0
  1 18  1  0
  2 14  1  0
  2 21  1  0
  3 15  1  0
  3 22  1  0
  4  5  1  0
  4  9  1  0
  5  6  1  0
  5 10  1  0
  6  7  2  0
  6 11  1  0
  7  8  1  0
  7 12  1  0
  8  9  1  0
 10 13  1  0
 11 14  2  0
 12 15  2  0
 13 16  2  0
 13 17  1  0
 14 15  1  0
 16 18  1  0
 17 19  2  0
 18 20  2  0
 19 20  1  0
M  END
>  <PUBCHEM_COMPOUND_CID>  (1) 
37371

>  <PUBCHEM_CONFORMER_RMSD>  (1) 
0.8

>  <PUBCHEM_CONFORMER_DIVERSEORDER>  (1) 
1
8
23
17
10
27
18
5
9
3
24
25
16
11
29
26
22
15
4
2
6
21
12
28
7
19
13
14
20

>  <PUBCHEM_MMFF94_PARTIAL_CHARGES>  (1) 
29
1 -0.19
10 0.14
11 -0.15
12 -0.15
13 -0.14
14 0.08
15 0.08
16 -0.15
17 -0.15
18 0.19
19 -0.15
2 -0.36
20 -0.15
21 0.28
22 0.28
28 0.36
3 -0.36
31 0.15
32 0.15
33 0.15
34 0.15
35 0.15
36 0.15
4 -0.9
5 0.41
6 -0.14
7 -0.14
8 0.14
9 0.27

>  <PUBCHEM_EFFECTIVE_ROTOR_COUNT>  (1) 
4.8

>  <PUBCHEM_PHARMACOPHORE_FEATURES>  (1) 
7
1 2 acceptor
1 3 acceptor
1 4 cation
1 4 donor
6 13 16 17 18 19 20 rings
6 4 5 6 7 8 9 rings
6 6 7 11 12 14 15 rings

>  <PUBCHEM_HEAVY_ATOM_COUNT>  (1) 
22

>  <PUBCHEM_ATOM_DEF_STEREO_COUNT>  (1) 
0

>  <PUBCHEM_ATOM_UDEF_STEREO_COUNT>  (1) 
1

>  <PUBCHEM_BOND_DEF_STEREO_COUNT>  (1) 
0

>  <PUBCHEM_BOND_UDEF_STEREO_COUNT>  (1) 
0

>  <PUBCHEM_ISOTOPIC_ATOM_COUNT>  (1) 
0

>  <PUBCHEM_COMPONENT_COUNT>  (1) 
1

>  <PUBCHEM_CACTVS_TAUTO_COUNT>  (1) 
1

>  <PUBCHEM_CONFORMER_ID>  (1) 
000091FB00000001

>  <PUBCHEM_MMFF94_ENERGY>  (1) 
76.39

>  <PUBCHEM_FEATURE_SELFOVERLAP>  (1) 
35.546

>  <PUBCHEM_SHAPE_FINGERPRINT>  (1) 
108634 29 18114191868816178578
10906281 52 18263098707407082248
11045515 52 18040434352202186220
11552529 35 17914340336669461315
11963148 33 18408878543261453154
12107183 9 18198072370164753425
12166972 35 17603868888949844220
12236239 1 17775566442082292985
12553582 1 18342162371945756222
12596602 18 16558464296479343419
12623949 98 18122084236764348663
13140716 1 18125711525454758146
13402501 40 18334858341714066859
13544653 18 18335427850330033591
13740256 8 18335984250352872505
14341114 176 18410018771215124649
14790565 3 17689157133553575908
14863182 85 18413113849276709230
14866123 147 17620759380021468403
15196674 1 18336827592983056733
15352361 1 18410573959402752879
15927050 60 17621317266610030348
17492 89 18123467177373096606
18785283 64 18117837930914899908
200 152 18412260631841425760
20645477 70 18409729568827110662
21033650 10 16879921729459834028
21065198 57 18410012178487681061
21250096 35 18342173354097913057
21267235 1 18411425002930326492
21279426 13 18122059811152948189
221357 26 18335415781951921389
221490 88 18263085568801190073
2215653 11 18410847738599916391
22950370 63 18410297990758777541
23402539 116 18335976511043221192
23557571 272 17676200252123383853
23559900 14 18409721885705890881
26918003 58 18410288108070742873
3004659 81 18186520990812347670
314173 41 18408324367313144543
314194 84 18201714067896213655
3323516 105 18261391195570811441
335352 9 18409727349263124253
3421961 26 18412261778481824712
4214541 1 18408321095170602653
46194498 28 17749110032176527541
5104073 3 18340207500696707153
59755656 215 18411139091986090062
7495541 125 18188209904669976468
77779 3 18335702775845640749
8863177 126 17897175834582898635

>  <PUBCHEM_SHAPE_MULTIPOLES>  (1) 
428.76
11.87
3.12
0.82
4.37
0
0.04
-6.29
-1.15
-1
0.24
-0.13
-0.17
0.95

>  <PUBCHEM_SHAPE_SELFOVERLAP>  (1) 
920.597

>  <PUBCHEM_SHAPE_VOLUME>  (1) 
239.2

>  <PUBCHEM_COORDINATE_TYPE>  (1) 
2
5
10

$$$$
