37383
     RDKit          3D

 25 28  0  0  0  0  0  0  0  0999 V2000
    0.5608   -0.1395   -2.7354 O   0  0  0  0  0  0  0  0  0  0  0  0
   -5.3457   -0.5043    0.0461 O   0  0  0  0  0  0  0  0  0  0  0  0
   -4.3250    0.5488   -1.6906 O   0  0  0  0  0  0  0  0  0  0  0  0
   -1.4455   -0.0234   -1.5315 N   0  0  0  0  0  0  0  0  0  0  0  0
    0.5847   -0.0185   -0.2434 C   0  0  0  0  0  0  0  0  0  0  0  0
   -0.6784    0.0488    0.6157 C   0  0  0  0  0  0  0  0  0  0  0  0
   -0.0578   -0.0714   -1.6824 C   0  0  0  0  0  0  0  0  0  0  0  0
   -1.8119    0.0429   -0.1957 C   0  0  0  0  0  0  0  0  0  0  0  0
    1.4319    1.2030   -0.1139 C   0  0  0  0  0  0  0  0  0  0  0  0
    1.3777   -1.2584    0.0017 C   0  0  0  0  0  0  0  0  0  0  0  0
   -0.8189    0.0945    1.9955 C   0  0  0  0  0  0  0  0  0  0  0  0
   -3.0965    0.0901    0.3105 C   0  0  0  0  0  0  0  0  0  0  0  0
    2.5384    1.3748   -0.9452 C   0  0  0  0  0  0  0  0  0  0  0  0
    2.4693   -1.2274    0.8691 C   0  0  0  0  0  0  0  0  0  0  0  0
    1.1164    2.1723    0.8379 C   0  0  0  0  0  0  0  0  0  0  0  0
    1.0265   -2.4479   -0.6363 C   0  0  0  0  0  0  0  0  0  0  0  0
   -2.1090    0.1428    2.5335 C   0  0  0  0  0  0  0  0  0  0  0  0
   -3.2384    0.1415    1.6973 C   0  0  0  0  0  0  0  0  0  0  0  0
    3.3304    2.5167   -0.8244 C   0  0  0  0  0  0  0  0  0  0  0  0
    3.2105   -2.3865    1.0986 C   0  0  0  0  0  0  0  0  0  0  0  0
    1.9083    3.3142    0.9585 C   0  0  0  0  0  0  0  0  0  0  0  0
    1.7677   -3.6070   -0.4066 C   0  0  0  0  0  0  0  0  0  0  0  0
   -4.2706    0.0838   -0.5471 C   0  0  0  0  0  0  0  0  0  0  0  0
    3.0153    3.4864    0.1273 C   0  0  0  0  0  0  0  0  0  0  0  0
    2.8598   -3.5762    0.4608 C   0  0  0  0  0  0  0  0  0  0  0  0
  1  7  2  0
  2 23  1  0
  3 23  2  0
  4  7  1  0
  4  8  1  0
  5  6  1  0
  5  7  1  0
  5  9  1  0
  5 10  1  0
  6  8  2  0
  6 11  1  0
  8 12  1  0
  9 13  2  0
  9 15  1  0
 10 14  2  0
 10 16  1  0
 11 17  2  0
 12 18  2  0
 12 23  1  0
 13 19  1  0
 14 20  1  0
 15 21  2  0
 16 22  2  0
 17 18  1  0
 19 24  2  0
 20 25  2  0
 21 24  1  0
 22 25  1  0
M  END
>  <PUBCHEM_COMPOUND_CID>  (1) 
37383

>  <PUBCHEM_CONFORMER_RMSD>  (1) 
0.6

>  <PUBCHEM_CONFORMER_DIVERSEORDER>  (1) 
1
3
2
4

>  <PUBCHEM_MMFF94_PARTIAL_CHARGES>  (1) 
40
1 -0.57
10 -0.14
11 -0.15
12 0.09
13 -0.15
14 -0.15
15 -0.15
16 -0.15
17 -0.15
18 -0.15
19 -0.15
2 -0.65
20 -0.15
21 -0.15
22 -0.15
23 0.63
24 -0.15
25 -0.15
26 0.37
27 0.15
28 0.15
29 0.15
3 -0.57
30 0.15
31 0.15
32 0.15
33 0.15
34 0.15
35 0.15
36 0.15
37 0.15
38 0.15
39 0.15
4 -0.55
40 0.5
5 0.49
6 -0.14
7 0.57
8 0.12
9 -0.14

>  <PUBCHEM_EFFECTIVE_ROTOR_COUNT>  (1) 
3.4

>  <PUBCHEM_PHARMACOPHORE_FEATURES>  (1) 
9
1 1 acceptor
1 2 acceptor
1 3 acceptor
1 4 donor
3 2 3 23 anion
5 4 5 6 7 8 rings
6 10 14 16 20 22 25 rings
6 6 8 11 12 17 18 rings
6 9 13 15 19 21 24 rings

>  <PUBCHEM_HEAVY_ATOM_COUNT>  (1) 
25

>  <PUBCHEM_ATOM_DEF_STEREO_COUNT>  (1) 
0

>  <PUBCHEM_ATOM_UDEF_STEREO_COUNT>  (1) 
0

>  <PUBCHEM_BOND_DEF_STEREO_COUNT>  (1) 
0

>  <PUBCHEM_BOND_UDEF_STEREO_COUNT>  (1) 
0

>  <PUBCHEM_ISOTOPIC_ATOM_COUNT>  (1) 
0

>  <PUBCHEM_COMPONENT_COUNT>  (1) 
1

>  <PUBCHEM_CACTVS_TAUTO_COUNT>  (1) 
3

>  <PUBCHEM_CONFORMER_ID>  (1) 
0000920700000001

>  <PUBCHEM_MMFF94_ENERGY>  (1) 
95.5287

>  <PUBCHEM_FEATURE_SELFOVERLAP>  (1) 
45.816

>  <PUBCHEM_SHAPE_FINGERPRINT>  (1) 
10165383 225 17828798309973292876
10863032 1 18337666550625367347
1100329 8 18339921623610632426
11578080 2 17605585225999753121
11582403 64 16307325974912469853
12293681 4 17615952331916944757
12549972 3 17604727577102661913
12553582 1 18051714156092050914
12592029 89 18339921627124715697
12730499 353 18337399361005152673
12788726 201 17181089925675496634
13004483 165 17691109445107436659
13009979 54 16556810493451565846
13134695 92 18264206919978872468
133893 2 18339941341077377960
13544653 18 18044944463131670330
13583140 156 18338521957892266387
13681431 1 18263371287258232626
14840074 17 18265028342140366944
14955137 171 18411976958500959682
15219462 58 18048073815305999249
16945 1 18341618096246172665
17349148 13 17346309363457787719
17876694 64 17773873104039156249
17980427 23 17416675856845982321
1813 80 17985553251894041790
18915476 22 18334022708702828563
19765921 60 17771333459680618321
21524375 3 17915189124484434716
22182313 1 17168441436357773579
229495 10 18339622508791677125
23419403 2 17678431135630654868
23526113 38 17896318013132473938
23559900 14 18338506465829484219
266924 78 18123157286401548414
35225 105 17470752351471853088
3729539 64 17971226731996558494
3797600 57 17630333166956504663
394222 165 17988363779443999875
404807 78 17180225117385719583
4340502 62 18196663002136857899
44802255 64 16594549242328247894
463206 1 17606678020547261739
495365 180 18334850662333445673
5845 1 17832155926299910246
5895379 119 17557718958068798201
59755656 520 17981344583402176692
633830 44 17842310152210736432
6442390 28 17976823408293448638
7615 1 17988088794474279105
81228 2 17326334321046607490
8272917 22 18411421704569509929
84936 31 18334577957964627742

>  <PUBCHEM_SHAPE_MULTIPOLES>  (1) 
491.9
6.75
3.89
1.94
8.59
0.63
-0.04
-0.39
-0.21
-7.1
0.48
1.05
-0.11
-0.49

>  <PUBCHEM_SHAPE_SELFOVERLAP>  (1) 
1115.048

>  <PUBCHEM_SHAPE_VOLUME>  (1) 
256.8

>  <PUBCHEM_COORDINATE_TYPE>  (1) 
2
5
10

$$$$
