37398
     RDKit          3D

 12 12  0  0  0  0  0  0  0  0999 V2000
   -4.6260   -0.1876   -0.5302 Cl  0  0  0  0  0  0  0  0  0  0  0  0
    3.2629   -0.1241   -0.2207 N   0  0  0  0  0  0  0  0  0  0  0  0
    1.0659    0.1508    0.7324 N   0  0  0  0  0  0  0  0  0  0  0  0
   -0.9022   -1.0873    0.5613 N   0  0  0  0  0  0  0  0  0  0  0  0
    4.0300   -0.4185   -1.4228 C   0  0  0  0  0  0  0  0  0  0  0  0
    4.0075    0.3860    0.9219 C   0  0  0  0  0  0  0  0  0  0  0  0
    1.8800   -0.0954   -0.2458 C   0  0  0  0  0  0  0  0  0  0  0  0
   -0.3034    0.1128    0.4191 C   0  0  0  0  0  0  0  0  0  0  0  0
   -0.9422    1.2630   -0.0035 C   0  0  0  0  0  0  0  0  0  0  0  0
   -2.2973    1.1757   -0.3026 C   0  0  0  0  0  0  0  0  0  0  0  0
   -2.9557   -0.0418   -0.1703 C   0  0  0  0  0  0  0  0  0  0  0  0
   -2.2196   -1.1335    0.2612 C   0  0  0  0  0  0  0  0  0  0  0  0
  1 11  1  0
  2  5  1  0
  2  6  1  0
  2  7  1  0
  3  7  2  0
  3  8  1  0
  4  8  2  0
  4 12  1  0
  8  9  1  0
  9 10  2  0
 10 11  1  0
 11 12  2  0
M  END
>  <PUBCHEM_COMPOUND_CID>  (1) 
37398

>  <PUBCHEM_CONFORMER_RMSD>  (1) 
0.6

>  <PUBCHEM_CONFORMER_DIVERSEORDER>  (1) 
1
3
2
4

>  <PUBCHEM_MMFF94_PARTIAL_CHARGES>  (1) 
16
1 -0.18
10 -0.15
11 0.18
12 0.16
19 0.06
2 -0.79
20 0.15
21 0.15
22 0.15
3 -0.63
4 -0.62
5 0.37
6 0.37
7 0.44
8 0.49
9 -0.15

>  <PUBCHEM_EFFECTIVE_ROTOR_COUNT>  (1) 
2

>  <PUBCHEM_PHARMACOPHORE_FEATURES>  (1) 
3
3 2 3 7 cation
3 3 4 8 cation
6 4 8 9 10 11 12 rings

>  <PUBCHEM_HEAVY_ATOM_COUNT>  (1) 
12

>  <PUBCHEM_ATOM_DEF_STEREO_COUNT>  (1) 
0

>  <PUBCHEM_ATOM_UDEF_STEREO_COUNT>  (1) 
0

>  <PUBCHEM_BOND_DEF_STEREO_COUNT>  (1) 
0

>  <PUBCHEM_BOND_UDEF_STEREO_COUNT>  (1) 
0

>  <PUBCHEM_ISOTOPIC_ATOM_COUNT>  (1) 
0

>  <PUBCHEM_COMPONENT_COUNT>  (1) 
1

>  <PUBCHEM_CACTVS_TAUTO_COUNT>  (1) 
1

>  <PUBCHEM_CONFORMER_ID>  (1) 
0000921600000001

>  <PUBCHEM_MMFF94_ENERGY>  (1) 
28.6112

>  <PUBCHEM_FEATURE_SELFOVERLAP>  (1) 
15.308

>  <PUBCHEM_SHAPE_FINGERPRINT>  (1) 
11062470 55 16988842791296351985
12032990 46 18339645641701635195
13296908 3 17703792496664774628
14911166 2 18334568062787083279
14943859 89 15213018262956774225
14993402 34 17748829617950866637
15775835 57 16443069408635062990
18186145 218 18200878379124798928
200 152 16702302334367429742
20201158 50 18273498965838980710
20279233 1 18202002140333080826
20645476 183 17313390062304960099
20645477 70 17203614748826593006
21119208 17 17821449057940461406
21293036 1 18260263049459285453
22485316 2 16988558013442357015
22926399 37 16225774029301836677
23048698 100 15936410031219170152
23402539 116 18337096921950230861
23557571 272 18343026553609678156
23559900 14 18410574003127840426
265663 24 15502370128073385841
2748010 2 17973718375199415897

>  <PUBCHEM_SHAPE_MULTIPOLES>  (1) 
233.88
8.39
1.09
0.97
2.9
0.1
-0.14
-0.82
-1.85
-0.51
0.01
0.79
-0.09
0.62

>  <PUBCHEM_SHAPE_SELFOVERLAP>  (1) 
464.473

>  <PUBCHEM_SHAPE_VOLUME>  (1) 
140.4

>  <PUBCHEM_COORDINATE_TYPE>  (1) 
2
5
10

$$$$
