37400
     RDKit          3D

 24 26  0  0  1  0  0  0  0  0999 V2000
    0.9984   -0.5785    1.2885 O   0  0  0  0  0  0  0  0  0  0  0  0
   -0.7124   -0.3372   -0.5365 O   0  0  0  0  0  0  0  0  0  0  0  0
    0.8096   -0.7606   -2.2146 O   0  0  0  0  0  0  0  0  0  0  0  0
   -5.3160    0.1867    0.9438 N   0  0  0  0  0  0  0  0  0  0  0  0
    2.7348   -1.2571   -0.1721 C   0  0  0  0  0  0  0  0  0  0  0  0
    2.2603   -2.7068   -0.1795 C   0  0  0  0  0  0  0  0  0  0  0  0
    3.7553   -1.2545    0.9618 C   0  0  0  0  0  0  0  0  0  0  0  0
    1.6084   -0.2594    0.0340 C   0  0  0  0  0  0  0  0  0  0  0  0
    3.5342   -3.5117    0.0555 C   0  0  0  0  0  0  0  0  0  0  0  0
    4.4922   -2.5806    0.8008 C   0  0  0  0  0  0  0  0  0  0  0  0
    2.0158    1.2064    0.1011 C   0  0  0  0  0  0  0  0  0  0  0  0
    0.5532   -0.4860   -1.0485 C   0  0  0  0  0  0  0  0  0  0  0  0
    1.9646    1.9653   -1.0496 C   0  0  0  0  0  0  0  0  0  0  0  0
    2.4229    1.7299    1.3108 C   0  0  0  0  0  0  0  0  0  0  0  0
   -1.7797   -0.5209   -1.4486 C   0  0  0  0  0  0  0  0  0  0  0  0
   -3.0877   -0.3269   -0.7450 C   0  0  0  0  0  0  0  0  0  0  0  0
   -3.3814   -1.2463    0.4132 C   0  0  0  0  0  0  0  0  0  0  0  0
   -4.8490   -1.2015    0.8644 C   0  0  0  0  0  0  0  0  0  0  0  0
    2.3374    3.3081   -0.9882 C   0  0  0  0  0  0  0  0  0  0  0  0
    2.7956    3.0727    1.3723 C   0  0  0  0  0  0  0  0  0  0  0  0
   -5.2716    0.8271   -0.3812 C   0  0  0  0  0  0  0  0  0  0  0  0
   -3.9748    0.6131   -1.1116 C   0  0  0  0  0  0  0  0  0  0  0  0
    2.7528    3.8617    0.2226 C   0  0  0  0  0  0  0  0  0  0  0  0
   -6.6630    0.2571    1.5064 C   0  0  0  0  0  0  0  0  0  0  0  0
  1  8  1  0
  2 12  1  0
  2 15  1  0
  3 12  2  0
  4 18  1  0
  4 21  1  0
  4 24  1  0
  5  6  1  0
  5  7  1  0
  5  8  1  0
  6  9  1  0
  7 10  1  0
  8 11  1  0
  8 12  1  0
  9 10  1  0
 11 13  2  0
 11 14  1  0
 13 19  1  0
 14 20  2  0
 15 16  1  0
 16 17  1  0
 16 22  2  0
 17 18  1  0
 19 23  2  0
 20 23  1  0
 21 22  1  0
M  END
>  <PUBCHEM_COMPOUND_CID>  (1) 
37400

>  <PUBCHEM_CONFORMER_RMSD>  (1) 
0.8

>  <PUBCHEM_CONFORMER_DIVERSEORDER>  (1) 
2
318
382
367
199
224
284
100
201
189
370
334
180
376
274
152
163
270
378
249
449
416
211
404
33
300
338
222
392
360
294
357
438
89
371
393
428
354
350
424
247
145
29
288
304
374
291
106
339
355
447
253
336
408
427
260
88
22
351
320
175
292
92
325
420
373
99
346
384
429
310
71
130
31
285
365
440
91
3
315
246
178
330
134
381
16
209
26
442
119
243
79
395
241
242
333
396
83
210
279
388
265
413
236
362
277
221
411
446
65
326
128
430
307
172
159
261
183
129
342
256
78
98
314
359
402
353
441
400
329
220
115
169
368
218
275
108
331
321
13
202
386
34
379
101
375
283
87
232
176
118
391
364
46
432
11
212
422
337
439
323
258
207
425
305
347
36
138
208
200
230
289
240
226
443
160
433
181
57
182
120
431
280
397
114
40
23
237
259
179
25
141
97
73
389
149
147
324
437
27
146
271
60
165
229
56
95
61
80
302
317
49
188
24
32
53
358
72
225
162
192
154
415
290
328
151
45
309
59
372
155
74
282
228
380
142
90
164
187
227
233
63
213
281
193
295
116
414
272
313
5
185
287
363
196
223
37
257
444
319
18
198
103
312
102
254
197
410
30
332
121
140
38
173
143
10
322
168
299
109
132
255
235
297
113
340
234
54
361
1
70
273
84
17
86
68
366
52
171
205
35
387
93
348
231
377
435
174
341
112
42
167
406
448
127
412
64
343
123
419
301
195
170
20
356
266
344
417
144
76
186
104
124
383
434
111
296
47
293
28
148
308
436
250
248
215
268
122
131
407
156
43
206
238
69
58
157
349
264
219
450
421
352
117
125
81
96
158
216
286
399
9
394
133
306
345
445
298
85
303
139
15
190
335
269
48
403
451
136
385
107
278
244
276
135
327
153
21
418
75
94
126
217
191
66
150
405
316
4
50
67
203
161
398
426
245
194
137
44
39
263
311
62
214
267
390
423
204
51
14
6
105
82
251
401
184
262
12
177
252
77
55
239
369
166
110
8
7
409
19
41

>  <PUBCHEM_MMFF94_PARTIAL_CHARGES>  (1) 
26
1 -0.68
11 -0.14
12 0.66
13 -0.15
14 -0.15
15 0.42
16 -0.28
17 0.14
18 0.27
19 -0.15
2 -0.43
20 -0.15
21 0.41
22 -0.29
23 -0.15
24 0.27
3 -0.57
34 0.4
35 0.15
36 0.15
4 -0.81
45 0.15
46 0.15
47 0.15
48 0.15
8 0.48

>  <PUBCHEM_EFFECTIVE_ROTOR_COUNT>  (1) 
7.8

>  <PUBCHEM_PHARMACOPHORE_FEATURES>  (1) 
7
1 1 acceptor
1 1 donor
1 3 acceptor
1 4 cation
5 5 6 7 9 10 rings
6 11 13 14 19 20 23 rings
6 4 16 17 18 21 22 rings

>  <PUBCHEM_HEAVY_ATOM_COUNT>  (1) 
24

>  <PUBCHEM_ATOM_DEF_STEREO_COUNT>  (1) 
0

>  <PUBCHEM_ATOM_UDEF_STEREO_COUNT>  (1) 
1

>  <PUBCHEM_BOND_DEF_STEREO_COUNT>  (1) 
0

>  <PUBCHEM_BOND_UDEF_STEREO_COUNT>  (1) 
0

>  <PUBCHEM_ISOTOPIC_ATOM_COUNT>  (1) 
0

>  <PUBCHEM_COMPONENT_COUNT>  (1) 
1

>  <PUBCHEM_CACTVS_TAUTO_COUNT>  (1) 
1

>  <PUBCHEM_CONFORMER_ID>  (1) 
0000921800000002

>  <PUBCHEM_MMFF94_ENERGY>  (1) 
56.115

>  <PUBCHEM_FEATURE_SELFOVERLAP>  (1) 
35.522

>  <PUBCHEM_SHAPE_FINGERPRINT>  (1) 
10498660 4 16844738667541956673
11370993 144 18334860511457995707
11405975 8 18411139139093333283
11545043 162 17749389209777880613
12035758 1 18115851019462043064
12616971 3 17988924458087676335
12633257 1 18201999911261080079
12788726 201 17830727656870395810
12930653 34 17976539742984241426
13134695 92 18341036429252667116
13533116 47 18335145297875882851
13583140 156 18263071146607160519
13590594 115 18267302032511374288
13673619 4 17822861866190194487
13878862 14 18339062836352243085
13899415 154 18411423878461349870
13955234 65 18409168843761668432
14341114 176 18409731725217275771
14466204 15 18052253995205571897
14739800 52 17559946787432283457
14849402 71 18337393846093701184
14950920 106 18339095830390718291
14955137 171 18342745070412453966
151778 21 18341053012021182815
15348495 7 18334303067874311243
15475509 84 18270967817242649713
15842332 3 17845074341838801215
16992787 43 18410298026110357804
17868525 174 18338795590053382025
1813 80 18129385895614811262
18785283 64 18262512706247768306
20721686 146 14404889289911184690
21033648 29 17822556245408356637
21041028 32 18268421352707478980
21049683 271 18260839181089318884
21065198 57 18408602561441373151
21120745 212 17838073511472189862
21756936 100 17690560106201003044
21864079 5 17489313039941633897
22849341 161 18201441316203841774
23559900 14 17821449049957130135
249057 25 17846777387452064689
25147074 1 17845638374329715887
3380486 145 17765386000261005926
3421961 26 18408038494379561042
394222 165 17987239013556365818
4409770 3 17326604805012617076
44802255 64 11165651202314264082
5104073 3 18339653321483138059
56616090 278 18341624766431026332
57724786 102 18272657848571879849
58260988 587 17823719618525061436
5895379 119 15554183513699072776
621550 5 17896037629256759566
6442390 28 17832431173710905926
6823239 73 16588032303017027463
7495541 125 18187366506247863710
79837 15 17616237522609669378
960060 61 7853576795009032395
9841814 1 18340773654447745950

>  <PUBCHEM_SHAPE_MULTIPOLES>  (1) 
471.32
11.76
4.04
1.53
22.99
1.9
0.16
-2.04
-4.86
-8.32
-0.44
0.47
0.29
0.13

>  <PUBCHEM_SHAPE_SELFOVERLAP>  (1) 
995.139

>  <PUBCHEM_SHAPE_VOLUME>  (1) 
264.1

>  <PUBCHEM_COORDINATE_TYPE>  (1) 
2
5
10

$$$$
