37408
     RDKit          3D

 13 13  0  0  1  0  0  0  0  0999 V2000
   -3.0036    2.7780   -0.6141 Cl  0  0  0  0  0  0  0  0  0  0  0  0
   -1.1539    0.3066   -0.3752 O   0  0  0  0  0  0  0  0  0  0  0  0
   -1.5512   -1.8493    0.4700 O   0  0  0  0  0  0  0  0  0  0  0  0
   -0.6374   -1.0311   -0.2790 C   0  0  0  0  0  0  0  0  0  0  0  0
    0.7033   -0.9831    0.4430 C   0  0  0  0  0  0  0  0  0  0  0  0
   -2.5111    0.2026    0.0638 C   0  0  0  0  0  0  0  0  0  0  0  0
    1.6859   -0.0928   -0.2989 C   0  0  0  0  0  0  0  0  0  0  0  0
   -2.4584   -0.9225    1.0686 C   0  0  0  0  0  0  0  0  0  0  0  0
   -0.4928   -1.6176   -1.6776 C   0  0  0  0  0  0  0  0  0  0  0  0
    3.0168   -0.0242    0.4498 C   0  0  0  0  0  0  0  0  0  0  0  0
   -2.9864    1.5192    0.6398 C   0  0  0  0  0  0  0  0  0  0  0  0
    4.0347    0.8366   -0.2985 C   0  0  0  0  0  0  0  0  0  0  0  0
    5.3542    0.8774    0.4081 C   0  0  0  0  0  0  0  0  0  0  0  0
  1 11  1  0
  2  4  1  0
  2  6  1  0
  3  4  1  0
  3  8  1  0
  4  5  1  0
  4  9  1  0
  5  7  1  0
  6  8  1  0
  6 11  1  0
  7 10  1  0
 10 12  1  0
 12 13  1  0
M  END
>  <PUBCHEM_COMPOUND_CID>  (1) 
37408

>  <PUBCHEM_CONFORMER_RMSD>  (1) 
0.6

>  <PUBCHEM_CONFORMER_DIVERSEORDER>  (1) 
4
143
124
167
77
128
145
163
29
138
133
63
134
144
34
22
66
154
150
64
121
151
146
73
141
114
142
135
164
126
49
37
127
165
14
61
160
94
140
155
53
130
47
110
32
8
115
182
132
149
72
23
147
21
65
118
19
123
98
153
68
55
174
131
12
71
92
7
113
171
6
83
170
46
88
119
168
67
82
159
125
93
120
137
78
52
101
179
176
2
173
136
100
169
51
157
25
57
81
122
54
5
50
112
26
91
10
17
162
40
139
97
44
90
41
158
18
117
95
9
156
48
86
109
20
177
111
30
59
58
76
84
175
1
181
42
70
43
161
45
96
178
3
104
105
87
180
172
129
13
56
116
39
107
62
152
36
99
85
183
148
16
102
35
24
31
28
60
103
33
38
80
75
11
106
74
69
166
27
89
15
108
79

>  <PUBCHEM_MMFF94_PARTIAL_CHARGES>  (1) 
7
1 -0.29
11 0.29
2 -0.56
3 -0.56
4 0.56
6 0.28
8 0.28

>  <PUBCHEM_EFFECTIVE_ROTOR_COUNT>  (1) 
6

>  <PUBCHEM_PHARMACOPHORE_FEATURES>  (1) 
5
1 13 hydrophobe
1 2 acceptor
1 3 acceptor
4 5 7 10 12 hydrophobe
5 2 3 4 6 8 rings

>  <PUBCHEM_HEAVY_ATOM_COUNT>  (1) 
13

>  <PUBCHEM_ATOM_DEF_STEREO_COUNT>  (1) 
0

>  <PUBCHEM_ATOM_UDEF_STEREO_COUNT>  (1) 
2

>  <PUBCHEM_BOND_DEF_STEREO_COUNT>  (1) 
0

>  <PUBCHEM_BOND_UDEF_STEREO_COUNT>  (1) 
0

>  <PUBCHEM_ISOTOPIC_ATOM_COUNT>  (1) 
0

>  <PUBCHEM_COMPONENT_COUNT>  (1) 
1

>  <PUBCHEM_CACTVS_TAUTO_COUNT>  (1) 
1

>  <PUBCHEM_CONFORMER_ID>  (1) 
0000922000000004

>  <PUBCHEM_MMFF94_ENERGY>  (1) 
19.4529

>  <PUBCHEM_FEATURE_SELFOVERLAP>  (1) 
25.412

>  <PUBCHEM_SHAPE_FINGERPRINT>  (1) 
10014705 185 17917704756044661240
11046707 91 8718824293132305928
11543360 7 11887947766299453594
122479 349 18337671923349996716
12500047 106 17846492669400512134
12932764 1 17917144018010115754
13024252 1 17894904191714310891
13214271 11 18335138730337948878
14123255 52 18336262341006364032
14251710 61 9222937188902334832
15061688 2 17970621892794965045
15279308 16 18411427176315712003
1741750 31 18341613676920185960
17834072 32 18336828567804061061
18186145 218 17131558340363110146
19107657 162 11314301746535996168
20645477 56 17988364875029892848
20645477 70 16845307012274677366
21061003 4 13262686945173689495
21524375 3 18269828723195461221
22485316 2 10375882853153460768
23402539 116 18339358677931144407
23403322 49 9151173142893979448
23500284 214 18340211799526290841
23559900 14 16773802528773386330
27216 239 18408044026218570617
4175511 318 17917433167776541940
6430166 295 18411980239713412376

>  <PUBCHEM_SHAPE_MULTIPOLES>  (1) 
257.67
7.94
2.22
1.07
11.66
0.95
-0.25
5.64
1.27
-2.43
-0.45
-0.41
-0.34
0.46

>  <PUBCHEM_SHAPE_SELFOVERLAP>  (1) 
488.074

>  <PUBCHEM_SHAPE_VOLUME>  (1) 
161.1

>  <PUBCHEM_COORDINATE_TYPE>  (1) 
2
5
10

$$$$
