37404
     RDKit          3D

 12 12  0  0  0  0  0  0  0  0999 V2000
    4.2246   -0.3640   -0.5343 Cl  0  0  0  0  0  0  0  0  0  0  0  0
   -1.5164    0.0089    0.6469 O   0  0  0  0  0  0  0  0  0  0  0  0
   -3.6612    0.4701   -1.0662 O   0  0  0  0  0  0  0  0  0  0  0  0
    0.5703    1.0958    0.1875 C   0  0  0  0  0  0  0  0  0  0  0  0
   -0.1834   -0.0630    0.3743 C   0  0  0  0  0  0  0  0  0  0  0  0
   -2.3298   -1.0708    0.1925 C   0  0  0  0  0  0  0  0  0  0  0  0
    0.4258   -1.3142    0.2800 C   0  0  0  0  0  0  0  0  0  0  0  0
    1.9335    1.0034   -0.0937 C   0  0  0  0  0  0  0  0  0  0  0  0
   -0.0660    2.4430    0.2839 C   0  0  0  0  0  0  0  0  0  0  0  0
    1.7889   -1.4066   -0.0011 C   0  0  0  0  0  0  0  0  0  0  0  0
    2.5428   -0.2479   -0.1880 C   0  0  0  0  0  0  0  0  0  0  0  0
   -3.7292   -0.5546   -0.0820 C   0  0  0  0  0  0  0  0  0  0  0  0
  1 11  1  0
  2  5  1  0
  2  6  1  0
  3 12  1  0
  4  5  2  0
  4  8  1  0
  4  9  1  0
  5  7  1  0
  6 12  1  0
  7 10  2  0
  8 11  2  0
 10 11  1  0
M  END
>  <PUBCHEM_COMPOUND_CID>  (1) 
37404

>  <PUBCHEM_CONFORMER_RMSD>  (1) 
0.6

>  <PUBCHEM_CONFORMER_DIVERSEORDER>  (1) 
3
12
15
10
11
7
1
14
6
9
5
8
2
13
4

>  <PUBCHEM_MMFF94_PARTIAL_CHARGES>  (1) 
16
1 -0.18
10 -0.15
11 0.18
12 0.28
15 0.15
16 0.15
2 -0.36
22 0.15
23 0.4
3 -0.68
4 -0.14
5 0.08
6 0.28
7 -0.15
8 -0.15
9 0.14

>  <PUBCHEM_EFFECTIVE_ROTOR_COUNT>  (1) 
3

>  <PUBCHEM_PHARMACOPHORE_FEATURES>  (1) 
4
1 2 acceptor
1 3 acceptor
1 3 donor
6 4 5 7 8 10 11 rings

>  <PUBCHEM_HEAVY_ATOM_COUNT>  (1) 
12

>  <PUBCHEM_ATOM_DEF_STEREO_COUNT>  (1) 
0

>  <PUBCHEM_ATOM_UDEF_STEREO_COUNT>  (1) 
0

>  <PUBCHEM_BOND_DEF_STEREO_COUNT>  (1) 
0

>  <PUBCHEM_BOND_UDEF_STEREO_COUNT>  (1) 
0

>  <PUBCHEM_ISOTOPIC_ATOM_COUNT>  (1) 
0

>  <PUBCHEM_COMPONENT_COUNT>  (1) 
1

>  <PUBCHEM_CACTVS_TAUTO_COUNT>  (1) 
1

>  <PUBCHEM_CONFORMER_ID>  (1) 
0000921C00000003

>  <PUBCHEM_MMFF94_ENERGY>  (1) 
33.1354

>  <PUBCHEM_FEATURE_SELFOVERLAP>  (1) 
20.301

>  <PUBCHEM_SHAPE_FINGERPRINT>  (1) 
10219947 1 18272938245079061478
11206711 2 18336559204987936148
11401426 45 18411133654208911170
12032990 46 18339934791463306306
12654215 9 18335974337441830733
14911166 2 18409454699858436294
14993402 34 18202283614829847758
15757776 16 18412823581794970430
16945 1 18337967722369550874
193761 8 17834118546049899882
20201158 50 18407760326364345899
21293036 1 18408045125882984158
21501502 16 18122348969588488338
221490 88 18050010188136789595
22926399 65 17894905183877864117
23402539 116 18342734113982127486
23402655 69 18337662028362447685
23559900 14 18411143571926610228
25 1 18187922846694833867
2748010 2 18051143771966393458
3071541 158 18260832656332824212
528886 8 18411416228375606866
63268167 104 18340774856816782849

>  <PUBCHEM_SHAPE_MULTIPOLES>  (1) 
237.09
6.13
1.79
0.76
1.6
0.95
0.07
-1.54
1.83
-0.15
-0.18
0.22
0.03
0.19

>  <PUBCHEM_SHAPE_SELFOVERLAP>  (1) 
474.273

>  <PUBCHEM_SHAPE_VOLUME>  (1) 
142

>  <PUBCHEM_COORDINATE_TYPE>  (1) 
2
5
10

$$$$
