37406
     RDKit          3D

 24 25  0  0  1  0  0  0  0  0999 V2000
   -2.2724   -3.4813   -1.6136 Cl  0  0  0  0  0  0  0  0  0  0  0  0
    0.1109   -4.4803   -0.3113 Cl  0  0  0  0  0  0  0  0  0  0  0  0
   -2.0796   -3.4163    1.2820 Cl  0  0  0  0  0  0  0  0  0  0  0  0
   -3.9704    2.6655   -0.2959 O   0  0  0  0  0  0  0  0  0  0  0  0
    4.9435    1.6936    0.2985 O   0  0  0  0  0  0  0  0  0  0  0  0
    0.5255   -1.6579    0.7162 N   0  0  0  0  0  0  0  0  0  0  0  0
   -0.4894   -1.7743   -0.3355 C   0  0  0  0  0  0  0  0  0  0  0  0
   -1.4097   -0.6011   -0.3251 C   0  0  0  0  0  0  0  0  0  0  0  0
   -1.1442   -3.1936   -0.2329 C   0  0  0  0  0  0  0  0  0  0  0  0
    1.6167   -0.8303    0.6126 C   0  0  0  0  0  0  0  0  0  0  0  0
   -1.7700   -0.0086    0.8852 C   0  0  0  0  0  0  0  0  0  0  0  0
   -1.9096   -0.0958   -1.5252 C   0  0  0  0  0  0  0  0  0  0  0  0
   -2.6304    1.0894    0.8953 C   0  0  0  0  0  0  0  0  0  0  0  0
   -2.7698    1.0022   -1.5151 C   0  0  0  0  0  0  0  0  0  0  0  0
   -3.1302    1.5948   -0.3048 C   0  0  0  0  0  0  0  0  0  0  0  0
    1.8267   -0.0313   -0.5346 C   0  0  0  0  0  0  0  0  0  0  0  0
    2.5734   -0.7441    1.6497 C   0  0  0  0  0  0  0  0  0  0  0  0
    3.8622    0.8734    0.4007 C   0  0  0  0  0  0  0  0  0  0  0  0
    2.9348    0.8093   -0.6392 C   0  0  0  0  0  0  0  0  0  0  0  0
    3.6815    0.0967    1.5452 C   0  0  0  0  0  0  0  0  0  0  0  0
   -4.8063    2.8255    0.8493 C   0  0  0  0  0  0  0  0  0  0  0  0
    5.4513    1.9385   -1.0121 C   0  0  0  0  0  0  0  0  0  0  0  0
   -6.0839    3.5231    0.4336 C   0  0  0  0  0  0  0  0  0  0  0  0
    6.9393    2.2029   -0.9230 C   0  0  0  0  0  0  0  0  0  0  0  0
  1  9  1  0
  2  9  1  0
  3  9  1  0
  4 15  1  0
  4 21  1  0
  5 18  1  0
  5 22  1  0
  6  7  1  0
  6 10  1  0
  7  8  1  0
  7  9  1  0
  8 11  2  0
  8 12  1  0
 10 16  2  0
 10 17  1  0
 11 13  1  0
 12 14  2  0
 13 15  2  0
 14 15  1  0
 16 19  1  0
 17 20  2  0
 18 19  2  0
 18 20  1  0
 21 23  1  0
 22 24  1  0
M  END
>  <PUBCHEM_COMPOUND_CID>  (1) 
37406

>  <PUBCHEM_CONFORMER_RMSD>  (1) 
0.8

>  <PUBCHEM_CONFORMER_DIVERSEORDER>  (1) 
1
41
39
27
29
46
44
35
17
31
25
28
37
8
24
15
47
30
45
42
16
7
11
36
12
5
32
18
6
22
26
38
40
33
43
34
19
21
9
10
3
20
4
14
13
2
23

>  <PUBCHEM_MMFF94_PARTIAL_CHARGES>  (1) 
31
1 -0.29
10 0.1
11 -0.15
12 -0.15
13 -0.15
14 -0.15
15 0.08
16 -0.15
17 -0.15
18 0.08
19 -0.15
2 -0.29
20 -0.15
21 0.28
22 0.28
26 0.4
27 0.15
28 0.15
29 0.15
3 -0.29
30 0.15
31 0.15
32 0.15
33 0.15
34 0.15
4 -0.36
5 -0.36
6 -0.87
7 0.51
8 -0.14
9 0.87

>  <PUBCHEM_EFFECTIVE_ROTOR_COUNT>  (1) 
8

>  <PUBCHEM_PHARMACOPHORE_FEATURES>  (1) 
6
1 4 acceptor
1 5 acceptor
1 6 cation
1 6 donor
6 10 16 17 18 19 20 rings
6 8 11 12 13 14 15 rings

>  <PUBCHEM_HEAVY_ATOM_COUNT>  (1) 
24

>  <PUBCHEM_ATOM_DEF_STEREO_COUNT>  (1) 
0

>  <PUBCHEM_ATOM_UDEF_STEREO_COUNT>  (1) 
1

>  <PUBCHEM_BOND_DEF_STEREO_COUNT>  (1) 
0

>  <PUBCHEM_BOND_UDEF_STEREO_COUNT>  (1) 
0

>  <PUBCHEM_ISOTOPIC_ATOM_COUNT>  (1) 
0

>  <PUBCHEM_COMPONENT_COUNT>  (1) 
1

>  <PUBCHEM_CACTVS_TAUTO_COUNT>  (1) 
1

>  <PUBCHEM_CONFORMER_ID>  (1) 
0000921E00000001

>  <PUBCHEM_MMFF94_ENERGY>  (1) 
83.9514

>  <PUBCHEM_FEATURE_SELFOVERLAP>  (1) 
30.446

>  <PUBCHEM_SHAPE_FINGERPRINT>  (1) 
11056379 131 18195247952152255318
11477941 20 17623289790280409052
12107183 9 18262789663335745522
12173636 292 18341037592967446351
12390115 104 18341621412246086617
12633257 1 15357992186715236296
12788726 201 18195231433444518135
12892183 10 15864345775307521800
13540713 5 18262782043689774498
13955234 65 17905896877462386611
14142880 1 18260827146147921487
14251764 75 18335704922892120904
14294032 229 18342745152174607371
14849402 71 17907303152201322187
14955137 171 17407679515633198895
15163728 17 18341899554132841164
15238133 3 18271794701990276232
15338160 23 18261402207856538985
15342168 16 18338232653085076261
15439362 3 18269559334699866054
15842332 3 18042660936869115938
16120349 67 18200326437236335056
17980427 23 17895203199274895613
18785283 64 18049157761745791371
21120745 212 17902802090952280055
21365058 113 17191516603237762415
21756936 100 18412545439860509676
2255824 54 17767680556195041535
22907989 373 18194665188981973910
23557571 272 18056486273296238686
23559900 14 18201716212061307818
23598288 3 18337381751175859978
25147074 1 18042103497479963498
270888 7 18410294679266042184
283562 15 18117834632243009690
3552219 110 17317338533351680079
3610482 184 18042986422665865844
4058900 60 18196384623568051353
474 4 18196365923422446705
5104073 3 17968083279655567912
5252454 2 18261383460435438176
57724786 102 18188770544421940688
59755656 520 18410011035435530572
6034566 193 18334851706443230173
633830 44 18199742540747854333
77188 2 17258781945554520583
7808743 9 18409450314749918808

>  <PUBCHEM_SHAPE_MULTIPOLES>  (1) 
482.8
11.76
5.17
1.5
12.6
3.94
0.01
-18.51
0.89
-6.52
0.36
0.07
0.36
-1.94

>  <PUBCHEM_SHAPE_SELFOVERLAP>  (1) 
975.134

>  <PUBCHEM_SHAPE_VOLUME>  (1) 
281.8

>  <PUBCHEM_COORDINATE_TYPE>  (1) 
2
5
10

$$$$
