37417
     RDKit          3D

 14 14  0  0  0  0  0  0  0  0999 V2000
    2.4999    0.0625   -0.1309 N   0  0  0  0  0  0  0  0  0  0  0  0
    3.7336    0.5471    0.1271 N   0  0  0  0  0  0  0  0  0  0  0  0
    6.0154    0.0732    0.1424 N   0  0  0  0  0  0  0  0  0  0  0  0
    4.6092   -1.6159   -0.4731 N   0  0  0  0  0  0  0  0  0  0  0  0
    0.0625    0.2254    0.0148 C   0  0  0  0  0  0  0  0  0  0  0  0
   -1.1126    1.1336    0.3860 C   0  0  0  0  0  0  0  0  0  0  0  0
    1.3962    0.9457    0.2064 C   0  0  0  0  0  0  0  0  0  0  0  0
   -2.4375    0.4491    0.1666 C   0  0  0  0  0  0  0  0  0  0  0  0
   -3.0679    0.5621   -1.0637 C   0  0  0  0  0  0  0  0  0  0  0  0
   -3.0058   -0.2828    1.1988 C   0  0  0  0  0  0  0  0  0  0  0  0
   -4.2941   -0.0710   -1.2666 C   0  0  0  0  0  0  0  0  0  0  0  0
   -4.2319   -0.9161    0.9959 C   0  0  0  0  0  0  0  0  0  0  0  0
   -4.8762   -0.8100   -0.2368 C   0  0  0  0  0  0  0  0  0  0  0  0
    4.7093   -0.3028   -0.0670 C   0  0  0  0  0  0  0  0  0  0  0  0
  1  2  1  0
  1  7  1  0
  2 14  2  3
  3 14  1  0
  4 14  1  0
  5  6  1  0
  5  7  1  0
  6  8  1  0
  8  9  2  0
  8 10  1  0
  9 11  1  0
 10 12  2  0
 11 13  2  0
 12 13  1  0
M  END
>  <PUBCHEM_COMPOUND_CID>  (1) 
37417

>  <PUBCHEM_CONFORMER_RMSD>  (1) 
0.6

>  <PUBCHEM_CONFORMER_DIVERSEORDER>  (1) 
1
103
14
75
41
94
11
101
93
91
98
9
73
61
96
5
82
86
36
90
10
81
65
22
99
55
59
34
57
48
89
97
84
92
17
85
71
19
4
102
24
83
46
25
100
33
28
20
66
18
69
44
95
8
51
23
60
26
54
29
63
21
2
64
16
3
50
37
35
30
45
76
74
40
79
49
27
13
56
80
43
88
68
42
58
77
15
39
78
53
70
72
52
12
47
6
7
32
31
62
67
38
87

>  <PUBCHEM_MMFF94_PARTIAL_CHARGES>  (1) 
23
1 -0.58
10 -0.15
11 -0.15
12 -0.15
13 -0.15
14 0.55
2 -0.5
21 0.15
22 0.15
23 0.36
24 0.15
25 0.15
26 0.15
27 0.4
28 0.4
29 0.4
3 -0.85
30 0.4
4 -0.85
6 0.14
7 0.27
8 -0.14
9 -0.15

>  <PUBCHEM_EFFECTIVE_ROTOR_COUNT>  (1) 
5

>  <PUBCHEM_PHARMACOPHORE_FEATURES>  (1) 
5
1 1 donor
1 3 donor
1 4 donor
4 2 3 4 14 cation
6 8 9 10 11 12 13 rings

>  <PUBCHEM_HEAVY_ATOM_COUNT>  (1) 
14

>  <PUBCHEM_ATOM_DEF_STEREO_COUNT>  (1) 
0

>  <PUBCHEM_ATOM_UDEF_STEREO_COUNT>  (1) 
0

>  <PUBCHEM_BOND_DEF_STEREO_COUNT>  (1) 
0

>  <PUBCHEM_BOND_UDEF_STEREO_COUNT>  (1) 
0

>  <PUBCHEM_ISOTOPIC_ATOM_COUNT>  (1) 
0

>  <PUBCHEM_COMPONENT_COUNT>  (1) 
1

>  <PUBCHEM_CACTVS_TAUTO_COUNT>  (1) 
2

>  <PUBCHEM_CONFORMER_ID>  (1) 
0000922900000001

>  <PUBCHEM_MMFF94_ENERGY>  (1) 
32.1003

>  <PUBCHEM_FEATURE_SELFOVERLAP>  (1) 
25.433

>  <PUBCHEM_SHAPE_FINGERPRINT>  (1) 
10014705 185 8502366711589217081
10803635 8 17458056071362177307
10912923 1 16702019798839713216
11089746 13 13695870350795338364
11287383 113 17894632591120400532
11315181 36 18040436598548780480
12596602 18 15913325801837575778
13214271 11 12175622876136389713
13690532 89 18341894099534852956
14123238 8 17561083614020282140
1420 363 18341617018784400758
14251718 22 17603587452168727360
14455015 7 18411706482165152698
15242439 84 17676483960293086277
17834072 33 15647058187355816830
17834076 25 12685090388700338208
17870717 6 17676492726701158515
19489759 90 16805600365196671772
200 152 18343862216938050481
20300324 65 16081087082621715309
20325693 3 16660362585029679793
20432913 95 18131636668640902026
20645477 70 18409731729971451782
20767249 213 8862944974787532651
20828058 44 15195567913696174021
23402539 116 18202846539103168449
23402655 69 14779535773504217261
23403322 49 18334858316334172427
23557571 272 17822007575725257381
23559900 14 17749386026527210261
23590187 198 17131836460247689310
300161 21 14490185029564123536
351380 3 17703790314800328542
42788 4 8502654809474063264
49783359 22 17060619984110014406
57265010 4 14620798219361998959
573450 72 16343985797374770371
5924683 9 12247380320627485621

>  <PUBCHEM_SHAPE_MULTIPOLES>  (1) 
268.19
13.44
1.1
1.02
15.87
0.16
0.07
4.04
1.93
-0.06
0
-1.07
0.05
0.89

>  <PUBCHEM_SHAPE_SELFOVERLAP>  (1) 
537.451

>  <PUBCHEM_SHAPE_VOLUME>  (1) 
155.4

>  <PUBCHEM_COORDINATE_TYPE>  (1) 
2
5
10

$$$$
