37419
     RDKit          3D

 21 21  0  0  1  0  0  0  0  0999 V2000
   -1.3942    0.1214    2.7699 S   0  0  0  0  0  0  0  0  0  0  0  0
   -1.2678   -0.4784    0.9079 P   0  0  0  0  0  0  0  0  0  0  0  0
    0.2506   -0.8449    0.4511 O   0  0  0  0  0  0  0  0  0  0  0  0
   -1.9462   -1.9486    0.6790 O   0  0  0  0  0  0  0  0  0  0  0  0
    3.9346   -2.1716   -0.6942 O   0  0  0  0  0  0  0  0  0  0  0  0
    1.8625   -2.6250   -0.1288 O   0  0  0  0  0  0  0  0  0  0  0  0
   -1.9073    0.4926   -0.2815 N   0  0  0  0  0  0  0  0  0  0  0  0
    2.7885   -1.8064   -0.3399 N   0  0  0  0  0  0  0  0  0  0  0  0
   -3.2760    0.9946   -0.1602 C   0  0  0  0  0  0  0  0  0  0  0  0
   -3.5215    2.1836   -1.1025 C   0  0  0  0  0  0  0  0  0  0  0  0
   -4.2471   -0.1431   -0.4725 C   0  0  0  0  0  0  0  0  0  0  0  0
   -2.6038    3.3709   -0.8394 C   0  0  0  0  0  0  0  0  0  0  0  0
    1.2742    0.0349    0.2187 C   0  0  0  0  0  0  0  0  0  0  0  0
   -1.7610   -2.6412   -0.5451 C   0  0  0  0  0  0  0  0  0  0  0  0
    2.5308   -0.4184   -0.1717 C   0  0  0  0  0  0  0  0  0  0  0  0
    1.0340    1.3965    0.3785 C   0  0  0  0  0  0  0  0  0  0  0  0
    2.0596    2.3129    0.1456 C   0  0  0  0  0  0  0  0  0  0  0  0
    3.5565    0.4979   -0.4044 C   0  0  0  0  0  0  0  0  0  0  0  0
    3.3208    1.8635   -0.2458 C   0  0  0  0  0  0  0  0  0  0  0  0
   -2.4945   -3.9638   -0.4790 C   0  0  0  0  0  0  0  0  0  0  0  0
    1.8073    3.7728    0.3145 C   0  0  0  0  0  0  0  0  0  0  0  0
  1  2  2  0
  2  3  1  0
  2  4  1  0
  2  7  1  0
  3 13  1  0
  4 14  1  0
  5  8  1  0
  6  8  2  0
  7  9  1  0
  8 15  1  0
  9 10  1  0
  9 11  1  0
 10 12  1  0
 13 15  2  0
 13 16  1  0
 14 20  1  0
 15 18  1  0
 16 17  2  0
 17 19  1  0
 17 21  1  0
 18 19  2  0
M  CHG  2   5  -1   8   1
M  END
>  <PUBCHEM_COMPOUND_CID>  (1) 
37419

>  <PUBCHEM_CONFORMER_RMSD>  (1) 
0.8

>  <PUBCHEM_CONFORMER_DIVERSEORDER>  (1) 
1
158
86
38
76
78
34
58
160
154
41
111
115
174
165
108
152
12
82
146
104
169
98
121
93
37
122
79
119
124
171
28
120
18
54
26
135
51
167
32
133
47
67
130
30
91
80
163
27
35
89
132
21
125
128
74
75
101
29
96
56
87
9
186
157
95
140
161
151
136
156
139
19
90
83
168
141
84
16
109
117
172
150
31
63
126
166
39
3
33
24
66
159
114
137
143
73
127
2
176
77
183
142
155
81
182
71
62
102
170
103
4
147
148
45
70
68
138
17
162
107
48
64
85
22
11
10
7
123
131
55
23
49
61
99
177
69
36
134
60
180
184
44
129
175
92
13
105
8
14
57
40
42
179
20
43
181
25
185
149
46
116
100
110
118
97
50
178
113
173
15
59
53
106
187
88
5
6
164
72
153
52
65
94
144
145
112

>  <PUBCHEM_MMFF94_PARTIAL_CHARGES>  (1) 
21
1 -0.68
13 0.08
14 0.28
15 0.13
16 -0.15
17 -0.14
18 -0.15
19 -0.15
2 1.49
21 0.14
25 0.36
3 -0.35
34 0.15
35 0.15
36 0.15
4 -0.55
5 -0.52
6 -0.52
7 -0.9
8 0.91
9 0.27

>  <PUBCHEM_EFFECTIVE_ROTOR_COUNT>  (1) 
8

>  <PUBCHEM_PHARMACOPHORE_FEATURES>  (1) 
5
1 12 hydrophobe
1 5 acceptor
1 5 anion
1 6 acceptor
6 13 15 16 17 18 19 rings

>  <PUBCHEM_HEAVY_ATOM_COUNT>  (1) 
21

>  <PUBCHEM_ATOM_DEF_STEREO_COUNT>  (1) 
0

>  <PUBCHEM_ATOM_UDEF_STEREO_COUNT>  (1) 
2

>  <PUBCHEM_BOND_DEF_STEREO_COUNT>  (1) 
0

>  <PUBCHEM_BOND_UDEF_STEREO_COUNT>  (1) 
0

>  <PUBCHEM_ISOTOPIC_ATOM_COUNT>  (1) 
0

>  <PUBCHEM_COMPONENT_COUNT>  (1) 
1

>  <PUBCHEM_CACTVS_TAUTO_COUNT>  (1) 
2

>  <PUBCHEM_CONFORMER_ID>  (1) 
0000922B00000001

>  <PUBCHEM_MMFF94_ENERGY>  (1) 
35.8053

>  <PUBCHEM_FEATURE_SELFOVERLAP>  (1) 
25.453

>  <PUBCHEM_SHAPE_FINGERPRINT>  (1) 
10608611 8 18336263539096517745
10756046 5 18341047505609716167
11578080 2 17415829443498687617
12553582 1 18052844467547439362
18186145 218 18270116791031529793
19930381 70 18266175024808372165
20344682 6 17690276436046903027
20775438 99 17551182606607396063
21524375 3 17968931977613843985
221357 26 18337667495629527293
22393880 68 18340774857381116580
23419403 2 16460283083907531281
23557571 272 17605563364721523547
23558518 356 18043242646653765905
23559900 14 18342451599412152672
2748010 2 18049169061741391624
2871803 45 17909830169140322558
3060560 45 18049142394515745637
3084891 72 17905885881739258554
350125 39 18052823842866181048
59554788 170 18408605860102798661
74978 22 18341620312586622930
81228 2 17823417274460306761
9709674 26 18411134766304689239

>  <PUBCHEM_SHAPE_MULTIPOLES>  (1) 
406.43
7.03
4.6
1.32
0.34
0.32
-1.19
-0.45
2.15
-1.2
1.47
-0.94
-0.18
0.99

>  <PUBCHEM_SHAPE_SELFOVERLAP>  (1) 
789.742

>  <PUBCHEM_SHAPE_VOLUME>  (1) 
248.9

>  <PUBCHEM_COORDINATE_TYPE>  (1) 
2
5
10

$$$$
