37422
     RDKit          3D

 29 33  0  0  1  0  0  0  0  0999 V2000
    3.2173    0.6017   -1.7649 O   0  0  0  0  0  0  0  0  0  0  0  0
   -1.3144    1.1589    0.1495 N   0  0  0  0  0  0  0  0  0  0  0  0
   -4.1135    0.7302   -0.1127 N   0  0  0  0  0  0  0  0  0  0  0  0
    0.9598    0.9005   -0.8912 C   0  0  0  0  0  0  0  0  0  0  0  0
    2.4043    0.4270   -0.5952 C   0  0  0  0  0  0  0  0  0  0  0  0
    2.9611    1.3285    0.5260 C   0  0  0  0  0  0  0  0  0  0  0  0
    0.0651    0.7150    0.3648 C   0  0  0  0  0  0  0  0  0  0  0  0
    2.1337    1.1904    1.8184 C   0  0  0  0  0  0  0  0  0  0  0  0
    1.0015    2.3471   -1.4431 C   0  0  0  0  0  0  0  0  0  0  0  0
    0.6240    1.3694    1.6374 C   0  0  0  0  0  0  0  0  0  0  0  0
    3.0436    2.7939    0.0438 C   0  0  0  0  0  0  0  0  0  0  0  0
    1.7541    3.3461   -0.5649 C   0  0  0  0  0  0  0  0  0  0  0  0
    2.4971   -1.0667   -0.2539 C   0  0  0  0  0  0  0  0  0  0  0  0
   -1.8723    0.5438   -1.0669 C   0  0  0  0  0  0  0  0  0  0  0  0
   -2.1459    0.8553    1.3263 C   0  0  0  0  0  0  0  0  0  0  0  0
    3.9195   -1.4872   -0.0241 C   0  0  0  0  0  0  0  0  0  0  0  0
   -3.3075    1.0240   -1.2984 C   0  0  0  0  0  0  0  0  0  0  0  0
   -3.5931    1.3253    1.1213 C   0  0  0  0  0  0  0  0  0  0  0  0
    4.6838   -1.9416   -1.0926 C   0  0  0  0  0  0  0  0  0  0  0  0
    4.4590   -1.4186    1.2552 C   0  0  0  0  0  0  0  0  0  0  0  0
   -5.0240   -0.3181   -0.0676 C   0  0  0  0  0  0  0  0  0  0  0  0
    6.0056   -2.3329   -0.8790 C   0  0  0  0  0  0  0  0  0  0  0  0
    5.7809   -1.8096    1.4689 C   0  0  0  0  0  0  0  0  0  0  0  0
    6.5541   -2.2668    0.4017 C   0  0  0  0  0  0  0  0  0  0  0  0
   -4.8203   -1.4890   -0.8249 C   0  0  0  0  0  0  0  0  0  0  0  0
   -6.1782   -0.2429    0.7372 C   0  0  0  0  0  0  0  0  0  0  0  0
   -5.7339   -2.5421   -0.7792 C   0  0  0  0  0  0  0  0  0  0  0  0
   -7.0918   -1.2961    0.7831 C   0  0  0  0  0  0  0  0  0  0  0  0
   -6.8696   -2.4456    0.0249 C   0  0  0  0  0  0  0  0  0  0  0  0
  1  5  1  0
  2  7  1  0
  2 14  1  0
  2 15  1  0
  3 17  1  0
  3 18  1  0
  3 21  1  0
  4  5  1  0
  4  7  1  0
  4  9  1  0
  5  6  1  0
  5 13  1  0
  6  8  1  0
  6 11  1  0
  7 10  1  0
  8 10  1  0
  9 12  1  0
 11 12  1  0
 13 16  1  0
 14 17  1  0
 15 18  1  0
 16 19  2  0
 16 20  1  0
 19 22  1  0
 20 23  2  0
 21 25  2  0
 21 26  1  0
 22 24  2  0
 23 24  1  0
 25 27  1  0
 26 28  2  0
 27 29  2  0
 28 29  1  0
M  END
>  <PUBCHEM_COMPOUND_CID>  (1) 
37422

>  <PUBCHEM_CONFORMER_RMSD>  (1) 
0.8

>  <PUBCHEM_CONFORMER_DIVERSEORDER>  (1) 
1
30
59
93
56
20
29
80
33
96
75
81
27
91
55
19
66
23
13
34
26
22
57
44
83
42
53
70
82
28
35
62
18
40
32
31
78
72
10
68
64
79
43
69
36
92
58
71
95
45
76
74
8
24
11
3
67
41
39
60
16
14
5
61
63
54
17
90
2
89
73
94
15
51
21
25
52
37
48
85
65
87
47
12
86
46
4
7
6
88
50
84
38
77
9
49

>  <PUBCHEM_MMFF94_PARTIAL_CHARGES>  (1) 
33
1 -0.68
13 0.14
14 0.27
15 0.27
16 -0.14
17 0.37
18 0.37
19 -0.15
2 -0.81
20 -0.15
21 0.1
22 -0.15
23 -0.15
24 -0.15
25 -0.15
26 -0.15
27 -0.15
28 -0.15
29 -0.15
3 -0.84
45 0.4
5 0.28
54 0.15
55 0.15
56 0.15
57 0.15
58 0.15
59 0.15
60 0.15
61 0.15
62 0.15
63 0.15
7 0.27

>  <PUBCHEM_EFFECTIVE_ROTOR_COUNT>  (1) 
6.6

>  <PUBCHEM_PHARMACOPHORE_FEATURES>  (1) 
9
1 1 acceptor
1 1 donor
1 2 cation
1 3 cation
6 16 19 20 22 23 24 rings
6 2 3 14 15 17 18 rings
6 21 25 26 27 28 29 rings
6 4 5 6 7 8 10 rings
6 4 5 6 9 11 12 rings

>  <PUBCHEM_HEAVY_ATOM_COUNT>  (1) 
29

>  <PUBCHEM_ATOM_DEF_STEREO_COUNT>  (1) 
0

>  <PUBCHEM_ATOM_UDEF_STEREO_COUNT>  (1) 
4

>  <PUBCHEM_BOND_DEF_STEREO_COUNT>  (1) 
0

>  <PUBCHEM_BOND_UDEF_STEREO_COUNT>  (1) 
0

>  <PUBCHEM_ISOTOPIC_ATOM_COUNT>  (1) 
0

>  <PUBCHEM_COMPONENT_COUNT>  (1) 
1

>  <PUBCHEM_CACTVS_TAUTO_COUNT>  (1) 
1

>  <PUBCHEM_CONFORMER_ID>  (1) 
0000922E00000001

>  <PUBCHEM_MMFF94_ENERGY>  (1) 
105.4532

>  <PUBCHEM_FEATURE_SELFOVERLAP>  (1) 
47.149

>  <PUBCHEM_SHAPE_FINGERPRINT>  (1) 
10 15 15195282027962292939
10190206 1 12901831554434722510
10319926 262 17489316243828714841
10670039 82 14851599943279662999
11135609 12 18341322370641989522
11135609 99 18202281420492157462
11796584 16 18267860588522814748
12107183 9 18197509437391545409
12120059 20 18339098063747909326
12120059 9 18121473809999733646
12166972 35 18411983567738067136
12422481 6 14908176430435274777
12633257 1 15482379932970417837
13009979 54 18201726115195674136
13533116 47 18339082704448616481
1361 4 18193276519324747963
13673619 4 18260267434694786973
13685833 64 18410575063304475530
13690498 29 17749385919643145197
13782708 43 18260265252688077899
14068700 675 18410856533875436361
14150023 79 18117280470509996588
14251740 57 18412258467114436234
14251751 18 18341609308996532939
14251764 30 18339641110511547238
14347332 77 18335420154149682789
14951699 99 10447934983698148227
15183329 4 14418138362075958034
15188451 53 18273491269774537911
15728490 51 18272085016146630094
16993427 108 17751060450420399114
17492 89 18410572911916529741
17980427 23 14117215274853396224
1813 80 18270124488050904348
18222031 100 18337112259684613450
18393751 57 17763730392810680336
1979834 28 15482683385226184845
19841028 212 18264764536591474647
20028762 73 18342739606744944662
20567600 247 18041276578309204282
20775438 99 17680143268245431955
21344244 181 17676491713537575979
21792934 111 16128385827113532257
22393880 68 17677036985194161277
23522609 53 18046381619287169877
23559900 14 18187649158419951969
249057 3 18335981953342350573
2747138 104 17917705761357302194
2748736 6 10591753281769368587
2838139 119 7853272238730600830
3004659 81 18201450211207641117
3383291 50 18341891896613406003
3886686 26 16981549511763436987
392239 28 14404891475616780306
4340502 62 18058443365407883880
439807 62 18408325497533439851
46194498 28 17822571715316255908
465052 167 18343866598100052838
474113 269 17845922023367298903
5104073 3 17632581556671581305
5718773 13 18334290950838398955
57527295 17 17313944100232780440
59682541 52 13695863689280113042
6608658 132 12107779688730431631
7970288 3 18266458702961718718
8863177 126 18260269680752088723

>  <PUBCHEM_SHAPE_MULTIPOLES>  (1) 
580.98
17.61
3.3
1.54
15.99
0.29
-0.17
-19.06
-1.67
-2.4
0.48
-0.75
0.29
-0.62

>  <PUBCHEM_SHAPE_SELFOVERLAP>  (1) 
1253.459

>  <PUBCHEM_SHAPE_VOLUME>  (1) 
314.8

>  <PUBCHEM_COORDINATE_TYPE>  (1) 
2
5
10

$$$$
