37428
     RDKit          3D

 19 19  0  0  0  0  0  0  0  0999 V2000
    2.9094    1.1177    0.0272 O   0  0  0  0  0  0  0  0  0  0  0  0
    0.5623    2.5995    0.1953 O   0  0  0  0  0  0  0  0  0  0  0  0
    2.5877   -1.6610   -0.0294 O   0  0  0  0  0  0  0  0  0  0  0  0
   -1.7211    1.4127   -0.9110 O   0  0  0  0  0  0  0  0  0  0  0  0
    0.9113   -3.7195    0.8542 O   0  0  0  0  0  0  0  0  0  0  0  0
    2.8902    2.3714    0.6990 C   0  0  0  0  0  0  0  0  0  0  0  0
    1.8204    3.2491    0.0782 C   0  0  0  0  0  0  0  0  0  0  0  0
    3.8968    0.2518    0.5692 C   0  0  0  0  0  0  0  0  0  0  0  0
    3.8692   -1.0636   -0.1850 C   0  0  0  0  0  0  0  0  0  0  0  0
   -0.4855    3.3901   -0.3528 C   0  0  0  0  0  0  0  0  0  0  0  0
   -1.7985    2.6468   -0.1989 C   0  0  0  0  0  0  0  0  0  0  0  0
    2.4972   -2.8903   -0.7359 C   0  0  0  0  0  0  0  0  0  0  0  0
   -2.4395    0.3672   -0.4183 C   0  0  0  0  0  0  0  0  0  0  0  0
    1.1137   -3.4771   -0.5327 C   0  0  0  0  0  0  0  0  0  0  0  0
   -3.6263    0.6018    0.2761 C   0  0  0  0  0  0  0  0  0  0  0  0
   -1.9888   -0.9393   -0.6075 C   0  0  0  0  0  0  0  0  0  0  0  0
   -4.3622   -0.4700    0.7816 C   0  0  0  0  0  0  0  0  0  0  0  0
   -2.7248   -2.0110   -0.1020 C   0  0  0  0  0  0  0  0  0  0  0  0
   -3.9115   -1.7763    0.5926 C   0  0  0  0  0  0  0  0  0  0  0  0
  1  6  1  0
  1  8  1  0
  2  7  1  0
  2 10  1  0
  3  9  1  0
  3 12  1  0
  4 11  1  0
  4 13  1  0
  5 14  1  0
  6  7  1  0
  8  9  1  0
 10 11  1  0
 12 14  1  0
 13 15  2  0
 13 16  1  0
 15 17  1  0
 16 18  2  0
 17 19  2  0
 18 19  1  0
M  END
>  <PUBCHEM_COMPOUND_CID>  (1) 
37428

>  <PUBCHEM_CONFORMER_RMSD>  (1) 
1

>  <PUBCHEM_CONFORMER_DIVERSEORDER>  (1) 
1
300
116
190
33
328
152
84
70
195
358
19
226
146
318
27
243
199
138
233
106
52
261
301
13
174
67
97
151
178
357
160
125
238
74
24
333
292
128
185
9
359
219
352
212
108
44
268
351
231
40
158
276
154
115
215
11
310
258
205
363
246
117
287
25
338
101
168
198
341
214
345
355
126
120
173
347
10
112
229
230
144
272
211
356
100
263
30
362
180
266
235
257
15
118
167
240
49
14
129
296
6
184
169
324
183
286
260
242
166
290
139
256
113
192
176
348
241
224
64
122
131
285
354
66
273
124
71
361
110
140
189
177
339
57
245
213
346
319
88
141
228
157
216
102
336
297
314
171
107
303
111
130
61
239
172
99
39
91
119
68
114
150
95
325
48
208
342
65
163
75
132
204
225
56
104
207
364
12
69
344
335
312
135
161
37
236
123
31
63
42
334
360
145
331
147
90
2
60
4
279
330
322
62
156
181
262
93
17
327
182
187
247
350
43
89
81
142
274
248
232
277
136
149
26
201
265
295
47
259
3
332
320
80
121
50
83
153
59
98
109
159
222
220
252
223
96
86
293
175
203
250
162
254
22
234
105
21
321
35
309
134
317
267
5
200
53
343
289
221
78
179
270
282
23
280
278
32
249
73
291
304
54
38
165
302
137
349
329
218
275
41
284
299
20
288
85
298
28
337
46
305
316
202
51
193
92
155
306
269
326
170
16
7
244
323
55
281
58
210
143
18
253
148
353
315
87
227
197
133
77
188
251
186
308
340
255
196
307
45
164
271
8
82
127
34
36
29
191
237
79
76
209
194
94
311
283
264
217
206
72
294
313
103

>  <PUBCHEM_MMFF94_PARTIAL_CHARGES>  (1) 
25
1 -0.56
10 0.28
11 0.28
12 0.28
13 0.08
14 0.28
15 -0.15
16 -0.15
17 -0.15
18 -0.15
19 -0.15
2 -0.56
3 -0.56
36 0.15
37 0.15
38 0.15
39 0.15
4 -0.36
40 0.15
41 0.4
5 -0.68
6 0.28
7 0.28
8 0.28
9 0.28

>  <PUBCHEM_EFFECTIVE_ROTOR_COUNT>  (1) 
12

>  <PUBCHEM_PHARMACOPHORE_FEATURES>  (1) 
7
1 1 acceptor
1 2 acceptor
1 3 acceptor
1 4 acceptor
1 5 acceptor
1 5 donor
6 13 15 16 17 18 19 rings

>  <PUBCHEM_HEAVY_ATOM_COUNT>  (1) 
19

>  <PUBCHEM_ATOM_DEF_STEREO_COUNT>  (1) 
0

>  <PUBCHEM_ATOM_UDEF_STEREO_COUNT>  (1) 
0

>  <PUBCHEM_BOND_DEF_STEREO_COUNT>  (1) 
0

>  <PUBCHEM_BOND_UDEF_STEREO_COUNT>  (1) 
0

>  <PUBCHEM_ISOTOPIC_ATOM_COUNT>  (1) 
0

>  <PUBCHEM_COMPONENT_COUNT>  (1) 
1

>  <PUBCHEM_CACTVS_TAUTO_COUNT>  (1) 
1

>  <PUBCHEM_CONFORMER_ID>  (1) 
0000923400000001

>  <PUBCHEM_MMFF94_ENERGY>  (1) 
47.5945

>  <PUBCHEM_FEATURE_SELFOVERLAP>  (1) 
35.539

>  <PUBCHEM_SHAPE_FINGERPRINT>  (1) 
117890 22 18411421725844224165
12038231 1 18194962065827120782
12539773 59 17560797749492277039
12553582 1 18411414007961878340
13122387 1 17114943288879004062
13402501 40 18409450306122716706
14251705 54 18411136909656991036
14251757 5 16900761718255769390
14916288 52 18124033421222867100
14940714 1 9268684564756323150
15006816 218 18339643438040410495
152267 14 18052243012621781766
19734167 9 17338138046369666848
19930381 70 18410011082727844659
20621476 13 18411128147818121413
20765182 20 17540002849174306635
5309563 4 18410575110723013563
532947 4 18410570721783707231
6433294 58 18267020549039265056
9795274 37 17974568001050438154

>  <PUBCHEM_SHAPE_MULTIPOLES>  (1) 
361.66
8.06
5.38
0.85
1.13
0.43
0.02
1.99
1.61
-3.13
-0.28
0.12
0.15
0.98

>  <PUBCHEM_SHAPE_SELFOVERLAP>  (1) 
708.462

>  <PUBCHEM_SHAPE_VOLUME>  (1) 
217.1

>  <PUBCHEM_COORDINATE_TYPE>  (1) 
2
5
10

$$$$
