37438
     RDKit          3D

 10 10  0  0  0  0  0  0  0  0999 V2000
    2.3990   -1.9315   -0.0001 Cl  0  0  0  0  0  0  0  0  0  0  0  0
    3.0404    1.2404    0.0001 Cl  0  0  0  0  0  0  0  0  0  0  0  0
   -2.5113   -0.6928    0.0000 O   0  0  0  0  0  0  0  0  0  0  0  0
   -1.2208   -0.2600   -0.0001 C   0  0  0  0  0  0  0  0  0  0  0  0
   -0.1750   -1.1831    0.0001 C   0  0  0  0  0  0  0  0  0  0  0  0
   -0.9441    1.1072   -0.0002 C   0  0  0  0  0  0  0  0  0  0  0  0
    1.1472   -0.7391    0.0001 C   0  0  0  0  0  0  0  0  0  0  0  0
    0.3781    1.5512    0.0000 C   0  0  0  0  0  0  0  0  0  0  0  0
    1.4238    0.6280    0.0000 C   0  0  0  0  0  0  0  0  0  0  0  0
   -3.5372    0.2797    0.0002 C   0  0  0  0  0  0  0  0  0  0  0  0
  1  7  1  0
  2  9  1  0
  3  4  1  0
  3 10  1  0
  4  5  2  0
  4  6  1  0
  5  7  1  0
  6  8  2  0
  7  9  2  0
  8  9  1  0
M  END
>  <PUBCHEM_COMPOUND_CID>  (1) 
37438

>  <PUBCHEM_CONFORMER_RMSD>  (1) 
0.4

>  <PUBCHEM_CONFORMER_DIVERSEORDER>  (1) 
1
2

>  <PUBCHEM_MMFF94_PARTIAL_CHARGES>  (1) 
13
1 -0.18
10 0.28
11 0.15
12 0.15
13 0.15
2 -0.18
3 -0.36
4 0.08
5 -0.15
6 -0.15
7 0.18
8 -0.15
9 0.18

>  <PUBCHEM_EFFECTIVE_ROTOR_COUNT>  (1) 
1

>  <PUBCHEM_PHARMACOPHORE_FEATURES>  (1) 
2
1 3 acceptor
6 4 5 6 7 8 9 rings

>  <PUBCHEM_HEAVY_ATOM_COUNT>  (1) 
10

>  <PUBCHEM_ATOM_DEF_STEREO_COUNT>  (1) 
0

>  <PUBCHEM_ATOM_UDEF_STEREO_COUNT>  (1) 
0

>  <PUBCHEM_BOND_DEF_STEREO_COUNT>  (1) 
0

>  <PUBCHEM_BOND_UDEF_STEREO_COUNT>  (1) 
0

>  <PUBCHEM_ISOTOPIC_ATOM_COUNT>  (1) 
0

>  <PUBCHEM_COMPONENT_COUNT>  (1) 
1

>  <PUBCHEM_CACTVS_TAUTO_COUNT>  (1) 
1

>  <PUBCHEM_CONFORMER_ID>  (1) 
0000923E00000001

>  <PUBCHEM_MMFF94_ENERGY>  (1) 
30.6439

>  <PUBCHEM_FEATURE_SELFOVERLAP>  (1) 
10.148

>  <PUBCHEM_SHAPE_FINGERPRINT>  (1) 
12932764 1 17489581299060933337
13380535 76 18336542836709360810
14128692 85 18267591208527580502
14325111 11 18410574002616267365
161256 15 18337391539532180804
16945 1 18338516455569863044
193761 8 18122344575605147584
20645476 183 17534919781602623804
20645477 70 18411695457617444631
20871998 22 18126851486768529902
21040471 1 18122343742149123748
21501502 16 18268433442718579304
23235685 24 18336822108251764960
23402655 69 18341035356080730885
23552423 10 18261959539913505054
241688 4 18120094987709987712
2748010 2 18337104545285306404
29004967 10 18261678155036136273
5084963 1 18200590276760336498
528862 383 18335132103256217138
528886 8 18339637957419560768
53812653 166 18271240637706797200
63268167 104 18412829088090503337
7364860 26 18343582915547113878

>  <PUBCHEM_SHAPE_MULTIPOLES>  (1) 
203.67
4.57
1.85
0.62
2.14
0.23
0
-0.04
0
-1.35
0
-0.04
0
0

>  <PUBCHEM_SHAPE_SELFOVERLAP>  (1) 
403.033

>  <PUBCHEM_SHAPE_VOLUME>  (1) 
124.3

>  <PUBCHEM_COORDINATE_TYPE>  (1) 
2
5
10

$$$$
