37432
     RDKit          3D

 16 17  0  0  1  0  0  0  0  0999 V2000
    1.3366   -1.9551    1.3687 O   0  0  0  0  0  0  0  0  0  0  0  0
    2.9762    2.3916    0.4229 O   0  0  0  0  0  0  0  0  0  0  0  0
    1.5918   -0.0651    0.0399 N   0  0  0  0  0  0  0  0  0  0  0  0
   -2.0178    0.7486    1.0678 C   0  0  0  0  0  0  0  0  0  0  0  0
   -2.6652    0.4120   -1.0384 C   0  0  0  0  0  0  0  0  0  0  0  0
   -0.8265   -0.0417    0.4692 C   0  0  0  0  0  0  0  0  0  0  0  0
   -1.2349   -0.1805   -1.0209 C   0  0  0  0  0  0  0  0  0  0  0  0
   -2.4859    1.6129   -0.1055 C   0  0  0  0  0  0  0  0  0  0  0  0
   -3.2073   -0.2184    1.2199 C   0  0  0  0  0  0  0  0  0  0  0  0
   -3.6554   -0.4447   -0.2310 C   0  0  0  0  0  0  0  0  0  0  0  0
    0.5007    0.6931    0.6334 C   0  0  0  0  0  0  0  0  0  0  0  0
   -1.1124   -1.6019   -1.5493 C   0  0  0  0  0  0  0  0  0  0  0  0
    2.3155    0.6131   -1.0337 C   0  0  0  0  0  0  0  0  0  0  0  0
    1.9245   -1.3523    0.4668 C   0  0  0  0  0  0  0  0  0  0  0  0
    3.4820    1.4114   -0.4738 C   0  0  0  0  0  0  0  0  0  0  0  0
    3.0781   -2.0231   -0.2361 C   0  0  0  0  0  0  0  0  0  0  0  0
  1 14  2  0
  2 15  1  0
  3 11  1  0
  3 13  1  0
  3 14  1  0
  4  6  1  0
  4  8  1  0
  4  9  1  0
  5  7  1  0
  5  8  1  0
  5 10  1  0
  6  7  1  0
  6 11  1  0
  7 12  1  0
  9 10  1  0
 13 15  1  0
 14 16  1  0
M  END
>  <PUBCHEM_COMPOUND_CID>  (1) 
37432

>  <PUBCHEM_CONFORMER_RMSD>  (1) 
0.8

>  <PUBCHEM_CONFORMER_DIVERSEORDER>  (1) 
1
68
63
16
53
62
49
61
21
60
59
51
54
38
55
39
43
19
48
58
4
64
65
27
20
57
23
40
18
7
13
42
32
52
46
5
22
35
67
9
50
12
34
25
31
47
30
11
66
44
24
36
2
29
33
41
14
37
17
3
10
69
45
56
6
28
15
8
26
70

>  <PUBCHEM_MMFF94_PARTIAL_CHARGES>  (1) 
9
1 -0.57
11 0.3
13 0.3
14 0.57
15 0.28
16 0.06
2 -0.68
3 -0.66
39 0.4

>  <PUBCHEM_EFFECTIVE_ROTOR_COUNT>  (1) 
6

>  <PUBCHEM_PHARMACOPHORE_FEATURES>  (1) 
4
1 1 acceptor
1 2 acceptor
1 2 donor
7 4 5 6 7 8 9 10 rings

>  <PUBCHEM_HEAVY_ATOM_COUNT>  (1) 
16

>  <PUBCHEM_ATOM_DEF_STEREO_COUNT>  (1) 
0

>  <PUBCHEM_ATOM_UDEF_STEREO_COUNT>  (1) 
4

>  <PUBCHEM_BOND_DEF_STEREO_COUNT>  (1) 
0

>  <PUBCHEM_BOND_UDEF_STEREO_COUNT>  (1) 
0

>  <PUBCHEM_ISOTOPIC_ATOM_COUNT>  (1) 
0

>  <PUBCHEM_COMPONENT_COUNT>  (1) 
1

>  <PUBCHEM_CACTVS_TAUTO_COUNT>  (1) 
1

>  <PUBCHEM_CONFORMER_ID>  (1) 
0000923800000001

>  <PUBCHEM_MMFF94_ENERGY>  (1) 
49.2738

>  <PUBCHEM_FEATURE_SELFOVERLAP>  (1) 
20.297

>  <PUBCHEM_SHAPE_FINGERPRINT>  (1) 
11031198 65 18261399978720993876
12932764 1 18131347518457504185
13024252 1 17168139092171803221
13538477 17 18130498716871282255
13581323 91 17202753817730759782
14144814 61 17989486307706569389
14289901 80 17895204323975909121
15219456 202 17821731619612424089
15279307 12 18272930565704131238
15309172 13 17917722296538110647
15310529 11 18408602556829771277
15375462 6 18333733507238298749
15775835 57 18341897415218054541
16945 1 18129651019413382305
1813 80 17912655605471883598
18186145 218 17749675086373435001
18981168 100 17168971301513501341
19422 9 18272094868110426315
19765921 60 18339357599503748832
20279233 1 16950281801913728675
204376 136 18116998995237522932
20645476 183 18201998845776589263
20645477 70 18410005503654978639
21486144 27 17458345200155050237
21524375 3 18263927807835632768
21730867 7 18040438793471831796
22854114 111 18409449202237045688
23419403 2 14457214670172163363
23557571 272 16805609187349609093
23559900 14 17313386699197497315
23598291 2 18269280075272333948
25 1 18337399330824661524
3286 77 17676487194572479794
4340502 62 18187366588347965355
474 4 18196371644319508504
6049 1 17676776361729778165
7364860 26 18412825759749214062
74978 22 18339357457458474479
77492 1 18202565055409649714
81228 2 17179688568336511122
90525 40 18059013882639616847
9981440 41 17194305454747849448

>  <PUBCHEM_SHAPE_MULTIPOLES>  (1) 
312.55
6.18
2.03
1.31
0.73
0.01
0.06
-0.91
0.13
1.97
-0.05
-0.45
0.32
-0.5

>  <PUBCHEM_SHAPE_SELFOVERLAP>  (1) 
639.497

>  <PUBCHEM_SHAPE_VOLUME>  (1) 
186.8

>  <PUBCHEM_COORDINATE_TYPE>  (1) 
2
5
10

$$$$
