37431
     RDKit          3D

 28 31  0  0  1  0  0  0  0  0999 V2000
   -0.6267   -1.4114    1.7963 O   0  0  0  0  0  0  0  0  0  0  0  0
   -4.6874    2.1539   -1.1029 O   0  0  0  0  0  0  0  0  0  0  0  0
    2.3044   -1.7851    2.0599 O   0  0  0  0  0  0  0  0  0  0  0  0
    1.9883   -1.2969   -0.2279 N   0  0  0  0  0  0  0  0  0  0  0  0
   -3.1353    0.7950    0.8583 N   0  0  0  0  0  0  0  0  0  0  0  0
    0.1578   -2.2291    0.9500 C   0  0  0  0  0  0  0  0  0  0  0  0
   -0.1825   -1.9538   -0.4865 C   0  0  0  0  0  0  0  0  0  0  0  0
    1.6238   -1.7603    1.0446 C   0  0  0  0  0  0  0  0  0  0  0  0
    0.9260   -1.4076   -1.1352 C   0  0  0  0  0  0  0  0  0  0  0  0
    0.0219   -3.6955    1.3339 C   0  0  0  0  0  0  0  0  0  0  0  0
   -2.7715    0.4917    2.2408 C   0  0  0  0  0  0  0  0  0  0  0  0
   -1.2941    0.7885    2.4767 C   0  0  0  0  0  0  0  0  0  0  0  0
   -0.4050   -0.0272    1.5478 C   0  0  0  0  0  0  0  0  0  0  0  0
    3.2918   -0.7729   -0.5608 C   0  0  0  0  0  0  0  0  0  0  0  0
   -2.9255    2.2194    0.5639 C   0  0  0  0  0  0  0  0  0  0  0  0
   -4.5332    0.4269    0.5938 C   0  0  0  0  0  0  0  0  0  0  0  0
   -1.3695   -2.1629   -1.1682 C   0  0  0  0  0  0  0  0  0  0  0  0
    0.8885   -1.0572   -2.4740 C   0  0  0  0  0  0  0  0  0  0  0  0
   -3.3237    2.5145   -0.8793 C   0  0  0  0  0  0  0  0  0  0  0  0
   -4.8927    0.7635   -0.8505 C   0  0  0  0  0  0  0  0  0  0  0  0
   -1.4254   -1.8154   -2.5203 C   0  0  0  0  0  0  0  0  0  0  0  0
    3.3721    0.7111   -0.3466 C   0  0  0  0  0  0  0  0  0  0  0  0
   -0.3053   -1.2673   -3.1677 C   0  0  0  0  0  0  0  0  0  0  0  0
    3.0441    1.5743   -1.3854 C   0  0  0  0  0  0  0  0  0  0  0  0
    3.7731    1.2069    0.8885 C   0  0  0  0  0  0  0  0  0  0  0  0
    3.1186    2.9529   -1.1865 C   0  0  0  0  0  0  0  0  0  0  0  0
    3.8474    2.5855    1.0874 C   0  0  0  0  0  0  0  0  0  0  0  0
    3.5201    3.4585    0.0498 C   0  0  0  0  0  0  0  0  0  0  0  0
  1  6  1  0
  1 13  1  0
  2 19  1  0
  2 20  1  0
  3  8  2  0
  4  8  1  0
  4  9  1  0
  4 14  1  0
  5 11  1  0
  5 15  1  0
  5 16  1  0
  6  7  1  0
  6  8  1  0
  6 10  1  0
  7  9  2  0
  7 17  1  0
  9 18  1  0
 11 12  1  0
 12 13  1  0
 14 22  1  0
 15 19  1  0
 16 20  1  0
 17 21  2  0
 18 23  2  0
 21 23  1  0
 22 24  2  0
 22 25  1  0
 24 26  1  0
 25 27  2  0
 26 28  2  0
 27 28  1  0
M  END
>  <PUBCHEM_COMPOUND_CID>  (1) 
37431

>  <PUBCHEM_CONFORMER_RMSD>  (1) 
1

>  <PUBCHEM_CONFORMER_DIVERSEORDER>  (1) 
2
47
10
61
1
13
19
3
43
54
27
44
33
41
31
30
63
55
50
42
36
48
40
7
5
56
35
17
29
28
60
32
52
53
22
46
12
64
49
6
24
51
62
37
16
58
57
14
39
4
15
34
45
25
20
21
59
23
9
38
18
26
11
8

>  <PUBCHEM_MMFF94_PARTIAL_CHARGES>  (1) 
35
1 -0.56
11 0.27
13 0.28
14 0.44
15 0.27
16 0.27
17 -0.15
18 -0.15
19 0.28
2 -0.56
20 0.28
21 -0.15
22 -0.14
23 -0.15
24 -0.15
25 -0.15
26 -0.15
27 -0.15
28 -0.15
3 -0.57
4 -0.48
44 0.15
45 0.15
5 -0.81
50 0.15
51 0.15
52 0.15
53 0.15
54 0.15
55 0.15
56 0.15
6 0.48
7 -0.14
8 0.57
9 0.12

>  <PUBCHEM_EFFECTIVE_ROTOR_COUNT>  (1) 
8.6

>  <PUBCHEM_PHARMACOPHORE_FEATURES>  (1) 
8
1 1 acceptor
1 2 acceptor
1 3 acceptor
1 5 cation
5 4 6 7 8 9 rings
6 2 5 15 16 19 20 rings
6 22 24 25 26 27 28 rings
6 7 9 17 18 21 23 rings

>  <PUBCHEM_HEAVY_ATOM_COUNT>  (1) 
28

>  <PUBCHEM_ATOM_DEF_STEREO_COUNT>  (1) 
0

>  <PUBCHEM_ATOM_UDEF_STEREO_COUNT>  (1) 
1

>  <PUBCHEM_BOND_DEF_STEREO_COUNT>  (1) 
0

>  <PUBCHEM_BOND_UDEF_STEREO_COUNT>  (1) 
0

>  <PUBCHEM_ISOTOPIC_ATOM_COUNT>  (1) 
0

>  <PUBCHEM_COMPONENT_COUNT>  (1) 
1

>  <PUBCHEM_CACTVS_TAUTO_COUNT>  (1) 
1

>  <PUBCHEM_CONFORMER_ID>  (1) 
0000923700000002

>  <PUBCHEM_MMFF94_ENERGY>  (1) 
76.8731

>  <PUBCHEM_FEATURE_SELFOVERLAP>  (1) 
40.685

>  <PUBCHEM_SHAPE_FINGERPRINT>  (1) 
11582403 64 18412549820431739535
11725454 13 18338814371718182751
12156800 1 17127008620760061616
12293681 4 16386459630655111743
12633257 1 14996290223186519999
13134695 92 17685790020552568035
13583140 156 18261968353118234371
13761468 95 17550434947075489260
14251757 17 16701174355712519369
14251764 3 18190202151115046933
14251764 38 18260833661498044237
14955137 171 17973710386508232178
15848702 105 18202559605344246535
17492 54 17988921206375686821
17980427 23 17839737071736807754
21033648 29 17530978963707733233
21475661 188 18186803573606206196
21860390 5 18047468915884575732
22907989 373 16557644086368636658
23227448 37 18265618856191586241
238 59 18270126712169068096
3052486 1 17130395017910670415
3298306 158 18336261323125982489
3493558 16 17684079563070177487
35225 105 18048902953946604868
469060 322 17905335374538202667

>  <PUBCHEM_SHAPE_MULTIPOLES>  (1) 
548.66
7.92
4.06
2.75
3.01
0.41
0.54
8.98
0.68
-1.15
0.1
0.76
-1.21
-0.4

>  <PUBCHEM_SHAPE_SELFOVERLAP>  (1) 
1178.92

>  <PUBCHEM_SHAPE_VOLUME>  (1) 
304.3

>  <PUBCHEM_COORDINATE_TYPE>  (1) 
2
5
10

$$$$
