37457
     RDKit          3D

 21 26  0  0  1  0  0  0  0  0999 V2000
   -4.8260    1.1260   -0.3931 O   0  0  0  0  0  0  0  0  0  0  0  0
   -4.2881   -0.1234   -0.7077 C   0  0  0  0  0  0  0  0  0  0  0  0
   -3.7144    0.8372    0.4221 C   0  0  0  0  0  0  0  0  0  0  0  0
   -4.2803   -1.4343   -0.0264 C   0  0  0  0  0  0  0  0  0  0  0  0
   -2.2402    0.6646    0.2340 C   0  0  0  0  0  0  0  0  0  0  0  0
   -1.7484   -0.6760    0.1884 C   0  0  0  0  0  0  0  0  0  0  0  0
   -2.7768   -1.8357    0.1617 C   0  0  0  0  0  0  0  0  0  0  0  0
   -0.3530   -0.9226    0.1210 C   0  0  0  0  0  0  0  0  0  0  0  0
   -1.3457    1.7326    0.1839 C   0  0  0  0  0  0  0  0  0  0  0  0
    0.5344    0.1838    0.0720 C   0  0  0  0  0  0  0  0  0  0  0  0
    0.0329    1.5091    0.0975 C   0  0  0  0  0  0  0  0  0  0  0  0
    1.9383   -0.0241   -0.0050 C   0  0  0  0  0  0  0  0  0  0  0  0
    0.2043   -2.2171    0.0971 C   0  0  0  0  0  0  0  0  0  0  0  0
    2.4623   -1.3364   -0.0297 C   0  0  0  0  0  0  0  0  0  0  0  0
    2.8227    1.0803   -0.0573 C   0  0  0  0  0  0  0  0  0  0  0  0
    0.9244    2.5884    0.0458 C   0  0  0  0  0  0  0  0  0  0  0  0
    1.5836   -2.4207    0.0232 C   0  0  0  0  0  0  0  0  0  0  0  0
    2.3005    2.3776   -0.0316 C   0  0  0  0  0  0  0  0  0  0  0  0
    3.8496   -1.5289   -0.1055 C   0  0  0  0  0  0  0  0  0  0  0  0
    4.2055    0.8578   -0.1332 C   0  0  0  0  0  0  0  0  0  0  0  0
    4.7145   -0.4384   -0.1572 C   0  0  0  0  0  0  0  0  0  0  0  0
  1  2  1  0
  1  3  1  0
  2  3  1  0
  2  4  1  0
  3  5  1  0
  4  7  1  0
  5  6  2  0
  5  9  1  0
  6  7  1  0
  6  8  1  0
  8 10  2  0
  8 13  1  0
  9 11  2  0
 10 11  1  0
 10 12  1  0
 11 16  1  0
 12 14  2  0
 12 15  1  0
 13 17  2  0
 14 17  1  0
 14 19  1  0
 15 18  1  0
 15 20  2  0
 16 18  2  0
 19 21  2  0
 20 21  1  0
M  END
>  <PUBCHEM_COMPOUND_CID>  (1) 
37457

>  <PUBCHEM_CONFORMER_RMSD>  (1) 
0.6

>  <PUBCHEM_CONFORMER_DIVERSEORDER>  (1) 
1

>  <PUBCHEM_MMFF94_PARTIAL_CHARGES>  (1) 
25
1 -0.3
13 -0.15
16 -0.15
17 -0.15
18 -0.15
19 -0.15
2 -0.05
20 -0.15
21 -0.15
22 0.1
23 0.1
28 0.15
29 0.15
3 0.08
30 0.15
31 0.15
32 0.15
33 0.15
34 0.15
35 0.15
4 0.09
5 -0.03
6 -0.14
7 0.14
9 -0.15

>  <PUBCHEM_EFFECTIVE_ROTOR_COUNT>  (1) 
0.6

>  <PUBCHEM_PHARMACOPHORE_FEATURES>  (1) 
6
1 1 acceptor
6 10 11 12 15 16 18 rings
6 12 14 15 19 20 21 rings
6 5 6 8 9 10 11 rings
6 8 10 12 13 14 17 rings
7 1 2 3 4 5 6 7 rings

>  <PUBCHEM_HEAVY_ATOM_COUNT>  (1) 
21

>  <PUBCHEM_ATOM_DEF_STEREO_COUNT>  (1) 
0

>  <PUBCHEM_ATOM_UDEF_STEREO_COUNT>  (1) 
2

>  <PUBCHEM_BOND_DEF_STEREO_COUNT>  (1) 
0

>  <PUBCHEM_BOND_UDEF_STEREO_COUNT>  (1) 
0

>  <PUBCHEM_ISOTOPIC_ATOM_COUNT>  (1) 
0

>  <PUBCHEM_COMPONENT_COUNT>  (1) 
1

>  <PUBCHEM_CACTVS_TAUTO_COUNT>  (1) 
1

>  <PUBCHEM_CONFORMER_ID>  (1) 
0000925100000001

>  <PUBCHEM_MMFF94_ENERGY>  (1) 
107.8393

>  <PUBCHEM_FEATURE_SELFOVERLAP>  (1) 
30.585

>  <PUBCHEM_SHAPE_FINGERPRINT>  (1) 
10062212 137 18341608239660433063
10411042 1 17617658757015907899
10616163 171 18412829105365571231
10693767 8 18129369436952408951
10906281 52 18337691762394546768
10967382 1 18410576150168480706
11132069 177 18410007741095322544
11471102 20 18410291406573945284
11578080 2 16952522477662268070
11680986 33 18264774435640876200
11806522 49 18411700988922950140
12011746 2 18410859845864738822
12236239 1 17846779594585154737
12403259 226 18409443717416330069
12553582 1 18337958865782970211
12838862 33 18338779166393860528
13140716 1 18339370759146354857
138480 1 18411138060729832008
13862211 1 18410570657106067994
13944108 23 16458516134531932021
14790565 3 18264778838362903252
15196674 1 18410575106164315154
15230672 131 13434639084219370531
15442244 35 18340208496717409113
15536298 74 18343020012405731768
1601671 61 18410012122109650820
16945 1 18338805502547393496
17492 89 18339923830665238015
18186145 218 17894904144511420487
19591789 44 18266741461874687739
200 152 18131348618206235829
20028762 73 18130504257427418271
20645477 70 18409447007213098511
20905425 154 18124597488099978470
21029758 11 18341892969853238528
21267235 1 18411709798196656555
21279426 13 18337390426798073799
21421861 104 17824821127001140754
21452121 103 18271232937405429168
221357 26 18410566306557112781
221490 88 18264495146792164507
2334 1 18266744773188601232
23402539 116 18342170068669659830
23559900 14 18413385462649688312
23566358 2 18194397788559928981
2748010 2 18193564595011317704
2871803 45 18409446943036560966
3004659 81 18187649081579915606
335352 9 18410575041771448127
34934 24 18410569552856257339
350125 39 18337678624110882291
3680242 22 18190177893060690386
4214541 1 18410575089475010909
4280585 95 17623862219016071886
5104073 3 18410856576877695003
543358 83 18338801113138270257
6138700 20 18337956693257908254
6443956 14 18410295800436746204
7364860 26 18341612658997177424
9709674 26 18337113474664947339
9981440 41 17474661132299283256

>  <PUBCHEM_SHAPE_MULTIPOLES>  (1) 
426.3
8.64
2.71
0.66
3.07
0.14
0.01
-0.62
0.96
-0.82
-0.08
0.15
0.01
0.02

>  <PUBCHEM_SHAPE_SELFOVERLAP>  (1) 
998.61

>  <PUBCHEM_SHAPE_VOLUME>  (1) 
216.9

>  <PUBCHEM_COORDINATE_TYPE>  (1) 
2
5
10

$$$$
