37472
     RDKit          3D

 23 26  0  0  1  0  0  0  0  0999 V2000
    7.5189    0.1719   -0.2326 F   0  0  0  0  0  0  0  0  0  0  0  0
   -4.8793    1.9561    1.0644 O   0  0  0  0  0  0  0  0  0  0  0  0
   -0.8685   -0.2484    0.1236 N   0  0  0  0  0  0  0  0  0  0  0  0
    1.9821   -0.0720    0.1712 N   0  0  0  0  0  0  0  0  0  0  0  0
   -2.2232   -0.1150    0.6577 C   0  0  0  0  0  0  0  0  0  0  0  0
   -3.0210    0.9603   -0.1071 C   0  0  0  0  0  0  0  0  0  0  0  0
   -5.1671   -0.3132    0.3047 C   0  0  0  0  0  0  0  0  0  0  0  0
   -2.9024   -1.4940    0.7061 C   0  0  0  0  0  0  0  0  0  0  0  0
   -4.3959   -1.4140    1.0426 C   0  0  0  0  0  0  0  0  0  0  0  0
   -3.1863    0.7689   -1.6227 C   0  0  0  0  0  0  0  0  0  0  0  0
   -4.4103    0.9804    0.4874 C   0  0  0  0  0  0  0  0  0  0  0  0
   -5.3484   -0.5373   -1.2010 C   0  0  0  0  0  0  0  0  0  0  0  0
   -4.0690   -0.4129   -2.0340 C   0  0  0  0  0  0  0  0  0  0  0  0
   -0.2048    1.0601    0.0705 C   0  0  0  0  0  0  0  0  0  0  0  0
   -0.0801   -1.1751    0.9448 C   0  0  0  0  0  0  0  0  0  0  0  0
    1.1936    0.9421   -0.5400 C   0  0  0  0  0  0  0  0  0  0  0  0
    1.3233   -1.3673    0.3644 C   0  0  0  0  0  0  0  0  0  0  0  0
    3.3764   -0.0106    0.0699 C   0  0  0  0  0  0  0  0  0  0  0  0
    4.0864    1.1256    0.5061 C   0  0  0  0  0  0  0  0  0  0  0  0
    4.1125   -1.0834   -0.4719 C   0  0  0  0  0  0  0  0  0  0  0  0
    5.4763    1.1869    0.4045 C   0  0  0  0  0  0  0  0  0  0  0  0
    5.5024   -1.0222   -0.5734 C   0  0  0  0  0  0  0  0  0  0  0  0
    6.1843    0.1129   -0.1352 C   0  0  0  0  0  0  0  0  0  0  0  0
  1 23  1  0
  2 11  2  0
  3  5  1  0
  3 14  1  0
  3 15  1  0
  4 16  1  0
  4 17  1  0
  4 18  1  0
  5  6  1  0
  5  8  1  0
  6 10  1  0
  6 11  1  0
  7  9  1  0
  7 11  1  0
  7 12  1  0
  8  9  1  0
 10 13  1  0
 12 13  1  0
 14 16  1  0
 15 17  1  0
 18 19  2  0
 18 20  1  0
 19 21  1  0
 20 22  2  0
 21 23  2  0
 22 23  1  0
M  END
>  <PUBCHEM_COMPOUND_CID>  (1) 
37472

>  <PUBCHEM_CONFORMER_RMSD>  (1) 
0.8

>  <PUBCHEM_CONFORMER_DIVERSEORDER>  (1) 
1
26
27
19
16
5
20
35
9
15
18
11
28
23
24
34
17
7
22
13
31
12
33
21
32
14
6
8
10
29
30
25
2
4
3

>  <PUBCHEM_MMFF94_PARTIAL_CHARGES>  (1) 
22
1 -0.19
11 0.45
14 0.27
15 0.27
16 0.37
17 0.37
18 0.1
19 -0.15
2 -0.57
20 -0.15
21 -0.15
22 -0.15
23 0.19
3 -0.81
4 -0.84
45 0.15
46 0.15
47 0.15
48 0.15
5 0.27
6 0.06
7 0.06

>  <PUBCHEM_EFFECTIVE_ROTOR_COUNT>  (1) 
4.4

>  <PUBCHEM_PHARMACOPHORE_FEATURES>  (1) 
7
1 2 acceptor
1 3 cation
1 4 cation
6 18 19 20 21 22 23 rings
6 3 4 14 15 16 17 rings
6 5 6 7 8 9 11 rings
6 6 7 10 11 12 13 rings

>  <PUBCHEM_HEAVY_ATOM_COUNT>  (1) 
23

>  <PUBCHEM_ATOM_DEF_STEREO_COUNT>  (1) 
0

>  <PUBCHEM_ATOM_UDEF_STEREO_COUNT>  (1) 
3

>  <PUBCHEM_BOND_DEF_STEREO_COUNT>  (1) 
0

>  <PUBCHEM_BOND_UDEF_STEREO_COUNT>  (1) 
0

>  <PUBCHEM_ISOTOPIC_ATOM_COUNT>  (1) 
0

>  <PUBCHEM_COMPONENT_COUNT>  (1) 
1

>  <PUBCHEM_CACTVS_TAUTO_COUNT>  (1) 
1

>  <PUBCHEM_CONFORMER_ID>  (1) 
0000926000000001

>  <PUBCHEM_MMFF94_ENERGY>  (1) 
68.4956

>  <PUBCHEM_FEATURE_SELFOVERLAP>  (1) 
36.963

>  <PUBCHEM_SHAPE_FINGERPRINT>  (1) 
10595046 47 17846777412425263752
11089746 13 18343580755236469552
11315181 36 18334016120386688913
12091667 2 18060139842575683656
12107183 9 17053321232878383466
12166972 35 18201720691015891864
12236239 1 16702021993678803592
12403259 415 18114174263470600380
12516196 113 17989204854648086544
12596602 18 15554440834339015530
12616971 3 17346599715873695840
13288520 33 16988839501942201567
13533116 47 17203334369478434318
13631057 29 17823139085339858947
13668630 136 16774083981631754278
1420 363 18410014346918534370
14528608 73 18272086102345834734
15183329 4 18259701182038200058
15788980 27 17704071789339111056
17093844 174 17203323395055732145
17349148 13 18409167692763290824
17834072 33 17632856438757213312
17844677 252 17847064393302550656
18927931 339 18343308084847874087
19489759 90 16660361484816516475
200 152 17988924465749241570
20281389 69 17240198850868006228
20645477 70 18272374127475187406
21033648 29 18272922843416152488
21150785 3 18411975896984596166
21236236 1 18341614780827339105
21267235 1 18188217593394796075
21709351 56 17749668588082804110
220451 1 16845577521693569534
22061861 79 18342461422245270206
23081809 10 18343864407656117024
23198884 109 18343582932642580579
23402539 116 17917992771660503544
23536379 177 17704354351264346444
23559900 14 18334855069212614560
23569914 152 17186977814463256030
23569943 247 18121220874986097754
300161 21 16660357091481775778
34797466 226 16845297193568280072
3545911 37 18113900463505248835
4015057 19 18270956976554920201
4073 2 18188497977407830122
4325135 7 17989203763325200437
5104073 3 18261114032430108410
531348 171 17631735959056984943
542803 24 18273495662929833480
59755656 215 18040712567240319763
59755656 520 17821726156889518274
7495541 125 15913039971552679698

>  <PUBCHEM_SHAPE_MULTIPOLES>  (1) 
450.22
16.46
1.53
1.23
17.92
0.04
0.47
-0.97
1.54
-0.64
-0.33
-1.72
-0.02
0.43

>  <PUBCHEM_SHAPE_SELFOVERLAP>  (1) 
963.701

>  <PUBCHEM_SHAPE_VOLUME>  (1) 
248

>  <PUBCHEM_COORDINATE_TYPE>  (1) 
2
5
10

$$$$
