37479
     RDKit          3D

 32 36  0  0  1  0  0  0  0  0999 V2000
   -1.9386   -1.0503    2.5481 S   0  0  0  0  0  0  0  0  0  0  0  0
    3.4381    1.1556   -1.3253 O   0  0  0  0  0  0  0  0  0  0  0  0
   -2.3494   -0.8018   -2.3171 O   0  0  0  0  0  0  0  0  0  0  0  0
   -5.6039    3.3031    1.1267 O   0  0  0  0  0  0  0  0  0  0  0  0
    6.5568    0.6620    0.5978 N   0  0  0  0  0  0  0  0  0  0  0  0
    7.2272   -0.3917   -0.1635 C   0  0  0  0  0  0  0  0  0  0  0  0
    7.6295    1.5532    1.0384 C   0  0  0  0  0  0  0  0  0  0  0  0
    8.4574   -0.6922    0.6801 C   0  0  0  0  0  0  0  0  0  0  0  0
    8.7198    0.5848    1.4726 C   0  0  0  0  0  0  0  0  0  0  0  0
    5.5450    1.3554   -0.1855 C   0  0  0  0  0  0  0  0  0  0  0  0
   -1.9488   -0.6191   -0.9329 C   0  0  0  0  0  0  0  0  0  0  0  0
   -2.9302    0.4323   -0.3600 C   0  0  0  0  0  0  0  0  0  0  0  0
   -2.1329   -1.9874   -0.2213 C   0  0  0  0  0  0  0  0  0  0  0  0
    4.4185    0.4230   -0.5920 C   0  0  0  0  0  0  0  0  0  0  0  0
   -0.4857   -0.1369   -1.0392 C   0  0  0  0  0  0  0  0  0  0  0  0
   -2.7404    1.0035    0.9157 C   0  0  0  0  0  0  0  0  0  0  0  0
   -2.1307   -2.2048    1.1802 C   0  0  0  0  0  0  0  0  0  0  0  0
   -1.6242    0.5650    1.8133 C   0  0  0  0  0  0  0  0  0  0  0  0
   -4.0628    0.8465   -1.0973 C   0  0  0  0  0  0  0  0  0  0  0  0
    0.5511   -1.0554   -0.9215 C   0  0  0  0  0  0  0  0  0  0  0  0
   -0.2190    1.2105   -1.2521 C   0  0  0  0  0  0  0  0  0  0  0  0
   -2.2697   -3.1376   -1.0503 C   0  0  0  0  0  0  0  0  0  0  0  0
    2.1487    0.7302   -1.2318 C   0  0  0  0  0  0  0  0  0  0  0  0
   -3.6459    1.9686    1.3993 C   0  0  0  0  0  0  0  0  0  0  0  0
    1.8728   -0.6203   -1.0182 C   0  0  0  0  0  0  0  0  0  0  0  0
    1.1028    1.6455   -1.3489 C   0  0  0  0  0  0  0  0  0  0  0  0
   -4.9519    1.8051   -0.6061 C   0  0  0  0  0  0  0  0  0  0  0  0
   -2.3002   -3.5263    1.6688 C   0  0  0  0  0  0  0  0  0  0  0  0
   -4.7404    2.3713    0.6414 C   0  0  0  0  0  0  0  0  0  0  0  0
   -2.4299   -4.4266   -0.5421 C   0  0  0  0  0  0  0  0  0  0  0  0
   -2.4507   -4.6214    0.8234 C   0  0  0  0  0  0  0  0  0  0  0  0
   -6.7122    3.6561    0.2995 C   0  0  0  0  0  0  0  0  0  0  0  0
  1 17  1  0
  1 18  1  0
  2 14  1  0
  2 23  1  0
  3 11  1  0
  4 29  1  0
  4 32  1  0
  5  6  1  0
  5  7  1  0
  5 10  1  0
  6  8  1  0
  7  9  1  0
  8  9  1  0
 10 14  1  0
 11 12  1  0
 11 13  1  0
 11 15  1  0
 12 16  2  0
 12 19  1  0
 13 17  2  0
 13 22  1  0
 15 20  2  0
 15 21  1  0
 16 18  1  0
 16 24  1  0
 17 28  1  0
 19 27  2  0
 20 25  1  0
 21 26  2  0
 22 30  2  0
 23 25  2  0
 23 26  1  0
 24 29  2  0
 27 29  1  0
 28 31  2  0
 30 31  1  0
M  END
>  <PUBCHEM_COMPOUND_CID>  (1) 
37479

>  <PUBCHEM_CONFORMER_RMSD>  (1) 
1

>  <PUBCHEM_CONFORMER_DIVERSEORDER>  (1) 
7
60
43
37
47
56
51
39
23
6
67
65
21
26
54
63
15
25
66
18
48
33
12
64
42
35
22
49
53
27
61
57
38
44
58
30
20
55
29
41
1
59
45
3
32
36
19
50
46
34
9
40
52
2
14
17
62
24
16
8
10
5
4
13
11
28
31

>  <PUBCHEM_MMFF94_PARTIAL_CHARGES>  (1) 
42
1 -0.33
10 0.27
11 0.71
12 -0.14
13 -0.14
14 0.28
15 -0.14
16 -0.14
17 0.1
18 0.37
19 -0.15
2 -0.36
20 -0.15
21 -0.15
22 -0.15
23 0.08
24 -0.15
25 -0.15
26 -0.15
27 -0.15
28 -0.15
29 0.08
3 -0.68
30 -0.15
31 -0.15
32 0.28
4 -0.36
47 0.15
48 0.15
49 0.15
5 -0.81
50 0.15
51 0.15
52 0.4
53 0.15
54 0.15
55 0.15
56 0.15
57 0.15
58 0.15
6 0.27
7 0.27

>  <PUBCHEM_EFFECTIVE_ROTOR_COUNT>  (1) 
7.6

>  <PUBCHEM_PHARMACOPHORE_FEATURES>  (1) 
10
1 2 acceptor
1 3 acceptor
1 3 donor
1 4 acceptor
1 5 cation
5 5 6 7 8 9 rings
6 12 16 19 24 27 29 rings
6 13 17 22 28 30 31 rings
6 15 20 21 23 25 26 rings
7 1 11 12 13 16 17 18 rings

>  <PUBCHEM_HEAVY_ATOM_COUNT>  (1) 
32

>  <PUBCHEM_ATOM_DEF_STEREO_COUNT>  (1) 
0

>  <PUBCHEM_ATOM_UDEF_STEREO_COUNT>  (1) 
1

>  <PUBCHEM_BOND_DEF_STEREO_COUNT>  (1) 
0

>  <PUBCHEM_BOND_UDEF_STEREO_COUNT>  (1) 
0

>  <PUBCHEM_ISOTOPIC_ATOM_COUNT>  (1) 
0

>  <PUBCHEM_COMPONENT_COUNT>  (1) 
1

>  <PUBCHEM_CACTVS_TAUTO_COUNT>  (1) 
1

>  <PUBCHEM_CONFORMER_ID>  (1) 
0000926700000007

>  <PUBCHEM_MMFF94_ENERGY>  (1) 
122.7585

>  <PUBCHEM_FEATURE_SELFOVERLAP>  (1) 
50.763

>  <PUBCHEM_SHAPE_FINGERPRINT>  (1) 
10291535 26 17917998282330436849
10305334 12 18333729113703721306
11036077 4 18187367657298865091
11135926 11 15213284328313683192
11315181 36 18336258059319232428
11387372 6 14635167736356536177
11399939 17 11318030233622057073
11443803 9 18334854996851986489
11607047 191 17969505905741369217
11607047 74 17336486146635400257
12107183 9 18333732412391293188
12616971 3 16877946062152788366
12655364 131 18128253390333584154
12717326 25 18261967232596084946
12988421 55 18263643970606388909
13004483 165 17833292065973490323
13540713 5 17751938040581484540
13560911 23 18267850839833679464
13911987 19 13542457653203019093
13941219 33 17385723569885180376
14068700 675 18049154767921718055
14118638 360 17972605665469865076
14150023 24 18189331286677451189
14844126 61 18269273637153852191
15348495 7 18338231678749979392
15392192 29 17458350728711545802
15439362 3 18197218036096372167
16114785 44 18116979014633126653
16994733 274 16486421945849932169
17780758 139 18338516447517966154
21033648 29 18268165187946897109
21130935 74 18338508743164490346
21403212 168 17676771968590625105
21599406 157 11602808074853246352
21647283 7 18056744646414784528
21756936 100 18413387623128748077
22122407 14 17131831002157048928
23522609 53 17823157751542040708
283562 15 11023831643591864733
312425 54 18408879638819673560
3383291 50 18409174328867961107
4073 2 18411981386881221566
484985 159 16081367526727530963
4938544 92 18341335569561734640
5080951 261 18113888407605973678
5104073 3 18261674904516500628
58260988 114 16878516751252590643
6009941 240 18343019991669438840
6058803 2 17680730394490596356
6691757 9 18411704287716393785
9953998 17 18335695049648147568
9981440 41 17989494013047067855
999808 66 14129063595227667968

>  <PUBCHEM_SHAPE_MULTIPOLES>  (1) 
639.81
18.81
4.57
1.94
55.68
4.67
-0.47
-13.67
-7.68
-10.51
-1.04
-0.75
0.27
-0.51

>  <PUBCHEM_SHAPE_SELFOVERLAP>  (1) 
1379.788

>  <PUBCHEM_SHAPE_VOLUME>  (1) 
353

>  <PUBCHEM_COORDINATE_TYPE>  (1) 
2
5
10

$$$$
