37477
     RDKit          3D

 13 15  0  0  1  0  0  0  0  0999 V2000
    2.0708   -0.7862   -0.3354 C   0  0  0  0  0  0  0  0  0  0  0  0
    1.0999   -2.0077   -0.2729 C   0  0  0  0  0  0  0  0  0  0  0  0
    1.1446    0.3947   -0.1906 C   0  0  0  0  0  0  0  0  0  0  0  0
   -0.1607   -0.0076   -0.0749 C   0  0  0  0  0  0  0  0  0  0  0  0
   -0.2507   -1.3737   -0.1138 C   0  0  0  0  0  0  0  0  0  0  0  0
   -1.2505    0.8551    0.0657 C   0  0  0  0  0  0  0  0  0  0  0  0
    3.1318   -0.8414    0.7567 C   0  0  0  0  0  0  0  0  0  0  0  0
    1.4323    1.7502   -0.1768 C   0  0  0  0  0  0  0  0  0  0  0  0
   -1.4948   -1.9724   -0.0101 C   0  0  0  0  0  0  0  0  0  0  0  0
   -0.9561    2.2306    0.0842 C   0  0  0  0  0  0  0  0  0  0  0  0
   -2.5153    0.2475    0.1718 C   0  0  0  0  0  0  0  0  0  0  0  0
    0.3771    2.6668   -0.0372 C   0  0  0  0  0  0  0  0  0  0  0  0
   -2.6283   -1.1557    0.1333 C   0  0  0  0  0  0  0  0  0  0  0  0
  1  2  1  0
  1  3  1  0
  1  7  1  0
  2  5  1  0
  3  4  1  0
  3  8  2  0
  4  5  2  0
  4  6  1  0
  5  9  1  0
  6 10  1  0
  6 11  2  0
  8 12  1  0
  9 13  2  0
 10 12  2  0
 11 13  1  0
M  END
>  <PUBCHEM_COMPOUND_CID>  (1) 
37477

>  <PUBCHEM_CONFORMER_RMSD>  (1) 
0.4

>  <PUBCHEM_CONFORMER_DIVERSEORDER>  (1) 
2
1

>  <PUBCHEM_MMFF94_PARTIAL_CHARGES>  (1) 
16
1 0.14
10 -0.15
11 -0.15
12 -0.15
13 -0.15
2 0.14
20 0.15
21 0.15
22 0.15
23 0.15
24 0.15
25 0.15
3 -0.14
5 -0.14
8 -0.15
9 -0.15

>  <PUBCHEM_EFFECTIVE_ROTOR_COUNT>  (1) 
0.4

>  <PUBCHEM_PHARMACOPHORE_FEATURES>  (1) 
3
5 1 2 3 4 5 rings
6 3 4 6 8 10 12 rings
6 4 5 6 9 11 13 rings

>  <PUBCHEM_HEAVY_ATOM_COUNT>  (1) 
13

>  <PUBCHEM_ATOM_DEF_STEREO_COUNT>  (1) 
0

>  <PUBCHEM_ATOM_UDEF_STEREO_COUNT>  (1) 
1

>  <PUBCHEM_BOND_DEF_STEREO_COUNT>  (1) 
0

>  <PUBCHEM_BOND_UDEF_STEREO_COUNT>  (1) 
0

>  <PUBCHEM_ISOTOPIC_ATOM_COUNT>  (1) 
0

>  <PUBCHEM_COMPONENT_COUNT>  (1) 
1

>  <PUBCHEM_CACTVS_TAUTO_COUNT>  (1) 
1

>  <PUBCHEM_CONFORMER_ID>  (1) 
0000926500000002

>  <PUBCHEM_MMFF94_ENERGY>  (1) 
44.536

>  <PUBCHEM_FEATURE_SELFOVERLAP>  (1) 
15.427

>  <PUBCHEM_SHAPE_FINGERPRINT>  (1) 
10967382 1 17978793737536218735
12382932 28 18340205168022705418
12423570 1 9849072940118999280
12524768 44 18341341083856735063
13140716 1 18411140276636921443
13172582 1 18411424972849666395
16945 1 18339085886623535927
193761 8 18338801220686837709
20510252 161 18126842695038572848
20871998 184 18271519784948285942
21040471 1 17617665358284702462
21501502 16 18266743665482755591
22802520 49 17625833664506499310
2334 1 18194966468004847999
23388829 49 17982431995879947262
23402539 116 18197759038729890207
23419403 2 16047240931715421886
23463225 33 18336826502103347232
23552423 10 17975698608030102653
23559900 14 16758885123349400526
241688 4 18410577262274879793
2748010 2 18339361997191349237
2897 32 17617942873254184389
5255222 1 16608579658415595868
53812654 25 18272363226067052519
66348 1 18411423899155353965
7364860 26 18126288785822608048
81228 2 18194408792244951016

>  <PUBCHEM_SHAPE_MULTIPOLES>  (1) 
267.53
3.45
2.81
0.69
0.4
1.16
0.03
-1.32
0.55
-0.03
-0.09
0.16
-0.05
-0.11

>  <PUBCHEM_SHAPE_SELFOVERLAP>  (1) 
604.443

>  <PUBCHEM_SHAPE_VOLUME>  (1) 
131

>  <PUBCHEM_COORDINATE_TYPE>  (1) 
2
5
10

$$$$
