37476
     RDKit          3D

 12 13  0  0  1  0  0  0  0  0999 V2000
   -2.0443    0.3378    0.2308 C   0  0  0  0  0  0  0  0  0  0  0  0
   -2.3834   -1.1256    0.5874 C   0  0  0  0  0  0  0  0  0  0  0  0
   -0.5460    0.2671    0.1432 C   0  0  0  0  0  0  0  0  0  0  0  0
   -1.2697   -2.0033   -0.0049 C   0  0  0  0  0  0  0  0  0  0  0  0
   -0.1107   -1.0584    0.0203 C   0  0  0  0  0  0  0  0  0  0  0  0
    0.3594    1.3161    0.1542 C   0  0  0  0  0  0  0  0  0  0  0  0
   -2.6739    0.7776   -1.0855 C   0  0  0  0  0  0  0  0  0  0  0  0
    1.2349   -1.3599   -0.1059 C   0  0  0  0  0  0  0  0  0  0  0  0
    2.1537   -0.3086   -0.0902 C   0  0  0  0  0  0  0  0  0  0  0  0
    1.7192    1.0199    0.0397 C   0  0  0  0  0  0  0  0  0  0  0  0
   -0.0525    2.7370    0.3153 C   0  0  0  0  0  0  0  0  0  0  0  0
    3.6132   -0.5997   -0.2044 C   0  0  0  0  0  0  0  0  0  0  0  0
  1  2  1  0
  1  3  1  0
  1  7  1  0
  2  4  1  0
  3  5  2  0
  3  6  1  0
  4  5  1  0
  5  8  1  0
  6 10  2  0
  6 11  1  0
  8  9  2  0
  9 10  1  0
  9 12  1  0
M  END
>  <PUBCHEM_COMPOUND_CID>  (1) 
37476

>  <PUBCHEM_CONFORMER_RMSD>  (1) 
0.4

>  <PUBCHEM_CONFORMER_DIVERSEORDER>  (1) 
2
1

>  <PUBCHEM_MMFF94_PARTIAL_CHARGES>  (1) 
12
1 0.14
10 -0.15
11 0.14
12 0.14
21 0.15
22 0.15
3 -0.14
4 0.14
5 -0.14
6 -0.14
8 -0.15
9 -0.14

>  <PUBCHEM_EFFECTIVE_ROTOR_COUNT>  (1) 
0.6

>  <PUBCHEM_PHARMACOPHORE_FEATURES>  (1) 
2
5 1 2 3 4 5 rings
6 3 5 6 8 9 10 rings

>  <PUBCHEM_HEAVY_ATOM_COUNT>  (1) 
12

>  <PUBCHEM_ATOM_DEF_STEREO_COUNT>  (1) 
0

>  <PUBCHEM_ATOM_UDEF_STEREO_COUNT>  (1) 
1

>  <PUBCHEM_BOND_DEF_STEREO_COUNT>  (1) 
0

>  <PUBCHEM_BOND_UDEF_STEREO_COUNT>  (1) 
0

>  <PUBCHEM_ISOTOPIC_ATOM_COUNT>  (1) 
0

>  <PUBCHEM_COMPONENT_COUNT>  (1) 
1

>  <PUBCHEM_CACTVS_TAUTO_COUNT>  (1) 
1

>  <PUBCHEM_CONFORMER_ID>  (1) 
0000926400000002

>  <PUBCHEM_MMFF94_ENERGY>  (1) 
31.9859

>  <PUBCHEM_FEATURE_SELFOVERLAP>  (1) 
10.231

>  <PUBCHEM_SHAPE_FINGERPRINT>  (1) 
11206711 2 18335982085768665383
12032990 46 18411710893307815506
12138202 97 18040705936116575111
12423570 1 14661627900348308152
12524768 44 18272093764208983166
13024252 1 16153718608464625587
14911166 2 18410569552750489781
15279308 128 18338510846485090437
161256 15 17976543033055251467
16945 1 18339364058991909554
17844478 74 17968390051419672835
193761 8 17763464315269366194
20201158 50 18411134706059303814
20588541 1 18337111172509352423
21501502 16 18194688296111292951
22802520 49 17770240270482150622
2334 1 18195246839475624416
23402539 116 18200018556430812927
23402655 69 18195229041680244357
23552423 10 17905329880932223847
23559900 14 18412825764640377846
241688 4 18411420643617616720
25 1 18118389654150357221
2748010 2 18340204219035353788
3071541 158 18261674878145245444
3312278 4 18334298643404030642
353137 74 18119805807393259621
5084963 1 18127695039635333731
5255222 1 17906738359696303161
528886 8 18340202986316410537
63268167 104 18339929345223021184
7364860 26 17910399712058141840
81228 2 18197786500903969480

>  <PUBCHEM_SHAPE_MULTIPOLES>  (1) 
246.95
4.05
2.26
0.77
1.73
0.91
-0.09
-0.89
-0.54
-0.36
0.21
-0.33
0.07
0.37

>  <PUBCHEM_SHAPE_SELFOVERLAP>  (1) 
525.461

>  <PUBCHEM_SHAPE_VOLUME>  (1) 
134.1

>  <PUBCHEM_COORDINATE_TYPE>  (1) 
2
5
10

$$$$
