37474
     RDKit          3D

 21 24  0  0  1  0  0  0  0  0999 V2000
    1.6610   -1.5220    1.6587 O   0  0  0  0  0  0  0  0  0  0  0  0
   -2.4682    0.4513   -0.1547 N   0  0  0  0  0  0  0  0  0  0  0  0
   -0.4143   -0.5802    0.8135 C   0  0  0  0  0  0  0  0  0  0  0  0
    1.0801   -0.9100    0.4926 C   0  0  0  0  0  0  0  0  0  0  0  0
    1.0328   -1.9735   -0.6461 C   0  0  0  0  0  0  0  0  0  0  0  0
   -1.0883    0.0748   -0.4231 C   0  0  0  0  0  0  0  0  0  0  0  0
    0.3595   -1.4161   -1.9186 C   0  0  0  0  0  0  0  0  0  0  0  0
   -1.0094   -0.7727   -1.6988 C   0  0  0  0  0  0  0  0  0  0  0  0
   -1.1335   -1.8432    1.3537 C   0  0  0  0  0  0  0  0  0  0  0  0
    0.3484   -3.2717   -0.1581 C   0  0  0  0  0  0  0  0  0  0  0  0
   -1.0298   -3.0788    0.4661 C   0  0  0  0  0  0  0  0  0  0  0  0
    1.9659    0.3206    0.2458 C   0  0  0  0  0  0  0  0  0  0  0  0
   -3.0550    1.2340   -1.2419 C   0  0  0  0  0  0  0  0  0  0  0  0
   -2.5958    1.2958    1.0327 C   0  0  0  0  0  0  0  0  0  0  0  0
   -4.3010    1.8267   -0.6006 C   0  0  0  0  0  0  0  0  0  0  0  0
   -3.9977    1.8706    0.8939 C   0  0  0  0  0  0  0  0  0  0  0  0
    3.1009    0.2096   -0.5547 C   0  0  0  0  0  0  0  0  0  0  0  0
    1.6312    1.5439    0.8227 C   0  0  0  0  0  0  0  0  0  0  0  0
    3.9051    1.3269   -0.7790 C   0  0  0  0  0  0  0  0  0  0  0  0
    2.4356    2.6613    0.5983 C   0  0  0  0  0  0  0  0  0  0  0  0
    3.5725    2.5527   -0.2026 C   0  0  0  0  0  0  0  0  0  0  0  0
  1  4  1  0
  2  6  1  0
  2 13  1  0
  2 14  1  0
  3  4  1  0
  3  6  1  0
  3  9  1  0
  4  5  1  0
  4 12  1  0
  5  7  1  0
  5 10  1  0
  6  8  1  0
  7  8  1  0
  9 11  1  0
 10 11  1  0
 12 17  2  0
 12 18  1  0
 13 15  1  0
 14 16  1  0
 15 16  1  0
 17 19  1  0
 18 20  2  0
 19 21  2  0
 20 21  1  0
M  END
>  <PUBCHEM_COMPOUND_CID>  (1) 
37474

>  <PUBCHEM_CONFORMER_RMSD>  (1) 
0.6

>  <PUBCHEM_CONFORMER_DIVERSEORDER>  (1) 
1
5
9
7
6
2
8
4
3

>  <PUBCHEM_MMFF94_PARTIAL_CHARGES>  (1) 
18
1 -0.68
12 -0.14
13 0.27
14 0.27
17 -0.15
18 -0.15
19 -0.15
2 -0.81
20 -0.15
21 -0.15
39 0.4
4 0.42
44 0.15
45 0.15
46 0.15
47 0.15
48 0.15
6 0.27

>  <PUBCHEM_EFFECTIVE_ROTOR_COUNT>  (1) 
4.4

>  <PUBCHEM_PHARMACOPHORE_FEATURES>  (1) 
7
1 1 acceptor
1 1 donor
1 2 cation
5 2 13 14 15 16 rings
6 12 17 18 19 20 21 rings
6 3 4 5 6 7 8 rings
6 3 4 5 9 10 11 rings

>  <PUBCHEM_HEAVY_ATOM_COUNT>  (1) 
21

>  <PUBCHEM_ATOM_DEF_STEREO_COUNT>  (1) 
0

>  <PUBCHEM_ATOM_UDEF_STEREO_COUNT>  (1) 
4

>  <PUBCHEM_BOND_DEF_STEREO_COUNT>  (1) 
0

>  <PUBCHEM_BOND_UDEF_STEREO_COUNT>  (1) 
0

>  <PUBCHEM_ISOTOPIC_ATOM_COUNT>  (1) 
0

>  <PUBCHEM_COMPONENT_COUNT>  (1) 
1

>  <PUBCHEM_CACTVS_TAUTO_COUNT>  (1) 
1

>  <PUBCHEM_CONFORMER_ID>  (1) 
0000926200000001

>  <PUBCHEM_MMFF94_ENERGY>  (1) 
62.7379

>  <PUBCHEM_FEATURE_SELFOVERLAP>  (1) 
36.995

>  <PUBCHEM_SHAPE_FINGERPRINT>  (1) 
10165383 225 18115606880013998724
10670039 82 17039235883669773164
10863032 1 18407763650753455010
10948715 1 18410295825905453814
11582403 64 14857168995454825559
12173636 292 18194401319276188694
12633257 1 18041269955221272417
12730499 353 18337118873923972905
12788726 201 17908123718577763551
13009979 54 16913409512178517819
13134695 92 17614839613602233143
13464514 151 18269289966676981628
13764800 53 18046056327058437654
14142880 1 17898275362825924020
14251751 93 18201438133411347725
14713325 29 18050015677394442528
14787075 74 18270114738564559527
14817 1 11883185510345406830
14955137 171 18192702350737161538
15534591 1 18339919436738698548
15848702 105 17987782133735316181
15848702 68 17831568778632963045
16945 1 18195801860819469871
17134986 127 18411133641092108684
1741750 31 18339356478422351928
17876694 64 16880202384155923511
1813 80 17195170301545944743
18981168 100 18128248098547870632
20510252 161 17758673738864829144
20723712 36 18193817272649222514
21041028 32 17617654358915876278
21069387 34 14404922279671009468
21524375 3 18410566297165279084
22182937 141 18267307714563137640
2255824 54 18054508006954119775
22907989 373 17906460174596125989
23419403 2 17481761529203924063
23558518 356 18117278279633050666
238 59 18272088258292901385
25 1 18412268307011280628
2637199 183 18273222984072934636
283562 15 17756984876220195610
298252 57 17775281664291452342
3060560 45 18272084942430430132
350125 39 18336552715039293650
427121 178 17822587018363443089
474 4 18340204086055196833
495365 180 17533482440764076677
633830 44 18271530784528511485
6442390 28 18336559299514250291
81228 2 17683804680493452866
8272917 22 18194402191423802157
9981440 41 17269723070035533264
9999458 23 18263929826027371511

>  <PUBCHEM_SHAPE_MULTIPOLES>  (1) 
421.32
6.2
3.59
1.48
1.57
1.43
-0.25
-7.22
-0.62
-0.26
0.45
0.37
0.39
0.15

>  <PUBCHEM_SHAPE_SELFOVERLAP>  (1) 
904.55

>  <PUBCHEM_SHAPE_VOLUME>  (1) 
231.5

>  <PUBCHEM_COORDINATE_TYPE>  (1) 
2
5
10

$$$$
