37483
     RDKit          3D

 14 15  0  0  0  0  0  0  0  0999 V2000
    1.9539   -2.7397    0.1461 Br  0  0  0  0  0  0  0  0  0  0  0  0
   -0.0943   -0.6772   -0.9915 O   0  0  0  0  0  0  0  0  0  0  0  0
    1.0557   -0.0828   -0.4994 C   0  0  0  0  0  0  0  0  0  0  0  0
   -1.2801   -0.3278   -0.4228 C   0  0  0  0  0  0  0  0  0  0  0  0
    2.0709   -0.8508    0.0432 C   0  0  0  0  0  0  0  0  0  0  0  0
    1.1499    1.2968   -0.5706 C   0  0  0  0  0  0  0  0  0  0  0  0
   -1.3929   -0.2530    0.9655 C   0  0  0  0  0  0  0  0  0  0  0  0
   -2.3832   -0.0450   -1.2284 C   0  0  0  0  0  0  0  0  0  0  0  0
    3.2161   -0.2204    0.5298 C   0  0  0  0  0  0  0  0  0  0  0  0
    2.2952    1.9270   -0.0838 C   0  0  0  0  0  0  0  0  0  0  0  0
   -2.6087    0.1045    1.5483 C   0  0  0  0  0  0  0  0  0  0  0  0
   -3.5990    0.3126   -0.6455 C   0  0  0  0  0  0  0  0  0  0  0  0
    3.3281    1.1685    0.4664 C   0  0  0  0  0  0  0  0  0  0  0  0
   -3.7117    0.3872    0.7428 C   0  0  0  0  0  0  0  0  0  0  0  0
  1  5  1  0
  2  3  1  0
  2  4  1  0
  3  5  2  0
  3  6  1  0
  4  7  2  0
  4  8  1  0
  5  9  1  0
  6 10  2  0
  7 11  1  0
  8 12  2  0
  9 13  2  0
 10 13  1  0
 11 14  2  0
 12 14  1  0
M  END
>  <PUBCHEM_COMPOUND_CID>  (1) 
37483

>  <PUBCHEM_CONFORMER_RMSD>  (1) 
0.6

>  <PUBCHEM_CONFORMER_DIVERSEORDER>  (1) 
1
7
2
3
4
5
6

>  <PUBCHEM_MMFF94_PARTIAL_CHARGES>  (1) 
23
1 -0.11
10 -0.15
11 -0.15
12 -0.15
13 -0.15
14 -0.15
15 0.15
16 0.15
17 0.15
18 0.15
19 0.15
2 -0.17
20 0.15
21 0.15
22 0.15
23 0.15
3 0.08
4 0.08
5 0.11
6 -0.15
7 -0.15
8 -0.15
9 -0.15

>  <PUBCHEM_EFFECTIVE_ROTOR_COUNT>  (1) 
2

>  <PUBCHEM_PHARMACOPHORE_FEATURES>  (1) 
4
1 1 hydrophobe
1 2 acceptor
6 3 5 6 9 10 13 rings
6 4 7 8 11 12 14 rings

>  <PUBCHEM_HEAVY_ATOM_COUNT>  (1) 
14

>  <PUBCHEM_ATOM_DEF_STEREO_COUNT>  (1) 
0

>  <PUBCHEM_ATOM_UDEF_STEREO_COUNT>  (1) 
0

>  <PUBCHEM_BOND_DEF_STEREO_COUNT>  (1) 
0

>  <PUBCHEM_BOND_UDEF_STEREO_COUNT>  (1) 
0

>  <PUBCHEM_ISOTOPIC_ATOM_COUNT>  (1) 
0

>  <PUBCHEM_COMPONENT_COUNT>  (1) 
1

>  <PUBCHEM_CACTVS_TAUTO_COUNT>  (1) 
1

>  <PUBCHEM_CONFORMER_ID>  (1) 
0000926B00000001

>  <PUBCHEM_MMFF94_ENERGY>  (1) 
46.3812

>  <PUBCHEM_FEATURE_SELFOVERLAP>  (1) 
20.297

>  <PUBCHEM_SHAPE_FINGERPRINT>  (1) 
10219947 1 18408600370791579516
10980938 120 18410570686954203990
11471102 22 18261109656090352942
11640471 11 17846784022132097057
12346177 29 16009022939038352699
124424 183 17531232959546889668
12932764 1 18408047299099564903
13538477 17 17561070445218270143
13581323 91 15213295339697115201
13764800 53 16701755937666581035
14144814 61 18272369771686804349
15219456 202 17967531280950592941
15279307 12 18202277043551269902
15309172 13 18336264656077814356
15375462 175 15430614856772938963
15653759 3 17167860876458234637
15669948 3 16702009903293137815
15775835 57 17918277575200036465
16945 1 18409730651448967598
1813 80 17699301966766006494
18186145 218 18343587313245439615
19049666 15 17606108498881270157
200 152 18341322401287061303
20201158 50 18113615664265893162
20279233 1 17675923196683623523
204376 136 18265331888394919520
20645464 45 17458340858022131225
20645477 70 18263349331090503927
20715346 28 17749393658863008111
20871998 22 18053379895324047838
21524375 3 18058166305340685020
2255824 54 18342743992343747670
22854114 111 18341896307095406057
23048698 100 18202281385910424531
23559900 14 16805601404995813558
474 4 18270114742205756584
57812782 119 17822008718381469905
69090 78 18040711507005733955
7364860 26 18272090457395447158
77492 1 17774997981733284287
81228 2 17111562290929703914
8272917 22 18411421665751397535
9981440 41 16551688178595990056

>  <PUBCHEM_SHAPE_MULTIPOLES>  (1) 
288.19
6.42
1.9
1.18
2.93
0.9
0.13
-1.02
1.08
-2.49
-0.01
0.91
0
0.01

>  <PUBCHEM_SHAPE_SELFOVERLAP>  (1) 
607.89

>  <PUBCHEM_SHAPE_VOLUME>  (1) 
166.3

>  <PUBCHEM_COORDINATE_TYPE>  (1) 
2
5
10

$$$$
