37482
     RDKit          3D

 24 26  0  0  1  0  0  0  0  0999 V2000
   -0.3784   -2.1411   -0.4329 O   0  0  0  0  0  0  0  0  0  0  0  0
   -0.3237    2.4284    1.2561 O   0  0  0  0  0  0  0  0  0  0  0  0
   -6.0218    2.1910   -0.0803 O   0  0  0  0  0  0  0  0  0  0  0  0
   -2.5798   -1.2840    0.2896 C   0  0  0  0  0  0  0  0  0  0  0  0
   -1.9386    0.0043    0.8718 C   0  0  0  0  0  0  0  0  0  0  0  0
   -1.5590   -2.4545    0.3251 C   0  0  0  0  0  0  0  0  0  0  0  0
   -3.1400   -1.0006   -1.1232 C   0  0  0  0  0  0  0  0  0  0  0  0
   -0.5116    0.1689    0.3734 C   0  0  0  0  0  0  0  0  0  0  0  0
   -4.1886    0.1132   -1.1090 C   0  0  0  0  0  0  0  0  0  0  0  0
   -2.8054    1.2217    0.6375 C   0  0  0  0  0  0  0  0  0  0  0  0
   -3.8242    1.2791   -0.2354 C   0  0  0  0  0  0  0  0  0  0  0  0
    0.1629   -0.8977   -0.2395 C   0  0  0  0  0  0  0  0  0  0  0  0
   -1.1493   -2.8289    1.7653 C   0  0  0  0  0  0  0  0  0  0  0  0
   -2.1368   -3.7272   -0.3204 C   0  0  0  0  0  0  0  0  0  0  0  0
    0.1921    1.3713    0.5647 C   0  0  0  0  0  0  0  0  0  0  0  0
    1.4712   -0.7406   -0.7120 C   0  0  0  0  0  0  0  0  0  0  0  0
   -4.6756    2.5059   -0.3817 C   0  0  0  0  0  0  0  0  0  0  0  0
    2.1387    0.4689   -0.5417 C   0  0  0  0  0  0  0  0  0  0  0  0
    1.5024    1.5221    0.1052 C   0  0  0  0  0  0  0  0  0  0  0  0
    3.5360    0.6283   -1.0363 C   0  0  0  0  0  0  0  0  0  0  0  0
    4.6166    0.2352   -0.0160 C   0  0  0  0  0  0  0  0  0  0  0  0
    6.0402    0.4755   -0.5278 C   0  0  0  0  0  0  0  0  0  0  0  0
    7.0792    0.0944    0.5275 C   0  0  0  0  0  0  0  0  0  0  0  0
    8.4934    0.3665    0.0401 C   0  0  0  0  0  0  0  0  0  0  0  0
  1  6  1  0
  1 12  1  0
  2 15  1  0
  3 17  1  0
  4  5  1  0
  4  6  1  0
  4  7  1  0
  5  8  1  0
  5 10  1  0
  6 13  1  0
  6 14  1  0
  7  9  1  0
  8 12  2  0
  8 15  1  0
  9 11  1  0
 10 11  2  0
 11 17  1  0
 12 16  1  0
 15 19  2  0
 16 18  2  0
 18 19  1  0
 18 20  1  0
 20 21  1  0
 21 22  1  0
 22 23  1  0
 23 24  1  0
M  END
>  <PUBCHEM_COMPOUND_CID>  (1) 
37482

>  <PUBCHEM_CONFORMER_RMSD>  (1) 
0.8

>  <PUBCHEM_CONFORMER_DIVERSEORDER>  (1) 
13
27
32
50
43
24
47
44
59
39
3
19
38
34
46
48
20
26
41
49
7
18
61
33
2
25
58
40
28
45
29
16
60
35
31
14
37
21
42
57
30
15
17
8
9
10
22
23
54
6
4
36
55
12
11
53
1
52
5
56
51

>  <PUBCHEM_MMFF94_PARTIAL_CHARGES>  (1) 
21
1 -0.36
10 -0.29
11 -0.28
12 0.08
15 0.08
16 -0.15
17 0.42
18 -0.14
19 -0.15
2 -0.53
20 0.14
3 -0.68
31 0.15
38 0.15
41 0.15
46 0.45
47 0.4
5 0.28
6 0.28
8 -0.14
9 0.14

>  <PUBCHEM_EFFECTIVE_ROTOR_COUNT>  (1) 
5.8

>  <PUBCHEM_PHARMACOPHORE_FEATURES>  (1) 
10
1 1 acceptor
1 2 donor
1 24 hydrophobe
1 3 acceptor
1 3 donor
3 6 13 14 hydrophobe
4 20 21 22 23 hydrophobe
6 1 4 5 6 8 12 rings
6 4 5 7 9 10 11 rings
6 8 12 15 16 18 19 rings

>  <PUBCHEM_HEAVY_ATOM_COUNT>  (1) 
24

>  <PUBCHEM_ATOM_DEF_STEREO_COUNT>  (1) 
0

>  <PUBCHEM_ATOM_UDEF_STEREO_COUNT>  (1) 
2

>  <PUBCHEM_BOND_DEF_STEREO_COUNT>  (1) 
0

>  <PUBCHEM_BOND_UDEF_STEREO_COUNT>  (1) 
0

>  <PUBCHEM_ISOTOPIC_ATOM_COUNT>  (1) 
0

>  <PUBCHEM_COMPONENT_COUNT>  (1) 
1

>  <PUBCHEM_CACTVS_TAUTO_COUNT>  (1) 
9

>  <PUBCHEM_CONFORMER_ID>  (1) 
0000926A0000000D

>  <PUBCHEM_MMFF94_ENERGY>  (1) 
56.228

>  <PUBCHEM_FEATURE_SELFOVERLAP>  (1) 
50.827

>  <PUBCHEM_SHAPE_FINGERPRINT>  (1) 
10165383 225 18334573504637845733
10411042 1 17907015428469955399
10906281 52 18129399149651745072
11045977 3 18131627920446843120
11315181 36 18339082692133192728
12236239 1 18113338635582634092
12293681 160 17987796302854038169
12403259 226 17839460334293847963
12616971 3 16950568818205295070
12788726 201 18058449811768764760
13140716 1 18128549343095845768
15021287 119 16732985349461333412
15183329 4 17676759934149641102
16945 1 18270110344581244939
17093844 174 18410291454535880528
18608769 82 18412266173187851683
18927931 339 18200887274424140270
19377110 9 11959738132073140884
19489759 90 18343300383892254532
19784866 34 18266744584927633737
20511986 3 18187631519426850922
20554085 129 18129082460079555936
21279426 13 18340492140921831390
21756936 100 18410291407048738055
22182313 1 17914927342138518198
23402539 116 18343299267174767348
23559900 14 18272085028973588040
25 1 18339078195049161421
2748010 2 17549820436091257715
2838139 119 17749105578258778245
3009799 131 17846776287102043420
335352 9 18411418414714667612
34934 24 18408884010511168994
350125 39 18409733989218876723
3759504 43 18113909260151996619
394222 165 17971474005663549971
4015057 19 17845927541392776672
4073 2 18115028619467271338
5283173 99 18412822512580501600
53917941 68 18411415098999486149
559249 180 18334857229929135482
58260988 114 16154286033921806363
59755656 520 18261387845322370863
6669772 16 18199474277059540991
70251023 43 17834393805972232179
7226269 152 18342457023966767392
9981440 41 18411705387033602906

>  <PUBCHEM_SHAPE_MULTIPOLES>  (1) 
476.3
14.36
3.09
1.1
34.4
2.06
-0.14
-6.78
1.41
-5.14
-0.53
-0.38
0.24
0.05

>  <PUBCHEM_SHAPE_SELFOVERLAP>  (1) 
999.923

>  <PUBCHEM_SHAPE_VOLUME>  (1) 
267

>  <PUBCHEM_COORDINATE_TYPE>  (1) 
2
5
10

$$$$
