37488
     RDKit          3D

 12 11  0  0  1  0  0  0  0  0999 V2000
    1.1485    1.9747    0.6912 Cl  0  0  0  0  0  0  0  0  0  0  0  0
    3.9410    0.4945   -0.3127 Cl  0  0  0  0  0  0  0  0  0  0  0  0
    2.3968   -1.8230   -1.1126 Cl  0  0  0  0  0  0  0  0  0  0  0  0
    2.4053   -0.9934    1.6723 Cl  0  0  0  0  0  0  0  0  0  0  0  0
   -0.0206   -0.2556   -0.0701 O   0  0  0  0  0  0  0  0  0  0  0  0
   -1.3620    1.5314   -0.6493 O   0  0  0  0  0  0  0  0  0  0  0  0
   -2.3360   -0.5726    0.0815 C   0  0  0  0  0  0  0  0  0  0  0  0
   -3.7188    0.0674   -0.0229 C   0  0  0  0  0  0  0  0  0  0  0  0
    1.1884    0.4942   -0.3193 C   0  0  0  0  0  0  0  0  0  0  0  0
   -1.2136    0.3772   -0.2727 C   0  0  0  0  0  0  0  0  0  0  0  0
   -4.8393   -0.9003    0.3321 C   0  0  0  0  0  0  0  0  0  0  0  0
    2.4103   -0.3945   -0.0175 C   0  0  0  0  0  0  0  0  0  0  0  0
  1  9  1  0
  2 12  1  0
  3 12  1  0
  4 12  1  0
  5  9  1  0
  5 10  1  0
  6 10  2  0
  7  8  1  0
  7 10  1  0
  8 11  1  0
  9 12  1  0
M  END
>  <PUBCHEM_COMPOUND_CID>  (1) 
37488

>  <PUBCHEM_CONFORMER_RMSD>  (1) 
0.6

>  <PUBCHEM_CONFORMER_DIVERSEORDER>  (1) 
1
36
43
29
9
39
14
23
42
16
33
32
37
5
15
20
35
6
40
2
34
21
28
31
8
11
30
25
18
4
22
38
17
41
12
3
26
24
27
7
13
19
10

>  <PUBCHEM_MMFF94_PARTIAL_CHARGES>  (1) 
10
1 -0.29
10 0.66
12 0.87
2 -0.29
3 -0.29
4 -0.29
5 -0.43
6 -0.57
7 0.06
9 0.57

>  <PUBCHEM_EFFECTIVE_ROTOR_COUNT>  (1) 
5

>  <PUBCHEM_PHARMACOPHORE_FEATURES>  (1) 
2
1 11 hydrophobe
1 6 acceptor

>  <PUBCHEM_HEAVY_ATOM_COUNT>  (1) 
12

>  <PUBCHEM_ATOM_DEF_STEREO_COUNT>  (1) 
0

>  <PUBCHEM_ATOM_UDEF_STEREO_COUNT>  (1) 
1

>  <PUBCHEM_BOND_DEF_STEREO_COUNT>  (1) 
0

>  <PUBCHEM_BOND_UDEF_STEREO_COUNT>  (1) 
0

>  <PUBCHEM_ISOTOPIC_ATOM_COUNT>  (1) 
0

>  <PUBCHEM_COMPONENT_COUNT>  (1) 
1

>  <PUBCHEM_CACTVS_TAUTO_COUNT>  (1) 
1

>  <PUBCHEM_CONFORMER_ID>  (1) 
0000927000000001

>  <PUBCHEM_MMFF94_ENERGY>  (1) 
11.9937

>  <PUBCHEM_FEATURE_SELFOVERLAP>  (1) 
10.148

>  <PUBCHEM_SHAPE_FINGERPRINT>  (1) 
12251169 10 18060421347965357551
12616999 72 18412554210341892974
12932764 1 18262786458593719021
14251717 144 18343021103485986015
14252887 29 18412834585416656938
20201158 50 18411704291768819846
20279233 1 17167868577392398131
20281407 28 18186802474268249145
20281475 54 18410576158753211959
20539784 86 16558735815790239002
20559304 39 18060423529429208689
20645477 70 18410290358987164015
20871998 22 18342461395915998198
22485316 2 17894908538405512523
23402539 116 17749100110559051358
23557571 272 17822291245530431156
7364860 26 18270682103053829760
8030462 33 17023476230845286750

>  <PUBCHEM_SHAPE_MULTIPOLES>  (1) 
242.69
7.7
1.69
1.09
7.9
0.27
-0.37
-2.15
-0.41
-0.91
0.1
-0.85
-0.31
0.37

>  <PUBCHEM_SHAPE_SELFOVERLAP>  (1) 
423.358

>  <PUBCHEM_SHAPE_VOLUME>  (1) 
159.6

>  <PUBCHEM_COORDINATE_TYPE>  (1) 
2
5
10

$$$$
