37489
     RDKit          3D

 14 14  0  0  0  0  0  0  0  0999 V2000
    2.6929   -0.5099   -0.4492 O   0  0  0  0  0  0  0  0  0  0  0  0
    1.4406    1.4017   -0.5394 O   0  0  0  0  0  0  0  0  0  0  0  0
    0.4618   -0.7029   -0.2027 N   0  0  0  0  0  0  0  0  0  0  0  0
    3.8547    0.1947    0.0043 C   0  0  0  0  0  0  0  0  0  0  0  0
   -0.9019   -0.4277   -0.0963 C   0  0  0  0  0  0  0  0  0  0  0  0
    3.6413    0.6379    1.4437 C   0  0  0  0  0  0  0  0  0  0  0  0
    5.0730   -0.7051   -0.1370 C   0  0  0  0  0  0  0  0  0  0  0  0
   -3.6287    0.1217    0.1162 C   0  0  0  0  0  0  0  0  0  0  0  0
   -1.8086   -1.4670    0.1123 C   0  0  0  0  0  0  0  0  0  0  0  0
   -1.3586    0.8862   -0.1987 C   0  0  0  0  0  0  0  0  0  0  0  0
   -3.1720   -1.1922    0.2185 C   0  0  0  0  0  0  0  0  0  0  0  0
   -2.7220    1.1610   -0.0924 C   0  0  0  0  0  0  0  0  0  0  0  0
    1.5140    0.1859   -0.4090 C   0  0  0  0  0  0  0  0  0  0  0  0
   -5.0866    0.4157    0.2298 C   0  0  0  0  0  0  0  0  0  0  0  0
  1  4  1  0
  1 13  1  0
  2 13  2  0
  3  5  1  0
  3 13  1  0
  4  6  1  0
  4  7  1  0
  5  9  2  0
  5 10  1  0
  8 11  2  0
  8 12  1  0
  8 14  1  0
  9 11  1  0
 10 12  2  0
M  END
>  <PUBCHEM_COMPOUND_CID>  (1) 
37489

>  <PUBCHEM_CONFORMER_RMSD>  (1) 
0.6

>  <PUBCHEM_CONFORMER_DIVERSEORDER>  (1) 
2
15
11
9
5
10
6
12
4
1
7
14
13
3
8

>  <PUBCHEM_MMFF94_PARTIAL_CHARGES>  (1) 
17
1 -0.43
10 -0.15
11 -0.15
12 -0.15
13 0.78
14 0.14
2 -0.57
22 0.15
23 0.15
24 0.37
25 0.15
26 0.15
3 -0.55
4 0.28
5 0.12
8 -0.14
9 -0.15

>  <PUBCHEM_EFFECTIVE_ROTOR_COUNT>  (1) 
4

>  <PUBCHEM_PHARMACOPHORE_FEATURES>  (1) 
4
1 2 acceptor
1 3 donor
3 4 6 7 hydrophobe
6 5 8 9 10 11 12 rings

>  <PUBCHEM_HEAVY_ATOM_COUNT>  (1) 
14

>  <PUBCHEM_ATOM_DEF_STEREO_COUNT>  (1) 
0

>  <PUBCHEM_ATOM_UDEF_STEREO_COUNT>  (1) 
0

>  <PUBCHEM_BOND_DEF_STEREO_COUNT>  (1) 
0

>  <PUBCHEM_BOND_UDEF_STEREO_COUNT>  (1) 
0

>  <PUBCHEM_ISOTOPIC_ATOM_COUNT>  (1) 
0

>  <PUBCHEM_COMPONENT_COUNT>  (1) 
1

>  <PUBCHEM_CACTVS_TAUTO_COUNT>  (1) 
2

>  <PUBCHEM_CONFORMER_ID>  (1) 
0000927100000002

>  <PUBCHEM_MMFF94_ENERGY>  (1) 
35.867

>  <PUBCHEM_FEATURE_SELFOVERLAP>  (1) 
20.297

>  <PUBCHEM_SHAPE_FINGERPRINT>  (1) 
11132069 177 18411983572470663093
11401426 45 18413666912025042925
114248 4 7997965773842866942
12119455 92 17346597469536877799
12236239 1 17313106345270392036
12251169 10 18333732424748187093
124424 183 18411419518204251005
13380535 76 18410296900080210215
13675066 3 18341051899339862042
15042514 8 18263932193171945595
15242439 84 18202285792742062118
17802600 8 18408601465950562117
17804303 29 18409171034116004292
17834072 33 18041286555929234716
17846911 113 18413670210401781057
18186145 218 17240759639819705958
18522853 276 18411983554921853569
200 152 17203605986824218367
20279233 1 17918001576332943639
20645477 56 18343304751868706767
20645477 70 12973872690294634920
21267235 1 18334586732340239631
23402539 116 18343858914472112597
23559900 14 18342739628841162210
351380 180 17704068490941507976
3545911 37 18411703166693097191
42 15 18335421261924119514
474 4 16372709576936915308
5104073 3 18336830899917802561
69090 78 18201997742117855887
7364860 26 18198062478043258510

>  <PUBCHEM_SHAPE_MULTIPOLES>  (1) 
271.39
10.1
1.28
0.81
3.86
0.08
-0.2
0.03
-1.32
-0.51
0.01
0.57
-0.12
0.37

>  <PUBCHEM_SHAPE_SELFOVERLAP>  (1) 
551.442

>  <PUBCHEM_SHAPE_VOLUME>  (1) 
158

>  <PUBCHEM_COORDINATE_TYPE>  (1) 
2
5
10

$$$$
