37494
     RDKit          3D

 18 19  0  0  1  0  0  0  0  0999 V2000
   -0.5163   -2.1873    1.7045 Cl  0  0  0  0  0  0  0  0  0  0  0  0
    3.9631   -1.2488   -1.5470 Cl  0  0  0  0  0  0  0  0  0  0  0  0
    3.8039    1.7288    1.0389 O   0  0  0  0  0  0  0  0  0  0  0  0
    5.0341   -0.1659    0.8867 O   0  0  0  0  0  0  0  0  0  0  0  0
   -2.3717   -0.2219    0.2005 C   0  0  0  0  0  0  0  0  0  0  0  0
   -3.1345   -0.5885   -1.0846 C   0  0  0  0  0  0  0  0  0  0  0  0
   -2.9367    1.0641    0.8287 C   0  0  0  0  0  0  0  0  0  0  0  0
   -4.6374   -0.6942   -0.8308 C   0  0  0  0  0  0  0  0  0  0  0  0
   -4.4404    0.9516    1.0744 C   0  0  0  0  0  0  0  0  0  0  0  0
   -5.1929    0.5792   -0.1998 C   0  0  0  0  0  0  0  0  0  0  0  0
   -0.8761   -0.1244   -0.0394 C   0  0  0  0  0  0  0  0  0  0  0  0
    0.0246   -0.9749    0.6013 C   0  0  0  0  0  0  0  0  0  0  0  0
   -0.4100    0.8460   -0.9260 C   0  0  0  0  0  0  0  0  0  0  0  0
    1.3925   -0.8547    0.3553 C   0  0  0  0  0  0  0  0  0  0  0  0
    0.9576    0.9662   -1.1720 C   0  0  0  0  0  0  0  0  0  0  0  0
    1.8589    0.1159   -0.5314 C   0  0  0  0  0  0  0  0  0  0  0  0
    3.3211    0.2452   -0.7947 C   0  0  0  0  0  0  0  0  0  0  0  0
    4.1602    0.5636    0.4354 C   0  0  0  0  0  0  0  0  0  0  0  0
  1 12  1  0
  2 17  1  0
  3 18  1  0
  4 18  2  0
  5  6  1  0
  5  7  1  0
  5 11  1  0
  6  8  1  0
  7  9  1  0
  8 10  1  0
  9 10  1  0
 11 12  2  0
 11 13  1  0
 12 14  1  0
 13 15  2  0
 14 16  2  0
 15 16  1  0
 16 17  1  0
 17 18  1  0
M  END
>  <PUBCHEM_COMPOUND_CID>  (1) 
37494

>  <PUBCHEM_CONFORMER_RMSD>  (1) 
0.6

>  <PUBCHEM_CONFORMER_DIVERSEORDER>  (1) 
1
48
41
60
50
46
25
12
55
32
16
36
28
54
61
40
27
24
67
42
38
65
34
39
19
8
31
5
59
62
51
30
63
56
15
66
53
13
57
23
9
33
4
7
52
49
11
68
29
20
47
58
64
22
26
14
37
3
45
35
18
17
2
43
44
6
10
21

>  <PUBCHEM_MMFF94_PARTIAL_CHARGES>  (1) 
17
1 -0.18
11 -0.14
12 0.18
13 -0.15
14 -0.15
15 -0.15
16 -0.14
17 0.49
18 0.66
2 -0.29
3 -0.65
30 0.15
31 0.15
32 0.15
34 0.5
4 -0.57
5 0.14

>  <PUBCHEM_EFFECTIVE_ROTOR_COUNT>  (1) 
4.2

>  <PUBCHEM_PHARMACOPHORE_FEATURES>  (1) 
5
1 3 acceptor
1 4 acceptor
3 3 4 18 anion
6 11 12 13 14 15 16 rings
6 5 6 7 8 9 10 rings

>  <PUBCHEM_HEAVY_ATOM_COUNT>  (1) 
18

>  <PUBCHEM_ATOM_DEF_STEREO_COUNT>  (1) 
0

>  <PUBCHEM_ATOM_UDEF_STEREO_COUNT>  (1) 
1

>  <PUBCHEM_BOND_DEF_STEREO_COUNT>  (1) 
0

>  <PUBCHEM_BOND_UDEF_STEREO_COUNT>  (1) 
0

>  <PUBCHEM_ISOTOPIC_ATOM_COUNT>  (1) 
0

>  <PUBCHEM_COMPONENT_COUNT>  (1) 
1

>  <PUBCHEM_CACTVS_TAUTO_COUNT>  (1) 
1

>  <PUBCHEM_CONFORMER_ID>  (1) 
0000927600000001

>  <PUBCHEM_MMFF94_ENERGY>  (1) 
36.6674

>  <PUBCHEM_FEATURE_SELFOVERLAP>  (1) 
25.432

>  <PUBCHEM_SHAPE_FINGERPRINT>  (1) 
10366900 7 18342463672908288304
11132069 177 18186522120009081263
11287383 113 17489586783475668487
11370993 70 17632579348583838799
11401426 45 18261106387704675917
11543360 7 17489587882982086495
11796584 16 16917073213687085887
12107183 9 16982673225278816082
12236239 1 18412825772892565951
124424 183 15719389547125757181
12592029 89 16805601447607487275
12670546 56 17917431977791064901
12916748 109 18202570579254531035
13140716 1 17677904611115658880
13167823 11 17632579327235446783
13533116 47 18336259051520436146
13583140 156 16917062304274831414
13675066 3 18410866451260825605
13760787 19 16702018686279660190
13760787 5 16950285126149954734
13862211 1 17749103396167087947
14289901 80 17560801060811783278
15209294 21 18410857620676514729
15309172 13 17676210173613667219
15848702 151 18130790031749735524
16752209 62 17458337503594826516
16945 1 17821733840326813598
17349148 13 17894347782689658631
17834072 33 17703788136919580589
18186145 218 18334017185258873702
19026448 4 17489594454266140926
19026448 5 17561367266086534614
200 152 18259700112791621341
20279233 1 16225769593249381539
204376 136 17676492760929047803
20645477 70 16917077611870415574
22182313 1 17387117681334996622
23402539 116 18409161125816233189
23536379 177 17561085769635117287
23557571 272 16988852678406422281
23559900 14 17203332178543648326
296302 2 16845577517203260901
312423 11 13397814691166210524
34797466 226 16486417714484432653
351380 180 18131349717581071160
4072396 5 17095792257286542433
4340502 62 17203322330131131494
465052 167 16081382850890865009
474 4 18340484594384970416
5104073 3 17489594437218705779
633830 44 18336272287997283789
69090 78 18343581858410334830
7164475 11 13613701570239532514
7495541 125 15913037751075660379
77779 3 17632861914645350101
9971528 1 18411987948953037708
9981440 41 17263267931542324185

>  <PUBCHEM_SHAPE_MULTIPOLES>  (1) 
362.43
10.46
1.54
1.43
1.05
0.95
-0.09
-1.79
0.54
-0.16
0.35
-0.44
-0.07
0.11

>  <PUBCHEM_SHAPE_SELFOVERLAP>  (1) 
739.047

>  <PUBCHEM_SHAPE_VOLUME>  (1) 
211.4

>  <PUBCHEM_COORDINATE_TYPE>  (1) 
2
5
10

$$$$
