37509
     RDKit          3D

  9  8  0  0  0  0  0  0  0  0999 V2000
   -0.9390   -0.4208    0.5521 O   0  0  0  0  0  0  0  0  0  0  0  0
    1.5473    0.9484   -1.2564 O   0  0  0  0  0  0  0  0  0  0  0  0
    0.3845   -0.6821    0.1060 C   0  0  0  0  0  0  0  0  0  0  0  0
    0.3048   -1.5179   -1.1719 C   0  0  0  0  0  0  0  0  0  0  0  0
    1.1141   -1.4543    1.2013 C   0  0  0  0  0  0  0  0  0  0  0  0
    1.0914    0.6545   -0.1497 C   0  0  0  0  0  0  0  0  0  0  0  0
   -1.6805    0.3121   -0.4140 C   0  0  0  0  0  0  0  0  0  0  0  0
    1.2536    1.6024    1.0145 C   0  0  0  0  0  0  0  0  0  0  0  0
   -3.0762    0.5578    0.1182 C   0  0  0  0  0  0  0  0  0  0  0  0
  1  3  1  0
  1  7  1  0
  2  6  2  0
  3  4  1  0
  3  5  1  0
  3  6  1  0
  6  8  1  0
  7  9  1  0
M  END
>  <PUBCHEM_COMPOUND_CID>  (1) 
37509

>  <PUBCHEM_CONFORMER_RMSD>  (1) 
0.6

>  <PUBCHEM_CONFORMER_DIVERSEORDER>  (1) 
1
7
4
6
2
3
5

>  <PUBCHEM_MMFF94_PARTIAL_CHARGES>  (1) 
6
1 -0.56
2 -0.57
3 0.34
6 0.45
7 0.28
8 0.06

>  <PUBCHEM_EFFECTIVE_ROTOR_COUNT>  (1) 
3

>  <PUBCHEM_PHARMACOPHORE_FEATURES>  (1) 
3
1 1 acceptor
1 2 acceptor
3 3 4 5 hydrophobe

>  <PUBCHEM_HEAVY_ATOM_COUNT>  (1) 
9

>  <PUBCHEM_ATOM_DEF_STEREO_COUNT>  (1) 
0

>  <PUBCHEM_ATOM_UDEF_STEREO_COUNT>  (1) 
0

>  <PUBCHEM_BOND_DEF_STEREO_COUNT>  (1) 
0

>  <PUBCHEM_BOND_UDEF_STEREO_COUNT>  (1) 
0

>  <PUBCHEM_ISOTOPIC_ATOM_COUNT>  (1) 
0

>  <PUBCHEM_COMPONENT_COUNT>  (1) 
1

>  <PUBCHEM_CACTVS_TAUTO_COUNT>  (1) 
2

>  <PUBCHEM_CONFORMER_ID>  (1) 
0000928500000001

>  <PUBCHEM_MMFF94_ENERGY>  (1) 
21.4808

>  <PUBCHEM_FEATURE_SELFOVERLAP>  (1) 
15.223

>  <PUBCHEM_SHAPE_FINGERPRINT>  (1) 
137420 1 7940810286050541754
20653091 64 18043255647609474369
21040471 1 18263645241325279729
23552449 11 18264479599205562843
29004967 10 18055062160566566467
5084963 1 18191318271238749741
5943 1 15656930384407943126

>  <PUBCHEM_SHAPE_MULTIPOLES>  (1) 
173.48
2.84
1.67
1.23
3.21
0.01
0.07
0.84
-0.2
-0.88
-0.09
-0.56
-0.17
-0.17

>  <PUBCHEM_SHAPE_SELFOVERLAP>  (1) 
322.91

>  <PUBCHEM_SHAPE_VOLUME>  (1) 
110.3

>  <PUBCHEM_COORDINATE_TYPE>  (1) 
2
5
10

$$$$
