37502
     RDKit          3D

  6  5  0  0  0  0  0  0  0  0999 V2000
   -3.0761    0.0121    0.0611 Br  0  0  0  0  0  0  0  0  0  0  0  0
    1.7407   -1.4406    0.3434 Cl  0  0  0  0  0  0  0  0  0  0  0  0
    1.6905    1.4746    0.3386 Cl  0  0  0  0  0  0  0  0  0  0  0  0
   -0.3446   -0.0200   -0.7455 C   0  0  0  0  0  0  0  0  0  0  0  0
    1.1712    0.0061   -0.5254 C   0  0  0  0  0  0  0  0  0  0  0  0
   -1.1818   -0.0321    0.5278 C   0  0  0  0  0  0  0  0  0  0  0  0
  1  6  1  0
  2  5  1  0
  3  5  1  0
  4  5  1  0
  4  6  1  0
M  END
>  <PUBCHEM_COMPOUND_CID>  (1) 
37502

>  <PUBCHEM_CONFORMER_RMSD>  (1) 
0.4

>  <PUBCHEM_CONFORMER_DIVERSEORDER>  (1) 
1
6
5
7
3
8
2
4

>  <PUBCHEM_MMFF94_PARTIAL_CHARGES>  (1) 
5
1 -0.23
2 -0.29
3 -0.29
5 0.58
6 0.23

>  <PUBCHEM_EFFECTIVE_ROTOR_COUNT>  (1) 
2

>  <PUBCHEM_PHARMACOPHORE_FEATURES>  (1) 
1
1 1 hydrophobe

>  <PUBCHEM_HEAVY_ATOM_COUNT>  (1) 
6

>  <PUBCHEM_ATOM_DEF_STEREO_COUNT>  (1) 
0

>  <PUBCHEM_ATOM_UDEF_STEREO_COUNT>  (1) 
0

>  <PUBCHEM_BOND_DEF_STEREO_COUNT>  (1) 
0

>  <PUBCHEM_BOND_UDEF_STEREO_COUNT>  (1) 
0

>  <PUBCHEM_ISOTOPIC_ATOM_COUNT>  (1) 
0

>  <PUBCHEM_COMPONENT_COUNT>  (1) 
1

>  <PUBCHEM_CACTVS_TAUTO_COUNT>  (1) 
1

>  <PUBCHEM_CONFORMER_ID>  (1) 
0000927E00000001

>  <PUBCHEM_MMFF94_ENERGY>  (1) 
2.6673

>  <PUBCHEM_FEATURE_SELFOVERLAP>  (1) 
5.074

>  <PUBCHEM_SHAPE_FINGERPRINT>  (1) 
12932764 1 18410582786103852263
14390081 3 18201161056782159585
20096714 4 17917153926061765580
20711978 78 18336815412355539830
21040471 1 18120099639180518700
23552333 60 18130792260684761809
23552449 11 18410008801899626923
24536 1 17168153368099626837
29004967 10 17967537882341655117
5084963 1 16343155631604172919
5460574 1 9439409003987472765
5943 1 13966163199440452534

>  <PUBCHEM_SHAPE_MULTIPOLES>  (1) 
133.16
3.97
1.37
0.86
3.35
0.04
0.04
-0.02
-0.42
-1.25
-0.24
-0.01
0
0

>  <PUBCHEM_SHAPE_SELFOVERLAP>  (1) 
203.893

>  <PUBCHEM_SHAPE_VOLUME>  (1) 
96.3

>  <PUBCHEM_COORDINATE_TYPE>  (1) 
2
5
10

$$$$
