37515
     RDKit          3D

 21 22  0  0  0  0  0  0  0  0999 V2000
   -1.4672   -3.0985    0.0004 O   0  0  0  0  0  0  0  0  0  0  0  0
    0.5028   -2.1298   -0.0003 O   0  0  0  0  0  0  0  0  0  0  0  0
   -5.3998    1.6779   -0.0005 O   0  0  0  0  0  0  0  0  0  0  0  0
   -5.4902   -0.5155   -0.0001 O   0  0  0  0  0  0  0  0  0  0  0  0
    5.6366    0.2918    1.0976 O   0  0  0  0  0  0  0  0  0  0  0  0
    5.6367    0.2904   -1.0976 O   0  0  0  0  0  0  0  0  0  0  0  0
   -0.7487   -2.0724    0.0003 N   0  0  0  0  0  0  0  0  0  0  0  0
   -4.8376    0.5561   -0.0001 N   0  0  0  0  0  0  0  0  0  0  0  0
    5.0287    0.3003    0.0000 N   0  0  0  0  0  0  0  0  0  0  0  0
   -0.6271    0.3844    0.0000 C   0  0  0  0  0  0  0  0  0  0  0  0
    0.8194    0.3630    0.0000 C   0  0  0  0  0  0  0  0  0  0  0  0
   -1.3773   -0.7943    0.0004 C   0  0  0  0  0  0  0  0  0  0  0  0
   -1.2791    1.6197   -0.0002 C   0  0  0  0  0  0  0  0  0  0  0  0
    1.5167    0.3530    1.2080 C   0  0  0  0  0  0  0  0  0  0  0  0
    1.5167    0.3523   -1.2080 C   0  0  0  0  0  0  0  0  0  0  0  0
   -2.7709   -0.7377    0.0005 C   0  0  0  0  0  0  0  0  0  0  0  0
   -3.4187    0.4977    0.0001 C   0  0  0  0  0  0  0  0  0  0  0  0
   -2.6727    1.6764   -0.0002 C   0  0  0  0  0  0  0  0  0  0  0  0
    2.9114    0.3322    1.2079 C   0  0  0  0  0  0  0  0  0  0  0  0
    2.9115    0.3314   -1.2080 C   0  0  0  0  0  0  0  0  0  0  0  0
    3.6088    0.3213   -0.0001 C   0  0  0  0  0  0  0  0  0  0  0  0
  1  7  1  0
  2  7  2  0
  3  8  1  0
  4  8  2  0
  5  9  1  0
  6  9  2  0
  7 12  1  0
  8 17  1  0
  9 21  1  0
 10 11  1  0
 10 12  2  0
 10 13  1  0
 11 14  2  0
 11 15  1  0
 12 16  1  0
 13 18  2  0
 14 19  1  0
 15 20  2  0
 16 17  2  0
 17 18  1  0
 19 21  2  0
 20 21  1  0
M  CHG  6   1  -1   3  -1   5  -1   7   1   8   1   9   1
M  END
>  <PUBCHEM_COMPOUND_CID>  (1) 
37515

>  <PUBCHEM_CONFORMER_RMSD>  (1) 
0.6

>  <PUBCHEM_CONFORMER_DIVERSEORDER>  (1) 
1

>  <PUBCHEM_MMFF94_PARTIAL_CHARGES>  (1) 
26
1 -0.52
12 0.13
13 -0.15
14 -0.15
15 -0.15
16 -0.15
17 0.13
18 -0.15
19 -0.15
2 -0.52
20 -0.15
21 0.13
22 0.15
23 0.15
24 0.15
25 0.15
26 0.15
27 0.15
28 0.15
3 -0.52
4 -0.52
5 -0.52
6 -0.52
7 0.91
8 0.91
9 0.91

>  <PUBCHEM_EFFECTIVE_ROTOR_COUNT>  (1) 
4

>  <PUBCHEM_PHARMACOPHORE_FEATURES>  (1) 
11
1 1 acceptor
1 1 anion
1 2 acceptor
1 3 acceptor
1 3 anion
1 4 acceptor
1 5 acceptor
1 5 anion
1 6 acceptor
6 10 12 13 16 17 18 rings
6 11 14 15 19 20 21 rings

>  <PUBCHEM_HEAVY_ATOM_COUNT>  (1) 
21

>  <PUBCHEM_ATOM_DEF_STEREO_COUNT>  (1) 
0

>  <PUBCHEM_ATOM_UDEF_STEREO_COUNT>  (1) 
0

>  <PUBCHEM_BOND_DEF_STEREO_COUNT>  (1) 
0

>  <PUBCHEM_BOND_UDEF_STEREO_COUNT>  (1) 
0

>  <PUBCHEM_ISOTOPIC_ATOM_COUNT>  (1) 
0

>  <PUBCHEM_COMPONENT_COUNT>  (1) 
1

>  <PUBCHEM_CACTVS_TAUTO_COUNT>  (1) 
1

>  <PUBCHEM_CONFORMER_ID>  (1) 
0000928B00000001

>  <PUBCHEM_MMFF94_ENERGY>  (1) 
83.1546

>  <PUBCHEM_FEATURE_SELFOVERLAP>  (1) 
56.07

>  <PUBCHEM_SHAPE_FINGERPRINT>  (1) 
11963148 33 18262795289680859779
12236239 1 17676487250354098984
12390115 104 18128546976648415577
12403259 415 18343575244419480129
12500047 106 18341609339187891606
12592029 89 18113621144860642370
13140716 1 18194405713270377585
13533116 47 18059295345327927238
13862211 1 18410008884126627575
14115302 16 18410017671313113284
14386348 63 17703794725499697756
15042514 8 18264212576999992771
15099037 51 18411139147013185909
15196674 1 18338517435249726403
15375358 24 17847063298533691606
16945 1 18410574015596036835
1813 80 16660924358336525214
187816 3 18060422408484858041
19784866 170 18335704893412386193
200 152 16370442258978990893
20028762 73 17985830557022419879
20279233 1 17775011201842945092
20510252 161 18271808964985919753
20645477 56 18411138047775955564
20645477 70 16415207733064816508
20681677 155 18261673761585220978
22224240 67 18412830188303601921
23175994 123 17131838685346983280
23366157 5 17754742628450842659
23402539 116 18342733031302189885
23557571 272 18130229375214281327
23559900 14 18272373096856693748
23598288 3 17899433139922339767
26918003 58 13326853339953760245
2916195 48 18060129951224251537
3004659 81 18337676313793231230
34797466 226 18201451315405120236
350125 39 18121501254323023895
351380 180 18059853969652974408
366044 4 18410011031225017387
3759504 43 18113621209311746251
474 4 16951980676708333708
474229 33 18409448090114699191
4990 188 17775569723732608997
5104073 3 18262240048501800680
542803 24 17749391459650075788
59755656 215 18341055120913708422
69090 78 17489584576078763103
7364860 26 18055633911108632319
77492 1 17676202511407711840
8272917 22 16805600305256995145

>  <PUBCHEM_SHAPE_MULTIPOLES>  (1) 
382.01
10.95
1.85
0.98
2.29
1.44
0
-3.18
0
-1.92
0
1.22
-0.13
0

>  <PUBCHEM_SHAPE_SELFOVERLAP>  (1) 
839.021

>  <PUBCHEM_SHAPE_VOLUME>  (1) 
206.8

>  <PUBCHEM_COORDINATE_TYPE>  (1) 
2
5
10

$$$$
