37518
     RDKit          3D

 25 27  0  0  0  0  0  0  0  0999 V2000
   -5.1221   -1.1710    0.0936 F   0  0  0  0  0  0  0  0  0  0  0  0
   -5.0019    0.7894    1.0257 F   0  0  0  0  0  0  0  0  0  0  0  0
   -4.9746    0.6158   -1.1475 F   0  0  0  0  0  0  0  0  0  0  0  0
    3.3647    4.2048   -0.3394 O   0  0  0  0  0  0  0  0  0  0  0  0
    3.3630   -4.1801    0.3373 O   0  0  0  0  0  0  0  0  0  0  0  0
   -2.2442    1.0615   -0.0845 N   0  0  0  0  0  0  0  0  0  0  0  0
   -2.3133   -1.1510    0.0935 N   0  0  0  0  0  0  0  0  0  0  0  0
   -0.9422    0.6480   -0.0517 C   0  0  0  0  0  0  0  0  0  0  0  0
   -1.0135   -0.7186    0.0587 C   0  0  0  0  0  0  0  0  0  0  0  0
    0.1681    1.5645   -0.1257 C   0  0  0  0  0  0  0  0  0  0  0  0
    0.1114   -1.6083    0.1304 C   0  0  0  0  0  0  0  0  0  0  0  0
   -3.0308   -0.0530    0.0056 C   0  0  0  0  0  0  0  0  0  0  0  0
    0.7058    1.9109   -1.3656 C   0  0  0  0  0  0  0  0  0  0  0  0
    0.7057    2.1060    1.0425 C   0  0  0  0  0  0  0  0  0  0  0  0
    0.6579   -1.9430    1.3691 C   0  0  0  0  0  0  0  0  0  0  0  0
    0.6574   -2.1377   -1.0390 C   0  0  0  0  0  0  0  0  0  0  0  0
   -4.5021    0.0423   -0.0028 C   0  0  0  0  0  0  0  0  0  0  0  0
    1.7800    2.7978   -1.4374 C   0  0  0  0  0  0  0  0  0  0  0  0
    1.7799    2.9929    0.9709 C   0  0  0  0  0  0  0  0  0  0  0  0
    2.3171    3.3390   -0.2691 C   0  0  0  0  0  0  0  0  0  0  0  0
    1.7507   -2.8072    1.4386 C   0  0  0  0  0  0  0  0  0  0  0  0
    1.7501   -3.0019   -0.9695 C   0  0  0  0  0  0  0  0  0  0  0  0
    2.2967   -3.3368    0.2693 C   0  0  0  0  0  0  0  0  0  0  0  0
    3.8648    4.7205    0.8934 C   0  0  0  0  0  0  0  0  0  0  0  0
    3.8713   -4.6848   -0.8966 C   0  0  0  0  0  0  0  0  0  0  0  0
  1 17  1  0
  2 17  1  0
  3 17  1  0
  4 20  1  0
  4 24  1  0
  5 23  1  0
  5 25  1  0
  6  8  1  0
  6 12  1  0
  7  9  1  0
  7 12  2  0
  8  9  2  0
  8 10  1  0
  9 11  1  0
 10 13  2  0
 10 14  1  0
 11 15  2  0
 11 16  1  0
 12 17  1  0
 13 18  1  0
 14 19  2  0
 15 21  1  0
 16 22  2  0
 18 20  2  0
 19 20  1  0
 21 23  2  0
 22 23  1  0
M  END
>  <PUBCHEM_COMPOUND_CID>  (1) 
37518

>  <PUBCHEM_CONFORMER_RMSD>  (1) 
0.8

>  <PUBCHEM_CONFORMER_DIVERSEORDER>  (1) 
1
2

>  <PUBCHEM_MMFF94_PARTIAL_CHARGES>  (1) 
34
1 -0.34
10 0.05
11 0.05
12 0.01
13 -0.15
14 -0.15
15 -0.15
16 -0.15
17 1.2
18 -0.15
19 -0.15
2 -0.34
20 0.08
21 -0.15
22 -0.15
23 0.08
24 0.28
25 0.28
26 0.27
27 0.15
28 0.15
29 0.15
3 -0.34
30 0.15
31 0.15
32 0.15
33 0.15
34 0.15
4 -0.36
5 -0.36
6 0.03
7 -0.57
8 -0.2
9 0.17

>  <PUBCHEM_EFFECTIVE_ROTOR_COUNT>  (1) 
5

>  <PUBCHEM_PHARMACOPHORE_FEATURES>  (1) 
7
1 4 acceptor
1 5 acceptor
1 6 donor
3 6 7 12 cation
5 6 7 8 9 12 rings
6 10 13 14 18 19 20 rings
6 11 15 16 21 22 23 rings

>  <PUBCHEM_HEAVY_ATOM_COUNT>  (1) 
25

>  <PUBCHEM_ATOM_DEF_STEREO_COUNT>  (1) 
0

>  <PUBCHEM_ATOM_UDEF_STEREO_COUNT>  (1) 
0

>  <PUBCHEM_BOND_DEF_STEREO_COUNT>  (1) 
0

>  <PUBCHEM_BOND_UDEF_STEREO_COUNT>  (1) 
0

>  <PUBCHEM_ISOTOPIC_ATOM_COUNT>  (1) 
0

>  <PUBCHEM_COMPONENT_COUNT>  (1) 
1

>  <PUBCHEM_CACTVS_TAUTO_COUNT>  (1) 
1

>  <PUBCHEM_CONFORMER_ID>  (1) 
0000928E00000001

>  <PUBCHEM_MMFF94_ENERGY>  (1) 
74.2088

>  <PUBCHEM_FEATURE_SELFOVERLAP>  (1) 
35.522

>  <PUBCHEM_SHAPE_FINGERPRINT>  (1) 
10050765 1 18410575081644640609
10162869 55 17405715775709902041
10411042 1 18122345675127558735
107951 10 17460884148876728216
11045515 52 17973169430607034103
11049842 53 17899435339436174076
11477941 20 17982445993912199462
11578080 2 17241592936732395327
11582403 64 15766361911845479689
12160290 23 17116666756128038887
12500047 106 17835801176755879736
12788726 201 17039210027421967981
13140716 1 18265901434932758936
133893 2 18337687338330533289
13540713 4 18114180840157001367
13540713 5 18131070433970968011
13681431 1 18338520725015177859
138480 1 18338517426638484942
14347424 109 18267044829549875419
14508225 48 17979344270776169455
15042514 8 16967737948932389907
15230672 131 18119815970547275764
15439362 3 18409442605341521349
15927050 60 18126008397393911678
15961568 22 18266734685350218306
167882 2 18410287034508267117
17913733 40 18122647178005659403
17980427 23 17772465691034016813
17980427 26 18343015639939582413
1813 80 18126572210983769391
20238998 120 18051691040509245140
20554085 129 17985251118177476145
20567600 347 18121221141188835647
20600515 1 17625268502713465997
21033650 10 17112441930656321110
21120745 212 17763481521324942702
21133410 230 17175510291171201570
21304253 13 18051979108788262993
21304303 172 17696470685706453545
21796203 349 17906776589543746595
22956985 138 18187926230702451802
23366157 5 18260832600882948679
23419403 2 17751894991870724637
23557571 272 17692810389374053839
23559900 14 18336820897677765955
23728640 28 17543627990655874296
249999 5 18410578418079940347
283562 15 17613443237808515818
3091708 16 9255739984234285971
4017518 198 18195806500191213060
5265222 85 18119543278235249764
532947 4 18411143567061911414
5385378 56 18338525235142665785
58260988 114 15578915030748851168
621550 5 17699559247870087874
6669772 16 18197221558201332356
6700243 42 17196877877949092030
7364860 26 18412544310410431883
7399639 24 17840285741441856266
77188 2 18195246607325902894
81228 2 17475240102622506203
9981440 41 18120657091781594953

>  <PUBCHEM_SHAPE_MULTIPOLES>  (1) 
470.97
7.52
7.19
1.26
11.18
1.54
-0.01
-1.7
0.03
-14.64
-0.03
-0.53
-0.02
0.66

>  <PUBCHEM_SHAPE_SELFOVERLAP>  (1) 
1033.45

>  <PUBCHEM_SHAPE_VOLUME>  (1) 
259.9

>  <PUBCHEM_COORDINATE_TYPE>  (1) 
2
5
10

$$$$
