37513
     RDKit          3D

  7  7  0  0  0  0  0  0  0  0999 V2000
    0.9628    1.5383   -0.0057 S   0  0  0  0  0  0  0  0  0  0  0  0
   -1.0767    1.4765    0.0058 S   0  0  0  0  0  0  0  0  0  0  0  0
    2.4378   -0.7666    0.0020 N   0  0  0  0  0  0  0  0  0  0  0  0
   -2.3686   -0.8353   -0.0028 N   0  0  0  0  0  0  0  0  0  0  0  0
    1.1900   -0.2037    0.0000 C   0  0  0  0  0  0  0  0  0  0  0  0
    0.0741   -0.9533    0.0007 C   0  0  0  0  0  0  0  0  0  0  0  0
   -1.2193   -0.2559   -0.0002 C   0  0  0  0  0  0  0  0  0  0  0  0
  1  2  1  0
  1  5  1  0
  2  7  1  0
  3  5  1  0
  4  7  2  0
  5  6  2  0
  6  7  1  0
M  END
>  <PUBCHEM_COMPOUND_CID>  (1) 
37513

>  <PUBCHEM_CONFORMER_RMSD>  (1) 
0.4

>  <PUBCHEM_CONFORMER_DIVERSEORDER>  (1) 
1

>  <PUBCHEM_MMFF94_PARTIAL_CHARGES>  (1) 
11
1 -0.1
10 0.4
11 0.4
2 -0.14
3 -0.9
4 -0.85
5 0.2
6 -0.14
7 0.58
8 0.15
9 0.4

>  <PUBCHEM_EFFECTIVE_ROTOR_COUNT>  (1) 
0

>  <PUBCHEM_PHARMACOPHORE_FEATURES>  (1) 
5
1 3 cation
1 3 donor
1 4 acceptor
1 4 donor
5 1 2 5 6 7 rings

>  <PUBCHEM_HEAVY_ATOM_COUNT>  (1) 
7

>  <PUBCHEM_ATOM_DEF_STEREO_COUNT>  (1) 
0

>  <PUBCHEM_ATOM_UDEF_STEREO_COUNT>  (1) 
0

>  <PUBCHEM_BOND_DEF_STEREO_COUNT>  (1) 
0

>  <PUBCHEM_BOND_UDEF_STEREO_COUNT>  (1) 
0

>  <PUBCHEM_ISOTOPIC_ATOM_COUNT>  (1) 
0

>  <PUBCHEM_COMPONENT_COUNT>  (1) 
1

>  <PUBCHEM_CACTVS_TAUTO_COUNT>  (1) 
2

>  <PUBCHEM_CONFORMER_ID>  (1) 
0000928900000001

>  <PUBCHEM_MMFF94_ENERGY>  (1) 
5.7391

>  <PUBCHEM_FEATURE_SELFOVERLAP>  (1) 
25.371

>  <PUBCHEM_SHAPE_FINGERPRINT>  (1) 
16714656 1 18122348973603952124
18185500 45 18263926544513828632
20096714 4 18051414259931451148
21040471 1 17762055844974064521
23552423 10 18116723902413402630
23552449 1 18267581317054419376
29004967 10 18262521536289111441
5084963 1 18273215304618311018

>  <PUBCHEM_SHAPE_MULTIPOLES>  (1) 
141.79
2.67
1.67
0.62
0.09
0.67
0
-0.8
0
-0.04
0
0
0.06
0

>  <PUBCHEM_SHAPE_SELFOVERLAP>  (1) 
261.151

>  <PUBCHEM_SHAPE_VOLUME>  (1) 
90.9

>  <PUBCHEM_COORDINATE_TYPE>  (1) 
2
5
10

$$$$
