37522
     RDKit          3D

 14 14  0  0  0  0  0  0  0  0999 V2000
    0.2464   -0.6871    0.3697 S   0  0  0  0  0  0  0  0  0  0  0  0
   -2.3927   -0.6652    0.4242 O   0  0  0  0  0  0  0  0  0  0  0  0
    3.5601    1.0035    0.4490 O   0  0  0  0  0  0  0  0  0  0  0  0
   -1.3945    1.0644   -0.7063 O   0  0  0  0  0  0  0  0  0  0  0  0
   -3.6762   -0.1225    0.1119 C   0  0  0  0  0  0  0  0  0  0  0  0
   -3.7741    1.2759    0.7199 C   0  0  0  0  0  0  0  0  0  0  0  0
   -3.8242   -0.0675   -1.4079 C   0  0  0  0  0  0  0  0  0  0  0  0
   -4.7275   -1.0477    0.7211 C   0  0  0  0  0  0  0  0  0  0  0  0
   -1.3140    0.0326   -0.0499 C   0  0  0  0  0  0  0  0  0  0  0  0
    1.3754    0.4883   -0.4089 C   0  0  0  0  0  0  0  0  0  0  0  0
    2.8074    0.0920   -0.1923 C   0  0  0  0  0  0  0  0  0  0  0  0
    3.5012   -1.0225   -0.5221 C   0  0  0  0  0  0  0  0  0  0  0  0
    4.8142   -0.7950   -0.0455 C   0  0  0  0  0  0  0  0  0  0  0  0
    4.7985    0.4508    0.5371 C   0  0  0  0  0  0  0  0  0  0  0  0
  1  9  1  0
  1 10  1  0
  2  5  1  0
  2  9  1  0
  3 11  1  0
  3 14  1  0
  4  9  2  0
  5  6  1  0
  5  7  1  0
  5  8  1  0
 10 11  1  0
 11 12  2  0
 12 13  1  0
 13 14  2  0
M  END
>  <PUBCHEM_COMPOUND_CID>  (1) 
37522

>  <PUBCHEM_CONFORMER_RMSD>  (1) 
0.6

>  <PUBCHEM_CONFORMER_DIVERSEORDER>  (1) 
1
25
71
108
115
105
75
100
94
107
93
11
117
37
92
101
88
77
34
85
13
38
73
104
8
111
124
50
31
125
46
49
27
21
80
23
98
40
16
84
33
118
69
63
44
5
110
20
52
45
119
91
6
35
54
129
15
82
76
56
32
126
79
48
72
57
36
113
74
2
47
4
122
28
123
87
9
96
70
12
22
7
127
102
89
39
3
103
65
18
10
67
86
99
29
58
120
114
112
66
121
53
43
42
51
14
59
78
61
68
64
90
128
116
81
17
24
60
55
62
95
109
19
106
41
83
97
30
26

>  <PUBCHEM_MMFF94_PARTIAL_CHARGES>  (1) 
14
1 -0.37
10 0.41
11 -0.04
12 -0.15
13 -0.15
14 -0.01
2 -0.43
26 0.15
27 0.15
28 0.15
3 -0.28
4 -0.57
5 0.28
9 0.86

>  <PUBCHEM_EFFECTIVE_ROTOR_COUNT>  (1) 
5

>  <PUBCHEM_PHARMACOPHORE_FEATURES>  (1) 
3
1 3 acceptor
4 5 6 7 8 hydrophobe
5 3 11 12 13 14 rings

>  <PUBCHEM_HEAVY_ATOM_COUNT>  (1) 
14

>  <PUBCHEM_ATOM_DEF_STEREO_COUNT>  (1) 
0

>  <PUBCHEM_ATOM_UDEF_STEREO_COUNT>  (1) 
0

>  <PUBCHEM_BOND_DEF_STEREO_COUNT>  (1) 
0

>  <PUBCHEM_BOND_UDEF_STEREO_COUNT>  (1) 
0

>  <PUBCHEM_ISOTOPIC_ATOM_COUNT>  (1) 
0

>  <PUBCHEM_COMPONENT_COUNT>  (1) 
1

>  <PUBCHEM_CACTVS_TAUTO_COUNT>  (1) 
1

>  <PUBCHEM_CONFORMER_ID>  (1) 
0000929200000001

>  <PUBCHEM_MMFF94_ENERGY>  (1) 
23.8165

>  <PUBCHEM_FEATURE_SELFOVERLAP>  (1) 
15.223

>  <PUBCHEM_SHAPE_FINGERPRINT>  (1) 
10680689 15 17704073997310990911
10912923 1 16845287258960556958
12916754 54 17604439616893683957
13167823 11 17846494829162654166
13214271 11 18411702067640275565
13675066 3 18342460343654291748
14123238 8 18272369784766833078
14251718 22 17023190452601496062
14252887 29 18342746195746203942
17834072 33 17418086654596618620
17834076 25 13183024016221377530
18186145 218 18187364324446337488
19489759 90 16153701025242945231
1986462 14 17749108889809872831
200 152 18131913749802687514
20279233 1 18334862722986650210
20645477 70 18341335505248527782
20828058 21 16370724824834943334
22485316 2 17561080293557011742
22854114 59 18343864415982236070
2306618 200 17676485017614878613
23402539 116 17989200430277779573
23402655 69 17917993854371998760
23557571 272 17531249418431267663
23559900 14 18334296483541713970
300161 21 16702016465676117991
42 15 18409169892008027382
4214541 1 18343022168442436633
42788 4 18272370871472693274
5104073 3 18340770351464694250
542803 24 15052015675700203674
69090 78 18343297085215381758
77779 3 18272654532382016264

>  <PUBCHEM_SHAPE_MULTIPOLES>  (1) 
274.35
11.8
1.15
0.95
2.97
0.07
-0.17
-0.92
1.13
-0.18
0.12
-0.75
0
0.35

>  <PUBCHEM_SHAPE_SELFOVERLAP>  (1) 
543.084

>  <PUBCHEM_SHAPE_VOLUME>  (1) 
166.7

>  <PUBCHEM_COORDINATE_TYPE>  (1) 
2
5
10

$$$$
