37525
     RDKit          3D

 19 20  0  0  1  0  0  0  0  0999 V2000
   -3.5295    2.1211    0.2907 O   0  0  0  0  0  0  0  0  0  0  0  0
    2.6083   -0.0715    0.3216 O   0  0  0  0  0  0  0  0  0  0  0  0
    1.5144    0.0834   -1.7072 O   0  0  0  0  0  0  0  0  0  0  0  0
   -3.9735   -2.9005   -0.1162 O   0  0  0  0  0  0  0  0  0  0  0  0
    0.1336    2.0903   -0.1318 N   0  0  0  0  0  0  0  0  0  0  0  0
    0.3999    0.7139    0.3379 C   0  0  0  0  0  0  0  0  0  0  0  0
   -2.2921    1.7172   -0.2924 C   0  0  0  0  0  0  0  0  0  0  0  0
   -1.1762    2.5581    0.3322 C   0  0  0  0  0  0  0  0  0  0  0  0
   -0.7802   -0.2385    0.2150 C   0  0  0  0  0  0  0  0  0  0  0  0
   -2.0716    0.2407   -0.0732 C   0  0  0  0  0  0  0  0  0  0  0  0
    1.1742    3.0237    0.3169 C   0  0  0  0  0  0  0  0  0  0  0  0
    1.5503    0.2106   -0.4908 C   0  0  0  0  0  0  0  0  0  0  0  0
   -0.5984   -1.6145    0.4416 C   0  0  0  0  0  0  0  0  0  0  0  0
   -3.1340   -0.6687   -0.2023 C   0  0  0  0  0  0  0  0  0  0  0  0
   -2.9319   -2.0327    0.0019 C   0  0  0  0  0  0  0  0  0  0  0  0
   -1.6662   -2.5046    0.3325 C   0  0  0  0  0  0  0  0  0  0  0  0
    3.7779   -0.5631   -0.3404 C   0  0  0  0  0  0  0  0  0  0  0  0
    4.8569   -0.8266    0.6987 C   0  0  0  0  0  0  0  0  0  0  0  0
    6.1381   -1.3384    0.0653 C   0  0  0  0  0  0  0  0  0  0  0  0
  1  7  1  0
  2 12  1  0
  2 17  1  0
  3 12  2  0
  4 15  1  0
  5  6  1  0
  5  8  1  0
  5 11  1  0
  6  9  1  0
  6 12  1  0
  7  8  1  0
  7 10  1  0
  9 10  2  0
  9 13  1  0
 10 14  1  0
 13 16  2  0
 14 15  2  0
 15 16  1  0
 17 18  1  0
 18 19  1  0
M  END
>  <PUBCHEM_COMPOUND_CID>  (1) 
37525

>  <PUBCHEM_CONFORMER_RMSD>  (1) 
0.6

>  <PUBCHEM_CONFORMER_DIVERSEORDER>  (1) 
1
124
182
189
205
38
142
175
150
251
240
83
192
57
74
152
186
98
200
126
50
69
147
91
247
76
174
37
234
165
198
181
248
224
218
63
86
249
168
73
117
46
146
123
187
199
203
89
10
246
109
221
16
113
207
171
53
173
227
70
15
121
48
107
191
176
92
239
139
201
104
67
4
252
185
180
184
213
2
164
111
138
56
216
26
215
28
19
6
131
210
25
49
236
71
229
41
78
72
222
141
137
108
88
32
101
68
197
8
100
14
55
13
144
24
5
220
18
196
129
102
81
183
155
33
250
188
82
62
154
244
232
133
225
202
115
241
23
242
163
120
148
127
167
179
235
204
153
39
162
132
128
230
208
169
114
125
47
77
134
3
105
228
161
237
11
211
84
195
212
31
190
172
158
54
159
58
135
51
118
243
94
85
217
122
143
233
145
27
178
75
45
35
223
245
219
34
214
156
9
20
136
61
65
209
119
149
29
110
103
90
12
17
166
36
238
22
106
157
170
79
116
231
160
40
43
21
7
52
99
60
44
93
96
97
59
177
226
87
193
151
30
112
42
194
130
95
80
66
140
206
64

>  <PUBCHEM_MMFF94_PARTIAL_CHARGES>  (1) 
22
1 -0.68
10 -0.14
11 0.27
12 0.66
13 -0.15
14 -0.15
15 0.08
16 -0.15
17 0.28
2 -0.43
27 0.15
28 0.15
29 0.15
3 -0.57
30 0.4
35 0.45
4 -0.53
5 -0.81
6 0.47
7 0.42
8 0.27
9 -0.14

>  <PUBCHEM_EFFECTIVE_ROTOR_COUNT>  (1) 
4.8

>  <PUBCHEM_PHARMACOPHORE_FEATURES>  (1) 
8
1 1 acceptor
1 1 donor
1 19 hydrophobe
1 3 acceptor
1 4 donor
1 5 cation
6 5 6 7 8 9 10 rings
6 9 10 13 14 15 16 rings

>  <PUBCHEM_HEAVY_ATOM_COUNT>  (1) 
19

>  <PUBCHEM_ATOM_DEF_STEREO_COUNT>  (1) 
0

>  <PUBCHEM_ATOM_UDEF_STEREO_COUNT>  (1) 
2

>  <PUBCHEM_BOND_DEF_STEREO_COUNT>  (1) 
0

>  <PUBCHEM_BOND_UDEF_STEREO_COUNT>  (1) 
0

>  <PUBCHEM_ISOTOPIC_ATOM_COUNT>  (1) 
0

>  <PUBCHEM_COMPONENT_COUNT>  (1) 
1

>  <PUBCHEM_CACTVS_TAUTO_COUNT>  (1) 
3

>  <PUBCHEM_CONFORMER_ID>  (1) 
0000929500000001

>  <PUBCHEM_MMFF94_ENERGY>  (1) 
41.8714

>  <PUBCHEM_FEATURE_SELFOVERLAP>  (1) 
40.615

>  <PUBCHEM_SHAPE_FINGERPRINT>  (1) 
10062212 137 18187082827952826370
10319926 262 18197476482434381898
10411042 1 18338516473156303963
10493431 412 18126292939330745089
10616163 171 18410573947114606050
10693767 8 17840004571524024743
10967382 1 18122344580084406473
1100329 8 18411984628748541689
11315181 36 18187644692213068194
11680986 33 18269542991748574016
12236239 1 17676775258413741440
12293681 160 17768509617811306849
12553582 1 18267042706543800374
13052359 8 18335421210458248041
13140716 1 18341618139607848281
14178342 30 17916324791120313987
14790565 3 17907863898700046232
14866123 147 18410296900380968907
15042514 8 18409453552985935355
15099037 37 18344145886780212550
16945 1 18340780268929373173
17804303 29 18410856585557442386
19591789 44 17907307550727549715
20510252 161 17983012241809614408
20600515 1 18271253703324852748
20905425 154 18053108598797304085
21267235 1 18408329894820412826
21339142 51 18410849924126723220
21501502 16 18267031724460123997
21650355 55 18411417268026912560
2297311 6 18342185449448609278
23184049 29 18338517572356273061
2334 1 18122629615837159177
23366157 5 18042686298535297972
23402539 116 18342449297024936436
23419403 2 18046880917850923860
23557571 272 18201443540975789086
23558518 356 18263087767961913937
23559900 14 18270398275188992638
2748010 2 18193833975998614653
3178227 256 18265068950914466009
335352 9 18410291415738769679
4214541 1 18409729526605418346
5104073 3 18343014489684399472
559249 180 18189048712337202138
573450 72 18261385616730281346
59554788 191 18411981381599655116
7364860 26 17979918537910464600
76465 3 18270113668358716919
81228 2 18127715758578727056
8809292 202 18411419501072114456
9709674 26 18192709170717556514

>  <PUBCHEM_SHAPE_MULTIPOLES>  (1) 
362.55
8.5
3.32
0.81
13.8
0.81
-0.17
-5.6
0.4
-3.03
0.4
0.32
0.01
-0.13

>  <PUBCHEM_SHAPE_SELFOVERLAP>  (1) 
756.842

>  <PUBCHEM_SHAPE_VOLUME>  (1) 
206.8

>  <PUBCHEM_COORDINATE_TYPE>  (1) 
2
5
10

$$$$
