37521
     RDKit          3D

  8  7  0  0  0  0  0  0  0  0999 V2000
    0.8678    0.3886    0.1600 O   0  0  0  0  0  0  0  0  0  0  0  0
   -0.4428    0.0063   -0.2500 C   0  0  0  0  0  0  0  0  0  0  0  0
   -1.4420    1.0310    0.2987 C   0  0  0  0  0  0  0  0  0  0  0  0
   -0.7636   -1.3980    0.2750 C   0  0  0  0  0  0  0  0  0  0  0  0
   -1.1339    2.4476   -0.1690 C   0  0  0  0  0  0  0  0  0  0  0  0
   -2.1441   -1.8852   -0.1451 C   0  0  0  0  0  0  0  0  0  0  0  0
    1.8460   -0.5229   -0.3172 C   0  0  0  0  0  0  0  0  0  0  0  0
    3.2127   -0.0675    0.1476 C   0  0  0  0  0  0  0  0  0  0  0  0
  1  2  1  0
  1  7  1  0
  2  3  1  0
  2  4  1  0
  3  5  1  0
  4  6  1  0
  7  8  1  0
M  END
>  <PUBCHEM_COMPOUND_CID>  (1) 
37521

>  <PUBCHEM_CONFORMER_RMSD>  (1) 
0.6

>  <PUBCHEM_CONFORMER_DIVERSEORDER>  (1) 
2
8
5
6
9
11
1
12
4
3
7
10

>  <PUBCHEM_MMFF94_PARTIAL_CHARGES>  (1) 
3
1 -0.56
2 0.28
7 0.28

>  <PUBCHEM_EFFECTIVE_ROTOR_COUNT>  (1) 
4

>  <PUBCHEM_PHARMACOPHORE_FEATURES>  (1) 
3
1 1 acceptor
1 5 hydrophobe
1 6 hydrophobe

>  <PUBCHEM_HEAVY_ATOM_COUNT>  (1) 
8

>  <PUBCHEM_ATOM_DEF_STEREO_COUNT>  (1) 
0

>  <PUBCHEM_ATOM_UDEF_STEREO_COUNT>  (1) 
0

>  <PUBCHEM_BOND_DEF_STEREO_COUNT>  (1) 
0

>  <PUBCHEM_BOND_UDEF_STEREO_COUNT>  (1) 
0

>  <PUBCHEM_ISOTOPIC_ATOM_COUNT>  (1) 
0

>  <PUBCHEM_COMPONENT_COUNT>  (1) 
1

>  <PUBCHEM_CACTVS_TAUTO_COUNT>  (1) 
1

>  <PUBCHEM_CONFORMER_ID>  (1) 
0000929100000002

>  <PUBCHEM_MMFF94_ENERGY>  (1) 
10.0033

>  <PUBCHEM_FEATURE_SELFOVERLAP>  (1) 
15.223

>  <PUBCHEM_SHAPE_FINGERPRINT>  (1) 
1 1 17544757824510082333
12716758 59 18269274556550510522
12932741 1 17846502491837535854
20871998 184 18272375282029865446
21040471 1 18121784928391555372
23552423 10 18260269693710499270
23552449 1 18411981377383906036
29004967 10 17978511158721563435

>  <PUBCHEM_SHAPE_MULTIPOLES>  (1) 
158.77
3.59
2.28
0.66
3.53
0.8
-0.01
-0.72
0.07
-2.16
-0.09
-0.01
-0.01
0

>  <PUBCHEM_SHAPE_SELFOVERLAP>  (1) 
278.476

>  <PUBCHEM_SHAPE_VOLUME>  (1) 
105.7

>  <PUBCHEM_COORDINATE_TYPE>  (1) 
2
5
10

$$$$
