37535
     RDKit          3D

 19 21  0  0  0  0  0  0  0  0999 V2000
   -0.7618    1.2520    0.6289 S   0  0  0  0  0  0  0  0  0  0  0  0
    6.4171    0.9535   -0.1176 O   0  0  0  0  0  0  0  0  0  0  0  0
    4.6478    0.7580   -1.5268 O   0  0  0  0  0  0  0  0  0  0  0  0
   -1.0452   -1.1673   -0.2193 N   0  0  0  0  0  0  0  0  0  0  0  0
    0.6639    0.2965    0.4630 C   0  0  0  0  0  0  0  0  0  0  0  0
    0.3116   -0.9732   -0.0047 C   0  0  0  0  0  0  0  0  0  0  0  0
    2.9891   -0.3154    0.5120 C   0  0  0  0  0  0  0  0  0  0  0  0
    1.9980    0.6456    0.7276 C   0  0  0  0  0  0  0  0  0  0  0  0
   -1.6991   -0.0693    0.0798 C   0  0  0  0  0  0  0  0  0  0  0  0
    1.3326   -1.9255   -0.2139 C   0  0  0  0  0  0  0  0  0  0  0  0
    2.6630   -1.5848    0.0475 C   0  0  0  0  0  0  0  0  0  0  0  0
    4.4160    0.0277    0.7848 C   0  0  0  0  0  0  0  0  0  0  0  0
   -3.1301    0.0931   -0.0236 C   0  0  0  0  0  0  0  0  0  0  0  0
   -3.9570   -1.0291   -0.0549 C   0  0  0  0  0  0  0  0  0  0  0  0
   -3.6834    1.3711   -0.0929 C   0  0  0  0  0  0  0  0  0  0  0  0
    5.1365    0.6086   -0.4153 C   0  0  0  0  0  0  0  0  0  0  0  0
   -5.3394   -0.8731   -0.1557 C   0  0  0  0  0  0  0  0  0  0  0  0
   -5.0658    1.5269   -0.1937 C   0  0  0  0  0  0  0  0  0  0  0  0
   -5.8938    0.4048   -0.2251 C   0  0  0  0  0  0  0  0  0  0  0  0
  1  5  1  0
  1  9  1  0
  2 16  1  0
  3 16  2  0
  4  6  1  0
  4  9  2  0
  5  6  2  0
  5  8  1  0
  6 10  1  0
  7  8  2  0
  7 11  1  0
  7 12  1  0
  9 13  1  0
 10 11  2  0
 12 16  1  0
 13 14  2  0
 13 15  1  0
 14 17  1  0
 15 18  2  0
 17 19  2  0
 18 19  1  0
M  END
>  <PUBCHEM_COMPOUND_CID>  (1) 
37535

>  <PUBCHEM_CONFORMER_RMSD>  (1) 
0.6

>  <PUBCHEM_CONFORMER_DIVERSEORDER>  (1) 
2
1
4
3
5

>  <PUBCHEM_MMFF94_PARTIAL_CHARGES>  (1) 
28
1 -0.08
10 -0.15
11 -0.15
12 0.2
13 0.05
14 -0.15
15 -0.15
16 0.66
17 -0.15
18 -0.15
19 -0.15
2 -0.65
20 0.15
21 0.15
22 0.15
25 0.15
26 0.15
27 0.15
28 0.15
29 0.15
3 -0.57
30 0.5
4 -0.57
5 0.04
6 0.23
7 -0.14
8 -0.15
9 0.33

>  <PUBCHEM_EFFECTIVE_ROTOR_COUNT>  (1) 
3

>  <PUBCHEM_PHARMACOPHORE_FEATURES>  (1) 
7
1 2 acceptor
1 3 acceptor
1 4 acceptor
3 2 3 16 anion
5 1 4 5 6 9 rings
6 13 14 15 17 18 19 rings
6 5 6 7 8 10 11 rings

>  <PUBCHEM_HEAVY_ATOM_COUNT>  (1) 
19

>  <PUBCHEM_ATOM_DEF_STEREO_COUNT>  (1) 
0

>  <PUBCHEM_ATOM_UDEF_STEREO_COUNT>  (1) 
0

>  <PUBCHEM_BOND_DEF_STEREO_COUNT>  (1) 
0

>  <PUBCHEM_BOND_UDEF_STEREO_COUNT>  (1) 
0

>  <PUBCHEM_ISOTOPIC_ATOM_COUNT>  (1) 
0

>  <PUBCHEM_COMPONENT_COUNT>  (1) 
1

>  <PUBCHEM_CACTVS_TAUTO_COUNT>  (1) 
1

>  <PUBCHEM_CONFORMER_ID>  (1) 
0000929F00000002

>  <PUBCHEM_MMFF94_ENERGY>  (1) 
44.3596

>  <PUBCHEM_FEATURE_SELFOVERLAP>  (1) 
35.652

>  <PUBCHEM_SHAPE_FINGERPRINT>  (1) 
10090160 65 18040995133217721370
10670039 82 18339373959440731548
10906281 52 18263380151791338793
10912923 1 17894623743097179713
11287383 113 17458348550055350921
11405975 8 9295278461398402111
11796584 16 12607404407715092660
12107183 9 17541650613466840769
12236239 1 18187080659484601400
12403259 415 18130497609091635913
12507557 5 11314029063304501847
12596602 18 16660364779441938113
12670543 26 18131077000358817830
13533116 47 16226318219476386928
13631057 29 18263644125489046547
13668630 136 16200145522024663285
13760787 19 18408037416306151971
14251718 22 18413108372449198525
14528608 73 18412824707081494900
15048467 5 18259703397703299861
15196674 1 18341047415689436603
15788980 27 12107790713562495243
15961568 22 18113341894772307340
1601671 61 18410854352269595340
17834072 33 18409165528126166797
19784866 140 16702027447960306490
200 152 17775278353573241491
20645477 70 18129660781579115007
21150785 3 17132109169322885741
21267235 1 18271807973665703287
21637258 2 13973688283049296108
21641784 216 18337686217017788020
21709351 56 18341040908914236269
22224240 67 14129059253469055160
23402539 116 17676763215188202461
23402655 69 18201153274248418251
23559900 14 17983287132411646899
23569914 152 15906306248854557981
293599 30 18413388748214994234
296302 2 18113901537521223499
300161 21 17968090906968546731
3004659 81 18337391535701859362
3472631 163 18264216971162876860
34797466 226 17846223288403087972
3545911 37 18342736317405572369
4073 2 18041002847037287187
4214541 1 18341045225725490665
4325135 7 18333449850454988701
4340502 62 16805324383625720642
465052 167 9871745815103618976
474 4 17603874424687902212
4990 188 17561369482811827294
5104073 3 18341047407184041843
542803 24 18113053831236005817
5486654 2 18342457053915285719
59755656 520 17749103413690336074

>  <PUBCHEM_SHAPE_MULTIPOLES>  (1) 
378.14
13.94
1.6
0.83
0.95
0.29
0.09
-3.84
2.39
-0.3
0.06
0.71
-0.14
-0.24

>  <PUBCHEM_SHAPE_SELFOVERLAP>  (1) 
821.675

>  <PUBCHEM_SHAPE_VOLUME>  (1) 
207.5

>  <PUBCHEM_COORDINATE_TYPE>  (1) 
2
5
10

$$$$
