37531
     RDKit          3D

 27 29  0  0  1  0  0  0  0  0999 V2000
   -8.2359   -2.6657   -0.3839 F   0  0  0  0  0  0  0  0  0  0  0  0
    7.2624   -3.6254    0.3290 F   0  0  0  0  0  0  0  0  0  0  0  0
    4.0073    1.4033   -1.5350 O   0  0  0  0  0  0  0  0  0  0  0  0
    0.1278    2.4951    0.1133 N   0  0  0  0  0  0  0  0  0  0  0  0
   -1.0128    1.6339   -0.1941 C   0  0  0  0  0  0  0  0  0  0  0  0
   -3.6809    0.5463    0.5014 C   0  0  0  0  0  0  0  0  0  0  0  0
   -2.2796    2.4828   -0.3428 C   0  0  0  0  0  0  0  0  0  0  0  0
   -1.1788    0.5793    0.9049 C   0  0  0  0  0  0  0  0  0  0  0  0
   -3.5094    1.6101   -0.5968 C   0  0  0  0  0  0  0  0  0  0  0  0
   -2.4048   -0.2995    0.6536 C   0  0  0  0  0  0  0  0  0  0  0  0
   -4.9061   -0.3178    0.2641 C   0  0  0  0  0  0  0  0  0  0  0  0
    1.3335    1.6928    0.3166 C   0  0  0  0  0  0  0  0  0  0  0  0
    0.3362    3.4689   -0.9576 C   0  0  0  0  0  0  0  0  0  0  0  0
    2.5278    2.6002    0.6185 C   0  0  0  0  0  0  0  0  0  0  0  0
   -4.7961   -1.4852   -0.4882 C   0  0  0  0  0  0  0  0  0  0  0  0
   -6.1357    0.0598    0.7985 C   0  0  0  0  0  0  0  0  0  0  0  0
    3.8192    1.8072    0.8370 C   0  0  0  0  0  0  0  0  0  0  0  0
   -5.9219   -2.2791   -0.7071 C   0  0  0  0  0  0  0  0  0  0  0  0
   -7.2615   -0.7343    0.5796 C   0  0  0  0  0  0  0  0  0  0  0  0
   -7.1546   -1.9037   -0.1732 C   0  0  0  0  0  0  0  0  0  0  0  0
    4.2675    1.0311   -0.3933 C   0  0  0  0  0  0  0  0  0  0  0  0
    5.0678   -0.2117   -0.2010 C   0  0  0  0  0  0  0  0  0  0  0  0
    5.8870   -0.3063    0.9018 C   0  0  0  0  0  0  0  0  0  0  0  0
    4.9574   -1.2201   -1.1323 C   0  0  0  0  0  0  0  0  0  0  0  0
    6.6349   -1.4699    1.0825 C   0  0  0  0  0  0  0  0  0  0  0  0
    5.7052   -2.3836   -0.9514 C   0  0  0  0  0  0  0  0  0  0  0  0
    6.5440   -2.5085    0.1559 C   0  0  0  0  0  0  0  0  0  0  0  0
  1 20  1  0
  2 27  1  0
  3 21  2  0
  4  5  1  0
  4 12  1  0
  4 13  1  0
  5  7  1  0
  5  8  1  0
  6  9  1  0
  6 10  1  0
  6 11  1  0
  7  9  1  0
  8 10  1  0
 11 15  2  0
 11 16  1  0
 12 14  1  0
 14 17  1  0
 15 18  1  0
 16 19  2  0
 17 21  1  0
 18 20  2  0
 19 20  1  0
 21 22  1  0
 22 23  2  0
 22 24  1  0
 23 25  1  0
 24 26  2  0
 25 27  2  0
 26 27  1  0
M  END
>  <PUBCHEM_COMPOUND_CID>  (1) 
37531

>  <PUBCHEM_CONFORMER_RMSD>  (1) 
1

>  <PUBCHEM_CONFORMER_DIVERSEORDER>  (1) 
1
13
61
21
36
41
75
97
19
102
2
52
85
54
7
25
34
70
3
78
79
17
91
99
45
112
29
94
62
96
57
6
18
20
64
68
110
14
87
51
11
56
107
30
26
101
58
98
4
109
28
93
63
72
95
27
55
82
92
106
66
48
5
80
44
90
83
105
49
33
23
37
22
50
100
88
108
43
77
89
111
103
59
16
81
104
8
32
71
47
86
10
53
74
35
60
12
38
67
69
31
39
46
84
9
65
42
73
24
15
76
40

>  <PUBCHEM_MMFF94_PARTIAL_CHARGES>  (1) 
30
1 -0.19
11 -0.14
12 0.27
13 0.27
15 -0.15
16 -0.15
17 0.06
18 -0.15
19 -0.15
2 -0.19
20 0.19
21 0.42
22 0.09
23 -0.15
24 -0.15
25 -0.15
26 -0.15
27 0.19
3 -0.57
4 -0.81
45 0.15
46 0.15
49 0.15
5 0.27
50 0.15
51 0.15
52 0.15
53 0.15
54 0.15
6 0.14

>  <PUBCHEM_EFFECTIVE_ROTOR_COUNT>  (1) 
8.2

>  <PUBCHEM_PHARMACOPHORE_FEATURES>  (1) 
5
1 3 acceptor
1 4 cation
6 11 15 16 18 19 20 rings
6 22 23 24 25 26 27 rings
6 5 6 7 8 9 10 rings

>  <PUBCHEM_HEAVY_ATOM_COUNT>  (1) 
27

>  <PUBCHEM_ATOM_DEF_STEREO_COUNT>  (1) 
0

>  <PUBCHEM_ATOM_UDEF_STEREO_COUNT>  (1) 
0

>  <PUBCHEM_BOND_DEF_STEREO_COUNT>  (1) 
0

>  <PUBCHEM_BOND_UDEF_STEREO_COUNT>  (1) 
0

>  <PUBCHEM_ISOTOPIC_ATOM_COUNT>  (1) 
0

>  <PUBCHEM_COMPONENT_COUNT>  (1) 
1

>  <PUBCHEM_CACTVS_TAUTO_COUNT>  (1) 
2

>  <PUBCHEM_CONFORMER_ID>  (1) 
0000929B00000001

>  <PUBCHEM_MMFF94_ENERGY>  (1) 
66.8142

>  <PUBCHEM_FEATURE_SELFOVERLAP>  (1) 
25.373

>  <PUBCHEM_SHAPE_FINGERPRINT>  (1) 
10 15 11815902279837662525
10066227 49 18338796836374859831
10319688 140 18264210373808779892
10319688 67 14405183993603028613
10693767 8 18337104682998676803
10981352 41 18131069338142768014
11211813 74 9078853870132831035
11273773 42 8214136335479684363
11409948 8 18201705247579397450
117089 54 18339649949480545230
11828532 37 18114473369309531018
11991303 11 15285648732681161339
12166972 35 17749114391462681948
12895837 130 8142075460498432609
13248334 5 18121782999931504644
13533116 47 18271247239034997801
1361 4 18338236101680077291
13782708 43 18410855464623888033
13944108 23 8430321242903978878
14216079 64 18411136957196900399
14251751 18 18342173341608708560
14251757 52 9727633899534470886
14251764 75 10231753383995049276
14347332 77 18409730651475945357
14919807 6 17823120278109865645
15183329 4 18342747350839004123
15347591 1 18411135810394387456
15352257 5 18413108381160543339
15475509 35 18059570321807921424
15510800 12 18130510713305686750
15519825 34 15410314672732157957
155225 6 9727338148445580210
16096371 109 12678640602037340845
16993089 31 17531544182469621235
1768 124 18202282524198402326
18393751 57 11455901260829784037
19053607 189 8357961240197303238
1979834 28 16773805770861980260
20028762 73 18340770352014014742
20165401 70 18272086162470674247
2026 5 18335417915987191890
20398071 356 18411139125543474667
20691028 202 9655567518156816762
21033648 29 13542203666834037361
21130935 74 18270119145116668121
21197605 99 18343301462372865694
21344244 78 16272215205789329680
21585483 132 17895745198204391442
21641784 216 16081076079010884493
21682296 61 18408606981031247313
23522609 53 18122379910534103409
23559900 14 18043530723628681185
23569943 247 18410013204843051491
270888 7 9295277340644091616
2748736 6 9511457797342025010
3004659 81 17967534558686158880
3383291 50 18334292071756513011
3472631 163 8214147351971065216
3504750 166 18273494572963234069
406291 66 18335699404244163778
42767 46 18040991809483318914
439807 62 18408606950296387647
4756326 101 15069769577008472790
5109719 28 9295289478105489613
513202 73 18408039602914075789
5718773 13 18410291406421081346
6712543 237 16343985801685848815
96874 4 18413668023942057335
9831232 110 18412265004202412494

>  <PUBCHEM_SHAPE_MULTIPOLES>  (1) 
530.25
23.8
3.89
1.07
7.06
0.09
-0.08
27.07
1.09
-2.75
-0.71
-0.8
-0.06
-0.49

>  <PUBCHEM_SHAPE_SELFOVERLAP>  (1) 
1120.364

>  <PUBCHEM_SHAPE_VOLUME>  (1) 
298.1

>  <PUBCHEM_COORDINATE_TYPE>  (1) 
2
5
10

$$$$
