37537
     RDKit          3D

 22 24  0  0  0  0  0  0  0  0999 V2000
   -0.0614    1.9393    0.2676 S   0  0  0  0  0  0  0  0  0  0  0  0
    7.1123   -1.7033    0.1625 O   0  0  0  0  0  0  0  0  0  0  0  0
    5.4764   -1.0320    1.5864 O   0  0  0  0  0  0  0  0  0  0  0  0
    0.3371   -0.5113   -0.4316 N   0  0  0  0  0  0  0  0  0  0  0  0
   -6.2087   -0.7410   -0.0177 C   0  0  0  0  0  0  0  0  0  0  0  0
   -4.7457   -0.4538   -0.0459 C   0  0  0  0  0  0  0  0  0  0  0  0
   -2.0103    0.0835   -0.0984 C   0  0  0  0  0  0  0  0  0  0  0  0
   -3.8856   -1.2836   -0.7650 C   0  0  0  0  0  0  0  0  0  0  0  0
   -4.2373    0.6448    0.6472 C   0  0  0  0  0  0  0  0  0  0  0  0
   -7.0436    0.3931   -0.6422 C   0  0  0  0  0  0  0  0  0  0  0  0
   -6.7220   -1.0462    1.4024 C   0  0  0  0  0  0  0  0  0  0  0  0
   -0.5938    0.3620   -0.1251 C   0  0  0  0  0  0  0  0  0  0  0  0
    1.5836    0.0930   -0.3567 C   0  0  0  0  0  0  0  0  0  0  0  0
   -2.5170   -1.0148   -0.7914 C   0  0  0  0  0  0  0  0  0  0  0  0
   -2.8689    0.9137    0.6208 C   0  0  0  0  0  0  0  0  0  0  0  0
    1.5697    1.4413    0.0133 C   0  0  0  0  0  0  0  0  0  0  0  0
    4.0067    0.2137   -0.4990 C   0  0  0  0  0  0  0  0  0  0  0  0
    2.8260   -0.5255   -0.6158 C   0  0  0  0  0  0  0  0  0  0  0  0
    2.7516    2.1899    0.1326 C   0  0  0  0  0  0  0  0  0  0  0  0
    3.9676    1.5537   -0.1295 C   0  0  0  0  0  0  0  0  0  0  0  0
    5.3187   -0.4433   -0.7714 C   0  0  0  0  0  0  0  0  0  0  0  0
    5.9446   -1.0731    0.4569 C   0  0  0  0  0  0  0  0  0  0  0  0
  1 12  1  0
  1 16  1  0
  2 22  1  0
  3 22  2  0
  4 12  2  0
  4 13  1  0
  5  6  1  0
  5 10  1  0
  5 11  1  0
  6  8  2  0
  6  9  1  0
  7 12  1  0
  7 14  2  0
  7 15  1  0
  8 14  1  0
  9 15  2  0
 13 16  2  0
 13 18  1  0
 16 19  1  0
 17 18  2  0
 17 20  1  0
 17 21  1  0
 19 20  2  0
 21 22  1  0
M  END
>  <PUBCHEM_COMPOUND_CID>  (1) 
37537

>  <PUBCHEM_CONFORMER_RMSD>  (1) 
0.6

>  <PUBCHEM_CONFORMER_DIVERSEORDER>  (1) 
1
4
15
5
17
8
13
2
9
7
11
12
16
14
3
10
6

>  <PUBCHEM_MMFF94_PARTIAL_CHARGES>  (1) 
28
1 -0.08
12 0.33
13 0.23
14 -0.15
15 -0.15
16 0.04
17 -0.14
18 -0.15
19 -0.15
2 -0.65
20 -0.15
21 0.2
22 0.66
24 0.15
25 0.15
3 -0.57
32 0.15
33 0.15
34 0.15
35 0.15
36 0.15
39 0.5
4 -0.57
5 0.14
6 -0.14
7 0.05
8 -0.15
9 -0.15

>  <PUBCHEM_EFFECTIVE_ROTOR_COUNT>  (1) 
4

>  <PUBCHEM_PHARMACOPHORE_FEATURES>  (1) 
8
1 2 acceptor
1 3 acceptor
1 4 acceptor
3 2 3 22 anion
3 5 10 11 hydrophobe
5 1 4 12 13 16 rings
6 13 16 17 18 19 20 rings
6 6 7 8 9 14 15 rings

>  <PUBCHEM_HEAVY_ATOM_COUNT>  (1) 
22

>  <PUBCHEM_ATOM_DEF_STEREO_COUNT>  (1) 
0

>  <PUBCHEM_ATOM_UDEF_STEREO_COUNT>  (1) 
0

>  <PUBCHEM_BOND_DEF_STEREO_COUNT>  (1) 
0

>  <PUBCHEM_BOND_UDEF_STEREO_COUNT>  (1) 
0

>  <PUBCHEM_ISOTOPIC_ATOM_COUNT>  (1) 
0

>  <PUBCHEM_COMPONENT_COUNT>  (1) 
1

>  <PUBCHEM_CACTVS_TAUTO_COUNT>  (1) 
1

>  <PUBCHEM_CONFORMER_ID>  (1) 
000092A100000001

>  <PUBCHEM_MMFF94_ENERGY>  (1) 
51.9067

>  <PUBCHEM_FEATURE_SELFOVERLAP>  (1) 
40.726

>  <PUBCHEM_SHAPE_FINGERPRINT>  (1) 
10 15 16559022801621291010
106641 1 13038896755646463631
10670039 82 11098124532100709574
10753850 27 18187078434897289986
11089746 13 16343702149492696161
11315181 36 18272374183151064897
11719270 70 18202562865050721438
11796584 16 17240485823154995018
12107183 9 17625558786862961731
12166972 35 17822015332278198237
12236239 1 18272091630137562829
125118 31 12823306692804424763
12516196 113 16272209695525044977
12616971 3 18272646887308652813
13533116 47 18409728487154943064
13668630 136 17603588517099532330
13685833 64 18335423473621196034
13862211 1 18411702071518504814
14251752 14 18041273288638237213
14251764 18 18272654562731916272
14341114 176 18339085994504341357
15048467 5 10015862076778718146
15183329 4 18272938228036310141
15196674 1 18200594834137167613
15352257 5 17313108570428007723
15475509 35 17822557349383367362
15788980 27 18335702762591558261
17857418 61 18343017804634253678
1813 80 18187092732574718380
19489759 90 14476972186081136151
20028762 73 18201719552944594966
21150785 3 15068625989535104390
21267235 1 18342186561043136220
21365058 113 17022911163373081244
21792934 111 17917991673072230977
21859007 373 18267849619578105573
221357 26 14129057015342746886
22224240 67 16056874728402750654
23081809 10 18059857328665423461
23198884 109 16153428338022666317
23402539 116 18342736303877365260
23522609 53 18120125881626941676
23559900 14 18270956977077081521
28498 318 18334853888186006159
3004659 81 18411987970564894156
335352 9 18341895207588917159
3411729 13 17844799490535558920
3472631 163 8646473155871554258
34797466 226 16056608702439669120
351380 3 18335137575340003314
4073 2 18044096980484919640
4214541 1 18272938215378534125
465052 167 18409171017490029582
5104073 3 17916587695017152715
542803 24 16487265391363735845
559249 180 18412544276108819717
59755656 215 18261110747044104111
59755656 520 17749105617456802267
6438161 24 16950553364828659394
8863177 126 18042978755526860451
9981440 41 17118030167727273297

>  <PUBCHEM_SHAPE_MULTIPOLES>  (1) 
439.88
18.43
1.75
0.98
3.96
0.58
-0.22
-8.36
-2.82
-1.63
-0.14
0.21
-0.24
-0.44

>  <PUBCHEM_SHAPE_SELFOVERLAP>  (1) 
944.069

>  <PUBCHEM_SHAPE_VOLUME>  (1) 
244.8

>  <PUBCHEM_COORDINATE_TYPE>  (1) 
2
5
10

$$$$
