37546
     RDKit          3D

 22 24  0  0  0  0  0  0  0  0999 V2000
    5.8685   -0.8529   -1.2845 O   0  0  0  0  0  0  0  0  0  0  0  0
   -2.4693    0.6385   -0.3664 N   0  0  0  0  0  0  0  0  0  0  0  0
   -0.1838    0.3237    0.3387 N   0  0  0  0  0  0  0  0  0  0  0  0
   -4.3563    1.6340    0.2565 N   0  0  0  0  0  0  0  0  0  0  0  0
    6.2005    0.0715    0.8175 N   0  0  0  0  0  0  0  0  0  0  0  0
    7.5745   -0.0463    0.7355 N   0  0  0  0  0  0  0  0  0  0  0  0
   -3.3739   -0.3753   -0.1809 C   0  0  0  0  0  0  0  0  0  0  0  0
   -1.0923    0.4819   -0.7780 C   0  0  0  0  0  0  0  0  0  0  0  0
   -3.1030    1.8186   -0.0933 C   0  0  0  0  0  0  0  0  0  0  0  0
   -4.5438    0.2718    0.2076 C   0  0  0  0  0  0  0  0  0  0  0  0
   -3.2724   -1.7604   -0.3155 C   0  0  0  0  0  0  0  0  0  0  0  0
    1.1849    0.1564    0.1960 C   0  0  0  0  0  0  0  0  0  0  0  0
   -5.6903   -0.4928    0.4823 C   0  0  0  0  0  0  0  0  0  0  0  0
   -2.4141    3.1219   -0.1928 C   0  0  0  0  0  0  0  0  0  0  0  0
   -4.4233   -2.5057   -0.0383 C   0  0  0  0  0  0  0  0  0  0  0  0
   -5.6116   -1.8851    0.3537 C   0  0  0  0  0  0  0  0  0  0  0  0
    1.7797    0.1310   -1.0790 C   0  0  0  0  0  0  0  0  0  0  0  0
    2.0150    0.0078    1.3224 C   0  0  0  0  0  0  0  0  0  0  0  0
    3.9631   -0.1830   -0.0939 C   0  0  0  0  0  0  0  0  0  0  0  0
    3.1568   -0.0374   -1.2226 C   0  0  0  0  0  0  0  0  0  0  0  0
    3.3922   -0.1605    1.1787 C   0  0  0  0  0  0  0  0  0  0  0  0
    5.3990   -0.3578   -0.2436 C   0  0  0  0  0  0  0  0  0  0  0  0
  1 22  2  0
  2  7  1  0
  2  8  1  0
  2  9  1  0
  3  8  1  0
  3 12  1  0
  4  9  2  0
  4 10  1  0
  5  6  1  0
  5 22  1  0
  7 10  2  0
  7 11  1  0
  9 14  1  0
 10 13  1  0
 11 15  2  0
 12 17  2  0
 12 18  1  0
 13 16  2  0
 15 16  1  0
 17 20  1  0
 18 21  2  0
 19 20  2  0
 19 21  1  0
 19 22  1  0
M  END
>  <PUBCHEM_COMPOUND_CID>  (1) 
37546

>  <PUBCHEM_CONFORMER_RMSD>  (1) 
0.8

>  <PUBCHEM_CONFORMER_DIVERSEORDER>  (1) 
2
29
26
21
33
19
20
3
16
30
17
10
31
5
12
18
25
28
15
4
35
9
14
13
24
23
6
11
32
1
27
34
8
22
7

>  <PUBCHEM_MMFF94_PARTIAL_CHARGES>  (1) 
34
1 -0.57
10 0.23
11 -0.15
12 0.1
13 -0.15
14 0.18
15 -0.15
16 -0.15
17 -0.15
18 -0.15
19 0.09
2 0.05
20 -0.15
21 -0.15
22 0.54
25 0.4
26 0.15
27 0.15
3 -0.87
31 0.15
32 0.15
33 0.15
34 0.15
35 0.15
36 0.15
37 0.37
38 0.36
39 0.36
4 -0.57
5 -0.42
6 -0.73
7 -0.15
8 0.62
9 0.01

>  <PUBCHEM_EFFECTIVE_ROTOR_COUNT>  (1) 
5

>  <PUBCHEM_PHARMACOPHORE_FEATURES>  (1) 
9
1 1 acceptor
1 3 cation
1 3 donor
1 5 donor
1 6 donor
3 2 4 9 cation
5 2 4 7 9 10 rings
6 12 17 18 19 20 21 rings
6 7 10 11 13 15 16 rings

>  <PUBCHEM_HEAVY_ATOM_COUNT>  (1) 
22

>  <PUBCHEM_ATOM_DEF_STEREO_COUNT>  (1) 
0

>  <PUBCHEM_ATOM_UDEF_STEREO_COUNT>  (1) 
0

>  <PUBCHEM_BOND_DEF_STEREO_COUNT>  (1) 
0

>  <PUBCHEM_BOND_UDEF_STEREO_COUNT>  (1) 
0

>  <PUBCHEM_ISOTOPIC_ATOM_COUNT>  (1) 
0

>  <PUBCHEM_COMPONENT_COUNT>  (1) 
1

>  <PUBCHEM_CACTVS_TAUTO_COUNT>  (1) 
3

>  <PUBCHEM_CONFORMER_ID>  (1) 
000092AA00000002

>  <PUBCHEM_MMFF94_ENERGY>  (1) 
59.4856

>  <PUBCHEM_FEATURE_SELFOVERLAP>  (1) 
47.284

>  <PUBCHEM_SHAPE_FINGERPRINT>  (1) 
10 15 17988636428927607522
10595046 47 18260832600983305548
11056379 131 18336549322357982117
11287383 113 18343864433605359936
11315181 36 18187365441401747429
11524674 6 16989126461218253247
11545043 162 18201718452946897128
12107183 9 17540244350747714960
12166972 35 17312823809732646260
12236239 1 17748828509722710116
12616971 3 17458356229414905837
13288520 33 18408323302699221343
13668630 136 16081088181801157378
13862211 1 16443059483598482128
14251764 18 13973962112324810589
14341114 176 18131353033132241416
14386348 63 17703795811989254167
14849402 71 18188494709165155692
15183329 4 17022624170080968506
15537594 2 18040434374082619947
17844677 252 18413394241494399496
18927931 339 18411983576987449631
19433438 28 18272645757885435912
200 152 16515682243323620205
20645477 70 14562800028657703296
21033648 29 17131255883706456377
21033650 10 18046090193234542396
21054139 6 17822289110926689402
21150785 3 18041289837584974870
21267235 1 18334863861717466659
21623969 137 17132121234271233294
21792961 116 17560805386592735348
2297311 6 18412832382478144693
2303208 19 17846508010844306734
23035841 295 18333450953977045827
23081809 10 17313107424035222652
23402539 116 18040714761973499613
23522609 53 17605863364130059452
23557571 272 18201162061562037221
23559900 14 18339916104319213777
3004659 81 17895190056421573535
335352 9 18408882950455860109
34797466 226 18130801092055829724
351380 3 17894911853888344851
397830 11 17987224698720324154
4214541 1 18411702067255361429
4340502 62 18272928320338380118
5283156 175 17894909620336455083
602551 16 18412262865119099939
67856867 119 18188213220511895220
7495541 125 18201157745446764008

>  <PUBCHEM_SHAPE_MULTIPOLES>  (1) 
421.98
16.86
2.05
1.05
18.55
0.79
-0.01
-5.6
2.07
-4.55
-0.11
1.24
-0.07
0.26

>  <PUBCHEM_SHAPE_SELFOVERLAP>  (1) 
917.798

>  <PUBCHEM_SHAPE_VOLUME>  (1) 
231.1

>  <PUBCHEM_COORDINATE_TYPE>  (1) 
2
5
10

$$$$
