37541
     RDKit          3D

 24 26  0  0  0  0  0  0  0  0999 V2000
   -5.7929    0.5872    0.3961 F   0  0  0  0  0  0  0  0  0  0  0  0
   -4.9825   -0.3737   -1.3713 F   0  0  0  0  0  0  0  0  0  0  0  0
   -4.9116   -1.3950    0.5472 F   0  0  0  0  0  0  0  0  0  0  0  0
    4.9679    2.3431   -0.4669 O   0  0  0  0  0  0  0  0  0  0  0  0
    2.9599    2.0283   -1.4846 O   0  0  0  0  0  0  0  0  0  0  0  0
    1.4441    0.2526    0.0228 N   0  0  0  0  0  0  0  0  0  0  0  0
   -2.3215   -1.4202   -0.7752 N   0  0  0  0  0  0  0  0  0  0  0  0
   -1.0099    0.3752    0.1541 C   0  0  0  0  0  0  0  0  0  0  0  0
    0.1619   -0.2883   -0.2339 C   0  0  0  0  0  0  0  0  0  0  0  0
   -2.2471   -0.2351   -0.1403 C   0  0  0  0  0  0  0  0  0  0  0  0
   -3.4108    0.4245    0.2453 C   0  0  0  0  0  0  0  0  0  0  0  0
   -0.9693    1.6130    0.8180 C   0  0  0  0  0  0  0  0  0  0  0  0
    2.6955   -0.3419    0.2576 C   0  0  0  0  0  0  0  0  0  0  0  0
    0.0885   -1.5096   -0.8882 C   0  0  0  0  0  0  0  0  0  0  0  0
   -3.3708    1.6551    0.9054 C   0  0  0  0  0  0  0  0  0  0  0  0
   -2.1487    2.2505    1.1923 C   0  0  0  0  0  0  0  0  0  0  0  0
   -4.7518   -0.1767   -0.0420 C   0  0  0  0  0  0  0  0  0  0  0  0
    3.8824    0.2990   -0.1125 C   0  0  0  0  0  0  0  0  0  0  0  0
   -1.1671   -2.0279   -1.1328 C   0  0  0  0  0  0  0  0  0  0  0  0
    2.7544   -1.5963    0.8733 C   0  0  0  0  0  0  0  0  0  0  0  0
    5.1145   -0.3080    0.1304 C   0  0  0  0  0  0  0  0  0  0  0  0
    3.9865   -2.2033    1.1164 C   0  0  0  0  0  0  0  0  0  0  0  0
    5.1666   -1.5591    0.7449 C   0  0  0  0  0  0  0  0  0  0  0  0
    3.8616    1.6067   -0.7563 C   0  0  0  0  0  0  0  0  0  0  0  0
  1 17  1  0
  2 17  1  0
  3 17  1  0
  4 24  1  0
  5 24  2  0
  6  9  1  0
  6 13  1  0
  7 10  2  0
  7 19  1  0
  8  9  2  0
  8 10  1  0
  8 12  1  0
  9 14  1  0
 10 11  1  0
 11 15  2  0
 11 17  1  0
 12 16  2  0
 13 18  2  0
 13 20  1  0
 14 19  2  0
 15 16  1  0
 18 21  1  0
 18 24  1  0
 20 22  2  0
 21 23  2  0
 22 23  1  0
M  END
>  <PUBCHEM_COMPOUND_CID>  (1) 
37541

>  <PUBCHEM_CONFORMER_RMSD>  (1) 
0.8

>  <PUBCHEM_CONFORMER_DIVERSEORDER>  (1) 
1
12
14
9
2
11
13
10
3
7
4
6
5
8

>  <PUBCHEM_MMFF94_PARTIAL_CHARGES>  (1) 
34
1 -0.34
10 0.31
11 -0.14
12 -0.15
13 0.1
14 -0.15
15 -0.15
16 -0.15
17 1.16
18 0.09
19 0.16
2 -0.34
20 -0.15
21 -0.15
22 -0.15
23 -0.15
24 0.63
25 0.4
26 0.15
27 0.15
28 0.15
29 0.15
3 -0.34
30 0.15
31 0.15
32 0.15
33 0.15
34 0.15
35 0.5
4 -0.65
5 -0.57
6 -0.6
7 -0.62
9 0.1

>  <PUBCHEM_EFFECTIVE_ROTOR_COUNT>  (1) 
4

>  <PUBCHEM_PHARMACOPHORE_FEATURES>  (1) 
9
1 4 acceptor
1 5 acceptor
1 6 cation
1 6 donor
1 7 acceptor
3 4 5 24 anion
6 13 18 20 21 22 23 rings
6 7 8 9 10 14 19 rings
6 8 10 11 12 15 16 rings

>  <PUBCHEM_HEAVY_ATOM_COUNT>  (1) 
24

>  <PUBCHEM_ATOM_DEF_STEREO_COUNT>  (1) 
0

>  <PUBCHEM_ATOM_UDEF_STEREO_COUNT>  (1) 
0

>  <PUBCHEM_BOND_DEF_STEREO_COUNT>  (1) 
0

>  <PUBCHEM_BOND_UDEF_STEREO_COUNT>  (1) 
0

>  <PUBCHEM_ISOTOPIC_ATOM_COUNT>  (1) 
0

>  <PUBCHEM_COMPONENT_COUNT>  (1) 
1

>  <PUBCHEM_CACTVS_TAUTO_COUNT>  (1) 
4

>  <PUBCHEM_CONFORMER_ID>  (1) 
000092A500000001

>  <PUBCHEM_MMFF94_ENERGY>  (1) 
86.2293

>  <PUBCHEM_FEATURE_SELFOVERLAP>  (1) 
45.76

>  <PUBCHEM_SHAPE_FINGERPRINT>  (1) 
10090160 65 18410570665458736295
10759866 29 18409733984317234918
10906281 52 18129958793239620673
11578080 2 18122309520509923688
12107183 9 17689153413957910506
12236239 1 18409448085260439266
12390115 104 17202499809655359777
12403259 118 18266734697375011008
12596602 18 18259985993814317507
12670546 56 18411979148538524528
12788726 201 17917722300400925609
13140716 1 17988072435044198475
13167823 11 18409729538973557106
13533116 47 18187085031561082698
13583140 156 17894922844577520313
13862211 1 18059567014851921255
14341114 176 18335706022556352890
14739800 52 17987222495713987528
14787075 74 18335701697693259899
14790565 3 18202293493803547217
14849402 71 18336545023876882576
15042514 8 18130500937886852295
15342168 16 17460044083417783220
16752209 62 18060697282117868550
17349148 13 18272647926622088551
17492 89 18339083674847974938
17844677 252 18113621149055343709
1813 80 18043536002365092422
18681886 176 18273493460534906738
200 152 18335979796508631985
20511986 3 18340473547966299540
20715895 44 17834674899018717057
21033648 29 16515397465168990541
21065198 48 18410014295537351552
21267235 1 18411987927583682818
23366157 5 18052834545719454839
23402539 116 17917419918060909743
23557571 272 17203335477036326736
23559900 14 18113900481001402032
2838139 119 17824811249373588253
3004659 81 18413392016922398886
312423 11 18337963307058696512
3411729 13 16915360312358143768
350125 39 18411980230843980848
3633792 109 18187632588451838111
38570 142 18116740554597637436
4340502 62 17531251681430639811
4409770 3 15815667891880891774
474 4 18041566961522742756
5104073 3 18413110541307632545
5312544 6 18408042922612344466
6034566 193 16883031462087320428
67856867 119 18410007758686986184
7097593 13 18266170626857365282

>  <PUBCHEM_SHAPE_MULTIPOLES>  (1) 
450.39
12.23
2.4
1.14
0.93
0.51
0.09
-0.14
-0.96
-1.32
0.03
-0.16
0.02
-2.4

>  <PUBCHEM_SHAPE_SELFOVERLAP>  (1) 
1002.925

>  <PUBCHEM_SHAPE_VOLUME>  (1) 
239.1

>  <PUBCHEM_COORDINATE_TYPE>  (1) 
2
5
10

$$$$
