37545
     RDKit          3D

  7  6  0  0  0  0  0  0  0  0999 V2000
   -0.6094    1.2240    0.2559 O   0  0  0  0  0  0  0  0  0  0  0  0
    0.0013    0.0287   -0.2240 C   0  0  0  0  0  0  0  0  0  0  0  0
   -0.8212   -1.1681    0.2665 C   0  0  0  0  0  0  0  0  0  0  0  0
    1.4442   -0.0600    0.2867 C   0  0  0  0  0  0  0  0  0  0  0  0
   -2.2736   -1.0973   -0.1876 C   0  0  0  0  0  0  0  0  0  0  0  0
    2.1706   -1.3043   -0.2067 C   0  0  0  0  0  0  0  0  0  0  0  0
    0.0881    2.3770   -0.1909 C   0  0  0  0  0  0  0  0  0  0  0  0
  1  2  1  0
  1  7  1  0
  2  3  1  0
  2  4  1  0
  3  5  1  0
  4  6  1  0
M  END
>  <PUBCHEM_COMPOUND_CID>  (1) 
37545

>  <PUBCHEM_CONFORMER_RMSD>  (1) 
0.4

>  <PUBCHEM_CONFORMER_DIVERSEORDER>  (1) 
2
5
3
10
4
1
11
6
9
7
8

>  <PUBCHEM_MMFF94_PARTIAL_CHARGES>  (1) 
3
1 -0.56
2 0.28
7 0.28

>  <PUBCHEM_EFFECTIVE_ROTOR_COUNT>  (1) 
3

>  <PUBCHEM_PHARMACOPHORE_FEATURES>  (1) 
3
1 1 acceptor
1 5 hydrophobe
1 6 hydrophobe

>  <PUBCHEM_HEAVY_ATOM_COUNT>  (1) 
7

>  <PUBCHEM_ATOM_DEF_STEREO_COUNT>  (1) 
0

>  <PUBCHEM_ATOM_UDEF_STEREO_COUNT>  (1) 
0

>  <PUBCHEM_BOND_DEF_STEREO_COUNT>  (1) 
0

>  <PUBCHEM_BOND_UDEF_STEREO_COUNT>  (1) 
0

>  <PUBCHEM_ISOTOPIC_ATOM_COUNT>  (1) 
0

>  <PUBCHEM_COMPONENT_COUNT>  (1) 
1

>  <PUBCHEM_CACTVS_TAUTO_COUNT>  (1) 
1

>  <PUBCHEM_CONFORMER_ID>  (1) 
000092A900000002

>  <PUBCHEM_MMFF94_ENERGY>  (1) 
10.6365

>  <PUBCHEM_FEATURE_SELFOVERLAP>  (1) 
15.223

>  <PUBCHEM_SHAPE_FINGERPRINT>  (1) 
16714656 1 18194129503422372634
20096714 4 17330274386278073529
21040471 1 17545598955363815386
23552423 10 18188778240797554870
23552449 1 18339638915524321728
23552449 11 17973706254327258307
29004967 10 18338233898256275154
5943 1 12640106524739601000

>  <PUBCHEM_SHAPE_MULTIPOLES>  (1) 
138.19
2.53
2.23
0.66
0.6
1.57
0.01
-1.68
0.15
-0.49
0.13
-0.01
-0.02
0.04

>  <PUBCHEM_SHAPE_SELFOVERLAP>  (1) 
240.568

>  <PUBCHEM_SHAPE_VOLUME>  (1) 
92.8

>  <PUBCHEM_COORDINATE_TYPE>  (1) 
2
5
10

$$$$
