37557
     RDKit          3D

 15 16  0  0  0  0  0  0  0  0999 V2000
   -0.5913    1.8282   -0.3375 O   0  0  0  0  0  0  0  0  0  0  0  0
   -1.1557   -0.4065    0.1017 N   0  0  0  0  0  0  0  0  0  0  0  0
   -3.1960    0.7854   -0.1490 N   0  0  0  0  0  0  0  0  0  0  0  0
   -3.3507   -1.3873    0.2841 N   0  0  0  0  0  0  0  0  0  0  0  0
    5.2309   -0.6730    0.0873 N   0  0  0  0  0  0  0  0  0  0  0  0
    1.1505    0.3127   -0.0531 C   0  0  0  0  0  0  0  0  0  0  0  0
   -0.2622    0.6542   -0.1024 C   0  0  0  0  0  0  0  0  0  0  0  0
    2.0884    1.2764    0.3173 C   0  0  0  0  0  0  0  0  0  0  0  0
    1.5676   -0.9784   -0.3769 C   0  0  0  0  0  0  0  0  0  0  0  0
   -2.5720   -0.3819    0.0868 C   0  0  0  0  0  0  0  0  0  0  0  0
    3.8607   -0.3421    0.0401 C   0  0  0  0  0  0  0  0  0  0  0  0
    3.4434    0.9490    0.3639 C   0  0  0  0  0  0  0  0  0  0  0  0
    2.9228   -1.3058   -0.3303 C   0  0  0  0  0  0  0  0  0  0  0  0
   -4.5330    0.5079   -0.1001 C   0  0  0  0  0  0  0  0  0  0  0  0
   -4.6035   -0.8390    0.1680 C   0  0  0  0  0  0  0  0  0  0  0  0
  1  7  2  0
  2  7  1  0
  2 10  1  0
  3 10  1  0
  3 14  1  0
  4 10  2  0
  4 15  1  0
  5 11  1  0
  6  7  1  0
  6  8  2  0
  6  9  1  0
  8 12  1  0
  9 13  2  0
 11 12  2  0
 11 13  1  0
 14 15  2  0
M  END
>  <PUBCHEM_COMPOUND_CID>  (1) 
37557

>  <PUBCHEM_CONFORMER_RMSD>  (1) 
0.6

>  <PUBCHEM_CONFORMER_DIVERSEORDER>  (1) 
1
2

>  <PUBCHEM_MMFF94_PARTIAL_CHARGES>  (1) 
25
1 -0.57
10 0.25
11 0.1
12 -0.15
13 -0.15
14 -0.3
15 0.08
16 0.15
17 0.15
18 0.37
19 0.15
2 -0.49
20 0.15
21 0.27
22 0.15
23 0.15
24 0.4
25 0.4
3 0.03
4 -0.57
5 -0.9
6 0.09
7 0.54
8 -0.15
9 -0.15

>  <PUBCHEM_EFFECTIVE_ROTOR_COUNT>  (1) 
3

>  <PUBCHEM_PHARMACOPHORE_FEATURES>  (1) 
7
1 1 acceptor
1 2 donor
1 3 donor
1 5 cation
1 5 donor
5 3 4 10 14 15 rings
6 6 8 9 11 12 13 rings

>  <PUBCHEM_HEAVY_ATOM_COUNT>  (1) 
15

>  <PUBCHEM_ATOM_DEF_STEREO_COUNT>  (1) 
0

>  <PUBCHEM_ATOM_UDEF_STEREO_COUNT>  (1) 
0

>  <PUBCHEM_BOND_DEF_STEREO_COUNT>  (1) 
0

>  <PUBCHEM_BOND_UDEF_STEREO_COUNT>  (1) 
0

>  <PUBCHEM_ISOTOPIC_ATOM_COUNT>  (1) 
0

>  <PUBCHEM_COMPONENT_COUNT>  (1) 
1

>  <PUBCHEM_CACTVS_TAUTO_COUNT>  (1) 
8

>  <PUBCHEM_CONFORMER_ID>  (1) 
000092B500000001

>  <PUBCHEM_MMFF94_ENERGY>  (1) 
47.5359

>  <PUBCHEM_FEATURE_SELFOVERLAP>  (1) 
35.556

>  <PUBCHEM_SHAPE_FINGERPRINT>  (1) 
11471102 20 18342454855055424068
12032990 46 18408887347252209089
12251169 10 17988923383507231734
12815109 37 18409729547410380754
13296908 3 18409167727297017935
14115302 16 17385734611813672314
14252887 29 17632584820962685782
15196674 1 18410574019532308019
15242439 84 18335698334617250693
15375358 24 18410293614182107459
17834072 33 17988921218859441351
17834074 16 18412826867318123991
18186145 218 16226045638812598989
19141452 34 18341614845742231551
200 152 17989485208152763201
20279233 1 18410580586843505559
20374829 77 18334010579604486058
20645477 70 18343584014573796143
20871998 22 18201166434065162806
21267235 1 18410865360096636675
221490 88 18191032398252646378
22485316 2 18408601457165266627
23402539 116 18040991830519453830
23402655 69 18343301461459651412
23557571 272 17749387022906570748
23559900 14 18409444791321437560
26918003 58 18343581841341020971
2871803 45 18334574607869154574
33824 294 18412262822596857266
42 15 18411140242498722211
4214541 1 18411419492941096273
5104073 3 18411701006092342201
69090 78 18343298197669946623
77779 3 18411702101546287625
8809292 202 18260552259419168203
9709674 26 18411425028874749263

>  <PUBCHEM_SHAPE_MULTIPOLES>  (1) 
282.9
10.05
1.44
0.64
2.72
0.15
0
-2.14
-0.61
-0.2
0.04
-0.04
0
0.44

>  <PUBCHEM_SHAPE_SELFOVERLAP>  (1) 
612.53

>  <PUBCHEM_SHAPE_VOLUME>  (1) 
155.1

>  <PUBCHEM_COORDINATE_TYPE>  (1) 
2
5
10

$$$$
