37552
     RDKit          3D

 17 18  0  0  0  0  0  0  0  0999 V2000
   -0.0589    1.7577   -0.1971 O   0  0  0  0  0  0  0  0  0  0  0  0
   -0.5204   -0.5249    0.0890 N   0  0  0  0  0  0  0  0  0  0  0  0
   -2.5333   -1.7578    0.2313 N   0  0  0  0  0  0  0  0  0  0  0  0
    5.8714   -0.5046    0.0200 N   0  0  0  0  0  0  0  0  0  0  0  0
    1.7504    0.3055   -0.0285 C   0  0  0  0  0  0  0  0  0  0  0  0
   -1.9365   -0.5625    0.0840 C   0  0  0  0  0  0  0  0  0  0  0  0
   -3.9813    0.6129   -0.0791 C   0  0  0  0  0  0  0  0  0  0  0  0
    0.3237    0.5862   -0.0460 C   0  0  0  0  0  0  0  0  0  0  0  0
   -2.5911    0.6399   -0.0730 C   0  0  0  0  0  0  0  0  0  0  0  0
    2.6481    1.2821    0.4026 C   0  0  0  0  0  0  0  0  0  0  0  0
    2.2213   -0.9402   -0.4435 C   0  0  0  0  0  0  0  0  0  0  0  0
    4.4876   -0.2326    0.0038 C   0  0  0  0  0  0  0  0  0  0  0  0
    4.0167    1.0131    0.4186 C   0  0  0  0  0  0  0  0  0  0  0  0
    3.5898   -1.2093   -0.4275 C   0  0  0  0  0  0  0  0  0  0  0  0
   -4.6483   -0.5980    0.0698 C   0  0  0  0  0  0  0  0  0  0  0  0
   -4.7542    1.8770   -0.2446 C   0  0  0  0  0  0  0  0  0  0  0  0
   -3.8851   -1.7445    0.2203 C   0  0  0  0  0  0  0  0  0  0  0  0
  1  8  2  0
  2  6  1  0
  2  8  1  0
  3  6  2  0
  3 17  1  0
  4 12  1  0
  5  8  1  0
  5 10  2  0
  5 11  1  0
  6  9  1  0
  7  9  2  0
  7 15  1  0
  7 16  1  0
 10 13  1  0
 11 14  2  0
 12 13  2  0
 12 14  1  0
 15 17  2  0
M  END
>  <PUBCHEM_COMPOUND_CID>  (1) 
37552

>  <PUBCHEM_CONFORMER_RMSD>  (1) 
0.6

>  <PUBCHEM_CONFORMER_DIVERSEORDER>  (1) 
1
2

>  <PUBCHEM_MMFF94_PARTIAL_CHARGES>  (1) 
27
1 -0.57
10 -0.15
11 -0.15
12 0.1
13 -0.15
14 -0.15
15 -0.15
16 0.14
17 0.16
18 0.15
19 0.37
2 -0.55
20 0.15
21 0.15
22 0.15
23 0.15
24 0.15
28 0.15
29 0.4
3 -0.62
30 0.4
4 -0.9
5 0.09
6 0.43
7 -0.14
8 0.54
9 -0.15

>  <PUBCHEM_EFFECTIVE_ROTOR_COUNT>  (1) 
3

>  <PUBCHEM_PHARMACOPHORE_FEATURES>  (1) 
6
1 1 acceptor
1 2 donor
1 4 cation
1 4 donor
6 3 6 7 9 15 17 rings
6 5 10 11 12 13 14 rings

>  <PUBCHEM_HEAVY_ATOM_COUNT>  (1) 
17

>  <PUBCHEM_ATOM_DEF_STEREO_COUNT>  (1) 
0

>  <PUBCHEM_ATOM_UDEF_STEREO_COUNT>  (1) 
0

>  <PUBCHEM_BOND_DEF_STEREO_COUNT>  (1) 
0

>  <PUBCHEM_BOND_UDEF_STEREO_COUNT>  (1) 
0

>  <PUBCHEM_ISOTOPIC_ATOM_COUNT>  (1) 
0

>  <PUBCHEM_COMPONENT_COUNT>  (1) 
1

>  <PUBCHEM_CACTVS_TAUTO_COUNT>  (1) 
8

>  <PUBCHEM_CONFORMER_ID>  (1) 
000092B000000001

>  <PUBCHEM_MMFF94_ENERGY>  (1) 
65.4935

>  <PUBCHEM_FEATURE_SELFOVERLAP>  (1) 
30.446

>  <PUBCHEM_SHAPE_FINGERPRINT>  (1) 
10014705 185 18335136488681661413
10680689 15 18113621188052804193
12107183 9 17762055441268024098
12236239 1 17312823762614118588
12500047 106 18341889710215575855
12507560 40 18343017838994167377
13167823 11 18408882966380565386
13296908 3 18411419535405310135
13675066 3 18342454880471793529
14251731 8 18409167684104719468
14252887 29 17346326981672085702
14386348 63 18413110550145447142
15042514 8 18191592072122577579
15196674 1 18410856581119907300
15242439 84 18341611499171261172
15375358 24 18343021081720882199
15788980 27 18186803590585193168
17834072 33 18343021133492377404
17834072 8 18335979792466963333
17844677 252 18410300236895246289
1813 80 17167582691405238004
18186145 218 15647336385256734388
19141452 34 18412828006033168159
200 152 17632574941920583368
20279233 1 18343309166636398119
20374829 77 18407758123372988818
20645477 56 18335139757304773933
20645477 70 17917433090340926726
21065198 57 18411981390099795057
21065199 12 18340768246951681107
21065201 7 18261104197070895107
21267235 1 18336554892877739475
21279426 13 18195529177466526863
21421861 104 17606391065059515842
21452121 103 18199739401549273888
21709351 56 18411131459216866388
221490 88 18263933317703621850
2215653 11 18272651199350290471
22485316 2 18408885126828035058
23402539 116 18409162203668434140
23402655 69 18343582927978341748
23557571 272 18410579478467584925
23559900 14 18342453729726636880
26918003 58 18272650138730705864
3004659 81 18188494575999524430
3545911 37 18412265021514117617
42 15 18410857676399929790
4214541 1 18410856559998667609
4463277 17 18411420622886714796
4921388 177 16515696588488204067
5104073 3 18411981381557418560
542803 24 17312825974332372124
559249 180 18335134259050471827
573450 72 18187635912513899611
633830 44 17458346368053715328
77779 3 18410575110453994705
9709674 26 18264773336140116131

>  <PUBCHEM_SHAPE_MULTIPOLES>  (1) 
329.04
11.92
1.75
0.65
2.82
0.07
0
-0.44
0.11
-1.34
0
0.07
0
0.7

>  <PUBCHEM_SHAPE_SELFOVERLAP>  (1) 
707.659

>  <PUBCHEM_SHAPE_VOLUME>  (1) 
181.2

>  <PUBCHEM_COORDINATE_TYPE>  (1) 
2
5
10

$$$$
