37567
     RDKit          3D

 26 29  0  0  1  0  0  0  0  0999 V2000
    0.5431   -2.0957    1.6995 O   0  0  0  0  0  0  0  0  0  0  0  0
    0.2426    2.5160   -0.0224 N   0  0  0  0  0  0  0  0  0  0  0  0
   -2.0957   -0.4054    0.4495 N   0  0  0  0  0  0  0  0  0  0  0  0
    0.3111    0.1955    0.8843 C   0  0  0  0  0  0  0  0  0  0  0  0
    0.7704   -1.2591    0.5505 C   0  0  0  0  0  0  0  0  0  0  0  0
    0.5586    1.1304   -0.3359 C   0  0  0  0  0  0  0  0  0  0  0  0
   -0.2075   -1.7236   -0.5644 C   0  0  0  0  0  0  0  0  0  0  0  0
   -0.0210    0.6513   -1.6961 C   0  0  0  0  0  0  0  0  0  0  0  0
   -0.0433   -0.8863   -1.8522 C   0  0  0  0  0  0  0  0  0  0  0  0
   -1.1531    0.1782    1.4016 C   0  0  0  0  0  0  0  0  0  0  0  0
   -1.6680   -1.7120   -0.0461 C   0  0  0  0  0  0  0  0  0  0  0  0
    2.2649   -1.4434    0.2568 C   0  0  0  0  0  0  0  0  0  0  0  0
   -1.3498    1.2911   -2.1301 C   0  0  0  0  0  0  0  0  0  0  0  0
    0.9243    2.9850    1.1838 C   0  0  0  0  0  0  0  0  0  0  0  0
    0.6623    3.4371   -1.0781 C   0  0  0  0  0  0  0  0  0  0  0  0
   -3.4456   -0.4633    1.0040 C   0  0  0  0  0  0  0  0  0  0  0  0
    0.7743    4.4967    1.0946 C   0  0  0  0  0  0  0  0  0  0  0  0
    0.5986    4.7934   -0.3915 C   0  0  0  0  0  0  0  0  0  0  0  0
    2.6889   -2.4875   -0.5635 C   0  0  0  0  0  0  0  0  0  0  0  0
    3.1958   -0.5665    0.8110 C   0  0  0  0  0  0  0  0  0  0  0  0
   -4.4342   -0.9467   -0.0557 C   0  0  0  0  0  0  0  0  0  0  0  0
    4.0478   -2.6553   -0.8302 C   0  0  0  0  0  0  0  0  0  0  0  0
    4.5547   -0.7342    0.5442 C   0  0  0  0  0  0  0  0  0  0  0  0
   -5.8518   -1.0352    0.5106 C   0  0  0  0  0  0  0  0  0  0  0  0
    4.9805   -1.7787   -0.2764 C   0  0  0  0  0  0  0  0  0  0  0  0
   -6.8480   -1.4817   -0.5477 C   0  0  0  0  0  0  0  0  0  0  0  0
  1  5  1  0
  2  6  1  0
  2 14  1  0
  2 15  1  0
  3 10  1  0
  3 11  1  0
  3 16  1  0
  4  5  1  0
  4  6  1  0
  4 10  1  0
  5  7  1  0
  5 12  1  0
  6  8  1  0
  7  9  1  0
  7 11  1  0
  8  9  1  0
  8 13  1  0
 12 19  2  0
 12 20  1  0
 14 17  1  0
 15 18  1  0
 16 21  1  0
 17 18  1  0
 19 22  1  0
 20 23  2  0
 21 24  1  0
 22 25  2  0
 23 25  1  0
 24 26  1  0
M  END
>  <PUBCHEM_COMPOUND_CID>  (1) 
37567

>  <PUBCHEM_CONFORMER_RMSD>  (1) 
0.8

>  <PUBCHEM_CONFORMER_DIVERSEORDER>  (1) 
1
90
153
145
141
2
142
84
70
119
108
40
138
73
156
69
148
123
59
143
63
106
144
157
88
105
44
76
9
29
135
67
150
35
113
127
68
82
92
151
60
8
109
131
140
53
155
146
5
30
39
139
111
31
33
102
86
121
89
74
47
87
54
120
152
22
95
137
21
129
58
149
122
49
96
71
13
147
4
103
124
115
57
154
56
116
118
38
41
85
48
16
100
93
26
136
75
3
62
80
98
72
6
117
34
125
14
110
133
50
104
55
43
64
15
112
107
61
134
65
24
132
128
28
11
91
23
12
126
94
81
130
101
17
51
77
32
99
27
97
78
52
10
42
83
25
66
37
79
18
36
7
114
20
46
45
19

>  <PUBCHEM_MMFF94_PARTIAL_CHARGES>  (1) 
22
1 -0.68
10 0.27
11 0.27
12 -0.14
14 0.27
15 0.27
16 0.27
19 -0.15
2 -0.81
20 -0.15
22 -0.15
23 -0.15
25 -0.15
3 -0.81
44 0.4
5 0.42
51 0.15
52 0.15
55 0.15
56 0.15
59 0.15
6 0.27

>  <PUBCHEM_EFFECTIVE_ROTOR_COUNT>  (1) 
7.4

>  <PUBCHEM_PHARMACOPHORE_FEATURES>  (1) 
9
1 1 acceptor
1 1 donor
1 2 cation
1 26 hydrophobe
1 3 cation
5 2 14 15 17 18 rings
6 12 19 20 22 23 25 rings
6 3 4 5 7 10 11 rings
6 4 5 6 7 8 9 rings

>  <PUBCHEM_HEAVY_ATOM_COUNT>  (1) 
26

>  <PUBCHEM_ATOM_DEF_STEREO_COUNT>  (1) 
0

>  <PUBCHEM_ATOM_UDEF_STEREO_COUNT>  (1) 
5

>  <PUBCHEM_BOND_DEF_STEREO_COUNT>  (1) 
0

>  <PUBCHEM_BOND_UDEF_STEREO_COUNT>  (1) 
0

>  <PUBCHEM_ISOTOPIC_ATOM_COUNT>  (1) 
0

>  <PUBCHEM_COMPONENT_COUNT>  (1) 
1

>  <PUBCHEM_CACTVS_TAUTO_COUNT>  (1) 
1

>  <PUBCHEM_CONFORMER_ID>  (1) 
000092BF00000001

>  <PUBCHEM_MMFF94_ENERGY>  (1) 
79.2931

>  <PUBCHEM_FEATURE_SELFOVERLAP>  (1) 
47.135

>  <PUBCHEM_SHAPE_FINGERPRINT>  (1) 
10930396 42 18191280798625260274
11582403 64 15693486362824363232
12166972 35 18273496789008032275
12173636 292 17906173945633716326
12293681 4 18124026828817969709
12516196 113 18410575067626160795
12788726 201 17762877893156473397
13004483 165 18267297642870252811
131258 43 18055387753901218046
13134695 92 18409176527706119597
13590594 115 18337401444101812401
13899415 154 18337685186319757094
14170010 4 18410572929217438955
14347332 77 18120375355029072450
14713325 29 17837775530577659046
14787075 74 18187653496210320198
14955137 171 18411708694342770655
15230672 131 17397272007286345340
15420108 30 17692234653761648880
15439362 3 18193556890325961049
16945 1 18269002044833111947
17980427 23 17775014457734364201
17980427 26 17983291831105797965
1813 80 18200887192165731487
18222031 100 18410293596960326323
18393751 57 18128232650205141762
18785283 64 18192427695835823721
20238998 120 18413105035175798384
21033648 29 17702647883738801259
21424621 283 7853563595857939039
22907989 373 18193564355115869196
23419403 2 18115851027398233029
23557571 272 18263647273430802062
23559900 14 18338795723704017595
23845131 108 17185877190502597040
283562 15 18117565028872000594
3493558 16 18130229358060494433
469060 322 17677622956088055368
5895379 119 17487647168372759945
6442390 28 17043746612351186169
67856867 119 18198903794281601307
6823239 73 16443632419250685459
7399639 24 18200865172654595906
81228 2 17826253799611319026
9981440 41 13628369248306398822

>  <PUBCHEM_SHAPE_MULTIPOLES>  (1) 
519.24
8.93
4.86
1.56
12.74
8.53
0.42
-10.29
-0.32
-3.34
0.02
0.17
0.38
0.53

>  <PUBCHEM_SHAPE_SELFOVERLAP>  (1) 
1090.762

>  <PUBCHEM_SHAPE_VOLUME>  (1) 
290.6

>  <PUBCHEM_COORDINATE_TYPE>  (1) 
2
5
10

$$$$
