37568
     RDKit          3D

 16 15  0  0  0  0  0  0  0  0999 V2000
   -3.5967   -0.1439   -0.1241 N   0  0  0  0  0  0  0  0  0  0  0  0
    3.6882    0.2217    0.4259 N   0  0  0  0  0  0  0  0  0  0  0  0
   -0.6876   -0.0665    0.4364 C   0  0  0  0  0  0  0  0  0  0  0  0
    0.7576    0.1148   -0.0336 C   0  0  0  0  0  0  0  0  0  0  0  0
   -1.3894   -1.1810   -0.3454 C   0  0  0  0  0  0  0  0  0  0  0  0
    1.4722    1.2016    0.7750 C   0  0  0  0  0  0  0  0  0  0  0  0
   -2.8374   -1.3771    0.0906 C   0  0  0  0  0  0  0  0  0  0  0  0
    2.8976    1.4464    0.2915 C   0  0  0  0  0  0  0  0  0  0  0  0
   -4.8414   -0.1334    0.1989 C   0  0  0  0  0  0  0  0  0  0  0  0
    4.9215    0.2525    0.0626 C   0  0  0  0  0  0  0  0  0  0  0  0
   -5.5997    1.1661    0.0101 C   0  0  0  0  0  0  0  0  0  0  0  0
    5.7353   -1.0131    0.2507 C   0  0  0  0  0  0  0  0  0  0  0  0
   -5.5901   -1.2980    0.8028 C   0  0  0  0  0  0  0  0  0  0  0  0
    5.6341    1.4668   -0.4841 C   0  0  0  0  0  0  0  0  0  0  0  0
   -6.2948    1.1874   -1.3386 C   0  0  0  0  0  0  0  0  0  0  0  0
    5.7305   -1.8444   -1.0188 C   0  0  0  0  0  0  0  0  0  0  0  0
  1  7  1  0
  1  9  2  0
  2  8  1  0
  2 10  2  0
  3  4  1  0
  3  5  1  0
  4  6  1  0
  5  7  1  0
  6  8  1  0
  9 11  1  0
  9 13  1  0
 10 12  1  0
 10 14  1  0
 11 15  1  0
 12 16  1  0
M  END
>  <PUBCHEM_COMPOUND_CID>  (1) 
37568

>  <PUBCHEM_CONFORMER_RMSD>  (1) 
0.8

>  <PUBCHEM_CONFORMER_DIVERSEORDER>  (1) 
1
47
159
3
288
69
220
98
121
110
310
247
79
162
11
196
168
192
258
234
229
103
147
190
124
279
321
273
46
99
324
296
269
221
84
21
237
259
228
48
251
81
169
62
314
173
129
249
71
183
141
22
250
108
238
311
153
265
198
156
119
86
149
116
216
266
264
271
75
239
260
302
203
230
195
57
8
5
303
33
133
68
207
174
206
219
34
114
24
115
312
26
323
113
289
131
158
101
136
243
218
257
89
180
58
197
61
82
300
225
315
30
127
6
18
78
277
185
15
215
202
154
17
282
305
223
36
306
51
143
139
100
41
232
175
42
255
29
276
226
166
294
118
112
295
201
83
272
319
32
96
299
85
93
199
107
19
88
172
145
109
44
60
157
40
2
165
320
28
146
214
254
55
106
186
256
67
316
209
148
91
176
213
27
193
7
63
16
45
65
287
281
211
298
140
241
278
171
94
164
253
170
14
244
111
151
4
309
35
208
297
191
291
138
194
117
182
224
137
245
301
90
52
242
43
9
313
248
105
87
284
268
177
37
130
308
307
73
267
66
72
293
134
280
184
38
222
160
125
252
179
74
77
135
49
325
161
92
155
178
132
240
150
200
286
275
231
204
104
144
31
70
270
274
142
322
54
187
122
80
233
227
12
246
283
290
102
163
126
210
123
25
318
97
262
292
13
64
53
10
217
95
189
76
59
188
205
167
23
263
56
285
317
261
20
304
39
120
181
128
235
212
152
50
236

>  <PUBCHEM_MMFF94_PARTIAL_CHARGES>  (1) 
10
1 -0.7
10 0.33
11 0.06
12 0.06
13 0.06
14 0.06
2 -0.7
7 0.25
8 0.25
9 0.33

>  <PUBCHEM_EFFECTIVE_ROTOR_COUNT>  (1) 
9

>  <PUBCHEM_PHARMACOPHORE_FEATURES>  (1) 
5
1 1 acceptor
1 15 hydrophobe
1 16 hydrophobe
1 2 acceptor
4 3 4 5 6 hydrophobe

>  <PUBCHEM_HEAVY_ATOM_COUNT>  (1) 
16

>  <PUBCHEM_ATOM_DEF_STEREO_COUNT>  (1) 
0

>  <PUBCHEM_ATOM_UDEF_STEREO_COUNT>  (1) 
0

>  <PUBCHEM_BOND_DEF_STEREO_COUNT>  (1) 
0

>  <PUBCHEM_BOND_UDEF_STEREO_COUNT>  (1) 
0

>  <PUBCHEM_ISOTOPIC_ATOM_COUNT>  (1) 
0

>  <PUBCHEM_COMPONENT_COUNT>  (1) 
1

>  <PUBCHEM_CACTVS_TAUTO_COUNT>  (1) 
1

>  <PUBCHEM_CONFORMER_ID>  (1) 
000092C000000001

>  <PUBCHEM_MMFF94_ENERGY>  (1) 
20.5384

>  <PUBCHEM_FEATURE_SELFOVERLAP>  (1) 
25.373

>  <PUBCHEM_SHAPE_FINGERPRINT>  (1) 
10066227 112 18334855047664210948
10638233 991 15285367231623286535
11724838 91 9294994757607880418
11858739 19 18130791135983754198
12616971 3 15123514769803359099
12670543 26 18412824668347622389
12730499 353 11314309430448870392
13533116 47 17346883321739702238
14251731 8 18341895212036858241
14251752 14 18261670389629841376
14251758 9 18060134349280948042
146900 427 12324243858193319212
14848160 23 11671785970184699909
15183329 4 18341614784947804264
15531645 54 18413387622627562073
15778101 99 18335138662483758825
17834072 8 18412822482362223529
190975 80 8502356859467399517
19489759 90 14477249262346743155
20281389 69 18334856138780822897
20621476 66 18187085061657690413
20645477 70 18411421713850638426
20765182 114 17344919520810533566
21054139 6 13901899021246202845
21279426 13 18410858741599623262
220451 1 17774728661614319598
22079108 93 9943519700918894864
2215653 11 18202563973431390638
23218964 4 18411697681750653001
23402539 116 14117524246663792729
23536379 177 18260548939425045224
23559900 14 18059005198047257953
29717793 49 18272934899805823284
300161 21 18201153356211506160
3004659 81 18408888426249102694
3014965 18 18341328903566990414
328311 84 18408328783009211875
32948 21 18410574006916717368
34797466 226 13262402133419203874
42788 4 18334294292274910793
559249 180 17988637519179992103
59755656 215 18335419015376785439
59755656 520 18261666044030676023
633830 44 17896311579403248738
8988823 20 16200424776529467146
90127 26 17894915178230079049
9965369 4 18129947771404032073

>  <PUBCHEM_SHAPE_MULTIPOLES>  (1) 
319.31
19.24
1.77
0.93
2.06
0.16
-0.16
-0.08
-3.43
-0.82
-0.21
0.4
-0.03
1.54

>  <PUBCHEM_SHAPE_SELFOVERLAP>  (1) 
585.463

>  <PUBCHEM_SHAPE_VOLUME>  (1) 
202

>  <PUBCHEM_COORDINATE_TYPE>  (1) 
2
5
10

$$$$
