37566
     RDKit          3D

 15 15  0  0  0  0  0  0  0  0999 V2000
   -1.2896   -0.4629    0.4507 O   0  0  0  0  0  0  0  0  0  0  0  0
    0.1381    0.5619   -1.0434 O   0  0  0  0  0  0  0  0  0  0  0  0
   -4.8628   -0.0207   -0.3382 N   0  0  0  0  0  0  0  0  0  0  0  0
   -3.6805   -0.4865    0.3858 C   0  0  0  0  0  0  0  0  0  0  0  0
   -2.4095   -0.0028   -0.2941 C   0  0  0  0  0  0  0  0  0  0  0  0
    1.0138   -0.6722    0.8622 C   0  0  0  0  0  0  0  0  0  0  0  0
    2.4063   -0.2994    0.4232 C   0  0  0  0  0  0  0  0  0  0  0  0
   -4.8701    1.4395   -0.4192 C   0  0  0  0  0  0  0  0  0  0  0  0
   -6.0819   -0.5027    0.3099 C   0  0  0  0  0  0  0  0  0  0  0  0
   -0.0591   -0.1067   -0.0378 C   0  0  0  0  0  0  0  0  0  0  0  0
    3.0871   -1.1250   -0.4598 C   0  0  0  0  0  0  0  0  0  0  0  0
    2.9863    0.8633    0.9088 C   0  0  0  0  0  0  0  0  0  0  0  0
    4.3762   -0.7802   -0.8660 C   0  0  0  0  0  0  0  0  0  0  0  0
    4.2755    1.2082    0.5026 C   0  0  0  0  0  0  0  0  0  0  0  0
    4.9704    0.3863   -0.3848 C   0  0  0  0  0  0  0  0  0  0  0  0
  1  5  1  0
  1 10  1  0
  2 10  2  0
  3  4  1  0
  3  8  1  0
  3  9  1  0
  4  5  1  0
  6  7  1  0
  6 10  1  0
  7 11  2  0
  7 12  1  0
 11 13  1  0
 12 14  2  0
 13 15  2  0
 14 15  1  0
M  END
>  <PUBCHEM_COMPOUND_CID>  (1) 
37566

>  <PUBCHEM_CONFORMER_RMSD>  (1) 
0.8

>  <PUBCHEM_CONFORMER_DIVERSEORDER>  (1) 
1
10
65
19
62
61
20
27
60
33
24
74
56
78
35
69
50
22
47
8
7
76
15
32
2
68
17
30
72
38
28
67
39
73
3
21
18
31
46
36
42
23
12
6
51
29
58
43
66
45
57
13
53
63
16
26
75
5
59
40
44
52
34
9
64
11
4
71
48
14
54
25
77
41
55
49
70
37

>  <PUBCHEM_MMFF94_PARTIAL_CHARGES>  (1) 
20
1 -0.43
10 0.66
11 -0.15
12 -0.15
13 -0.15
14 -0.15
15 -0.15
2 -0.57
28 0.15
29 0.15
3 -0.81
30 0.15
31 0.15
32 0.15
4 0.27
5 0.28
6 0.2
7 -0.14
8 0.27
9 0.27

>  <PUBCHEM_EFFECTIVE_ROTOR_COUNT>  (1) 
6

>  <PUBCHEM_PHARMACOPHORE_FEATURES>  (1) 
3
1 2 acceptor
1 3 cation
6 7 11 12 13 14 15 rings

>  <PUBCHEM_HEAVY_ATOM_COUNT>  (1) 
15

>  <PUBCHEM_ATOM_DEF_STEREO_COUNT>  (1) 
0

>  <PUBCHEM_ATOM_UDEF_STEREO_COUNT>  (1) 
0

>  <PUBCHEM_BOND_DEF_STEREO_COUNT>  (1) 
0

>  <PUBCHEM_BOND_UDEF_STEREO_COUNT>  (1) 
0

>  <PUBCHEM_ISOTOPIC_ATOM_COUNT>  (1) 
0

>  <PUBCHEM_COMPONENT_COUNT>  (1) 
1

>  <PUBCHEM_CACTVS_TAUTO_COUNT>  (1) 
1

>  <PUBCHEM_CONFORMER_ID>  (1) 
000092BE00000001

>  <PUBCHEM_MMFF94_ENERGY>  (1) 
30.9297

>  <PUBCHEM_FEATURE_SELFOVERLAP>  (1) 
15.223

>  <PUBCHEM_SHAPE_FINGERPRINT>  (1) 
11287383 113 18341332270620747419
11471102 20 18060139847508909002
12730499 353 18412269445415263930
12916748 109 18333452041025544001
13760787 19 17275099569819902542
13760787 5 16415757535564110073
13836976 161 17203612592768769726
14123238 8 16515684446715585411
1420 363 18335144206774776747
14251718 22 18409730677334919723
14573314 32 18412827954129524797
15242439 84 18413392033469473259
17834072 33 18060416936780821431
17834076 25 17676205775287496763
17844677 252 18343026583953913385
20645477 70 17917435285253967566
220451 1 17060340738569626479
22289505 5 18272366447746581872
23402539 116 10519983747425103555
23402655 69 18060137648153356928
23557571 272 17676489384841959134
29717793 49 15985112898871838828
300161 21 17489577983187957742
3060560 45 17918278658375645246
3545911 37 18343866640506328603
4047638 21 18408884057987664578
42 15 8574714610924701923
42788 4 18409730660012560779
465052 167 16415483765653240246
4990 188 18413392020848406366
522135 26 17561083605520109254
5374978 207 14056715755862807092
542803 24 16660364774930250781
8272917 22 17417820508606400030
90127 26 18408891719845505865

>  <PUBCHEM_SHAPE_MULTIPOLES>  (1) 
291.97
13.74
1.14
0.92
13.75
0.21
0
1.29
1.07
-0.38
0.03
-0.34
0.02
0.89

>  <PUBCHEM_SHAPE_SELFOVERLAP>  (1) 
585.599

>  <PUBCHEM_SHAPE_VOLUME>  (1) 
172.8

>  <PUBCHEM_COORDINATE_TYPE>  (1) 
2
5
10

$$$$
