37575
     RDKit          3D

 10 10  0  0  0  0  0  0  0  0999 V2000
    1.5256    0.6051   -0.0597 O   0  0  0  0  0  0  0  0  0  0  0  0
    2.7200   -1.3651    0.1096 O   0  0  0  0  0  0  0  0  0  0  0  0
   -2.1324    0.0768   -0.1664 N   0  0  0  0  0  0  0  0  0  0  0  0
   -2.3652   -0.7373    0.9996 C   0  0  0  0  0  0  0  0  0  0  0  0
   -3.1373    0.5410    0.7559 C   0  0  0  0  0  0  0  0  0  0  0  0
   -0.8597    0.8410   -0.1872 C   0  0  0  0  0  0  0  0  0  0  0  0
   -2.5876   -0.4446   -1.4562 C   0  0  0  0  0  0  0  0  0  0  0  0
    0.3050   -0.1230   -0.0766 C   0  0  0  0  0  0  0  0  0  0  0  0
    2.6651   -0.1450    0.0376 C   0  0  0  0  0  0  0  0  0  0  0  0
    3.8665    0.7510    0.0435 C   0  0  0  0  0  0  0  0  0  0  0  0
  1  8  1  0
  1  9  1  0
  2  9  2  0
  3  4  1  0
  3  5  1  0
  3  6  1  0
  3  7  1  0
  4  5  1  0
  6  8  1  0
  9 10  1  0
M  CHG  1   3   1
M  END
>  <PUBCHEM_COMPOUND_CID>  (1) 
37575

>  <PUBCHEM_CONFORMER_RMSD>  (1) 
0.6

>  <PUBCHEM_CONFORMER_DIVERSEORDER>  (1) 
3
20
6
2
9
16
22
17
21
18
7
1
8
13
19
5
10
12
15
14
11
4

>  <PUBCHEM_MMFF94_PARTIAL_CHARGES>  (1) 
14
1 -0.43
10 0.06
11 0.1
12 0.1
13 0.1
14 0.1
2 -0.57
3 -0.8
4 0.2
5 0.2
6 0.5
7 0.5
8 0.28
9 0.66

>  <PUBCHEM_EFFECTIVE_ROTOR_COUNT>  (1) 
4.6

>  <PUBCHEM_PHARMACOPHORE_FEATURES>  (1) 
2
1 2 acceptor
1 3 cation

>  <PUBCHEM_HEAVY_ATOM_COUNT>  (1) 
10

>  <PUBCHEM_ATOM_DEF_STEREO_COUNT>  (1) 
0

>  <PUBCHEM_ATOM_UDEF_STEREO_COUNT>  (1) 
0

>  <PUBCHEM_BOND_DEF_STEREO_COUNT>  (1) 
0

>  <PUBCHEM_BOND_UDEF_STEREO_COUNT>  (1) 
0

>  <PUBCHEM_ISOTOPIC_ATOM_COUNT>  (1) 
0

>  <PUBCHEM_COMPONENT_COUNT>  (1) 
1

>  <PUBCHEM_CACTVS_TAUTO_COUNT>  (1) 
1

>  <PUBCHEM_CONFORMER_ID>  (1) 
000092C700000003

>  <PUBCHEM_MMFF94_ENERGY>  (1) 
23.778

>  <PUBCHEM_FEATURE_SELFOVERLAP>  (1) 
10.148

>  <PUBCHEM_SHAPE_FINGERPRINT>  (1) 
11062470 55 18413672404655406609
12162725 195 11818995175454343518
12932764 1 17989202642412744816
14144814 61 17561080306552605366
14325111 11 18409731750870905024
15775835 57 17918276445644561030
20201158 50 18113337513715253954
20279233 1 17676200273460855234
20645477 56 16153698796033664757
20645477 70 18264197037460143406
22169311 21 17385714790592212618
3248919 1 18187362129813033640

>  <PUBCHEM_SHAPE_MULTIPOLES>  (1) 
189.08
6.62
1.02
1
3.94
0.1
0.03
-0.3
-0.35
0.09
0.01
-0.82
0.19
-0.52

>  <PUBCHEM_SHAPE_SELFOVERLAP>  (1) 
359.967

>  <PUBCHEM_SHAPE_VOLUME>  (1) 
119.1

>  <PUBCHEM_COORDINATE_TYPE>  (1) 
2
5
10

$$$$
