37583
     RDKit          3D

 14 14  0  0  0  0  0  0  0  0999 V2000
   -5.2094   -0.3923   -0.0111 N   0  0  0  0  0  0  0  0  0  0  0  0
    4.9550    0.8341    0.0293 N   0  0  0  0  0  0  0  0  0  0  0  0
    2.0241   -2.5325   -0.0768 N   0  0  0  0  0  0  0  0  0  0  0  0
    0.0703    0.6440    0.0213 C   0  0  0  0  0  0  0  0  0  0  0  0
   -0.6071    0.4355    1.2227 C   0  0  0  0  0  0  0  0  0  0  0  0
   -0.6209    0.5840   -1.1886 C   0  0  0  0  0  0  0  0  0  0  0  0
   -2.6672    0.1071    0.0041 C   0  0  0  0  0  0  0  0  0  0  0  0
   -1.9759    0.1669    1.2141 C   0  0  0  0  0  0  0  0  0  0  0  0
   -1.9898    0.3157   -1.1973 C   0  0  0  0  0  0  0  0  0  0  0  0
    1.4981    0.9215    0.0302 C   0  0  0  0  0  0  0  0  0  0  0  0
    2.5016    0.0102   -0.0091 C   0  0  0  0  0  0  0  0  0  0  0  0
   -4.0694   -0.1684   -0.0042 C   0  0  0  0  0  0  0  0  0  0  0  0
    3.8545    0.4659    0.0124 C   0  0  0  0  0  0  0  0  0  0  0  0
    2.2360   -1.3918   -0.0469 C   0  0  0  0  0  0  0  0  0  0  0  0
  1 12  3  0
  2 13  3  0
  3 14  3  0
  4  5  2  0
  4  6  1  0
  4 10  1  0
  5  8  1  0
  6  9  2  0
  7  8  2  0
  7  9  1  0
  7 12  1  0
 10 11  2  3
 11 13  1  0
 11 14  1  0
M  END
>  <PUBCHEM_COMPOUND_CID>  (1) 
37583

>  <PUBCHEM_CONFORMER_RMSD>  (1) 
0.4

>  <PUBCHEM_CONFORMER_DIVERSEORDER>  (1) 
1
2
3

>  <PUBCHEM_MMFF94_PARTIAL_CHARGES>  (1) 
19
1 -0.56
10 -0.18
11 0.13
12 0.48
13 0.49
14 0.49
15 0.15
16 0.15
17 0.15
18 0.15
19 0.15
2 -0.56
3 -0.56
4 0.03
5 -0.15
6 -0.15
7 0.07
8 -0.15
9 -0.15

>  <PUBCHEM_EFFECTIVE_ROTOR_COUNT>  (1) 
1

>  <PUBCHEM_PHARMACOPHORE_FEATURES>  (1) 
4
1 1 acceptor
1 2 acceptor
1 3 acceptor
6 4 5 6 7 8 9 rings

>  <PUBCHEM_HEAVY_ATOM_COUNT>  (1) 
14

>  <PUBCHEM_ATOM_DEF_STEREO_COUNT>  (1) 
0

>  <PUBCHEM_ATOM_UDEF_STEREO_COUNT>  (1) 
0

>  <PUBCHEM_BOND_DEF_STEREO_COUNT>  (1) 
0

>  <PUBCHEM_BOND_UDEF_STEREO_COUNT>  (1) 
0

>  <PUBCHEM_ISOTOPIC_ATOM_COUNT>  (1) 
0

>  <PUBCHEM_COMPONENT_COUNT>  (1) 
1

>  <PUBCHEM_CACTVS_TAUTO_COUNT>  (1) 
1

>  <PUBCHEM_CONFORMER_ID>  (1) 
000092CF00000001

>  <PUBCHEM_MMFF94_ENERGY>  (1) 
26.9553

>  <PUBCHEM_FEATURE_SELFOVERLAP>  (1) 
20.297

>  <PUBCHEM_SHAPE_FINGERPRINT>  (1) 
11401426 45 16226043418557106449
12236239 1 17632580456980591648
12932764 1 17417233373539095240
13760787 19 18131912663555724335
14251717 144 18410294700771890618
14252887 29 18114188514182150899
14911166 2 15864348082305904693
15207287 21 17821730550408355762
15219456 202 18114739326521102972
15375358 24 17748829622034798195
15375462 189 17917982871787272974
17802600 8 8935005862548905719
19422 9 17489035846857127330
200 152 18413387639770676945
20201158 50 17968099715724846978
20279233 1 17603874394253768714
20344682 1 17967248715347543068
204376 136 18337954605935093576
20645477 70 18337668603224511814
22169311 14 11383826086699019917
22485316 2 18411134727982338303
23402539 116 16732974362307151159
23557571 272 17167859721338691116
23598294 1 16701745925680836443
33824 294 18335421249060693594
474 4 17702091676979168536
4990 188 17385442120693993531
581208 293 18408888429889955298
69090 78 17676203597807708171
81228 2 17024317318422852196

>  <PUBCHEM_SHAPE_MULTIPOLES>  (1) 
273.17
8.35
1.32
1.04
1.06
1.02
0.02
0.15
-0.01
-1.34
-0.07
0.56
-0.16
0.11

>  <PUBCHEM_SHAPE_SELFOVERLAP>  (1) 
574.451

>  <PUBCHEM_SHAPE_VOLUME>  (1) 
148.1

>  <PUBCHEM_COORDINATE_TYPE>  (1) 
2
5
10

$$$$
