37588
     RDKit          3D

 27 27  0  0  1  0  0  0  0  0999 V2000
   -2.3470   -1.4967   -1.5892 O   0  0  0  0  0  0  0  0  0  0  0  0
    1.0040   -2.2927   -0.8701 O   0  0  0  0  0  0  0  0  0  0  0  0
    2.1472    3.8269    0.2984 O   0  0  0  0  0  0  0  0  0  0  0  0
   -5.7742   -1.8333    1.5140 O   0  0  0  0  0  0  0  0  0  0  0  0
   -7.4351   -0.2992    1.7047 O   0  0  0  0  0  0  0  0  0  0  0  0
   -1.5577   -0.0787    0.2412 C   0  0  0  0  0  0  0  0  0  0  0  0
   -0.0828   -0.2522   -0.1588 C   0  0  0  0  0  0  0  0  0  0  0  0
   -2.1657   -1.4154   -0.1878 C   0  0  0  0  0  0  0  0  0  0  0  0
    0.2198   -1.7274    0.1726 C   0  0  0  0  0  0  0  0  0  0  0  0
   -1.1324   -2.4384    0.2745 C   0  0  0  0  0  0  0  0  0  0  0  0
   -2.2336    1.1152   -0.4253 C   0  0  0  0  0  0  0  0  0  0  0  0
    0.8443    0.6907    0.5336 C   0  0  0  0  0  0  0  0  0  0  0  0
   -3.6975    1.3071   -0.1449 C   0  0  0  0  0  0  0  0  0  0  0  0
    1.6445    1.5562   -0.1061 C   0  0  0  0  0  0  0  0  0  0  0  0
    2.5819    2.4981    0.5934 C   0  0  0  0  0  0  0  0  0  0  0  0
    4.0355    2.3458    0.1233 C   0  0  0  0  0  0  0  0  0  0  0  0
   -4.6950    1.3661   -1.0403 C   0  0  0  0  0  0  0  0  0  0  0  0
    4.6759    0.9796    0.3953 C   0  0  0  0  0  0  0  0  0  0  0  0
   -6.1372    1.5499   -0.6670 C   0  0  0  0  0  0  0  0  0  0  0  0
    6.1456    0.9097   -0.0271 C   0  0  0  0  0  0  0  0  0  0  0  0
    6.7922   -0.4529    0.2468 C   0  0  0  0  0  0  0  0  0  0  0  0
   -7.0424    0.3947   -1.1166 C   0  0  0  0  0  0  0  0  0  0  0  0
    8.2679   -0.5136   -0.1581 C   0  0  0  0  0  0  0  0  0  0  0  0
    8.9141   -1.8741    0.1162 C   0  0  0  0  0  0  0  0  0  0  0  0
   -6.6680   -0.9610   -0.5097 C   0  0  0  0  0  0  0  0  0  0  0  0
   10.3974   -1.9225   -0.2161 C   0  0  0  0  0  0  0  0  0  0  0  0
   -6.7017   -0.9819    1.0030 C   0  0  0  0  0  0  0  0  0  0  0  0
  1  8  1  0
  2  9  1  0
  3 15  1  0
  4 27  1  0
  5 27  2  0
  6  7  1  0
  6  8  1  0
  6 11  1  0
  7  9  1  0
  7 12  1  0
  8 10  1  0
  9 10  1  0
 11 13  1  0
 12 14  2  0
 13 17  2  0
 14 15  1  0
 15 16  1  0
 16 18  1  0
 17 19  1  0
 18 20  1  0
 19 22  1  0
 20 21  1  0
 21 23  1  0
 22 25  1  0
 23 24  1  0
 24 26  1  0
 25 27  1  0
M  END
>  <PUBCHEM_COMPOUND_CID>  (1) 
37588

>  <PUBCHEM_CONFORMER_RMSD>  (1) 
1.2

>  <PUBCHEM_CONFORMER_DIVERSEORDER>  (1) 
1
171
48
46
105
68
111
158
19
58
73
127
15
149
20
79
29
133
56
126
139
123
173
78
122
70
148
108
62
175
91
25
141
45
50
118
150
77
8
28
11
124
101
112
52
107
144
100
98
81
21
109
168
121
176
163
145
41
120
66
35
55
82
39
88
94
57
125
174
153
104
36
43
84
166
160
169
177
54
75
142
135
172
140
146
134
115
49
128
138
33
119
60
114
167
59
38
24
26
180
44
99
83
136
162
155
10
71
63
96
178
7
61
92
47
65
40
22
179
110
64
113
74
69
154
164
76
143
51
18
170
116
159
34
165
137
93
103
3
95
157
131
13
9
86
6
117
27
129
97
130
156
90
14
80
32
132
161
30
42
17
23
151
152
67
31
106
147
16
89
102
72
85
53
37
5
4
87
2
12

>  <PUBCHEM_MMFF94_PARTIAL_CHARGES>  (1) 
25
1 -0.68
11 0.14
12 -0.29
13 -0.29
14 -0.29
15 0.42
17 -0.29
19 0.14
2 -0.68
25 0.06
27 0.66
3 -0.68
36 0.15
37 0.4
38 0.4
39 0.15
4 -0.65
40 0.15
44 0.15
5 -0.57
53 0.4
65 0.5
7 0.14
8 0.28
9 0.28

>  <PUBCHEM_EFFECTIVE_ROTOR_COUNT>  (1) 
15

>  <PUBCHEM_PHARMACOPHORE_FEATURES>  (1) 
14
1 1 acceptor
1 1 donor
1 2 acceptor
1 2 donor
1 26 hydrophobe
1 3 acceptor
1 3 donor
1 4 acceptor
1 5 acceptor
3 16 18 20 hydrophobe
3 21 23 24 hydrophobe
3 4 5 27 anion
4 17 19 22 25 hydrophobe
5 6 7 8 9 10 rings

>  <PUBCHEM_HEAVY_ATOM_COUNT>  (1) 
27

>  <PUBCHEM_ATOM_DEF_STEREO_COUNT>  (1) 
1

>  <PUBCHEM_ATOM_UDEF_STEREO_COUNT>  (1) 
0

>  <PUBCHEM_BOND_DEF_STEREO_COUNT>  (1) 
0

>  <PUBCHEM_BOND_UDEF_STEREO_COUNT>  (1) 
2

>  <PUBCHEM_ISOTOPIC_ATOM_COUNT>  (1) 
0

>  <PUBCHEM_COMPONENT_COUNT>  (1) 
1

>  <PUBCHEM_CACTVS_TAUTO_COUNT>  (1) 
1

>  <PUBCHEM_CONFORMER_ID>  (1) 
000092D400000001

>  <PUBCHEM_MMFF94_ENERGY>  (1) 
29.5625

>  <PUBCHEM_FEATURE_SELFOVERLAP>  (1) 
71.117

>  <PUBCHEM_SHAPE_FINGERPRINT>  (1) 
11273773 46 18408887322031246114
11408170 108 16916792817717721086
12592606 108 18409165498710053802
12758862 56 18409158914541462280
14117953 113 18272651217659119222
15183329 4 18412820292103125348
19315958 150 18200867483753183616
19611394 137 17823145678214508145
20465049 17 18260826012345445672
23559900 14 18271515516384296880
23569917 315 18410013282041776775
3004659 81 18259981566826479216
335352 9 18411134732651949676
3383291 50 18343019999726987170
350125 39 18409729599234786033
444769 64 18344143696178054087
59755656 215 18409446994465353343
59755656 520 18187354472224195583
6138700 20 18411696569581379436

>  <PUBCHEM_SHAPE_MULTIPOLES>  (1) 
526.3
27.38
3.05
1.05
41.9
1.12
0.09
-12.4
0.22
2.42
0.18
-1.97
-0.24
1.85

>  <PUBCHEM_SHAPE_SELFOVERLAP>  (1) 
1021.038

>  <PUBCHEM_SHAPE_VOLUME>  (1) 
318.4

>  <PUBCHEM_COORDINATE_TYPE>  (1) 
2
5
10

$$$$
