37592
     RDKit          3D

 24 26  0  0  0  0  0  0  0  0999 V2000
   -3.0482   -1.0518   -1.4475 F   0  0  0  0  0  0  0  0  0  0  0  0
   -4.9444   -1.4577   -0.4303 F   0  0  0  0  0  0  0  0  0  0  0  0
   -4.2608    0.6183   -0.7158 F   0  0  0  0  0  0  0  0  0  0  0  0
   -3.1445   -0.7167    0.7598 O   0  0  0  0  0  0  0  0  0  0  0  0
    2.6544    3.1000   -1.6326 O   0  0  0  0  0  0  0  0  0  0  0  0
    0.8675    2.9333   -0.0577 N   0  0  0  0  0  0  0  0  0  0  0  0
    2.8578    0.4589    0.1742 N   0  0  0  0  0  0  0  0  0  0  0  0
    0.3790    0.4547    0.3039 C   0  0  0  0  0  0  0  0  0  0  0  0
    0.1173    1.9722    0.3948 C   0  0  0  0  0  0  0  0  0  0  0  0
    1.6075   -0.1232    0.1892 C   0  0  0  0  0  0  0  0  0  0  0  0
    3.1956    1.8347    0.3550 C   0  0  0  0  0  0  0  0  0  0  0  0
    2.3333    2.6337   -0.5510 C   0  0  0  0  0  0  0  0  0  0  0  0
    1.7238   -1.6049    0.0882 C   0  0  0  0  0  0  0  0  0  0  0  0
   -0.8400   -0.3762    0.3299 C   0  0  0  0  0  0  0  0  0  0  0  0
   -1.1968    2.3398    1.0385 C   0  0  0  0  0  0  0  0  0  0  0  0
   -2.0278    0.0906    0.7311 C   0  0  0  0  0  0  0  0  0  0  0  0
    0.5050    4.3726   -0.1384 C   0  0  0  0  0  0  0  0  0  0  0  0
   -2.1782    1.4442    1.1825 C   0  0  0  0  0  0  0  0  0  0  0  0
    1.7003   -2.2080   -1.1614 C   0  0  0  0  0  0  0  0  0  0  0  0
    1.8537   -2.3603    1.2450 C   0  0  0  0  0  0  0  0  0  0  0  0
    1.8087   -3.5955   -1.2561 C   0  0  0  0  0  0  0  0  0  0  0  0
    1.9623   -3.7477    1.1501 C   0  0  0  0  0  0  0  0  0  0  0  0
    1.9398   -4.3652   -0.1004 C   0  0  0  0  0  0  0  0  0  0  0  0
   -3.8653   -0.6457   -0.4510 C   0  0  0  0  0  0  0  0  0  0  0  0
  1 24  1  0
  2 24  1  0
  3 24  1  0
  4 16  1  0
  4 24  1  0
  5 12  2  0
  6  9  2  0
  6 12  1  0
  6 17  1  0
  7 10  1  0
  7 11  1  0
  8  9  1  0
  8 10  2  0
  8 14  1  0
  9 15  1  0
 10 13  1  0
 11 12  1  0
 13 19  2  0
 13 20  1  0
 14 16  2  0
 15 18  2  0
 16 18  1  0
 19 21  1  0
 20 22  2  0
 21 23  2  0
 22 23  1  0
M  CHG  1   6   1
M  END
>  <PUBCHEM_COMPOUND_CID>  (1) 
37592

>  <PUBCHEM_CONFORMER_RMSD>  (1) 
0.6

>  <PUBCHEM_CONFORMER_DIVERSEORDER>  (1) 
1
6
8
2
4
7
5
3

>  <PUBCHEM_MMFF94_PARTIAL_CHARGES>  (1) 
33
1 -0.34
10 0.07
11 0.43
12 0.84
13 0.03
14 -0.15
15 -0.14
16 0.08
17 0.35
18 -0.15
19 -0.15
2 -0.34
20 -0.15
21 -0.15
22 -0.15
23 -0.15
24 1.3
27 0.4
28 0.15
29 0.15
3 -0.34
33 0.15
34 0.15
35 0.15
36 0.15
37 0.15
38 0.15
4 -0.36
5 -0.57
6 -0.08
7 -0.87
8 0.01
9 0.37

>  <PUBCHEM_EFFECTIVE_ROTOR_COUNT>  (1) 
3.4

>  <PUBCHEM_PHARMACOPHORE_FEATURES>  (1) 
7
1 4 acceptor
1 5 acceptor
1 7 cation
1 7 donor
6 13 19 20 21 22 23 rings
6 8 9 14 15 16 18 rings
7 6 7 8 9 10 11 12 rings

>  <PUBCHEM_HEAVY_ATOM_COUNT>  (1) 
24

>  <PUBCHEM_ATOM_DEF_STEREO_COUNT>  (1) 
0

>  <PUBCHEM_ATOM_UDEF_STEREO_COUNT>  (1) 
0

>  <PUBCHEM_BOND_DEF_STEREO_COUNT>  (1) 
0

>  <PUBCHEM_BOND_UDEF_STEREO_COUNT>  (1) 
0

>  <PUBCHEM_ISOTOPIC_ATOM_COUNT>  (1) 
0

>  <PUBCHEM_COMPONENT_COUNT>  (1) 
1

>  <PUBCHEM_CACTVS_TAUTO_COUNT>  (1) 
1

>  <PUBCHEM_CONFORMER_ID>  (1) 
000092D800000001

>  <PUBCHEM_MMFF94_ENERGY>  (1) 
94.1859

>  <PUBCHEM_FEATURE_SELFOVERLAP>  (1) 
35.528

>  <PUBCHEM_SHAPE_FINGERPRINT>  (1) 
10090160 65 18339073925303185767
1100329 8 17979064213571358472
11069576 57 18200571671352914343
11578080 2 16953944103885385502
116883 192 17980190890461015077
12553582 1 17977398135126966715
12788726 201 17470464931881096514
13004483 165 17978211778237172859
13052359 8 17762055845427680368
13083527 12 18192411027321170338
13140716 1 18124597745497219393
13149001 5 17407690965525093952
13681431 1 18335141942841552470
13931106 250 17110994951176639270
14251757 5 16971695620026145454
14844126 61 17036973625177419922
14863182 85 18340486776264695376
15042514 8 17111860262543158179
15484559 13 18196655318086652239
17138139 8 17124494141105516175
17818456 19 17629772162971545841
19591789 44 17763186143138629419
20600515 1 17267225709698154658
20775438 99 17688828044452929949
20905425 154 18125451813077368844
21421861 104 18340778056920930955
21452121 199 18267291050084481874
2255824 54 18267864054809323041
22907989 373 16818853603801873740
23114952 82 18260542321239495717
23184049 29 17977948982030930658
23419403 2 17534590799882174390
23559900 14 18339351990054699811
238 59 18194689382521656867
257057 1 18122056507753040760
2748010 2 17543074485499710120
3060560 45 18265329706208888796
352729 6 17693394634223467992
394222 165 17896870161433349112
4409770 3 16751000512126957286
81228 2 17906449922614328083

>  <PUBCHEM_SHAPE_MULTIPOLES>  (1) 
450.39
6.22
5.62
1.22
5.34
1.37
-0.13
-4.88
0.16
-5.13
-2.01
0.31
-0.18
-0.32

>  <PUBCHEM_SHAPE_SELFOVERLAP>  (1) 
977.795

>  <PUBCHEM_SHAPE_VOLUME>  (1) 
244

>  <PUBCHEM_COORDINATE_TYPE>  (1) 
2
5
10

$$$$
