37598
     RDKit          3D

 23 25  0  0  0  0  0  0  0  0999 V2000
    4.8578    0.2698    0.1090 F   0  0  0  0  0  0  0  0  0  0  0  0
    3.7756   -0.7676    1.6764 F   0  0  0  0  0  0  0  0  0  0  0  0
    3.7567   -1.5474   -0.3534 F   0  0  0  0  0  0  0  0  0  0  0  0
   -3.5040    0.2021    0.8700 O   0  0  0  0  0  0  0  0  0  0  0  0
   -1.2560   -0.0385    0.2379 N   0  0  0  0  0  0  0  0  0  0  0  0
   -0.9005    2.7620   -0.8941 N   0  0  0  0  0  0  0  0  0  0  0  0
   -2.9663    3.7761   -0.4591 N   0  0  0  0  0  0  0  0  0  0  0  0
    0.0209    0.5862   -0.0280 C   0  0  0  0  0  0  0  0  0  0  0  0
    0.1538    1.9084   -0.5148 C   0  0  0  0  0  0  0  0  0  0  0  0
   -2.3654    0.6601    0.7442 C   0  0  0  0  0  0  0  0  0  0  0  0
   -2.1177    2.1004    1.1193 C   0  0  0  0  0  0  0  0  0  0  0  0
   -1.3728   -1.4504   -0.0432 C   0  0  0  0  0  0  0  0  0  0  0  0
    1.2033   -0.1350    0.2641 C   0  0  0  0  0  0  0  0  0  0  0  0
    2.4702    0.4101    0.0546 C   0  0  0  0  0  0  0  0  0  0  0  0
    1.4444    2.4326   -0.7281 C   0  0  0  0  0  0  0  0  0  0  0  0
   -1.9475    2.9143   -0.1390 C   0  0  0  0  0  0  0  0  0  0  0  0
    2.5914    1.6954   -0.4469 C   0  0  0  0  0  0  0  0  0  0  0  0
   -0.6121   -2.0146   -1.0612 C   0  0  0  0  0  0  0  0  0  0  0  0
   -2.2441   -2.2320    0.7071 C   0  0  0  0  0  0  0  0  0  0  0  0
    3.6895   -0.3896    0.3665 C   0  0  0  0  0  0  0  0  0  0  0  0
   -0.7245   -3.3782   -1.3327 C   0  0  0  0  0  0  0  0  0  0  0  0
   -2.3562   -3.5957    0.4356 C   0  0  0  0  0  0  0  0  0  0  0  0
   -1.5964   -4.1686   -0.5843 C   0  0  0  0  0  0  0  0  0  0  0  0
  1 20  1  0
  2 20  1  0
  3 20  1  0
  4 10  2  0
  5  8  1  0
  5 10  1  0
  5 12  1  0
  6  9  1  0
  6 16  2  0
  7 16  1  0
  8  9  2  0
  8 13  1  0
  9 15  1  0
 10 11  1  0
 11 16  1  0
 12 18  2  0
 12 19  1  0
 13 14  2  0
 14 17  1  0
 14 20  1  0
 15 17  2  0
 18 21  1  0
 19 22  2  0
 21 23  2  0
 22 23  1  0
M  END
>  <PUBCHEM_COMPOUND_CID>  (1) 
37598

>  <PUBCHEM_CONFORMER_RMSD>  (1) 
0.6

>  <PUBCHEM_CONFORMER_DIVERSEORDER>  (1) 
2
1

>  <PUBCHEM_MMFF94_PARTIAL_CHARGES>  (1) 
33
1 -0.34
10 0.57
11 0.12
12 0.12
13 -0.15
14 -0.14
15 -0.15
16 0.44
17 -0.15
18 -0.15
19 -0.15
2 -0.34
20 1.16
21 -0.15
22 -0.15
23 -0.15
26 0.15
27 0.15
28 0.15
29 0.15
3 -0.34
30 0.15
31 0.15
32 0.15
33 0.15
34 0.4
35 0.4
4 -0.57
5 -0.29
6 -0.63
7 -0.85
8 0.12
9 0.18

>  <PUBCHEM_EFFECTIVE_ROTOR_COUNT>  (1) 
2.4

>  <PUBCHEM_PHARMACOPHORE_FEATURES>  (1) 
6
1 4 acceptor
1 7 donor
3 6 7 16 cation
6 12 18 19 21 22 23 rings
6 8 9 13 14 15 17 rings
7 5 6 8 9 10 11 16 rings

>  <PUBCHEM_HEAVY_ATOM_COUNT>  (1) 
23

>  <PUBCHEM_ATOM_DEF_STEREO_COUNT>  (1) 
0

>  <PUBCHEM_ATOM_UDEF_STEREO_COUNT>  (1) 
0

>  <PUBCHEM_BOND_DEF_STEREO_COUNT>  (1) 
0

>  <PUBCHEM_BOND_UDEF_STEREO_COUNT>  (1) 
0

>  <PUBCHEM_ISOTOPIC_ATOM_COUNT>  (1) 
0

>  <PUBCHEM_COMPONENT_COUNT>  (1) 
1

>  <PUBCHEM_CACTVS_TAUTO_COUNT>  (1) 
2

>  <PUBCHEM_CONFORMER_ID>  (1) 
000092DE00000002

>  <PUBCHEM_MMFF94_ENERGY>  (1) 
96.354

>  <PUBCHEM_FEATURE_SELFOVERLAP>  (1) 
30.46

>  <PUBCHEM_SHAPE_FINGERPRINT>  (1) 
11578080 2 17557419087741377553
12553582 1 17836649999674266822
12788726 201 18335413612413474410
13004483 165 18267294529203189755
13140716 1 18267024036267749627
138480 1 16681191410561404293
14178342 30 18339065082524887874
15006816 218 17618222810563914262
15042514 8 18339368564465798923
15099037 8 18193558006642476354
15230672 131 18049453539850360638
15375462 189 17475242769591923371
15403338 16 15726705413707774490
16110190 28 17902777580381836666
16728300 4 17461706308248466771
16945 1 18335709320816734577
19591789 44 18050575044955320598
20028762 73 18342734071364764133
20291156 8 18051133897562526638
21033648 29 18128521692234025320
21421861 104 17545600514526621715
21452121 199 17834095817003679522
22112679 90 18194691594435147296
22182313 1 17467373127402750145
2255824 54 16825307221349392039
23184049 29 18339079427330280860
2334 1 18049726522472920183
23559900 14 18198901594747084864
23728640 28 18410567358080457714
257057 1 18051126192359445105
2748010 2 17833008056596290097
3091708 16 9056446943379692539
34934 24 18049726514141630409
352729 6 18341343253131542151
532947 4 17620474601698371094
58807428 26 18124322597012844233
6992083 37 18339094794565017105
7097593 13 17762909057750415851
81228 2 18267845315682452778
90525 40 18337112258983246840

>  <PUBCHEM_SHAPE_MULTIPOLES>  (1) 
430.7
5.98
5.15
1.07
3.79
2.86
0.06
-5.52
1.05
-3.08
-0.91
-0.09
-0.2
-1.35

>  <PUBCHEM_SHAPE_SELFOVERLAP>  (1) 
949.584

>  <PUBCHEM_SHAPE_VOLUME>  (1) 
230.2

>  <PUBCHEM_COORDINATE_TYPE>  (1) 
2
5
10

$$$$
