37599
     RDKit          3D

 25 27  0  0  0  0  0  0  0  0999 V2000
   -4.3254   -2.7877    0.0877 F   0  0  0  0  0  0  0  0  0  0  0  0
   -4.0572   -1.2754    1.6190 F   0  0  0  0  0  0  0  0  0  0  0  0
   -4.3933   -0.6807   -0.4454 F   0  0  0  0  0  0  0  0  0  0  0  0
    2.5737    1.9196    0.9609 O   0  0  0  0  0  0  0  0  0  0  0  0
    0.5914    0.8557    0.2900 N   0  0  0  0  0  0  0  0  0  0  0  0
    4.1493   -1.3976   -0.1962 N   0  0  0  0  0  0  0  0  0  0  0  0
    1.8856   -1.7088   -0.7105 N   0  0  0  0  0  0  0  0  0  0  0  0
   -0.1167   -0.3793    0.0363 C   0  0  0  0  0  0  0  0  0  0  0  0
    2.4563   -0.4191    1.2855 C   0  0  0  0  0  0  0  0  0  0  0  0
    0.5215   -1.5689   -0.3883 C   0  0  0  0  0  0  0  0  0  0  0  0
    2.8125   -1.2322    0.0664 C   0  0  0  0  0  0  0  0  0  0  0  0
    1.8821    0.9046    0.8438 C   0  0  0  0  0  0  0  0  0  0  0  0
   -0.0804    2.0866   -0.0560 C   0  0  0  0  0  0  0  0  0  0  0  0
   -1.5109   -0.4240    0.2763 C   0  0  0  0  0  0  0  0  0  0  0  0
   -2.2571   -1.5855    0.0749 C   0  0  0  0  0  0  0  0  0  0  0  0
   -0.2558   -2.7263   -0.5949 C   0  0  0  0  0  0  0  0  0  0  0  0
   -1.6289   -2.7384   -0.3659 C   0  0  0  0  0  0  0  0  0  0  0  0
   -0.9869    2.1031   -1.1103 C   0  0  0  0  0  0  0  0  0  0  0  0
    0.1850    3.2433    0.6685 C   0  0  0  0  0  0  0  0  0  0  0  0
   -3.7261   -1.5843    0.3302 C   0  0  0  0  0  0  0  0  0  0  0  0
    4.6005   -2.1635   -1.3458 C   0  0  0  0  0  0  0  0  0  0  0  0
    5.1562   -0.6199    0.5062 C   0  0  0  0  0  0  0  0  0  0  0  0
   -1.6361    3.2915   -1.4445 C   0  0  0  0  0  0  0  0  0  0  0  0
   -0.4644    4.4318    0.3343 C   0  0  0  0  0  0  0  0  0  0  0  0
   -1.3749    4.4558   -0.7223 C   0  0  0  0  0  0  0  0  0  0  0  0
  1 20  1  0
  2 20  1  0
  3 20  1  0
  4 12  2  0
  5  8  1  0
  5 12  1  0
  5 13  1  0
  6 11  1  0
  6 21  1  0
  6 22  1  0
  7 10  1  0
  7 11  2  0
  8 10  2  0
  8 14  1  0
  9 11  1  0
  9 12  1  0
 10 16  1  0
 13 18  2  0
 13 19  1  0
 14 15  2  0
 15 17  1  0
 15 20  1  0
 16 17  2  0
 18 23  1  0
 19 24  2  0
 23 25  2  0
 24 25  1  0
M  END
>  <PUBCHEM_COMPOUND_CID>  (1) 
37599

>  <PUBCHEM_CONFORMER_RMSD>  (1) 
0.6

>  <PUBCHEM_CONFORMER_DIVERSEORDER>  (1) 
1
2
3

>  <PUBCHEM_MMFF94_PARTIAL_CHARGES>  (1) 
33
1 -0.34
10 0.18
11 0.44
12 0.57
13 0.12
14 -0.15
15 -0.14
16 -0.15
17 -0.15
18 -0.15
19 -0.15
2 -0.34
20 1.16
21 0.37
22 0.37
23 -0.15
24 -0.15
25 -0.15
28 0.15
29 0.15
3 -0.34
30 0.15
31 0.15
32 0.15
39 0.15
4 -0.57
40 0.15
41 0.15
5 -0.29
6 -0.79
7 -0.63
8 0.12
9 0.12

>  <PUBCHEM_EFFECTIVE_ROTOR_COUNT>  (1) 
3.4

>  <PUBCHEM_PHARMACOPHORE_FEATURES>  (1) 
5
1 4 acceptor
3 6 7 11 cation
6 13 18 19 23 24 25 rings
6 8 10 14 15 16 17 rings
7 5 7 8 9 10 11 12 rings

>  <PUBCHEM_HEAVY_ATOM_COUNT>  (1) 
25

>  <PUBCHEM_ATOM_DEF_STEREO_COUNT>  (1) 
0

>  <PUBCHEM_ATOM_UDEF_STEREO_COUNT>  (1) 
0

>  <PUBCHEM_BOND_DEF_STEREO_COUNT>  (1) 
0

>  <PUBCHEM_BOND_UDEF_STEREO_COUNT>  (1) 
0

>  <PUBCHEM_ISOTOPIC_ATOM_COUNT>  (1) 
0

>  <PUBCHEM_COMPONENT_COUNT>  (1) 
1

>  <PUBCHEM_CACTVS_TAUTO_COUNT>  (1) 
1

>  <PUBCHEM_CONFORMER_ID>  (1) 
000092DF00000001

>  <PUBCHEM_MMFF94_ENERGY>  (1) 
105.9119

>  <PUBCHEM_FEATURE_SELFOVERLAP>  (1) 
25.385

>  <PUBCHEM_SHAPE_FINGERPRINT>  (1) 
10411042 1 18410572920053004334
10688039 33 18335143089561007626
116883 192 18410849949822505020
12160290 23 17975101311070500892
12166972 35 18200314450515193139
12553582 1 18121483911493197400
12716301 132 18122604090640778274
12788726 201 18260830380469629978
13140716 1 18410570661084401041
13402501 40 18338791205287268853
13540713 4 18058159528599982978
138480 1 15384436106855826396
14022347 108 18261108608118852946
14363568 33 18047486796023729321
14955137 171 17831032573319217336
15081414 286 18267025144432823249
15420108 30 17333347499845615144
15664445 248 18052276269165056012
1601671 61 18122344846114299296
17357779 13 18340474599963924247
17492 89 17907012138382685707
17980427 26 16054890238832303440
1813 80 18338242664374248866
19427546 62 17617098006048727876
19591789 44 18412262826606513762
20600515 1 18129398114327288955
20739085 24 18196114294031174851
21029758 27 18337118950553077355
21049683 271 17973175198721674156
21285901 2 18130238072797518758
21641784 216 18187947070410695492
22182313 1 18130211659228254018
22907989 373 18336832979061976668
23366157 5 17758391164129038438
23419403 2 17631146676321605113
23557571 272 18410571756865264870
23558518 356 18044665191715866642
23559900 14 18121213440618994251
238 59 16680914333884691833
2748010 2 18269251548257958928
283562 15 18334861563150587410
3091708 16 9351419503173727224
352729 6 17765148367883522466
3759504 43 17905043651785568820
4409770 3 18264480685594996415
474 4 17109019665979459657
59554788 170 18412546539603979612
68521 5 18336831900814168798
7164475 11 18336274449051791926
7364860 26 17907016531864112881
81228 2 18117570539151062537

>  <PUBCHEM_SHAPE_MULTIPOLES>  (1) 
471.85
7.23
5.47
1.14
6.6
4.52
-0.04
-4.79
-0.19
-6.34
-0.57
0.11
0.23
1.89

>  <PUBCHEM_SHAPE_SELFOVERLAP>  (1) 
1028.538

>  <PUBCHEM_SHAPE_VOLUME>  (1) 
256.8

>  <PUBCHEM_COORDINATE_TYPE>  (1) 
2
5
10

$$$$
