37597
     RDKit          3D

 20 22  0  0  0  0  0  0  0  0999 V2000
    0.6690   -4.5606    0.9182 Br  0  0  0  0  0  0  0  0  0  0  0  0
   -0.7450    2.8777    0.6852 O   0  0  0  0  0  0  0  0  0  0  0  0
   -0.3170    0.6109    0.2503 N   0  0  0  0  0  0  0  0  0  0  0  0
    2.4787    0.9860   -0.8873 N   0  0  0  0  0  0  0  0  0  0  0  0
    2.8459    3.2863   -0.6444 N   0  0  0  0  0  0  0  0  0  0  0  0
    0.6538   -0.4483    0.0851 C   0  0  0  0  0  0  0  0  0  0  0  0
    1.9631   -0.2337   -0.4074 C   0  0  0  0  0  0  0  0  0  0  0  0
    0.0246    1.9141    0.6503 C   0  0  0  0  0  0  0  0  0  0  0  0
    1.4706    2.1272    1.0244 C   0  0  0  0  0  0  0  0  0  0  0  0
   -1.6990    0.2892   -0.0195 C   0  0  0  0  0  0  0  0  0  0  0  0
    2.3127    2.0929   -0.2263 C   0  0  0  0  0  0  0  0  0  0  0  0
    0.3029   -1.7593    0.4871 C   0  0  0  0  0  0  0  0  0  0  0  0
    2.8410   -1.3306   -0.5175 C   0  0  0  0  0  0  0  0  0  0  0  0
   -2.0079   -0.6864   -0.9608 C   0  0  0  0  0  0  0  0  0  0  0  0
   -2.7075    0.9577    0.6654 C   0  0  0  0  0  0  0  0  0  0  0  0
    1.1940   -2.8272    0.3785 C   0  0  0  0  0  0  0  0  0  0  0  0
    2.4647   -2.6135   -0.1292 C   0  0  0  0  0  0  0  0  0  0  0  0
   -3.3426   -0.9976   -1.2206 C   0  0  0  0  0  0  0  0  0  0  0  0
   -4.0422    0.6465    0.4058 C   0  0  0  0  0  0  0  0  0  0  0  0
   -4.3597   -0.3311   -0.5373 C   0  0  0  0  0  0  0  0  0  0  0  0
  1 16  1  0
  2  8  2  0
  3  6  1  0
  3  8  1  0
  3 10  1  0
  4  7  1  0
  4 11  2  0
  5 11  1  0
  6  7  2  0
  6 12  1  0
  7 13  1  0
  8  9  1  0
  9 11  1  0
 10 14  2  0
 10 15  1  0
 12 16  2  0
 13 17  2  0
 14 18  1  0
 15 19  2  0
 16 17  1  0
 18 20  2  0
 19 20  1  0
M  END
>  <PUBCHEM_COMPOUND_CID>  (1) 
37597

>  <PUBCHEM_CONFORMER_RMSD>  (1) 
0.6

>  <PUBCHEM_CONFORMER_DIVERSEORDER>  (1) 
2
1

>  <PUBCHEM_MMFF94_PARTIAL_CHARGES>  (1) 
30
1 -0.11
10 0.12
11 0.44
12 -0.15
13 -0.15
14 -0.15
15 -0.15
16 0.11
17 -0.15
18 -0.15
19 -0.15
2 -0.57
20 -0.15
23 0.15
24 0.15
25 0.15
26 0.15
27 0.15
28 0.15
29 0.15
3 -0.29
30 0.15
31 0.4
32 0.4
4 -0.63
5 -0.85
6 0.12
7 0.18
8 0.57
9 0.12

>  <PUBCHEM_EFFECTIVE_ROTOR_COUNT>  (1) 
1.4

>  <PUBCHEM_PHARMACOPHORE_FEATURES>  (1) 
7
1 1 hydrophobe
1 2 acceptor
1 5 donor
3 4 5 11 cation
6 10 14 15 18 19 20 rings
6 6 7 12 13 16 17 rings
7 3 4 6 7 8 9 11 rings

>  <PUBCHEM_HEAVY_ATOM_COUNT>  (1) 
20

>  <PUBCHEM_ATOM_DEF_STEREO_COUNT>  (1) 
0

>  <PUBCHEM_ATOM_UDEF_STEREO_COUNT>  (1) 
0

>  <PUBCHEM_BOND_DEF_STEREO_COUNT>  (1) 
0

>  <PUBCHEM_BOND_UDEF_STEREO_COUNT>  (1) 
0

>  <PUBCHEM_ISOTOPIC_ATOM_COUNT>  (1) 
0

>  <PUBCHEM_COMPONENT_COUNT>  (1) 
1

>  <PUBCHEM_CACTVS_TAUTO_COUNT>  (1) 
2

>  <PUBCHEM_CONFORMER_ID>  (1) 
000092DD00000002

>  <PUBCHEM_MMFF94_ENERGY>  (1) 
94.3515

>  <PUBCHEM_FEATURE_SELFOVERLAP>  (1) 
35.534

>  <PUBCHEM_SHAPE_FINGERPRINT>  (1) 
10967382 1 18412545439580661881
1100329 8 18409443722244216354
11578080 2 17898835860685634276
12553582 1 18123747556832407923
12716301 132 17547279464592971208
13004483 165 17471842611434456019
13140716 1 18410572915720795899
13583140 156 17900849075524852241
14178342 30 17985807453791122737
14787075 74 18201710757077633378
15375462 189 18267870488860509491
16945 1 18336829684521145770
19591789 44 18266186217040016995
19784866 34 18267025135938067997
20291156 8 17979354162001929871
20645477 70 18409439289863892471
21421861 104 18337106739966128873
21634736 98 18342743987673987182
22112679 90 17917431969522955257
22182313 1 16976752823863816712
2255824 54 18409729547447531470
22907989 373 17109882795022804212
2334 1 18268149949038440434
23388829 49 18195807371331017498
23419403 2 17541888258397253696
23598291 2 18131070424869466981
238 59 18335987540356155499
25 1 18267302212725602477
257057 1 17832416501986740650
2748010 2 16613352178666844376
3091708 16 9473884203550068514
34934 24 17760369894416906336
352729 6 17475504453258587521
4409770 3 17329145183826191078
474 4 18336825398122860773
6992083 37 17404873552766857817
7097593 13 18123754145427927347
7364860 26 18343014484645671706
7471813 234 18127670678649298847
81228 2 17257911720554913963
84936 182 18272368727931111192
9981440 41 17980190113319880888

>  <PUBCHEM_SHAPE_MULTIPOLES>  (1) 
396.72
5.82
4.57
1.02
6.07
1.57
-0.03
0.96
-1.2
-4.6
1.13
0.18
0.07
-1.14

>  <PUBCHEM_SHAPE_SELFOVERLAP>  (1) 
856.832

>  <PUBCHEM_SHAPE_VOLUME>  (1) 
221.4

>  <PUBCHEM_COORDINATE_TYPE>  (1) 
2
5
10

$$$$
