37594
     RDKit          3D

 22 24  0  0  0  0  0  0  0  0999 V2000
   -3.2142    0.8894    0.8262 O   0  0  0  0  0  0  0  0  0  0  0  0
    4.8541   -0.9593    0.2726 O   0  0  0  0  0  0  0  0  0  0  0  0
    3.2433   -2.3148    0.8944 O   0  0  0  0  0  0  0  0  0  0  0  0
   -1.0606    0.1631    0.2386 N   0  0  0  0  0  0  0  0  0  0  0  0
   -0.0786    2.8177   -0.8747 N   0  0  0  0  0  0  0  0  0  0  0  0
   -1.8815    4.2589   -0.4772 N   0  0  0  0  0  0  0  0  0  0  0  0
    3.6373   -1.2103    0.4481 N   0  0  0  0  0  0  0  0  0  0  0  0
    0.3272    0.4935    0.0009 C   0  0  0  0  0  0  0  0  0  0  0  0
    0.7557    1.7546   -0.4776 C   0  0  0  0  0  0  0  0  0  0  0  0
   -2.0007    1.0874    0.7253 C   0  0  0  0  0  0  0  0  0  0  0  0
   -1.4521    2.4389    1.1111 C   0  0  0  0  0  0  0  0  0  0  0  0
   -1.4772   -1.1893   -0.0506 C   0  0  0  0  0  0  0  0  0  0  0  0
    1.3171   -0.4685    0.3138 C   0  0  0  0  0  0  0  0  0  0  0  0
   -1.0824    3.1954   -0.1401 C   0  0  0  0  0  0  0  0  0  0  0  0
    2.1338    1.9840   -0.6628 C   0  0  0  0  0  0  0  0  0  0  0  0
    2.6766   -0.2135    0.1321 C   0  0  0  0  0  0  0  0  0  0  0  0
    3.0860    1.0141   -0.3616 C   0  0  0  0  0  0  0  0  0  0  0  0
   -0.8375   -1.9064   -1.0553 C   0  0  0  0  0  0  0  0  0  0  0  0
   -2.5134   -1.7614    0.6788 C   0  0  0  0  0  0  0  0  0  0  0  0
   -1.2394   -3.2126   -1.3346 C   0  0  0  0  0  0  0  0  0  0  0  0
   -2.9152   -3.0677    0.3996 C   0  0  0  0  0  0  0  0  0  0  0  0
   -2.2782   -3.7932   -0.6072 C   0  0  0  0  0  0  0  0  0  0  0  0
  1 10  2  0
  2  7  1  0
  3  7  2  0
  4  8  1  0
  4 10  1  0
  4 12  1  0
  5  9  1  0
  5 14  2  0
  6 14  1  0
  7 16  1  0
  8  9  2  0
  8 13  1  0
  9 15  1  0
 10 11  1  0
 11 14  1  0
 12 18  2  0
 12 19  1  0
 13 16  2  0
 15 17  2  0
 16 17  1  0
 18 20  1  0
 19 21  2  0
 20 22  2  0
 21 22  1  0
M  CHG  2   2  -1   7   1
M  END
>  <PUBCHEM_COMPOUND_CID>  (1) 
37594

>  <PUBCHEM_CONFORMER_RMSD>  (1) 
0.6

>  <PUBCHEM_CONFORMER_DIVERSEORDER>  (1) 
2
1

>  <PUBCHEM_MMFF94_PARTIAL_CHARGES>  (1) 
32
1 -0.57
10 0.57
11 0.12
12 0.12
13 -0.15
14 0.44
15 -0.15
16 0.13
17 -0.15
18 -0.15
19 -0.15
2 -0.52
20 -0.15
21 -0.15
22 -0.15
25 0.15
26 0.15
27 0.15
28 0.15
29 0.15
3 -0.52
30 0.15
31 0.15
32 0.15
33 0.4
34 0.4
4 -0.29
5 -0.63
6 -0.85
7 0.91
8 0.12
9 0.18

>  <PUBCHEM_EFFECTIVE_ROTOR_COUNT>  (1) 
2.4

>  <PUBCHEM_PHARMACOPHORE_FEATURES>  (1) 
9
1 1 acceptor
1 2 acceptor
1 2 anion
1 3 acceptor
1 6 donor
3 5 6 14 cation
6 12 18 19 20 21 22 rings
6 8 9 13 15 16 17 rings
7 4 5 8 9 10 11 14 rings

>  <PUBCHEM_HEAVY_ATOM_COUNT>  (1) 
22

>  <PUBCHEM_ATOM_DEF_STEREO_COUNT>  (1) 
0

>  <PUBCHEM_ATOM_UDEF_STEREO_COUNT>  (1) 
0

>  <PUBCHEM_BOND_DEF_STEREO_COUNT>  (1) 
0

>  <PUBCHEM_BOND_UDEF_STEREO_COUNT>  (1) 
0

>  <PUBCHEM_ISOTOPIC_ATOM_COUNT>  (1) 
0

>  <PUBCHEM_COMPONENT_COUNT>  (1) 
1

>  <PUBCHEM_CACTVS_TAUTO_COUNT>  (1) 
2

>  <PUBCHEM_CONFORMER_ID>  (1) 
000092DA00000002

>  <PUBCHEM_MMFF94_ENERGY>  (1) 
105.7689

>  <PUBCHEM_FEATURE_SELFOVERLAP>  (1) 
45.766

>  <PUBCHEM_SHAPE_FINGERPRINT>  (1) 
10967382 1 17043455808836753445
11578080 2 17701248364107683473
12403259 327 13467639288367359566
12553582 1 18124315175278052062
13004483 165 18339069488522977875
13140716 1 18411985796762627754
138480 1 16104729515670092508
14178342 30 18125152990148007816
14787075 74 17121989492119283632
15006816 218 17185874991578795034
15042514 8 18411425007399679051
15230672 131 17761786062054635254
15375462 189 17836093642527234915
15403338 16 15150531590952630330
16110190 28 17614549347345134458
16728300 4 17245820451393263219
16945 1 18336275526334351704
19591789 44 17762624988455274334
20028762 73 18198334053848066733
20291156 8 18195530513396865654
21421861 104 17834112322668434905
21452121 199 18048858969492143754
21634736 98 17333665267079146917
22112679 90 18338806731087453128
22182313 1 17035310081639191449
2255824 54 17329709237079785780
2334 1 18267027347666377066
23598291 2 17049662517990876823
23728640 28 18267013960427759442
257057 1 18267016343960457048
2748010 2 18126595382332227495
3091708 16 9203934337775774161
34934 24 18265898136514043537
352729 6 18342185418829703143
532947 4 17116069192954434414
6992083 37 18339656597714710649
7097593 13 18051701232762070107
7364860 26 17262723686049396901
7471813 234 17625813143263411903
81228 2 18266996441160869042
90525 40 18193558861346138976

>  <PUBCHEM_SHAPE_MULTIPOLES>  (1) 
415.22
5.81
5.02
1.01
3.12
2.49
0.07
-5.39
0.35
-2.92
-0.41
0.29
-0.03
-1.6

>  <PUBCHEM_SHAPE_SELFOVERLAP>  (1) 
914.634

>  <PUBCHEM_SHAPE_VOLUME>  (1) 
220.8

>  <PUBCHEM_COORDINATE_TYPE>  (1) 
2
5
10

$$$$
