37608
     RDKit          3D

 22 23  0  0  1  0  0  0  0  0999 V2000
    0.0013   -0.8080    0.1831 O   0  0  0  0  0  0  0  0  0  0  0  0
    1.2874   -0.2379   -1.6200 O   0  0  0  0  0  0  0  0  0  0  0  0
   -3.6385   -0.1521   -0.1549 N   0  0  0  0  0  0  0  0  0  0  0  0
    2.1908   -0.4633    0.5279 N   0  0  0  0  0  0  0  0  0  0  0  0
   -1.1787   -0.2619   -0.3967 C   0  0  0  0  0  0  0  0  0  0  0  0
   -2.4071   -0.7497    0.3768 C   0  0  0  0  0  0  0  0  0  0  0  0
   -1.0908    1.2620   -0.3945 C   0  0  0  0  0  0  0  0  0  0  0  0
   -3.5911    1.3153   -0.0825 C   0  0  0  0  0  0  0  0  0  0  0  0
   -2.4033    1.8710   -0.8707 C   0  0  0  0  0  0  0  0  0  0  0  0
   -4.8068   -0.6629    0.5618 C   0  0  0  0  0  0  0  0  0  0  0  0
   -6.0917   -0.1329   -0.0723 C   0  0  0  0  0  0  0  0  0  0  0  0
   -7.3272   -0.6725    0.6491 C   0  0  0  0  0  0  0  0  0  0  0  0
    1.1884   -0.4761   -0.4224 C   0  0  0  0  0  0  0  0  0  0  0  0
   -8.6097   -0.1216    0.0463 C   0  0  0  0  0  0  0  0  0  0  0  0
    3.5620   -0.1740    0.3428 C   0  0  0  0  0  0  0  0  0  0  0  0
    4.0070    1.1344    0.4679 C   0  0  0  0  0  0  0  0  0  0  0  0
    4.4424   -1.2030    0.0395 C   0  0  0  0  0  0  0  0  0  0  0  0
    5.3603    1.4198    0.2858 C   0  0  0  0  0  0  0  0  0  0  0  0
    5.7957   -0.9177   -0.1424 C   0  0  0  0  0  0  0  0  0  0  0  0
    3.0738    2.2553    0.7936 C   0  0  0  0  0  0  0  0  0  0  0  0
    3.9813   -2.6178   -0.0990 C   0  0  0  0  0  0  0  0  0  0  0  0
    6.2546    0.3937   -0.0193 C   0  0  0  0  0  0  0  0  0  0  0  0
  1  5  1  0
  1 13  1  0
  2 13  2  0
  3  6  1  0
  3  8  1  0
  3 10  1  0
  4 13  1  0
  4 15  1  0
  5  6  1  0
  5  7  1  0
  7  9  1  0
  8  9  1  0
 10 11  1  0
 11 12  1  0
 12 14  1  0
 15 16  2  0
 15 17  1  0
 16 18  1  0
 16 20  1  0
 17 19  2  0
 17 21  1  0
 18 22  2  0
 19 22  1  0
M  END
>  <PUBCHEM_COMPOUND_CID>  (1) 
37608

>  <PUBCHEM_CONFORMER_RMSD>  (1) 
0.8

>  <PUBCHEM_CONFORMER_DIVERSEORDER>  (1) 
2
52
6
124
130
129
55
66
27
82
21
85
75
136
86
122
83
68
112
36
119
90
22
30
17
39
16
61
31
23
63
54
110
10
12
102
111
133
125
131
120
97
51
114
78
32
44
33
65
105
57
104
80
91
77
14
107
134
123
64
89
79
103
62
15
109
70
38
28
126
95
3
45
96
43
93
118
7
127
73
117
18
88
74
42
69
128
72
56
84
60
113
116
29
87
50
98
34
137
58
13
76
53
94
115
9
41
139
19
100
135
20
99
37
48
11
101
67
106
132
59
138
92
40
8
24
49
121
1
46
35
81
25
5
108
26
4
47
71

>  <PUBCHEM_MMFF94_PARTIAL_CHARGES>  (1) 
21
1 -0.43
10 0.27
13 0.78
15 0.12
16 -0.14
17 -0.14
18 -0.15
19 -0.15
2 -0.57
20 0.14
21 0.14
22 -0.15
3 -0.81
4 -0.55
41 0.37
42 0.15
43 0.15
5 0.28
50 0.15
6 0.27
8 0.27

>  <PUBCHEM_EFFECTIVE_ROTOR_COUNT>  (1) 
8.2

>  <PUBCHEM_PHARMACOPHORE_FEATURES>  (1) 
6
1 14 hydrophobe
1 2 acceptor
1 3 cation
1 4 donor
6 15 16 17 18 19 22 rings
6 3 5 6 7 8 9 rings

>  <PUBCHEM_HEAVY_ATOM_COUNT>  (1) 
22

>  <PUBCHEM_ATOM_DEF_STEREO_COUNT>  (1) 
1

>  <PUBCHEM_ATOM_UDEF_STEREO_COUNT>  (1) 
0

>  <PUBCHEM_BOND_DEF_STEREO_COUNT>  (1) 
0

>  <PUBCHEM_BOND_UDEF_STEREO_COUNT>  (1) 
0

>  <PUBCHEM_ISOTOPIC_ATOM_COUNT>  (1) 
0

>  <PUBCHEM_COMPONENT_COUNT>  (1) 
1

>  <PUBCHEM_CACTVS_TAUTO_COUNT>  (1) 
2

>  <PUBCHEM_CONFORMER_ID>  (1) 
000092E800000002

>  <PUBCHEM_MMFF94_ENERGY>  (1) 
62.0917

>  <PUBCHEM_FEATURE_SELFOVERLAP>  (1) 
30.446

>  <PUBCHEM_SHAPE_FINGERPRINT>  (1) 
10 15 18261948648594166480
10299344 5 17846779620449995047
10354089 29 18273495685058804144
10411042 1 18053667976577910998
11045977 3 18335703892199469523
12107183 9 17620194235302998402
12166972 35 18409732867389114657
12236239 1 16950562160061766283
12516196 113 17967813851486875133
12730499 353 18410293610456859050
12916748 109 18260546710574304328
13073987 5 18341891827903303032
13533116 47 18335700507533722722
1420 363 18260831496902345291
14251764 18 18060142042253158097
14251764 46 17312821588965080026
14341114 176 18412546509360029292
14933364 13 18411420609489986641
15419008 47 17822282492820261469
17844677 252 18340773650057748376
18006028 8 18408603665559120213
18222031 100 16443068279116680070
18335252 98 18335423460630974443
20157964 124 18343022194338990266
20645477 70 18201721705123824766
21033648 29 18336529573803222296
21150785 3 15719115764097941671
21267235 1 18343305826059008166
21315759 40 16774079570500127615
221357 26 18411698773126325776
22224240 67 17847058900561436495
23559900 14 18187645850851911961
3004659 81 16588029034937298919
3411729 13 16154567548191584612
34797466 226 18201444679495349460
3545911 37 18411135844763453960
4073 2 18188213211800608891
4325135 7 18060138752065466661
5104073 3 18338228250722291688
59682541 35 18188209913228490417
59755656 215 17967533446010288523
59755656 520 15339113538091336413
8272917 22 18201722826068110526

>  <PUBCHEM_SHAPE_MULTIPOLES>  (1) 
431.05
20.01
1.89
0.86
28.04
0.16
0.12
-2.66
-2.72
-2.31
-0.05
0.02
0.1
1.03

>  <PUBCHEM_SHAPE_SELFOVERLAP>  (1) 
878.385

>  <PUBCHEM_SHAPE_VOLUME>  (1) 
250.6

>  <PUBCHEM_COORDINATE_TYPE>  (1) 
2
5
10

$$$$
