37609
     RDKit          3D

 13 12  0  0  0  0  0  0  0  0999 V2000
   -7.5576   -0.5847    0.0035 Cl  0  0  0  0  0  0  0  0  0  0  0  0
    6.3978    0.5915   -0.0340 O   0  0  0  0  0  0  0  0  0  0  0  0
    5.3017   -1.3987    0.0190 O   0  0  0  0  0  0  0  0  0  0  0  0
   -1.0521    0.5501   -0.0092 C   0  0  0  0  0  0  0  0  0  0  0  0
    0.2323   -0.2805   -0.0125 C   0  0  0  0  0  0  0  0  0  0  0  0
   -2.2935   -0.3443   -0.0382 C   0  0  0  0  0  0  0  0  0  0  0  0
    1.4737    0.6139   -0.0171 C   0  0  0  0  0  0  0  0  0  0  0  0
   -3.5769    0.4884   -0.0028 C   0  0  0  0  0  0  0  0  0  0  0  0
    2.7582   -0.2195    0.0135 C   0  0  0  0  0  0  0  0  0  0  0  0
   -4.8519   -0.3598   -0.0174 C   0  0  0  0  0  0  0  0  0  0  0  0
    4.0146    0.6454    0.0407 C   0  0  0  0  0  0  0  0  0  0  0  0
   -6.1261    0.4731    0.0446 C   0  0  0  0  0  0  0  0  0  0  0  0
    5.2798   -0.1749    0.0099 C   0  0  0  0  0  0  0  0  0  0  0  0
  1 12  1  0
  2 13  1  0
  3 13  2  0
  4  5  1  0
  4  6  1  0
  5  7  1  0
  6  8  1  0
  7  9  1  0
  8 10  1  0
  9 11  1  0
 10 12  1  0
 11 13  1  0
M  END
>  <PUBCHEM_COMPOUND_CID>  (1) 
37609

>  <PUBCHEM_CONFORMER_RMSD>  (1) 
0.8

>  <PUBCHEM_CONFORMER_DIVERSEORDER>  (1) 
1
292
135
346
33
398
174
136
2
439
13
425
119
341
438
115
57
402
369
51
26
202
228
8
82
319
68
440
192
27
406
44
429
21
187
146
23
370
396
415
404
364
34
392
9
172
18
31
340
143
227
380
67
416
105
303
371
190
16
85
65
49
177
434
377
373
97
94
436
252
418
61
435
212
321
54
191
301
80
12
382
405
131
276
126
433
14
106
414
93
220
284
150
328
52
72
87
437
297
282
64
50
381
158
275
239
419
100
251
99
413
156
263
216
20
315
29
88
25
401
388
134
45
89
393
163
102
76
103
104
256
327
153
344
178
422
46
222
397
180
350
205
417
130
138
59
375
42
152
92
167
349
55
142
270
120
259
378
409
231
66
427
58
197
98
179
114
322
278
117
112
154
147
316
269
81
182
430
432
71
310
247
394
77
101
218
70
198
308
395
411
400
285
318
39
181
78
374
365
7
387
223
257
267
424
169
360
176
17
62
48
403
386
234
389
233
159
83
144
407
151
332
412
298
111
302
132
28
286
240
343
235
110
357
379
361
250
4
337
354
211
359
410
399
116
214
193
335
149
129
166
196
260
160
30
145
221
141
10
217
122
128
165
95
123
288
428
225
74
38
246
148
124
109
213
358
40
11
277
367
279
324
161
244
219
363
255
281
323
91
199
60
229
258
41
299
309
423
338
86
215
200
366
162
224
36
140
241
208
90
173
189
236
266
287
355
107
390
63
203
37
69
271
420
290
113
24
345
73
243
253
368
296
336
261
242
232
329
334
43
183
175
238
194
237
6
75
188
195
356
96
79
53
171
32
22
118
35
121
164
210
125
293
268
264
137
133
347
206
383
245
311
127
201
157
313
385
333
306
307
421
320
283
207
314
204
325
249
185
56
391
273
326
15
295
209
19
291
431
272
342
184
47
170
348
155
262
372
230
294
289
317
353
265
274
108
304
5
139
226
3
426
300
84
352
248
351
305
408
254
330
376
280
339
331
186
362
312
168
384

>  <PUBCHEM_MMFF94_PARTIAL_CHARGES>  (1) 
7
1 -0.29
11 0.06
12 0.29
13 0.66
2 -0.65
3 -0.57
32 0.5

>  <PUBCHEM_EFFECTIVE_ROTOR_COUNT>  (1) 
9

>  <PUBCHEM_PHARMACOPHORE_FEATURES>  (1) 
3
1 2 acceptor
1 3 acceptor
3 2 3 13 anion

>  <PUBCHEM_HEAVY_ATOM_COUNT>  (1) 
13

>  <PUBCHEM_ATOM_DEF_STEREO_COUNT>  (1) 
0

>  <PUBCHEM_ATOM_UDEF_STEREO_COUNT>  (1) 
0

>  <PUBCHEM_BOND_DEF_STEREO_COUNT>  (1) 
0

>  <PUBCHEM_BOND_UDEF_STEREO_COUNT>  (1) 
0

>  <PUBCHEM_ISOTOPIC_ATOM_COUNT>  (1) 
0

>  <PUBCHEM_COMPONENT_COUNT>  (1) 
1

>  <PUBCHEM_CACTVS_TAUTO_COUNT>  (1) 
1

>  <PUBCHEM_CONFORMER_ID>  (1) 
000092E900000001

>  <PUBCHEM_MMFF94_ENERGY>  (1) 
1.5115

>  <PUBCHEM_FEATURE_SELFOVERLAP>  (1) 
15.281

>  <PUBCHEM_SHAPE_FINGERPRINT>  (1) 
12091667 2 17967814947436680393
12714333 28 9583519815491660469
13533116 47 13829862270663008860
14123238 8 17560802126005747260
1420 363 17967818245175004851
14251764 18 18202003231333693913
14251764 46 18410292514474982537
17834076 25 18412544314800338221
20281389 69 18343301466150641033
20621476 38 18341333280328926366
20621476 8 17822290142193191053
20645477 70 18339643331347236390
20767249 213 9223228551040979721
21130983 4 9799689311866025867
23035841 295 18408884040760465547
23402539 116 17846492639172236821
23521765 1 18341895198956770917
33684 2 18410573985156725899
42788 4 18410855460608320129
4463277 17 18410011035293384629
8209 1 18409167718380107228

>  <PUBCHEM_SHAPE_MULTIPOLES>  (1) 
257.67
20.13
0.92
0.61
9.02
0.11
0
2.35
0.13
-0.44
0
0.11
0
-0.02

>  <PUBCHEM_SHAPE_SELFOVERLAP>  (1) 
460.271

>  <PUBCHEM_SHAPE_VOLUME>  (1) 
166.7

>  <PUBCHEM_COORDINATE_TYPE>  (1) 
2
5
10

$$$$
