3760
     RDKit          3D

 25 27  0  0  1  0  0  0  0  0999 V2000
   -2.2210   -0.9694   -2.7301 Cl  0  0  0  0  0  0  0  0  0  0  0  0
   -5.9585    1.3636    0.3615 Cl  0  0  0  0  0  0  0  0  0  0  0  0
    3.1326    0.5197   -2.0282 Cl  0  0  0  0  0  0  0  0  0  0  0  0
   -0.3877    3.0424    1.2849 Cl  0  0  0  0  0  0  0  0  0  0  0  0
    0.4511   -0.2224    0.1736 O   0  0  0  0  0  0  0  0  0  0  0  0
    0.9391   -3.0521    0.6416 N   0  0  0  0  0  0  0  0  0  0  0  0
    2.4878   -4.4332   -0.1081 N   0  0  0  0  0  0  0  0  0  0  0  0
   -0.5507   -1.1962   -0.1496 C   0  0  0  0  0  0  0  0  0  0  0  0
   -0.3602   -2.4070    0.7866 C   0  0  0  0  0  0  0  0  0  0  0  0
   -1.9015   -0.5635   -0.0545 C   0  0  0  0  0  0  0  0  0  0  0  0
    0.3984    0.8771   -0.7181 C   0  0  0  0  0  0  0  0  0  0  0  0
   -2.7232   -0.4205   -1.1726 C   0  0  0  0  0  0  0  0  0  0  0  0
   -2.3344   -0.1108    1.1918 C   0  0  0  0  0  0  0  0  0  0  0  0
    1.4623    1.8654   -0.3401 C   0  0  0  0  0  0  0  0  0  0  0  0
    2.0623   -2.7394    1.3367 C   0  0  0  0  0  0  0  0  0  0  0  0
    1.2293   -4.0678   -0.2120 C   0  0  0  0  0  0  0  0  0  0  0  0
   -3.9779    0.1755   -1.0443 C   0  0  0  0  0  0  0  0  0  0  0  0
   -3.5889    0.4850    1.3201 C   0  0  0  0  0  0  0  0  0  0  0  0
   -4.4107    0.6283    0.2021 C   0  0  0  0  0  0  0  0  0  0  0  0
    3.0126   -3.6094    0.8560 C   0  0  0  0  0  0  0  0  0  0  0  0
    2.7351    1.7651   -0.8996 C   0  0  0  0  0  0  0  0  0  0  0  0
    1.1759    2.8823    0.5694 C   0  0  0  0  0  0  0  0  0  0  0  0
    3.7241    2.6841   -0.5487 C   0  0  0  0  0  0  0  0  0  0  0  0
    2.1650    3.8011    0.9203 C   0  0  0  0  0  0  0  0  0  0  0  0
    3.4391    3.7021    0.3611 C   0  0  0  0  0  0  0  0  0  0  0  0
  1 12  1  0
  2 19  1  0
  3 21  1  0
  4 22  1  0
  5  8  1  0
  5 11  1  0
  6  9  1  0
  6 15  1  0
  6 16  1  0
  7 16  2  0
  7 20  1  0
  8  9  1  0
  8 10  1  0
 10 12  2  0
 10 13  1  0
 11 14  1  0
 12 17  1  0
 13 18  2  0
 14 21  2  0
 14 22  1  0
 15 20  2  0
 17 19  2  0
 18 19  1  0
 21 23  1  0
 22 24  2  0
 23 25  2  0
 24 25  1  0
M  END
>  <PUBCHEM_COMPOUND_CID>  (1) 
3760

>  <PUBCHEM_CONFORMER_RMSD>  (1) 
0.8

>  <PUBCHEM_CONFORMER_DIVERSEORDER>  (1) 
1
29
47
73
9
53
45
44
64
39
37
67
34
35
26
31
65
57
52
19
17
50
40
58
4
32
51
59
60
27
5
48
3
16
20
46
7
18
69
14
68
10
56
61
66
49
36
6
71
41
72
21
33
22
63
70
38
55
62
8
2
43
24
54
12
42
25
28
15
11
30
23
13

>  <PUBCHEM_MMFF94_PARTIAL_CHARGES>  (1) 
34
1 -0.18
10 -0.14
11 0.42
12 0.18
13 -0.15
14 -0.14
15 -0.3
16 0.04
17 -0.15
18 -0.15
19 0.18
2 -0.18
20 0.08
21 0.18
22 0.18
23 -0.15
24 -0.15
25 -0.15
3 -0.18
31 0.15
32 0.15
33 0.15
34 0.15
35 0.15
36 0.15
37 0.15
38 0.15
39 0.15
4 -0.18
5 -0.56
6 0.05
7 -0.57
8 0.42
9 0.26

>  <PUBCHEM_EFFECTIVE_ROTOR_COUNT>  (1) 
6

>  <PUBCHEM_PHARMACOPHORE_FEATURES>  (1) 
5
1 5 acceptor
3 6 7 16 cation
5 6 7 15 16 20 rings
6 10 12 13 17 18 19 rings
6 14 21 22 23 24 25 rings

>  <PUBCHEM_HEAVY_ATOM_COUNT>  (1) 
25

>  <PUBCHEM_ATOM_DEF_STEREO_COUNT>  (1) 
0

>  <PUBCHEM_ATOM_UDEF_STEREO_COUNT>  (1) 
1

>  <PUBCHEM_BOND_DEF_STEREO_COUNT>  (1) 
0

>  <PUBCHEM_BOND_UDEF_STEREO_COUNT>  (1) 
0

>  <PUBCHEM_ISOTOPIC_ATOM_COUNT>  (1) 
0

>  <PUBCHEM_COMPONENT_COUNT>  (1) 
1

>  <PUBCHEM_CACTVS_TAUTO_COUNT>  (1) 
1

>  <PUBCHEM_CONFORMER_ID>  (1) 
00000EB000000001

>  <PUBCHEM_MMFF94_ENERGY>  (1) 
59.4332

>  <PUBCHEM_FEATURE_SELFOVERLAP>  (1) 
25.373

>  <PUBCHEM_SHAPE_FINGERPRINT>  (1) 
10165383 225 18041862690994496029
10675989 125 18341623624123336248
1100329 8 18410292540930959010
12173636 292 18049443944027231229
12788726 201 17689736167990352174
13140716 1 18335703909548345010
133893 2 17898535822733526155
13681431 1 18190446173908455690
13878862 14 18116696436767828717
14081887 123 17041755968524470528
14856354 85 15865752270345609768
14955137 171 18195812864742440759
17913733 40 18265914599603627411
17980427 26 18341601659491123965
1813 80 17911240520626226495
18785283 64 18187087243379523571
21033648 29 18123754415837476225
21041028 32 18050005489510470389
21120745 212 17618515276947744926
21304303 282 17404824495629427391
21344244 78 18198330759386052809
22907989 373 17038944508248827404
23419403 2 17750506283031395919
23558518 356 17765994287119278445
23559900 14 18264201419043976491
3187 122 17685467885721463706
376196 1 17701536448960375680
5265222 85 17898310513650768700
5385378 56 18409738356847663481
59755656 520 18121497126843751877
6443956 14 18192142694748959306
7471813 234 18125149451495245541
81228 2 17181361509168743346
9925002 15 17546459881716710092
9981440 41 18194112147871071465

>  <PUBCHEM_SHAPE_MULTIPOLES>  (1) 
506.14
8.01
5.96
1.7
8.7
4.7
-0.95
-5.68
-0.6
-8.52
2.31
0.39
0.19
-1.15

>  <PUBCHEM_SHAPE_SELFOVERLAP>  (1) 
1055.352

>  <PUBCHEM_SHAPE_VOLUME>  (1) 
291.7

>  <PUBCHEM_COORDINATE_TYPE>  (1) 
2
5
10

$$$$
