37617
     RDKit          3D

 19 20  0  0  0  0  0  0  0  0999 V2000
    0.0164    1.3312    0.0621 O   0  0  0  0  0  0  0  0  0  0  0  0
   -5.8699   -0.7042   -1.1526 O   0  0  0  0  0  0  0  0  0  0  0  0
    0.7502   -0.8615   -0.0587 O   0  0  0  0  0  0  0  0  0  0  0  0
    2.2657    0.9200    0.0517 N   0  0  0  0  0  0  0  0  0  0  0  0
   -3.8926   -0.0607   -0.0390 C   0  0  0  0  0  0  0  0  0  0  0  0
   -1.2650    0.8740    0.0288 C   0  0  0  0  0  0  0  0  0  0  0  0
   -3.2424    0.1037    1.1839 C   0  0  0  0  0  0  0  0  0  0  0  0
   -3.2292    0.2422   -1.2281 C   0  0  0  0  0  0  0  0  0  0  0  0
   -1.9286    0.5711    1.2178 C   0  0  0  0  0  0  0  0  0  0  0  0
   -1.9154    0.7095   -1.1943 C   0  0  0  0  0  0  0  0  0  0  0  0
    3.5271    0.2832    0.0227 C   0  0  0  0  0  0  0  0  0  0  0  0
   -5.2626   -0.5477   -0.0746 C   0  0  0  0  0  0  0  0  0  0  0  0
    4.6782    1.0534    0.0731 C   0  0  0  0  0  0  0  0  0  0  0  0
    3.5888   -1.0993   -0.0547 C   0  0  0  0  0  0  0  0  0  0  0  0
    1.0152    0.3332    0.0111 C   0  0  0  0  0  0  0  0  0  0  0  0
    5.9232    0.4251    0.0450 C   0  0  0  0  0  0  0  0  0  0  0  0
    4.8338   -1.7275   -0.0827 C   0  0  0  0  0  0  0  0  0  0  0  0
    6.0010   -0.9653   -0.0329 C   0  0  0  0  0  0  0  0  0  0  0  0
   -5.9939   -0.8805    1.2214 C   0  0  0  0  0  0  0  0  0  0  0  0
  1  6  1  0
  1 15  1  0
  2 12  2  0
  3 15  2  0
  4 11  1  0
  4 15  1  0
  5  7  2  0
  5  8  1  0
  5 12  1  0
  6  9  2  0
  6 10  1  0
  7  9  1  0
  8 10  2  0
 11 13  2  0
 11 14  1  0
 12 19  1  0
 13 16  1  0
 14 17  2  0
 16 18  2  0
 17 18  1  0
M  END
>  <PUBCHEM_COMPOUND_CID>  (1) 
37617

>  <PUBCHEM_CONFORMER_RMSD>  (1) 
0.8

>  <PUBCHEM_CONFORMER_DIVERSEORDER>  (1) 
1
22
13
16
6
14
24
11
2
17
5
21
23
25
20
8
4
15
18
9
19
3
12
7
10

>  <PUBCHEM_MMFF94_PARTIAL_CHARGES>  (1) 
29
1 -0.23
10 -0.15
11 0.12
12 0.42
13 -0.15
14 -0.15
15 0.78
16 -0.15
17 -0.15
18 -0.15
19 0.06
2 -0.57
20 0.15
21 0.15
22 0.15
23 0.15
24 0.37
25 0.15
26 0.15
27 0.15
28 0.15
29 0.15
3 -0.57
4 -0.55
5 0.09
6 0.08
7 -0.15
8 -0.15
9 -0.15

>  <PUBCHEM_EFFECTIVE_ROTOR_COUNT>  (1) 
5

>  <PUBCHEM_PHARMACOPHORE_FEATURES>  (1) 
5
1 2 acceptor
1 3 acceptor
1 4 donor
6 11 13 14 16 17 18 rings
6 5 6 7 8 9 10 rings

>  <PUBCHEM_HEAVY_ATOM_COUNT>  (1) 
19

>  <PUBCHEM_ATOM_DEF_STEREO_COUNT>  (1) 
0

>  <PUBCHEM_ATOM_UDEF_STEREO_COUNT>  (1) 
0

>  <PUBCHEM_BOND_DEF_STEREO_COUNT>  (1) 
0

>  <PUBCHEM_BOND_UDEF_STEREO_COUNT>  (1) 
0

>  <PUBCHEM_ISOTOPIC_ATOM_COUNT>  (1) 
0

>  <PUBCHEM_COMPONENT_COUNT>  (1) 
1

>  <PUBCHEM_CACTVS_TAUTO_COUNT>  (1) 
4

>  <PUBCHEM_CONFORMER_ID>  (1) 
000092F100000001

>  <PUBCHEM_MMFF94_ENERGY>  (1) 
61.9161

>  <PUBCHEM_FEATURE_SELFOVERLAP>  (1) 
25.371

>  <PUBCHEM_SHAPE_FINGERPRINT>  (1) 
10014705 185 9151163251478541749
10968037 39 16660364796579147559
11089746 13 12396300374273596366
11315181 36 15864077567843264020
12107183 9 17125098451461784610
12236239 1 17775568645353101593
12516196 113 18412544318889999616
12596602 18 16988842787038717546
12616971 3 17560796658227939260
12916748 109 15482675671717914144
13073987 5 18343018844728547960
13167823 11 18060137605325061798
13288520 33 18186803587060430541
13533116 47 18202283585413949026
13551218 46 17775289313528402302
13668630 136 18335704927366143970
13675066 3 12247671691234771108
13685833 64 18261398866545906547
13885169 127 18335139783559711961
1420 363 18259707800002528202
14251718 22 17095242523000199266
14350574 20 18334577940811086724
14528608 73 13262405474861295478
14573314 32 16950280672527350754
14848160 23 18040435494673412386
14849402 71 17131257083157724216
15048467 5 8142082061683727134
15183329 4 12396297066964194555
15348495 7 13110667381091393366
15716309 27 18202003226764588899
17492 89 18056200159908270862
17844677 252 18408608041614330492
17870717 6 17022907835189890883
1813 80 18200888317526622124
18222031 100 17603587426531033052
19489759 90 16370723716633082797
200 152 18412261727158267545
20281389 69 10663821866812943843
20645477 70 18335981970390181806
21150785 3 17240773895533742398
21267235 1 18343306929950077318
21623969 137 18412831278466250102
21637258 2 18130496501184998583
220451 1 17918276471635852702
22224240 67 12679463097686774421
2297311 6 17168146732734032733
23035841 295 18202563985999989103
23198884 109 13839983318162222291
23402539 116 18272650121377107537
23522609 53 17702126822269517713
23557571 272 17313382288355846684
23559900 14 16733269057140847877
29717793 49 13984660331221278546
34797466 226 16805616871193814622
351380 3 17917989477557659750
3545911 37 18409167727787595910
4325135 7 18334297587189988924
465052 167 18342461439398655110
5104073 3 18199463282222318504
542803 24 16128655254258571160
59682541 35 18341604954722329584
59755656 215 17385441011880749450

>  <PUBCHEM_SHAPE_MULTIPOLES>  (1) 
368.42
16.25
1.28
1.06
2.83
0.2
0
5.44
-0.08
1.08
0.01
-1.59
-0.02
0.47

>  <PUBCHEM_SHAPE_SELFOVERLAP>  (1) 
788.863

>  <PUBCHEM_SHAPE_VOLUME>  (1) 
201.9

>  <PUBCHEM_COORDINATE_TYPE>  (1) 
2
5
10

$$$$
