37616
     RDKit          3D

 18 19  0  0  0  0  0  0  0  0999 V2000
   -0.3112   -1.2933   -0.0008 O   0  0  0  0  0  0  0  0  0  0  0  0
    0.4544    0.8918    0.0028 O   0  0  0  0  0  0  0  0  0  0  0  0
    1.9435   -0.9152   -0.0006 N   0  0  0  0  0  0  0  0  0  0  0  0
   -6.6243    1.0727   -0.0007 N   0  0  0  0  0  0  0  0  0  0  0  0
    3.2141   -0.2962    0.0003 C   0  0  0  0  0  0  0  0  0  0  0  0
   -1.5861   -0.8161    0.0001 C   0  0  0  0  0  0  0  0  0  0  0  0
    4.3540   -1.0845   -0.0011 C   0  0  0  0  0  0  0  0  0  0  0  0
    3.2955    1.0872    0.0012 C   0  0  0  0  0  0  0  0  0  0  0  0
   -2.2388   -0.5700   -1.2080 C   0  0  0  0  0  0  0  0  0  0  0  0
   -2.2398   -0.5728    1.2079 C   0  0  0  0  0  0  0  0  0  0  0  0
    5.6079   -0.4735   -0.0014 C   0  0  0  0  0  0  0  0  0  0  0  0
    4.5494    1.6983    0.0008 C   0  0  0  0  0  0  0  0  0  0  0  0
   -4.1986    0.1624   -0.0001 C   0  0  0  0  0  0  0  0  0  0  0  0
   -3.5451   -0.0808   -1.2081 C   0  0  0  0  0  0  0  0  0  0  0  0
   -3.5461   -0.0836    1.2080 C   0  0  0  0  0  0  0  0  0  0  0  0
    5.7057    0.9179   -0.0004 C   0  0  0  0  0  0  0  0  0  0  0  0
    0.7018   -0.3086    0.0005 C   0  0  0  0  0  0  0  0  0  0  0  0
   -5.5364    0.6644   -0.0005 C   0  0  0  0  0  0  0  0  0  0  0  0
  1  6  1  0
  1 17  1  0
  2 17  2  0
  3  5  1  0
  3 17  1  0
  4 18  3  0
  5  7  2  0
  5  8  1  0
  6  9  2  0
  6 10  1  0
  7 11  1  0
  8 12  2  0
  9 14  1  0
 10 15  2  0
 11 16  2  0
 12 16  1  0
 13 14  2  0
 13 15  1  0
 13 18  1  0
M  END
>  <PUBCHEM_COMPOUND_CID>  (1) 
37616

>  <PUBCHEM_CONFORMER_RMSD>  (1) 
0.6

>  <PUBCHEM_CONFORMER_DIVERSEORDER>  (1) 
1
24
17
20
2
3
25
12
4
23
6
21
26
18
5
22
14
7
15
9
19
16
13
8
10
11

>  <PUBCHEM_MMFF94_PARTIAL_CHARGES>  (1) 
28
1 -0.23
10 -0.15
11 -0.15
12 -0.15
13 0.07
14 -0.15
15 -0.15
16 -0.15
17 0.78
18 0.48
19 0.15
2 -0.57
20 0.15
21 0.37
22 0.15
23 0.15
24 0.15
25 0.15
26 0.15
27 0.15
28 0.15
3 -0.55
4 -0.56
5 0.12
6 0.08
7 -0.15
8 -0.15
9 -0.15

>  <PUBCHEM_EFFECTIVE_ROTOR_COUNT>  (1) 
4

>  <PUBCHEM_PHARMACOPHORE_FEATURES>  (1) 
5
1 2 acceptor
1 3 donor
1 4 acceptor
6 5 7 8 11 12 16 rings
6 6 9 10 13 14 15 rings

>  <PUBCHEM_HEAVY_ATOM_COUNT>  (1) 
18

>  <PUBCHEM_ATOM_DEF_STEREO_COUNT>  (1) 
0

>  <PUBCHEM_ATOM_UDEF_STEREO_COUNT>  (1) 
0

>  <PUBCHEM_BOND_DEF_STEREO_COUNT>  (1) 
0

>  <PUBCHEM_BOND_UDEF_STEREO_COUNT>  (1) 
0

>  <PUBCHEM_ISOTOPIC_ATOM_COUNT>  (1) 
0

>  <PUBCHEM_COMPONENT_COUNT>  (1) 
1

>  <PUBCHEM_CACTVS_TAUTO_COUNT>  (1) 
2

>  <PUBCHEM_CONFORMER_ID>  (1) 
000092F000000001

>  <PUBCHEM_MMFF94_ENERGY>  (1) 
53.2307

>  <PUBCHEM_FEATURE_SELFOVERLAP>  (1) 
25.371

>  <PUBCHEM_SHAPE_FINGERPRINT>  (1) 
10014705 185 18411418448947486743
11089746 13 18131347518489126760
11315181 36 16487256599154244058
12236239 1 17989204841494042167
12916748 109 15357695267125221990
13167372 99 18341896234039030529
13288520 33 10015862085864356011
13533116 47 15697724696892386822
13675066 3 17822014241688476010
1420 363 10807935972356379621
14341114 176 16515401863642658892
14350574 20 10159697992979769474
15048467 5 18412544318631387172
17834072 33 17917708045388216750
17834076 25 17703790318689087727
200 152 17846495941532484826
20281389 69 18260546701958463669
20645477 56 17458339745515052719
20645477 70 18410854331311983526
21033648 29 18041826394157727668
22224240 67 17530686503227857771
2297311 6 15936413299309689030
23402539 116 16343695535153539045
23536379 177 18343863307907190351
23557571 272 16588306025340834214
23559900 14 18334013909153823298
2838139 119 18341607067651871837
29717793 49 17275109418807464708
300161 21 17846776330325555274
3004659 81 16773805740902963974
34797466 226 14476961228965488808
351380 3 11602820207049264280
3545911 37 17458344121991729722
5104073 3 18261667194743827666
542803 24 18342737424932251638
59755656 520 18114177545369128419
8272917 22 18343302531487289814

>  <PUBCHEM_SHAPE_MULTIPOLES>  (1) 
348.73
15.21
1.28
0.94
0.62
0.22
0
4.94
0
-1.01
0
1
-0.1
0

>  <PUBCHEM_SHAPE_SELFOVERLAP>  (1) 
749.763

>  <PUBCHEM_SHAPE_VOLUME>  (1) 
188.7

>  <PUBCHEM_COORDINATE_TYPE>  (1) 
2
5
10

$$$$
