37610
     RDKit          3D

 16 17  0  0  0  0  0  0  0  0999 V2000
   -3.4409    0.3284    0.0814 O   0  0  0  0  0  0  0  0  0  0  0  0
   -3.1579   -1.9542   -0.0105 O   0  0  0  0  0  0  0  0  0  0  0  0
   -0.7583    0.7661   -0.0287 N   0  0  0  0  0  0  0  0  0  0  0  0
    0.9911   -0.6126   -0.1545 C   0  0  0  0  0  0  0  0  0  0  0  0
    0.6164    0.7312   -0.0930 C   0  0  0  0  0  0  0  0  0  0  0  0
    3.3041    0.1026   -0.2369 C   0  0  0  0  0  0  0  0  0  0  0  0
    2.3615   -0.9319   -0.2277 C   0  0  0  0  0  0  0  0  0  0  0  0
   -0.2058   -1.3816   -0.1251 C   0  0  0  0  0  0  0  0  0  0  0  0
   -1.2642   -0.5060   -0.0472 C   0  0  0  0  0  0  0  0  0  0  0  0
    1.5474    1.7760   -0.1013 C   0  0  0  0  0  0  0  0  0  0  0  0
    4.7578   -0.2277   -0.3140 C   0  0  0  0  0  0  0  0  0  0  0  0
    2.9012    1.4351   -0.1746 C   0  0  0  0  0  0  0  0  0  0  0  0
    5.3863   -0.4020    1.0656 C   0  0  0  0  0  0  0  0  0  0  0  0
   -2.6605   -0.8046    0.0061 C   0  0  0  0  0  0  0  0  0  0  0  0
   -4.8613    0.1595    0.1415 C   0  0  0  0  0  0  0  0  0  0  0  0
   -5.5169    1.5217    0.2189 C   0  0  0  0  0  0  0  0  0  0  0  0
  1 14  1  0
  1 15  1  0
  2 14  2  0
  3  5  1  0
  3  9  1  0
  4  5  2  0
  4  7  1  0
  4  8  1  0
  5 10  1  0
  6  7  2  0
  6 11  1  0
  6 12  1  0
  8  9  2  0
  9 14  1  0
 10 12  2  0
 11 13  1  0
 15 16  1  0
M  END
>  <PUBCHEM_COMPOUND_CID>  (1) 
37610

>  <PUBCHEM_CONFORMER_RMSD>  (1) 
0.6

>  <PUBCHEM_CONFORMER_DIVERSEORDER>  (1) 
1
26
10
22
21
24
17
25
12
7
2
27
19
15
3
23
11
5
18
16
20
14
9
4
13
8
6

>  <PUBCHEM_MMFF94_PARTIAL_CHARGES>  (1) 
18
1 -0.43
10 -0.15
11 0.14
12 -0.15
14 0.81
15 0.28
17 0.15
18 0.15
19 0.27
2 -0.57
20 0.15
23 0.15
3 0.03
5 -0.15
6 -0.14
7 -0.15
8 -0.15
9 -0.24

>  <PUBCHEM_EFFECTIVE_ROTOR_COUNT>  (1) 
4

>  <PUBCHEM_PHARMACOPHORE_FEATURES>  (1) 
6
1 13 hydrophobe
1 2 acceptor
1 3 cation
1 3 donor
5 3 4 5 8 9 rings
6 4 5 6 7 10 12 rings

>  <PUBCHEM_HEAVY_ATOM_COUNT>  (1) 
16

>  <PUBCHEM_ATOM_DEF_STEREO_COUNT>  (1) 
0

>  <PUBCHEM_ATOM_UDEF_STEREO_COUNT>  (1) 
0

>  <PUBCHEM_BOND_DEF_STEREO_COUNT>  (1) 
0

>  <PUBCHEM_BOND_UDEF_STEREO_COUNT>  (1) 
0

>  <PUBCHEM_ISOTOPIC_ATOM_COUNT>  (1) 
0

>  <PUBCHEM_COMPONENT_COUNT>  (1) 
1

>  <PUBCHEM_CACTVS_TAUTO_COUNT>  (1) 
2

>  <PUBCHEM_CONFORMER_ID>  (1) 
000092EA00000001

>  <PUBCHEM_MMFF94_ENERGY>  (1) 
23.1925

>  <PUBCHEM_FEATURE_SELFOVERLAP>  (1) 
30.537

>  <PUBCHEM_SHAPE_FINGERPRINT>  (1) 
10062212 137 18340481265648023015
11089746 13 17989478619826152329
11401426 45 18131348613542094382
11405975 8 18334576888333005457
11458722 120 18334012770085325200
11471102 20 18412263938860579828
13675066 3 18059857306926842514
13760787 5 17603583058301295222
13922767 16 18343302582509490576
14115302 16 17458636635472351438
14251718 22 11599999955587209633
14251764 18 18334295400350112280
15196674 1 18338800125306432580
16945 1 18341344361396660918
17834072 8 18343872103741743628
18186145 218 17895185653499755439
18522853 276 18343582936821568408
19784866 9 18335420144916222242
200 152 17846778520463496719
20645477 70 17846224293393969135
21267235 1 18410866485399264719
212847 35 18335425681392953612
21421861 104 17678449771414923570
21618674 57 17822010904150649928
23218964 4 18333730191333642013
23402539 116 18130781265600139077
23402655 69 18342177790661980085
23559900 14 18272374178998567822
26918003 58 18342175574559017050
33382 64 15430309184293400424
335352 9 18410576171506128590
34934 24 18341608200673619486
3545911 37 18341898485171176827
4072396 5 18340197506302416946
4214541 1 18410857681306729343
4463277 17 18409169926784672652
5104073 3 18337110184503396752
59755656 520 17531241778127929867
633830 44 17822291343982154478
6430166 295 18411138026448714757
77779 3 18337394945441252943

>  <PUBCHEM_SHAPE_MULTIPOLES>  (1) 
312.55
11.06
1.63
0.7
5.04
0.15
-0.07
1.63
-1.9
0.71
0.04
-0.47
-0.02
-0.29

>  <PUBCHEM_SHAPE_SELFOVERLAP>  (1) 
664.169

>  <PUBCHEM_SHAPE_VOLUME>  (1) 
176.8

>  <PUBCHEM_COORDINATE_TYPE>  (1) 
2
5
10

$$$$
