37613
     RDKit          3D

 16 16  0  0  0  0  0  0  0  0999 V2000
   -3.5352    2.6876   -0.3114 Cl  0  0  0  0  0  0  0  0  0  0  0  0
   -0.7700   -3.2795    0.3581 O   0  0  0  0  0  0  0  0  0  0  0  0
    1.0004   -2.1743   -0.3226 O   0  0  0  0  0  0  0  0  0  0  0  0
   -0.2136   -2.2211   -0.0163 N   0  0  0  0  0  0  0  0  0  0  0  0
    4.4080    0.7095   -1.0173 N   0  0  0  0  0  0  0  0  0  0  0  0
    1.6352    1.1272    2.4574 N   0  0  0  0  0  0  0  0  0  0  0  0
   -0.4245    0.1793   -0.5051 C   0  0  0  0  0  0  0  0  0  0  0  0
   -0.9885   -1.0293   -0.0965 C   0  0  0  0  0  0  0  0  0  0  0  0
   -1.2115    1.3291   -0.5716 C   0  0  0  0  0  0  0  0  0  0  0  0
   -2.3394   -1.0883    0.2456 C   0  0  0  0  0  0  0  0  0  0  0  0
   -2.5626    1.2701   -0.2295 C   0  0  0  0  0  0  0  0  0  0  0  0
   -3.1264    0.0614    0.1790 C   0  0  0  0  0  0  0  0  0  0  0  0
    0.9834    0.2840   -0.8719 C   0  0  0  0  0  0  0  0  0  0  0  0
    2.0106    0.5969   -0.0478 C   0  0  0  0  0  0  0  0  0  0  0  0
    3.3325    0.6589   -0.5837 C   0  0  0  0  0  0  0  0  0  0  0  0
    1.8014    0.8885    1.3337 C   0  0  0  0  0  0  0  0  0  0  0  0
  1 11  1  0
  2  4  1  0
  3  4  2  0
  4  8  1  0
  5 15  3  0
  6 16  3  0
  7  8  2  0
  7  9  1  0
  7 13  1  0
  8 10  1  0
  9 11  2  0
 10 12  2  0
 11 12  1  0
 13 14  2  3
 14 15  1  0
 14 16  1  0
M  CHG  2   2  -1   4   1
M  END
>  <PUBCHEM_COMPOUND_CID>  (1) 
37613

>  <PUBCHEM_CONFORMER_RMSD>  (1) 
0.6

>  <PUBCHEM_CONFORMER_DIVERSEORDER>  (1) 
1
3
2
4

>  <PUBCHEM_MMFF94_PARTIAL_CHARGES>  (1) 
20
1 -0.18
10 -0.15
11 0.18
12 -0.15
13 -0.18
14 0.13
15 0.49
16 0.49
17 0.15
18 0.15
19 0.15
2 -0.52
20 0.15
3 -0.52
4 0.91
5 -0.56
6 -0.56
7 0.03
8 0.13
9 -0.15

>  <PUBCHEM_EFFECTIVE_ROTOR_COUNT>  (1) 
2

>  <PUBCHEM_PHARMACOPHORE_FEATURES>  (1) 
6
1 2 acceptor
1 2 anion
1 3 acceptor
1 5 acceptor
1 6 acceptor
6 7 8 9 10 11 12 rings

>  <PUBCHEM_HEAVY_ATOM_COUNT>  (1) 
16

>  <PUBCHEM_ATOM_DEF_STEREO_COUNT>  (1) 
0

>  <PUBCHEM_ATOM_UDEF_STEREO_COUNT>  (1) 
0

>  <PUBCHEM_BOND_DEF_STEREO_COUNT>  (1) 
0

>  <PUBCHEM_BOND_UDEF_STEREO_COUNT>  (1) 
0

>  <PUBCHEM_ISOTOPIC_ATOM_COUNT>  (1) 
0

>  <PUBCHEM_COMPONENT_COUNT>  (1) 
1

>  <PUBCHEM_CACTVS_TAUTO_COUNT>  (1) 
1

>  <PUBCHEM_CONFORMER_ID>  (1) 
000092ED00000001

>  <PUBCHEM_MMFF94_ENERGY>  (1) 
45.6025

>  <PUBCHEM_FEATURE_SELFOVERLAP>  (1) 
30.53

>  <PUBCHEM_SHAPE_FINGERPRINT>  (1) 
11578080 2 12132108393027759540
12173636 292 18336829804944092244
12716301 132 18339069475722374792
13132413 78 16828120266083443517
13294875 104 17843375441623059072
13538477 17 17896589781483036858
14817 1 12158731529453332491
15309172 13 18334019388767117397
15490181 7 18129644396457773927
15852999 172 17825638129124113629
16752209 62 18262222439325433287
16945 1 18264760137710578287
18186145 218 17704066300561122881
19422 9 17603864516208867384
20510252 161 18341055219639927129
21501502 16 18265045843462236175
21524375 3 18342732975599366775
23175994 123 17345773957256534652
23236772 104 17313667169310265596
23402539 116 18268711778633450655
23419403 2 16681146390724802688
23493267 7 17895198791926208769
23526113 38 17846232072048817878
23559900 14 18273220803379314348
23598294 1 18187641431457489753
25 1 17988087685903334669
2748010 2 18335711481702288431
305870 269 18263363603387783751
3071541 12 17905050248760110615
53812653 166 18342740680665330405
7364860 26 17981040817460615623
77492 1 17385998516131909644
81228 2 17836914964865055523
84936 182 17983567503861227089

>  <PUBCHEM_SHAPE_MULTIPOLES>  (1) 
304.46
5.68
2.69
1.22
1.81
1.96
-0.82
-3.93
1
-1.66
-0.1
1.04
-0.54
0.42

>  <PUBCHEM_SHAPE_SELFOVERLAP>  (1) 
636.668

>  <PUBCHEM_SHAPE_VOLUME>  (1) 
171.8

>  <PUBCHEM_COORDINATE_TYPE>  (1) 
2
5
10

$$$$
