37629
     RDKit          3D

 26 28  0  0  1  0  0  0  0  0999 V2000
   -7.3564   -0.9364    0.1153 Br  0  0  0  0  0  0  0  0  0  0  0  0
   -0.3993    2.6361    1.2569 S   0  0  0  0  0  0  0  0  0  0  0  0
    1.0176    0.0947   -2.1918 O   0  0  0  0  0  0  0  0  0  0  0  0
    3.1066   -0.3664   -0.2612 N   0  0  0  0  0  0  0  0  0  0  0  0
    1.6882   -0.4195    0.0852 C   0  0  0  0  0  0  0  0  0  0  0  0
    0.8531    0.4969   -0.8273 C   0  0  0  0  0  0  0  0  0  0  0  0
    3.8850   -1.2232    0.6335 C   0  0  0  0  0  0  0  0  0  0  0  0
    3.5970    1.0107   -0.2032 C   0  0  0  0  0  0  0  0  0  0  0  0
   -0.6036    0.4558   -0.4836 C   0  0  0  0  0  0  0  0  0  0  0  0
    3.3714   -2.6606    0.5714 C   0  0  0  0  0  0  0  0  0  0  0  0
    5.0636    1.0699   -0.6271 C   0  0  0  0  0  0  0  0  0  0  0  0
   -1.1984    1.3606    0.4141 C   0  0  0  0  0  0  0  0  0  0  0  0
   -2.5625    1.3069    0.7221 C   0  0  0  0  0  0  0  0  0  0  0  0
   -1.3933   -0.5240   -1.0852 C   0  0  0  0  0  0  0  0  0  0  0  0
    4.1858   -3.5782    1.4841 C   0  0  0  0  0  0  0  0  0  0  0  0
    5.5908    2.5049   -0.5942 C   0  0  0  0  0  0  0  0  0  0  0  0
   -3.3582    0.2916    0.0925 C   0  0  0  0  0  0  0  0  0  0  0  0
   -2.7576   -0.6200   -0.8119 C   0  0  0  0  0  0  0  0  0  0  0  0
   -2.9044    2.3445    1.6639 C   0  0  0  0  0  0  0  0  0  0  0  0
    3.6584   -5.0039    1.4552 C   0  0  0  0  0  0  0  0  0  0  0  0
    7.0598    2.5681   -0.9808 C   0  0  0  0  0  0  0  0  0  0  0  0
   -4.7401    0.1825    0.3597 C   0  0  0  0  0  0  0  0  0  0  0  0
   -3.5491   -1.6082   -1.4192 C   0  0  0  0  0  0  0  0  0  0  0  0
   -1.8337    3.1243    2.0295 C   0  0  0  0  0  0  0  0  0  0  0  0
   -5.5072   -0.8072   -0.2555 C   0  0  0  0  0  0  0  0  0  0  0  0
   -4.9134   -1.7001   -1.1423 C   0  0  0  0  0  0  0  0  0  0  0  0
  1 25  1  0
  2 12  1  0
  2 24  1  0
  3  6  1  0
  4  5  1  0
  4  7  1  0
  4  8  1  0
  5  6  1  0
  6  9  1  0
  7 10  1  0
  8 11  1  0
  9 12  2  0
  9 14  1  0
 10 15  1  0
 11 16  1  0
 12 13  1  0
 13 17  2  0
 13 19  1  0
 14 18  2  0
 15 20  1  0
 16 21  1  0
 17 18  1  0
 17 22  1  0
 18 23  1  0
 19 24  2  0
 22 25  2  0
 23 26  2  0
 25 26  1  0
M  END
>  <PUBCHEM_COMPOUND_CID>  (1) 
37629

>  <PUBCHEM_CONFORMER_RMSD>  (1) 
1

>  <PUBCHEM_CONFORMER_DIVERSEORDER>  (1) 
1
5
44
40
50
45
38
36
6
30
24
19
51
8
33
22
13
25
47
11
17
46
31
18
43
2
20
9
41
42
49
27
26
39
10
28
15
21
32
14
35
52
53
23
12
48
7
29
34
4
37
16
3

>  <PUBCHEM_MMFF94_PARTIAL_CHARGES>  (1) 
24
1 -0.11
12 0.04
14 -0.15
19 -0.15
2 -0.08
22 -0.15
23 -0.15
24 -0.11
25 0.11
26 -0.15
3 -0.68
38 0.15
4 -0.81
43 0.4
44 0.15
5 0.27
51 0.15
52 0.15
53 0.15
54 0.15
6 0.42
7 0.27
8 0.27
9 -0.14

>  <PUBCHEM_EFFECTIVE_ROTOR_COUNT>  (1) 
9

>  <PUBCHEM_PHARMACOPHORE_FEATURES>  (1) 
9
1 1 hydrophobe
1 20 hydrophobe
1 21 hydrophobe
1 3 acceptor
1 3 donor
1 4 cation
5 2 12 13 19 24 rings
6 17 18 22 23 25 26 rings
6 9 12 13 14 17 18 rings

>  <PUBCHEM_HEAVY_ATOM_COUNT>  (1) 
26

>  <PUBCHEM_ATOM_DEF_STEREO_COUNT>  (1) 
0

>  <PUBCHEM_ATOM_UDEF_STEREO_COUNT>  (1) 
1

>  <PUBCHEM_BOND_DEF_STEREO_COUNT>  (1) 
0

>  <PUBCHEM_BOND_UDEF_STEREO_COUNT>  (1) 
0

>  <PUBCHEM_ISOTOPIC_ATOM_COUNT>  (1) 
0

>  <PUBCHEM_COMPONENT_COUNT>  (1) 
1

>  <PUBCHEM_CACTVS_TAUTO_COUNT>  (1) 
1

>  <PUBCHEM_CONFORMER_ID>  (1) 
000092FD00000001

>  <PUBCHEM_MMFF94_ENERGY>  (1) 
55.1456

>  <PUBCHEM_FEATURE_SELFOVERLAP>  (1) 
45.752

>  <PUBCHEM_SHAPE_FINGERPRINT>  (1) 
10319926 262 17415276131310102614
11135609 187 18260826042009205137
11578080 2 18188196607520657997
11763715 3 17970929785783152732
12107183 9 17834959663770681944
12236239 1 18410859871086319148
12553582 1 17846487175709865071
12788726 201 18131357405577493993
13004483 165 18201710735518393955
13140716 1 17774159162605716655
13533116 47 18408881823982665755
13540713 5 18269560446732678168
13631057 29 18120936371624387230
13726171 33 17560537131003915832
14178342 30 17840864079756294222
14787075 74 18340204197307381168
15475509 35 18119254102635332939
15685185 35 17831587840241752676
15849732 13 8430051836426297020
15927050 60 16765624574806141509
16087824 20 17988655073903684873
16728300 4 18267856182789228839
17492 89 18199470952501658694
17780758 139 17910937064075447458
18681886 176 16916505990346608436
19319366 153 18338230587448387246
19377110 9 18413384333173139856
20642791 35 17773591809493730832
21065198 48 18340771455339931672
21267235 1 17845380019536278029
21792964 463 18042990742739093709
21814621 53 17531248302051201361
2297311 6 17489318524024170285
23366157 5 17982158226628921305
23557571 272 17131567067278206989
23559900 14 17346320452942279765
2838139 119 11167675248496863691
312423 11 18340488851040010218
335352 9 17989207088780088797
3633792 109 18187920647439236263
3886686 26 17119732774668413907
5104073 3 18059006177420789643
5486654 2 18201442535642082364
56633871 153 17546442280714540762
6058803 2 18196660601223947880
7097593 13 17981323383454003930

>  <PUBCHEM_SHAPE_MULTIPOLES>  (1) 
534.01
15.6
4.37
1.62
1.17
3.96
-0.19
1.73
2.39
7.48
-3.16
0.11
-0.09
-5.24

>  <PUBCHEM_SHAPE_SELFOVERLAP>  (1) 
1096.015

>  <PUBCHEM_SHAPE_VOLUME>  (1) 
315.8

>  <PUBCHEM_COORDINATE_TYPE>  (1) 
2
5
10

$$$$
