37627
     RDKit          3D

 25 27  0  0  1  0  0  0  0  0999 V2000
   -0.7834    2.6668   -1.1137 S   0  0  0  0  0  0  0  0  0  0  0  0
    0.7162   -0.0249    2.1817 O   0  0  0  0  0  0  0  0  0  0  0  0
    2.8252   -0.2970    0.2376 N   0  0  0  0  0  0  0  0  0  0  0  0
    1.4108   -0.3762   -0.1205 C   0  0  0  0  0  0  0  0  0  0  0  0
    0.5411    0.4519    0.8428 C   0  0  0  0  0  0  0  0  0  0  0  0
    3.2964    1.0859    0.1613 C   0  0  0  0  0  0  0  0  0  0  0  0
    3.6239   -1.1568   -0.6358 C   0  0  0  0  0  0  0  0  0  0  0  0
   -0.9123    0.3789    0.4907 C   0  0  0  0  0  0  0  0  0  0  0  0
    4.7580    1.1734    0.5972 C   0  0  0  0  0  0  0  0  0  0  0  0
    3.1305   -2.6003   -0.5547 C   0  0  0  0  0  0  0  0  0  0  0  0
   -1.5373    1.3142   -0.3537 C   0  0  0  0  0  0  0  0  0  0  0  0
   -2.8979    1.2298   -0.6708 C   0  0  0  0  0  0  0  0  0  0  0  0
   -1.6673   -0.6635    1.0284 C   0  0  0  0  0  0  0  0  0  0  0  0
    5.2772    2.6087    0.5046 C   0  0  0  0  0  0  0  0  0  0  0  0
    3.9388   -3.5133   -1.4774 C   0  0  0  0  0  0  0  0  0  0  0  0
   -3.6576    0.1501   -0.1075 C   0  0  0  0  0  0  0  0  0  0  0  0
   -3.0264   -0.7922    0.7433 C   0  0  0  0  0  0  0  0  0  0  0  0
   -3.2751    2.3097   -1.5496 C   0  0  0  0  0  0  0  0  0  0  0  0
    6.7210    2.7102    0.9704 C   0  0  0  0  0  0  0  0  0  0  0  0
    3.4770   -4.9583   -1.3760 C   0  0  0  0  0  0  0  0  0  0  0  0
   -5.0340    0.0075   -0.3871 C   0  0  0  0  0  0  0  0  0  0  0  0
   -3.7831   -1.8426    1.2871 C   0  0  0  0  0  0  0  0  0  0  0  0
   -2.2327    3.1488   -1.8620 C   0  0  0  0  0  0  0  0  0  0  0  0
   -5.7662   -1.0443    0.1646 C   0  0  0  0  0  0  0  0  0  0  0  0
   -5.1426   -1.9666    0.9991 C   0  0  0  0  0  0  0  0  0  0  0  0
  1 11  1  0
  1 23  1  0
  2  5  1  0
  3  4  1  0
  3  6  1  0
  3  7  1  0
  4  5  1  0
  5  8  1  0
  6  9  1  0
  7 10  1  0
  8 11  2  0
  8 13  1  0
  9 14  1  0
 10 15  1  0
 11 12  1  0
 12 16  2  0
 12 18  1  0
 13 17  2  0
 14 19  1  0
 15 20  1  0
 16 17  1  0
 16 21  1  0
 17 22  1  0
 18 23  2  0
 21 24  2  0
 22 25  2  0
 24 25  1  0
M  END
>  <PUBCHEM_COMPOUND_CID>  (1) 
37627

>  <PUBCHEM_CONFORMER_RMSD>  (1) 
1

>  <PUBCHEM_CONFORMER_DIVERSEORDER>  (1) 
1
9
41
16
36
10
8
19
39
29
27
24
47
18
35
44
15
4
11
14
40
17
6
49
7
3
5
38
42
26
28
34
20
31
43
21
46
37
22
33
23
25
32
12
30
45
2
13
48

>  <PUBCHEM_MMFF94_PARTIAL_CHARGES>  (1) 
24
1 -0.08
11 0.04
13 -0.15
18 -0.15
2 -0.68
21 -0.15
22 -0.15
23 -0.11
24 -0.15
25 -0.15
3 -0.81
37 0.15
4 0.27
42 0.4
43 0.15
5 0.42
50 0.15
51 0.15
52 0.15
53 0.15
54 0.15
6 0.27
7 0.27
8 -0.14

>  <PUBCHEM_EFFECTIVE_ROTOR_COUNT>  (1) 
9

>  <PUBCHEM_PHARMACOPHORE_FEATURES>  (1) 
8
1 19 hydrophobe
1 2 acceptor
1 2 donor
1 20 hydrophobe
1 3 cation
5 1 11 12 18 23 rings
6 16 17 21 22 24 25 rings
6 8 11 12 13 16 17 rings

>  <PUBCHEM_HEAVY_ATOM_COUNT>  (1) 
25

>  <PUBCHEM_ATOM_DEF_STEREO_COUNT>  (1) 
0

>  <PUBCHEM_ATOM_UDEF_STEREO_COUNT>  (1) 
1

>  <PUBCHEM_BOND_DEF_STEREO_COUNT>  (1) 
0

>  <PUBCHEM_BOND_UDEF_STEREO_COUNT>  (1) 
0

>  <PUBCHEM_ISOTOPIC_ATOM_COUNT>  (1) 
0

>  <PUBCHEM_COMPONENT_COUNT>  (1) 
1

>  <PUBCHEM_CACTVS_TAUTO_COUNT>  (1) 
1

>  <PUBCHEM_CONFORMER_ID>  (1) 
000092FB00000001

>  <PUBCHEM_MMFF94_ENERGY>  (1) 
54.2416

>  <PUBCHEM_FEATURE_SELFOVERLAP>  (1) 
40.677

>  <PUBCHEM_SHAPE_FINGERPRINT>  (1) 
10369192 42 18269834384501181316
11719270 70 18271803554149760778
11991303 11 18055360399760437670
12166972 35 15719664467919376244
12236239 1 15267068093909363449
12553582 1 17894904153734306283
12623949 98 18200892737343492359
13383668 1 18042387153836447610
13402501 40 18261950876996734992
13540713 4 18335420106335278476
13911987 19 18127985311375564504
14415361 349 18128817628423624687
14659021 117 16468684387737004022
14910302 57 18261678056315445623
15475509 8 18262243210525729013
15961568 22 17895197761609403076
17349148 13 15646767890474342248
17909252 39 18338529542973446302
19315958 150 18342183271889400499
19319366 153 17917427674967369358
20693207 138 18265344910445792966
21033650 10 17241902990337155204
21703447 108 18334572391835264010
22393880 68 18044096752578015118
2260408 40 18052854526313095539
23402539 116 17895466059077166777
23557571 272 18259703389076643236
23559900 14 18194675961192241114
335352 9 17895746427128428909
44062 13 17975421213252010439
46194498 28 18411139104770505302
469060 322 18125417938084730527
5104073 3 18335137553311493976
59554788 281 16660361498028596752
621550 34 18412263965115790604
6669772 16 18059863909204096358
7399639 24 18410855490731081228
9709674 26 18336544898098315294

>  <PUBCHEM_SHAPE_MULTIPOLES>  (1) 
507.49
13.53
4.61
1.55
6.82
3.8
0.12
-0.16
-2
6.63
2.85
-0.07
0.01
5.46

>  <PUBCHEM_SHAPE_SELFOVERLAP>  (1) 
1054.295

>  <PUBCHEM_SHAPE_VOLUME>  (1) 
292.4

>  <PUBCHEM_COORDINATE_TYPE>  (1) 
2
5
10

$$$$
