37625
     RDKit          3D

 32 35  0  0  1  0  0  0  0  0999 V2000
   -2.5235   -0.6206   -1.1440 S   0  0  0  0  0  0  0  0  0  0  0  0
   -3.1353    2.3591    2.0433 O   0  0  0  0  0  0  0  0  0  0  0  0
   -6.7926    0.1641    1.1672 O   0  0  0  0  0  0  0  0  0  0  0  0
   -6.4209    1.6974   -0.4780 O   0  0  0  0  0  0  0  0  0  0  0  0
    0.6661    1.1109   -1.4367 O   0  0  0  0  0  0  0  0  0  0  0  0
    3.8777    0.0221    2.1175 O   0  0  0  0  0  0  0  0  0  0  0  0
    4.6190    1.1245   -1.9994 O   0  0  0  0  0  0  0  0  0  0  0  0
   -3.7378    1.3741   -0.0151 N   0  0  0  0  0  0  0  0  0  0  0  0
   -0.6079    1.1434    0.5019 N   0  0  0  0  0  0  0  0  0  0  0  0
    2.8468    0.3202    0.0723 N   0  0  0  0  0  0  0  0  0  0  0  0
    5.1547    0.6935    0.2910 N   0  0  0  0  0  0  0  0  0  0  0  0
    6.7867    1.3663   -1.1582 N   0  0  0  0  0  0  0  0  0  0  0  0
   -2.6802    1.1981   -1.0146 C   0  0  0  0  0  0  0  0  0  0  0  0
   -4.3333   -0.8422   -0.7632 C   0  0  0  0  0  0  0  0  0  0  0  0
   -4.6266    0.2661    0.2709 C   0  0  0  0  0  0  0  0  0  0  0  0
   -1.7299    1.9062   -0.0393 C   0  0  0  0  0  0  0  0  0  0  0  0
   -2.9475    2.0055    0.9013 C   0  0  0  0  0  0  0  0  0  0  0  0
   -5.1124   -0.7083   -2.0787 C   0  0  0  0  0  0  0  0  0  0  0  0
   -4.5490   -2.2338   -0.1655 C   0  0  0  0  0  0  0  0  0  0  0  0
   -6.0221    0.8036    0.2536 C   0  0  0  0  0  0  0  0  0  0  0  0
    0.5154    0.8040   -0.2556 C   0  0  0  0  0  0  0  0  0  0  0  0
    1.5214   -0.0352    0.5217 C   0  0  0  0  0  0  0  0  0  0  0  0
    1.2531   -1.5145    0.3722 C   0  0  0  0  0  0  0  0  0  0  0  0
    3.9461    0.3214    0.9230 C   0  0  0  0  0  0  0  0  0  0  0  0
    0.4078   -2.1644    1.2716 C   0  0  0  0  0  0  0  0  0  0  0  0
    1.8503   -2.2305   -0.6654 C   0  0  0  0  0  0  0  0  0  0  0  0
    6.4084    0.6582    1.0286 C   0  0  0  0  0  0  0  0  0  0  0  0
    7.4304    1.3143    0.1236 C   0  0  0  0  0  0  0  0  0  0  0  0
    5.4165    1.0687   -1.0723 C   0  0  0  0  0  0  0  0  0  0  0  0
    0.1598   -3.5301    1.1336 C   0  0  0  0  0  0  0  0  0  0  0  0
    1.6022   -3.5962   -0.8034 C   0  0  0  0  0  0  0  0  0  0  0  0
    0.7570   -4.2460    0.0961 C   0  0  0  0  0  0  0  0  0  0  0  0
  1 13  1  0
  1 14  1  0
  2 17  2  0
  3 20  1  0
  4 20  2  0
  5 21  2  0
  6 24  2  0
  7 29  2  0
  8 13  1  0
  8 15  1  0
  8 17  1  0
  9 16  1  0
  9 21  1  0
 10 22  1  0
 10 24  1  0
 11 24  1  0
 11 27  1  0
 11 29  1  0
 12 28  1  0
 12 29  1  0
 13 16  1  0
 14 15  1  0
 14 18  1  0
 14 19  1  0
 15 20  1  0
 16 17  1  0
 21 22  1  0
 22 23  1  0
 23 25  2  0
 23 26  1  0
 25 30  1  0
 26 31  2  0
 27 28  1  0
 30 32  2  0
 31 32  1  0
M  END
>  <PUBCHEM_COMPOUND_CID>  (1) 
37625

>  <PUBCHEM_CONFORMER_RMSD>  (1) 
1

>  <PUBCHEM_CONFORMER_DIVERSEORDER>  (1) 
1
34
41
143
76
171
102
112
56
156
111
57
13
87
65
134
114
155
68
166
153
42
98
72
108
74
150
110
146
122
15
106
145
151
163
55
81
7
96
154
11
66
45
82
80
23
168
109
130
92
147
22
116
99
97
85
12
157
133
50
33
44
91
14
67
103
71
119
162
126
2
170
39
115
18
141
101
19
88
62
48
152
138
24
123
59
89
27
140
75
84
46
124
63
161
53
137
105
139
49
118
149
28
128
5
159
30
142
73
6
69
31
17
79
107
132
167
9
60
100
164
148
37
21
129
158
144
32
77
165
113
52
10
169
95
125
120
104
136
43
61
25
160
127
16
78
29
35
64
20
47
40
135
93
83
26
121
117
70
131
4
3
94
38
36
86
54
8
90
51
58

>  <PUBCHEM_MMFF94_PARTIAL_CHARGES>  (1) 
39
1 -0.45
10 -0.73
11 -0.42
12 -0.73
13 0.44
14 0.23
15 0.36
16 0.28
17 0.58
2 -0.57
20 0.66
21 0.57
22 0.5
23 -0.14
24 0.69
25 -0.15
26 -0.15
27 0.3
28 0.3
29 0.69
3 -0.65
30 -0.15
31 -0.15
32 -0.15
4 -0.57
42 0.37
44 0.5
45 0.37
46 0.15
47 0.15
5 -0.57
52 0.37
53 0.15
54 0.15
55 0.15
6 -0.57
7 -0.57
8 -0.59
9 -0.65

>  <PUBCHEM_EFFECTIVE_ROTOR_COUNT>  (1) 
9.6

>  <PUBCHEM_PHARMACOPHORE_FEATURES>  (1) 
15
1 10 donor
1 12 donor
1 2 acceptor
1 3 acceptor
1 4 acceptor
1 5 acceptor
1 6 acceptor
1 7 acceptor
1 9 donor
3 14 18 19 hydrophobe
3 3 4 20 anion
4 8 13 16 17 rings
5 11 12 27 28 29 rings
6 23 25 26 30 31 32 rings
7 1 8 13 14 15 16 17 rings

>  <PUBCHEM_HEAVY_ATOM_COUNT>  (1) 
32

>  <PUBCHEM_ATOM_DEF_STEREO_COUNT>  (1) 
3

>  <PUBCHEM_ATOM_UDEF_STEREO_COUNT>  (1) 
1

>  <PUBCHEM_BOND_DEF_STEREO_COUNT>  (1) 
0

>  <PUBCHEM_BOND_UDEF_STEREO_COUNT>  (1) 
0

>  <PUBCHEM_ISOTOPIC_ATOM_COUNT>  (1) 
0

>  <PUBCHEM_COMPONENT_COUNT>  (1) 
1

>  <PUBCHEM_CACTVS_TAUTO_COUNT>  (1) 
8

>  <PUBCHEM_CONFORMER_ID>  (1) 
000092F900000001

>  <PUBCHEM_MMFF94_ENERGY>  (1) 
85.5304

>  <PUBCHEM_FEATURE_SELFOVERLAP>  (1) 
79.913

>  <PUBCHEM_SHAPE_FINGERPRINT>  (1) 
10906281 52 18187091641446997393
11135926 11 18335693928007412927
11421498 54 18200313212794511504
11488393 25 18044644305437644674
11578080 2 17972306322775354709
11991303 11 17894917386107357178
12166972 35 10809352130764649447
13631057 29 18271520992287536271
13782708 43 14045164346688991333
14840074 17 17967249814753825404
15131766 46 14202831055244456214
15297060 5 18341615944800257026
15537594 2 18273496763206365271
15629462 23 16629704863568227242
18681886 176 18335977687907062624
21365058 27 18342462551515980262
22224240 67 18410006654373787440
22956985 138 17755009805808901834
4258327 124 17823709757908215716
5486654 2 18411135861368336200
59755656 215 18131633374189892220
6009941 240 14548747239051688527

>  <PUBCHEM_SHAPE_MULTIPOLES>  (1) 
602.27
16.64
3.58
1.57
8.83
4.69
0.07
-10.62
1.19
0.02
-0.44
0.13
-0.21
-1.34

>  <PUBCHEM_SHAPE_SELFOVERLAP>  (1) 
1274.894

>  <PUBCHEM_SHAPE_VOLUME>  (1) 
339.4

>  <PUBCHEM_COORDINATE_TYPE>  (1) 
2
5
10

$$$$
