37634
     RDKit          3D

 24 27  0  0  1  0  0  0  0  0999 V2000
   -0.2081    0.4208   -0.7176 N   0  0  0  0  0  0  0  0  0  0  0  0
   -3.8011   -0.0409    0.1114 N   0  0  0  0  0  0  0  0  0  0  0  0
    2.1845    0.1144   -1.1074 C   0  0  0  0  0  0  0  0  0  0  0  0
    0.7381   -0.3152   -1.5553 C   0  0  0  0  0  0  0  0  0  0  0  0
    1.8593    1.3554   -0.2921 C   0  0  0  0  0  0  0  0  0  0  0  0
    0.4726    1.4649   -0.1168 C   0  0  0  0  0  0  0  0  0  0  0  0
   -1.6307    0.3905   -0.9418 C   0  0  0  0  0  0  0  0  0  0  0  0
   -2.3555   -0.0275    0.3342 C   0  0  0  0  0  0  0  0  0  0  0  0
    2.8615   -0.9615   -0.2452 C   0  0  0  0  0  0  0  0  0  0  0  0
    2.9772    0.5220   -2.3671 C   0  0  0  0  0  0  0  0  0  0  0  0
   -4.1514   -1.0155   -0.9313 C   0  0  0  0  0  0  0  0  0  0  0  0
   -4.5118   -0.3264    1.3658 C   0  0  0  0  0  0  0  0  0  0  0  0
   -5.6549   -1.0074   -1.2112 C   0  0  0  0  0  0  0  0  0  0  0  0
   -6.0272   -0.2956    1.1608 C   0  0  0  0  0  0  0  0  0  0  0  0
   -6.4574   -1.2586    0.0603 C   0  0  0  0  0  0  0  0  0  0  0  0
    2.7378    2.2844    0.2511 C   0  0  0  0  0  0  0  0  0  0  0  0
   -0.0483    2.5247    0.6122 C   0  0  0  0  0  0  0  0  0  0  0  0
    2.1941   -1.4819    0.8593 C   0  0  0  0  0  0  0  0  0  0  0  0
    4.1373   -1.4087   -0.5747 C   0  0  0  0  0  0  0  0  0  0  0  0
    2.2102    3.3493    0.9796 C   0  0  0  0  0  0  0  0  0  0  0  0
    0.8260    3.4691    1.1583 C   0  0  0  0  0  0  0  0  0  0  0  0
    2.8087   -2.4591    1.6423 C   0  0  0  0  0  0  0  0  0  0  0  0
    4.7517   -2.3859    0.2084 C   0  0  0  0  0  0  0  0  0  0  0  0
    4.0874   -2.9111    1.3168 C   0  0  0  0  0  0  0  0  0  0  0  0
  1  4  1  0
  1  6  1  0
  1  7  1  0
  2  8  1  0
  2 11  1  0
  2 12  1  0
  3  4  1  0
  3  5  1  0
  3  9  1  0
  3 10  1  0
  5  6  2  0
  5 16  1  0
  6 17  1  0
  7  8  1  0
  9 18  2  0
  9 19  1  0
 11 13  1  0
 12 14  1  0
 13 15  1  0
 14 15  1  0
 16 20  2  0
 17 21  2  0
 18 22  1  0
 19 23  2  0
 20 21  1  0
 22 24  2  0
 23 24  1  0
M  END
>  <PUBCHEM_COMPOUND_CID>  (1) 
37634

>  <PUBCHEM_CONFORMER_RMSD>  (1) 
0.8

>  <PUBCHEM_CONFORMER_DIVERSEORDER>  (1) 
1
27
36
33
38
2
39
10
12
6
16
11
15
37
29
41
3
32
4
40
20
19
28
26
23
30
24
35
31
22
5
8
9
13
21
17
25
7
34
18
14

>  <PUBCHEM_MMFF94_PARTIAL_CHARGES>  (1) 
29
1 -0.84
11 0.27
12 0.27
16 -0.15
17 -0.15
18 -0.15
19 -0.15
2 -0.81
20 -0.15
21 -0.15
22 -0.15
23 -0.15
24 -0.15
3 0.29
4 0.37
44 0.15
45 0.15
46 0.15
47 0.15
48 0.15
49 0.15
5 -0.14
50 0.15
51 0.15
52 0.15
6 0.1
7 0.37
8 0.27
9 -0.14

>  <PUBCHEM_EFFECTIVE_ROTOR_COUNT>  (1) 
5.8

>  <PUBCHEM_PHARMACOPHORE_FEATURES>  (1) 
6
1 1 cation
1 2 cation
5 1 3 4 5 6 rings
6 2 11 12 13 14 15 rings
6 5 6 16 17 20 21 rings
6 9 18 19 22 23 24 rings

>  <PUBCHEM_HEAVY_ATOM_COUNT>  (1) 
24

>  <PUBCHEM_ATOM_DEF_STEREO_COUNT>  (1) 
0

>  <PUBCHEM_ATOM_UDEF_STEREO_COUNT>  (1) 
1

>  <PUBCHEM_BOND_DEF_STEREO_COUNT>  (1) 
0

>  <PUBCHEM_BOND_UDEF_STEREO_COUNT>  (1) 
0

>  <PUBCHEM_ISOTOPIC_ATOM_COUNT>  (1) 
0

>  <PUBCHEM_COMPONENT_COUNT>  (1) 
1

>  <PUBCHEM_CACTVS_TAUTO_COUNT>  (1) 
1

>  <PUBCHEM_CONFORMER_ID>  (1) 
0000930200000001

>  <PUBCHEM_MMFF94_ENERGY>  (1) 
73.0039

>  <PUBCHEM_FEATURE_SELFOVERLAP>  (1) 
30.535

>  <PUBCHEM_SHAPE_FINGERPRINT>  (1) 
10074138 170 17550089377968803784
10382601 240 18129656547073774384
10462674 125 10804798113017651037
12107183 9 18200321996777831865
12553582 1 18272368629394530086
12616971 3 17988645220841862935
12633257 1 18201725059250521151
12644460 14 18200877391023961773
12788726 201 18196107559474929688
12824470 246 17897162412688278354
13533116 47 18336826485472247315
13583140 156 18266178529649612503
13631057 29 18189617130100443826
13955234 65 18338794653492133320
14251757 17 16515695407261453795
14739800 52 16772940575000708009
14787075 74 18408608067942692644
14910302 57 17677043655605828599
14950920 106 18196119783722111939
15142526 21 17552065625576436665
15188451 53 17203032059546747503
15420108 30 17058354015595358684
15475509 35 18259992599806484251
15961568 22 12103843462672213891
17349148 13 17703791436066471607
17980427 23 16486389092948687068
1813 80 18130508539545728150
18222031 100 18202280273355841038
18681886 176 16629691797634653701
19078846 21 18271816674525847921
19319366 153 18261115214274491246
20028762 73 18060133254534761239
20369508 70 18411698802905935359
20832881 197 18335137549506720915
21344244 78 17704066300756139921
21421861 104 18413102887860741176
23559900 14 17603867827734082759
244849 19 17971443335112445077
25222932 49 17981605180632779703
268830 7 18130792308794779393
2838139 119 11671768339323195562
314194 84 18334858285974651987
3411729 13 17987797556942420096
3421961 26 18410570703838791169
345986 75 18264198115317333747
34797466 226 10807942561907005931
376196 1 16767600371705959504
392239 28 18267562703425879570
394222 165 17700689829296245920
397830 11 11095604572357551023
4058900 60 17979081809509824256
4073 2 18121221150226948891
4340502 62 18041284374070011076
46194498 28 16008761233337553423
463206 1 18407759235685993163
508706 21 16661218082449513619
5104073 3 18059304266201517003
57527585 21 15361400522927935742
6086070 43 18341883062318637757
7471813 234 18411135792970652090
7970288 3 18340767018507762374
8863177 126 18187938338869146643
9841814 1 18272374186823663404

>  <PUBCHEM_SHAPE_MULTIPOLES>  (1) 
483.95
12.3
3.53
1.66
23.23
2.13
0.36
-9.92
-1.21
-5.28
-2.07
-0.5
-0.21
-1.11

>  <PUBCHEM_SHAPE_SELFOVERLAP>  (1) 
1040.055

>  <PUBCHEM_SHAPE_VOLUME>  (1) 
266

>  <PUBCHEM_COORDINATE_TYPE>  (1) 
2
5
10

$$$$
