37638
     RDKit          3D

 23 25  0  0  1  0  0  0  0  0999 V2000
   -0.0172   -2.3352    0.4768 O   0  0  0  0  0  0  0  0  0  0  0  0
   -1.0650   -0.3548   -0.2595 N   0  0  0  0  0  0  0  0  0  0  0  0
   -4.6656   -1.3000   -0.3245 N   0  0  0  0  0  0  0  0  0  0  0  0
    1.0824   -0.1399    0.7573 C   0  0  0  0  0  0  0  0  0  0  0  0
    0.5151    1.1942    0.3097 C   0  0  0  0  0  0  0  0  0  0  0  0
   -0.0449   -1.1217    0.3229 C   0  0  0  0  0  0  0  0  0  0  0  0
    1.2759   -0.2071    2.2695 C   0  0  0  0  0  0  0  0  0  0  0  0
   -0.7395    1.0076   -0.2737 C   0  0  0  0  0  0  0  0  0  0  0  0
    2.3507   -0.4827    0.0423 C   0  0  0  0  0  0  0  0  0  0  0  0
   -2.2962   -0.9013   -0.7792 C   0  0  0  0  0  0  0  0  0  0  0  0
    1.0643    2.4624    0.4168 C   0  0  0  0  0  0  0  0  0  0  0  0
   -0.0117    0.1066    3.0075 C   0  0  0  0  0  0  0  0  0  0  0  0
   -1.4788    2.0691   -0.7670 C   0  0  0  0  0  0  0  0  0  0  0  0
   -3.4271   -0.7690    0.2301 C   0  0  0  0  0  0  0  0  0  0  0  0
    2.3521   -0.6090   -1.3447 C   0  0  0  0  0  0  0  0  0  0  0  0
    3.5246   -0.6744    0.7667 C   0  0  0  0  0  0  0  0  0  0  0  0
    0.3314    3.5444   -0.0765 C   0  0  0  0  0  0  0  0  0  0  0  0
   -0.9296    3.3488   -0.6639 C   0  0  0  0  0  0  0  0  0  0  0  0
    3.5348   -0.9290   -2.0113 C   0  0  0  0  0  0  0  0  0  0  0  0
    4.7072   -0.9943    0.1000 C   0  0  0  0  0  0  0  0  0  0  0  0
    4.7125   -1.1216   -1.2890 C   0  0  0  0  0  0  0  0  0  0  0  0
   -5.0212   -0.5978   -1.5594 C   0  0  0  0  0  0  0  0  0  0  0  0
   -5.7542   -1.1953    0.6493 C   0  0  0  0  0  0  0  0  0  0  0  0
  1  6  2  0
  2  6  1  0
  2  8  1  0
  2 10  1  0
  3 14  1  0
  3 22  1  0
  3 23  1  0
  4  5  1  0
  4  6  1  0
  4  7  1  0
  4  9  1  0
  5  8  2  0
  5 11  1  0
  7 12  1  0
  8 13  1  0
  9 15  2  0
  9 16  1  0
 10 14  1  0
 11 17  2  0
 13 18  2  0
 15 19  1  0
 16 20  2  0
 17 18  1  0
 19 21  2  0
 20 21  1  0
M  END
>  <PUBCHEM_COMPOUND_CID>  (1) 
37638

>  <PUBCHEM_CONFORMER_RMSD>  (1) 
0.8

>  <PUBCHEM_CONFORMER_DIVERSEORDER>  (1) 
2
17
19
8
18
9
14
20
3
10
12
11
13
6
16
15
5
4
1
7

>  <PUBCHEM_MMFF94_PARTIAL_CHARGES>  (1) 
30
1 -0.57
10 0.3
11 -0.15
13 -0.15
14 0.27
15 -0.15
16 -0.15
17 -0.15
18 -0.15
19 -0.15
2 -0.48
20 -0.15
21 -0.15
22 0.27
23 0.27
28 0.15
3 -0.81
32 0.15
35 0.15
36 0.15
37 0.15
38 0.15
39 0.15
4 0.35
40 0.15
41 0.15
5 -0.14
6 0.57
8 0.12
9 -0.14

>  <PUBCHEM_EFFECTIVE_ROTOR_COUNT>  (1) 
5.4

>  <PUBCHEM_PHARMACOPHORE_FEATURES>  (1) 
6
1 1 acceptor
1 12 hydrophobe
1 3 cation
5 2 4 5 6 8 rings
6 5 8 11 13 17 18 rings
6 9 15 16 19 20 21 rings

>  <PUBCHEM_HEAVY_ATOM_COUNT>  (1) 
23

>  <PUBCHEM_ATOM_DEF_STEREO_COUNT>  (1) 
0

>  <PUBCHEM_ATOM_UDEF_STEREO_COUNT>  (1) 
1

>  <PUBCHEM_BOND_DEF_STEREO_COUNT>  (1) 
0

>  <PUBCHEM_BOND_UDEF_STEREO_COUNT>  (1) 
0

>  <PUBCHEM_ISOTOPIC_ATOM_COUNT>  (1) 
0

>  <PUBCHEM_COMPONENT_COUNT>  (1) 
1

>  <PUBCHEM_CACTVS_TAUTO_COUNT>  (1) 
1

>  <PUBCHEM_CONFORMER_ID>  (1) 
0000930600000002

>  <PUBCHEM_MMFF94_ENERGY>  (1) 
72.0184

>  <PUBCHEM_FEATURE_SELFOVERLAP>  (1) 
30.531

>  <PUBCHEM_SHAPE_FINGERPRINT>  (1) 
10366900 7 17531240704327966563
10764073 3 11936559708914223561
10906281 52 18045225100816845520
11140007 195 17704072897852110817
11315181 36 17531826697028818438
11421498 54 17385721353481575953
11578080 2 17846487111069818800
11582403 64 12179839549956365528
11640471 11 17389953249362513612
12236239 1 17458339707076728654
12553582 1 18337098025836453639
12617007 42 18339926012275684380
12788726 201 18260549974691778130
13009979 54 17987815110757972057
13149001 5 18042977668557021810
13583140 156 17628041562050844586
14022347 108 18334288790464249730
14347329 18 16372383932869402167
15081414 286 18266458892008760509
15238133 3 17751334245837042149
15848702 105 17385444323463655254
1601671 61 18337952290794662421
16752209 62 18187921733781242026
16945 1 17967824833744514250
17357779 13 18200859713233925565
17492 54 18191041168902925884
17492 89 18193275183510979446
1813 80 18271815626453217895
18222031 100 18341600547548124895
19141452 34 17632574976692337703
19784866 140 18113898234565090603
20567600 254 8502377698184327007
20600515 1 17988096567937888190
21033648 29 17703493434208535139
21285901 2 18201728314324048366
21330990 113 17702121174233704031
21503847 285 18410576223710406721
21524375 3 17320998429914718980
22182313 1 18193530407103985229
22620623 9 18198914603786039748
229495 10 14045181775945631514
23352939 185 18200887256922627976
23402539 116 18337110064650487358
23419403 2 17245588750639519032
23557571 272 18342736283056513304
23559900 14 18268140041451215343
23566358 2 18336536205222327652
266924 1 17460022990210659618
2748010 2 18193808574924190341
484985 159 16554276029177210942
57262259 84 18057055622481860316
57527293 21 17843937404435888466
6442390 28 17264142661614133329
6823239 73 18188766279640378219
7164475 11 18190461554655795654
7495541 125 18115878558444808363

>  <PUBCHEM_SHAPE_MULTIPOLES>  (1) 
457.5
8.74
2.88
1.87
6.75
3.71
-1.03
-7.31
3.19
0.76
0.5
-0.72
-0.34
0.65

>  <PUBCHEM_SHAPE_SELFOVERLAP>  (1) 
986.565

>  <PUBCHEM_SHAPE_VOLUME>  (1) 
254.8

>  <PUBCHEM_COORDINATE_TYPE>  (1) 
2
5
10

$$$$
