37640
     RDKit          3D

 25 27  0  0  1  0  0  0  0  0999 V2000
   -0.2006   -1.0884   -2.1205 O   0  0  0  0  0  0  0  0  0  0  0  0
    0.6639    0.5390   -0.6486 N   0  0  0  0  0  0  0  0  0  0  0  0
    4.0901   -0.8354   -0.1645 N   0  0  0  0  0  0  0  0  0  0  0  0
   -1.7093    0.3278   -0.7694 C   0  0  0  0  0  0  0  0  0  0  0  0
   -1.2700    1.3913    0.2195 C   0  0  0  0  0  0  0  0  0  0  0  0
   -0.3408   -0.1969   -1.2943 C   0  0  0  0  0  0  0  0  0  0  0  0
   -2.5194    0.9114   -1.9234 C   0  0  0  0  0  0  0  0  0  0  0  0
    0.1235    1.4719    0.2459 C   0  0  0  0  0  0  0  0  0  0  0  0
   -2.4541   -0.7870   -0.1060 C   0  0  0  0  0  0  0  0  0  0  0  0
    2.0779    0.3575   -0.8773 C   0  0  0  0  0  0  0  0  0  0  0  0
   -2.0420    2.2179    1.0208 C   0  0  0  0  0  0  0  0  0  0  0  0
    2.6700   -0.6458    0.1017 C   0  0  0  0  0  0  0  0  0  0  0  0
   -1.7619    2.0217   -2.6264 C   0  0  0  0  0  0  0  0  0  0  0  0
    0.7862    2.3686    1.0665 C   0  0  0  0  0  0  0  0  0  0  0  0
   -1.8330   -1.5416    0.8863 C   0  0  0  0  0  0  0  0  0  0  0  0
   -3.7652   -1.0659   -0.4836 C   0  0  0  0  0  0  0  0  0  0  0  0
   -1.3890    3.1283    1.8550 C   0  0  0  0  0  0  0  0  0  0  0  0
    0.0136    3.2023    1.8777 C   0  0  0  0  0  0  0  0  0  0  0  0
    4.6670   -1.8001    0.7740 C   0  0  0  0  0  0  0  0  0  0  0  0
    4.8055    0.4396   -0.0843 C   0  0  0  0  0  0  0  0  0  0  0  0
   -2.5274   -2.5815    1.5046 C   0  0  0  0  0  0  0  0  0  0  0  0
   -4.4597   -2.1056    0.1347 C   0  0  0  0  0  0  0  0  0  0  0  0
   -3.8407   -2.8634    1.1288 C   0  0  0  0  0  0  0  0  0  0  0  0
    3.9397   -3.1324    0.7082 C   0  0  0  0  0  0  0  0  0  0  0  0
    6.2758    0.2668   -0.4254 C   0  0  0  0  0  0  0  0  0  0  0  0
  1  6  2  0
  2  6  1  0
  2  8  1  0
  2 10  1  0
  3 12  1  0
  3 19  1  0
  3 20  1  0
  4  5  1  0
  4  6  1  0
  4  7  1  0
  4  9  1  0
  5  8  2  0
  5 11  1  0
  7 13  1  0
  8 14  1  0
  9 15  2  0
  9 16  1  0
 10 12  1  0
 11 17  2  0
 14 18  2  0
 15 21  1  0
 16 22  2  0
 17 18  1  0
 19 24  1  0
 20 25  1  0
 21 23  2  0
 22 23  1  0
M  END
>  <PUBCHEM_COMPOUND_CID>  (1) 
37640

>  <PUBCHEM_CONFORMER_RMSD>  (1) 
0.8

>  <PUBCHEM_CONFORMER_DIVERSEORDER>  (1) 
1
41
25
33
31
50
20
46
44
9
48
45
34
52
7
11
29
17
43
23
37
51
15
24
35
40
32
26
47
13
36
21
49
27
38
28
19
5
42
30
12
22
39
3
10
8
18
14
6
16
2
4

>  <PUBCHEM_MMFF94_PARTIAL_CHARGES>  (1) 
30
1 -0.57
10 0.3
11 -0.15
12 0.27
14 -0.15
15 -0.15
16 -0.15
17 -0.15
18 -0.15
19 0.27
2 -0.48
20 0.27
21 -0.15
22 -0.15
23 -0.15
3 -0.81
30 0.15
36 0.15
37 0.15
38 0.15
39 0.15
4 0.35
40 0.15
45 0.15
46 0.15
47 0.15
5 -0.14
6 0.57
8 0.12
9 -0.14

>  <PUBCHEM_EFFECTIVE_ROTOR_COUNT>  (1) 
7.4

>  <PUBCHEM_PHARMACOPHORE_FEATURES>  (1) 
6
1 1 acceptor
1 13 hydrophobe
1 3 cation
5 2 4 5 6 8 rings
6 5 8 11 14 17 18 rings
6 9 15 16 21 22 23 rings

>  <PUBCHEM_HEAVY_ATOM_COUNT>  (1) 
25

>  <PUBCHEM_ATOM_DEF_STEREO_COUNT>  (1) 
0

>  <PUBCHEM_ATOM_UDEF_STEREO_COUNT>  (1) 
1

>  <PUBCHEM_BOND_DEF_STEREO_COUNT>  (1) 
0

>  <PUBCHEM_BOND_UDEF_STEREO_COUNT>  (1) 
0

>  <PUBCHEM_ISOTOPIC_ATOM_COUNT>  (1) 
0

>  <PUBCHEM_COMPONENT_COUNT>  (1) 
1

>  <PUBCHEM_CACTVS_TAUTO_COUNT>  (1) 
1

>  <PUBCHEM_CONFORMER_ID>  (1) 
0000930800000001

>  <PUBCHEM_MMFF94_ENERGY>  (1) 
70.1059

>  <PUBCHEM_FEATURE_SELFOVERLAP>  (1) 
30.531

>  <PUBCHEM_SHAPE_FINGERPRINT>  (1) 
10906281 52 17916879997617394369
11578080 2 18261383494574027245
12082328 90 18200889383938573558
12293681 25 17757521403862132543
12293681 4 18202005396345871049
12553582 1 17917699228411065486
12596599 1 18044092355006108602
12633257 1 18128840653958952147
12788726 201 18343024354538566650
12824470 246 18260550021777948306
13134695 92 18054796345557367277
13140716 1 18060146435509486161
13544653 18 18335426806516168514
13583140 156 18335973221377938892
13631057 29 18334299811988725370
14787075 74 18265616674854751406
14840074 17 17488464255556347440
15420108 30 15105199744847509808
16945 1 17548415260347114909
17492 54 9655013261581076587
20101258 96 18060421322117102008
20600515 1 18192455123760915231
20681651 13 18041838399002205130
20775530 9 17753335558273045899
21033648 29 15769505235364175211
21033650 10 15069457121794845502
23419403 2 18268414906193715437
23558518 356 17552356575160700974
23559900 14 17969777669158278541
23598288 3 18129944460343046524
376196 1 16479952272601927785
392239 28 18270396239258288090
463206 1 18265335194998563603
484985 159 18192995915614449546
497634 4 18261684709662691124
5104073 3 18272084938953121170
57527295 17 18196908077350014663
7226269 152 18341614759837727865
9981440 41 17343210827631317862

>  <PUBCHEM_SHAPE_MULTIPOLES>  (1) 
498.66
9.26
3.85
1.94
14.46
0.17
-0.63
-7.42
0.2
-1.88
2.58
-1.38
1.21
0.42

>  <PUBCHEM_SHAPE_SELFOVERLAP>  (1) 
1064.324

>  <PUBCHEM_SHAPE_VOLUME>  (1) 
280.2

>  <PUBCHEM_COORDINATE_TYPE>  (1) 
2
5
10

$$$$
