37646
     RDKit          3D

 26 28  0  0  1  0  0  0  0  0999 V2000
    0.1159    1.3595    1.4781 O   0  0  0  0  0  0  0  0  0  0  0  0
    0.3875   -0.7182    0.3956 N   0  0  0  0  0  0  0  0  0  0  0  0
    4.5287    0.5261   -0.0892 N   0  0  0  0  0  0  0  0  0  0  0  0
   -1.8447   -0.0004    0.8353 C   0  0  0  0  0  0  0  0  0  0  0  0
   -1.7944   -1.3385    0.1221 C   0  0  0  0  0  0  0  0  0  0  0  0
   -0.3318    0.3426    0.9659 C   0  0  0  0  0  0  0  0  0  0  0  0
   -2.4743   -0.1077    2.2211 C   0  0  0  0  0  0  0  0  0  0  0  0
   -0.4675   -1.7081   -0.1060 C   0  0  0  0  0  0  0  0  0  0  0  0
   -2.5299    1.0492    0.0190 C   0  0  0  0  0  0  0  0  0  0  0  0
    1.8286   -0.7817    0.3333 C   0  0  0  0  0  0  0  0  0  0  0  0
    2.3788   -0.2962   -1.0064 C   0  0  0  0  0  0  0  0  0  0  0  0
   -2.8368   -2.1574   -0.2832 C   0  0  0  0  0  0  0  0  0  0  0  0
   -1.7679   -1.1461    3.0719 C   0  0  0  0  0  0  0  0  0  0  0  0
   -0.1402   -2.8933   -0.7421 C   0  0  0  0  0  0  0  0  0  0  0  0
    3.9068   -0.3132   -1.1062 C   0  0  0  0  0  0  0  0  0  0  0  0
   -3.6725    1.6747    0.5120 C   0  0  0  0  0  0  0  0  0  0  0  0
   -2.0222    1.3969   -1.2305 C   0  0  0  0  0  0  0  0  0  0  0  0
   -2.5238   -3.3569   -0.9270 C   0  0  0  0  0  0  0  0  0  0  0  0
   -1.1863   -3.7212   -1.1548 C   0  0  0  0  0  0  0  0  0  0  0  0
   -4.3113    2.6536   -0.2491 C   0  0  0  0  0  0  0  0  0  0  0  0
   -2.6610    2.3760   -1.9915 C   0  0  0  0  0  0  0  0  0  0  0  0
    5.9879    0.4424   -0.1729 C   0  0  0  0  0  0  0  0  0  0  0  0
    4.0912    1.9162   -0.2297 C   0  0  0  0  0  0  0  0  0  0  0  0
   -3.8055    3.0043   -1.5008 C   0  0  0  0  0  0  0  0  0  0  0  0
    6.4647   -0.9929   -0.0294 C   0  0  0  0  0  0  0  0  0  0  0  0
    4.6798    2.7903    0.8647 C   0  0  0  0  0  0  0  0  0  0  0  0
  1  6  2  0
  2  6  1  0
  2  8  1  0
  2 10  1  0
  3 15  1  0
  3 22  1  0
  3 23  1  0
  4  5  1  0
  4  6  1  0
  4  7  1  0
  4  9  1  0
  5  8  2  0
  5 12  1  0
  7 13  1  0
  8 14  1  0
  9 16  2  0
  9 17  1  0
 10 11  1  0
 11 15  1  0
 12 18  2  0
 14 19  2  0
 16 20  1  0
 17 21  2  0
 18 19  1  0
 20 24  2  0
 21 24  1  0
 22 25  1  0
 23 26  1  0
M  END
>  <PUBCHEM_COMPOUND_CID>  (1) 
37646

>  <PUBCHEM_CONFORMER_RMSD>  (1) 
1

>  <PUBCHEM_CONFORMER_DIVERSEORDER>  (1) 
1
99
88
43
78
92
60
93
87
76
72
100
96
74
14
70
83
45
75
82
22
48
52
51
90
58
81
47
46
39
66
94
67
57
40
85
53
28
20
73
18
32
59
23
62
68
64
65
77
91
50
29
33
80
36
97
31
79
35
89
27
55
21
56
16
11
41
71
63
12
42
61
30
4
84
34
69
19
24
2
49
13
5
7
54
6
86
8
10
9
25
15
26
95
37
98
44
38
3
17

>  <PUBCHEM_MMFF94_PARTIAL_CHARGES>  (1) 
30
1 -0.57
10 0.3
12 -0.15
14 -0.15
15 0.27
16 -0.15
17 -0.15
18 -0.15
19 -0.15
2 -0.48
20 -0.15
21 -0.15
22 0.27
23 0.27
24 -0.15
3 -0.81
33 0.15
34 0.15
4 0.35
40 0.15
41 0.15
42 0.15
43 0.15
44 0.15
45 0.15
5 -0.14
50 0.15
6 0.57
8 0.12
9 -0.14

>  <PUBCHEM_EFFECTIVE_ROTOR_COUNT>  (1) 
8.4

>  <PUBCHEM_PHARMACOPHORE_FEATURES>  (1) 
6
1 1 acceptor
1 13 hydrophobe
1 3 cation
5 2 4 5 6 8 rings
6 5 8 12 14 18 19 rings
6 9 16 17 20 21 24 rings

>  <PUBCHEM_HEAVY_ATOM_COUNT>  (1) 
26

>  <PUBCHEM_ATOM_DEF_STEREO_COUNT>  (1) 
0

>  <PUBCHEM_ATOM_UDEF_STEREO_COUNT>  (1) 
1

>  <PUBCHEM_BOND_DEF_STEREO_COUNT>  (1) 
0

>  <PUBCHEM_BOND_UDEF_STEREO_COUNT>  (1) 
0

>  <PUBCHEM_ISOTOPIC_ATOM_COUNT>  (1) 
0

>  <PUBCHEM_COMPONENT_COUNT>  (1) 
1

>  <PUBCHEM_CACTVS_TAUTO_COUNT>  (1) 
1

>  <PUBCHEM_CONFORMER_ID>  (1) 
0000930E00000001

>  <PUBCHEM_MMFF94_ENERGY>  (1) 
68.9367

>  <PUBCHEM_FEATURE_SELFOVERLAP>  (1) 
30.53

>  <PUBCHEM_SHAPE_FINGERPRINT>  (1) 
10165383 225 18342743966837681473
105312 117 18339361864147570766
107951 10 17822297833841321747
11578080 2 18270673285623232016
11582403 64 18042118757066178019
11725454 13 18042406829033241419
12107183 9 18265043640719247386
12173636 292 17773620267788297920
12403814 3 18263658409937739067
12422481 6 18046099092575383753
12969540 114 18342172211563006173
13583140 156 18186812365736343786
13911987 19 18271243811682451361
14468879 13 18260838055127456849
14713325 29 18334858329404145343
14790565 3 17987256451182208337
14910302 57 18127680737505131352
15463212 79 18261945323376868946
17492 54 18116126949636013637
20645477 56 18411145727108655822
21033648 29 18408318891863371272
22907989 373 18199456839296464565
23227448 37 18412262865219294692
23419403 2 17400125926774168259
23559900 14 17988933232790706462
2838139 119 18187920612837411597
376196 1 17898563177501664357
469060 322 18118699943730834483
497634 4 17701555119187784720
531348 171 18335137571129763366
559249 180 18410290281957723618
9862522 239 18187083923301219477
9981440 41 18266745675295257609

>  <PUBCHEM_SHAPE_MULTIPOLES>  (1) 
519.24
10.61
4.06
1.87
21.31
1.28
-1.1
-6.52
1.22
-3.83
1.9
-1.77
-0.03
1.39

>  <PUBCHEM_SHAPE_SELFOVERLAP>  (1) 
1102.015

>  <PUBCHEM_SHAPE_VOLUME>  (1) 
294.3

>  <PUBCHEM_COORDINATE_TYPE>  (1) 
2
5
10

$$$$
