37642
     RDKit          3D

 26 29  0  0  1  0  0  0  0  0999 V2000
   -0.5481    1.1693    2.0922 O   0  0  0  0  0  0  0  0  0  0  0  0
    0.2825   -0.5288    0.6821 N   0  0  0  0  0  0  0  0  0  0  0  0
    3.7668    0.7136    0.2173 N   0  0  0  0  0  0  0  0  0  0  0  0
   -2.0835   -0.2331    0.7571 C   0  0  0  0  0  0  0  0  0  0  0  0
   -1.6659   -1.3393   -0.1935 C   0  0  0  0  0  0  0  0  0  0  0  0
   -0.7061    0.2595    1.2895 C   0  0  0  0  0  0  0  0  0  0  0  0
   -0.2757   -1.4683   -0.1943 C   0  0  0  0  0  0  0  0  0  0  0  0
    1.6983   -0.3891    0.9291 C   0  0  0  0  0  0  0  0  0  0  0  0
   -2.9314   -0.7548    1.9137 C   0  0  0  0  0  0  0  0  0  0  0  0
    2.3400    0.5644   -0.0680 C   0  0  0  0  0  0  0  0  0  0  0  0
    4.4547   -0.5788    0.0885 C   0  0  0  0  0  0  0  0  0  0  0  0
    4.3649    1.7241   -0.6665 C   0  0  0  0  0  0  0  0  0  0  0  0
   -2.7787    0.8866    0.0497 C   0  0  0  0  0  0  0  0  0  0  0  0
    5.9395   -0.4501    0.4315 C   0  0  0  0  0  0  0  0  0  0  0  0
    5.8470    1.9282   -0.3480 C   0  0  0  0  0  0  0  0  0  0  0  0
    6.6164    0.6145   -0.4245 C   0  0  0  0  0  0  0  0  0  0  0  0
   -2.4534   -2.1623   -0.9835 C   0  0  0  0  0  0  0  0  0  0  0  0
    0.3683   -2.4108   -0.9777 C   0  0  0  0  0  0  0  0  0  0  0  0
   -2.2240   -1.8695    2.6607 C   0  0  0  0  0  0  0  0  0  0  0  0
   -2.1164    1.5903   -0.9532 C   0  0  0  0  0  0  0  0  0  0  0  0
   -4.0851    1.2211    0.3974 C   0  0  0  0  0  0  0  0  0  0  0  0
   -1.8193   -3.1183   -1.7804 C   0  0  0  0  0  0  0  0  0  0  0  0
   -0.4199   -3.2409   -1.7775 C   0  0  0  0  0  0  0  0  0  0  0  0
   -2.7645    2.6348   -1.6126 C   0  0  0  0  0  0  0  0  0  0  0  0
   -4.7334    2.2654   -0.2620 C   0  0  0  0  0  0  0  0  0  0  0  0
   -4.0730    2.9724   -1.2669 C   0  0  0  0  0  0  0  0  0  0  0  0
  1  6  2  0
  2  6  1  0
  2  7  1  0
  2  8  1  0
  3 10  1  0
  3 11  1  0
  3 12  1  0
  4  5  1  0
  4  6  1  0
  4  9  1  0
  4 13  1  0
  5  7  2  0
  5 17  1  0
  7 18  1  0
  8 10  1  0
  9 19  1  0
 11 14  1  0
 12 15  1  0
 13 20  2  0
 13 21  1  0
 14 16  1  0
 15 16  1  0
 17 22  2  0
 18 23  2  0
 20 24  1  0
 21 25  2  0
 22 23  1  0
 24 26  2  0
 25 26  1  0
M  END
>  <PUBCHEM_COMPOUND_CID>  (1) 
37642

>  <PUBCHEM_CONFORMER_RMSD>  (1) 
0.8

>  <PUBCHEM_CONFORMER_DIVERSEORDER>  (1) 
1
48
45
13
17
41
35
18
21
16
39
10
38
43
8
25
5
26
27
33
15
12
6
28
36
46
32
37
29
14
30
44
34
9
47
7
22
4
3
31
20
42
24
2
23
40
11
19

>  <PUBCHEM_MMFF94_PARTIAL_CHARGES>  (1) 
30
1 -0.57
10 0.27
11 0.27
12 0.27
13 -0.14
17 -0.15
18 -0.15
2 -0.48
20 -0.15
21 -0.15
22 -0.15
23 -0.15
24 -0.15
25 -0.15
26 -0.15
3 -0.81
4 0.35
43 0.15
44 0.15
48 0.15
49 0.15
5 -0.14
50 0.15
51 0.15
52 0.15
53 0.15
54 0.15
6 0.57
7 0.12
8 0.3

>  <PUBCHEM_EFFECTIVE_ROTOR_COUNT>  (1) 
6.6

>  <PUBCHEM_PHARMACOPHORE_FEATURES>  (1) 
7
1 1 acceptor
1 19 hydrophobe
1 3 cation
5 2 4 5 6 7 rings
6 13 20 21 24 25 26 rings
6 3 11 12 14 15 16 rings
6 5 7 17 18 22 23 rings

>  <PUBCHEM_HEAVY_ATOM_COUNT>  (1) 
26

>  <PUBCHEM_ATOM_DEF_STEREO_COUNT>  (1) 
0

>  <PUBCHEM_ATOM_UDEF_STEREO_COUNT>  (1) 
1

>  <PUBCHEM_BOND_DEF_STEREO_COUNT>  (1) 
0

>  <PUBCHEM_BOND_UDEF_STEREO_COUNT>  (1) 
0

>  <PUBCHEM_ISOTOPIC_ATOM_COUNT>  (1) 
0

>  <PUBCHEM_COMPONENT_COUNT>  (1) 
1

>  <PUBCHEM_CACTVS_TAUTO_COUNT>  (1) 
1

>  <PUBCHEM_CONFORMER_ID>  (1) 
0000930A00000001

>  <PUBCHEM_MMFF94_ENERGY>  (1) 
65.1769

>  <PUBCHEM_FEATURE_SELFOVERLAP>  (1) 
35.607

>  <PUBCHEM_SHAPE_FINGERPRINT>  (1) 
10165383 225 18201723934063982881
105312 117 18343581819903134028
107951 10 18113620049691539275
10871710 139 18263923417819816117
11135926 11 17632032892480791918
12082328 90 17822019748659242134
12293681 160 17346311527915583585
12403814 3 18337680831238749859
12895836 83 18412537708629544744
12895837 130 18261959669190552380
12930653 34 17822019691807088995
13149001 5 17416665007695204577
133893 2 17484814718428377299
13583140 156 18260838098393855714
13911987 19 18131070407257315001
14468879 13 18335426729243316575
14713325 29 18409445916835159671
15163728 17 18197785405592415405
15463212 79 18337379530835594498
167882 2 18055070965065238527
17492 54 18192685957136759933
17980427 23 18040160612967419429
17980427 26 17389362845820062675
19958102 18 18273492399219354686
20101258 96 18046915058540632555
20511986 3 18342162389985306138
21033648 29 18411973694178433752
21756936 100 17968092040882124328
22907989 373 18128520738518514159
23227448 37 17967536782867353437
23419403 2 17764346901622428347
23559900 14 17973441001468860090
268830 7 17168133569055052160
2838139 119 18115015299640024124
4015057 19 15697709407130332618
44249763 50 18270387421786140780
484985 159 15984823795859060287
497634 4 17415571062492581064
531348 171 18410290311895647398
559249 180 18341890788906780694
5951187 136 16528037189419306493
59755656 520 17203622479620337715
6327066 14 18336539422194965541
633830 44 17822008731672586498
7237137 82 18129659841360435718
9981440 41 18270121197572854907

>  <PUBCHEM_SHAPE_MULTIPOLES>  (1) 
519.24
11.62
3.55
1.87
23.34
0.77
-0.66
-8.88
0.98
-3.69
2.39
-1.92
0.98
0.59

>  <PUBCHEM_SHAPE_SELFOVERLAP>  (1) 
1123.029

>  <PUBCHEM_SHAPE_VOLUME>  (1) 
287.4

>  <PUBCHEM_COORDINATE_TYPE>  (1) 
2
5
10

$$$$
