3765
     RDKit          3D

  9  9  0  0  0  0  0  0  0  0999 V2000
   -2.2758    1.0943   -0.5206 O   0  0  0  0  0  0  0  0  0  0  0  0
   -2.4529   -0.9876    0.4397 O   0  0  0  0  0  0  0  0  0  0  0  0
    2.4811    0.0501   -0.3278 N   0  0  0  0  0  0  0  0  0  0  0  0
    0.3806    1.2796    0.1414 C   0  0  0  0  0  0  0  0  0  0  0  0
    1.8587    1.0841    0.5036 C   0  0  0  0  0  0  0  0  0  0  0  0
   -0.3348   -0.0292   -0.0012 C   0  0  0  0  0  0  0  0  0  0  0  0
    1.8216   -1.2484   -0.1317 C   0  0  0  0  0  0  0  0  0  0  0  0
    0.3192   -1.1943   -0.1083 C   0  0  0  0  0  0  0  0  0  0  0  0
   -1.7977   -0.0485    0.0049 C   0  0  0  0  0  0  0  0  0  0  0  0
  1  9  1  0
  2  9  2  0
  3  5  1  0
  3  7  1  0
  4  5  1  0
  4  6  1  0
  6  8  2  0
  6  9  1  0
  7  8  1  0
M  END
>  <PUBCHEM_COMPOUND_CID>  (1) 
3765

>  <PUBCHEM_CONFORMER_RMSD>  (1) 
0.4

>  <PUBCHEM_CONFORMER_DIVERSEORDER>  (1) 
1
3
2

>  <PUBCHEM_MMFF94_PARTIAL_CHARGES>  (1) 
12
1 -0.65
16 0.36
17 0.15
18 0.5
2 -0.57
3 -0.9
4 0.14
5 0.27
6 -0.12
7 0.41
8 -0.29
9 0.71

>  <PUBCHEM_EFFECTIVE_ROTOR_COUNT>  (1) 
1.8

>  <PUBCHEM_PHARMACOPHORE_FEATURES>  (1) 
6
1 1 acceptor
1 2 acceptor
1 3 cation
1 3 donor
3 1 2 9 anion
6 3 4 5 6 7 8 rings

>  <PUBCHEM_HEAVY_ATOM_COUNT>  (1) 
9

>  <PUBCHEM_ATOM_DEF_STEREO_COUNT>  (1) 
0

>  <PUBCHEM_ATOM_UDEF_STEREO_COUNT>  (1) 
0

>  <PUBCHEM_BOND_DEF_STEREO_COUNT>  (1) 
0

>  <PUBCHEM_BOND_UDEF_STEREO_COUNT>  (1) 
0

>  <PUBCHEM_ISOTOPIC_ATOM_COUNT>  (1) 
0

>  <PUBCHEM_COMPONENT_COUNT>  (1) 
1

>  <PUBCHEM_CACTVS_TAUTO_COUNT>  (1) 
1

>  <PUBCHEM_CONFORMER_ID>  (1) 
00000EB500000001

>  <PUBCHEM_MMFF94_ENERGY>  (1) 
8.7446

>  <PUBCHEM_FEATURE_SELFOVERLAP>  (1) 
30.497

>  <PUBCHEM_SHAPE_FINGERPRINT>  (1) 
10857977 72 18261670492803872299
12897270 3 18410575071783471436
14325111 11 18410855494614663120
14390081 3 18411975858329812173
16945 1 18265330784129304030
19973954 147 18409449180604038117
21040471 1 18339639074422209488
23402655 69 18269821035695099613
23552423 10 18187651271243129110
2748010 2 18411417302038062652
29004967 10 18413110554313690514
5084963 1 18340773752946812657

>  <PUBCHEM_SHAPE_MULTIPOLES>  (1) 
168.5
3.39
1.49
0.67
0.77
0.01
-0.01
-0.04
0.06
-0.28
-0.03
0.02
0.03
0.36

>  <PUBCHEM_SHAPE_SELFOVERLAP>  (1) 
338.242

>  <PUBCHEM_SHAPE_VOLUME>  (1) 
98.4

>  <PUBCHEM_COORDINATE_TYPE>  (1) 
2
5
10

$$$$
