37654
     RDKit          3D

 23 25  0  0  1  0  0  0  0  0999 V2000
    0.7911   -0.9123   -0.9950 N   0  0  0  0  0  0  0  0  0  0  0  0
    3.0042    0.6725    0.0020 N   0  0  0  0  0  0  0  0  0  0  0  0
   -1.5579   -0.2444   -1.0807 C   0  0  0  0  0  0  0  0  0  0  0  0
   -0.1460   -0.0891   -1.7585 C   0  0  0  0  0  0  0  0  0  0  0  0
   -1.3079   -1.4642   -0.2089 C   0  0  0  0  0  0  0  0  0  0  0  0
    0.0562   -1.7878   -0.2153 C   0  0  0  0  0  0  0  0  0  0  0  0
   -1.9265    0.9833   -0.2347 C   0  0  0  0  0  0  0  0  0  0  0  0
   -2.5823   -0.6003   -2.1785 C   0  0  0  0  0  0  0  0  0  0  0  0
    2.1521   -1.1308   -1.4129 C   0  0  0  0  0  0  0  0  0  0  0  0
    3.1340   -0.7434   -0.3169 C   0  0  0  0  0  0  0  0  0  0  0  0
   -2.2271   -2.1979    0.5306 C   0  0  0  0  0  0  0  0  0  0  0  0
    0.5120   -2.8672    0.5283 C   0  0  0  0  0  0  0  0  0  0  0  0
   -1.0306    1.4605    0.7171 C   0  0  0  0  0  0  0  0  0  0  0  0
   -3.1541    1.6099   -0.4253 C   0  0  0  0  0  0  0  0  0  0  0  0
   -1.7657   -3.2836    1.2733 C   0  0  0  0  0  0  0  0  0  0  0  0
   -0.4049   -3.6166    1.2715 C   0  0  0  0  0  0  0  0  0  0  0  0
    3.9043    1.0398    1.0969 C   0  0  0  0  0  0  0  0  0  0  0  0
    3.2794    1.4948   -1.1779 C   0  0  0  0  0  0  0  0  0  0  0  0
   -1.3656    2.5753    1.4857 C   0  0  0  0  0  0  0  0  0  0  0  0
   -3.4891    2.7248    0.3433 C   0  0  0  0  0  0  0  0  0  0  0  0
   -2.5948    3.2074    1.2988 C   0  0  0  0  0  0  0  0  0  0  0  0
    3.6367    0.1985    2.3334 C   0  0  0  0  0  0  0  0  0  0  0  0
    3.0822    2.9708   -0.8764 C   0  0  0  0  0  0  0  0  0  0  0  0
  1  4  1  0
  1  6  1  0
  1  9  1  0
  2 10  1  0
  2 17  1  0
  2 18  1  0
  3  4  1  0
  3  5  1  0
  3  7  1  0
  3  8  1  0
  5  6  2  0
  5 11  1  0
  6 12  1  0
  7 13  2  0
  7 14  1  0
  9 10  1  0
 11 15  2  0
 12 16  2  0
 13 19  1  0
 14 20  2  0
 15 16  1  0
 17 22  1  0
 18 23  1  0
 19 21  2  0
 20 21  1  0
M  END
>  <PUBCHEM_COMPOUND_CID>  (1) 
37654

>  <PUBCHEM_CONFORMER_RMSD>  (1) 
0.8

>  <PUBCHEM_CONFORMER_DIVERSEORDER>  (1) 
7
40
6
41
34
4
23
17
29
33
24
10
38
21
25
18
36
22
39
42
35
45
27
43
16
30
9
26
47
1
31
32
12
15
44
48
5
20
46
13
11
28
3
19
37
2
14
8

>  <PUBCHEM_MMFF94_PARTIAL_CHARGES>  (1) 
29
1 -0.84
10 0.27
11 -0.15
12 -0.15
13 -0.15
14 -0.15
15 -0.15
16 -0.15
17 0.27
18 0.27
19 -0.15
2 -0.81
20 -0.15
21 -0.15
3 0.29
33 0.15
34 0.15
35 0.15
36 0.15
37 0.15
38 0.15
4 0.37
43 0.15
44 0.15
45 0.15
5 -0.14
6 0.1
7 -0.14
9 0.37

>  <PUBCHEM_EFFECTIVE_ROTOR_COUNT>  (1) 
6.6

>  <PUBCHEM_PHARMACOPHORE_FEATURES>  (1) 
5
1 1 cation
1 2 cation
5 1 3 4 5 6 rings
6 5 6 11 12 15 16 rings
6 7 13 14 19 20 21 rings

>  <PUBCHEM_HEAVY_ATOM_COUNT>  (1) 
23

>  <PUBCHEM_ATOM_DEF_STEREO_COUNT>  (1) 
0

>  <PUBCHEM_ATOM_UDEF_STEREO_COUNT>  (1) 
1

>  <PUBCHEM_BOND_DEF_STEREO_COUNT>  (1) 
0

>  <PUBCHEM_BOND_UDEF_STEREO_COUNT>  (1) 
0

>  <PUBCHEM_ISOTOPIC_ATOM_COUNT>  (1) 
0

>  <PUBCHEM_COMPONENT_COUNT>  (1) 
1

>  <PUBCHEM_CACTVS_TAUTO_COUNT>  (1) 
1

>  <PUBCHEM_CONFORMER_ID>  (1) 
0000931600000007

>  <PUBCHEM_MMFF94_ENERGY>  (1) 
77.6746

>  <PUBCHEM_FEATURE_SELFOVERLAP>  (1) 
25.46

>  <PUBCHEM_SHAPE_FINGERPRINT>  (1) 
10165383 225 17682997334116350918
11221954 11 18130793339027741836
11578080 2 13965042865848786027
12156800 1 15181301844936952648
12403259 327 14925093473654625621
12788726 201 18265338497964355947
13027679 85 17689726680538989679
13583140 156 17685229274676966165
14468879 13 17846486050370463016
14787075 74 18412826919648827645
14955137 171 17332809349070524163
17980427 23 16544367114529135721
18981168 100 18270135564359837350
19765921 60 18269547252645729609
20510252 161 18191031302988766374
20600515 1 17467658303934226134
21524375 3 17983585104304448445
23419403 2 17400055965725148007
23558518 356 18412826863033849279
23559900 14 18336264639236120798
35225 105 17969812776305326666
3797600 57 17684934996291586668
392239 28 18267604437380053363
4340502 62 18261960622936412117
474 4 18266181638562558045
539174 4 17906713831222361472
57527573 199 17916288477789317472
7097593 13 16823906933816063483
81228 2 18117867549046140567
9981440 41 17987215859656848074

>  <PUBCHEM_SHAPE_MULTIPOLES>  (1) 
463.37
6.17
4.5
1.91
4.61
0.96
-0.02
-4.75
-0.73
-2.58
-2.15
0.43
-0.02
-0.65

>  <PUBCHEM_SHAPE_SELFOVERLAP>  (1) 
982.126

>  <PUBCHEM_SHAPE_VOLUME>  (1) 
259.9

>  <PUBCHEM_COORDINATE_TYPE>  (1) 
2
5
10

$$$$
