37650
     RDKit          3D

 27 30  0  0  1  0  0  0  0  0999 V2000
   -0.1073   -1.2082    1.3893 O   0  0  0  0  0  0  0  0  0  0  0  0
   -6.2848   -1.5961    0.3900 O   0  0  0  0  0  0  0  0  0  0  0  0
   -0.0252    0.9086    0.3526 N   0  0  0  0  0  0  0  0  0  0  0  0
   -4.2845    0.3035   -0.3110 N   0  0  0  0  0  0  0  0  0  0  0  0
    2.0570   -0.1426    0.8535 C   0  0  0  0  0  0  0  0  0  0  0  0
    2.2335    1.2025    0.1742 C   0  0  0  0  0  0  0  0  0  0  0  0
    0.5059   -0.2589    0.9204 C   0  0  0  0  0  0  0  0  0  0  0  0
    0.9860    1.7702   -0.0917 C   0  0  0  0  0  0  0  0  0  0  0  0
    2.6402   -0.1588    2.2634 C   0  0  0  0  0  0  0  0  0  0  0  0
   -1.4374    1.1874    0.2401 C   0  0  0  0  0  0  0  0  0  0  0  0
    2.6109   -1.2654    0.0351 C   0  0  0  0  0  0  0  0  0  0  0  0
   -2.0002    0.8170   -1.1307 C   0  0  0  0  0  0  0  0  0  0  0  0
   -3.5037    1.0635   -1.2850 C   0  0  0  0  0  0  0  0  0  0  0  0
    3.4009    1.8652   -0.1716 C   0  0  0  0  0  0  0  0  0  0  0  0
    0.8633    3.0039   -0.7078 C   0  0  0  0  0  0  0  0  0  0  0  0
    2.0624    0.9556    3.1151 C   0  0  0  0  0  0  0  0  0  0  0  0
   -4.0660   -1.1399   -0.4792 C   0  0  0  0  0  0  0  0  0  0  0  0
   -5.7156    0.6137   -0.4334 C   0  0  0  0  0  0  0  0  0  0  0  0
    2.1071   -1.5078   -1.2406 C   0  0  0  0  0  0  0  0  0  0  0  0
    3.6279   -2.0641    0.5522 C   0  0  0  0  0  0  0  0  0  0  0  0
    3.2946    3.1109   -0.7946 C   0  0  0  0  0  0  0  0  0  0  0  0
    2.0359    3.6751   -1.0607 C   0  0  0  0  0  0  0  0  0  0  0  0
   -4.9001   -1.9123    0.5389 C   0  0  0  0  0  0  0  0  0  0  0  0
   -6.5102   -0.1995    0.5845 C   0  0  0  0  0  0  0  0  0  0  0  0
    2.6234   -2.5552   -2.0036 C   0  0  0  0  0  0  0  0  0  0  0  0
    4.1443   -3.1115   -0.2107 C   0  0  0  0  0  0  0  0  0  0  0  0
    3.6419   -3.3570   -1.4887 C   0  0  0  0  0  0  0  0  0  0  0  0
  1  7  2  0
  2 23  1  0
  2 24  1  0
  3  7  1  0
  3  8  1  0
  3 10  1  0
  4 13  1  0
  4 17  1  0
  4 18  1  0
  5  6  1  0
  5  7  1  0
  5  9  1  0
  5 11  1  0
  6  8  2  0
  6 14  1  0
  8 15  1  0
  9 16  1  0
 10 12  1  0
 11 19  2  0
 11 20  1  0
 12 13  1  0
 14 21  2  0
 15 22  2  0
 17 23  1  0
 18 24  1  0
 19 25  1  0
 20 26  2  0
 21 22  1  0
 25 27  2  0
 26 27  1  0
M  END
>  <PUBCHEM_COMPOUND_CID>  (1) 
37650

>  <PUBCHEM_CONFORMER_RMSD>  (1) 
0.8

>  <PUBCHEM_CONFORMER_DIVERSEORDER>  (1) 
1
55
25
83
72
4
85
60
79
24
66
35
58
75
67
88
69
53
5
45
32
31
56
17
46
82
62
84
78
77
68
40
47
70
30
64
7
63
10
86
74
50
51
52
29
57
71
23
8
44
49
80
73
18
19
6
16
65
41
81
9
11
34
42
26
15
27
28
2
48
21
87
54
76
20
39
22
59
61
43
37
3
13
12
36
14
38
33

>  <PUBCHEM_MMFF94_PARTIAL_CHARGES>  (1) 
33
1 -0.57
10 0.3
11 -0.14
13 0.27
14 -0.15
15 -0.15
17 0.27
18 0.27
19 -0.15
2 -0.56
20 -0.15
21 -0.15
22 -0.15
23 0.28
24 0.28
25 -0.15
26 -0.15
27 -0.15
3 -0.48
36 0.15
37 0.15
4 -0.81
45 0.15
46 0.15
47 0.15
48 0.15
5 0.35
53 0.15
54 0.15
55 0.15
6 -0.14
7 0.57
8 0.12

>  <PUBCHEM_EFFECTIVE_ROTOR_COUNT>  (1) 
7.6

>  <PUBCHEM_PHARMACOPHORE_FEATURES>  (1) 
8
1 1 acceptor
1 16 hydrophobe
1 2 acceptor
1 4 cation
5 3 5 6 7 8 rings
6 11 19 20 25 26 27 rings
6 2 4 17 18 23 24 rings
6 6 8 14 15 21 22 rings

>  <PUBCHEM_HEAVY_ATOM_COUNT>  (1) 
27

>  <PUBCHEM_ATOM_DEF_STEREO_COUNT>  (1) 
0

>  <PUBCHEM_ATOM_UDEF_STEREO_COUNT>  (1) 
1

>  <PUBCHEM_BOND_DEF_STEREO_COUNT>  (1) 
0

>  <PUBCHEM_BOND_UDEF_STEREO_COUNT>  (1) 
0

>  <PUBCHEM_ISOTOPIC_ATOM_COUNT>  (1) 
0

>  <PUBCHEM_COMPONENT_COUNT>  (1) 
1

>  <PUBCHEM_CACTVS_TAUTO_COUNT>  (1) 
1

>  <PUBCHEM_CONFORMER_ID>  (1) 
0000931200000001

>  <PUBCHEM_MMFF94_ENERGY>  (1) 
72.9717

>  <PUBCHEM_FEATURE_SELFOVERLAP>  (1) 
40.682

>  <PUBCHEM_SHAPE_FINGERPRINT>  (1) 
10369192 42 17971193874648288492
10721379 63 18269575925879254596
10928967 22 17530964666595197811
11135609 12 18411978023072353529
11421498 54 18059589030205850216
11488393 25 18264224632925213250
11513181 2 18195533807948609671
12107183 9 18124888863382884921
12422481 6 17982976095728426170
12617007 42 18337391548016555404
13009979 54 17987244330567967312
13533116 47 17917712397034210275
13955234 65 18342455984447414784
14863182 85 18200866374907458424
15219462 58 17559694990700550923
15250474 111 18128526266695831807
17492 54 18264512671065523092
17492 89 18410293597418800893
17686467 74 18126279741677381630
17844677 252 18334579015085946409
17909252 39 18411989035558703180
1813 80 18196658397620459404
1979834 28 18270953639307107376
20600515 1 17828731016489171960
20645477 70 18333730247379440749
20775438 99 18189894391155529007
20775530 9 17342941434630272502
21197605 99 17755307004475636347
21344244 246 18338533988686481046
22393880 68 17749381525886300157
2260408 40 18131352973150126234
23419403 2 17340088215399640552
23559900 14 18410007711489500293
239999 70 18260264174413721505
25222932 49 17895738673679037250
376196 1 17754740755676543608
4280585 95 18191864514302483982
44317340 157 9943538384559226643
46194498 28 18407762534024749487
59755656 215 18188216519025484444
6823239 73 18334572395902708597
7970288 3 18119526535751200411
9709674 26 18260831544463555251
9841814 1 17968364684979124881

>  <PUBCHEM_SHAPE_MULTIPOLES>  (1) 
533.95
11.65
4.03
1.86
26.19
0.53
-1.08
-6.49
0.26
-5.88
2.11
-1.74
-0.12
1.32

>  <PUBCHEM_SHAPE_SELFOVERLAP>  (1) 
1151.268

>  <PUBCHEM_SHAPE_VOLUME>  (1) 
294.6

>  <PUBCHEM_COORDINATE_TYPE>  (1) 
2
5
10

$$$$
