37662
     RDKit          3D

 25 28  0  0  1  0  0  0  0  0999 V2000
   -0.1209    1.3676    0.4713 N   0  0  0  0  0  0  0  0  0  0  0  0
    3.2306    0.2273   -0.3269 N   0  0  0  0  0  0  0  0  0  0  0  0
   -1.7839   -0.2832    1.1638 C   0  0  0  0  0  0  0  0  0  0  0  0
   -0.3103    0.2296    1.3701 C   0  0  0  0  0  0  0  0  0  0  0  0
   -2.3801    0.8970    0.4141 C   0  0  0  0  0  0  0  0  0  0  0  0
   -1.3685    1.7997    0.0572 C   0  0  0  0  0  0  0  0  0  0  0  0
    1.0649    2.1852    0.4924 C   0  0  0  0  0  0  0  0  0  0  0  0
   -1.8324   -1.5657    0.3199 C   0  0  0  0  0  0  0  0  0  0  0  0
    1.7991    2.1866   -0.8471 C   0  0  0  0  0  0  0  0  0  0  0  0
   -2.4514   -0.4000    2.5502 C   0  0  0  0  0  0  0  0  0  0  0  0
    2.3018    0.8110   -1.2944 C   0  0  0  0  0  0  0  0  0  0  0  0
    4.4103    1.0883   -0.1627 C   0  0  0  0  0  0  0  0  0  0  0  0
    3.6165   -1.1296   -0.7389 C   0  0  0  0  0  0  0  0  0  0  0  0
    5.3694    0.5170    0.8828 C   0  0  0  0  0  0  0  0  0  0  0  0
    4.5497   -1.7734    0.2875 C   0  0  0  0  0  0  0  0  0  0  0  0
   -3.7086    1.1206    0.0751 C   0  0  0  0  0  0  0  0  0  0  0  0
    5.7808   -0.9094    0.5368 C   0  0  0  0  0  0  0  0  0  0  0  0
   -1.6893    2.9504   -0.6490 C   0  0  0  0  0  0  0  0  0  0  0  0
   -1.1739   -1.6117   -0.9050 C   0  0  0  0  0  0  0  0  0  0  0  0
   -2.5346   -2.6728    0.7858 C   0  0  0  0  0  0  0  0  0  0  0  0
   -4.0271    2.2794   -0.6311 C   0  0  0  0  0  0  0  0  0  0  0  0
   -3.0240    3.1889   -0.9902 C   0  0  0  0  0  0  0  0  0  0  0  0
   -1.2183   -2.7763   -1.6717 C   0  0  0  0  0  0  0  0  0  0  0  0
   -2.5789   -3.8375    0.0194 C   0  0  0  0  0  0  0  0  0  0  0  0
   -1.9208   -3.8890   -1.2094 C   0  0  0  0  0  0  0  0  0  0  0  0
  1  4  1  0
  1  6  1  0
  1  7  1  0
  2 11  1  0
  2 12  1  0
  2 13  1  0
  3  4  1  0
  3  5  1  0
  3  8  1  0
  3 10  1  0
  5  6  2  0
  5 16  1  0
  6 18  1  0
  7  9  1  0
  8 19  2  0
  8 20  1  0
  9 11  1  0
 12 14  1  0
 13 15  1  0
 14 17  1  0
 15 17  1  0
 16 21  2  0
 18 22  2  0
 19 23  1  0
 20 24  2  0
 21 22  1  0
 23 25  2  0
 24 25  1  0
M  END
>  <PUBCHEM_COMPOUND_CID>  (1) 
37662

>  <PUBCHEM_CONFORMER_RMSD>  (1) 
0.8

>  <PUBCHEM_CONFORMER_DIVERSEORDER>  (1) 
1
13
33
42
80
35
89
27
57
77
30
81
50
15
75
23
53
66
65
24
88
34
71
44
49
31
82
28
73
59
72
38
46
48
69
92
11
22
70
58
79
41
74
51
87
2
76
10
8
68
12
18
67
84
7
61
83
62
9
60
91
32
90
86
43
78
36
21
16
20
64
52
5
3
17
54
4
85
39
14
63
55
25
45
40
56
26
47
6
37
19
29

>  <PUBCHEM_MMFF94_PARTIAL_CHARGES>  (1) 
29
1 -0.84
11 0.27
12 0.27
13 0.27
16 -0.15
18 -0.15
19 -0.15
2 -0.81
20 -0.15
21 -0.15
22 -0.15
23 -0.15
24 -0.15
25 -0.15
3 0.29
4 0.37
45 0.15
48 0.15
49 0.15
5 -0.14
50 0.15
51 0.15
52 0.15
53 0.15
54 0.15
55 0.15
6 0.1
7 0.37
8 -0.14

>  <PUBCHEM_EFFECTIVE_ROTOR_COUNT>  (1) 
6.8

>  <PUBCHEM_PHARMACOPHORE_FEATURES>  (1) 
6
1 1 cation
1 2 cation
5 1 3 4 5 6 rings
6 2 12 13 14 15 17 rings
6 5 6 16 18 21 22 rings
6 8 19 20 23 24 25 rings

>  <PUBCHEM_HEAVY_ATOM_COUNT>  (1) 
25

>  <PUBCHEM_ATOM_DEF_STEREO_COUNT>  (1) 
0

>  <PUBCHEM_ATOM_UDEF_STEREO_COUNT>  (1) 
1

>  <PUBCHEM_BOND_DEF_STEREO_COUNT>  (1) 
0

>  <PUBCHEM_BOND_UDEF_STEREO_COUNT>  (1) 
0

>  <PUBCHEM_ISOTOPIC_ATOM_COUNT>  (1) 
0

>  <PUBCHEM_COMPONENT_COUNT>  (1) 
1

>  <PUBCHEM_CACTVS_TAUTO_COUNT>  (1) 
1

>  <PUBCHEM_CONFORMER_ID>  (1) 
0000931E00000001

>  <PUBCHEM_MMFF94_ENERGY>  (1) 
70.8164

>  <PUBCHEM_FEATURE_SELFOVERLAP>  (1) 
30.535

>  <PUBCHEM_SHAPE_FINGERPRINT>  (1) 
10366900 7 16917063327125628408
10483366 6 18268690836726447567
107951 10 17604720932656048201
11370993 70 18196931080862405780
11578080 2 17844239842525654705
12035758 1 18339942458470183451
12156800 1 16982316038777120815
12422481 6 18123504698280910555
12553582 1 17761503885868275599
13004483 165 18124595542374525775
13583140 156 17916574471060917344
13931106 250 18413107277232609645
14844126 61 18410566314757008146
15042514 8 18335707182460831697
15403338 16 16520464916751417946
16728300 4 17679012708372829091
1813 80 17762616600631753547
19930381 70 17618504281156363879
20197701 30 18191578653868615877
20511986 3 17822563920609885480
20602899 9 18201998798959333617
20681651 13 18129394863316653768
21033648 29 18199452282637656056
21315759 227 17096093631400929626
21344244 246 18052807062645331439
22393880 68 18266192789163004108
23227448 37 18410011018239999126
23419403 2 16915078849859749545
23559900 14 18410571765608901496
23598288 3 18114196253724066473
23728640 28 18410291385014745211
266924 78 16099124910467973235
3298306 158 18121216480821960229
3380486 145 18267592479500920721
340366 18 18187371995348145220
38695281 34 18121773933623898653
4015057 19 17703490148063214096
44062 13 18409730668850467250
463206 1 17758678137033387074
5309563 4 17616259520984324890
532947 4 17835804092779763039
559249 180 17968936358548986544
9981440 41 18120940508067744337

>  <PUBCHEM_SHAPE_MULTIPOLES>  (1) 
504.53
9.37
4.6
1.51
16.47
2.65
-0.43
-0.02
-0.98
-5.37
1.87
-0.78
0.43
0.2

>  <PUBCHEM_SHAPE_SELFOVERLAP>  (1) 
1078.466

>  <PUBCHEM_SHAPE_VOLUME>  (1) 
278.8

>  <PUBCHEM_COORDINATE_TYPE>  (1) 
2
5
10

$$$$
