37666
     RDKit          3D

 24 26  0  0  1  0  0  0  0  0999 V2000
   -0.6914    0.3595    0.6385 N   0  0  0  0  0  0  0  0  0  0  0  0
   -4.1767   -0.8379    0.2434 N   0  0  0  0  0  0  0  0  0  0  0  0
    1.7396    0.3829    0.8821 C   0  0  0  0  0  0  0  0  0  0  0  0
    0.3854   -0.1334    1.4961 C   0  0  0  0  0  0  0  0  0  0  0  0
    1.2179    1.4446   -0.0723 C   0  0  0  0  0  0  0  0  0  0  0  0
    2.5513    1.0588    2.0070 C   0  0  0  0  0  0  0  0  0  0  0  0
   -0.1798    1.3719   -0.1539 C   0  0  0  0  0  0  0  0  0  0  0  0
    2.4887   -0.7279    0.1307 C   0  0  0  0  0  0  0  0  0  0  0  0
   -2.0839    0.2017    0.9714 C   0  0  0  0  0  0  0  0  0  0  0  0
    1.9430    2.3744   -0.8070 C   0  0  0  0  0  0  0  0  0  0  0  0
   -2.7715   -0.6446   -0.0921 C   0  0  0  0  0  0  0  0  0  0  0  0
    2.9985    0.0514    3.0488 C   0  0  0  0  0  0  0  0  0  0  0  0
   -0.8684    2.2470   -0.9821 C   0  0  0  0  0  0  0  0  0  0  0  0
    3.8581   -0.6119   -0.0870 C   0  0  0  0  0  0  0  0  0  0  0  0
    1.7929   -1.8423   -0.3275 C   0  0  0  0  0  0  0  0  0  0  0  0
    1.2473    3.2540   -1.6349 C   0  0  0  0  0  0  0  0  0  0  0  0
   -0.1496    3.1912   -1.7213 C   0  0  0  0  0  0  0  0  0  0  0  0
    4.5385   -1.6203   -0.7698 C   0  0  0  0  0  0  0  0  0  0  0  0
    2.4731   -2.8507   -1.0102 C   0  0  0  0  0  0  0  0  0  0  0  0
   -4.8551    0.4516    0.3870 C   0  0  0  0  0  0  0  0  0  0  0  0
   -4.8434   -1.6510   -0.7756 C   0  0  0  0  0  0  0  0  0  0  0  0
    3.8460   -2.7397   -1.2312 C   0  0  0  0  0  0  0  0  0  0  0  0
   -6.3049    0.2661    0.8019 C   0  0  0  0  0  0  0  0  0  0  0  0
   -4.1555   -2.9953   -0.9417 C   0  0  0  0  0  0  0  0  0  0  0  0
  1  4  1  0
  1  7  1  0
  1  9  1  0
  2 11  1  0
  2 20  1  0
  2 21  1  0
  3  4  1  0
  3  5  1  0
  3  6  1  0
  3  8  1  0
  5  7  2  0
  5 10  1  0
  6 12  1  0
  7 13  1  0
  8 14  2  0
  8 15  1  0
  9 11  1  0
 10 16  2  0
 13 17  2  0
 14 18  1  0
 15 19  2  0
 16 17  1  0
 18 22  2  0
 19 22  1  0
 20 23  1  0
 21 24  1  0
M  END
>  <PUBCHEM_COMPOUND_CID>  (1) 
37666

>  <PUBCHEM_CONFORMER_RMSD>  (1) 
0.8

>  <PUBCHEM_CONFORMER_DIVERSEORDER>  (1) 
1
70
25
91
98
34
112
58
101
99
110
29
69
27
67
66
95
88
92
107
96
113
26
28
83
105
37
57
93
76
36
84
108
72
94
32
81
103
75
97
111
14
53
4
49
109
60
90
44
65
74
19
56
100
85
54
40
78
38
33
79
47
10
17
43
46
102
62
15
86
68
89
52
61
48
18
45
12
7
55
20
30
73
5
41
9
42
3
63
39
35
106
13
24
80
8
6
50
59
2
71
11
87
64
77
31
16
104
82
22
23
21
51

>  <PUBCHEM_MMFF94_PARTIAL_CHARGES>  (1) 
29
1 -0.84
10 -0.15
11 0.27
13 -0.15
14 -0.15
15 -0.15
16 -0.15
17 -0.15
18 -0.15
19 -0.15
2 -0.81
20 0.27
21 0.27
22 -0.15
3 0.29
31 0.15
37 0.15
38 0.15
39 0.15
4 0.37
40 0.15
41 0.15
42 0.15
43 0.15
48 0.15
5 -0.14
7 0.1
8 -0.14
9 0.37

>  <PUBCHEM_EFFECTIVE_ROTOR_COUNT>  (1) 
7.6

>  <PUBCHEM_PHARMACOPHORE_FEATURES>  (1) 
6
1 1 cation
1 12 hydrophobe
1 2 cation
5 1 3 4 5 7 rings
6 5 7 10 13 16 17 rings
6 8 14 15 18 19 22 rings

>  <PUBCHEM_HEAVY_ATOM_COUNT>  (1) 
24

>  <PUBCHEM_ATOM_DEF_STEREO_COUNT>  (1) 
0

>  <PUBCHEM_ATOM_UDEF_STEREO_COUNT>  (1) 
1

>  <PUBCHEM_BOND_DEF_STEREO_COUNT>  (1) 
0

>  <PUBCHEM_BOND_UDEF_STEREO_COUNT>  (1) 
0

>  <PUBCHEM_ISOTOPIC_ATOM_COUNT>  (1) 
0

>  <PUBCHEM_COMPONENT_COUNT>  (1) 
1

>  <PUBCHEM_CACTVS_TAUTO_COUNT>  (1) 
1

>  <PUBCHEM_CONFORMER_ID>  (1) 
0000932200000001

>  <PUBCHEM_MMFF94_ENERGY>  (1) 
79.8471

>  <PUBCHEM_FEATURE_SELFOVERLAP>  (1) 
30.532

>  <PUBCHEM_SHAPE_FINGERPRINT>  (1) 
10165383 225 18130220584429239200
10906281 52 17896050995332790016
11315621 136 18192715776567681639
11578080 2 18129655280338023336
116883 192 18334576798307971405
11796584 16 17632312193375771703
12160290 23 17463120254379624109
12293681 25 17907265816293107270
12403259 327 16845570924491778035
12553582 1 18040990726939796691
12617007 42 18260839184561508869
12788726 201 17677895625870268737
12969540 37 18131066026596654630
13009979 54 18200329778862777129
13149001 5 17314532480502652794
13533116 47 17775566421156161011
13583140 156 16916487242687689809
14022347 108 18040439858381167675
14863182 85 17985826162463123826
15420108 30 17834664277490643752
15475509 8 18118135675580778797
15664445 248 18186805768613913488
17357779 13 18337944584958728029
17492 54 18043557051856807660
17492 89 18265901444298770535
17818456 19 18130236948001195313
1813 80 18260266330730033481
19141452 34 18198070170598171857
20600515 1 18114448054655769752
20645477 70 18042971059045263425
20775530 9 18055355730124295070
21285901 2 18265625277210301334
21344244 181 17546716063694500941
22182313 1 18194661710126756220
22620623 9 17974301923584114372
23419403 2 17915159240539378040
23557571 272 18262513676915996440
23559900 14 18060413629724523811
25222932 49 17460311281211318610
26353 1 17967821521913481013
3060560 45 18120378910987050724
338550 245 18270683190086835383
340366 18 18410014343177643895
34797466 226 12612752411514800051
38695281 34 17903927991096967572
4280585 95 18334853909703508142
46194498 28 18114737265543625319
484985 159 16907518255968419206
633830 44 17968096469331062067
6443956 14 18343868805148785881
9841814 1 17822002138133318505
9971528 1 18411415129206909377

>  <PUBCHEM_SHAPE_MULTIPOLES>  (1) 
483.95
10.04
3.69
1.91
15.4
0.48
-1.14
-7.31
-0.48
-1.39
3.09
-1.7
0.65
0.26

>  <PUBCHEM_SHAPE_SELFOVERLAP>  (1) 
1021.703

>  <PUBCHEM_SHAPE_VOLUME>  (1) 
272.1

>  <PUBCHEM_COORDINATE_TYPE>  (1) 
2
5
10

$$$$
