37674
     RDKit          3D

 25 27  0  0  1  0  0  0  0  0999 V2000
    0.3546   -0.3274    0.1068 N   0  0  0  0  0  0  0  0  0  0  0  0
    4.7051   -0.5615    0.1752 N   0  0  0  0  0  0  0  0  0  0  0  0
   -1.8924   -0.1330   -0.8328 C   0  0  0  0  0  0  0  0  0  0  0  0
   -0.6228   -1.0540   -0.7026 C   0  0  0  0  0  0  0  0  0  0  0  0
   -1.3137    1.1945   -0.3714 C   0  0  0  0  0  0  0  0  0  0  0  0
   -2.2665   -0.0377   -2.3270 C   0  0  0  0  0  0  0  0  0  0  0  0
   -0.0255    1.0024    0.1475 C   0  0  0  0  0  0  0  0  0  0  0  0
   -3.0338   -0.5968    0.0845 C   0  0  0  0  0  0  0  0  0  0  0  0
    1.6972   -0.8044    0.3174 C   0  0  0  0  0  0  0  0  0  0  0  0
   -1.9057    2.4510   -0.4044 C   0  0  0  0  0  0  0  0  0  0  0  0
    2.5131   -0.7092   -0.9713 C   0  0  0  0  0  0  0  0  0  0  0  0
   -2.7437   -1.3731   -2.8644 C   0  0  0  0  0  0  0  0  0  0  0  0
    0.6881    2.0860    0.6397 C   0  0  0  0  0  0  0  0  0  0  0  0
   -4.3428   -0.2174   -0.1963 C   0  0  0  0  0  0  0  0  0  0  0  0
   -2.7511   -1.3936    1.1896 C   0  0  0  0  0  0  0  0  0  0  0  0
    3.9433   -1.2469   -0.8617 C   0  0  0  0  0  0  0  0  0  0  0  0
   -1.1839    3.5375    0.0876 C   0  0  0  0  0  0  0  0  0  0  0  0
    0.1049    3.3563    0.6057 C   0  0  0  0  0  0  0  0  0  0  0  0
   -5.3793   -0.6387    0.6365 C   0  0  0  0  0  0  0  0  0  0  0  0
   -3.7879   -1.8149    2.0223 C   0  0  0  0  0  0  0  0  0  0  0  0
   -5.1019   -1.4374    1.7458 C   0  0  0  0  0  0  0  0  0  0  0  0
    6.0461   -1.1368    0.2954 C   0  0  0  0  0  0  0  0  0  0  0  0
    4.7918    0.8718   -0.1107 C   0  0  0  0  0  0  0  0  0  0  0  0
    5.9803   -2.6253    0.5925 C   0  0  0  0  0  0  0  0  0  0  0  0
    5.5265    1.6089    0.9961 C   0  0  0  0  0  0  0  0  0  0  0  0
  1  4  1  0
  1  7  1  0
  1  9  1  0
  2 16  1  0
  2 22  1  0
  2 23  1  0
  3  4  1  0
  3  5  1  0
  3  6  1  0
  3  8  1  0
  5  7  2  0
  5 10  1  0
  6 12  1  0
  7 13  1  0
  8 14  2  0
  8 15  1  0
  9 11  1  0
 10 17  2  0
 11 16  1  0
 13 18  2  0
 14 19  1  0
 15 20  2  0
 17 18  1  0
 19 21  2  0
 20 21  1  0
 22 24  1  0
 23 25  1  0
M  END
>  <PUBCHEM_COMPOUND_CID>  (1) 
37674

>  <PUBCHEM_CONFORMER_RMSD>  (1) 
1

>  <PUBCHEM_CONFORMER_DIVERSEORDER>  (1) 
1
58
24
87
46
33
100
73
90
86
75
106
52
93
69
68
14
61
44
80
29
112
79
53
49
98
18
89
50
101
103
105
92
111
67
20
2
96
45
55
54
60
16
97
17
107
62
41
64
94
31
109
19
76
39
77
57
28
85
78
37
83
84
26
99
9
110
88
47
65
56
81
74
10
43
66
102
42
104
108
5
7
15
32
48
36
95
27
38
4
51
8
91
23
21
71
11
70
59
6
35
30
82
40
22
12
34
72
63
3
25
13

>  <PUBCHEM_MMFF94_PARTIAL_CHARGES>  (1) 
29
1 -0.84
10 -0.15
13 -0.15
14 -0.15
15 -0.15
16 0.27
17 -0.15
18 -0.15
19 -0.15
2 -0.81
20 -0.15
21 -0.15
22 0.27
23 0.27
3 0.29
32 0.15
38 0.15
39 0.15
4 0.37
40 0.15
43 0.15
44 0.15
45 0.15
46 0.15
47 0.15
5 -0.14
7 0.1
8 -0.14
9 0.37

>  <PUBCHEM_EFFECTIVE_ROTOR_COUNT>  (1) 
8.6

>  <PUBCHEM_PHARMACOPHORE_FEATURES>  (1) 
6
1 1 cation
1 12 hydrophobe
1 2 cation
5 1 3 4 5 7 rings
6 5 7 10 13 17 18 rings
6 8 14 15 19 20 21 rings

>  <PUBCHEM_HEAVY_ATOM_COUNT>  (1) 
25

>  <PUBCHEM_ATOM_DEF_STEREO_COUNT>  (1) 
0

>  <PUBCHEM_ATOM_UDEF_STEREO_COUNT>  (1) 
1

>  <PUBCHEM_BOND_DEF_STEREO_COUNT>  (1) 
0

>  <PUBCHEM_BOND_UDEF_STEREO_COUNT>  (1) 
0

>  <PUBCHEM_ISOTOPIC_ATOM_COUNT>  (1) 
0

>  <PUBCHEM_COMPONENT_COUNT>  (1) 
1

>  <PUBCHEM_CACTVS_TAUTO_COUNT>  (1) 
1

>  <PUBCHEM_CONFORMER_ID>  (1) 
0000932A00000001

>  <PUBCHEM_MMFF94_ENERGY>  (1) 
78.4738

>  <PUBCHEM_FEATURE_SELFOVERLAP>  (1) 
30.532

>  <PUBCHEM_SHAPE_FINGERPRINT>  (1) 
10369192 42 17174906748875471308
12166972 35 17603874395008117108
12403814 3 18060419092648584884
12422481 6 17775014452927667772
12516196 113 18410018766640595747
12553582 1 18340472426652761559
12596602 18 17530955905041222856
12616971 3 18060413613030275750
12760667 363 18334860493677253099
12788726 201 18263948599534864478
13257819 101 13038636076790715441
13782708 43 17749954491635404019
14251764 30 18335704978599874891
14840074 17 17988930023864528612
15163728 17 10519448276562230683
15537594 2 18130229362962232956
16114785 44 15911917193902679393
17349148 13 12468354652549331422
17492 89 18266742377378260314
17980427 23 17702406025793526113
1813 80 18130241414060087029
18785283 64 17974858581110279436
18927931 339 18270679766997582310
21033650 10 14202520756167689254
21041028 32 18412833499080458065
21792934 111 18341603785436644568
23175994 123 18408892853938235893
23557571 272 18339647733271600196
23559900 14 17895477059221595709
23622692 88 17346604101425266565
23845131 108 17333950655035802737
329604 57 18334020492874301832
497634 4 17676778573933465142
5104073 3 18341047416222213280
57527295 17 18045752686578731695
59755656 520 17606117277857999533
9981440 41 17840857478385921814

>  <PUBCHEM_SHAPE_MULTIPOLES>  (1) 
504.53
12.69
3.15
1.76
16.02
3
-0.87
-8.24
4.33
0.78
0.81
-2.41
-1
1.09

>  <PUBCHEM_SHAPE_SELFOVERLAP>  (1) 
1059.944

>  <PUBCHEM_SHAPE_VOLUME>  (1) 
284.8

>  <PUBCHEM_COORDINATE_TYPE>  (1) 
2
5
10

$$$$
