37672
     RDKit          3D

 23 25  0  0  1  0  0  0  0  0999 V2000
    0.8238   -0.4245    0.2230 N   0  0  0  0  0  0  0  0  0  0  0  0
    5.1504   -0.7510    0.5021 N   0  0  0  0  0  0  0  0  0  0  0  0
   -1.3617   -0.1298   -0.8287 C   0  0  0  0  0  0  0  0  0  0  0  0
   -0.1490   -1.1120   -0.6250 C   0  0  0  0  0  0  0  0  0  0  0  0
   -0.7387    1.1732   -0.3550 C   0  0  0  0  0  0  0  0  0  0  0  0
   -1.6571   -0.0371   -2.3406 C   0  0  0  0  0  0  0  0  0  0  0  0
    0.5111    0.9233    0.2291 C   0  0  0  0  0  0  0  0  0  0  0  0
   -2.5688   -0.5218    0.0365 C   0  0  0  0  0  0  0  0  0  0  0  0
    2.1283   -0.9660    0.5053 C   0  0  0  0  0  0  0  0  0  0  0  0
   -1.2630    2.4574   -0.4322 C   0  0  0  0  0  0  0  0  0  0  0  0
   -2.1756   -1.3542   -2.8849 C   0  0  0  0  0  0  0  0  0  0  0  0
    3.0199   -1.0216   -0.7336 C   0  0  0  0  0  0  0  0  0  0  0  0
    1.2546    1.9763    0.7431 C   0  0  0  0  0  0  0  0  0  0  0  0
   -3.8413   -0.0806   -0.3128 C   0  0  0  0  0  0  0  0  0  0  0  0
   -2.3814   -1.3152    1.1641 C   0  0  0  0  0  0  0  0  0  0  0  0
   -0.5112    3.5129    0.0820 C   0  0  0  0  0  0  0  0  0  0  0  0
    0.7399    3.2739    0.6652 C   0  0  0  0  0  0  0  0  0  0  0  0
    4.4303   -1.5592   -0.4743 C   0  0  0  0  0  0  0  0  0  0  0  0
   -4.9374   -0.4363    0.4732 C   0  0  0  0  0  0  0  0  0  0  0  0
   -3.4775   -1.6709    1.9501 C   0  0  0  0  0  0  0  0  0  0  0  0
   -4.7554   -1.2313    1.6046 C   0  0  0  0  0  0  0  0  0  0  0  0
    5.2952    0.6258    0.0255 C   0  0  0  0  0  0  0  0  0  0  0  0
    6.4647   -1.3314    0.7834 C   0  0  0  0  0  0  0  0  0  0  0  0
  1  4  1  0
  1  7  1  0
  1  9  1  0
  2 18  1  0
  2 22  1  0
  2 23  1  0
  3  4  1  0
  3  5  1  0
  3  6  1  0
  3  8  1  0
  5  7  2  0
  5 10  1  0
  6 11  1  0
  7 13  1  0
  8 14  2  0
  8 15  1  0
  9 12  1  0
 10 16  2  0
 12 18  1  0
 13 17  2  0
 14 19  1  0
 15 20  2  0
 16 17  1  0
 19 21  2  0
 20 21  1  0
M  END
>  <PUBCHEM_COMPOUND_CID>  (1) 
37672

>  <PUBCHEM_CONFORMER_RMSD>  (1) 
0.8

>  <PUBCHEM_CONFORMER_DIVERSEORDER>  (1) 
13
8
18
23
26
29
47
33
35
54
44
7
57
53
45
14
51
24
17
55
42
39
56
38
21
37
48
15
52
49
31
41
12
27
32
6
19
10
9
1
50
16
20
43
30
46
40
25
5
28
4
11
34
2
22
36
3

>  <PUBCHEM_MMFF94_PARTIAL_CHARGES>  (1) 
29
1 -0.84
10 -0.15
13 -0.15
14 -0.15
15 -0.15
16 -0.15
17 -0.15
18 0.27
19 -0.15
2 -0.81
20 -0.15
21 -0.15
22 0.27
23 0.27
3 0.29
30 0.15
36 0.15
37 0.15
38 0.15
39 0.15
4 0.37
40 0.15
43 0.15
44 0.15
45 0.15
5 -0.14
7 0.1
8 -0.14
9 0.37

>  <PUBCHEM_EFFECTIVE_ROTOR_COUNT>  (1) 
6.6

>  <PUBCHEM_PHARMACOPHORE_FEATURES>  (1) 
6
1 1 cation
1 11 hydrophobe
1 2 cation
5 1 3 4 5 7 rings
6 5 7 10 13 16 17 rings
6 8 14 15 19 20 21 rings

>  <PUBCHEM_HEAVY_ATOM_COUNT>  (1) 
23

>  <PUBCHEM_ATOM_DEF_STEREO_COUNT>  (1) 
0

>  <PUBCHEM_ATOM_UDEF_STEREO_COUNT>  (1) 
1

>  <PUBCHEM_BOND_DEF_STEREO_COUNT>  (1) 
0

>  <PUBCHEM_BOND_UDEF_STEREO_COUNT>  (1) 
0

>  <PUBCHEM_ISOTOPIC_ATOM_COUNT>  (1) 
0

>  <PUBCHEM_COMPONENT_COUNT>  (1) 
1

>  <PUBCHEM_CACTVS_TAUTO_COUNT>  (1) 
1

>  <PUBCHEM_CONFORMER_ID>  (1) 
000093280000000D

>  <PUBCHEM_MMFF94_ENERGY>  (1) 
80.8347

>  <PUBCHEM_FEATURE_SELFOVERLAP>  (1) 
30.532

>  <PUBCHEM_SHAPE_FINGERPRINT>  (1) 
10369192 42 17246681755898796532
10764073 3 14399886339646662340
10906281 52 18055925286196320597
11640471 11 17343793870117074065
12160290 23 17907832047459786984
12166972 35 17530970172916915652
12403814 3 18059853931045520902
12422481 6 17845110483856649592
12516196 113 18410299120477971747
12553582 1 18340751689958711046
12596602 18 17603855690810619584
12714826 92 17603576439693485755
12760667 363 18335138665860971490
12788726 201 18190734241591238537
13257819 101 13254525193183289793
133893 2 17981587566417660053
14787075 74 18041847332418519338
14840074 17 17988647436691605444
14863182 85 15880143966677155083
14955137 171 17987815105967300974
15163728 17 10663561278230727123
15527383 91 18271812349403818081
15849732 13 17704072893662781559
15927050 60 17619920891053027348
17492 89 18194401083633995938
17980427 23 17774741778945725601
1813 80 18130520677186578036
18785283 64 17974293419507098624
18927931 339 18270113514435940742
19141452 34 17561358495969272206
20600515 1 18117019757029999031
21029758 27 18411984662991767476
21033648 29 17131542835156788427
21033650 10 14130464248877890870
21041028 32 18412549816147665968
21304303 282 17465631539269501548
22182313 1 18267281240659343536
2297311 6 18339373967898498326
23175994 123 18409172112484974943
23419403 2 18042399295655446821
23557571 272 18269848514821460614
23559900 14 17750516346593177789
23566358 27 18051691345831439327
23622692 88 17489590086542902599
23845131 108 17261890848773199768
25147074 1 17487896933188666503
314173 85 18342186539536820082
329604 57 18260553325056178672
3633792 109 17059472103162171573
469060 322 18265914487771051208
497634 4 17677341511260512374
5104073 3 18268985381356919418
57527295 17 17973129934805387223
69474 34 18343867731486135193
6992083 37 17632578279521668311

>  <PUBCHEM_SHAPE_MULTIPOLES>  (1) 
463.37
10.55
2.92
1.77
13.77
3.58
-1.04
-7.5
3.85
0.38
0.53
-2.13
-0.99
0.74

>  <PUBCHEM_SHAPE_SELFOVERLAP>  (1) 
981.799

>  <PUBCHEM_SHAPE_VOLUME>  (1) 
259.6

>  <PUBCHEM_COORDINATE_TYPE>  (1) 
2
5
10

$$$$
