37685
     RDKit          3D

 23 25  0  0  1  0  0  0  0  0999 V2000
    1.0216    1.5921    0.2777 O   0  0  0  0  0  0  0  0  0  0  0  0
    0.8914   -0.7254    0.6958 N   0  0  0  0  0  0  0  0  0  0  0  0
    4.0880    0.8426    0.1551 N   0  0  0  0  0  0  0  0  0  0  0  0
   -0.7847    0.2255   -0.7102 C   0  0  0  0  0  0  0  0  0  0  0  0
   -0.9800   -1.2641   -0.4990 C   0  0  0  0  0  0  0  0  0  0  0  0
    0.4906    0.4985    0.1398 C   0  0  0  0  0  0  0  0  0  0  0  0
    0.0283   -1.7651    0.3266 C   0  0  0  0  0  0  0  0  0  0  0  0
   -1.9280    1.0266   -0.1733 C   0  0  0  0  0  0  0  0  0  0  0  0
    2.0384   -0.9153    1.5523 C   0  0  0  0  0  0  0  0  0  0  0  0
   -0.5184    0.5713   -2.1724 C   0  0  0  0  0  0  0  0  0  0  0  0
   -1.9646   -2.1008   -1.0011 C   0  0  0  0  0  0  0  0  0  0  0  0
    3.2656   -1.4075    0.7875 C   0  0  0  0  0  0  0  0  0  0  0  0
    0.0853   -3.1032    0.6772 C   0  0  0  0  0  0  0  0  0  0  0  0
   -1.9008    1.4766    1.1446 C   0  0  0  0  0  0  0  0  0  0  0  0
   -3.0148    1.3199   -0.9936 C   0  0  0  0  0  0  0  0  0  0  0  0
    3.7221   -0.4786   -0.3411 C   0  0  0  0  0  0  0  0  0  0  0  0
   -1.9219   -3.4537   -0.6567 C   0  0  0  0  0  0  0  0  0  0  0  0
   -0.9053   -3.9506    0.1758 C   0  0  0  0  0  0  0  0  0  0  0  0
   -2.9668    2.2239    1.6453 C   0  0  0  0  0  0  0  0  0  0  0  0
   -4.0808    2.0673   -0.4927 C   0  0  0  0  0  0  0  0  0  0  0  0
   -4.0568    2.5193    0.8267 C   0  0  0  0  0  0  0  0  0  0  0  0
    4.5085    1.7095   -0.9368 C   0  0  0  0  0  0  0  0  0  0  0  0
    4.8832    3.0911   -0.4277 C   0  0  0  0  0  0  0  0  0  0  0  0
  1  6  2  0
  2  6  1  0
  2  7  1  0
  2  9  1  0
  3 16  1  0
  3 22  1  0
  4  5  1  0
  4  6  1  0
  4  8  1  0
  4 10  1  0
  5  7  2  0
  5 11  1  0
  7 13  1  0
  8 14  2  0
  8 15  1  0
  9 12  1  0
 11 17  2  0
 12 16  1  0
 13 18  2  0
 14 19  1  0
 15 20  2  0
 17 18  1  0
 19 21  2  0
 20 21  1  0
 22 23  1  0
M  END
>  <PUBCHEM_COMPOUND_CID>  (1) 
37685

>  <PUBCHEM_CONFORMER_RMSD>  (1) 
0.8

>  <PUBCHEM_CONFORMER_DIVERSEORDER>  (1) 
14
29
7
63
5
36
53
40
55
51
34
1
65
22
52
57
46
17
26
62
60
12
33
48
64
56
30
61
50
13
11
59
58
25
6
41
44
54
19
28
3
43
35
37
21
47
9
24
16
45
39
42
32
8
49
27
10
23
2
18
4
15
20
31
38

>  <PUBCHEM_MMFF94_PARTIAL_CHARGES>  (1) 
30
1 -0.57
11 -0.15
13 -0.15
14 -0.15
15 -0.15
16 0.27
17 -0.15
18 -0.15
19 -0.15
2 -0.48
20 -0.15
21 -0.15
22 0.27
3 -0.9
31 0.15
32 0.15
33 0.15
34 0.15
37 0.15
38 0.15
39 0.15
4 0.35
40 0.15
41 0.36
42 0.15
5 -0.14
6 0.57
7 0.12
8 -0.14
9 0.3

>  <PUBCHEM_EFFECTIVE_ROTOR_COUNT>  (1) 
6.4

>  <PUBCHEM_PHARMACOPHORE_FEATURES>  (1) 
6
1 1 acceptor
1 3 cation
1 3 donor
5 2 4 5 6 7 rings
6 5 7 11 13 17 18 rings
6 8 14 15 19 20 21 rings

>  <PUBCHEM_HEAVY_ATOM_COUNT>  (1) 
23

>  <PUBCHEM_ATOM_DEF_STEREO_COUNT>  (1) 
0

>  <PUBCHEM_ATOM_UDEF_STEREO_COUNT>  (1) 
1

>  <PUBCHEM_BOND_DEF_STEREO_COUNT>  (1) 
0

>  <PUBCHEM_BOND_UDEF_STEREO_COUNT>  (1) 
0

>  <PUBCHEM_ISOTOPIC_ATOM_COUNT>  (1) 
0

>  <PUBCHEM_COMPONENT_COUNT>  (1) 
1

>  <PUBCHEM_CACTVS_TAUTO_COUNT>  (1) 
1

>  <PUBCHEM_CONFORMER_ID>  (1) 
000093350000000E

>  <PUBCHEM_MMFF94_ENERGY>  (1) 
55.9094

>  <PUBCHEM_FEATURE_SELFOVERLAP>  (1) 
30.53

>  <PUBCHEM_SHAPE_FINGERPRINT>  (1) 
1100329 8 18338510846928020338
11115154 58 17765988790332163111
11578080 2 16554579708796834855
11582403 64 15507671844293743927
12173636 292 18341885307873896198
12633257 1 18261944181790936700
12788726 201 18268699696400095923
12954195 1 18269560592671629038
13140716 1 18336816494977598386
13583140 156 16662315196878369410
14142880 1 18041838553283579956
14178342 30 18194104434389849944
14468879 13 17632866342967915196
14787075 74 18272077310869494503
14790565 3 18339082592568976733
15309172 13 18266172825537157673
16945 1 17901392199418208379
17138139 8 17840546489211566335
18785283 64 18049728412327816963
19591789 44 18338793395209023063
204376 136 18338518526071134433
20739085 24 17619626882649590666
21033650 10 16844465838471699728
21041028 32 17683540797835240147
21524375 3 17915449506944793809
2255824 54 17838054802019940323
22907989 373 18200586028958644286
23227448 37 18338521953566209436
23419403 2 13652581873287118295
23557571 272 18199472241576740940
23558518 356 17973729365762854520
23559900 14 18272087172425817734
25147074 1 18261095405811092274
2748010 2 15232987975266742799
283562 15 17903072575450500306
350125 39 18338519750258289113
3729539 64 17690589402283842462
458136 41 18051976922449416675
469060 322 16516247482088558115
474 4 18196653990894479305
5048184 11 18335704970500504740
6034566 193 17387994198667115556
633830 44 18129106614923277005
81228 2 18189601920750901818
8272917 22 17836082274070347849
9981440 41 16623435602437098216
9999458 23 18121228584119103462

>  <PUBCHEM_SHAPE_MULTIPOLES>  (1) 
457.5
7.6
4.46
1.42
7.07
3.12
0.11
-8.69
0.27
-1.33
-0.21
-0.45
-0.33
-1.84

>  <PUBCHEM_SHAPE_SELFOVERLAP>  (1) 
980.497

>  <PUBCHEM_SHAPE_VOLUME>  (1) 
256.6

>  <PUBCHEM_COORDINATE_TYPE>  (1) 
2
5
10

$$$$
