37689
     RDKit          3D

 23 25  0  0  1  0  0  0  0  0999 V2000
    0.1801    1.1627    2.1045 O   0  0  0  0  0  0  0  0  0  0  0  0
    1.0136   -0.5482    0.7117 N   0  0  0  0  0  0  0  0  0  0  0  0
    4.4871    0.6900    0.2552 N   0  0  0  0  0  0  0  0  0  0  0  0
   -1.3507   -0.2332    0.7572 C   0  0  0  0  0  0  0  0  0  0  0  0
   -0.9308   -1.3469   -0.1836 C   0  0  0  0  0  0  0  0  0  0  0  0
    0.0242    0.2507    1.3040 C   0  0  0  0  0  0  0  0  0  0  0  0
   -2.2165   -0.7430    1.9057 C   0  0  0  0  0  0  0  0  0  0  0  0
    0.4582   -1.4870   -0.1673 C   0  0  0  0  0  0  0  0  0  0  0  0
   -2.0283    0.8891    0.0368 C   0  0  0  0  0  0  0  0  0  0  0  0
    2.4273   -0.4189    0.9750 C   0  0  0  0  0  0  0  0  0  0  0  0
   -1.7154   -2.1667   -0.9796 C   0  0  0  0  0  0  0  0  0  0  0  0
   -1.5272   -1.8600    2.6659 C   0  0  0  0  0  0  0  0  0  0  0  0
    1.1038   -2.4380   -0.9389 C   0  0  0  0  0  0  0  0  0  0  0  0
    3.0621    0.5459   -0.0220 C   0  0  0  0  0  0  0  0  0  0  0  0
   -1.3482    1.5830   -0.9611 C   0  0  0  0  0  0  0  0  0  0  0  0
   -3.3364    1.2350    0.3666 C   0  0  0  0  0  0  0  0  0  0  0  0
   -1.0797   -3.1314   -1.7648 C   0  0  0  0  0  0  0  0  0  0  0  0
    0.3186   -3.2652   -1.7446 C   0  0  0  0  0  0  0  0  0  0  0  0
   -1.9800    2.6293   -1.6331 C   0  0  0  0  0  0  0  0  0  0  0  0
   -3.9682    2.2814   -0.3055 C   0  0  0  0  0  0  0  0  0  0  0  0
   -3.2899    2.9785   -1.3054 C   0  0  0  0  0  0  0  0  0  0  0  0
    5.1065    1.6161   -0.6818 C   0  0  0  0  0  0  0  0  0  0  0  0
    6.5898    1.7772   -0.3949 C   0  0  0  0  0  0  0  0  0  0  0  0
  1  6  2  0
  2  6  1  0
  2  8  1  0
  2 10  1  0
  3 14  1  0
  3 22  1  0
  4  5  1  0
  4  6  1  0
  4  7  1  0
  4  9  1  0
  5  8  2  0
  5 11  1  0
  7 12  1  0
  8 13  1  0
  9 15  2  0
  9 16  1  0
 10 14  1  0
 11 17  2  0
 13 18  2  0
 15 19  1  0
 16 20  2  0
 17 18  1  0
 19 21  2  0
 20 21  1  0
 22 23  1  0
M  END
>  <PUBCHEM_COMPOUND_CID>  (1) 
37689

>  <PUBCHEM_CONFORMER_RMSD>  (1) 
0.8

>  <PUBCHEM_CONFORMER_DIVERSEORDER>  (1) 
1
40
12
39
36
26
17
27
28
30
8
22
16
21
10
37
38
32
9
24
11
34
33
35
15
31
20
13
29
18
25
6
19
5
2
7
3
14
23
4

>  <PUBCHEM_MMFF94_PARTIAL_CHARGES>  (1) 
30
1 -0.57
10 0.3
11 -0.15
13 -0.15
14 0.27
15 -0.15
16 -0.15
17 -0.15
18 -0.15
19 -0.15
2 -0.48
20 -0.15
21 -0.15
22 0.27
28 0.15
3 -0.9
32 0.15
35 0.15
36 0.15
37 0.15
38 0.15
39 0.15
4 0.35
40 0.15
41 0.36
42 0.15
5 -0.14
6 0.57
8 0.12
9 -0.14

>  <PUBCHEM_EFFECTIVE_ROTOR_COUNT>  (1) 
6.4

>  <PUBCHEM_PHARMACOPHORE_FEATURES>  (1) 
7
1 1 acceptor
1 12 hydrophobe
1 3 cation
1 3 donor
5 2 4 5 6 8 rings
6 5 8 11 13 17 18 rings
6 9 15 16 19 20 21 rings

>  <PUBCHEM_HEAVY_ATOM_COUNT>  (1) 
23

>  <PUBCHEM_ATOM_DEF_STEREO_COUNT>  (1) 
0

>  <PUBCHEM_ATOM_UDEF_STEREO_COUNT>  (1) 
1

>  <PUBCHEM_BOND_DEF_STEREO_COUNT>  (1) 
0

>  <PUBCHEM_BOND_UDEF_STEREO_COUNT>  (1) 
0

>  <PUBCHEM_ISOTOPIC_ATOM_COUNT>  (1) 
0

>  <PUBCHEM_COMPONENT_COUNT>  (1) 
1

>  <PUBCHEM_CACTVS_TAUTO_COUNT>  (1) 
1

>  <PUBCHEM_CONFORMER_ID>  (1) 
0000933900000001

>  <PUBCHEM_MMFF94_ENERGY>  (1) 
57.4303

>  <PUBCHEM_FEATURE_SELFOVERLAP>  (1) 
35.605

>  <PUBCHEM_SHAPE_FINGERPRINT>  (1) 
10165383 225 18202010931946617193
105312 117 18343864420594033204
10871710 139 18191305090337709116
10948715 1 18188767224068887977
11578080 2 18056224409129548105
12403814 3 18265062507645162002
12895836 83 18412821400220927704
12895837 130 18189903187770791180
12930653 34 17821738238347282930
13134695 92 16021661477148959615
13149001 5 17488442234942484200
133893 2 17556310466229723834
13583140 156 18044954389123130810
13911987 19 18131072623360336480
13994607 96 17967812794603069700
14468879 13 18335147462022188444
14713325 29 18337109063517211127
15163728 17 18269282265837907212
15463212 79 18337096982465057074
167882 2 18198343953431140246
16945 1 17844505898812442851
17492 54 18192124127932393597
17980427 23 14201686282655014261
17980427 26 17460295673468975986
20101258 96 17974294531787096850
20600515 1 17682156410048932115
21033648 29 15141519109125400621
21285901 2 16837366540318498407
21524375 3 18191005829722194289
21756936 100 17968376849201953464
22907989 373 18198605804343144438
23114952 82 17909266888669072141
23227448 37 17894917347072609596
23419403 2 17836123024709548643
23559900 14 17973442105597162978
238 59 17840870676867908527
2838139 119 18114733829369750380
394222 165 18120083988061398883
46194498 28 17835793102596925381
484985 159 15984547822666734638
497634 4 17271740674035940984
531348 171 18410292532741671782
57527293 21 18335710390896757091
59755656 520 17131290015806386570
6327066 14 18335695018797802780
9862522 239 18408322198565812844

>  <PUBCHEM_SHAPE_MULTIPOLES>  (1) 
457.5
7.98
3.88
2.03
17.09
1.05
-0.78
-9.63
1.18
-2.02
2.72
-1.21
1.06
0.92

>  <PUBCHEM_SHAPE_SELFOVERLAP>  (1) 
982.368

>  <PUBCHEM_SHAPE_VOLUME>  (1) 
254.8

>  <PUBCHEM_COORDINATE_TYPE>  (1) 
2
5
10

$$$$
