37697
     RDKit          3D

 25 28  0  0  1  0  0  0  0  0999 V2000
   -0.5807    1.3087    2.1003 O   0  0  0  0  0  0  0  0  0  0  0  0
    0.2263   -0.5249    0.8559 N   0  0  0  0  0  0  0  0  0  0  0  0
    3.6649    0.7006    0.1437 N   0  0  0  0  0  0  0  0  0  0  0  0
   -2.1392   -0.2338    0.9607 C   0  0  0  0  0  0  0  0  0  0  0  0
   -1.7377   -1.4323    0.1215 C   0  0  0  0  0  0  0  0  0  0  0  0
    1.6467   -0.3536    1.0501 C   0  0  0  0  0  0  0  0  0  0  0  0
    2.2292    0.5124   -0.0629 C   0  0  0  0  0  0  0  0  0  0  0  0
   -0.7523    0.3186    1.4024 C   0  0  0  0  0  0  0  0  0  0  0  0
   -0.3471   -1.5543    0.0984 C   0  0  0  0  0  0  0  0  0  0  0  0
    4.3635   -0.5918    0.1050 C   0  0  0  0  0  0  0  0  0  0  0  0
    4.2106    1.6297   -0.8558 C   0  0  0  0  0  0  0  0  0  0  0  0
    5.8600   -0.4181    0.3682 C   0  0  0  0  0  0  0  0  0  0  0  0
    5.7022    1.8761   -0.6237 C   0  0  0  0  0  0  0  0  0  0  0  0
    6.4850    0.5680   -0.6120 C   0  0  0  0  0  0  0  0  0  0  0  0
   -2.8602    0.8018    0.1576 C   0  0  0  0  0  0  0  0  0  0  0  0
   -2.9537   -0.6345    2.1874 C   0  0  0  0  0  0  0  0  0  0  0  0
   -2.5389   -2.3375   -0.5569 C   0  0  0  0  0  0  0  0  0  0  0  0
    0.2837   -2.5711   -0.5978 C   0  0  0  0  0  0  0  0  0  0  0  0
   -4.2472    0.7485    0.0432 C   0  0  0  0  0  0  0  0  0  0  0  0
   -2.1415    1.8153   -0.4719 C   0  0  0  0  0  0  0  0  0  0  0  0
   -1.9182   -3.3694   -1.2647 C   0  0  0  0  0  0  0  0  0  0  0  0
   -0.5183   -3.4847   -1.2851 C   0  0  0  0  0  0  0  0  0  0  0  0
   -4.9197    1.7143   -0.7056 C   0  0  0  0  0  0  0  0  0  0  0  0
   -2.8141    2.7812   -1.2205 C   0  0  0  0  0  0  0  0  0  0  0  0
   -4.2032    2.7307   -1.3373 C   0  0  0  0  0  0  0  0  0  0  0  0
  1  8  2  0
  2  6  1  0
  2  8  1  0
  2  9  1  0
  3  7  1  0
  3 10  1  0
  3 11  1  0
  4  5  1  0
  4  8  1  0
  4 15  1  0
  4 16  1  0
  5  9  2  0
  5 17  1  0
  6  7  1  0
  9 18  1  0
 10 12  1  0
 11 13  1  0
 12 14  1  0
 13 14  1  0
 15 19  2  0
 15 20  1  0
 17 21  2  0
 18 22  2  0
 19 23  1  0
 20 24  2  0
 21 22  1  0
 23 25  2  0
 24 25  1  0
M  END
>  <PUBCHEM_COMPOUND_CID>  (1) 
37697

>  <PUBCHEM_CONFORMER_RMSD>  (1) 
0.8

>  <PUBCHEM_CONFORMER_DIVERSEORDER>  (1) 
1
5
14
19
32
31
29
30
6
10
26
34
23
7
24
4
37
33
8
11
16
25
12
13
2
17
28
3
21
9
18
22
35
20
36
27
15

>  <PUBCHEM_MMFF94_PARTIAL_CHARGES>  (1) 
30
1 -0.57
10 0.27
11 0.27
15 -0.14
17 -0.15
18 -0.15
19 -0.15
2 -0.48
20 -0.15
21 -0.15
22 -0.15
23 -0.15
24 -0.15
25 -0.15
3 -0.81
4 0.35
43 0.15
44 0.15
45 0.15
46 0.15
47 0.15
48 0.15
49 0.15
5 -0.14
50 0.15
51 0.15
6 0.3
7 0.27
8 0.57
9 0.12

>  <PUBCHEM_EFFECTIVE_ROTOR_COUNT>  (1) 
5.6

>  <PUBCHEM_PHARMACOPHORE_FEATURES>  (1) 
6
1 1 acceptor
1 3 cation
5 2 4 5 8 9 rings
6 15 19 20 23 24 25 rings
6 3 10 11 12 13 14 rings
6 5 9 17 18 21 22 rings

>  <PUBCHEM_HEAVY_ATOM_COUNT>  (1) 
25

>  <PUBCHEM_ATOM_DEF_STEREO_COUNT>  (1) 
0

>  <PUBCHEM_ATOM_UDEF_STEREO_COUNT>  (1) 
1

>  <PUBCHEM_BOND_DEF_STEREO_COUNT>  (1) 
0

>  <PUBCHEM_BOND_UDEF_STEREO_COUNT>  (1) 
0

>  <PUBCHEM_ISOTOPIC_ATOM_COUNT>  (1) 
0

>  <PUBCHEM_COMPONENT_COUNT>  (1) 
1

>  <PUBCHEM_CACTVS_TAUTO_COUNT>  (1) 
1

>  <PUBCHEM_CONFORMER_ID>  (1) 
0000934100000001

>  <PUBCHEM_MMFF94_ENERGY>  (1) 
64.0791

>  <PUBCHEM_FEATURE_SELFOVERLAP>  (1) 
30.533

>  <PUBCHEM_SHAPE_FINGERPRINT>  (1) 
10165383 225 18272094877291217873
105312 117 18412825763548329158
107951 10 18040719143151800547
10871710 139 18190461756065376695
12107183 9 18190730948274806530
12293681 160 17631727158679578081
12403814 3 18336276742115915523
12895836 83 18410568492010138065
12895837 130 18115594884576971228
13149001 5 17559656499198252009
133893 2 17698170543225103315
13583140 156 18113910346536227322
13911987 19 18272932691834203353
14468879 13 18260838059522599017
14713325 29 18335139825818730131
15163728 17 18267592295112420293
15463212 79 18335693988073826850
16752209 62 18200577215865587642
167882 2 18124031234810836991
17492 54 18263339483463301717
17980427 23 17749396953472254989
19958102 18 18343582954080890830
20101258 96 17902241339995981219
20511986 3 18340194272740442178
20602899 9 17989201534516923779
20771845 165 18266467507949929828
21033648 29 18411692201853146248
21756936 100 17822291327361416032
22393880 68 18271248335168815268
22907989 373 18270951470522663943
23114952 82 17908416953707297461
23227448 37 18409167731312462741
23559900 14 17899128313218958474
255183 451 17406263817071598839
268830 7 16950554515832603208
2838139 119 18040989588320224460
3729539 64 18130785599153536208
4015057 19 16271639083655968858
44249763 50 18269262625664768276
531348 171 18408605860108229230
559249 180 18411697686921833306
57527585 21 18048852140916955397
5951187 136 16453724514259970093
59755656 520 17417826027903190867
6327066 14 18334569105926748573
633830 44 17531246184510667722
7237137 82 18200314458498095790

>  <PUBCHEM_SHAPE_MULTIPOLES>  (1) 
498.66
11.83
3.6
1.52
20.78
1.88
-0.56
-8.44
2.67
-3.49
2.41
-1.13
0.05
0.2

>  <PUBCHEM_SHAPE_SELFOVERLAP>  (1) 
1082.002

>  <PUBCHEM_SHAPE_VOLUME>  (1) 
273.8

>  <PUBCHEM_COORDINATE_TYPE>  (1) 
2
5
10

$$$$
