37699
     RDKit          3D

 25 28  0  0  1  0  0  0  0  0999 V2000
   -0.5900   -1.3139   -2.1030 O   0  0  0  0  0  0  0  0  0  0  0  0
    6.3824   -0.5387    0.6604 O   0  0  0  0  0  0  0  0  0  0  0  0
    0.2275    0.5186   -0.8639 N   0  0  0  0  0  0  0  0  0  0  0  0
    3.6635   -0.7172   -0.1624 N   0  0  0  0  0  0  0  0  0  0  0  0
   -2.1393    0.2352   -0.9596 C   0  0  0  0  0  0  0  0  0  0  0  0
   -1.7308    1.4333   -0.1233 C   0  0  0  0  0  0  0  0  0  0  0  0
   -0.7558   -0.3223   -1.4057 C   0  0  0  0  0  0  0  0  0  0  0  0
   -0.3398    1.5508   -0.1054 C   0  0  0  0  0  0  0  0  0  0  0  0
    1.6467    0.3424   -1.0629 C   0  0  0  0  0  0  0  0  0  0  0  0
    2.2303   -0.5241    0.0490 C   0  0  0  0  0  0  0  0  0  0  0  0
   -2.8607   -0.7972   -0.1526 C   0  0  0  0  0  0  0  0  0  0  0  0
   -2.9569    0.6369   -2.1838 C   0  0  0  0  0  0  0  0  0  0  0  0
   -2.5266    2.3420    0.5568 C   0  0  0  0  0  0  0  0  0  0  0  0
    4.3737    0.5689   -0.1292 C   0  0  0  0  0  0  0  0  0  0  0  0
    4.2220   -1.6270    0.8475 C   0  0  0  0  0  0  0  0  0  0  0  0
    0.2970    2.5664    0.5873 C   0  0  0  0  0  0  0  0  0  0  0  0
    5.8676    0.3406   -0.3402 C   0  0  0  0  0  0  0  0  0  0  0  0
    5.7198   -1.8030    0.6146 C   0  0  0  0  0  0  0  0  0  0  0  0
   -4.2471   -0.7391   -0.0332 C   0  0  0  0  0  0  0  0  0  0  0  0
   -2.1430   -1.8123    0.4755 C   0  0  0  0  0  0  0  0  0  0  0  0
   -1.9000    3.3727    1.2611 C   0  0  0  0  0  0  0  0  0  0  0  0
   -0.4996    3.4834    1.2764 C   0  0  0  0  0  0  0  0  0  0  0  0
   -4.9201   -1.7019    0.7191 C   0  0  0  0  0  0  0  0  0  0  0  0
   -2.8161   -2.7750    1.2278 C   0  0  0  0  0  0  0  0  0  0  0  0
   -4.2046   -2.7197    1.3495 C   0  0  0  0  0  0  0  0  0  0  0  0
  1  7  2  0
  2 17  1  0
  2 18  1  0
  3  7  1  0
  3  8  1  0
  3  9  1  0
  4 10  1  0
  4 14  1  0
  4 15  1  0
  5  6  1  0
  5  7  1  0
  5 11  1  0
  5 12  1  0
  6  8  2  0
  6 13  1  0
  8 16  1  0
  9 10  1  0
 11 19  2  0
 11 20  1  0
 13 21  2  0
 14 17  1  0
 15 18  1  0
 16 22  2  0
 19 23  1  0
 20 24  2  0
 21 22  1  0
 23 25  2  0
 24 25  1  0
M  END
>  <PUBCHEM_COMPOUND_CID>  (1) 
37699

>  <PUBCHEM_CONFORMER_RMSD>  (1) 
0.8

>  <PUBCHEM_CONFORMER_DIVERSEORDER>  (1) 
1
34
22
15
25
6
12
30
20
29
7
32
27
23
4
33
11
8
5
21
9
17
13
35
16
28
26
31
3
19
10
14
24
2
18

>  <PUBCHEM_MMFF94_PARTIAL_CHARGES>  (1) 
33
1 -0.57
10 0.27
11 -0.14
13 -0.15
14 0.27
15 0.27
16 -0.15
17 0.28
18 0.28
19 -0.15
2 -0.56
20 -0.15
21 -0.15
22 -0.15
23 -0.15
24 -0.15
25 -0.15
3 -0.48
33 0.15
38 0.15
4 -0.81
43 0.15
44 0.15
45 0.15
46 0.15
47 0.15
48 0.15
49 0.15
5 0.35
6 -0.14
7 0.57
8 0.12
9 0.3

>  <PUBCHEM_EFFECTIVE_ROTOR_COUNT>  (1) 
5.6

>  <PUBCHEM_PHARMACOPHORE_FEATURES>  (1) 
7
1 1 acceptor
1 2 acceptor
1 4 cation
5 3 5 6 7 8 rings
6 11 19 20 23 24 25 rings
6 2 4 14 15 17 18 rings
6 6 8 13 16 21 22 rings

>  <PUBCHEM_HEAVY_ATOM_COUNT>  (1) 
25

>  <PUBCHEM_ATOM_DEF_STEREO_COUNT>  (1) 
0

>  <PUBCHEM_ATOM_UDEF_STEREO_COUNT>  (1) 
1

>  <PUBCHEM_BOND_DEF_STEREO_COUNT>  (1) 
0

>  <PUBCHEM_BOND_UDEF_STEREO_COUNT>  (1) 
0

>  <PUBCHEM_ISOTOPIC_ATOM_COUNT>  (1) 
0

>  <PUBCHEM_COMPONENT_COUNT>  (1) 
1

>  <PUBCHEM_CACTVS_TAUTO_COUNT>  (1) 
1

>  <PUBCHEM_CONFORMER_ID>  (1) 
0000934300000001

>  <PUBCHEM_MMFF94_ENERGY>  (1) 
72.5607

>  <PUBCHEM_FEATURE_SELFOVERLAP>  (1) 
35.607

>  <PUBCHEM_SHAPE_FINGERPRINT>  (1) 
10074138 170 18197777700352729665
10366900 7 18201422658966076282
10906281 52 18058460824434371125
11315181 36 18261109648117557900
11456790 92 18265357130751351139
12082328 90 18341337687809170374
12293681 160 17981300328207339125
12516196 113 18340771549681850611
12553582 1 18130784607343197364
12596602 18 18260265240314560648
12633257 1 18198083536942787059
12760667 363 18408321112071241235
12788726 201 18339380629017935470
13103583 49 18200050545806559547
13140716 1 18273221889289206729
13631057 29 18259986011358241834
14178342 30 18265344910487932374
14251740 79 17894349973102290443
14420673 8 17623292668114465782
14565420 104 17050508647902207337
14787075 74 18117843419956333534
14840074 17 17774725393355294860
14844126 61 18342730793592683907
15338160 23 17988935439723707480
17492 89 18340208480192070374
17780758 139 18336541625771183122
18927931 339 18202562852624144916
20600515 1 18335719234202641109
20681651 13 17750222630722212626
21033648 29 16414661301371206939
21041028 32 18271531999856686433
23419403 2 18265603468015088861
23558518 356 17766277578882687199
23559900 14 17969214719589940165
268830 7 14189287133184277206
329604 57 18335423499934234392
376196 1 16837136317313793589
392239 28 18410862087553097290
484985 159 18261955137567109739
497634 4 18113622266184418126
5104073 3 18340760439534639306
7226269 152 18339921507662411021
9981440 41 17772744970691329487

>  <PUBCHEM_SHAPE_MULTIPOLES>  (1) 
492.79
11.42
3.6
1.52
19.74
1.97
-0.58
-8.44
2.67
-3.3
2.41
-1.1
0.04
0.24

>  <PUBCHEM_SHAPE_SELFOVERLAP>  (1) 
1072.435

>  <PUBCHEM_SHAPE_VOLUME>  (1) 
269.7

>  <PUBCHEM_COORDINATE_TYPE>  (1) 
2
5
10

$$$$
