3769
     RDKit          3D

 15 15  0  0  0  0  0  0  0  0999 V2000
   -4.0956   -0.1034    0.0679 S   0  0  0  0  0  0  0  0  0  0  0  0
   -4.7038   -1.4302    0.7940 O   0  0  0  0  0  0  0  0  0  0  0  0
   -4.5478   -0.0772   -1.3080 O   0  0  0  0  0  0  0  0  0  0  0  0
   -4.2654    1.0301    0.9538 O   0  0  0  0  0  0  0  0  0  0  0  0
    0.5175    1.8719    0.3775 O   0  0  0  0  0  0  0  0  0  0  0  0
   -1.5213    0.3103   -0.6480 N   0  0  0  0  0  0  0  0  0  0  0  0
   -0.2024   -0.1127   -0.5845 N   0  0  0  0  0  0  0  0  0  0  0  0
    4.7131   -0.7691    0.1002 N   0  0  0  0  0  0  0  0  0  0  0  0
   -2.3787   -0.6029    0.1011 C   0  0  0  0  0  0  0  0  0  0  0  0
    2.1336    0.2146    0.0007 C   0  0  0  0  0  0  0  0  0  0  0  0
    0.7456    0.7439   -0.0531 C   0  0  0  0  0  0  0  0  0  0  0  0
    3.1849    1.0991   -0.0353 C   0  0  0  0  0  0  0  0  0  0  0  0
    2.3248   -1.1438    0.0846 C   0  0  0  0  0  0  0  0  0  0  0  0
    4.4585    0.5560    0.0173 C   0  0  0  0  0  0  0  0  0  0  0  0
    3.6370   -1.5865    0.1316 C   0  0  0  0  0  0  0  0  0  0  0  0
  1  2  1  0
  1  3  2  0
  1  4  2  0
  1  9  1  0
  5 11  2  0
  6  7  1  0
  6  9  1  0
  7 11  1  0
  8 14  2  0
  8 15  1  0
 10 11  1  0
 10 12  2  0
 10 13  1  0
 12 14  1  0
 13 15  2  0
M  END
>  <PUBCHEM_COMPOUND_CID>  (1) 
3769

>  <PUBCHEM_CONFORMER_RMSD>  (1) 
0.6

>  <PUBCHEM_CONFORMER_DIVERSEORDER>  (1) 
1
14
15
4
11
12
6
3
7
5
2
13
9
10
8

>  <PUBCHEM_MMFF94_PARTIAL_CHARGES>  (1) 
22
1 1.38
10 0.09
11 0.54
12 -0.15
13 -0.15
14 0.16
15 0.16
18 0.36
19 0.37
2 -0.68
20 0.15
21 0.15
22 0.15
23 0.15
24 0.5
3 -0.65
4 -0.65
5 -0.57
6 -0.64
7 -0.42
8 -0.62
9 0.38

>  <PUBCHEM_EFFECTIVE_ROTOR_COUNT>  (1) 
5

>  <PUBCHEM_PHARMACOPHORE_FEATURES>  (1) 
9
1 2 acceptor
1 3 acceptor
1 4 acceptor
1 5 acceptor
1 6 donor
1 7 donor
1 8 acceptor
4 1 2 3 4 anion
6 8 10 12 13 14 15 rings

>  <PUBCHEM_HEAVY_ATOM_COUNT>  (1) 
15

>  <PUBCHEM_ATOM_DEF_STEREO_COUNT>  (1) 
0

>  <PUBCHEM_ATOM_UDEF_STEREO_COUNT>  (1) 
0

>  <PUBCHEM_BOND_DEF_STEREO_COUNT>  (1) 
0

>  <PUBCHEM_BOND_UDEF_STEREO_COUNT>  (1) 
0

>  <PUBCHEM_ISOTOPIC_ATOM_COUNT>  (1) 
0

>  <PUBCHEM_COMPONENT_COUNT>  (1) 
1

>  <PUBCHEM_CACTVS_TAUTO_COUNT>  (1) 
3

>  <PUBCHEM_CONFORMER_ID>  (1) 
00000EB900000001

>  <PUBCHEM_MMFF94_ENERGY>  (1) 
28.865

>  <PUBCHEM_FEATURE_SELFOVERLAP>  (1) 
47.211

>  <PUBCHEM_SHAPE_FINGERPRINT>  (1) 
10680689 15 16950282906147578685
11287383 113 17022906782706619052
11471102 20 18409726275083066740
124424 183 18411416211670374285
13167823 11 18343863342240860471
13675066 3 18131912654427706457
14123238 8 18411418422982328815
14252887 29 18059863844025452734
15375462 189 18342450452650687610
17834072 33 18341891939208501239
17834074 16 18259985989482407099
200 152 18343864411423557337
20281475 54 18409167752934953119
20432913 95 18333455339243987827
20645477 70 18409445860700021414
22485316 2 18113333111358016051
23402539 116 17632572743572762493
23402655 69 18411699902660286198
23557571 272 16732973185765609660
26918003 58 18333728013959244418
2871803 45 18187642462529001062
33824 294 18334855009478834714
42 15 18409733949815045741
4214541 1 18408886218092606609
5104073 3 18412544297182756497
77779 3 18408042905189667733

>  <PUBCHEM_SHAPE_MULTIPOLES>  (1) 
274.12
11.19
1.45
0.81
6.94
0.04
-0.07
2.16
0.7
-0.67
0.24
0.81
-0.02
0.01

>  <PUBCHEM_SHAPE_SELFOVERLAP>  (1) 
550.376

>  <PUBCHEM_SHAPE_VOLUME>  (1) 
161.6

>  <PUBCHEM_COORDINATE_TYPE>  (1) 
2
5
10

$$$$
