37704
     RDKit          3D

 24 26  0  0  1  0  0  0  0  0999 V2000
    2.0711   -0.3118   -2.2015 O   0  0  0  0  0  0  0  0  0  0  0  0
   -0.2144   -1.2075   -0.6889 N   0  0  0  0  0  0  0  0  0  0  0  0
   -0.8991   -2.2192    0.1135 C   0  0  0  0  0  0  0  0  0  0  0  0
   -2.1868   -2.6594   -0.5914 C   0  0  0  0  0  0  0  0  0  0  0  0
    0.0337   -3.4111    0.3554 C   0  0  0  0  0  0  0  0  0  0  0  0
   -2.8915   -3.7732    0.1812 C   0  0  0  0  0  0  0  0  0  0  0  0
   -0.6738   -4.5235    1.1274 C   0  0  0  0  0  0  0  0  0  0  0  0
   -1.9627   -4.9571    0.4348 C   0  0  0  0  0  0  0  0  0  0  0  0
    1.0469   -0.8206   -0.0573 C   0  0  0  0  0  0  0  0  0  0  0  0
   -1.0713   -0.0370   -0.8768 C   0  0  0  0  0  0  0  0  0  0  0  0
    1.7865    0.2192   -0.9079 C   0  0  0  0  0  0  0  0  0  0  0  0
   -1.4815    0.5631    0.4684 C   0  0  0  0  0  0  0  0  0  0  0  0
    3.0943    0.6302   -0.2676 C   0  0  0  0  0  0  0  0  0  0  0  0
   -2.3840    1.7579    0.2893 C   0  0  0  0  0  0  0  0  0  0  0  0
    3.1102    1.7010    0.6098 C   0  0  0  0  0  0  0  0  0  0  0  0
    4.2469   -0.0735   -0.5721 C   0  0  0  0  0  0  0  0  0  0  0  0
   -1.8257    3.0224    0.1789 C   0  0  0  0  0  0  0  0  0  0  0  0
   -3.7574    1.5723    0.2374 C   0  0  0  0  0  0  0  0  0  0  0  0
    4.3156    2.0798    1.2004 C   0  0  0  0  0  0  0  0  0  0  0  0
    5.4522    0.3054    0.0188 C   0  0  0  0  0  0  0  0  0  0  0  0
   -2.6604    4.1277    0.0129 C   0  0  0  0  0  0  0  0  0  0  0  0
   -4.5920    2.6776    0.0714 C   0  0  0  0  0  0  0  0  0  0  0  0
    5.4866    1.3820    0.9049 C   0  0  0  0  0  0  0  0  0  0  0  0
   -4.0433    3.9553   -0.0410 C   0  0  0  0  0  0  0  0  0  0  0  0
  1 11  1  0
  2  3  1  0
  2  9  1  0
  2 10  1  0
  3  4  1  0
  3  5  1  0
  4  6  1  0
  5  7  1  0
  6  8  1  0
  7  8  1  0
  9 11  1  0
 10 12  1  0
 11 13  1  0
 12 14  1  0
 13 15  2  0
 13 16  1  0
 14 17  2  0
 14 18  1  0
 15 19  1  0
 16 20  2  0
 17 21  1  0
 18 22  2  0
 19 23  2  0
 20 23  1  0
 21 24  2  0
 22 24  1  0
M  END
>  <PUBCHEM_COMPOUND_CID>  (1) 
37704

>  <PUBCHEM_CONFORMER_RMSD>  (1) 
0.8

>  <PUBCHEM_CONFORMER_DIVERSEORDER>  (1) 
1
15
11
18
17
3
5
19
24
27
4
14
12
13
25
2
8
21
23
16
10
9
6
26
7
22
20

>  <PUBCHEM_MMFF94_PARTIAL_CHARGES>  (1) 
30
1 -0.68
10 0.27
11 0.42
12 0.14
13 -0.14
14 -0.14
15 -0.15
16 -0.15
17 -0.15
18 -0.15
19 -0.15
2 -0.81
20 -0.15
21 -0.15
22 -0.15
23 -0.15
24 -0.15
3 0.27
43 0.4
44 0.15
45 0.15
46 0.15
47 0.15
48 0.15
49 0.15
50 0.15
51 0.15
52 0.15
53 0.15
9 0.27

>  <PUBCHEM_EFFECTIVE_ROTOR_COUNT>  (1) 
8.2

>  <PUBCHEM_PHARMACOPHORE_FEATURES>  (1) 
6
1 1 acceptor
1 1 donor
1 2 cation
6 13 15 16 19 20 23 rings
6 14 17 18 21 22 24 rings
6 3 4 5 6 7 8 rings

>  <PUBCHEM_HEAVY_ATOM_COUNT>  (1) 
24

>  <PUBCHEM_ATOM_DEF_STEREO_COUNT>  (1) 
0

>  <PUBCHEM_ATOM_UDEF_STEREO_COUNT>  (1) 
1

>  <PUBCHEM_BOND_DEF_STEREO_COUNT>  (1) 
0

>  <PUBCHEM_BOND_UDEF_STEREO_COUNT>  (1) 
0

>  <PUBCHEM_ISOTOPIC_ATOM_COUNT>  (1) 
0

>  <PUBCHEM_COMPONENT_COUNT>  (1) 
1

>  <PUBCHEM_CACTVS_TAUTO_COUNT>  (1) 
1

>  <PUBCHEM_CONFORMER_ID>  (1) 
0000934800000001

>  <PUBCHEM_MMFF94_ENERGY>  (1) 
62.9137

>  <PUBCHEM_FEATURE_SELFOVERLAP>  (1) 
30.446

>  <PUBCHEM_SHAPE_FINGERPRINT>  (1) 
10074138 170 18265876103157651425
10319926 262 18341880936483308842
10411042 1 17906452486731623343
10688039 33 17980197805352996194
1100329 8 18192997252034372203
11036077 51 18409722954751976906
11833330 49 18121499317503893579
12107183 9 18263631876378799658
12160290 23 18055663782431686951
12293681 160 18049408665509293007
12788726 201 17973178497393902110
13134695 92 16897073943280901621
13540713 4 18060145384033295228
138480 1 17113537013470077401
13955234 65 17761782763065057761
13965767 371 17970061141374143396
14178342 30 18335699498922893430
14866123 147 18409727361436031922
15042514 8 18338238300950824131
15230672 131 18263371283787107846
15775530 1 17986142697252818606
15878777 1 8532884459961532279
15927050 60 18338798897305352662
17980427 26 17979623542387210933
18681886 176 17478323137638483951
20600515 1 17766015160708147267
21033648 29 18340483370625584264
21049683 118 18266716052863723521
21133410 221 17413551229895745400
21304303 282 18266717174087616151
23557571 272 18198918078862676316
23558518 356 18408606976203945798
23845131 108 18263925441345472155
255183 313 18270419273147161483
3091708 16 9125693056152488963
3187 122 17908403003073810832
4058900 60 18124607383214700304
5309563 4 17258215697076518632
57124632 79 17977656516032767737
59755656 520 18337104575613782836
6004065 56 17254547207022353083
6371380 46 18196091050343622726
6442390 28 18337676295558385789
67856867 119 17833265321117069069
7226269 152 18192425484112750447
77188 2 17617661398377895287
7808743 9 18410014360157682684
79837 15 18408888425441962059
81228 2 18053129451079732427
84936 182 17908989807338793329
9658208 31 18339940224644136078
9777508 108 18411699902412249490
9981440 41 18263367993145378993

>  <PUBCHEM_SHAPE_MULTIPOLES>  (1) 
483.06
9.66
6.97
1.07
11.55
5.96
0.26
-9.85
-1.42
-10.87
-1.88
0.77
0.19
0.89

>  <PUBCHEM_SHAPE_SELFOVERLAP>  (1) 
1014.072

>  <PUBCHEM_SHAPE_VOLUME>  (1) 
270.7

>  <PUBCHEM_COORDINATE_TYPE>  (1) 
2
5
10

$$$$
