37706
     RDKit          3D

 15 15  0  0  0  0  0  0  0  0999 V2000
    0.1457   -3.0795   -0.6128 Cl  0  0  0  0  0  0  0  0  0  0  0  0
   -4.2311   -0.1545    0.5193 Cl  0  0  0  0  0  0  0  0  0  0  0  0
    1.5175   -0.4266   -0.6710 O   0  0  0  0  0  0  0  0  0  0  0  0
   -0.2546    3.1635   -0.0145 O   0  0  0  0  0  0  0  0  0  0  0  0
    1.5547    2.0094   -0.4770 O   0  0  0  0  0  0  0  0  0  0  0  0
    1.9379   -0.6121    1.6244 O   0  0  0  0  0  0  0  0  0  0  0  0
    0.3289    2.0736   -0.2229 N   0  0  0  0  0  0  0  0  0  0  0  0
    0.1812   -0.3664   -0.3945 C   0  0  0  0  0  0  0  0  0  0  0  0
   -0.4257    0.8690   -0.1688 C   0  0  0  0  0  0  0  0  0  0  0  0
   -0.5762   -1.5365   -0.3373 C   0  0  0  0  0  0  0  0  0  0  0  0
   -1.7900    0.9345    0.1139 C   0  0  0  0  0  0  0  0  0  0  0  0
   -1.9406   -1.4710   -0.0546 C   0  0  0  0  0  0  0  0  0  0  0  0
   -2.5475   -0.2354    0.1710 C   0  0  0  0  0  0  0  0  0  0  0  0
    2.3286   -0.5553    0.4661 C   0  0  0  0  0  0  0  0  0  0  0  0
    3.7711   -0.6125    0.0588 C   0  0  0  0  0  0  0  0  0  0  0  0
  1 10  1  0
  2 13  1  0
  3  8  1  0
  3 14  1  0
  4  7  1  0
  5  7  2  0
  6 14  2  0
  7  9  1  0
  8  9  2  0
  8 10  1  0
  9 11  1  0
 10 12  2  0
 11 13  2  0
 12 13  1  0
 14 15  1  0
M  CHG  2   4  -1   7   1
M  END
>  <PUBCHEM_COMPOUND_CID>  (1) 
37706

>  <PUBCHEM_CONFORMER_RMSD>  (1) 
0.6

>  <PUBCHEM_CONFORMER_DIVERSEORDER>  (1) 
1
4
2
6
5
3

>  <PUBCHEM_MMFF94_PARTIAL_CHARGES>  (1) 
17
1 -0.18
10 0.18
11 -0.15
12 -0.15
13 0.18
14 0.66
15 0.06
16 0.15
17 0.15
2 -0.18
3 -0.23
4 -0.52
5 -0.52
6 -0.57
7 0.91
8 0.08
9 0.13

>  <PUBCHEM_EFFECTIVE_ROTOR_COUNT>  (1) 
3

>  <PUBCHEM_PHARMACOPHORE_FEATURES>  (1) 
5
1 4 acceptor
1 4 anion
1 5 acceptor
1 6 acceptor
6 8 9 10 11 12 13 rings

>  <PUBCHEM_HEAVY_ATOM_COUNT>  (1) 
15

>  <PUBCHEM_ATOM_DEF_STEREO_COUNT>  (1) 
0

>  <PUBCHEM_ATOM_UDEF_STEREO_COUNT>  (1) 
0

>  <PUBCHEM_BOND_DEF_STEREO_COUNT>  (1) 
0

>  <PUBCHEM_BOND_UDEF_STEREO_COUNT>  (1) 
0

>  <PUBCHEM_ISOTOPIC_ATOM_COUNT>  (1) 
0

>  <PUBCHEM_COMPONENT_COUNT>  (1) 
1

>  <PUBCHEM_CACTVS_TAUTO_COUNT>  (1) 
1

>  <PUBCHEM_CONFORMER_ID>  (1) 
0000934A00000001

>  <PUBCHEM_MMFF94_ENERGY>  (1) 
46.0953

>  <PUBCHEM_FEATURE_SELFOVERLAP>  (1) 
25.453

>  <PUBCHEM_SHAPE_FINGERPRINT>  (1) 
10130415 120 18260831509766057315
10219947 1 18411984645964794635
10967382 1 18411422812534084815
12382932 28 18266179418422824393
13140716 1 18268156520976810947
13172582 1 18411982476948268323
14993402 34 18410855477318808039
15375462 189 17967808358060244914
16945 1 18411423886645134951
193761 8 17835240425682711175
20510252 161 18199466580440826632
20511035 2 17771623730760712263
20645477 70 18335702797616129615
20871998 184 18267578014171613452
21501502 16 18123471841538255439
22344851 262 18202280308063933711
22344851 341 17476930524087495992
22802520 49 17696199105864693294
2334 1 18123472953987493615
23388829 49 18412820266311975759
23402539 116 18272359854581236767
23419403 2 15899174103307830071
23463225 33 18408605842247748087
23552423 10 17688027930562778717
23558518 356 17112137893366402885
241688 4 17762634892813051563
2748010 2 18410285934701454645
43471831 8 18191867825385113818
528862 383 18190459548536790081
589210 1 17834957855346967142
7364860 26 18125439967025056704
81228 2 17975144136569451129

>  <PUBCHEM_SHAPE_MULTIPOLES>  (1) 
283.97
4.88
2.82
0.86
1.05
0.57
-0.21
-0.73
-1.26
-0.22
0.66
-0.29
-0.15
-0.17

>  <PUBCHEM_SHAPE_SELFOVERLAP>  (1) 
580.775

>  <PUBCHEM_SHAPE_VOLUME>  (1) 
165.8

>  <PUBCHEM_COORDINATE_TYPE>  (1) 
2
5
10

$$$$
