37708
     RDKit          3D

 20 20  0  0  1  0  0  0  0  0999 V2000
   -2.9831   -1.4525   -0.8071 O   0  0  0  0  0  0  0  0  0  0  0  0
   -4.6381   -1.1346    0.7113 O   0  0  0  0  0  0  0  0  0  0  0  0
    2.0544   -3.6964    0.3957 O   0  0  0  0  0  0  0  0  0  0  0  0
    5.2043    0.8495   -0.2441 O   0  0  0  0  0  0  0  0  0  0  0  0
    0.7289   -2.6137   -1.0959 O   0  0  0  0  0  0  0  0  0  0  0  0
    3.6396    1.7535    1.1303 O   0  0  0  0  0  0  0  0  0  0  0  0
   -4.8747    1.4604   -0.1494 N   0  0  0  0  0  0  0  0  0  0  0  0
   -1.1334    1.1717    0.2962 C   0  0  0  0  0  0  0  0  0  0  0  0
   -2.5715    1.4155    0.6924 C   0  0  0  0  0  0  0  0  0  0  0  0
    0.8375   -0.1927    0.3830 C   0  0  0  0  0  0  0  0  0  0  0  0
    1.5018    0.7258   -0.4300 C   0  0  0  0  0  0  0  0  0  0  0  0
   -0.4897    0.0320    0.7487 C   0  0  0  0  0  0  0  0  0  0  0  0
   -3.5753    0.8094   -0.3007 C   0  0  0  0  0  0  0  0  0  0  0  0
   -0.4881    2.0934   -0.5114 C   0  0  0  0  0  0  0  0  0  0  0  0
    0.8390    1.8688   -0.8771 C   0  0  0  0  0  0  0  0  0  0  0  0
    1.5263   -1.4236    0.8734 C   0  0  0  0  0  0  0  0  0  0  0  0
    2.9225    0.5069   -0.8351 C   0  0  0  0  0  0  0  0  0  0  0  0
   -3.8004   -0.6724   -0.0528 C   0  0  0  0  0  0  0  0  0  0  0  0
    1.3763   -2.6094   -0.0579 C   0  0  0  0  0  0  0  0  0  0  0  0
    3.9236    1.1085    0.1303 C   0  0  0  0  0  0  0  0  0  0  0  0
  1 18  1  0
  2 18  2  0
  3 19  1  0
  4 20  1  0
  5 19  2  0
  6 20  2  0
  7 13  1  0
  8  9  1  0
  8 12  2  0
  8 14  1  0
  9 13  1  0
 10 11  2  0
 10 12  1  0
 10 16  1  0
 11 15  1  0
 11 17  1  0
 13 18  1  0
 14 15  2  0
 16 19  1  0
 17 20  1  0
M  END
>  <PUBCHEM_COMPOUND_CID>  (1) 
37708

>  <PUBCHEM_CONFORMER_RMSD>  (1) 
0.8

>  <PUBCHEM_CONFORMER_DIVERSEORDER>  (1) 
1
88
75
64
97
40
82
56
87
73
98
77
15
52
8
58
81
76
37
65
94
42
11
79
83
54
13
66
100
89
95
90
68
44
86
7
63
33
49
45
78
91
22
50
96
53
70
55
72
85
35
2
46
71
34
57
27
99
74
29
47
93
61
19
9
59
16
41
24
80
84
21
25
51
92
12
39
36
23
67
38
48
69
17
4
6
62
26
60
14
20
28
10
30
5
32
18
43
31
3

>  <PUBCHEM_MMFF94_PARTIAL_CHARGES>  (1) 
28
1 -0.65
10 -0.14
11 -0.14
12 -0.15
13 0.33
14 -0.15
15 -0.15
16 0.2
17 0.2
18 0.66
19 0.66
2 -0.57
20 0.66
24 0.15
25 0.15
26 0.15
3 -0.65
31 0.36
32 0.36
33 0.5
34 0.5
35 0.5
4 -0.65
5 -0.57
6 -0.57
7 -0.99
8 -0.14
9 0.14

>  <PUBCHEM_EFFECTIVE_ROTOR_COUNT>  (1) 
7

>  <PUBCHEM_PHARMACOPHORE_FEATURES>  (1) 
12
1 1 acceptor
1 2 acceptor
1 3 acceptor
1 4 acceptor
1 5 acceptor
1 6 acceptor
1 7 cation
1 7 donor
3 1 2 18 anion
3 3 5 19 anion
3 4 6 20 anion
6 8 10 11 12 14 15 rings

>  <PUBCHEM_HEAVY_ATOM_COUNT>  (1) 
20

>  <PUBCHEM_ATOM_DEF_STEREO_COUNT>  (1) 
0

>  <PUBCHEM_ATOM_UDEF_STEREO_COUNT>  (1) 
1

>  <PUBCHEM_BOND_DEF_STEREO_COUNT>  (1) 
0

>  <PUBCHEM_BOND_UDEF_STEREO_COUNT>  (1) 
0

>  <PUBCHEM_ISOTOPIC_ATOM_COUNT>  (1) 
0

>  <PUBCHEM_COMPONENT_COUNT>  (1) 
1

>  <PUBCHEM_CACTVS_TAUTO_COUNT>  (1) 
1

>  <PUBCHEM_CONFORMER_ID>  (1) 
0000934C00000001

>  <PUBCHEM_MMFF94_ENERGY>  (1) 
36.1221

>  <PUBCHEM_FEATURE_SELFOVERLAP>  (1) 
61.074

>  <PUBCHEM_SHAPE_FINGERPRINT>  (1) 
10616163 171 18411140281560006111
11578080 2 16518205476507066798
116883 192 17976819788005471797
12293681 25 17605301560447395267
12839892 36 18337092515461803234
13083527 12 17970890199122267594
13134695 92 13045942438509670662
13140716 1 17979080706219245467
14178342 30 18410297986511835345
14787075 74 17773027789956283320
14790565 3 18263932192744827268
14863182 85 18261969508327026886
16945 1 17968108529019350396
17349148 13 17967814972194004888
20028762 73 18055355991932625254
20645477 70 18263358097582471655
21054139 6 18341602780693709815
21618674 54 18409448055770622715
23402539 116 17822005423714799324
23559900 14 18124301710518298906
2748010 2 17680712518878953060
34934 24 18336543833421510645
4072396 5 18040984138312589808
474229 33 18335702784261566932
5104073 3 18337112268116371385
59755656 215 18263082128437564052
7364860 26 18268710502816789978

>  <PUBCHEM_SHAPE_MULTIPOLES>  (1) 
371.39
8.31
3.05
0.96
3.44
2.86
0
-2
0.35
-1.58
-0.2
-0.2
0
-0.01

>  <PUBCHEM_SHAPE_SELFOVERLAP>  (1) 
770.953

>  <PUBCHEM_SHAPE_VOLUME>  (1) 
210.1

>  <PUBCHEM_COORDINATE_TYPE>  (1) 
2
5
10

$$$$
