37701
     RDKit          3D

 25 27  0  0  1  0  0  0  0  0999 V2000
   -0.0869    1.3741   -1.5483 O   0  0  0  0  0  0  0  0  0  0  0  0
   -0.3319   -0.7431   -0.5389 N   0  0  0  0  0  0  0  0  0  0  0  0
   -4.4563    0.4839    0.1066 N   0  0  0  0  0  0  0  0  0  0  0  0
    1.8886   -0.0102   -1.0115 C   0  0  0  0  0  0  0  0  0  0  0  0
    1.8556   -1.3748   -0.3493 C   0  0  0  0  0  0  0  0  0  0  0  0
    0.3733    0.3385   -1.0873 C   0  0  0  0  0  0  0  0  0  0  0  0
    0.5348   -1.7522   -0.0995 C   0  0  0  0  0  0  0  0  0  0  0  0
   -1.7708   -0.8082   -0.4397 C   0  0  0  0  0  0  0  0  0  0  0  0
    2.5971    1.0068   -0.1740 C   0  0  0  0  0  0  0  0  0  0  0  0
    2.4804   -0.0643   -2.4170 C   0  0  0  0  0  0  0  0  0  0  0  0
   -2.2835   -0.3745    0.9323 C   0  0  0  0  0  0  0  0  0  0  0  0
    2.9073   -2.2094   -0.0046 C   0  0  0  0  0  0  0  0  0  0  0  0
   -3.8083   -0.3945    1.0731 C   0  0  0  0  0  0  0  0  0  0  0  0
    0.2231   -2.9609    0.4991 C   0  0  0  0  0  0  0  0  0  0  0  0
    3.9694    1.1927   -0.3223 C   0  0  0  0  0  0  0  0  0  0  0  0
    1.8815    1.7634    0.7507 C   0  0  0  0  0  0  0  0  0  0  0  0
    2.6101   -3.4327    0.6007 C   0  0  0  0  0  0  0  0  0  0  0  0
    1.2788   -3.8048    0.8507 C   0  0  0  0  0  0  0  0  0  0  0  0
   -4.0129    1.8672    0.2887 C   0  0  0  0  0  0  0  0  0  0  0  0
   -5.9128    0.3979    0.2270 C   0  0  0  0  0  0  0  0  0  0  0  0
    4.6302    2.1407    0.4590 C   0  0  0  0  0  0  0  0  0  0  0  0
    2.5421    2.7116    1.5319 C   0  0  0  0  0  0  0  0  0  0  0  0
    3.9165    2.9001    1.3860 C   0  0  0  0  0  0  0  0  0  0  0  0
   -4.6297    2.7833   -0.7546 C   0  0  0  0  0  0  0  0  0  0  0  0
   -6.3957   -1.0306    0.0413 C   0  0  0  0  0  0  0  0  0  0  0  0
  1  6  2  0
  2  6  1  0
  2  7  1  0
  2  8  1  0
  3 13  1  0
  3 19  1  0
  3 20  1  0
  4  5  1  0
  4  6  1  0
  4  9  1  0
  4 10  1  0
  5  7  2  0
  5 12  1  0
  7 14  1  0
  8 11  1  0
  9 15  2  0
  9 16  1  0
 11 13  1  0
 12 17  2  0
 14 18  2  0
 15 21  1  0
 16 22  2  0
 17 18  1  0
 19 24  1  0
 20 25  1  0
 21 23  2  0
 22 23  1  0
M  END
>  <PUBCHEM_COMPOUND_CID>  (1) 
37701

>  <PUBCHEM_CONFORMER_RMSD>  (1) 
0.8

>  <PUBCHEM_CONFORMER_DIVERSEORDER>  (1) 
1
24
87
71
94
98
82
57
79
81
55
29
100
11
53
85
54
43
60
14
18
74
93
63
50
89
30
66
90
77
62
83
36
31
86
61
97
80
58
8
21
48
73
19
41
78
84
65
91
34
20
47
76
7
56
26
27
69
32
42
15
44
3
64
40
67
59
25
75
12
33
88
23
70
68
51
2
16
28
46
6
35
96
92
52
5
39
72
45
37
4
9
38
49
17
99
10
95
22
13

>  <PUBCHEM_MMFF94_PARTIAL_CHARGES>  (1) 
30
1 -0.57
12 -0.15
13 0.27
14 -0.15
15 -0.15
16 -0.15
17 -0.15
18 -0.15
19 0.27
2 -0.48
20 0.27
21 -0.15
22 -0.15
23 -0.15
3 -0.81
33 0.15
36 0.15
37 0.15
38 0.15
39 0.15
4 0.35
40 0.15
45 0.15
46 0.15
47 0.15
5 -0.14
6 0.57
7 0.12
8 0.3
9 -0.14

>  <PUBCHEM_EFFECTIVE_ROTOR_COUNT>  (1) 
7.4

>  <PUBCHEM_PHARMACOPHORE_FEATURES>  (1) 
5
1 1 acceptor
1 3 cation
5 2 4 5 6 7 rings
6 5 7 12 14 17 18 rings
6 9 15 16 21 22 23 rings

>  <PUBCHEM_HEAVY_ATOM_COUNT>  (1) 
25

>  <PUBCHEM_ATOM_DEF_STEREO_COUNT>  (1) 
0

>  <PUBCHEM_ATOM_UDEF_STEREO_COUNT>  (1) 
1

>  <PUBCHEM_BOND_DEF_STEREO_COUNT>  (1) 
0

>  <PUBCHEM_BOND_UDEF_STEREO_COUNT>  (1) 
0

>  <PUBCHEM_ISOTOPIC_ATOM_COUNT>  (1) 
0

>  <PUBCHEM_COMPONENT_COUNT>  (1) 
1

>  <PUBCHEM_CACTVS_TAUTO_COUNT>  (1) 
1

>  <PUBCHEM_CONFORMER_ID>  (1) 
0000934500000001

>  <PUBCHEM_MMFF94_ENERGY>  (1) 
67.723

>  <PUBCHEM_FEATURE_SELFOVERLAP>  (1) 
25.457

>  <PUBCHEM_SHAPE_FINGERPRINT>  (1) 
10165383 225 18335144236945224884
1100329 8 18411415095095565202
11582403 64 17988076824231652494
12633257 1 18266726060807559168
12769317 202 18201432592782781872
13140716 1 18334010618692514122
13402501 40 18270962461618898129
13533116 47 18336549331348830331
13583140 156 18412552024356532939
13878862 14 18119791544450786301
13965767 371 18115012095883921624
14178342 30 18116998986183481587
146900 427 18272664450089523643
14790565 3 18043269000953617716
14849402 71 18410577284272111488
15475509 84 17905890271254279928
15927050 60 18339641261088921902
17868525 174 17975689489835963585
17980427 26 18342443868724383878
18681886 176 18128814153357523603
20567600 254 18339919428222759817
20739085 24 18113336384413103404
21033648 29 18267866275228892008
21120745 212 17259356466624863950
21403212 168 18271515477591824080
21452121 103 18408881815550609858
21475661 188 18058448888493259416
22149856 69 18116740520580725819
22393880 68 18341060622877181599
23419403 2 17825930564567473230
23558518 356 17766271355517338310
23559900 14 18041008297783074443
23845131 108 18263921197422853835
268830 7 17916882231321616129
2838139 119 16845578659723234112
350125 39 18261957337011923036
376196 1 17630597041289267784
427121 178 18337110172014041962
4340502 62 18340208599875888419
469060 322 18043514218163821647
474 4 18128820917930326281
495365 180 18335422357051356291
5104073 3 18335992961332481081
57124632 79 18339631291725328320
58807428 26 18261944267337043250
5895379 119 16985759597483707673
6442390 28 18337109063722828996
6443956 14 17976824181472639950
67856867 119 18338513041719845915
7808743 9 17975425929505883596
84936 182 18413390916825260968
9777508 108 18121785190411636170

>  <PUBCHEM_SHAPE_MULTIPOLES>  (1) 
498.66
10.97
4.16
1.41
19.42
1.92
-0.46
-6.18
1.46
-3.82
1.69
-0.98
-0.45
1.29

>  <PUBCHEM_SHAPE_SELFOVERLAP>  (1) 
1060.978

>  <PUBCHEM_SHAPE_VOLUME>  (1) 
281.3

>  <PUBCHEM_COORDINATE_TYPE>  (1) 
2
5
10

$$$$
