37714
     RDKit          3D

  7  6  0  0  0  0  0  0  0  0999 V2000
    0.3394   -0.5481    0.0007 O   0  0  0  0  0  0  0  0  0  0  0  0
    2.5365   -0.8481   -0.0034 O   0  0  0  0  0  0  0  0  0  0  0  0
    1.7450    1.2880    0.0008 O   0  0  0  0  0  0  0  0  0  0  0  0
   -2.0542   -0.5586    0.0050 C   0  0  0  0  0  0  0  0  0  0  0  0
   -0.7996    0.3012    0.0040 C   0  0  0  0  0  0  0  0  0  0  0  0
   -3.3167    0.2843   -0.0065 C   0  0  0  0  0  0  0  0  0  0  0  0
    1.5496    0.0814   -0.0006 C   0  0  0  0  0  0  0  0  0  0  0  0
  1  5  1  0
  1  7  1  0
  2  7  1  0
  3  7  2  0
  4  5  1  0
  4  6  1  0
M  END
>  <PUBCHEM_COMPOUND_CID>  (1) 
37714

>  <PUBCHEM_CONFORMER_RMSD>  (1) 
0.4

>  <PUBCHEM_CONFORMER_DIVERSEORDER>  (1) 
1
25
29
3
27
30
2
26
28
9
4
19
22
5
8
13
23
6
7
21
12
20
11
15
17
24
14
18
16
10

>  <PUBCHEM_MMFF94_PARTIAL_CHARGES>  (1) 
6
1 -0.43
15 0.5
2 -0.65
3 -0.57
5 0.28
7 0.87

>  <PUBCHEM_EFFECTIVE_ROTOR_COUNT>  (1) 
3

>  <PUBCHEM_PHARMACOPHORE_FEATURES>  (1) 
4
1 2 acceptor
1 3 acceptor
1 6 hydrophobe
3 2 3 7 anion

>  <PUBCHEM_HEAVY_ATOM_COUNT>  (1) 
7

>  <PUBCHEM_ATOM_DEF_STEREO_COUNT>  (1) 
0

>  <PUBCHEM_ATOM_UDEF_STEREO_COUNT>  (1) 
0

>  <PUBCHEM_BOND_DEF_STEREO_COUNT>  (1) 
0

>  <PUBCHEM_BOND_UDEF_STEREO_COUNT>  (1) 
0

>  <PUBCHEM_ISOTOPIC_ATOM_COUNT>  (1) 
0

>  <PUBCHEM_COMPONENT_COUNT>  (1) 
1

>  <PUBCHEM_CACTVS_TAUTO_COUNT>  (1) 
1

>  <PUBCHEM_CONFORMER_ID>  (1) 
0000935200000001

>  <PUBCHEM_MMFF94_ENERGY>  (1) 
3.8641

>  <PUBCHEM_FEATURE_SELFOVERLAP>  (1) 
20.354

>  <PUBCHEM_SHAPE_FINGERPRINT>  (1) 
12932764 1 17313094259548977619
14325111 11 18410574015638293315
14390081 3 18412542150042141913
20096714 4 18339924934428738496
29004967 10 18334297586477864616
5460574 1 9223234044209257731

>  <PUBCHEM_SHAPE_MULTIPOLES>  (1) 
126.45
4.62
0.96
0.57
1.92
0.14
0
-0.01
0.01
-0.41
0
0.08
0
0

>  <PUBCHEM_SHAPE_SELFOVERLAP>  (1) 
227.472

>  <PUBCHEM_SHAPE_VOLUME>  (1) 
81.7

>  <PUBCHEM_COORDINATE_TYPE>  (1) 
2
5
10

$$$$
