37716
     RDKit          3D

 34 36  0  0  1  0  0  0  0  0999 V2000
    2.1538   -0.9842    0.0144 O   0  0  0  0  0  0  0  0  0  0  0  0
   -1.5510   -0.3475    3.0175 O   0  0  0  0  0  0  0  0  0  0  0  0
    1.1946   -1.0592    2.7038 O   0  0  0  0  0  0  0  0  0  0  0  0
    3.8838    0.5565   -0.2634 O   0  0  0  0  0  0  0  0  0  0  0  0
    0.7163    2.0010   -2.5694 O   0  0  0  0  0  0  0  0  0  0  0  0
   -5.2455    2.3319    0.1783 O   0  0  0  0  0  0  0  0  0  0  0  0
    4.0688   -3.0394    0.3569 O   0  0  0  0  0  0  0  0  0  0  0  0
   -4.8508   -0.8910    1.8537 O   0  0  0  0  0  0  0  0  0  0  0  0
    6.5955   -2.4308   -1.0310 O   0  0  0  0  0  0  0  0  0  0  0  0
    7.5294    0.2111   -0.3209 O   0  0  0  0  0  0  0  0  0  0  0  0
   -7.3012    0.3334   -0.4941 O   0  0  0  0  0  0  0  0  0  0  0  0
    4.5599    3.1929    0.1222 O   0  0  0  0  0  0  0  0  0  0  0  0
   -6.1210   -2.8383   -1.9345 O   0  0  0  0  0  0  0  0  0  0  0  0
   -2.3655    0.0572    0.3301 N   0  0  0  0  0  0  0  0  0  0  0  0
   -1.4802    1.0146    1.0028 C   0  0  0  0  0  0  0  0  0  0  0  0
    0.5244    0.7171   -0.5636 C   0  0  0  0  0  0  0  0  0  0  0  0
    1.2998    0.0193    0.5682 C   0  0  0  0  0  0  0  0  0  0  0  0
   -0.5296    1.6839    0.0007 C   0  0  0  0  0  0  0  0  0  0  0  0
   -0.6751    0.3439    2.1269 C   0  0  0  0  0  0  0  0  0  0  0  0
    0.3803   -0.6351    1.6055 C   0  0  0  0  0  0  0  0  0  0  0  0
   -3.4746    0.7555   -0.3276 C   0  0  0  0  0  0  0  0  0  0  0  0
    1.4756    1.4634   -1.5047 C   0  0  0  0  0  0  0  0  0  0  0  0
    3.5259   -0.7065    0.2926 C   0  0  0  0  0  0  0  0  0  0  0  0
   -4.5158    1.2239    0.7110 C   0  0  0  0  0  0  0  0  0  0  0  0
    4.3670   -1.8225   -0.3269 C   0  0  0  0  0  0  0  0  0  0  0  0
   -5.5115    0.1240    1.1009 C   0  0  0  0  0  0  0  0  0  0  0  0
    5.8617   -1.5252   -0.2053 C   0  0  0  0  0  0  0  0  0  0  0  0
   -4.0741   -0.1364   -1.3843 C   0  0  0  0  0  0  0  0  0  0  0  0
    6.1819   -0.1023   -0.6633 C   0  0  0  0  0  0  0  0  0  0  0  0
    5.2431    0.9069    0.0023 C   0  0  0  0  0  0  0  0  0  0  0  0
   -6.2064   -0.5041   -0.1208 C   0  0  0  0  0  0  0  0  0  0  0  0
   -5.2998   -0.6860   -1.3185 C   0  0  0  0  0  0  0  0  0  0  0  0
    5.4658    2.3199   -0.5273 C   0  0  0  0  0  0  0  0  0  0  0  0
   -5.8254   -1.5478   -2.4320 C   0  0  0  0  0  0  0  0  0  0  0  0
  1 17  1  0
  1 23  1  0
  2 19  1  0
  3 20  1  0
  4 23  1  0
  4 30  1  0
  5 22  1  0
  6 24  1  0
  7 25  1  0
  8 26  1  0
  9 27  1  0
 10 29  1  0
 11 31  1  0
 12 33  1  0
 13 34  1  0
 14 15  1  0
 14 21  1  0
 15 18  1  0
 15 19  1  0
 16 17  1  0
 16 18  1  0
 16 22  1  0
 17 20  1  0
 19 20  1  0
 21 24  1  0
 21 28  1  0
 23 25  1  0
 24 26  1  0
 25 27  1  0
 26 31  1  0
 27 29  1  0
 28 32  2  0
 29 30  1  0
 30 33  1  0
 31 32  1  0
 32 34  1  0
M  END
>  <PUBCHEM_COMPOUND_CID>  (1) 
37716

>  <PUBCHEM_CONFORMER_RMSD>  (1) 
1

>  <PUBCHEM_CONFORMER_DIVERSEORDER>  (1) 
1
37
17
4
34
35
32
51
18
52
27
47
31
53
43
21
14
39
12
28
49
41
54
42
8
45
16
5
20
25
44
38
24
15
46
7
30
19
13
36
33
40
29
23
50
22
6
10
3
2
11
26
9
48

>  <PUBCHEM_MMFF94_PARTIAL_CHARGES>  (1) 
45
1 -0.56
10 -0.68
11 -0.68
12 -0.68
13 -0.68
14 -0.9
15 0.27
17 0.28
19 0.28
2 -0.68
20 0.28
21 0.41
22 0.28
23 0.56
24 0.28
25 0.28
26 0.28
27 0.28
28 -0.29
29 0.28
3 -0.68
30 0.28
31 0.42
32 -0.28
33 0.28
34 0.42
4 -0.56
42 0.36
5 -0.68
51 0.15
52 0.4
53 0.4
57 0.4
6 -0.68
60 0.4
63 0.4
64 0.4
65 0.4
66 0.4
67 0.4
68 0.4
69 0.4
7 -0.68
8 -0.68
9 -0.68

>  <PUBCHEM_EFFECTIVE_ROTOR_COUNT>  (1) 
10.2

>  <PUBCHEM_PHARMACOPHORE_FEATURES>  (1) 
29
1 1 acceptor
1 10 acceptor
1 10 donor
1 11 acceptor
1 11 donor
1 12 acceptor
1 12 donor
1 13 acceptor
1 13 donor
1 14 cation
1 14 donor
1 2 acceptor
1 2 donor
1 3 acceptor
1 3 donor
1 4 acceptor
1 5 acceptor
1 5 donor
1 6 acceptor
1 6 donor
1 7 acceptor
1 7 donor
1 8 acceptor
1 8 donor
1 9 acceptor
1 9 donor
6 15 16 17 18 19 20 rings
6 21 24 26 28 31 32 rings
6 4 23 25 27 29 30 rings

>  <PUBCHEM_HEAVY_ATOM_COUNT>  (1) 
34

>  <PUBCHEM_ATOM_DEF_STEREO_COUNT>  (1) 
13

>  <PUBCHEM_ATOM_UDEF_STEREO_COUNT>  (1) 
1

>  <PUBCHEM_BOND_DEF_STEREO_COUNT>  (1) 
0

>  <PUBCHEM_BOND_UDEF_STEREO_COUNT>  (1) 
0

>  <PUBCHEM_ISOTOPIC_ATOM_COUNT>  (1) 
0

>  <PUBCHEM_COMPONENT_COUNT>  (1) 
1

>  <PUBCHEM_CACTVS_TAUTO_COUNT>  (1) 
1

>  <PUBCHEM_CONFORMER_ID>  (1) 
0000935400000001

>  <PUBCHEM_MMFF94_ENERGY>  (1) 
82.3732

>  <PUBCHEM_FEATURE_SELFOVERLAP>  (1) 
147.292

>  <PUBCHEM_SHAPE_FINGERPRINT>  (1) 
10299344 5 18060701689081374983
11135926 11 17313384470315388123
117089 54 18051971717604156583
11796584 16 17775002324161589447
11963148 33 16200425858233674262
12166972 35 17989490697944238568
12236239 1 18273217477935222092
13533116 47 18412830192356436836
1361 2 18408884053608327166
13690498 29 18201429290907225749
13782708 43 16845279584239173167
14856354 85 17275107236937938293
15183329 4 18410571781954969842
15799311 1 17704081697982131351
21223535 225 17750511789295851885
21521239 73 18261667159788080551
21781051 124 15626233433369064012
23522609 53 17630633256116216529
23559900 14 17749404671792281096
23569914 152 16962062854379018583
23569943 247 17825667751182044546
24771293 8 17967538982492301516
3004659 81 18131348575383566242
392239 28 10807928263191290059
4015057 19 18335425711210019521
439807 62 18060134393074964951
465052 167 16415476077735574454
77296 10 18344148094114191540

>  <PUBCHEM_SHAPE_MULTIPOLES>  (1) 
618.42
19.54
2.5
2.11
0.35
0.38
-0.64
5.78
6.63
2.13
0.92
-2.22
0.31
-2.15

>  <PUBCHEM_SHAPE_SELFOVERLAP>  (1) 
1277.56

>  <PUBCHEM_SHAPE_VOLUME>  (1) 
347.5

>  <PUBCHEM_COORDINATE_TYPE>  (1) 
2
5
10

$$$$
