37717
     RDKit          3D

 47 48  0  0  1  0  0  0  0  0999 V2000
   -1.4700   -1.8911   -2.2528 O   0  0  0  0  0  0  0  0  0  0  0  0
   -0.9049    2.7344   -2.4190 O   0  0  0  0  0  0  0  0  0  0  0  0
   -0.1385   -3.7205    2.4355 O   0  0  0  0  0  0  0  0  0  0  0  0
    1.0104    0.8318   -0.5063 O   0  0  0  0  0  0  0  0  0  0  0  0
    2.0495   -0.6935    4.0874 O   0  0  0  0  0  0  0  0  0  0  0  0
    3.9096    3.3444   -0.2619 O   0  0  0  0  0  0  0  0  0  0  0  0
    4.4036   -1.7987    1.4235 O   0  0  0  0  0  0  0  0  0  0  0  0
   -4.4492    5.1550    0.9979 O   0  0  0  0  0  0  0  0  0  0  0  0
   -4.4456   -1.1369    0.1216 N   0  0  0  0  0  0  0  0  0  0  0  0
   -1.8205    0.7415   -1.7422 N   0  0  0  0  0  0  0  0  0  0  0  0
   -6.3713   -1.7126   -1.1700 N   0  0  0  0  0  0  0  0  0  0  0  0
   -1.8740   -2.4490   -0.0372 N   0  0  0  0  0  0  0  0  0  0  0  0
   -5.9460   -2.6770    0.9131 N   0  0  0  0  0  0  0  0  0  0  0  0
    1.8596   -0.3562    1.8040 N   0  0  0  0  0  0  0  0  0  0  0  0
    1.8429   -3.0394    1.4344 N   0  0  0  0  0  0  0  0  0  0  0  0
   -0.4201    2.1471    0.7976 N   0  0  0  0  0  0  0  0  0  0  0  0
    3.7323    1.5001    1.1415 N   0  0  0  0  0  0  0  0  0  0  0  0
    0.4921   -5.3435   -0.1527 N   0  0  0  0  0  0  0  0  0  0  0  0
    6.6188    1.0094   -2.6826 N   0  0  0  0  0  0  0  0  0  0  0  0
    2.3336   -1.9660   -3.4561 N   0  0  0  0  0  0  0  0  0  0  0  0
   -2.5300    3.8953    1.4099 N   0  0  0  0  0  0  0  0  0  0  0  0
   -3.4824    5.1647    3.0797 N   0  0  0  0  0  0  0  0  0  0  0  0
   -3.9039   -0.1912   -0.8341 C   0  0  0  0  0  0  0  0  0  0  0  0
   -2.3829   -0.2009   -0.7740 C   0  0  0  0  0  0  0  0  0  0  0  0
   -4.4128   -0.5848   -2.2211 C   0  0  0  0  0  0  0  0  0  0  0  0
   -5.9306   -0.7420   -2.1842 C   0  0  0  0  0  0  0  0  0  0  0  0
   -1.8450   -1.5845   -1.1229 C   0  0  0  0  0  0  0  0  0  0  0  0
   -5.6235   -1.8207   -0.1106 C   0  0  0  0  0  0  0  0  0  0  0  0
   -1.4304   -3.8323   -0.1173 C   0  0  0  0  0  0  0  0  0  0  0  0
    0.0890   -3.9505    0.0343 C   0  0  0  0  0  0  0  0  0  0  0  0
   -1.3404    2.0150   -1.5201 C   0  0  0  0  0  0  0  0  0  0  0  0
    1.4475    1.0372    1.8549 C   0  0  0  0  0  0  0  0  0  0  0  0
    5.4846    1.7483   -2.1196 C   0  0  0  0  0  0  0  0  0  0  0  0
    4.1849    1.3329   -2.8392 C   0  0  0  0  0  0  0  0  0  0  0  0
    2.6444    1.9715    1.9464 C   0  0  0  0  0  0  0  0  0  0  0  0
    5.4010    1.4669   -0.6097 C   0  0  0  0  0  0  0  0  0  0  0  0
    2.4989   -2.5616    2.6440 C   0  0  0  0  0  0  0  0  0  0  0  0
   -1.3705    2.5177   -0.1261 C   0  0  0  0  0  0  0  0  0  0  0  0
    0.5563   -3.5633    1.4334 C   0  0  0  0  0  0  0  0  0  0  0  0
    3.8435   -0.1631   -2.7693 C   0  0  0  0  0  0  0  0  0  0  0  0
    0.6661    1.3063    0.5745 C   0  0  0  0  0  0  0  0  0  0  0  0
    2.0688   -1.1267    2.9352 C   0  0  0  0  0  0  0  0  0  0  0  0
    4.2854    2.2296    0.0903 C   0  0  0  0  0  0  0  0  0  0  0  0
    4.0123   -2.6314    2.5004 C   0  0  0  0  0  0  0  0  0  0  0  0
    2.5900   -0.5335   -3.5614 C   0  0  0  0  0  0  0  0  0  0  0  0
   -2.3719    3.3542    0.1754 C   0  0  0  0  0  0  0  0  0  0  0  0
   -3.5608    4.7675    1.7557 C   0  0  0  0  0  0  0  0  0  0  0  0
  1 27  2  0
  2 31  2  0
  3 39  2  0
  4 41  2  0
  5 42  2  0
  6 43  2  0
  7 44  1  0
  8 47  2  0
  9 23  1  0
  9 28  1  0
 10 24  1  0
 10 31  1  0
 11 26  1  0
 11 28  2  0
 12 27  1  0
 12 29  1  0
 13 28  1  0
 14 32  1  0
 14 42  1  0
 15 37  1  0
 15 39  1  0
 16 38  1  0
 16 41  1  0
 17 35  1  0
 17 43  1  0
 18 30  1  0
 19 33  1  0
 20 45  1  0
 21 46  1  0
 21 47  1  0
 22 47  1  0
 23 24  1  0
 23 25  1  0
 24 27  1  0
 25 26  1  0
 29 30  1  0
 30 39  1  0
 31 38  1  0
 32 35  1  0
 32 41  1  0
 33 34  1  0
 33 36  1  0
 34 40  1  0
 36 43  1  0
 37 42  1  0
 37 44  1  0
 38 46  2  0
 40 45  1  0
M  END
>  <PUBCHEM_COMPOUND_CID>  (1) 
37717

>  <PUBCHEM_CONFORMER_RMSD>  (1) 
1.4

>  <PUBCHEM_CONFORMER_DIVERSEORDER>  (1) 
5
45
23
32
12
18
41
14
26
1
35
8
43
44
42
13
11
19
33
2
15
30
36
39
37
10
16
25
17
20
40
34
28
21
9
22
6
3
27
31
29
38
24
4
7

>  <PUBCHEM_MMFF94_PARTIAL_CHARGES>  (1) 
64
1 -0.57
10 -0.73
11 -0.7
12 -0.73
13 -0.85
14 -0.73
15 -0.73
16 -0.54
17 -0.73
18 -0.99
19 -0.99
2 -0.57
20 -0.99
21 -0.54
22 -0.8
23 0.37
24 0.36
26 0.25
27 0.57
28 0.55
29 0.3
3 -0.57
30 0.33
31 0.62
32 0.36
33 0.27
35 0.3
36 0.06
37 0.36
38 0.12
39 0.57
4 -0.57
41 0.57
42 0.57
43 0.57
44 0.28
45 0.27
46 -0.04
47 0.69
5 -0.57
52 0.4
55 0.37
56 0.37
6 -0.57
69 0.4
7 -0.68
70 0.4
73 0.37
74 0.37
75 0.37
76 0.37
77 0.36
78 0.36
8 -0.57
83 0.36
84 0.36
85 0.15
86 0.36
87 0.36
88 0.37
89 0.4
9 -0.82
90 0.37
91 0.37

>  <PUBCHEM_EFFECTIVE_ROTOR_COUNT>  (1) 
14.8

>  <PUBCHEM_PHARMACOPHORE_FEATURES>  (1) 
27
1 1 acceptor
1 10 donor
1 12 donor
1 13 donor
1 14 donor
1 15 donor
1 16 donor
1 17 donor
1 18 cation
1 18 donor
1 19 cation
1 19 donor
1 2 acceptor
1 20 cation
1 20 donor
1 21 donor
1 22 donor
1 3 acceptor
1 4 acceptor
1 5 acceptor
1 6 acceptor
1 7 acceptor
1 7 donor
1 8 acceptor
1 9 donor
4 9 11 13 28 cation
6 9 11 23 25 26 28 rings

>  <PUBCHEM_HEAVY_ATOM_COUNT>  (1) 
47

>  <PUBCHEM_ATOM_DEF_STEREO_COUNT>  (1) 
6

>  <PUBCHEM_ATOM_UDEF_STEREO_COUNT>  (1) 
0

>  <PUBCHEM_BOND_DEF_STEREO_COUNT>  (1) 
0

>  <PUBCHEM_BOND_UDEF_STEREO_COUNT>  (1) 
1

>  <PUBCHEM_ISOTOPIC_ATOM_COUNT>  (1) 
0

>  <PUBCHEM_COMPONENT_COUNT>  (1) 
1

>  <PUBCHEM_CACTVS_TAUTO_COUNT>  (1) 
768

>  <PUBCHEM_CONFORMER_ID>  (1) 
0000935500000005

>  <PUBCHEM_MMFF94_ENERGY>  (1) 
92.0203

>  <PUBCHEM_FEATURE_SELFOVERLAP>  (1) 
137.186

>  <PUBCHEM_SHAPE_FINGERPRINT>  (1) 
10190206 1 18261969534772109228
10673678 19 16371280151042294084
12156800 1 18128543652058547259
12788726 201 18271231803317960393
14400156 260 18200591377401358837
15297060 5 17897999381824398432
19311894 1 18052266377280184659
19319366 153 17314210332444514834
20764821 26 18267015051196257352
22121540 332 17755625690901281200
563151 40 18268453268245692576

>  <PUBCHEM_SHAPE_MULTIPOLES>  (1) 
850.55
12.13
6.83
4
3.6
1.86
0.26
2.71
5.85
5.25
-4.99
-3.99
-0.09
-4.94

>  <PUBCHEM_SHAPE_SELFOVERLAP>  (1) 
1732.844

>  <PUBCHEM_SHAPE_VOLUME>  (1) 
482.6

>  <PUBCHEM_COORDINATE_TYPE>  (1) 
2
5
10

$$$$
