37720
     RDKit          3D

 35 36  0  0  1  0  0  0  0  0999 V2000
    4.8545    1.7342   -0.0469 S   0  0  0  0  0  0  0  0  0  0  0  0
   -4.1987    2.6362   -0.0584 S   0  0  0  0  0  0  0  0  0  0  0  0
   -2.9966   -2.4811   -1.4629 S   0  0  0  0  0  0  0  0  0  0  0  0
    2.5495   -1.8667    1.8582 S   0  0  0  0  0  0  0  0  0  0  0  0
    0.1088    0.0382    0.2580 O   0  0  0  0  0  0  0  0  0  0  0  0
   -1.2624    0.1369    2.1885 O   0  0  0  0  0  0  0  0  0  0  0  0
    1.3518   -0.6684   -2.2705 O   0  0  0  0  0  0  0  0  0  0  0  0
    3.2640    1.7219   -0.4091 O   0  0  0  0  0  0  0  0  0  0  0  0
   -2.8643    2.0770    0.6961 O   0  0  0  0  0  0  0  0  0  0  0  0
   -2.2693   -1.0886   -1.0238 O   0  0  0  0  0  0  0  0  0  0  0  0
    2.3847   -1.7624    0.2380 O   0  0  0  0  0  0  0  0  0  0  0  0
   -4.1393   -0.1990    1.9673 O   0  0  0  0  0  0  0  0  0  0  0  0
    3.5922   -0.0409   -2.7228 O   0  0  0  0  0  0  0  0  0  0  0  0
    5.3634    3.1821   -0.6001 O   0  0  0  0  0  0  0  0  0  0  0  0
   -4.6802    3.8783    0.8832 O   0  0  0  0  0  0  0  0  0  0  0  0
   -1.8449   -3.2654   -2.3113 O   0  0  0  0  0  0  0  0  0  0  0  0
    1.8640   -3.3015    2.2224 O   0  0  0  0  0  0  0  0  0  0  0  0
    5.5242    0.7021   -0.8162 O   0  0  0  0  0  0  0  0  0  0  0  0
    4.9681    1.7546    1.3996 O   0  0  0  0  0  0  0  0  0  0  0  0
   -5.2304    1.6167   -0.0140 O   0  0  0  0  0  0  0  0  0  0  0  0
   -3.7763    3.1907   -1.3311 O   0  0  0  0  0  0  0  0  0  0  0  0
   -3.2411   -3.2415   -0.2514 O   0  0  0  0  0  0  0  0  0  0  0  0
   -4.0905   -2.1803   -2.3678 O   0  0  0  0  0  0  0  0  0  0  0  0
    1.7585   -0.8229    2.4830 O   0  0  0  0  0  0  0  0  0  0  0  0
    3.9681   -1.9753    2.1430 O   0  0  0  0  0  0  0  0  0  0  0  0
    1.0149    0.8978   -0.4292 C   0  0  0  0  0  0  0  0  0  0  0  0
    2.4455    0.6502    0.0542 C   0  0  0  0  0  0  0  0  0  0  0  0
   -2.0799    1.0588    0.0776 C   0  0  0  0  0  0  0  0  0  0  0  0
   -0.8689    0.7842    0.9755 C   0  0  0  0  0  0  0  0  0  0  0  0
   -2.9395   -0.1936   -0.1390 C   0  0  0  0  0  0  0  0  0  0  0  0
    2.9987   -0.6837   -0.4645 C   0  0  0  0  0  0  0  0  0  0  0  0
   -3.2084   -0.9316    1.1742 C   0  0  0  0  0  0  0  0  0  0  0  0
    0.8777    0.6336   -1.9254 C   0  0  0  0  0  0  0  0  0  0  0  0
    2.7316   -0.8811   -1.9605 C   0  0  0  0  0  0  0  0  0  0  0  0
   -1.9294   -1.1095    1.9864 C   0  0  0  0  0  0  0  0  0  0  0  0
  1  8  1  0
  1 14  1  0
  1 18  2  0
  1 19  2  0
  2  9  1  0
  2 15  1  0
  2 20  2  0
  2 21  2  0
  3 10  1  0
  3 16  1  0
  3 22  2  0
  3 23  2  0
  4 11  1  0
  4 17  1  0
  4 24  2  0
  4 25  2  0
  5 26  1  0
  5 29  1  0
  6 29  1  0
  6 35  1  0
  7 33  1  0
  7 34  1  0
  8 27  1  0
  9 28  1  0
 10 30  1  0
 11 31  1  0
 12 32  1  0
 13 34  1  0
 26 27  1  0
 26 33  1  0
 27 31  1  0
 28 29  1  0
 28 30  1  0
 30 32  1  0
 31 34  1  0
 32 35  1  0
M  END
>  <PUBCHEM_COMPOUND_CID>  (1) 
37720

>  <PUBCHEM_CONFORMER_RMSD>  (1) 
1.2

>  <PUBCHEM_CONFORMER_DIVERSEORDER>  (1) 
1
18
69
55
48
77
28
12
56
92
31
94
23
60
43
24
65
40
36
26
73
72
86
75
5
85
79
58
27
87
44
46
71
50
9
35
78
82
41
19
81
61
93
15
29
8
34
63
74
76
17
38
52
88
54
25
51
7
3
91
33
13
37
11
64
49
68
66
14
84
80
70
59
22
42
53
10
45
67
89
4
90
62
83
39
16
30
57
47
32
6
21
20
2

>  <PUBCHEM_MMFF94_PARTIAL_CHARGES>  (1) 
41
1 1.67
10 -0.46
11 -0.46
12 -0.68
13 -0.68
14 -0.68
15 -0.68
16 -0.68
17 -0.68
18 -0.65
19 -0.65
2 1.67
20 -0.65
21 -0.65
22 -0.65
23 -0.65
24 -0.65
25 -0.65
26 0.28
27 0.28
28 0.28
29 0.56
3 1.67
30 0.28
31 0.28
32 0.28
33 0.28
34 0.56
35 0.28
4 1.67
48 0.4
49 0.4
5 -0.56
50 0.5
51 0.5
52 0.5
53 0.5
6 -0.56
7 -0.56
8 -0.46
9 -0.46

>  <PUBCHEM_EFFECTIVE_ROTOR_COUNT>  (1) 
12.4

>  <PUBCHEM_PHARMACOPHORE_FEATURES>  (1) 
25
1 12 acceptor
1 12 donor
1 13 acceptor
1 13 donor
1 14 acceptor
1 15 acceptor
1 16 acceptor
1 17 acceptor
1 18 acceptor
1 19 acceptor
1 20 acceptor
1 21 acceptor
1 22 acceptor
1 23 acceptor
1 24 acceptor
1 25 acceptor
1 5 acceptor
1 6 acceptor
1 7 acceptor
4 1 14 18 19 anion
4 2 15 20 21 anion
4 3 16 22 23 anion
4 4 17 24 25 anion
6 6 28 29 30 32 35 rings
6 7 26 27 31 33 34 rings

>  <PUBCHEM_HEAVY_ATOM_COUNT>  (1) 
35

>  <PUBCHEM_ATOM_DEF_STEREO_COUNT>  (1) 
8

>  <PUBCHEM_ATOM_UDEF_STEREO_COUNT>  (1) 
0

>  <PUBCHEM_BOND_DEF_STEREO_COUNT>  (1) 
0

>  <PUBCHEM_BOND_UDEF_STEREO_COUNT>  (1) 
0

>  <PUBCHEM_ISOTOPIC_ATOM_COUNT>  (1) 
0

>  <PUBCHEM_COMPONENT_COUNT>  (1) 
1

>  <PUBCHEM_CACTVS_TAUTO_COUNT>  (1) 
1

>  <PUBCHEM_CONFORMER_ID>  (1) 
0000935800000001

>  <PUBCHEM_MMFF94_ENERGY>  (1) 
83.9447

>  <PUBCHEM_FEATURE_SELFOVERLAP>  (1) 
127.236

>  <PUBCHEM_SHAPE_FINGERPRINT>  (1) 
10032420 55 18126549339844737368
10816530 23 18343304730025027589
11578080 2 18343312452265748220
12156800 1 14469285435318881959
12173636 292 17894355454092125795
12422481 6 16370999668603987364
12788726 201 18270667779828339319
13583140 156 18261402139137218049
13726171 33 17988649643708924305
14178342 30 17604162505065883968
144659 39 18341611486365344395
14787075 74 18124602139676381488
14955137 171 12174803817161736370
15219462 58 18190446332753466440
15484559 13 14865062101620166012
17349148 13 17240762951577185648
17980427 23 17970886926568347434
20511986 3 18260817185802439117
22393880 68 18413673513226331068
23559900 14 17631171883848694606
23598288 3 18410008811059449355
5104073 3 17895203147165784313

>  <PUBCHEM_SHAPE_MULTIPOLES>  (1) 
612.43
10.9
3.86
2.6
3.45
0.46
-0.19
6.75
-0.36
-2.99
-0.16
0.53
-1.9
-2.34

>  <PUBCHEM_SHAPE_SELFOVERLAP>  (1) 
1221.411

>  <PUBCHEM_SHAPE_VOLUME>  (1) 
361.4

>  <PUBCHEM_COORDINATE_TYPE>  (1) 
2
5
10

$$$$
