3772
     RDKit          3D

  9  9  0  0  0  0  0  0  0  0999 V2000
    1.5383   -1.2162   -0.7621 O   0  0  0  0  0  0  0  0  0  0  0  0
   -2.2089    0.1046   -0.4417 N   0  0  0  0  0  0  0  0  0  0  0  0
    2.4388    0.8226   -0.1912 N   0  0  0  0  0  0  0  0  0  0  0  0
    0.4062    0.0997    0.8861 C   0  0  0  0  0  0  0  0  0  0  0  0
   -0.5628   -1.0813    0.9734 C   0  0  0  0  0  0  0  0  0  0  0  0
   -0.3356    1.3911    0.5351 C   0  0  0  0  0  0  0  0  0  0  0  0
   -1.4963   -1.1558   -0.2360 C   0  0  0  0  0  0  0  0  0  0  0  0
   -1.2786    1.2125   -0.6559 C   0  0  0  0  0  0  0  0  0  0  0  0
    1.4989   -0.1772   -0.1077 C   0  0  0  0  0  0  0  0  0  0  0  0
  1  9  2  0
  2  7  1  0
  2  8  1  0
  3  9  1  0
  4  5  1  0
  4  6  1  0
  4  9  1  0
  5  7  1  0
  6  8  1  0
M  END
>  <PUBCHEM_COMPOUND_CID>  (1) 
3772

>  <PUBCHEM_CONFORMER_RMSD>  (1) 
0.4

>  <PUBCHEM_CONFORMER_DIVERSEORDER>  (1) 
1
22
4
24
9
21
14
12
2
6
23
10
25
3
5
20
19
11
15
18
13
16
17
7
8

>  <PUBCHEM_MMFF94_PARTIAL_CHARGES>  (1) 
10
1 -0.57
19 0.36
2 -0.9
20 0.37
21 0.37
3 -0.8
4 0.06
7 0.27
8 0.27
9 0.57

>  <PUBCHEM_EFFECTIVE_ROTOR_COUNT>  (1) 
2.2

>  <PUBCHEM_PHARMACOPHORE_FEATURES>  (1) 
5
1 1 acceptor
1 2 cation
1 2 donor
1 3 donor
6 2 4 5 6 7 8 rings

>  <PUBCHEM_HEAVY_ATOM_COUNT>  (1) 
9

>  <PUBCHEM_ATOM_DEF_STEREO_COUNT>  (1) 
0

>  <PUBCHEM_ATOM_UDEF_STEREO_COUNT>  (1) 
0

>  <PUBCHEM_BOND_DEF_STEREO_COUNT>  (1) 
0

>  <PUBCHEM_BOND_UDEF_STEREO_COUNT>  (1) 
0

>  <PUBCHEM_ISOTOPIC_ATOM_COUNT>  (1) 
0

>  <PUBCHEM_COMPONENT_COUNT>  (1) 
1

>  <PUBCHEM_CACTVS_TAUTO_COUNT>  (1) 
2

>  <PUBCHEM_CONFORMER_ID>  (1) 
00000EBC00000001

>  <PUBCHEM_MMFF94_ENERGY>  (1) 
6.5966

>  <PUBCHEM_FEATURE_SELFOVERLAP>  (1) 
25.371

>  <PUBCHEM_SHAPE_FINGERPRINT>  (1) 
12423570 1 8423796997905870737
12897270 3 18342177795146851364
137420 1 12302218084635582274
16714656 1 18335137600782557985
16945 1 18341609356098650977
18185500 45 17183049255248441651
20653085 51 17241057517440102524
21040471 1 18118947127661688753
23552423 10 18335981948139846362
24536 1 18200592484531619672
29004967 10 17775280594760179938
369184 2 16588022463178549368
5084963 1 14707207699394788289

>  <PUBCHEM_SHAPE_MULTIPOLES>  (1) 
169.38
2.6
1.5
0.96
0.66
0.08
0.12
0.11
-0.7
-0.27
-0.02
-0.02
-0.08
0.21

>  <PUBCHEM_SHAPE_SELFOVERLAP>  (1) 
333.835

>  <PUBCHEM_SHAPE_VOLUME>  (1) 
99.3

>  <PUBCHEM_COORDINATE_TYPE>  (1) 
2
5
10

$$$$
