37725
     RDKit          3D

 20 22  0  0  0  0  0  0  0  0999 V2000
    0.5522   -4.3111   -1.4139 Cl  0  0  0  0  0  0  0  0  0  0  0  0
    3.5532    2.2210    0.2625 O   0  0  0  0  0  0  0  0  0  0  0  0
    1.3582    2.2123   -0.4862 N   0  0  0  0  0  0  0  0  0  0  0  0
    0.0468    1.8644   -0.3303 N   0  0  0  0  0  0  0  0  0  0  0  0
    1.6755   -0.5042    0.7524 C   0  0  0  0  0  0  0  0  0  0  0  0
    0.5181   -0.5561   -0.0292 C   0  0  0  0  0  0  0  0  0  0  0  0
    2.0553    0.7841    1.4106 C   0  0  0  0  0  0  0  0  0  0  0  0
   -0.3522    0.6458   -0.1122 C   0  0  0  0  0  0  0  0  0  0  0  0
    2.3966    1.7985    0.3466 C   0  0  0  0  0  0  0  0  0  0  0  0
   -1.8241    0.4500    0.0562 C   0  0  0  0  0  0  0  0  0  0  0  0
    2.4788   -1.6448    0.8623 C   0  0  0  0  0  0  0  0  0  0  0  0
    0.1691   -1.7312   -0.7051 C   0  0  0  0  0  0  0  0  0  0  0  0
    2.1274   -2.8201    0.1970 C   0  0  0  0  0  0  0  0  0  0  0  0
    0.9766   -2.8618   -0.5882 C   0  0  0  0  0  0  0  0  0  0  0  0
   -2.2908   -0.5843    0.8568 C   0  0  0  0  0  0  0  0  0  0  0  0
   -2.7072    1.3048   -0.5904 C   0  0  0  0  0  0  0  0  0  0  0  0
    1.5723    3.2916   -1.4378 C   0  0  0  0  0  0  0  0  0  0  0  0
   -3.6647   -0.7671    1.0137 C   0  0  0  0  0  0  0  0  0  0  0  0
   -4.0811    1.1221   -0.4334 C   0  0  0  0  0  0  0  0  0  0  0  0
   -4.5598    0.0861    0.3685 C   0  0  0  0  0  0  0  0  0  0  0  0
  1 14  1  0
  2  9  2  0
  3  4  1  0
  3  9  1  0
  3 17  1  0
  4  8  2  0
  5  6  2  0
  5  7  1  0
  5 11  1  0
  6  8  1  0
  6 12  1  0
  7  9  1  0
  8 10  1  0
 10 15  2  0
 10 16  1  0
 11 13  2  0
 12 14  2  0
 13 14  1  0
 15 18  1  0
 16 19  2  0
 18 20  2  0
 19 20  1  0
M  END
>  <PUBCHEM_COMPOUND_CID>  (1) 
37725

>  <PUBCHEM_CONFORMER_RMSD>  (1) 
0.6

>  <PUBCHEM_CONFORMER_DIVERSEORDER>  (1) 
2
1

>  <PUBCHEM_MMFF94_PARTIAL_CHARGES>  (1) 
28
1 -0.18
10 0.09
11 -0.15
12 -0.15
13 -0.15
14 0.18
15 -0.15
16 -0.15
17 0.3
18 -0.15
19 -0.15
2 -0.57
20 -0.15
23 0.15
24 0.15
25 0.15
26 0.15
27 0.15
3 -0.3
31 0.15
32 0.15
33 0.15
4 -0.51
5 -0.14
6 0.09
7 0.2
8 0.28
9 0.57

>  <PUBCHEM_EFFECTIVE_ROTOR_COUNT>  (1) 
1.4

>  <PUBCHEM_PHARMACOPHORE_FEATURES>  (1) 
5
1 2 acceptor
1 4 acceptor
6 10 15 16 18 19 20 rings
6 5 6 11 12 13 14 rings
7 3 4 5 6 7 8 9 rings

>  <PUBCHEM_HEAVY_ATOM_COUNT>  (1) 
20

>  <PUBCHEM_ATOM_DEF_STEREO_COUNT>  (1) 
0

>  <PUBCHEM_ATOM_UDEF_STEREO_COUNT>  (1) 
0

>  <PUBCHEM_BOND_DEF_STEREO_COUNT>  (1) 
0

>  <PUBCHEM_BOND_UDEF_STEREO_COUNT>  (1) 
0

>  <PUBCHEM_ISOTOPIC_ATOM_COUNT>  (1) 
0

>  <PUBCHEM_COMPONENT_COUNT>  (1) 
1

>  <PUBCHEM_CACTVS_TAUTO_COUNT>  (1) 
1

>  <PUBCHEM_CONFORMER_ID>  (1) 
0000935D00000002

>  <PUBCHEM_MMFF94_ENERGY>  (1) 
78.187

>  <PUBCHEM_FEATURE_SELFOVERLAP>  (1) 
25.384

>  <PUBCHEM_SHAPE_FINGERPRINT>  (1) 
10616163 171 18191308380493628179
10871710 139 17181946977740809341
1100329 8 16391280538703982987
11578080 2 15648151024651888086
116883 192 17905885873149681357
12346645 6 18410009952956195497
12553582 1 17906466423995204195
12788726 201 17110452891939371355
13140716 1 18341880914001546538
13681431 1 18194702379092746366
14022347 108 17539141553738807137
14790565 3 18410579496317983920
15309172 13 18268432510916391505
16752209 62 17765147658818175863
16945 1 17986945267520623250
17138139 8 17197100331490144791
17357779 13 17836067992734084471
17492 54 18191052078536498238
19591789 44 18122068868600379134
20600515 1 17536596201268422342
20645477 70 18337380561917545087
20739085 24 18337398136454676760
21524375 3 18121224439338382817
22182313 1 17837182924175667882
2255824 54 18342459205461915895
22620623 9 16972557065837584900
23419403 2 17751618993151467590
23557571 272 17403455174768507462
23558518 356 17616807078196521824
23559900 14 18336824200248796481
2748010 2 18192129547938637724
3060560 45 18411703196915929220
3610482 184 16451532586364737916
3729539 64 18196683764356777790
458136 41 18271540765884619427
495365 180 18199449035589177601
6138700 20 18334870390099087124
6669772 16 18200605791010300870
7164475 11 17403736048333096068
7364860 26 18411140212244157569
81228 2 17474676044155994560
8272917 22 18412830157811666377
84936 31 18272084968157964143
8809292 202 16756908187881724422
9709674 26 18260267456465113507

>  <PUBCHEM_SHAPE_MULTIPOLES>  (1) 
397.63
6.04
4.29
1.19
7.65
1.73
-0.06
-0.7
1.32
-4.59
-2.33
-0.27
0.1
0.58

>  <PUBCHEM_SHAPE_SELFOVERLAP>  (1) 
863.11

>  <PUBCHEM_SHAPE_VOLUME>  (1) 
217.8

>  <PUBCHEM_COORDINATE_TYPE>  (1) 
2
5
10

$$$$
