37732
     RDKit          3D

 11 11  0  0  0  0  0  0  0  0999 V2000
    0.3780   -0.6080    0.6394 O   0  0  0  0  0  0  0  0  0  0  0  0
    3.7641    0.5567   -0.2267 N   0  0  0  0  0  0  0  0  0  0  0  0
    2.7024   -0.3826    0.1030 C   0  0  0  0  0  0  0  0  0  0  0  0
    1.3910    0.3502    0.3372 C   0  0  0  0  0  0  0  0  0  0  0  0
   -0.8992   -0.2892    0.2936 C   0  0  0  0  0  0  0  0  0  0  0  0
   -1.3034    1.0457    0.2718 C   0  0  0  0  0  0  0  0  0  0  0  0
   -1.8042   -1.2973   -0.0381 C   0  0  0  0  0  0  0  0  0  0  0  0
    5.0147   -0.1418   -0.4933 C   0  0  0  0  0  0  0  0  0  0  0  0
   -2.6126    1.3724   -0.0817 C   0  0  0  0  0  0  0  0  0  0  0  0
   -3.1134   -0.9706   -0.3918 C   0  0  0  0  0  0  0  0  0  0  0  0
   -3.5175    0.3643   -0.4134 C   0  0  0  0  0  0  0  0  0  0  0  0
  1  4  1  0
  1  5  1  0
  2  3  1  0
  2  8  1  0
  3  4  1  0
  5  6  2  0
  5  7  1  0
  6  9  1  0
  7 10  2  0
  9 11  2  0
 10 11  1  0
M  END
>  <PUBCHEM_COMPOUND_CID>  (1) 
37732

>  <PUBCHEM_CONFORMER_RMSD>  (1) 
0.6

>  <PUBCHEM_CONFORMER_DIVERSEORDER>  (1) 
1
17
13
11
6
19
10
3
2
4
12
20
14
15
8
18
7
5
21
16
9

>  <PUBCHEM_MMFF94_PARTIAL_CHARGES>  (1) 
17
1 -0.36
10 -0.15
11 -0.15
16 0.36
17 0.15
18 0.15
2 -0.9
22 0.15
23 0.15
24 0.15
3 0.27
4 0.28
5 0.08
6 -0.15
7 -0.15
8 0.27
9 -0.15

>  <PUBCHEM_EFFECTIVE_ROTOR_COUNT>  (1) 
4

>  <PUBCHEM_PHARMACOPHORE_FEATURES>  (1) 
4
1 1 acceptor
1 2 cation
1 2 donor
6 5 6 7 9 10 11 rings

>  <PUBCHEM_HEAVY_ATOM_COUNT>  (1) 
11

>  <PUBCHEM_ATOM_DEF_STEREO_COUNT>  (1) 
0

>  <PUBCHEM_ATOM_UDEF_STEREO_COUNT>  (1) 
0

>  <PUBCHEM_BOND_DEF_STEREO_COUNT>  (1) 
0

>  <PUBCHEM_BOND_UDEF_STEREO_COUNT>  (1) 
0

>  <PUBCHEM_ISOTOPIC_ATOM_COUNT>  (1) 
0

>  <PUBCHEM_COMPONENT_COUNT>  (1) 
1

>  <PUBCHEM_CACTVS_TAUTO_COUNT>  (1) 
1

>  <PUBCHEM_CONFORMER_ID>  (1) 
0000936400000001

>  <PUBCHEM_MMFF94_ENERGY>  (1) 
26.4899

>  <PUBCHEM_FEATURE_SELFOVERLAP>  (1) 
20.297

>  <PUBCHEM_SHAPE_FINGERPRINT>  (1) 
12932764 1 17846486050133326426
13024252 1 17675925404745089707
14325111 11 18408882910619525234
15775835 57 18113898221569158965
1986462 14 18342741814541711612
200 152 16558747910190985542
20300324 65 18412545435322702324
20645477 56 18411420566461536569
20645477 70 17774729658553401310
20711985 327 13183018540486228818
20871999 31 18337941364445373487
21061003 4 16630527370858163283
21119208 17 18408604764463963148
22485316 2 16774076271980932166
23402539 116 18341324539552929900
23559900 14 18273209799377482024
449060 50 11963391843160521490
528716 315 18409449206410518295
93112 12 18412262861187739764

>  <PUBCHEM_SHAPE_MULTIPOLES>  (1) 
215.52
8.22
1.23
0.71
10.58
0.03
-0.01
0.18
-2.06
-1.04
-0.01
0.03
-0.02
-0.06

>  <PUBCHEM_SHAPE_SELFOVERLAP>  (1) 
429.44

>  <PUBCHEM_SHAPE_VOLUME>  (1) 
128.7

>  <PUBCHEM_COORDINATE_TYPE>  (1) 
2
5
10

$$$$
