37739
     RDKit          3D

 19 20  0  0  1  0  0  0  0  0999 V2000
    4.6470   -2.3840   -0.6783 Cl  0  0  0  0  0  0  0  0  0  0  0  0
   -0.6680    0.4774    2.2683 O   0  0  0  0  0  0  0  0  0  0  0  0
    1.3101    1.3112   -1.5147 O   0  0  0  0  0  0  0  0  0  0  0  0
   -4.1043   -0.6091   -0.4776 N   0  0  0  0  0  0  0  0  0  0  0  0
   -0.2391    0.8513    0.9445 C   0  0  0  0  0  0  0  0  0  0  0  0
    0.0242    2.3686    1.0531 C   0  0  0  0  0  0  0  0  0  0  0  0
   -1.4074    0.5283   -0.0005 C   0  0  0  0  0  0  0  0  0  0  0  0
    1.0167    0.0732    0.5555 C   0  0  0  0  0  0  0  0  0  0  0  0
    0.3038    3.1204   -0.2472 C   0  0  0  0  0  0  0  0  0  0  0  0
   -1.7188   -0.9625    0.0184 C   0  0  0  0  0  0  0  0  0  0  0  0
    1.5386    2.6136   -0.9743 C   0  0  0  0  0  0  0  0  0  0  0  0
    1.7114    0.3356   -0.6394 C   0  0  0  0  0  0  0  0  0  0  0  0
   -2.9104   -1.3056   -0.8694 C   0  0  0  0  0  0  0  0  0  0  0  0
    1.5077   -0.9697    1.3634 C   0  0  0  0  0  0  0  0  0  0  0  0
    2.8169   -0.4290   -1.0307 C   0  0  0  0  0  0  0  0  0  0  0  0
    2.6272   -1.7196    0.9877 C   0  0  0  0  0  0  0  0  0  0  0  0
    3.2787   -1.4523   -0.2110 C   0  0  0  0  0  0  0  0  0  0  0  0
   -4.5307   -0.9948    0.8771 C   0  0  0  0  0  0  0  0  0  0  0  0
   -5.2037   -0.8531   -1.4249 C   0  0  0  0  0  0  0  0  0  0  0  0
  1 17  1  0
  2  5  1  0
  3 11  1  0
  3 12  1  0
  4 13  1  0
  4 18  1  0
  4 19  1  0
  5  6  1  0
  5  7  1  0
  5  8  1  0
  6  9  1  0
  7 10  1  0
  8 12  2  0
  8 14  1  0
  9 11  1  0
 10 13  1  0
 12 15  1  0
 14 16  2  0
 15 17  2  0
 16 17  1  0
M  END
>  <PUBCHEM_COMPOUND_CID>  (1) 
37739

>  <PUBCHEM_CONFORMER_RMSD>  (1) 
0.6

>  <PUBCHEM_CONFORMER_DIVERSEORDER>  (1) 
11
37
42
15
18
17
7
1
20
41
12
44
3
31
30
34
5
40
8
22
35
14
6
16
4
38
9
45
2
43
32
27
28
29
26
24
39
10
13
36
19
23
33
25
21

>  <PUBCHEM_MMFF94_PARTIAL_CHARGES>  (1) 
19
1 -0.18
11 0.28
12 0.08
13 0.27
14 -0.15
15 -0.15
16 -0.15
17 0.18
18 0.27
19 0.27
2 -0.68
3 -0.36
32 0.4
33 0.15
34 0.15
35 0.15
4 -0.81
5 0.42
8 -0.14

>  <PUBCHEM_EFFECTIVE_ROTOR_COUNT>  (1) 
5

>  <PUBCHEM_PHARMACOPHORE_FEATURES>  (1) 
6
1 2 acceptor
1 2 donor
1 3 acceptor
1 4 cation
6 8 12 14 15 16 17 rings
7 3 5 6 8 9 11 12 rings

>  <PUBCHEM_HEAVY_ATOM_COUNT>  (1) 
19

>  <PUBCHEM_ATOM_DEF_STEREO_COUNT>  (1) 
0

>  <PUBCHEM_ATOM_UDEF_STEREO_COUNT>  (1) 
1

>  <PUBCHEM_BOND_DEF_STEREO_COUNT>  (1) 
0

>  <PUBCHEM_BOND_UDEF_STEREO_COUNT>  (1) 
0

>  <PUBCHEM_ISOTOPIC_ATOM_COUNT>  (1) 
0

>  <PUBCHEM_COMPONENT_COUNT>  (1) 
1

>  <PUBCHEM_CACTVS_TAUTO_COUNT>  (1) 
1

>  <PUBCHEM_CONFORMER_ID>  (1) 
0000936B0000000B

>  <PUBCHEM_MMFF94_ENERGY>  (1) 
60.2483

>  <PUBCHEM_FEATURE_SELFOVERLAP>  (1) 
30.457

>  <PUBCHEM_SHAPE_FINGERPRINT>  (1) 
11221954 11 12687386255074192878
11265709 11 18411986827860759694
11578080 2 18201427052280647952
11961588 58 13696167261357548662
12553582 1 18335983077864159555
13004483 165 18340475665422015286
13134695 92 17988349468808512045
13533116 47 18196371649189501619
14817 1 15731843496026831360
15906896 17 17611763205521002184
16945 1 17603872203936602640
17539 30 18122339082257645268
1813 80 18271816691478812095
18186145 218 17385721426643589419
200 152 18187936027828211026
20339313 130 18410009957504188411
20388580 30 18411418422977190695
20600515 1 17418095433604905627
20626108 58 18130777993209878655
20645477 70 18336819918303825519
20671657 53 18409733949688497463
20871999 31 18115025186675415975
21296965 67 18411415081635019956
22112679 90 18127716883754787192
23402539 116 18190751842789431066
23419403 2 17985796338289595216
23557571 272 18338219476304422792
23590187 302 17748818627351309951
23598291 2 18339657662861669301
2838139 119 13190354477962557574
3009799 131 17385723582917937518
312423 11 18270402814958803627
3323516 105 17531253906508678403
5281201 14 18114456864429817183
7364860 26 18267017434924309284
7471813 234 18413107259979075796
7970288 3 18412825750675236935
81228 2 18267304218548988248
9971528 1 18201426000376773067

>  <PUBCHEM_SHAPE_MULTIPOLES>  (1) 
376.16
7.89
2.88
1.55
7.43
2.23
-0.34
-7.94
2.81
-1.88
0.39
0.24
0.1
-0.59

>  <PUBCHEM_SHAPE_SELFOVERLAP>  (1) 
768.583

>  <PUBCHEM_SHAPE_VOLUME>  (1) 
218.2

>  <PUBCHEM_COORDINATE_TYPE>  (1) 
2
5
10

$$$$
