37731
     RDKit          3D

 27 29  0  0  0  0  0  0  0  0999 V2000
    2.7932   -2.6793    1.1846 O   0  0  0  0  0  0  0  0  0  0  0  0
    4.5415   -1.8742   -0.8086 O   0  0  0  0  0  0  0  0  0  0  0  0
    1.1507    4.3558   -1.3282 O   0  0  0  0  0  0  0  0  0  0  0  0
   -2.6046   -2.0848   -1.2864 O   0  0  0  0  0  0  0  0  0  0  0  0
   -5.1730   -1.2854   -0.5859 O   0  0  0  0  0  0  0  0  0  0  0  0
    0.2781    2.7966    0.1850 N   0  0  0  0  0  0  0  0  0  0  0  0
    0.3759    1.5211    0.7805 C   0  0  0  0  0  0  0  0  0  0  0  0
    1.3829    0.6801    0.4284 C   0  0  0  0  0  0  0  0  0  0  0  0
   -0.6907    1.1760    1.8007 C   0  0  0  0  0  0  0  0  0  0  0  0
    2.3685    1.1176   -0.5818 C   0  0  0  0  0  0  0  0  0  0  0  0
   -1.8773    0.5205    1.1661 C   0  0  0  0  0  0  0  0  0  0  0  0
    1.5711   -0.6671    0.9917 C   0  0  0  0  0  0  0  0  0  0  0  0
    1.1867    3.2557   -0.7766 C   0  0  0  0  0  0  0  0  0  0  0  0
    2.2774    2.3266   -1.1486 C   0  0  0  0  0  0  0  0  0  0  0  0
    3.4567    0.2191   -0.9669 C   0  0  0  0  0  0  0  0  0  0  0  0
    2.5950   -1.4463    0.5950 C   0  0  0  0  0  0  0  0  0  0  0  0
   -0.8200    3.6774    0.5896 C   0  0  0  0  0  0  0  0  0  0  0  0
    3.5565   -0.9978   -0.4016 C   0  0  0  0  0  0  0  0  0  0  0  0
   -1.6900   -0.4878    0.2248 C   0  0  0  0  0  0  0  0  0  0  0  0
   -3.1620    0.9238    1.5201 C   0  0  0  0  0  0  0  0  0  0  0  0
   -2.7959   -1.0979   -0.3670 C   0  0  0  0  0  0  0  0  0  0  0  0
   -4.2679    0.3138    0.9282 C   0  0  0  0  0  0  0  0  0  0  0  0
   -4.0849   -0.6971   -0.0154 C   0  0  0  0  0  0  0  0  0  0  0  0
    2.1451   -3.6967    0.4470 C   0  0  0  0  0  0  0  0  0  0  0  0
    5.6910   -1.7505    0.0059 C   0  0  0  0  0  0  0  0  0  0  0  0
   -2.5301   -3.4220   -0.7958 C   0  0  0  0  0  0  0  0  0  0  0  0
   -5.6738   -0.6972   -1.7848 C   0  0  0  0  0  0  0  0  0  0  0  0
  1 16  1  0
  1 24  1  0
  2 18  1  0
  2 25  1  0
  3 13  2  0
  4 21  1  0
  4 26  1  0
  5 23  1  0
  5 27  1  0
  6  7  1  0
  6 13  1  0
  6 17  1  0
  7  8  2  0
  7  9  1  0
  8 10  1  0
  8 12  1  0
  9 11  1  0
 10 14  2  0
 10 15  1  0
 11 19  2  0
 11 20  1  0
 12 16  2  0
 13 14  1  0
 15 18  2  0
 16 18  1  0
 19 21  1  0
 20 22  2  0
 21 23  2  0
 22 23  1  0
M  END
>  <PUBCHEM_COMPOUND_CID>  (1) 
37731

>  <PUBCHEM_CONFORMER_RMSD>  (1) 
0.8

>  <PUBCHEM_CONFORMER_DIVERSEORDER>  (1) 
6
22
30
15
18
27
25
12
14
29
26
19
28
21
13
9
1
20
10
16
2
24
17
4
23
5
11
3
7
8

>  <PUBCHEM_MMFF94_PARTIAL_CHARGES>  (1) 
31
1 -0.36
11 -0.14
12 -0.15
13 0.62
14 -0.14
15 -0.15
16 0.08
17 0.3
18 0.08
19 -0.15
2 -0.36
20 -0.15
21 0.08
22 -0.15
23 0.08
24 0.28
25 0.28
26 0.28
27 0.28
3 -0.57
30 0.15
31 0.15
32 0.15
36 0.15
37 0.15
38 0.15
4 -0.36
5 -0.36
6 -0.47
7 -0.03
9 0.28

>  <PUBCHEM_EFFECTIVE_ROTOR_COUNT>  (1) 
6

>  <PUBCHEM_PHARMACOPHORE_FEATURES>  (1) 
8
1 1 acceptor
1 2 acceptor
1 3 acceptor
1 4 acceptor
1 5 acceptor
6 11 19 20 21 22 23 rings
6 6 7 8 10 13 14 rings
6 8 10 12 15 16 18 rings

>  <PUBCHEM_HEAVY_ATOM_COUNT>  (1) 
27

>  <PUBCHEM_ATOM_DEF_STEREO_COUNT>  (1) 
0

>  <PUBCHEM_ATOM_UDEF_STEREO_COUNT>  (1) 
0

>  <PUBCHEM_BOND_DEF_STEREO_COUNT>  (1) 
0

>  <PUBCHEM_BOND_UDEF_STEREO_COUNT>  (1) 
0

>  <PUBCHEM_ISOTOPIC_ATOM_COUNT>  (1) 
0

>  <PUBCHEM_COMPONENT_COUNT>  (1) 
1

>  <PUBCHEM_CACTVS_TAUTO_COUNT>  (1) 
1

>  <PUBCHEM_CONFORMER_ID>  (1) 
0000936300000006

>  <PUBCHEM_MMFF94_ENERGY>  (1) 
122.1845

>  <PUBCHEM_FEATURE_SELFOVERLAP>  (1) 
40.634

>  <PUBCHEM_SHAPE_FINGERPRINT>  (1) 
11552529 35 17912083846403043816
11578080 2 18201143361364641240
12422481 6 17402641566112771537
12553582 1 18335984177359768194
13004483 165 18191578653868485930
13009979 54 18130803243132571729
13583140 156 18113905991903956539
13782708 43 16588321513119251459
13911987 19 17824005457699949142
16752209 62 17775290491145571195
17349148 13 17632296800582390655
17818456 19 17987249832843300849
1813 80 18339370669147109934
20511986 3 18131063874396013692
20626108 58 18059851788015167097
21344244 181 17113806398225159397
2255824 54 18263930002110331432
23559900 14 18269824480168965995
23598291 2 18342189863947125665
238 59 18045508774436113848
25222932 49 16266556213246886079
3004659 81 18341324548596811107
312425 83 18044358643052106277
340366 18 18411139134766568069
4280585 95 18409160005183411154
46194498 28 17895748642603969549
463206 1 18409455807670043266
7164475 11 18046061554392671066
7471813 234 18409735045264373540
9981440 41 17402610148310858904

>  <PUBCHEM_SHAPE_MULTIPOLES>  (1) 
521.32
9.64
4.62
1.46
3.81
1.87
0
-7.65
2.88
-2.33
0.99
0.86
0.28
-2.26

>  <PUBCHEM_SHAPE_SELFOVERLAP>  (1) 
1121.74

>  <PUBCHEM_SHAPE_VOLUME>  (1) 
288.9

>  <PUBCHEM_COORDINATE_TYPE>  (1) 
2
5
10

$$$$
