37748
     RDKit          3D

 21 23  0  0  1  0  0  0  0  0999 V2000
    3.4356   -0.2616   -2.5286 Cl  0  0  0  0  0  0  0  0  0  0  0  0
    1.7746   -2.0525   -0.5450 O   0  0  0  0  0  0  0  0  0  0  0  0
   -4.2153    1.6763    0.1395 N   0  0  0  0  0  0  0  0  0  0  0  0
    0.4734   -0.3174    0.3053 N   0  0  0  0  0  0  0  0  0  0  0  0
   -1.7754    1.4566   -0.0323 C   0  0  0  0  0  0  0  0  0  0  0  0
   -1.9397   -0.0369    0.0776 C   0  0  0  0  0  0  0  0  0  0  0  0
   -3.0261    2.1543   -0.5765 C   0  0  0  0  0  0  0  0  0  0  0  0
   -4.4462    0.2504   -0.1522 C   0  0  0  0  0  0  0  0  0  0  0  0
   -3.2227   -0.6104    0.0650 C   0  0  0  0  0  0  0  0  0  0  0  0
   -0.8163   -0.8552    0.2533 C   0  0  0  0  0  0  0  0  0  0  0  0
   -3.3593   -1.9995    0.1910 C   0  0  0  0  0  0  0  0  0  0  0  0
   -5.3914    2.4669   -0.2215 C   0  0  0  0  0  0  0  0  0  0  0  0
   -0.9642   -2.2351    0.3894 C   0  0  0  0  0  0  0  0  0  0  0  0
   -2.2341   -2.8070    0.3558 C   0  0  0  0  0  0  0  0  0  0  0  0
    1.6863   -0.9166   -0.0838 C   0  0  0  0  0  0  0  0  0  0  0  0
    2.8872   -0.0933    0.1389 C   0  0  0  0  0  0  0  0  0  0  0  0
    3.7321    0.2502   -0.9060 C   0  0  0  0  0  0  0  0  0  0  0  0
    3.1443    0.3280    1.4360 C   0  0  0  0  0  0  0  0  0  0  0  0
    4.8585    1.0319   -0.6492 C   0  0  0  0  0  0  0  0  0  0  0  0
    4.2708    1.1096    1.6929 C   0  0  0  0  0  0  0  0  0  0  0  0
    5.1279    1.4614    0.6503 C   0  0  0  0  0  0  0  0  0  0  0  0
  1 17  1  0
  2 15  2  0
  3  7  1  0
  3  8  1  0
  3 12  1  0
  4 10  1  0
  4 15  1  0
  5  6  1  0
  5  7  1  0
  6  9  2  0
  6 10  1  0
  8  9  1  0
  9 11  1  0
 10 13  2  0
 11 14  2  0
 13 14  1  0
 15 16  1  0
 16 17  2  0
 16 18  1  0
 17 19  1  0
 18 20  2  0
 19 21  2  0
 20 21  1  0
M  END
>  <PUBCHEM_COMPOUND_CID>  (1) 
37748

>  <PUBCHEM_CONFORMER_RMSD>  (1) 
0.6

>  <PUBCHEM_CONFORMER_DIVERSEORDER>  (1) 
2
18
11
8
16
12
6
5
14
20
1
9
15
13
21
3
17
7
10
4
19

>  <PUBCHEM_MMFF94_PARTIAL_CHARGES>  (1) 
29
1 -0.18
10 0.12
11 -0.15
12 0.27
13 -0.15
14 -0.15
15 0.54
16 0.09
17 0.18
18 -0.15
19 -0.15
2 -0.57
20 -0.15
21 -0.15
28 0.15
3 -0.81
32 0.15
33 0.15
34 0.37
35 0.15
36 0.15
37 0.15
38 0.15
4 -0.55
5 0.14
6 -0.14
7 0.27
8 0.41
9 -0.14

>  <PUBCHEM_EFFECTIVE_ROTOR_COUNT>  (1) 
3.8

>  <PUBCHEM_PHARMACOPHORE_FEATURES>  (1) 
6
1 2 acceptor
1 3 cation
1 4 donor
6 16 17 18 19 20 21 rings
6 3 5 6 7 8 9 rings
6 6 9 10 11 13 14 rings

>  <PUBCHEM_HEAVY_ATOM_COUNT>  (1) 
21

>  <PUBCHEM_ATOM_DEF_STEREO_COUNT>  (1) 
0

>  <PUBCHEM_ATOM_UDEF_STEREO_COUNT>  (1) 
0

>  <PUBCHEM_BOND_DEF_STEREO_COUNT>  (1) 
0

>  <PUBCHEM_BOND_UDEF_STEREO_COUNT>  (1) 
0

>  <PUBCHEM_ISOTOPIC_ATOM_COUNT>  (1) 
0

>  <PUBCHEM_COMPONENT_COUNT>  (1) 
1

>  <PUBCHEM_CACTVS_TAUTO_COUNT>  (1) 
2

>  <PUBCHEM_CONFORMER_ID>  (1) 
0000937400000002

>  <PUBCHEM_MMFF94_ENERGY>  (1) 
68.1859

>  <PUBCHEM_FEATURE_SELFOVERLAP>  (1) 
30.468

>  <PUBCHEM_SHAPE_FINGERPRINT>  (1) 
10319926 262 18339625833623709738
10411042 1 17760368086758992563
10493431 412 18337392648156326865
10498660 4 18341617009883574272
10646746 165 18411981382095357864
10670039 82 18187657907289264694
11405975 8 18335980870409192506
11552529 35 15720822292033014592
11595378 159 17603579716526757280
12107183 9 18044638816527080298
12173636 292 18336543820525786823
12236239 1 17385718140540174346
12390115 104 18270692978496293769
12403259 415 18130509738400740584
12403814 3 17240195535000188709
12422481 6 16589431857166692365
12596602 18 16732984253643526345
12633257 1 18040710381334120404
12788726 201 17243882334479436267
12969540 114 17489862752330660165
13402501 40 18201431515147008184
13965767 371 17677885730444739612
14251764 38 18119248608707548468
14341114 328 17603862334381422264
14790565 3 18123756349015857785
15375358 24 18272086119188087386
15806764 133 18059031582316024488
15961568 22 17976537531577646828
16988056 13 15810841065826088101
173720 79 17894621535884922387
17980427 23 18041277776599487148
18186145 218 18059584563344442187
20645477 56 18409731746771168601
20645477 70 16917078750152832310
21033648 29 17988350585779506528
21033650 10 18189919619956059566
21065201 7 18410861001195604098
21859007 373 17172065237045031253
22289505 5 17775286045738791080
22393880 68 18272939314726840054
23227448 37 18410574032639120061
23557571 272 18342465884199033510
23559900 14 18341337704223940478
3268164 11 18341604975263722927
341906 21 18335136527151601228
3472631 163 18334859437088989708
350125 39 18046627802395444910
4028521 119 18273496771047265633
469060 322 18116453594615257179
474 4 17095248042207280462
495365 180 17845924135562578254
5104073 3 18335421235980529187
59682541 52 16342852128009902285
633830 44 18055628418066656253
7064713 232 18260548883612024381
7808743 9 18334859441579044388
960060 61 15051728668679359344
9981440 41 18333731333874720931

>  <PUBCHEM_SHAPE_MULTIPOLES>  (1) 
418.21
11.68
2.65
1.33
2.25
0.49
0.5
-7.41
0.09
-3.69
-0.11
2.4
-0.11
1.19

>  <PUBCHEM_SHAPE_SELFOVERLAP>  (1) 
895.558

>  <PUBCHEM_SHAPE_VOLUME>  (1) 
231.7

>  <PUBCHEM_COORDINATE_TYPE>  (1) 
2
5
10

$$$$
