37749
     RDKit          3D

 21 23  0  0  1  0  0  0  0  0999 V2000
    3.4281   -0.3115   -2.6761 Br  0  0  0  0  0  0  0  0  0  0  0  0
    1.7781   -2.0527   -0.5237 O   0  0  0  0  0  0  0  0  0  0  0  0
   -4.2156    1.6759    0.1280 N   0  0  0  0  0  0  0  0  0  0  0  0
    0.4741   -0.3135    0.3140 N   0  0  0  0  0  0  0  0  0  0  0  0
   -1.7752    1.4569   -0.0381 C   0  0  0  0  0  0  0  0  0  0  0  0
   -1.9387   -0.0360    0.0804 C   0  0  0  0  0  0  0  0  0  0  0  0
   -3.0255    2.1505   -0.5887 C   0  0  0  0  0  0  0  0  0  0  0  0
   -4.4450    0.2482   -0.1556 C   0  0  0  0  0  0  0  0  0  0  0  0
   -3.2214   -0.6105    0.0689 C   0  0  0  0  0  0  0  0  0  0  0  0
   -0.8151   -0.8525    0.2630 C   0  0  0  0  0  0  0  0  0  0  0  0
   -3.3572   -1.9989    0.2030 C   0  0  0  0  0  0  0  0  0  0  0  0
   -5.3916    2.4636   -0.2397 C   0  0  0  0  0  0  0  0  0  0  0  0
   -0.9623   -2.2317    0.4070 C   0  0  0  0  0  0  0  0  0  0  0  0
   -2.2317   -2.8046    0.3746 C   0  0  0  0  0  0  0  0  0  0  0  0
    1.6882   -0.9142   -0.0694 C   0  0  0  0  0  0  0  0  0  0  0  0
    2.8881   -0.0887    0.1505 C   0  0  0  0  0  0  0  0  0  0  0  0
    3.7382    0.2523   -0.8909 C   0  0  0  0  0  0  0  0  0  0  0  0
    3.1374    0.3377    1.4476 C   0  0  0  0  0  0  0  0  0  0  0  0
    4.8619    1.0365   -0.6308 C   0  0  0  0  0  0  0  0  0  0  0  0
    4.2613    1.1218    1.7077 C   0  0  0  0  0  0  0  0  0  0  0  0
    5.1237    1.4713    0.6685 C   0  0  0  0  0  0  0  0  0  0  0  0
  1 17  1  0
  2 15  2  0
  3  7  1  0
  3  8  1  0
  3 12  1  0
  4 10  1  0
  4 15  1  0
  5  6  1  0
  5  7  1  0
  6  9  2  0
  6 10  1  0
  8  9  1  0
  9 11  1  0
 10 13  2  0
 11 14  2  0
 13 14  1  0
 15 16  1  0
 16 17  2  0
 16 18  1  0
 17 19  1  0
 18 20  2  0
 19 21  2  0
 20 21  1  0
M  END
>  <PUBCHEM_COMPOUND_CID>  (1) 
37749

>  <PUBCHEM_CONFORMER_RMSD>  (1) 
0.6

>  <PUBCHEM_CONFORMER_DIVERSEORDER>  (1) 
2
21
17
6
9
16
10
7
18
11
8
13
3
20
4
14
1
15
12
19
5

>  <PUBCHEM_MMFF94_PARTIAL_CHARGES>  (1) 
29
1 -0.11
10 0.12
11 -0.15
12 0.27
13 -0.15
14 -0.15
15 0.54
16 0.09
17 0.11
18 -0.15
19 -0.15
2 -0.57
20 -0.15
21 -0.15
28 0.15
3 -0.81
32 0.15
33 0.15
34 0.37
35 0.15
36 0.15
37 0.15
38 0.15
4 -0.55
5 0.14
6 -0.14
7 0.27
8 0.41
9 -0.14

>  <PUBCHEM_EFFECTIVE_ROTOR_COUNT>  (1) 
3.8

>  <PUBCHEM_PHARMACOPHORE_FEATURES>  (1) 
7
1 1 hydrophobe
1 2 acceptor
1 3 cation
1 4 donor
6 16 17 18 19 20 21 rings
6 3 5 6 7 8 9 rings
6 6 9 10 11 13 14 rings

>  <PUBCHEM_HEAVY_ATOM_COUNT>  (1) 
21

>  <PUBCHEM_ATOM_DEF_STEREO_COUNT>  (1) 
0

>  <PUBCHEM_ATOM_UDEF_STEREO_COUNT>  (1) 
0

>  <PUBCHEM_BOND_DEF_STEREO_COUNT>  (1) 
0

>  <PUBCHEM_BOND_UDEF_STEREO_COUNT>  (1) 
0

>  <PUBCHEM_ISOTOPIC_ATOM_COUNT>  (1) 
0

>  <PUBCHEM_COMPONENT_COUNT>  (1) 
1

>  <PUBCHEM_CACTVS_TAUTO_COUNT>  (1) 
2

>  <PUBCHEM_CONFORMER_ID>  (1) 
0000937500000002

>  <PUBCHEM_MMFF94_ENERGY>  (1) 
68.7784

>  <PUBCHEM_FEATURE_SELFOVERLAP>  (1) 
35.543

>  <PUBCHEM_SHAPE_FINGERPRINT>  (1) 
10319926 262 18339625833618434994
10411042 1 17760086611782275427
10493431 412 18337392648156320369
10498660 4 18413394228451144560
10646746 165 18411981386390331664
10670039 82 18187377523192003750
11405975 8 18335980866050928226
11552529 35 15648484322556403496
11595378 159 17603298241555321368
12107183 9 18044638816511256042
12173636 292 18336262345549082663
12236239 1 17385718144835141642
12390115 104 18270411503519589601
12403259 415 18130228263424029928
12403814 3 17168137940972797277
12422481 6 16517373167906822709
12596602 18 16733264637593022816
12633257 1 18040991856316118780
12788726 201 17171263989490224083
12969540 114 17489862752330660157
13402501 40 18272926154883793456
13965767 371 17677885730455282620
14251764 38 18118968233226641444
14341114 328 17676201403406616904
14739800 52 17901100047807791512
14790565 3 18124319298979828665
15375358 24 18343862233927950610
15806764 133 18058750107334019584
15961568 22 18048313646343890348
16988056 13 15882899759391461557
173720 79 17822282471170525827
17980427 23 18040996301638587756
18186145 218 18131361777632869435
18915476 22 17346609564339149182
20645477 56 18409730647264815577
20645477 70 16916797275191971870
21033648 29 17988350585790062536
21033650 10 18189920719451895606
21065201 7 18410580625719978194
21859007 373 17100007638722698517
21864079 5 17823717415217232276
22182313 1 18129676290790273958
22289505 5 17775004570762067408
22393880 68 18273220789692994702
23227448 37 18410572933127492285
23557571 272 18342466983705386558
23559900 14 18341056229241961574
23596394 208 17632307761175451862
3268164 11 18341604975263729415
341906 21 18334856151681230660
3472631 163 18335140912081537572
350125 39 18046345232207361514
4028521 119 18273496771047265641
469060 322 18116453594615257179
474 4 17022908973197923134
495365 180 17845924139873363310
5104073 3 18335421235980522699
5895379 119 18335155197559508772
59682541 52 16414628247065831853
633830 44 18056192471816136109
7064713 232 18260267412919725037
7808743 9 18334858342051585848
960060 61 15195562377472987780
9981440 41 18333730234357818411

>  <PUBCHEM_SHAPE_MULTIPOLES>  (1) 
422.28
11.68
2.64
1.44
1.52
0.47
0.73
-7.33
0.24
-3.62
-0.13
2.71
-0.09
1.4

>  <PUBCHEM_SHAPE_SELFOVERLAP>  (1) 
898.264

>  <PUBCHEM_SHAPE_VOLUME>  (1) 
240.3

>  <PUBCHEM_COORDINATE_TYPE>  (1) 
2
5
10

$$$$
