37741
     RDKit          3D

 18 19  0  0  0  0  0  0  0  0999 V2000
    4.3194   -3.0743    0.3389 Cl  0  0  0  0  0  0  0  0  0  0  0  0
    2.8236    1.6983   -0.1746 O   0  0  0  0  0  0  0  0  0  0  0  0
   -4.5770   -0.8628    0.4170 N   0  0  0  0  0  0  0  0  0  0  0  0
   -1.3551    0.4170   -1.1128 C   0  0  0  0  0  0  0  0  0  0  0  0
   -2.3410    0.0434   -0.0185 C   0  0  0  0  0  0  0  0  0  0  0  0
   -0.0886    0.9955   -0.5150 C   0  0  0  0  0  0  0  0  0  0  0  0
   -3.6264   -0.5116   -0.6314 C   0  0  0  0  0  0  0  0  0  0  0  0
    1.0221    0.0354   -0.2232 C   0  0  0  0  0  0  0  0  0  0  0  0
   -0.0568    2.3290   -0.3146 C   0  0  0  0  0  0  0  0  0  0  0  0
    1.0150    3.2132    0.2445 C   0  0  0  0  0  0  0  0  0  0  0  0
    2.3775    0.4026   -0.1122 C   0  0  0  0  0  0  0  0  0  0  0  0
    2.2048    2.4901    0.8373 C   0  0  0  0  0  0  0  0  0  0  0  0
    0.7398   -1.3425   -0.1076 C   0  0  0  0  0  0  0  0  0  0  0  0
    3.3923   -0.5546    0.0442 C   0  0  0  0  0  0  0  0  0  0  0  0
   -5.8202   -1.3726   -0.1642 C   0  0  0  0  0  0  0  0  0  0  0  0
   -4.8529    0.2936    1.2713 C   0  0  0  0  0  0  0  0  0  0  0  0
    1.7474   -2.2966    0.0773 C   0  0  0  0  0  0  0  0  0  0  0  0
    3.0761   -1.9032    0.1436 C   0  0  0  0  0  0  0  0  0  0  0  0
  1 18  1  0
  2 11  1  0
  2 12  1  0
  3  7  1  0
  3 15  1  0
  3 16  1  0
  4  5  1  0
  4  6  1  0
  5  7  1  0
  6  8  1  0
  6  9  2  0
  8 11  2  0
  8 13  1  0
  9 10  1  0
 10 12  1  0
 11 14  1  0
 13 17  2  0
 14 18  2  0
 17 18  1  0
M  END
>  <PUBCHEM_COMPOUND_CID>  (1) 
37741

>  <PUBCHEM_CONFORMER_RMSD>  (1) 
0.6

>  <PUBCHEM_CONFORMER_DIVERSEORDER>  (1) 
1
20
42
60
61
66
24
44
40
25
49
23
39
5
37
41
13
31
59
29
57
50
34
2
32
3
64
33
63
18
52
28
51
62
38
48
54
65
36
16
19
56
12
53
9
30
11
15
27
58
43
35
6
21
22
26
47
14
45
17
8
46
55
7
10
4

>  <PUBCHEM_MMFF94_PARTIAL_CHARGES>  (1) 
21
1 -0.18
10 0.14
11 0.08
12 0.28
13 -0.15
14 -0.15
15 0.27
16 0.27
17 -0.15
18 0.18
2 -0.36
25 0.15
3 -0.81
30 0.15
31 0.15
38 0.15
4 0.14
6 -0.17
7 0.27
8 0.03
9 -0.29

>  <PUBCHEM_EFFECTIVE_ROTOR_COUNT>  (1) 
4.6

>  <PUBCHEM_PHARMACOPHORE_FEATURES>  (1) 
4
1 2 acceptor
1 3 cation
6 8 11 13 14 17 18 rings
7 2 6 8 9 10 11 12 rings

>  <PUBCHEM_HEAVY_ATOM_COUNT>  (1) 
18

>  <PUBCHEM_ATOM_DEF_STEREO_COUNT>  (1) 
0

>  <PUBCHEM_ATOM_UDEF_STEREO_COUNT>  (1) 
0

>  <PUBCHEM_BOND_DEF_STEREO_COUNT>  (1) 
0

>  <PUBCHEM_BOND_UDEF_STEREO_COUNT>  (1) 
0

>  <PUBCHEM_ISOTOPIC_ATOM_COUNT>  (1) 
0

>  <PUBCHEM_COMPONENT_COUNT>  (1) 
1

>  <PUBCHEM_CACTVS_TAUTO_COUNT>  (1) 
1

>  <PUBCHEM_CONFORMER_ID>  (1) 
0000936D00000001

>  <PUBCHEM_MMFF94_ENERGY>  (1) 
54.3152

>  <PUBCHEM_FEATURE_SELFOVERLAP>  (1) 
20.306

>  <PUBCHEM_SHAPE_FINGERPRINT>  (1) 
10411042 1 18338796685502280854
10493431 412 17908136925781878136
10967382 1 18410850001762798900
114674 6 18186797002285320355
12107183 9 18198351646128673577
12553582 1 18341885247818681678
13103583 49 18200887158280532347
13140716 1 17980469389326420912
13533116 47 18339363076167384211
13911852 28 18339075965571556687
13955234 65 18340204223188026745
14178342 30 17839161249792695368
14252887 29 18114462353071200857
14787075 74 18187652366929606338
14790565 3 18048885392147714732
15042514 8 17762900966116081938
15375462 189 18342736334168716749
15475509 84 17987523610848376585
15501101 241 18333731338111217301
15527383 91 18337679624658758281
16945 1 18340749508500128492
1813 80 18129391414341701606
20645477 70 18262224608421093911
20739085 24 18411709767820538861
20832881 197 18261958432091472475
21041028 32 18269833121284378260
21065198 48 18272657865972898857
21197605 99 17832712644678557963
221490 88 18335697192013512326
2255824 54 18267871755480378861
23559900 14 17968089807319704421
2748010 2 18052794998140212204
31174 14 18409722980431843620
3286 77 18335420140652838351
33824 294 18337387270060440337
3421961 26 18410853265489602923
458136 41 18191870230629804468
474 4 18124594447163341273
5104073 3 18196361529765823074
54173680 148 17690838961283917086
58807428 26 17981582060934445784
7364860 26 18340203089200498652
7970288 3 18265891367504180011
8863177 126 18041859401498602963
9709674 26 18261395615503998955

>  <PUBCHEM_SHAPE_MULTIPOLES>  (1) 
361.45
9.55
3.42
0.88
14.11
1.19
-0.06
-7.65
-1.92
-4.06
-0.48
0.55
0.13
-0.14

>  <PUBCHEM_SHAPE_SELFOVERLAP>  (1) 
737.99

>  <PUBCHEM_SHAPE_VOLUME>  (1) 
210.1

>  <PUBCHEM_COORDINATE_TYPE>  (1) 
2
5
10

$$$$
