37743
     RDKit          3D

 20 22  0  0  1  0  0  0  0  0999 V2000
    5.9644   -1.1775   -1.0161 Cl  0  0  0  0  0  0  0  0  0  0  0  0
    1.3741   -1.5121    1.0224 O   0  0  0  0  0  0  0  0  0  0  0  0
    0.5591    2.5157    0.3421 O   0  0  0  0  0  0  0  0  0  0  0  0
   -3.0385    0.2816    0.0711 N   0  0  0  0  0  0  0  0  0  0  0  0
   -1.8720    1.1623    0.0147 C   0  0  0  0  0  0  0  0  0  0  0  0
   -0.5855    0.3854    0.2897 C   0  0  0  0  0  0  0  0  0  0  0  0
   -2.9350   -0.7741   -0.9461 C   0  0  0  0  0  0  0  0  0  0  0  0
   -4.2762    1.0569   -0.0920 C   0  0  0  0  0  0  0  0  0  0  0  0
   -4.1236   -1.7338   -0.8684 C   0  0  0  0  0  0  0  0  0  0  0  0
   -5.5087    0.1573    0.0134 C   0  0  0  0  0  0  0  0  0  0  0  0
   -5.4472   -0.9878   -0.9912 C   0  0  0  0  0  0  0  0  0  0  0  0
   -0.6590   -0.3220    1.6435 C   0  0  0  0  0  0  0  0  0  0  0  0
    0.6330    1.2957    0.2287 C   0  0  0  0  0  0  0  0  0  0  0  0
    0.6804   -0.8860    2.1021 C   0  0  0  0  0  0  0  0  0  0  0  0
    1.9584    0.6555    0.0036 C   0  0  0  0  0  0  0  0  0  0  0  0
    2.2357   -0.6724    0.3628 C   0  0  0  0  0  0  0  0  0  0  0  0
    2.9448    1.4179   -0.6379 C   0  0  0  0  0  0  0  0  0  0  0  0
    3.4704   -1.2383    0.0250 C   0  0  0  0  0  0  0  0  0  0  0  0
    4.1829    0.8524   -0.9454 C   0  0  0  0  0  0  0  0  0  0  0  0
    4.4425   -0.4767   -0.6221 C   0  0  0  0  0  0  0  0  0  0  0  0
  1 20  1  0
  2 14  1  0
  2 16  1  0
  3 13  2  0
  4  5  1  0
  4  7  1  0
  4  8  1  0
  5  6  1  0
  6 12  1  0
  6 13  1  0
  7  9  1  0
  8 10  1  0
  9 11  1  0
 10 11  1  0
 12 14  1  0
 13 15  1  0
 15 16  2  0
 15 17  1  0
 16 18  1  0
 17 19  2  0
 18 20  2  0
 19 20  1  0
M  END
>  <PUBCHEM_COMPOUND_CID>  (1) 
37743

>  <PUBCHEM_CONFORMER_RMSD>  (1) 
0.6

>  <PUBCHEM_CONFORMER_DIVERSEORDER>  (1) 
1
11
23
16
8
4
22
20
3
19
21
26
12
18
28
2
7
10
14
5
17
15
6
13
25
24
31
27
29
9
32
30

>  <PUBCHEM_MMFF94_PARTIAL_CHARGES>  (1) 
19
1 -0.18
13 0.42
14 0.28
15 0.09
16 0.08
17 -0.15
18 -0.15
19 -0.15
2 -0.36
20 0.18
3 -0.57
38 0.15
39 0.15
4 -0.81
40 0.15
5 0.27
6 0.06
7 0.27
8 0.27

>  <PUBCHEM_EFFECTIVE_ROTOR_COUNT>  (1) 
4

>  <PUBCHEM_PHARMACOPHORE_FEATURES>  (1) 
6
1 2 acceptor
1 3 acceptor
1 4 cation
6 15 16 17 18 19 20 rings
6 4 7 8 9 10 11 rings
7 2 6 12 13 14 15 16 rings

>  <PUBCHEM_HEAVY_ATOM_COUNT>  (1) 
20

>  <PUBCHEM_ATOM_DEF_STEREO_COUNT>  (1) 
0

>  <PUBCHEM_ATOM_UDEF_STEREO_COUNT>  (1) 
1

>  <PUBCHEM_BOND_DEF_STEREO_COUNT>  (1) 
0

>  <PUBCHEM_BOND_UDEF_STEREO_COUNT>  (1) 
0

>  <PUBCHEM_ISOTOPIC_ATOM_COUNT>  (1) 
0

>  <PUBCHEM_COMPONENT_COUNT>  (1) 
1

>  <PUBCHEM_CACTVS_TAUTO_COUNT>  (1) 
2

>  <PUBCHEM_CONFORMER_ID>  (1) 
0000936F00000001

>  <PUBCHEM_MMFF94_ENERGY>  (1) 
49.2263

>  <PUBCHEM_FEATURE_SELFOVERLAP>  (1) 
30.456

>  <PUBCHEM_SHAPE_FINGERPRINT>  (1) 
10498660 4 16009573699679286413
10693767 8 18335696084160883050
11089746 13 11602830128782570062
11128504 68 18260830414264592823
11796584 16 17346883329701773039
11961588 58 17096091410818128748
12236239 1 18272937115365551620
12251169 10 11095879367335893008
12553582 1 18338502089489612521
12596602 18 8502652597460346542
12633257 1 13758065312045905014
12670546 177 18260267451415856639
12730499 353 17167867452374782419
12788726 201 18270118985870718401
12892183 10 9223235147672948631
12969540 114 16008745848611366951
13167823 11 18341894112736162285
13288520 33 18131352994783269877
14251751 18 17418369229127538807
14252887 29 12967137098952415652
14386348 63 15626504990627769703
14576447 43 18411133632581256318
14911166 2 17968104105545407280
15209294 21 8214138547482780230
15527383 91 12679458690396389146
17349148 13 18113896031779306264
17834072 33 18411700997671296341
1813 80 14476970007662299160
18186145 218 17603583049431733516
193927 3 17275117140515130230
19784866 140 18335701611318581825
19784866 240 17775013358001021206
19862831 5 18334853926882883665
200 152 18413112740805458952
20645477 70 18408886217681156646
20871999 31 18410570661284646487
21267235 1 18412830205346489535
21521239 73 18335421266361895006
21637258 2 17346593058626596302
221357 26 18333447638547188613
221490 88 18266179628870979523
22393880 68 18334284366853494181
22950370 63 18343303669431531229
231179 274 15213014959831596008
23184049 59 11095882666002723128
23379529 103 18128259089058912671
23402539 116 18335706005566030404
23402655 69 18187642453860036261
23557571 272 17559958727689162200
23559900 14 17916854837946550177
25 1 17675925387074649362
25147074 1 17897160213422677000
26918003 58 16343985788521046276
2838139 119 14851607713023480526
2871803 45 18113894961741832965
2916195 48 12757443777478885574
3004659 81 18410573976957240214
3009799 131 18113899364916507716
3060560 45 17385438839001317310
314173 85 14117805712459932850
3323516 105 18334852865883517201
33382 64 17346324748052117894
3472631 163 12901549044154205919
465052 167 17988364883583164647
4990 188 18410014329448540964
559249 180 18130788928454817399
59755656 520 16732990820622167843
633830 44 17895194424086906325
6786 2 15904853213962112880
7495541 125 17203606021062689440
9981440 41 17259333900254943353

>  <PUBCHEM_SHAPE_MULTIPOLES>  (1) 
396.74
12.18
1.79
1.31
3.75
0.37
-0.57
-4.08
5.9
-0.19
0.13
-0.22
-0.43
-0.69

>  <PUBCHEM_SHAPE_SELFOVERLAP>  (1) 
831.328

>  <PUBCHEM_SHAPE_VOLUME>  (1) 
223

>  <PUBCHEM_COORDINATE_TYPE>  (1) 
2
5
10

$$$$
