3774
     RDKit          3D

 15 16  0  0  1  0  0  0  0  0999 V2000
    2.7838    1.3982   -0.1658 O   0  0  0  0  0  0  0  0  0  0  0  0
    3.5145   -0.3651   -1.4334 O   0  0  0  0  0  0  0  0  0  0  0  0
   -2.6185    0.5805    0.2640 N   0  0  0  0  0  0  0  0  0  0  0  0
    0.7029    0.5552    0.5107 C   0  0  0  0  0  0  0  0  0  0  0  0
    1.5322   -0.5962   -0.0475 C   0  0  0  0  0  0  0  0  0  0  0  0
   -0.3024    1.0673   -0.5246 C   0  0  0  0  0  0  0  0  0  0  0  0
    1.7557    1.6043    0.8092 C   0  0  0  0  0  0  0  0  0  0  0  0
    2.0100   -1.5620    1.0278 C   0  0  0  0  0  0  0  0  0  0  0  0
    2.7138    0.1213   -0.6492 C   0  0  0  0  0  0  0  0  0  0  0  0
   -1.5700    0.2523   -0.5288 C   0  0  0  0  0  0  0  0  0  0  0  0
    0.8548   -2.3346    1.6424 C   0  0  0  0  0  0  0  0  0  0  0  0
   -1.8703   -0.8554   -1.2560 C   0  0  0  0  0  0  0  0  0  0  0  0
   -3.6242   -0.3264    0.0532 C   0  0  0  0  0  0  0  0  0  0  0  0
   -3.1856   -1.2318   -0.8877 C   0  0  0  0  0  0  0  0  0  0  0  0
   -2.6967    1.6925    1.1857 C   0  0  0  0  0  0  0  0  0  0  0  0
  1  7  1  0
  1  9  1  0
  2  9  2  0
  3 10  1  0
  3 13  1  0
  3 15  1  0
  4  5  1  0
  4  6  1  0
  4  7  1  0
  5  8  1  0
  5  9  1  0
  6 10  1  0
  8 11  1  0
 10 12  2  0
 12 14  1  0
 13 14  2  0
M  END
>  <PUBCHEM_COMPOUND_CID>  (1) 
3774

>  <PUBCHEM_CONFORMER_RMSD>  (1) 
0.6

>  <PUBCHEM_CONFORMER_DIVERSEORDER>  (1) 
5
12
55
46
54
37
10
48
18
29
56
52
20
32
62
47
33
14
23
34
58
59
50
9
61
40
30
42
41
19
57
3
51
60
17
38
21
44
31
35
13
26
24
27
16
15
1
2
4
36
7
11
64
22
43
25
6
49
53
63
28
39
8
45

>  <PUBCHEM_MMFF94_PARTIAL_CHARGES>  (1) 
15
1 -0.43
10 -0.33
12 -0.15
13 -0.3
14 -0.15
15 0.26
2 -0.57
27 0.15
28 0.15
29 0.15
3 0.05
5 0.06
6 0.18
7 0.28
9 0.66

>  <PUBCHEM_EFFECTIVE_ROTOR_COUNT>  (1) 
3.8

>  <PUBCHEM_PHARMACOPHORE_FEATURES>  (1) 
5
1 11 hydrophobe
1 2 acceptor
1 3 cation
5 1 4 5 7 9 rings
5 3 10 12 13 14 rings

>  <PUBCHEM_HEAVY_ATOM_COUNT>  (1) 
15

>  <PUBCHEM_ATOM_DEF_STEREO_COUNT>  (1) 
0

>  <PUBCHEM_ATOM_UDEF_STEREO_COUNT>  (1) 
2

>  <PUBCHEM_BOND_DEF_STEREO_COUNT>  (1) 
0

>  <PUBCHEM_BOND_UDEF_STEREO_COUNT>  (1) 
0

>  <PUBCHEM_ISOTOPIC_ATOM_COUNT>  (1) 
0

>  <PUBCHEM_COMPONENT_COUNT>  (1) 
1

>  <PUBCHEM_CACTVS_TAUTO_COUNT>  (1) 
2

>  <PUBCHEM_CONFORMER_ID>  (1) 
00000EBE00000005

>  <PUBCHEM_MMFF94_ENERGY>  (1) 
18.8636

>  <PUBCHEM_FEATURE_SELFOVERLAP>  (1) 
25.371

>  <PUBCHEM_SHAPE_FINGERPRINT>  (1) 
107287 299 17240490190814760138
12202030 40 16515976852320774571
124424 183 14333131819048916902
12932764 1 18336261262911466125
13221675 6 18272933842790200831
13538477 17 18271524178652415457
14144814 61 18131068221197874605
14787075 74 17547282763032687623
15279307 12 18409166606247646475
15375462 189 18264210218545541146
15775835 57 18408324363081428847
15852999 172 17168692137339972219
16752209 62 17917418780021261141
16945 1 17894911853640262668
17357779 13 17319026309544350395
18186145 218 18261115192414116996
18522851 12 18337116661435573027
19422 9 18271815617810613716
20231682 184 15140967287553380462
20442098 301 17846208994851952439
20645477 70 18335967702229328055
21730867 7 17603579725227351142
22445834 79 18410290272903006827
2255824 54 18335983155363097876
23175994 123 14620526592460370372
23236772 104 18341893051910907993
232386 152 18198887142023592290
23382010 3 18116732874852993180
23402539 116 18333733507755471564
23598291 2 18192997015109531531
23598294 1 17989773289395810897
2748010 2 14733664603665236599
2871803 45 18335974385108626783
53748568 43 18337959991127705067
74978 22 18201994396259262709
8030462 33 18334850611041452605
81228 2 17101728744125056258

>  <PUBCHEM_SHAPE_MULTIPOLES>  (1) 
291.97
5.83
1.96
1.37
1.64
0.41
0.11
0.09
-1.06
-0.39
0.93
-0.23
0.38
-1.01

>  <PUBCHEM_SHAPE_SELFOVERLAP>  (1) 
610.461

>  <PUBCHEM_SHAPE_VOLUME>  (1) 
169.7

>  <PUBCHEM_COORDINATE_TYPE>  (1) 
2
5
10

$$$$
