37750
     RDKit          3D

 16 16  0  0  0  0  0  0  0  0999 V2000
    3.7893   -1.5378    1.4591 Cl  0  0  0  0  0  0  0  0  0  0  0  0
   -0.0164    1.7454    0.6647 O   0  0  0  0  0  0  0  0  0  0  0  0
   -1.8545   -1.3004    0.2896 O   0  0  0  0  0  0  0  0  0  0  0  0
   -3.6242   -0.3752   -0.8656 O   0  0  0  0  0  0  0  0  0  0  0  0
   -2.3767    2.0927    0.4616 C   0  0  0  0  0  0  0  0  0  0  0  0
   -2.6917    0.7372    1.0861 C   0  0  0  0  0  0  0  0  0  0  0  0
   -1.0388    2.0809   -0.2633 C   0  0  0  0  0  0  0  0  0  0  0  0
   -2.8079   -0.3528    0.0452 C   0  0  0  0  0  0  0  0  0  0  0  0
    1.0843    1.0989    0.1653 C   0  0  0  0  0  0  0  0  0  0  0  0
   -1.8363   -2.4052   -0.6201 C   0  0  0  0  0  0  0  0  0  0  0  0
    1.7895    0.2153    0.9742 C   0  0  0  0  0  0  0  0  0  0  0  0
    1.4841    1.3346   -1.1449 C   0  0  0  0  0  0  0  0  0  0  0  0
    2.9099   -0.4418    0.4658 C   0  0  0  0  0  0  0  0  0  0  0  0
    2.6044    0.6776   -1.6535 C   0  0  0  0  0  0  0  0  0  0  0  0
    3.3172   -0.2107   -0.8481 C   0  0  0  0  0  0  0  0  0  0  0  0
   -0.7322   -3.3588   -0.2159 C   0  0  0  0  0  0  0  0  0  0  0  0
  1 13  1  0
  2  7  1  0
  2  9  1  0
  3  8  1  0
  3 10  1  0
  4  8  2  0
  5  6  1  0
  5  7  1  0
  6  8  1  0
  9 11  2  0
  9 12  1  0
 10 16  1  0
 11 13  1  0
 12 14  2  0
 13 15  2  0
 14 15  1  0
M  END
>  <PUBCHEM_COMPOUND_CID>  (1) 
37750

>  <PUBCHEM_CONFORMER_RMSD>  (1) 
0.8

>  <PUBCHEM_CONFORMER_DIVERSEORDER>  (1) 
3
13
250
301
22
88
273
75
81
271
256
101
50
227
106
51
2
306
147
130
319
263
257
18
100
299
117
165
161
138
78
25
69
168
196
154
48
96
199
307
119
124
115
94
276
90
9
135
224
95
291
35
235
6
312
152
122
110
46
102
134
278
213
207
47
120
114
223
41
209
155
303
66
67
87
76
296
195
113
225
123
61
80
160
220
200
131
156
170
72
318
70
34
8
254
71
53
297
300
151
136
247
127
243
268
1
174
14
24
146
129
62
59
121
166
36
4
179
43
177
57
292
40
231
45
149
30
52
82
132
33
245
49
85
295
125
103
44
163
282
275
150
42
28
89
237
266
314
23
148
244
198
187
308
164
233
265
26
302
304
286
261
142
104
230
194
262
206
249
139
162
305
317
108
277
19
188
234
172
264
111
118
274
128
64
86
21
210
293
7
214
190
158
55
315
79
141
272
217
133
109
289
236
58
29
287
91
260
219
202
208
242
239
311
280
240
197
181
251
77
246
11
60
269
126
54
145
65
92
167
232
97
12
169
74
137
191
185
226
17
159
255
215
178
171
31
93
218
252
192
56
258
186
98
38
279
184
189
270
193
153
84
228
99
27
143
73
10
313
259
316
39
281
32
157
309
298
201
20
105
183
248
83
37
221
241
283
229
112
173
222
182
116
211
290
216
144
267
205
204
176
15
16
238
175
285
284
180
63
253
212
68
5
107
310
203
288
294
140

>  <PUBCHEM_MMFF94_PARTIAL_CHARGES>  (1) 
18
1 -0.18
10 0.28
11 -0.15
12 -0.15
13 0.18
14 -0.15
15 -0.15
2 -0.36
25 0.15
26 0.15
27 0.15
3 -0.43
31 0.15
4 -0.57
6 0.06
7 0.28
8 0.66
9 0.08

>  <PUBCHEM_EFFECTIVE_ROTOR_COUNT>  (1) 
7

>  <PUBCHEM_PHARMACOPHORE_FEATURES>  (1) 
3
1 2 acceptor
1 4 acceptor
6 9 11 12 13 14 15 rings

>  <PUBCHEM_HEAVY_ATOM_COUNT>  (1) 
16

>  <PUBCHEM_ATOM_DEF_STEREO_COUNT>  (1) 
0

>  <PUBCHEM_ATOM_UDEF_STEREO_COUNT>  (1) 
0

>  <PUBCHEM_BOND_DEF_STEREO_COUNT>  (1) 
0

>  <PUBCHEM_BOND_UDEF_STEREO_COUNT>  (1) 
0

>  <PUBCHEM_ISOTOPIC_ATOM_COUNT>  (1) 
0

>  <PUBCHEM_COMPONENT_COUNT>  (1) 
1

>  <PUBCHEM_CACTVS_TAUTO_COUNT>  (1) 
1

>  <PUBCHEM_CONFORMER_ID>  (1) 
0000937600000003

>  <PUBCHEM_MMFF94_ENERGY>  (1) 
31.3297

>  <PUBCHEM_FEATURE_SELFOVERLAP>  (1) 
15.223

>  <PUBCHEM_SHAPE_FINGERPRINT>  (1) 
11321824 6 18128532871827908103
11471102 22 15482394157991876880
11578080 2 17970037072520452356
12553582 1 18341341075261428181
12633257 1 17846491547870716650
1420 336 18267867379056410107
14251711 518 17907863151391073566
14251745 187 17988098728470027086
15006816 218 17908705029431966163
16752209 62 18411412887260244093
17977361 122 18338507543613139139
18186145 218 14996577152751143272
20645476 183 18041851713126749783
21634736 98 18189907585310113772
23114952 82 12613582456293168512
23184049 29 18198054978992669937
232386 152 18412821387272157152
23559900 14 18059018268544979060
23598291 2 17749959834442545652
2748010 2 16604350945127192533
465052 167 17970374653271193993
539174 4 17483137950368912739
568465 68 16773808008196984508
74978 22 18267870656126655685
90525 40 18262245399941152581

>  <PUBCHEM_SHAPE_MULTIPOLES>  (1) 
313.53
6.24
2.98
1.33
1.21
2.13
0.08
1.13
-0.55
-1.69
0.26
0.95
-0.06
-1.44

>  <PUBCHEM_SHAPE_SELFOVERLAP>  (1) 
622.165

>  <PUBCHEM_SHAPE_VOLUME>  (1) 
187

>  <PUBCHEM_COORDINATE_TYPE>  (1) 
2
5
10

$$$$
