37753
     RDKit          3D

 19 20  0  0  0  0  0  0  0  0999 V2000
    5.8265    1.4823   -0.2308 Cl  0  0  0  0  0  0  0  0  0  0  0  0
    2.2737   -2.0833   -0.2771 O   0  0  0  0  0  0  0  0  0  0  0  0
   -2.0917    0.0743    0.4371 O   0  0  0  0  0  0  0  0  0  0  0  0
   -4.7734    0.2830   -0.4787 N   0  0  0  0  0  0  0  0  0  0  0  0
   -0.8208    0.6272    0.6320 N   0  0  0  0  0  0  0  0  0  0  0  0
   -0.3998   -1.3371   -0.7576 C   0  0  0  0  0  0  0  0  0  0  0  0
   -0.0887   -2.6008    0.0300 C   0  0  0  0  0  0  0  0  0  0  0  0
    0.0400   -0.1048    0.0006 C   0  0  0  0  0  0  0  0  0  0  0  0
    1.3067   -2.5926    0.6435 C   0  0  0  0  0  0  0  0  0  0  0  0
    1.4857    0.2382    0.0021 C   0  0  0  0  0  0  0  0  0  0  0  0
    2.4873   -0.7316   -0.1672 C   0  0  0  0  0  0  0  0  0  0  0  0
    1.8450    1.5867    0.1360 C   0  0  0  0  0  0  0  0  0  0  0  0
   -4.4195    0.2974    0.9329 C   0  0  0  0  0  0  0  0  0  0  0  0
   -3.0302    0.8817    1.1319 C   0  0  0  0  0  0  0  0  0  0  0  0
    3.8265   -0.3358   -0.2588 C   0  0  0  0  0  0  0  0  0  0  0  0
    3.1863    1.9670    0.0710 C   0  0  0  0  0  0  0  0  0  0  0  0
    4.1750    1.0083   -0.1342 C   0  0  0  0  0  0  0  0  0  0  0  0
   -4.7236    1.6356   -1.0393 C   0  0  0  0  0  0  0  0  0  0  0  0
   -6.1050   -0.2958   -0.6734 C   0  0  0  0  0  0  0  0  0  0  0  0
  1 17  1  0
  2  9  1  0
  2 11  1  0
  3  5  1  0
  3 14  1  0
  4 13  1  0
  4 18  1  0
  4 19  1  0
  5  8  2  0
  6  7  1  0
  6  8  1  0
  7  9  1  0
  8 10  1  0
 10 11  2  0
 10 12  1  0
 11 15  1  0
 12 16  2  0
 13 14  1  0
 15 17  2  0
 16 17  1  0
M  END
>  <PUBCHEM_COMPOUND_CID>  (1) 
37753

>  <PUBCHEM_CONFORMER_RMSD>  (1) 
0.6

>  <PUBCHEM_CONFORMER_DIVERSEORDER>  (1) 
6
40
34
69
44
50
74
25
55
72
66
70
16
57
60
47
4
39
49
29
28
10
15
51
58
63
56
13
65
23
35
7
36
59
22
45
68
33
62
19
42
54
64
43
52
37
71
46
9
53
26
20
17
27
67
24
18
31
38
41
8
14
32
12
3
30
48
21
11
5
1
2
61
73

>  <PUBCHEM_MMFF94_PARTIAL_CHARGES>  (1) 
21
1 -0.18
10 0.09
11 0.08
12 -0.15
13 0.27
14 0.28
15 -0.15
16 -0.15
17 0.18
18 0.27
19 0.27
2 -0.36
28 0.15
3 -0.22
31 0.15
32 0.15
4 -0.81
5 -0.51
6 0.06
8 0.3
9 0.28

>  <PUBCHEM_EFFECTIVE_ROTOR_COUNT>  (1) 
4.8

>  <PUBCHEM_PHARMACOPHORE_FEATURES>  (1) 
5
1 2 acceptor
1 4 cation
1 5 acceptor
6 10 11 12 15 16 17 rings
7 2 6 7 8 9 10 11 rings

>  <PUBCHEM_HEAVY_ATOM_COUNT>  (1) 
19

>  <PUBCHEM_ATOM_DEF_STEREO_COUNT>  (1) 
0

>  <PUBCHEM_ATOM_UDEF_STEREO_COUNT>  (1) 
0

>  <PUBCHEM_BOND_DEF_STEREO_COUNT>  (1) 
0

>  <PUBCHEM_BOND_UDEF_STEREO_COUNT>  (1) 
1

>  <PUBCHEM_ISOTOPIC_ATOM_COUNT>  (1) 
0

>  <PUBCHEM_COMPONENT_COUNT>  (1) 
1

>  <PUBCHEM_CACTVS_TAUTO_COUNT>  (1) 
1

>  <PUBCHEM_CONFORMER_ID>  (1) 
0000937900000006

>  <PUBCHEM_MMFF94_ENERGY>  (1) 
59.3684

>  <PUBCHEM_FEATURE_SELFOVERLAP>  (1) 
25.38

>  <PUBCHEM_SHAPE_FINGERPRINT>  (1) 
10411042 1 17762057640883109978
10693767 8 18059016051994559406
11471102 20 18411421691827052352
12236239 1 17775287144975800209
13009979 54 17128182624158493714
13583140 156 17676210212273667689
13631057 29 18199746028731433407
13836976 161 18408890658919933956
14251717 144 18339925922197461115
14251757 5 17487321871691968759
14528608 73 18413387631549981605
15142383 8 10807669878169421451
15375358 24 17894636941674098473
19489759 90 16805321111367153017
200 152 18202561761887405329
204376 136 18409454708121258218
20602899 9 15554458434650713134
20645477 70 18341050709855571151
21054139 6 18270954752020310639
21521239 73 17775573026741957614
21524375 3 18272093820043298052
231179 274 18261112963009494504
23402539 116 18200872980282401084
23402655 69 18273215291796823053
23558518 356 17685494647667757880
23559900 14 16878799179358859482
293599 30 18410016572044046068
3060560 45 18410859845759360606
335352 9 18411705405294133932
33824 294 18408324363049897322
3545911 37 18411703218285387305
3759504 43 18187650266363304282
4072396 5 18335127684151490904
42630746 31 18412826867402617390
4325135 7 18342457084744746759
474 4 18410013273018584792
474229 33 18340490053599269595
5104073 3 18115594738594932601
53917941 68 18270105959102734942
58051976 378 18341899592745309449
59755656 215 18409452466781209310
59755656 520 18337103566085809622
633830 44 17987535727124385381
81539 233 18333455326343339394
8272917 22 18339928091356308167

>  <PUBCHEM_SHAPE_MULTIPOLES>  (1) 
371.18
12
2.42
0.91
9.94
1.46
0.04
-6.62
-2.14
-1.57
0.02
0.87
-0.09
0.05

>  <PUBCHEM_SHAPE_SELFOVERLAP>  (1) 
758.353

>  <PUBCHEM_SHAPE_VOLUME>  (1) 
215.8

>  <PUBCHEM_COORDINATE_TYPE>  (1) 
2
5
10

$$$$
