37755
     RDKit          3D

 13 14  0  0  1  0  0  0  0  0999 V2000
   -4.1722   -0.6639   -0.0221 Cl  0  0  0  0  0  0  0  0  0  0  0  0
    0.7679   -1.4805    0.6883 O   0  0  0  0  0  0  0  0  0  0  0  0
    2.0662    1.3865    1.3683 N   0  0  0  0  0  0  0  0  0  0  0  0
    1.5635    1.2704   -0.0041 C   0  0  0  0  0  0  0  0  0  0  0  0
    2.5339    0.4783   -0.8984 C   0  0  0  0  0  0  0  0  0  0  0  0
    2.8487   -0.9543   -0.4609 C   0  0  0  0  0  0  0  0  0  0  0  0
    0.1436    0.7423   -0.0477 C   0  0  0  0  0  0  0  0  0  0  0  0
    1.6163   -1.8452   -0.4030 C   0  0  0  0  0  0  0  0  0  0  0  0
   -0.1853   -0.5776    0.2960 C   0  0  0  0  0  0  0  0  0  0  0  0
   -0.9025    1.6112   -0.4002 C   0  0  0  0  0  0  0  0  0  0  0  0
   -1.5147   -1.0095    0.3209 C   0  0  0  0  0  0  0  0  0  0  0  0
   -2.2297    1.1755   -0.4006 C   0  0  0  0  0  0  0  0  0  0  0  0
   -2.5356   -0.1332   -0.0365 C   0  0  0  0  0  0  0  0  0  0  0  0
  1 13  1  0
  2  8  1  0
  2  9  1  0
  3  4  1  0
  4  5  1  0
  4  7  1  0
  5  6  1  0
  6  8  1  0
  7  9  2  0
  7 10  1  0
  9 11  1  0
 10 12  2  0
 11 13  2  0
 12 13  1  0
M  END
>  <PUBCHEM_COMPOUND_CID>  (1) 
37755

>  <PUBCHEM_CONFORMER_RMSD>  (1) 
0.4

>  <PUBCHEM_CONFORMER_DIVERSEORDER>  (1) 
1
3
2
4

>  <PUBCHEM_MMFF94_PARTIAL_CHARGES>  (1) 
16
1 -0.18
10 -0.15
11 -0.15
12 -0.15
13 0.18
2 -0.36
21 0.15
22 0.36
23 0.36
24 0.15
25 0.15
3 -0.99
4 0.41
7 -0.14
8 0.28
9 0.08

>  <PUBCHEM_EFFECTIVE_ROTOR_COUNT>  (1) 
1

>  <PUBCHEM_PHARMACOPHORE_FEATURES>  (1) 
5
1 2 acceptor
1 3 cation
1 3 donor
6 7 9 10 11 12 13 rings
7 2 4 5 6 7 8 9 rings

>  <PUBCHEM_HEAVY_ATOM_COUNT>  (1) 
13

>  <PUBCHEM_ATOM_DEF_STEREO_COUNT>  (1) 
0

>  <PUBCHEM_ATOM_UDEF_STEREO_COUNT>  (1) 
1

>  <PUBCHEM_BOND_DEF_STEREO_COUNT>  (1) 
0

>  <PUBCHEM_BOND_UDEF_STEREO_COUNT>  (1) 
0

>  <PUBCHEM_ISOTOPIC_ATOM_COUNT>  (1) 
0

>  <PUBCHEM_COMPONENT_COUNT>  (1) 
1

>  <PUBCHEM_CACTVS_TAUTO_COUNT>  (1) 
1

>  <PUBCHEM_CONFORMER_ID>  (1) 
0000937B00000001

>  <PUBCHEM_MMFF94_ENERGY>  (1) 
34.7481

>  <PUBCHEM_FEATURE_SELFOVERLAP>  (1) 
25.382

>  <PUBCHEM_SHAPE_FINGERPRINT>  (1) 
11206711 2 18261399879809957479
11471102 20 18409448094288184967
12032990 46 18334584572467497003
12423570 1 12889235643441043026
12897270 3 18335143085218431359
12932764 1 17988922288522751301
14128692 85 18266465299856593630
15219456 202 18413100658630120489
15775835 57 18272375325126952110
161256 15 18411134727618412805
16945 1 18336827593025111861
17844478 74 18041014920532733873
20201158 50 18410016511397662734
20645477 70 18342453738638455087
21501502 16 18336834069735554445
22721475 48 18337400361062632351
23402655 69 18410290286020069517
23552423 10 18115029606228262495
23559900 14 17836076772629224422
2748010 2 17831588943292751789
5084963 1 18408891719534282156
528886 8 18334580191104885426
53812653 166 18341612650591716288
581208 293 18340200911931693413
7364860 26 18273492373201175490

>  <PUBCHEM_SHAPE_MULTIPOLES>  (1) 
258.55
5.12
1.85
0.88
3.37
0.05
0.12
0.92
-0.56
-0.57
0.03
-0.41
-0.14
0.45

>  <PUBCHEM_SHAPE_SELFOVERLAP>  (1) 
536.671

>  <PUBCHEM_SHAPE_VOLUME>  (1) 
147.1

>  <PUBCHEM_COORDINATE_TYPE>  (1) 
2
5
10

$$$$
