37757
     RDKit          3D

 14 15  0  0  1  0  0  0  0  0999 V2000
   -4.3147   -0.4523    0.2060 Cl  0  0  0  0  0  0  0  0  0  0  0  0
    0.5788   -1.4745    0.9706 O   0  0  0  0  0  0  0  0  0  0  0  0
    2.1324    1.3366    0.7430 N   0  0  0  0  0  0  0  0  0  0  0  0
    1.5462    0.8759   -0.5194 C   0  0  0  0  0  0  0  0  0  0  0  0
    2.4003   -0.2251   -1.1729 C   0  0  0  0  0  0  0  0  0  0  0  0
    2.6266   -1.4931   -0.3460 C   0  0  0  0  0  0  0  0  0  0  0  0
    0.0892    0.4889   -0.3628 C   0  0  0  0  0  0  0  0  0  0  0  0
    1.3338   -2.2137    0.0077 C   0  0  0  0  0  0  0  0  0  0  0  0
   -0.3216   -0.6404    0.3614 C   0  0  0  0  0  0  0  0  0  0  0  0
   -0.9042    1.3104   -0.9212 C   0  0  0  0  0  0  0  0  0  0  0  0
   -1.6771   -0.9242    0.5526 C   0  0  0  0  0  0  0  0  0  0  0  0
    1.4146    2.4950    1.2476 C   0  0  0  0  0  0  0  0  0  0  0  0
   -2.2592    1.0155   -0.7532 C   0  0  0  0  0  0  0  0  0  0  0  0
   -2.6452   -0.0992   -0.0134 C   0  0  0  0  0  0  0  0  0  0  0  0
  1 14  1  0
  2  8  1  0
  2  9  1  0
  3  4  1  0
  3 12  1  0
  4  5  1  0
  4  7  1  0
  5  6  1  0
  6  8  1  0
  7  9  2  0
  7 10  1  0
  9 11  1  0
 10 13  2  0
 11 14  2  0
 13 14  1  0
M  END
>  <PUBCHEM_COMPOUND_CID>  (1) 
37757

>  <PUBCHEM_CONFORMER_RMSD>  (1) 
0.6

>  <PUBCHEM_CONFORMER_DIVERSEORDER>  (1) 
1
3
5
4
2

>  <PUBCHEM_MMFF94_PARTIAL_CHARGES>  (1) 
16
1 -0.18
10 -0.15
11 -0.15
12 0.27
13 -0.15
14 0.18
2 -0.36
22 0.36
23 0.15
24 0.15
28 0.15
3 -0.9
4 0.41
7 -0.14
8 0.28
9 0.08

>  <PUBCHEM_EFFECTIVE_ROTOR_COUNT>  (1) 
2

>  <PUBCHEM_PHARMACOPHORE_FEATURES>  (1) 
5
1 2 acceptor
1 3 cation
1 3 donor
6 7 9 10 11 13 14 rings
7 2 4 5 6 7 8 9 rings

>  <PUBCHEM_HEAVY_ATOM_COUNT>  (1) 
14

>  <PUBCHEM_ATOM_DEF_STEREO_COUNT>  (1) 
0

>  <PUBCHEM_ATOM_UDEF_STEREO_COUNT>  (1) 
1

>  <PUBCHEM_BOND_DEF_STEREO_COUNT>  (1) 
0

>  <PUBCHEM_BOND_UDEF_STEREO_COUNT>  (1) 
0

>  <PUBCHEM_ISOTOPIC_ATOM_COUNT>  (1) 
0

>  <PUBCHEM_COMPONENT_COUNT>  (1) 
1

>  <PUBCHEM_CACTVS_TAUTO_COUNT>  (1) 
1

>  <PUBCHEM_CONFORMER_ID>  (1) 
0000937D00000001

>  <PUBCHEM_MMFF94_ENERGY>  (1) 
38.6227

>  <PUBCHEM_FEATURE_SELFOVERLAP>  (1) 
25.382

>  <PUBCHEM_SHAPE_FINGERPRINT>  (1) 
12326174 3 17846498140861747612
12423570 1 13499092489596384364
12932764 1 18343019999800359541
15001771 113 17906179451539118614
15219456 202 18409441479664236533
15501101 241 18408046208220004549
15775835 57 18340774835273387582
161256 15 18335136475421992301
16945 1 17969797288605855206
20201158 50 18334582291407528150
20645477 70 18272083894943758767
20871998 184 17471856277909284160
21501502 16 18116157670909366199
21524375 3 17626648750668064912
22721475 48 18261684666127461623
23419403 2 14937090141829938566
23493267 7 16081096948177424737
23552423 10 17749676164568631319
2748010 2 18045794634696122943
3286 77 18413108351053437965
4663303 62 18343007883449716920
5084963 1 18187653478766557725
5255222 1 18407758144541850791
528886 8 17822303404260942806
53812653 166 18409732901916956552
581208 293 18335700602359950615
7364860 26 18342735221545509011

>  <PUBCHEM_SHAPE_MULTIPOLES>  (1) 
279.13
4.93
2.2
1.08
4.55
0.31
-0.02
-0.87
0.24
-1.56
-0.62
-0.33
0.35
0.77

>  <PUBCHEM_SHAPE_SELFOVERLAP>  (1) 
575.458

>  <PUBCHEM_SHAPE_VOLUME>  (1) 
160.3

>  <PUBCHEM_COORDINATE_TYPE>  (1) 
2
5
10

$$$$
