37763
     RDKit          3D

 17 18  0  0  1  0  0  0  0  0999 V2000
   -4.5906   -1.5417   -0.5036 Cl  0  0  0  0  0  0  0  0  0  0  0  0
   -0.5208    1.3011   -1.4682 O   0  0  0  0  0  0  0  0  0  0  0  0
    1.9038   -0.0004    0.2037 N   0  0  0  0  0  0  0  0  0  0  0  0
    0.8576    0.5977    1.0389 C   0  0  0  0  0  0  0  0  0  0  0  0
    0.9788    2.1312    1.0883 C   0  0  0  0  0  0  0  0  0  0  0  0
    0.8945    2.8651   -0.2523 C   0  0  0  0  0  0  0  0  0  0  0  0
   -0.5263    0.1193    0.6474 C   0  0  0  0  0  0  0  0  0  0  0  0
   -0.4260    2.6393   -0.9743 C   0  0  0  0  0  0  0  0  0  0  0  0
   -1.1391    0.4801   -0.5620 C   0  0  0  0  0  0  0  0  0  0  0  0
   -1.2167   -0.7587    1.4995 C   0  0  0  0  0  0  0  0  0  0  0  0
    1.8462   -1.4582    0.2848 C   0  0  0  0  0  0  0  0  0  0  0  0
    3.2196    0.4858    0.6129 C   0  0  0  0  0  0  0  0  0  0  0  0
   -2.3833   -0.0425   -0.9272 C   0  0  0  0  0  0  0  0  0  0  0  0
   -2.4713   -1.2628    1.1487 C   0  0  0  0  0  0  0  0  0  0  0  0
   -3.0524   -0.9076   -0.0658 C   0  0  0  0  0  0  0  0  0  0  0  0
    2.8875   -2.0706   -0.5461 C   0  0  0  0  0  0  0  0  0  0  0  0
    3.7387   -2.5772   -1.2247 C   0  0  0  0  0  0  0  0  0  0  0  0
  1 15  1  0
  2  8  1  0
  2  9  1  0
  3  4  1  0
  3 11  1  0
  3 12  1  0
  4  5  1  0
  4  7  1  0
  5  6  1  0
  6  8  1  0
  7  9  2  0
  7 10  1  0
  9 13  1  0
 10 14  2  0
 11 16  1  0
 13 15  2  0
 14 15  1  0
 16 17  3  0
M  END
>  <PUBCHEM_COMPOUND_CID>  (1) 
37763

>  <PUBCHEM_CONFORMER_RMSD>  (1) 
0.6

>  <PUBCHEM_CONFORMER_DIVERSEORDER>  (1) 
1
14
21
8
3
6
20
11
4
5
13
19
2
17
7
12
16
10
9
18
15
22

>  <PUBCHEM_MMFF94_PARTIAL_CHARGES>  (1) 
19
1 -0.18
10 -0.15
11 0.47
12 0.27
13 -0.15
14 -0.15
15 0.18
16 -0.2
17 -0.18
2 -0.36
25 0.15
3 -0.81
31 0.15
32 0.15
33 0.18
4 0.41
7 -0.14
8 0.28
9 0.08

>  <PUBCHEM_EFFECTIVE_ROTOR_COUNT>  (1) 
3

>  <PUBCHEM_PHARMACOPHORE_FEATURES>  (1) 
5
1 17 hydrophobe
1 2 acceptor
1 3 cation
6 7 9 10 13 14 15 rings
7 2 4 5 6 7 8 9 rings

>  <PUBCHEM_HEAVY_ATOM_COUNT>  (1) 
17

>  <PUBCHEM_ATOM_DEF_STEREO_COUNT>  (1) 
0

>  <PUBCHEM_ATOM_UDEF_STEREO_COUNT>  (1) 
1

>  <PUBCHEM_BOND_DEF_STEREO_COUNT>  (1) 
0

>  <PUBCHEM_BOND_UDEF_STEREO_COUNT>  (1) 
0

>  <PUBCHEM_ISOTOPIC_ATOM_COUNT>  (1) 
0

>  <PUBCHEM_COMPONENT_COUNT>  (1) 
1

>  <PUBCHEM_CACTVS_TAUTO_COUNT>  (1) 
1

>  <PUBCHEM_CONFORMER_ID>  (1) 
0000938300000001

>  <PUBCHEM_MMFF94_ENERGY>  (1) 
53.9028

>  <PUBCHEM_FEATURE_SELFOVERLAP>  (1) 
25.382

>  <PUBCHEM_SHAPE_FINGERPRINT>  (1) 
10764073 3 16176841054613479267
11578080 2 16700017506329326184
116883 192 18336259068283502101
12617007 42 17822569507971662125
13533116 47 18200598141753193491
14817 1 15897015993974283612
15848702 151 18411412951864199039
16945 1 18270123550988196616
17093844 174 11171356491037022302
1813 80 18127997267894239823
18186145 218 17678155278961796879
19591789 44 17615679640675770773
19765921 60 11530769240330536095
20511035 2 16669080869929143937
20600515 1 17531240690561836620
20645477 70 18264761250492548207
20711985 344 18045504114486281434
20871998 22 18411696586523416941
20871999 31 18114182965248032495
21665056 4 16972244263305918254
22721475 48 18333729143256133425
22802520 49 18267292141275232512
23402539 116 17896015729186757560
23419403 2 17558236904990167552
23526113 38 18114179761044245363
23557571 272 18260822675166165296
2748010 2 18268132189707348024
3060560 45 18123188176028101084
4463277 69 18202559592596741807
576247 118 18261689098454499002
7364860 26 18046907353533008949
81228 2 18189055296052542664
84936 31 18126282184273329236

>  <PUBCHEM_SHAPE_MULTIPOLES>  (1) 
340.87
5.97
3.05
1.37
2.21
1.07
-0.06
-5.81
1.22
-2.24
0.94
0.11
0.05
1.18

>  <PUBCHEM_SHAPE_SELFOVERLAP>  (1) 
702.327

>  <PUBCHEM_SHAPE_VOLUME>  (1) 
194.9

>  <PUBCHEM_COORDINATE_TYPE>  (1) 
2
5
10

$$$$
