37766
     RDKit          3D

 19 22  0  0  0  0  0  0  0  0999 V2000
    2.0843    3.0135   -0.0001 O   0  0  0  0  0  0  0  0  0  0  0  0
   -0.5188    0.4205    0.0001 C   0  0  0  0  0  0  0  0  0  0  0  0
    0.2873   -0.7554    0.0002 C   0  0  0  0  0  0  0  0  0  0  0  0
    1.7292   -0.6604    0.0001 C   0  0  0  0  0  0  0  0  0  0  0  0
   -1.9607    0.3255    0.0002 C   0  0  0  0  0  0  0  0  0  0  0  0
    2.3386    0.6171   -0.0003 C   0  0  0  0  0  0  0  0  0  0  0  0
   -2.5703   -0.9519   -0.0003 C   0  0  0  0  0  0  0  0  0  0  0  0
    0.1535    1.6595    0.0000 C   0  0  0  0  0  0  0  0  0  0  0  0
   -0.3851   -1.9945    0.0001 C   0  0  0  0  0  0  0  0  0  0  0  0
    1.5431    1.7579   -0.0004 C   0  0  0  0  0  0  0  0  0  0  0  0
   -1.7747   -2.0929   -0.0003 C   0  0  0  0  0  0  0  0  0  0  0  0
    2.6110   -1.7737    0.0005 C   0  0  0  0  0  0  0  0  0  0  0  0
   -2.8426    1.4389    0.0006 C   0  0  0  0  0  0  0  0  0  0  0  0
    3.7383    0.7525   -0.0003 C   0  0  0  0  0  0  0  0  0  0  0  0
   -3.9699   -1.0872   -0.0004 C   0  0  0  0  0  0  0  0  0  0  0  0
    4.0019   -1.6297    0.0003 C   0  0  0  0  0  0  0  0  0  0  0  0
   -4.2334    1.2950    0.0003 C   0  0  0  0  0  0  0  0  0  0  0  0
    4.5661   -0.3647   -0.0001 C   0  0  0  0  0  0  0  0  0  0  0  0
   -4.7978    0.0299   -0.0002 C   0  0  0  0  0  0  0  0  0  0  0  0
  1 10  1  0
  2  3  1  0
  2  5  1  0
  2  8  2  0
  3  4  2  0
  3  9  1  0
  4  6  1  0
  4 12  1  0
  5  7  2  0
  5 13  1  0
  6 10  2  0
  6 14  1  0
  7 11  1  0
  7 15  1  0
  8 10  1  0
  9 11  2  0
 12 16  2  0
 13 17  2  0
 14 18  2  0
 15 19  2  0
 16 18  1  0
 17 19  1  0
M  END
>  <PUBCHEM_COMPOUND_CID>  (1) 
37766

>  <PUBCHEM_CONFORMER_RMSD>  (1) 
0.4

>  <PUBCHEM_CONFORMER_DIVERSEORDER>  (1) 
1

>  <PUBCHEM_MMFF94_PARTIAL_CHARGES>  (1) 
25
1 -0.53
10 0.08
11 -0.15
12 -0.15
13 -0.15
14 -0.15
15 -0.15
16 -0.15
17 -0.15
18 -0.15
19 -0.15
20 0.15
21 0.15
22 0.15
23 0.15
24 0.15
25 0.15
26 0.15
27 0.15
28 0.15
29 0.15
30 0.15
31 0.45
8 -0.15
9 -0.15

>  <PUBCHEM_EFFECTIVE_ROTOR_COUNT>  (1) 
0

>  <PUBCHEM_PHARMACOPHORE_FEATURES>  (1) 
5
1 1 donor
6 2 3 4 6 8 10 rings
6 2 3 5 7 9 11 rings
6 4 6 12 14 16 18 rings
6 5 7 13 15 17 19 rings

>  <PUBCHEM_HEAVY_ATOM_COUNT>  (1) 
19

>  <PUBCHEM_ATOM_DEF_STEREO_COUNT>  (1) 
0

>  <PUBCHEM_ATOM_UDEF_STEREO_COUNT>  (1) 
0

>  <PUBCHEM_BOND_DEF_STEREO_COUNT>  (1) 
0

>  <PUBCHEM_BOND_UDEF_STEREO_COUNT>  (1) 
0

>  <PUBCHEM_ISOTOPIC_ATOM_COUNT>  (1) 
0

>  <PUBCHEM_COMPONENT_COUNT>  (1) 
1

>  <PUBCHEM_CACTVS_TAUTO_COUNT>  (1) 
3

>  <PUBCHEM_CONFORMER_ID>  (1) 
0000938600000001

>  <PUBCHEM_MMFF94_ENERGY>  (1) 
73.7499

>  <PUBCHEM_FEATURE_SELFOVERLAP>  (1) 
25.441

>  <PUBCHEM_SHAPE_FINGERPRINT>  (1) 
10062212 137 18201432588941183159
10411042 1 16681473985825871791
10608611 8 18338515351921517057
10616163 171 18268151044276576767
10906281 52 18337690658624985402
10967382 1 18338798914109752838
11132069 177 18411132511357226930
11471102 20 18410571790602602006
11578080 2 16986299745482212923
11680986 33 18263648531417967203
116883 192 18127137372903058790
12011746 2 18410856529617301366
12236239 1 17846778499436988061
12251169 10 18411136952290022903
12403259 226 18408880741988510637
12403260 363 18412821396088847645
13140716 1 18265889345006067744
13221675 6 18408602565140247987
13862211 1 18338511950212797866
14115302 16 18113629992593401398
14178342 30 17907843351992265674
14790565 3 18122634859438969776
14866123 147 17262447197677663506
15099037 51 18410573963929965311
15196674 1 18410573980867085319
15442244 35 18411419501024394856
15536298 74 18342455962951167216
1601671 61 18411421687590087908
16945 1 18194682794010201958
17349148 13 18060417997669359495
17492 89 18339642368452109927
17804303 29 18409733962710575237
1813 80 17167863058459708308
18186145 218 17821721749993959575
19591789 44 18193556666549441286
200 152 18060696195939392695
20028762 73 18201434826852084887
20645477 70 18413389860226590686
21029758 11 18342172245927895953
21267235 1 18410865338854077666
21279426 13 18193556657917101311
21421861 104 17823689760133959642
21501502 16 18267303320842781199
221490 88 18263933291918156211
23366157 5 18041557078602514980
23402539 116 18271799090697467351
23463225 33 18410012134741325686
23558518 356 17827076513154949538
23559900 14 18343298193517261288
2748010 2 18410011073868579367
3004659 81 18187933820842963334
335352 9 18338797810292608703
34934 24 18411132550592343602
350125 39 18410296896070066457
4214541 1 18410856547155820801
474 4 17386856186878326388
495365 180 17489010643946726410
5104073 3 18410573998078584499
6138700 20 18266743468089073950
69090 78 18413666915940552807
7364860 26 18341049739403997696
77779 3 18410013234348002855
7832392 63 18412258471631092350
8809292 202 18261396684354613851
9709674 26 18339083795117400743
9981440 41 17544189841013954208

>  <PUBCHEM_SHAPE_MULTIPOLES>  (1) 
385.14
8.65
2.46
0.61
1.63
0.54
0
-0.44
0
-0.69
0
0.01
-0.01
0

>  <PUBCHEM_SHAPE_SELFOVERLAP>  (1) 
885.856

>  <PUBCHEM_SHAPE_VOLUME>  (1) 
199.3

>  <PUBCHEM_COORDINATE_TYPE>  (1) 
2
5
10

$$$$
