3776
     RDKit          3D

  4  3  0  0  0  0  0  0  0  0999 V2000
   -0.0004    1.3572   -0.1242 O   0  0  0  0  0  0  0  0  0  0  0  0
    0.0000    0.0177    0.3601 C   0  0  0  0  0  0  0  0  0  0  0  0
   -1.2599   -0.6878   -0.1179 C   0  0  0  0  0  0  0  0  0  0  0  0
    1.2603   -0.6871   -0.1179 C   0  0  0  0  0  0  0  0  0  0  0  0
  1  2  1  0
  2  3  1  0
  2  4  1  0
M  END
>  <PUBCHEM_COMPOUND_CID>  (1) 
3776

>  <PUBCHEM_CONFORMER_RMSD>  (1) 
0.4

>  <PUBCHEM_CONFORMER_DIVERSEORDER>  (1) 
1

>  <PUBCHEM_MMFF94_PARTIAL_CHARGES>  (1) 
3
1 -0.68
12 0.4
2 0.28

>  <PUBCHEM_EFFECTIVE_ROTOR_COUNT>  (1) 
0

>  <PUBCHEM_PHARMACOPHORE_FEATURES>  (1) 
3
1 1 acceptor
1 1 donor
3 2 3 4 hydrophobe

>  <PUBCHEM_HEAVY_ATOM_COUNT>  (1) 
4

>  <PUBCHEM_ATOM_DEF_STEREO_COUNT>  (1) 
0

>  <PUBCHEM_ATOM_UDEF_STEREO_COUNT>  (1) 
0

>  <PUBCHEM_BOND_DEF_STEREO_COUNT>  (1) 
0

>  <PUBCHEM_BOND_UDEF_STEREO_COUNT>  (1) 
0

>  <PUBCHEM_ISOTOPIC_ATOM_COUNT>  (1) 
0

>  <PUBCHEM_COMPONENT_COUNT>  (1) 
1

>  <PUBCHEM_CACTVS_TAUTO_COUNT>  (1) 
1

>  <PUBCHEM_CONFORMER_ID>  (1) 
00000EC000000001

>  <PUBCHEM_MMFF94_ENERGY>  (1) 
1.1698

>  <PUBCHEM_FEATURE_SELFOVERLAP>  (1) 
15.223

>  <PUBCHEM_SHAPE_FINGERPRINT>  (1) 
139733 1 8790885181088344531
20096714 4 17400358344043462849
21015797 1 9870305445774720250
5943 1 13812955797099969682

>  <PUBCHEM_SHAPE_MULTIPOLES>  (1) 
76.45
1.45
1.19
0.64
0
0.38
0.02
-0.54
-0.09
0
-0.08
0
-0.03
0

>  <PUBCHEM_SHAPE_SELFOVERLAP>  (1) 
124.806

>  <PUBCHEM_SHAPE_VOLUME>  (1) 
54.3

>  <PUBCHEM_COORDINATE_TYPE>  (1) 
2
5
10

$$$$
