37761
     RDKit          3D

 17 18  0  0  1  0  0  0  0  0999 V2000
    4.5604    1.6426    0.4689 Cl  0  0  0  0  0  0  0  0  0  0  0  0
    0.6340   -1.4059    1.3955 O   0  0  0  0  0  0  0  0  0  0  0  0
   -1.8896   -0.0879   -0.0509 N   0  0  0  0  0  0  0  0  0  0  0  0
   -0.8782   -0.5734   -0.9947 C   0  0  0  0  0  0  0  0  0  0  0  0
   -0.9453   -2.1023   -1.1572 C   0  0  0  0  0  0  0  0  0  0  0  0
   -0.7870   -2.9220    0.1261 C   0  0  0  0  0  0  0  0  0  0  0  0
    0.5048   -0.0760   -0.6275 C   0  0  0  0  0  0  0  0  0  0  0  0
    0.5561   -2.7073    0.8086 C   0  0  0  0  0  0  0  0  0  0  0  0
    1.1823   -0.4999    0.5260 C   0  0  0  0  0  0  0  0  0  0  0  0
   -1.8794    1.3726   -0.0031 C   0  0  0  0  0  0  0  0  0  0  0  0
    1.1283    0.8836   -1.4423 C   0  0  0  0  0  0  0  0  0  0  0  0
   -3.2127   -0.5807   -0.4268 C   0  0  0  0  0  0  0  0  0  0  0  0
    2.4237    0.0400    0.8755 C   0  0  0  0  0  0  0  0  0  0  0  0
    2.3802    1.4062   -1.1089 C   0  0  0  0  0  0  0  0  0  0  0  0
    3.0253    0.9873    0.0516 C   0  0  0  0  0  0  0  0  0  0  0  0
   -2.9034    1.9004    0.9541 C   0  0  0  0  0  0  0  0  0  0  0  0
   -3.8995    2.7227    0.6053 C   0  0  0  0  0  0  0  0  0  0  0  0
  1 15  1  0
  2  8  1  0
  2  9  1  0
  3  4  1  0
  3 10  1  0
  3 12  1  0
  4  5  1  0
  4  7  1  0
  5  6  1  0
  6  8  1  0
  7  9  2  0
  7 11  1  0
  9 13  1  0
 10 16  1  0
 11 14  2  0
 13 15  2  0
 14 15  1  0
 16 17  2  0
M  END
>  <PUBCHEM_COMPOUND_CID>  (1) 
37761

>  <PUBCHEM_CONFORMER_RMSD>  (1) 
0.6

>  <PUBCHEM_CONFORMER_DIVERSEORDER>  (1) 
4
17
21
11
6
20
2
9
10
18
1
5
3
16
13
14
12
23
8
7
19
15
24
22

>  <PUBCHEM_MMFF94_PARTIAL_CHARGES>  (1) 
21
1 -0.18
10 0.41
11 -0.15
12 0.27
13 -0.15
14 -0.15
15 0.18
16 -0.29
17 -0.3
2 -0.36
27 0.15
3 -0.81
31 0.15
32 0.15
33 0.15
34 0.15
35 0.15
4 0.41
7 -0.14
8 0.28
9 0.08

>  <PUBCHEM_EFFECTIVE_ROTOR_COUNT>  (1) 
4

>  <PUBCHEM_PHARMACOPHORE_FEATURES>  (1) 
5
1 17 hydrophobe
1 2 acceptor
1 3 cation
6 7 9 11 13 14 15 rings
7 2 4 5 6 7 8 9 rings

>  <PUBCHEM_HEAVY_ATOM_COUNT>  (1) 
17

>  <PUBCHEM_ATOM_DEF_STEREO_COUNT>  (1) 
0

>  <PUBCHEM_ATOM_UDEF_STEREO_COUNT>  (1) 
1

>  <PUBCHEM_BOND_DEF_STEREO_COUNT>  (1) 
0

>  <PUBCHEM_BOND_UDEF_STEREO_COUNT>  (1) 
0

>  <PUBCHEM_ISOTOPIC_ATOM_COUNT>  (1) 
0

>  <PUBCHEM_COMPONENT_COUNT>  (1) 
1

>  <PUBCHEM_CACTVS_TAUTO_COUNT>  (1) 
1

>  <PUBCHEM_CONFORMER_ID>  (1) 
0000938100000004

>  <PUBCHEM_MMFF94_ENERGY>  (1) 
53.7975

>  <PUBCHEM_FEATURE_SELFOVERLAP>  (1) 
25.382

>  <PUBCHEM_SHAPE_FINGERPRINT>  (1) 
10382601 240 17969785176977331360
10465860 228 18193843643542743049
10948715 1 18342740689028190858
11471102 22 16660637458077524452
11640471 11 18411975828412896581
12491281 212 18336547226371418768
12532896 13 18412269432297785630
12633257 1 16298400057977582937
12788726 201 17831033672598690974
13140716 1 18265899055737102787
13965767 371 18118970191525993461
14123255 52 18340770347138558409
14617773 55 17536883539097005310
14787075 74 17900541482524934019
14817 1 12419819924313536603
14955137 171 17835812901884573386
15209294 21 18409720790542218344
15309172 13 17822286916176801412
15534591 1 18343018908430260132
15775835 57 18412829053525445841
15906896 17 18338806739609166775
16945 1 18198070363586707879
201361 129 18338517417626628953
20157964 124 18046340835184880229
20510252 161 18048877686648532442
20671657 1 17982181011044895517
21339142 149 18196647613115782578
21524375 3 18413392016500626749
21731228 192 18336554845321811001
23402539 116 18199740526223680159
23419403 2 16463129882130263142
23557571 272 17909269427269069850
23558518 356 18409736178893062271
23559900 14 18196083568589792336
2748010 2 17037782904695785170
276578 36 18338243647816063289
305870 269 18338238158847703013
427121 178 18199765677547085497
430814 3 18409167684088953611
53812653 8 18413105095663568719
568465 68 15285352925235045776
6992083 37 17968090992857466980
7364860 26 17980769237908940357
81228 2 18124041379739192399

>  <PUBCHEM_SHAPE_MULTIPOLES>  (1) 
340.87
6
3.16
1.26
1.63
1.15
0.14
-6.12
-1.17
-2.08
-0.68
0.23
0.09
-1.08

>  <PUBCHEM_SHAPE_SELFOVERLAP>  (1) 
699.72

>  <PUBCHEM_SHAPE_VOLUME>  (1) 
196.2

>  <PUBCHEM_COORDINATE_TYPE>  (1) 
2
5
10

$$$$
