37764
     RDKit          3D

 13 14  0  0  1  0  0  0  0  0999 V2000
    3.4954   -1.1296   -0.0725 O   0  0  0  0  0  0  0  0  0  0  0  0
    3.1938    1.6292    0.0366 O   0  0  0  0  0  0  0  0  0  0  0  0
   -2.7607    0.2662   -0.3276 N   0  0  0  0  0  0  0  0  0  0  0  0
   -1.3662   -1.7361   -0.0498 C   0  0  0  0  0  0  0  0  0  0  0  0
   -2.6536   -1.0204    0.3713 C   0  0  0  0  0  0  0  0  0  0  0  0
   -1.6867    1.1748    0.1111 C   0  0  0  0  0  0  0  0  0  0  0  0
   -0.1557   -0.8404   -0.0004 C   0  0  0  0  0  0  0  0  0  0  0  0
   -0.3099    0.5562    0.0313 C   0  0  0  0  0  0  0  0  0  0  0  0
    1.1299   -1.3952   -0.0456 C   0  0  0  0  0  0  0  0  0  0  0  0
    0.8267    1.3758    0.0546 C   0  0  0  0  0  0  0  0  0  0  0  0
   -4.0698    0.8756   -0.0952 C   0  0  0  0  0  0  0  0  0  0  0  0
    2.2541   -0.5700   -0.0331 C   0  0  0  0  0  0  0  0  0  0  0  0
    2.1027    0.8137    0.0192 C   0  0  0  0  0  0  0  0  0  0  0  0
  1 12  1  0
  2 13  1  0
  3  5  1  0
  3  6  1  0
  3 11  1  0
  4  5  1  0
  4  7  1  0
  6  8  1  0
  7  8  2  0
  7  9  1  0
  8 10  1  0
  9 12  2  0
 10 13  2  0
 12 13  1  0
M  END
>  <PUBCHEM_COMPOUND_CID>  (1) 
37764

>  <PUBCHEM_CONFORMER_RMSD>  (1) 
0.4

>  <PUBCHEM_CONFORMER_DIVERSEORDER>  (1) 
1
2
3

>  <PUBCHEM_MMFF94_PARTIAL_CHARGES>  (1) 
17
1 -0.53
10 -0.15
11 0.27
12 0.08
13 0.08
2 -0.53
20 0.15
21 0.15
25 0.45
26 0.45
3 -0.81
4 0.14
5 0.27
6 0.41
7 -0.14
8 -0.14
9 -0.15

>  <PUBCHEM_EFFECTIVE_ROTOR_COUNT>  (1) 
0.8

>  <PUBCHEM_PHARMACOPHORE_FEATURES>  (1) 
5
1 1 donor
1 2 donor
1 3 cation
6 3 4 5 6 7 8 rings
6 7 8 9 10 12 13 rings

>  <PUBCHEM_HEAVY_ATOM_COUNT>  (1) 
13

>  <PUBCHEM_ATOM_DEF_STEREO_COUNT>  (1) 
0

>  <PUBCHEM_ATOM_UDEF_STEREO_COUNT>  (1) 
0

>  <PUBCHEM_BOND_DEF_STEREO_COUNT>  (1) 
0

>  <PUBCHEM_BOND_UDEF_STEREO_COUNT>  (1) 
0

>  <PUBCHEM_ISOTOPIC_ATOM_COUNT>  (1) 
0

>  <PUBCHEM_COMPONENT_COUNT>  (1) 
1

>  <PUBCHEM_CACTVS_TAUTO_COUNT>  (1) 
18

>  <PUBCHEM_CONFORMER_ID>  (1) 
0000938400000001

>  <PUBCHEM_MMFF94_ENERGY>  (1) 
30.4378

>  <PUBCHEM_FEATURE_SELFOVERLAP>  (1) 
25.398

>  <PUBCHEM_SHAPE_FINGERPRINT>  (1) 
10130415 120 18410851027843257898
10608611 8 18409727382820963445
10967382 1 18410855430063397225
11132069 177 18412256242268583920
11471102 20 18411413999466830781
12032990 46 18410863135235038050
12932764 1 17559956695773719171
13380535 21 18337681917654290574
13380535 76 18411697694725498439
13897977 150 18411415159007890725
14144814 61 18411420613573983377
14325111 11 18410574011106053121
14897335 6 18412257376113667076
14911166 2 18339085882618829670
15196674 1 18410575102206977443
15219456 202 18409451413970935027
15536298 74 18343020004158604008
15775835 57 18411141367643179165
16945 1 18339366249209069594
17844478 74 18113910381117270873
18186145 218 18410572843059584645
20201158 50 18340769243294741143
20645477 70 18342174440740638983
21501502 16 18339076098366850494
2334 1 18338517576619630842
23402539 116 18201144461028229237
23402655 69 18342447124541715541
23463225 33 18408602543939562178
23552423 10 18260830453003817710
23559900 14 18342176657761187542
25 1 18118675518609992045
2748010 2 18338802315776748310
5104073 3 18410012156268936587
528886 8 18411695499928359203
53812653 166 18199744907190795512
63268167 104 18341336672798565824
69090 78 18413101762900835391
7364860 26 18342738486279946518
8809292 202 18260836989975931395

>  <PUBCHEM_SHAPE_MULTIPOLES>  (1) 
250.81
5.65
1.82
0.62
1.26
0.12
0.01
-0.96
-0.13
-0.3
0.02
0.08
0.01
0.14

>  <PUBCHEM_SHAPE_SELFOVERLAP>  (1) 
533.019

>  <PUBCHEM_SHAPE_VOLUME>  (1) 
141.3

>  <PUBCHEM_COORDINATE_TYPE>  (1) 
2
5
10

$$$$
