37785
     RDKit          3D

 22 26  0  0  1  0  0  0  0  0999 V2000
    0.9711   -2.6158   -1.6682 O   0  0  0  0  0  0  0  0  0  0  0  0
    2.2532   -2.2012    1.7037 O   0  0  0  0  0  0  0  0  0  0  0  0
    0.1601    0.0498   -0.0290 C   0  0  0  0  0  0  0  0  0  0  0  0
    0.8619   -2.3784   -0.2641 C   0  0  0  0  0  0  0  0  0  0  0  0
   -0.1940   -1.3119   -0.0738 C   0  0  0  0  0  0  0  0  0  0  0  0
    2.2335   -1.9840    0.2928 C   0  0  0  0  0  0  0  0  0  0  0  0
    1.5306    0.4277   -0.0294 C   0  0  0  0  0  0  0  0  0  0  0  0
    2.5671   -0.5302    0.0604 C   0  0  0  0  0  0  0  0  0  0  0  0
   -0.8679    1.0328   -0.0078 C   0  0  0  0  0  0  0  0  0  0  0  0
    1.8870    1.7933   -0.0953 C   0  0  0  0  0  0  0  0  0  0  0  0
   -2.2492    0.6274    0.0388 C   0  0  0  0  0  0  0  0  0  0  0  0
   -1.5388   -1.6974   -0.0437 C   0  0  0  0  0  0  0  0  0  0  0  0
   -2.5637   -0.7530    0.0253 C   0  0  0  0  0  0  0  0  0  0  0  0
   -0.4609    2.3844   -0.0480 C   0  0  0  0  0  0  0  0  0  0  0  0
    3.9124   -0.1325    0.0335 C   0  0  0  0  0  0  0  0  0  0  0  0
    0.8820    2.7576   -0.1090 C   0  0  0  0  0  0  0  0  0  0  0  0
    3.2388    2.1708   -0.1309 C   0  0  0  0  0  0  0  0  0  0  0  0
    4.2455    1.2119   -0.0755 C   0  0  0  0  0  0  0  0  0  0  0  0
   -3.3466    1.5251    0.0954 C   0  0  0  0  0  0  0  0  0  0  0  0
   -3.9007   -1.1861    0.0655 C   0  0  0  0  0  0  0  0  0  0  0  0
   -4.6721    1.0836    0.1371 C   0  0  0  0  0  0  0  0  0  0  0  0
   -4.9493   -0.2738    0.1222 C   0  0  0  0  0  0  0  0  0  0  0  0
  1  4  1  0
  2  6  1  0
  3  5  2  0
  3  7  1  0
  3  9  1  0
  4  5  1  0
  4  6  1  0
  5 12  1  0
  6  8  1  0
  7  8  2  0
  7 10  1  0
  8 15  1  0
  9 11  2  0
  9 14  1  0
 10 16  1  0
 10 17  2  0
 11 13  1  0
 11 19  1  0
 12 13  2  0
 13 20  1  0
 14 16  2  0
 15 18  2  0
 17 18  1  0
 19 21  2  0
 20 22  2  0
 21 22  1  0
M  END
>  <PUBCHEM_COMPOUND_CID>  (1) 
37785

>  <PUBCHEM_CONFORMER_RMSD>  (1) 
0.6

>  <PUBCHEM_CONFORMER_DIVERSEORDER>  (1) 
1

>  <PUBCHEM_MMFF94_PARTIAL_CHARGES>  (1) 
28
1 -0.68
12 -0.15
14 -0.15
15 -0.15
16 -0.15
17 -0.15
18 -0.15
19 -0.15
2 -0.68
20 -0.15
21 -0.15
22 -0.15
25 0.15
26 0.15
27 0.15
28 0.15
29 0.15
30 0.15
31 0.4
32 0.15
33 0.4
34 0.15
35 0.15
36 0.15
4 0.42
5 -0.14
6 0.42
8 -0.14

>  <PUBCHEM_EFFECTIVE_ROTOR_COUNT>  (1) 
0.4

>  <PUBCHEM_PHARMACOPHORE_FEATURES>  (1) 
9
1 1 acceptor
1 1 donor
1 2 acceptor
1 2 donor
6 11 13 19 20 21 22 rings
6 3 4 5 6 7 8 rings
6 3 5 9 11 12 13 rings
6 3 7 9 10 14 16 rings
6 7 8 10 15 17 18 rings

>  <PUBCHEM_HEAVY_ATOM_COUNT>  (1) 
22

>  <PUBCHEM_ATOM_DEF_STEREO_COUNT>  (1) 
2

>  <PUBCHEM_ATOM_UDEF_STEREO_COUNT>  (1) 
0

>  <PUBCHEM_BOND_DEF_STEREO_COUNT>  (1) 
0

>  <PUBCHEM_BOND_UDEF_STEREO_COUNT>  (1) 
0

>  <PUBCHEM_ISOTOPIC_ATOM_COUNT>  (1) 
0

>  <PUBCHEM_COMPONENT_COUNT>  (1) 
1

>  <PUBCHEM_CACTVS_TAUTO_COUNT>  (1) 
1

>  <PUBCHEM_CONFORMER_ID>  (1) 
0000939900000001

>  <PUBCHEM_MMFF94_ENERGY>  (1) 
77.5108

>  <PUBCHEM_FEATURE_SELFOVERLAP>  (1) 
45.814

>  <PUBCHEM_SHAPE_FINGERPRINT>  (1) 
10411042 1 17906172845537337910
10493431 412 18195805391488633896
10616163 171 18339927129431541295
10906281 52 18264227887983182168
10948715 1 18339363088371479142
10967382 1 18410575088968621716
1100329 8 18266456705938556520
11471102 20 18410008857818610821
11578080 2 16951956259117103431
116883 192 17981327789678785101
12011746 2 18410577279465279028
12236239 1 17918277558790176921
12422481 6 18192689212453016440
12553582 1 18338509738214488989
12592029 89 18335423503590950521
12644460 14 18334017159573420867
12838862 33 18266721614873270760
13132413 78 18412545431175694581
13140716 1 18265327485837429896
138480 1 18194684765616735030
14178342 30 17693075775851315792
14223421 5 18266177236252552716
14790565 3 18264778833809577012
15196674 1 18410575106164458053
15230672 131 13939324829720943299
15442244 35 18266459811015113313
15536298 74 18342177760544370261
1601671 61 18411983563564431760
16945 1 18262223499939586714
17492 89 18411700980903682603
18681886 176 18201432610384137274
19591789 44 18266741470369293548
20645477 70 18411699876858710543
20691752 17 17676493804621671449
20715895 44 17903344915164310181
20739085 24 18121244011905712593
20905425 154 18338517413685121948
21197605 99 17977959200265225283
21267235 1 18410302414380037002
21421861 104 17968935258567834784
23184049 29 17975974267473589722
2334 1 18194966463921195564
23402539 116 18201152256336037628
23419403 2 17678998440486002078
23463225 33 18409446964432308545
23559900 14 18198341745427553302
238 59 17830691531546548349
2748010 2 18339364179267032524
3060560 45 18202286896485568550
335352 9 18410575054809486756
33824 294 18408885152608420944
34934 24 18410569604353439488
350125 39 18410009897817939792
4409770 3 16384224324059168822
44154327 71 18410856559903579230
474 4 17968661634691172236
484985 159 14717570347895914218
5104073 3 18408888404462978865
5939293 188 18411978044520776968
6138700 20 18410863127531190678
7364860 26 18341898467437400334
7832392 63 18197212762213934710
81228 2 17549266930464861411
8272917 22 18342183228433312133
9709674 26 18410863157216491103

>  <PUBCHEM_SHAPE_MULTIPOLES>  (1) 
441.01
7.84
3.06
0.81
5.27
0.16
0.01
-1.55
0.54
-1.5
-0.18
-0.3
0.47
-0.31

>  <PUBCHEM_SHAPE_SELFOVERLAP>  (1) 
1026.354

>  <PUBCHEM_SHAPE_VOLUME>  (1) 
224.6

>  <PUBCHEM_COORDINATE_TYPE>  (1) 
2
5
10

$$$$
