37783
     RDKit          3D

 36 39  0  0  1  0  0  0  0  0999 V2000
    2.7317    1.2245   -0.3194 O   0  0  0  0  0  0  0  0  0  0  0  0
    2.1463   -1.7790   -0.5515 O   0  0  0  0  0  0  0  0  0  0  0  0
   -0.4656    0.6831    1.6574 O   0  0  0  0  0  0  0  0  0  0  0  0
   -2.9838   -1.4027   -1.2046 O   0  0  0  0  0  0  0  0  0  0  0  0
    1.5953    2.1605    1.4571 O   0  0  0  0  0  0  0  0  0  0  0  0
   -5.5511   -1.9701    0.0582 O   0  0  0  0  0  0  0  0  0  0  0  0
   -5.0385    3.0833   -2.0760 O   0  0  0  0  0  0  0  0  0  0  0  0
    3.9758   -1.1066    0.6829 O   0  0  0  0  0  0  0  0  0  0  0  0
    0.3474    1.3782   -1.0327 C   0  0  0  0  0  0  0  0  0  0  0  0
    1.5361    0.5150   -0.7031 C   0  0  0  0  0  0  0  0  0  0  0  0
    1.1075    0.6760   -2.1339 C   0  0  0  0  0  0  0  0  0  0  0  0
   -1.0618    0.9093   -0.7127 C   0  0  0  0  0  0  0  0  0  0  0  0
    1.3553   -0.7587    0.0600 C   0  0  0  0  0  0  0  0  0  0  0  0
   -1.0667   -0.0266    0.5558 C   0  0  0  0  0  0  0  0  0  0  0  0
   -0.1174   -1.2351    0.2179 C   0  0  0  0  0  0  0  0  0  0  0  0
    0.4061   -0.4666   -2.7954 C   0  0  0  0  0  0  0  0  0  0  0  0
    1.9868    1.4118   -3.0886 C   0  0  0  0  0  0  0  0  0  0  0  0
   -2.5386   -0.3108    0.9948 C   0  0  0  0  0  0  0  0  0  0  0  0
   -2.0795    2.0342   -0.7126 C   0  0  0  0  0  0  0  0  0  0  0  0
   -3.5269   -0.6307   -0.1438 C   0  0  0  0  0  0  0  0  0  0  0  0
   -0.1193   -2.3875    1.2322 C   0  0  0  0  0  0  0  0  0  0  0  0
   -3.4220    1.9110   -0.7726 C   0  0  0  0  0  0  0  0  0  0  0  0
   -4.2242    0.6182   -0.7027 C   0  0  0  0  0  0  0  0  0  0  0  0
   -2.8410   -1.3537    2.0340 C   0  0  0  0  0  0  0  0  0  0  0  0
    2.6065    2.0110    0.7849 C   0  0  0  0  0  0  0  0  0  0  0  0
   -4.4890   -1.5884    0.5276 C   0  0  0  0  0  0  0  0  0  0  0  0
   -3.9507   -2.0666    1.8158 C   0  0  0  0  0  0  0  0  0  0  0  0
    3.4496   -1.8394   -0.1433 C   0  0  0  0  0  0  0  0  0  0  0  0
   -4.2770    3.1488   -0.8883 C   0  0  0  0  0  0  0  0  0  0  0  0
    3.9363    2.6796    1.0495 C   0  0  0  0  0  0  0  0  0  0  0  0
   -4.5906   -3.1090    2.6449 C   0  0  0  0  0  0  0  0  0  0  0  0
    4.1433   -2.9622   -0.8803 C   0  0  0  0  0  0  0  0  0  0  0  0
    3.8793    3.6055    2.2620 C   0  0  0  0  0  0  0  0  0  0  0  0
    5.6160   -3.0755   -0.4943 C   0  0  0  0  0  0  0  0  0  0  0  0
    5.2296    4.2466    2.5376 C   0  0  0  0  0  0  0  0  0  0  0  0
    6.2946   -4.2277   -1.2168 C   0  0  0  0  0  0  0  0  0  0  0  0
  1 10  1  0
  1 25  1  0
  2 13  1  0
  2 28  1  0
  3 14  1  0
  4 20  1  0
  5 25  2  0
  6 26  2  0
  7 29  1  0
  8 28  2  0
  9 10  1  0
  9 11  1  0
  9 12  1  0
 10 11  1  0
 10 13  1  0
 11 16  1  0
 11 17  1  0
 12 14  1  0
 12 19  1  0
 13 15  1  0
 14 15  1  0
 14 18  1  0
 15 21  1  0
 18 20  1  0
 18 24  1  0
 19 22  2  0
 20 23  1  0
 20 26  1  0
 22 23  1  0
 22 29  1  0
 24 27  2  0
 25 30  1  0
 26 27  1  0
 27 31  1  0
 28 32  1  0
 30 33  1  0
 32 34  1  0
 33 35  1  0
 34 36  1  0
M  END
>  <PUBCHEM_COMPOUND_CID>  (1) 
37783

>  <PUBCHEM_CONFORMER_RMSD>  (1) 
1

>  <PUBCHEM_CONFORMER_DIVERSEORDER>  (1) 
1
7
6
2
4
5
3

>  <PUBCHEM_MMFF94_PARTIAL_CHARGES>  (1) 
36
1 -0.3
10 0.05
11 -0.19
12 0.23
13 0.38
14 0.28
16 0.09
17 0.09
18 0.14
19 -0.29
2 -0.43
20 0.34
22 -0.28
23 0.14
24 -0.29
25 0.66
26 0.49
27 -0.12
28 0.66
29 0.42
3 -0.68
30 0.06
31 0.14
32 0.06
37 0.1
4 -0.68
48 0.15
5 -0.57
52 0.4
55 0.15
56 0.4
6 -0.57
68 0.4
7 -0.68
8 -0.57
9 -0.19

>  <PUBCHEM_EFFECTIVE_ROTOR_COUNT>  (1) 
9.8

>  <PUBCHEM_PHARMACOPHORE_FEATURES>  (1) 
15
1 3 acceptor
1 3 donor
1 35 hydrophobe
1 36 hydrophobe
1 4 acceptor
1 4 donor
1 5 acceptor
1 6 acceptor
1 7 acceptor
1 7 donor
1 8 acceptor
3 11 16 17 hydrophobe
5 18 20 24 26 27 rings
7 12 14 18 19 20 22 23 rings
7 9 10 11 12 13 14 15 rings

>  <PUBCHEM_HEAVY_ATOM_COUNT>  (1) 
36

>  <PUBCHEM_ATOM_DEF_STEREO_COUNT>  (1) 
8

>  <PUBCHEM_ATOM_UDEF_STEREO_COUNT>  (1) 
0

>  <PUBCHEM_BOND_DEF_STEREO_COUNT>  (1) 
0

>  <PUBCHEM_BOND_UDEF_STEREO_COUNT>  (1) 
0

>  <PUBCHEM_ISOTOPIC_ATOM_COUNT>  (1) 
0

>  <PUBCHEM_COMPONENT_COUNT>  (1) 
1

>  <PUBCHEM_CACTVS_TAUTO_COUNT>  (1) 
3

>  <PUBCHEM_CONFORMER_ID>  (1) 
0000939700000001

>  <PUBCHEM_MMFF94_ENERGY>  (1) 
101.4202

>  <PUBCHEM_FEATURE_SELFOVERLAP>  (1) 
76.174

>  <PUBCHEM_SHAPE_FINGERPRINT>  (1) 
10940486 97 17531826644423562047
11135609 12 17749690552904193377
11578080 2 18343864437858649369
12128747 34 18337946792878308236
12422481 6 18043510911039185136
12788726 201 17242747630332215385
13140716 1 18189041032455388561
13540713 4 18408600366317446113
13583140 156 18343298188747533900
14178342 30 17676759933875568425
14790565 3 17176867822573766709
14955137 171 18058160632242638774
15064986 96 18269535240139226792
15131766 46 17416119719032732153
15219462 58 18054259719073427608
15448158 91 18340225036584881519
17349148 13 17459185360182702669
17492 89 18041579025643064287
17913733 40 18057877138357362960
17980427 23 17604415435695857069
18393751 57 17694213774275194024
20600515 1 17907603340788294364
21033648 29 18262791994569635193
22182313 1 18261108612297365891
22393880 68 18187925028274625483
23557571 272 18114177596887175849
23559900 14 18259707787122790831
244849 19 18410851070988297896
4015057 19 18129362835824784733
469060 322 17763177343125309543
5171179 24 18411697669187783922
6669772 16 17844251946508190164

>  <PUBCHEM_SHAPE_MULTIPOLES>  (1) 
693.91
11.9
5.07
2.61
2.85
0.74
-0.11
-4.83
2
6.44
1.84
0.45
1.23
7.44

>  <PUBCHEM_SHAPE_SELFOVERLAP>  (1) 
1467.97

>  <PUBCHEM_SHAPE_VOLUME>  (1) 
384.4

>  <PUBCHEM_COORDINATE_TYPE>  (1) 
2
5
10

$$$$
