37784
     RDKit          3D

 19 19  0  0  1  0  0  0  0  0999 V2000
    0.6748   -1.4117   -0.4428 S   0  0  0  0  0  0  0  0  0  0  0  0
    4.0502   -1.8648   -0.9449 S   0  0  0  0  0  0  0  0  0  0  0  0
    2.5831   -0.5554   -0.1860 P   0  0  0  0  0  0  0  0  0  0  0  0
   -0.4677    2.1496    0.4630 O   0  0  0  0  0  0  0  0  0  0  0  0
    2.8580   -0.2795    1.3940 O   0  0  0  0  0  0  0  0  0  0  0  0
    0.0594    1.3416   -1.6280 O   0  0  0  0  0  0  0  0  0  0  0  0
    2.6437    0.7381   -0.9606 O   0  0  0  0  0  0  0  0  0  0  0  0
   -0.4848   -0.1893    0.2015 C   0  0  0  0  0  0  0  0  0  0  0  0
   -1.9138   -0.6723    0.0819 C   0  0  0  0  0  0  0  0  0  0  0  0
   -0.2596    1.1598   -0.4604 C   0  0  0  0  0  0  0  0  0  0  0  0
   -2.6637   -0.2983   -1.0198 C   0  0  0  0  0  0  0  0  0  0  0  0
   -2.4405   -1.4774    1.0771 C   0  0  0  0  0  0  0  0  0  0  0  0
   -3.9812   -0.7434   -1.1296 C   0  0  0  0  0  0  0  0  0  0  0  0
   -3.7578   -1.9226    0.9671 C   0  0  0  0  0  0  0  0  0  0  0  0
   -4.5282   -1.5555   -0.1362 C   0  0  0  0  0  0  0  0  0  0  0  0
   -0.2883    3.4871   -0.0134 C   0  0  0  0  0  0  0  0  0  0  0  0
   -0.5534    4.4542    1.1207 C   0  0  0  0  0  0  0  0  0  0  0  0
    5.6193   -1.0086   -0.7037 C   0  0  0  0  0  0  0  0  0  0  0  0
    2.8505   -1.3517    2.3199 C   0  0  0  0  0  0  0  0  0  0  0  0
  1  3  1  0
  1  8  1  0
  2  3  1  0
  2 18  1  0
  3  5  1  0
  3  7  2  0
  4 10  1  0
  4 16  1  0
  5 19  1  0
  6 10  2  0
  8  9  1  0
  8 10  1  0
  9 11  2  0
  9 12  1  0
 11 13  1  0
 12 14  2  0
 13 15  2  0
 14 15  1  0
 16 17  1  0
M  END
>  <PUBCHEM_COMPOUND_CID>  (1) 
37784

>  <PUBCHEM_CONFORMER_RMSD>  (1) 
0.8

>  <PUBCHEM_CONFORMER_DIVERSEORDER>  (1) 
1
338
380
174
354
312
356
369
162
230
288
251
313
294
148
140
143
340
232
21
169
68
247
59
31
217
102
266
26
363
295
176
268
99
177
235
210
9
32
49
170
113
116
44
318
150
191
234
43
81
325
275
317
212
87
329
367
365
97
330
254
151
231
100
134
243
173
118
40
119
111
357
120
376
109
197
258
347
358
194
290
65
147
175
18
30
262
106
319
228
105
244
286
161
141
209
383
316
328
379
74
41
156
265
306
103
133
75
305
157
89
270
149
320
96
29
246
112
115
165
121
39
381
370
226
55
199
255
245
36
63
34
167
70
15
86
237
35
284
204
215
309
263
183
142
85
154
164
335
146
98
264
375
384
110
299
287
278
135
339
192
273
11
341
53
200
372
241
315
362
323
13
214
108
310
267
348
296
92
107
64
181
298
250
10
321
256
211
67
138
180
201
8
253
42
130
185
19
216
129
179
94
293
332
344
132
274
76
242
159
50
22
353
240
184
260
182
117
355
218
168
172
38
24
190
303
281
23
93
73
361
56
153
90
66
51
101
385
79
374
219
37
279
292
27
71
77
84
145
233
291
47
196
28
152
7
343
155
95
20
337
25
137
225
277
163
131
83
350
88
345
123
114
283
223
333
16
46
33
104
208
221
280
5
261
188
334
269
352
195
124
205
346
282
60
378
368
238
248
4
189
62
158
14
257
2
91
171
6
271
48
187
202
160
186
222
61
227
351
3
213
301
302
82
207
72
193
336
236
166
206
122
224
45
58
373
126
125
289
314
297
198
342
366
203
80
326
139
252
308
327
272
144
331
300
128
178
322
276
371
307
364
311
285
249
229
349
136
360
259
12
304
359
57
78
127
52
69
54
239
17
377
324
382
220

>  <PUBCHEM_MMFF94_PARTIAL_CHARGES>  (1) 
23
1 -0.48
10 0.66
11 -0.15
12 -0.15
13 -0.15
14 -0.15
15 -0.15
16 0.28
18 0.23
19 0.28
2 -0.48
21 0.15
22 0.15
23 0.15
24 0.15
25 0.15
3 1.47
4 -0.43
5 -0.55
6 -0.57
7 -0.7
8 0.43
9 -0.14

>  <PUBCHEM_EFFECTIVE_ROTOR_COUNT>  (1) 
8

>  <PUBCHEM_PHARMACOPHORE_FEATURES>  (1) 
2
1 6 acceptor
6 9 11 12 13 14 15 rings

>  <PUBCHEM_HEAVY_ATOM_COUNT>  (1) 
19

>  <PUBCHEM_ATOM_DEF_STEREO_COUNT>  (1) 
0

>  <PUBCHEM_ATOM_UDEF_STEREO_COUNT>  (1) 
2

>  <PUBCHEM_BOND_DEF_STEREO_COUNT>  (1) 
0

>  <PUBCHEM_BOND_UDEF_STEREO_COUNT>  (1) 
0

>  <PUBCHEM_ISOTOPIC_ATOM_COUNT>  (1) 
0

>  <PUBCHEM_COMPONENT_COUNT>  (1) 
1

>  <PUBCHEM_CACTVS_TAUTO_COUNT>  (1) 
1

>  <PUBCHEM_CONFORMER_ID>  (1) 
0000939800000001

>  <PUBCHEM_MMFF94_ENERGY>  (1) 
29.26

>  <PUBCHEM_FEATURE_SELFOVERLAP>  (1) 
10.148

>  <PUBCHEM_SHAPE_FINGERPRINT>  (1) 
12549972 3 17270014131484788978
12633257 1 15769780160373542230
12707595 3 18335700606555100259
12788726 201 18263921042718829465
13134695 92 18341614884006527941
14178342 30 17977089181466194666
14787075 74 17826523454885503742
15842332 3 17607244256302715842
1813 80 17988100953020155510
18222031 100 18342166804289046319
200 152 18334016086000849894
20369508 70 18263915717471208423
20600515 1 18188474843990812792
20645477 70 18189335839015977871
20671657 53 18270972344248104525
21041028 32 18339938077450832849
21524375 3 17044292537423212177
23175994 123 18410578413858942863
23402539 116 18412549781919686174
23419403 2 17684040938044461077
23526113 38 17898022462319140824
23557571 272 18338782439047897840
23558518 356 17618491095938989927
23559900 14 17749382693859130174
283562 15 18337395933278781042
314173 85 18413385436420838250
3286 77 16845572011256147578
6786 2 17048819789124310945
7364860 26 18051132793935221113
81228 2 18194682570920153817

>  <PUBCHEM_SHAPE_MULTIPOLES>  (1) 
379.08
8.57
3.72
1.55
5.07
6.91
0.6
-8.05
-1.21
-1.5
1.12
0.7
-0.31
0.19

>  <PUBCHEM_SHAPE_SELFOVERLAP>  (1) 
715.409

>  <PUBCHEM_SHAPE_VOLUME>  (1) 
237

>  <PUBCHEM_COORDINATE_TYPE>  (1) 
2
5
10

$$$$
