37796
     RDKit          3D

 14 15  0  0  0  0  0  0  0  0999 V2000
   -1.3636    1.6539   -0.0871 N   0  0  0  0  0  0  0  0  0  0  0  0
    4.1610   -0.2643    0.1716 N   0  0  0  0  0  0  0  0  0  0  0  0
    0.4673    0.5538    0.5166 C   0  0  0  0  0  0  0  0  0  0  0  0
   -0.5647   -0.3967    0.2792 C   0  0  0  0  0  0  0  0  0  0  0  0
    1.8525    0.2606    0.9374 C   0  0  0  0  0  0  0  0  0  0  0  0
   -1.7027    0.3196   -0.0980 C   0  0  0  0  0  0  0  0  0  0  0  0
   -0.0542    1.8054    0.2831 C   0  0  0  0  0  0  0  0  0  0  0  0
    2.8031    0.0535   -0.2573 C   0  0  0  0  0  0  0  0  0  0  0  0
   -0.6402   -1.8019    0.3491 C   0  0  0  0  0  0  0  0  0  0  0  0
   -2.9172   -0.3016   -0.4098 C   0  0  0  0  0  0  0  0  0  0  0  0
   -2.2498    2.7496   -0.4161 C   0  0  0  0  0  0  0  0  0  0  0  0
   -1.8486   -2.4370    0.0404 C   0  0  0  0  0  0  0  0  0  0  0  0
   -2.9684   -1.6963   -0.3330 C   0  0  0  0  0  0  0  0  0  0  0  0
    5.0255   -0.4987   -0.9760 C   0  0  0  0  0  0  0  0  0  0  0  0
  1  6  1  0
  1  7  1  0
  1 11  1  0
  2  8  1  0
  2 14  1  0
  3  4  1  0
  3  5  1  0
  3  7  2  0
  4  6  2  0
  4  9  1  0
  5  8  1  0
  6 10  1  0
  9 12  2  0
 10 13  2  0
 12 13  1  0
M  END
>  <PUBCHEM_COMPOUND_CID>  (1) 
37796

>  <PUBCHEM_CONFORMER_RMSD>  (1) 
0.6

>  <PUBCHEM_CONFORMER_DIVERSEORDER>  (1) 
1
8
4
6
3
10
5
9
7
2

>  <PUBCHEM_MMFF94_PARTIAL_CHARGES>  (1) 
19
1 0.05
10 -0.15
11 0.26
12 -0.15
13 -0.15
14 0.27
17 0.15
2 -0.9
20 0.15
21 0.15
25 0.15
26 0.15
27 0.36
3 -0.18
5 0.18
6 -0.15
7 -0.3
8 0.27
9 -0.15

>  <PUBCHEM_EFFECTIVE_ROTOR_COUNT>  (1) 
3

>  <PUBCHEM_PHARMACOPHORE_FEATURES>  (1) 
5
1 1 cation
1 2 cation
1 2 donor
5 1 3 4 6 7 rings
6 4 6 9 10 12 13 rings

>  <PUBCHEM_HEAVY_ATOM_COUNT>  (1) 
14

>  <PUBCHEM_ATOM_DEF_STEREO_COUNT>  (1) 
0

>  <PUBCHEM_ATOM_UDEF_STEREO_COUNT>  (1) 
0

>  <PUBCHEM_BOND_DEF_STEREO_COUNT>  (1) 
0

>  <PUBCHEM_BOND_UDEF_STEREO_COUNT>  (1) 
0

>  <PUBCHEM_ISOTOPIC_ATOM_COUNT>  (1) 
0

>  <PUBCHEM_COMPONENT_COUNT>  (1) 
1

>  <PUBCHEM_CACTVS_TAUTO_COUNT>  (1) 
1

>  <PUBCHEM_CONFORMER_ID>  (1) 
000093A400000001

>  <PUBCHEM_MMFF94_ENERGY>  (1) 
18.2997

>  <PUBCHEM_FEATURE_SELFOVERLAP>  (1) 
25.463

>  <PUBCHEM_SHAPE_FINGERPRINT>  (1) 
10465860 71 18261957452733329734
11127187 94 18408600391860474678
11206711 2 18336530664824694157
12032990 46 18265894851075299051
12186901 62 18409731725011528068
13024252 1 17385728001900935627
14911166 2 18337378422881484991
16752209 62 18336811022946338507
16945 1 18337091437345572017
17804303 29 18343022224134476274
17870717 6 18271260330685666198
193761 8 17978216172342047011
20645476 183 18114744819742147780
20645477 70 17184170186364445879
20871998 22 18051692440847626531
20871999 31 18410856547134949412
21061003 4 17060062574880669794
2334 1 17832130994241240075
23402539 116 18411410709221091542
23403322 49 18201727223956372566
23557571 272 18342733044804562568
23559900 14 18200305512867175858
2748010 2 17977365446531121163
3071541 250 17974011944482330549
559249 180 18190738623328753226
573450 72 18188759566801641034
7364860 26 17402609044551365729
77492 1 17531236228454735248
81228 2 18336256942200837881
9709674 26 18343308024855865422

>  <PUBCHEM_SHAPE_MULTIPOLES>  (1) 
278.15
6.58
2.53
0.82
10.7
0.6
0
-1.89
-2.15
-2.85
-0.16
0.38
0
0.34

>  <PUBCHEM_SHAPE_SELFOVERLAP>  (1) 
586.426

>  <PUBCHEM_SHAPE_VOLUME>  (1) 
159.5

>  <PUBCHEM_COORDINATE_TYPE>  (1) 
2
5
10

$$$$
