37799
     RDKit          3D

 22 23  0  0  1  0  0  0  0  0999 V2000
    4.7735   -1.4283    1.3940 Br  0  0  0  0  0  0  0  0  0  0  0  0
   -1.1844   -1.9159   -0.9617 S   0  0  0  0  0  0  0  0  0  0  0  0
   -1.0239   -2.3857   -2.3241 O   0  0  0  0  0  0  0  0  0  0  0  0
   -1.8801   -2.7095    0.0324 O   0  0  0  0  0  0  0  0  0  0  0  0
   -3.5105    0.6024    2.0791 O   0  0  0  0  0  0  0  0  0  0  0  0
   -4.1325   -0.6971    0.3270 O   0  0  0  0  0  0  0  0  0  0  0  0
   -1.8449   -0.3273   -0.9921 N   0  0  0  0  0  0  0  0  0  0  0  0
   -1.9600    0.4027    0.2683 C   0  0  0  0  0  0  0  0  0  0  0  0
   -1.8283    1.9116    0.0091 C   0  0  0  0  0  0  0  0  0  0  0  0
   -0.3932    2.3559   -0.1566 C   0  0  0  0  0  0  0  0  0  0  0  0
    0.4778   -1.7789   -0.3044 C   0  0  0  0  0  0  0  0  0  0  0  0
   -3.3121    0.0403    0.8585 C   0  0  0  0  0  0  0  0  0  0  0  0
    0.3264    2.7524    0.9585 C   0  0  0  0  0  0  0  0  0  0  0  0
    0.1742    2.3576   -1.4202 C   0  0  0  0  0  0  0  0  0  0  0  0
    0.6515   -1.8863    1.0522 C   0  0  0  0  0  0  0  0  0  0  0  0
    1.5101   -1.5733   -1.1843 C   0  0  0  0  0  0  0  0  0  0  0  0
    1.6508    3.1624    0.8058 C   0  0  0  0  0  0  0  0  0  0  0  0
    1.4988    2.7673   -1.5728 C   0  0  0  0  0  0  0  0  0  0  0  0
    1.9450   -1.7807    1.5634 C   0  0  0  0  0  0  0  0  0  0  0  0
    2.8036   -1.4678   -0.6732 C   0  0  0  0  0  0  0  0  0  0  0  0
    2.2370    3.1698   -0.4598 C   0  0  0  0  0  0  0  0  0  0  0  0
    3.0212   -1.5717    0.7008 C   0  0  0  0  0  0  0  0  0  0  0  0
  1 22  1  0
  2  3  2  0
  2  4  2  0
  2  7  1  0
  2 11  1  0
  5 12  1  0
  6 12  2  0
  7  8  1  0
  8  9  1  0
  8 12  1  0
  9 10  1  0
 10 13  2  0
 10 14  1  0
 11 15  2  0
 11 16  1  0
 13 17  1  0
 14 18  2  0
 15 19  1  0
 16 20  2  0
 17 21  2  0
 18 21  1  0
 19 22  2  0
 20 22  1  0
M  END
>  <PUBCHEM_COMPOUND_CID>  (1) 
37799

>  <PUBCHEM_CONFORMER_RMSD>  (1) 
0.8

>  <PUBCHEM_CONFORMER_DIVERSEORDER>  (1) 
2
30
43
6
47
25
41
32
16
37
18
33
1
5
7
31
24
35
39
26
13
10
4
44
19
36
38
11
3
9
14
28
22
42
45
46
8
40
21
27
17
29
20
12
34
23
15

>  <PUBCHEM_MMFF94_PARTIAL_CHARGES>  (1) 
33
1 -0.11
10 -0.14
11 -0.01
12 0.66
13 -0.15
14 -0.15
15 -0.15
16 -0.15
17 -0.15
18 -0.15
19 -0.15
2 1.45
20 -0.15
21 -0.15
22 0.11
26 0.42
27 0.15
28 0.15
29 0.15
3 -0.65
30 0.15
31 0.15
32 0.15
33 0.15
34 0.15
35 0.15
36 0.5
4 -0.65
5 -0.65
6 -0.57
7 -0.91
8 0.42
9 0.14

>  <PUBCHEM_EFFECTIVE_ROTOR_COUNT>  (1) 
6

>  <PUBCHEM_PHARMACOPHORE_FEATURES>  (1) 
9
1 1 hydrophobe
1 3 acceptor
1 4 acceptor
1 5 acceptor
1 6 acceptor
1 7 donor
3 5 6 12 anion
6 10 13 14 17 18 21 rings
6 11 15 16 19 20 22 rings

>  <PUBCHEM_HEAVY_ATOM_COUNT>  (1) 
22

>  <PUBCHEM_ATOM_DEF_STEREO_COUNT>  (1) 
0

>  <PUBCHEM_ATOM_UDEF_STEREO_COUNT>  (1) 
1

>  <PUBCHEM_BOND_DEF_STEREO_COUNT>  (1) 
0

>  <PUBCHEM_BOND_UDEF_STEREO_COUNT>  (1) 
0

>  <PUBCHEM_ISOTOPIC_ATOM_COUNT>  (1) 
0

>  <PUBCHEM_COMPONENT_COUNT>  (1) 
1

>  <PUBCHEM_CACTVS_TAUTO_COUNT>  (1) 
1

>  <PUBCHEM_CONFORMER_ID>  (1) 
000093A700000002

>  <PUBCHEM_MMFF94_ENERGY>  (1) 
39.8004

>  <PUBCHEM_FEATURE_SELFOVERLAP>  (1) 
45.747

>  <PUBCHEM_SHAPE_FINGERPRINT>  (1) 
10165383 225 15892817362910732164
107951 10 17178883652409810404
1100329 8 18409166645007931827
11578080 2 17604415431875266935
11595378 159 17972290968852632786
12035758 1 17973450897580145849
12035759 4 17411329224169334663
12156800 1 14974097500198120368
12422481 6 18266152068467112944
12592029 89 17974859676927534497
13140716 1 18339078310301394874
133893 2 18044077175931833694
13544592 271 17977943480362603109
14022349 108 18337961189444933257
14142880 1 17912071760037966713
14787075 74 17968388896100142770
14955137 171 18199208246399747034
17492 54 18189074069570579124
20715895 44 15948503254365362197
20905425 154 18268159836058450349
23419403 2 17968079916258052277
35225 105 17325163409803479042
3524813 1 17915160352677633650
3797600 57 17535227446673070830
445580 44 17829289602992470242
5282940 2 18191868044739168988
539174 4 18267578198760514997
6287921 2 17772770298108173034
81228 2 17328607024440170833
9925002 15 18058433464980564159

>  <PUBCHEM_SHAPE_MULTIPOLES>  (1) 
434.08
5.82
4.57
1.76
2.38
3.87
-0.19
-3.16
3.31
0.63
-1.02
-0.09
-0.3
-0.62

>  <PUBCHEM_SHAPE_SELFOVERLAP>  (1) 
891.076

>  <PUBCHEM_SHAPE_VOLUME>  (1) 
254.1

>  <PUBCHEM_COORDINATE_TYPE>  (1) 
2
5
10

$$$$
