37791
     RDKit          3D

 19 22  0  0  1  0  0  0  0  0999 V2000
   -2.5446   -2.5991   -0.5534 O   0  0  0  0  0  0  0  0  0  0  0  0
   -3.6403   -1.7186    1.2411 O   0  0  0  0  0  0  0  0  0  0  0  0
    0.4631    0.4242   -0.0417 C   0  0  0  0  0  0  0  0  0  0  0  0
   -1.9473   -0.4193    0.0985 C   0  0  0  0  0  0  0  0  0  0  0  0
   -1.4093    1.9036    0.8952 C   0  0  0  0  0  0  0  0  0  0  0  0
   -1.3523    1.3837   -1.5621 C   0  0  0  0  0  0  0  0  0  0  0  0
   -0.4586   -0.8048    0.2158 C   0  0  0  0  0  0  0  0  0  0  0  0
    0.0749    1.5150    1.0041 C   0  0  0  0  0  0  0  0  0  0  0  0
    0.1337    1.0017   -1.4501 C   0  0  0  0  0  0  0  0  0  0  0  0
   -2.2768    0.6612    1.1416 C   0  0  0  0  0  0  0  0  0  0  0  0
   -2.2168    0.1372   -1.3123 C   0  0  0  0  0  0  0  0  0  0  0  0
   -1.6861    2.4516   -0.5116 C   0  0  0  0  0  0  0  0  0  0  0  0
    1.9388   -0.0003    0.0227 C   0  0  0  0  0  0  0  0  0  0  0  0
   -2.8110   -1.6230    0.3486 C   0  0  0  0  0  0  0  0  0  0  0  0
    2.7925    0.5828    0.9595 C   0  0  0  0  0  0  0  0  0  0  0  0
    2.4255   -0.9687   -0.8558 C   0  0  0  0  0  0  0  0  0  0  0  0
    4.1318    0.1975    1.0178 C   0  0  0  0  0  0  0  0  0  0  0  0
    3.7648   -1.3540   -0.7974 C   0  0  0  0  0  0  0  0  0  0  0  0
    4.6181   -0.7709    0.1395 C   0  0  0  0  0  0  0  0  0  0  0  0
  1 14  1  0
  2 14  2  0
  3  7  1  0
  3  8  1  0
  3  9  1  0
  3 13  1  0
  4  7  1  0
  4 10  1  0
  4 11  1  0
  4 14  1  0
  5  8  1  0
  5 10  1  0
  5 12  1  0
  6  9  1  0
  6 11  1  0
  6 12  1  0
 13 15  2  0
 13 16  1  0
 15 17  1  0
 16 18  2  0
 17 19  2  0
 18 19  1  0
M  END
>  <PUBCHEM_COMPOUND_CID>  (1) 
37791

>  <PUBCHEM_CONFORMER_RMSD>  (1) 
0.6

>  <PUBCHEM_CONFORMER_DIVERSEORDER>  (1) 
1
2
3

>  <PUBCHEM_MMFF94_PARTIAL_CHARGES>  (1) 
17
1 -0.65
13 -0.14
14 0.66
15 -0.15
16 -0.15
17 -0.15
18 -0.15
19 -0.15
2 -0.57
3 0.14
34 0.15
35 0.15
36 0.5
37 0.15
38 0.15
39 0.15
4 0.06

>  <PUBCHEM_EFFECTIVE_ROTOR_COUNT>  (1) 
3.2

>  <PUBCHEM_PHARMACOPHORE_FEATURES>  (1) 
8
1 1 acceptor
1 2 acceptor
3 1 2 14 anion
6 13 15 16 17 18 19 rings
6 3 4 5 7 8 10 rings
6 3 4 6 7 9 11 rings
6 3 5 6 8 9 12 rings
6 4 5 6 10 11 12 rings

>  <PUBCHEM_HEAVY_ATOM_COUNT>  (1) 
19

>  <PUBCHEM_ATOM_DEF_STEREO_COUNT>  (1) 
0

>  <PUBCHEM_ATOM_UDEF_STEREO_COUNT>  (1) 
2

>  <PUBCHEM_BOND_DEF_STEREO_COUNT>  (1) 
0

>  <PUBCHEM_BOND_UDEF_STEREO_COUNT>  (1) 
0

>  <PUBCHEM_ISOTOPIC_ATOM_COUNT>  (1) 
0

>  <PUBCHEM_COMPONENT_COUNT>  (1) 
1

>  <PUBCHEM_CACTVS_TAUTO_COUNT>  (1) 
1

>  <PUBCHEM_CONFORMER_ID>  (1) 
0000939F00000001

>  <PUBCHEM_MMFF94_ENERGY>  (1) 
62.6818

>  <PUBCHEM_FEATURE_SELFOVERLAP>  (1) 
53.114

>  <PUBCHEM_SHAPE_FINGERPRINT>  (1) 
10618630 7 18338521935916555738
10948715 1 17557426475111752993
10989021 7 18041287676304009564
11578080 2 18115579478191793837
12173636 292 18049721819468485260
12500047 106 18192990409750744572
12553582 1 18267878361182408127
12633257 1 17560533874980543187
12714826 92 18186798101917838039
12916754 54 18186804682087180492
13024252 1 13912617008858885381
13214271 11 17917707989870256920
13224815 77 17632284662973143904
13296908 3 18059853931377836574
13544653 18 18339641268887026479
14178342 30 18263924350270902226
14223421 5 18272365395463373952
14289901 80 17632565046875141554
14787075 74 18120929775113075208
14817 1 13071109310867052821
15099037 37 18335974337911127802
15653759 3 18271810094904605666
16752209 62 17603852417022425963
16945 1 18261391096665426141
17357779 13 18266720541357943383
1813 80 18041570246676572663
19049666 15 17985833627321830790
19141452 34 18272373122278851039
200 152 17274240799598781484
20361792 2 17530971310165415862
20671657 53 17168139112960850775
21296965 67 18263081166470157097
21452121 199 17972595769057761543
21524375 3 15940324124715144964
22112679 90 18117302382884085909
2306618 200 18188483567217512532
23402539 116 17167860847026349462
23419403 2 18049977164233354205
23557571 272 18261104197239914100
23559900 14 18197492936232415874
2748010 2 18131346367696282756
298252 57 16953073346263147093
4340502 62 18053675672679075857
4921388 177 18260831440999127190
5104073 3 18130221559191350978
6049 1 18201440259900278264
633830 44 12823291313159039768
77492 1 16226046644240946212
81228 2 18261399939939505921
9709674 26 18058727992758513222

>  <PUBCHEM_SHAPE_MULTIPOLES>  (1) 
379.27
6.74
2.2
1.39
7.33
0.3
0.2
3
-1.09
-2.17
0.01
-0.39
-0.3
0.86

>  <PUBCHEM_SHAPE_SELFOVERLAP>  (1) 
844.231

>  <PUBCHEM_SHAPE_VOLUME>  (1) 
195.2

>  <PUBCHEM_COORDINATE_TYPE>  (1) 
2
5
10

$$$$
