37795
     RDKit          3D

 18 18  0  0  0  0  0  0  0  0999 V2000
   -0.1141   -0.3783    0.1089 O   0  0  0  0  0  0  0  0  0  0  0  0
   -1.1769   -2.3334    0.6981 O   0  0  0  0  0  0  0  0  0  0  0  0
   -3.6671    3.0196    0.4004 O   0  0  0  0  0  0  0  0  0  0  0  0
   -5.8938   -1.0046   -0.8787 O   0  0  0  0  0  0  0  0  0  0  0  0
    4.7253    0.4602   -0.1423 C   0  0  0  0  0  0  0  0  0  0  0  0
    3.6384   -0.5808    0.1344 C   0  0  0  0  0  0  0  0  0  0  0  0
    6.1468   -0.0927   -0.0052 C   0  0  0  0  0  0  0  0  0  0  0  0
    2.2429    0.0171   -0.0392 C   0  0  0  0  0  0  0  0  0  0  0  0
    7.2320    0.9270   -0.3532 C   0  0  0  0  0  0  0  0  0  0  0  0
    1.1535   -0.9986    0.2743 C   0  0  0  0  0  0  0  0  0  0  0  0
    8.6197    0.3091   -0.2711 C   0  0  0  0  0  0  0  0  0  0  0  0
   -1.2007   -1.1620    0.3540 C   0  0  0  0  0  0  0  0  0  0  0  0
   -2.4579   -0.3999    0.1453 C   0  0  0  0  0  0  0  0  0  0  0  0
   -3.5863   -1.0759   -0.2716 C   0  0  0  0  0  0  0  0  0  0  0  0
   -2.4593    0.9608    0.3753 C   0  0  0  0  0  0  0  0  0  0  0  0
   -3.6405    1.6766    0.1796 C   0  0  0  0  0  0  0  0  0  0  0  0
   -4.7675   -0.3602   -0.4673 C   0  0  0  0  0  0  0  0  0  0  0  0
   -4.7946    1.0161   -0.2417 C   0  0  0  0  0  0  0  0  0  0  0  0
  1 10  1  0
  1 12  1  0
  2 12  2  0
  3 16  1  0
  4 17  1  0
  5  6  1  0
  5  7  1  0
  6  8  1  0
  7  9  1  0
  8 10  1  0
  9 11  1  0
 12 13  1  0
 13 14  2  0
 13 15  1  0
 14 17  1  0
 15 16  2  0
 16 18  1  0
 17 18  2  0
M  END
>  <PUBCHEM_COMPOUND_CID>  (1) 
37795

>  <PUBCHEM_CONFORMER_RMSD>  (1) 
0.8

>  <PUBCHEM_CONFORMER_DIVERSEORDER>  (1) 
1
98
44
73
140
256
142
121
216
41
146
245
244
118
31
27
52
28
248
259
5
205
145
168
224
265
253
237
204
240
50
250
132
46
160
128
187
137
59
175
14
144
235
30
218
139
263
77
48
257
43
96
157
209
13
24
133
102
111
219
272
74
200
217
163
159
39
22
55
185
170
66
197
29
169
134
264
12
130
64
49
83
95
47
230
3
2
9
125
88
171
214
279
260
75
247
223
156
25
127
191
148
85
15
18
186
11
232
172
227
112
81
182
124
183
123
63
26
198
153
38
269
267
241
23
215
104
174
76
100
16
20
105
138
193
8
188
231
266
90
151
166
71
4
19
143
99
201
6
61
221
270
141
173
53
158
120
78
97
242
84
180
149
36
162
274
40
7
211
192
190
239
226
65
117
17
135
69
195
229
80
136
206
103
271
213
10
278
109
82
42
155
276
280
181
21
210
114
70
178
189
58
261
67
122
150
94
54
194
60
87
275
164
32
207
56
167
184
116
262
72
243
147
129
254
62
228
101
126
255
152
119
258
107
154
51
110
68
236
212
222
202
108
208
268
37
176
91
196
161
199
273
234
106
34
252
79
251
57
35
220
165
249
177
203
33
246
179
113
89
92
93
45
225
233
277
238
131
86
115

>  <PUBCHEM_MMFF94_PARTIAL_CHARGES>  (1) 
17
1 -0.43
10 0.28
12 0.63
13 0.09
14 -0.15
15 -0.15
16 0.08
17 0.08
18 -0.15
2 -0.57
3 -0.53
34 0.15
35 0.15
36 0.15
37 0.45
38 0.45
4 -0.53

>  <PUBCHEM_EFFECTIVE_ROTOR_COUNT>  (1) 
8

>  <PUBCHEM_PHARMACOPHORE_FEATURES>  (1) 
6
1 11 hydrophobe
1 2 acceptor
1 3 donor
1 4 donor
5 5 6 7 8 9 hydrophobe
6 13 14 15 16 17 18 rings

>  <PUBCHEM_HEAVY_ATOM_COUNT>  (1) 
18

>  <PUBCHEM_ATOM_DEF_STEREO_COUNT>  (1) 
0

>  <PUBCHEM_ATOM_UDEF_STEREO_COUNT>  (1) 
0

>  <PUBCHEM_BOND_DEF_STEREO_COUNT>  (1) 
0

>  <PUBCHEM_BOND_UDEF_STEREO_COUNT>  (1) 
0

>  <PUBCHEM_ISOTOPIC_ATOM_COUNT>  (1) 
0

>  <PUBCHEM_COMPONENT_COUNT>  (1) 
1

>  <PUBCHEM_CACTVS_TAUTO_COUNT>  (1) 
5

>  <PUBCHEM_CONFORMER_ID>  (1) 
000093A300000001

>  <PUBCHEM_MMFF94_ENERGY>  (1) 
28.5908

>  <PUBCHEM_FEATURE_SELFOVERLAP>  (1) 
30.446

>  <PUBCHEM_SHAPE_FINGERPRINT>  (1) 
10066227 49 17346045464178758734
10087517 78 18335701615957109940
10411042 1 17978229688900371099
10595046 47 18411415077319291498
10670039 82 18409443670409190176
10730089 173 18413671305307354528
11089746 13 18335138713675096308
11315181 36 17967818283856071184
12091667 2 18411421726186914194
13073987 5 18335141955932559746
13288520 33 10159696893357443315
13631057 29 17677054676186202787
13668630 136 15985109630591345350
1420 363 12319458805596733206
14251764 18 18187642501668925634
14251764 46 11674875598396645303
14729087 3 18409164425105704656
15183329 4 18409167697791331912
15348495 7 12252197294026942420
155225 5 18196937660996234632
15716309 27 10592046860738664724
15778101 99 18200880565437524857
17093844 174 8502655891726759439
17780758 139 10953457427393542311
18336668 15 18040439892715357388
18643901 69 16701731757396143055
19427546 20 18410286996550036813
19489759 90 18343022198681131536
20281389 69 17894345575846861780
20300324 65 18343299258853474491
20645477 70 17059787615807606798
21150785 3 17274823580286314990
21267235 1 18341894147586699135
21315763 28 18411699907429896636
22224240 67 13767925750036523328
23035841 295 10087642602676711308
23198884 109 18410293610124309202
23402539 116 18411975875757608039
23559900 14 18270675484603756824
26918003 58 12179844995996125558
300161 21 18040712585253541314
351380 3 12031786959418146364
3545911 37 18410012156680574218
4073 2 17895481431883821642
4325135 7 18272368689587122263
441001 317 18411138030332160584
54446538 1 18409730686099246124
59755656 520 18187077382267071874
6327066 14 18191300469217428709
6328613 192 18114189687663602708
7062679 6 18334300855644627420

>  <PUBCHEM_SHAPE_MULTIPOLES>  (1) 
346.95
19.96
1.86
0.71
42.38
0.77
-0.02
5.4
-3.95
-2.94
0.33
-0.26
-0.06
-0.68

>  <PUBCHEM_SHAPE_SELFOVERLAP>  (1) 
696.685

>  <PUBCHEM_SHAPE_VOLUME>  (1) 
204.2

>  <PUBCHEM_COORDINATE_TYPE>  (1) 
2
5
10

$$$$
