3780
     RDKit          3D

 16 17  0  0  1  0  0  0  0  0999 V2000
   -0.1047   -1.3308    1.5373 O   0  0  0  0  0  0  0  0  0  0  0  0
    0.1000   -1.2665   -1.5597 O   0  0  0  0  0  0  0  0  0  0  0  0
   -2.4143    0.2221   -0.8094 O   0  0  0  0  0  0  0  0  0  0  0  0
    2.4333    0.2007    0.8136 O   0  0  0  0  0  0  0  0  0  0  0  0
   -3.3585    0.6353    1.1487 O   0  0  0  0  0  0  0  0  0  0  0  0
    3.3317    0.6562   -1.1564 O   0  0  0  0  0  0  0  0  0  0  0  0
   -3.0592    2.3334   -0.2649 O   0  0  0  0  0  0  0  0  0  0  0  0
    3.0824    2.3201    0.3066 O   0  0  0  0  0  0  0  0  0  0  0  0
   -2.9922    1.1557    0.0943 N   0  0  0  0  0  0  0  0  0  0  0  0
    2.9963    1.1524   -0.0804 N   0  0  0  0  0  0  0  0  0  0  0  0
   -0.5330   -0.3776    0.5525 C   0  0  0  0  0  0  0  0  0  0  0  0
    0.5235   -0.3513   -0.5369 C   0  0  0  0  0  0  0  0  0  0  0  0
   -1.7676   -0.8676   -0.1625 C   0  0  0  0  0  0  0  0  0  0  0  0
    1.7612   -0.8673    0.1552 C   0  0  0  0  0  0  0  0  0  0  0  0
    1.1963   -1.8274    1.1837 C   0  0  0  0  0  0  0  0  0  0  0  0
   -1.1954   -1.7875   -1.2215 C   0  0  0  0  0  0  0  0  0  0  0  0
  1 11  1  0
  1 15  1  0
  2 12  1  0
  2 16  1  0
  3  9  1  0
  3 13  1  0
  4 10  1  0
  4 14  1  0
  5  9  1  0
  6 10  1  0
  7  9  2  0
  8 10  2  0
 11 12  1  0
 11 13  1  0
 12 14  1  0
 13 16  1  0
 14 15  1  0
M  CHG  4   5  -1   6  -1   9   1  10   1
M  END
>  <PUBCHEM_COMPOUND_CID>  (1) 
3780

>  <PUBCHEM_CONFORMER_RMSD>  (1) 
0.6

>  <PUBCHEM_CONFORMER_DIVERSEORDER>  (1) 
1
54
42
48
9
46
63
45
11
38
15
16
44
52
2
89
40
55
78
24
92
21
86
84
93
75
20
90
69
14
91
50
82
19
102
22
103
8
33
30
87
51
43
80
101
7
60
31
39
29
34
99
47
57
67
13
27
98
66
79
36
62
100
56
17
85
65
35
28
76
68
64
61
32
23
53
5
74
94
58
77
26
96
18
81
37
3
59
6
10
41
49
72
88
70
97
83
95
71
4
73
12
25

>  <PUBCHEM_MMFF94_PARTIAL_CHARGES>  (1) 
16
1 -0.56
10 1.03
11 0.28
12 0.28
13 0.28
14 0.28
15 0.28
16 0.28
2 -0.56
3 -0.27
4 -0.27
5 -0.52
6 -0.52
7 -0.52
8 -0.52
9 1.03

>  <PUBCHEM_EFFECTIVE_ROTOR_COUNT>  (1) 
5.2

>  <PUBCHEM_PHARMACOPHORE_FEATURES>  (1) 
8
1 1 acceptor
1 2 acceptor
1 5 acceptor
1 6 acceptor
1 7 acceptor
1 8 acceptor
5 1 11 12 14 15 rings
5 2 11 12 13 16 rings

>  <PUBCHEM_HEAVY_ATOM_COUNT>  (1) 
16

>  <PUBCHEM_ATOM_DEF_STEREO_COUNT>  (1) 
0

>  <PUBCHEM_ATOM_UDEF_STEREO_COUNT>  (1) 
4

>  <PUBCHEM_BOND_DEF_STEREO_COUNT>  (1) 
0

>  <PUBCHEM_BOND_UDEF_STEREO_COUNT>  (1) 
0

>  <PUBCHEM_ISOTOPIC_ATOM_COUNT>  (1) 
0

>  <PUBCHEM_COMPONENT_COUNT>  (1) 
1

>  <PUBCHEM_CACTVS_TAUTO_COUNT>  (1) 
1

>  <PUBCHEM_CONFORMER_ID>  (1) 
00000EC400000001

>  <PUBCHEM_MMFF94_ENERGY>  (1) 
55.8419

>  <PUBCHEM_FEATURE_SELFOVERLAP>  (1) 
41.449

>  <PUBCHEM_SHAPE_FINGERPRINT>  (1) 
10857977 72 14779551136697414263
11715629 250 18271239538321704744
12491281 212 18411136956595546190
13705890 14 12103545481755654637
13764800 53 17823707553840302288
15534591 1 18337673126062054930
15775835 57 18410856563935107656
16945 1 18055902432047233734
17357990 137 18198895920678055170
18186145 218 17561085769671943045
201361 129 18188489073291466914
20645476 183 18131628993540061086
20645477 56 17917149532410325336
20653085 51 18272097144527385214
21524375 3 18410855464423129092
22094290 62 18338509721245577474
22892500 29 17534889793803268413
23236772 104 18263635320320305487
23419403 2 17403236569085329386
25 1 18333455322454456498
2748010 2 15481523477483767198
4175511 71 17832696881599279730
81228 2 16664308912403046762
9882013 296 15647064801399756732

>  <PUBCHEM_SHAPE_MULTIPOLES>  (1) 
272.36
5.17
2.13
1.3
0.01
0.78
-0.02
4.16
0.04
0.01
0.03
0
-0.56
-0.5

>  <PUBCHEM_SHAPE_SELFOVERLAP>  (1) 
570.941

>  <PUBCHEM_SHAPE_VOLUME>  (1) 
154.1

>  <PUBCHEM_COORDINATE_TYPE>  (1) 
2
5
10

$$$$
