37803
     RDKit          3D

 15 16  0  0  0  0  0  0  0  0999 V2000
    0.0574   -2.7988    0.0723 Cl  0  0  0  0  0  0  0  0  0  0  0  0
   -1.0046    0.1957   -2.5400 Cl  0  0  0  0  0  0  0  0  0  0  0  0
    3.7225    2.2507    0.1297 Cl  0  0  0  0  0  0  0  0  0  0  0  0
    0.4824   -0.0957    0.1477 C   0  0  0  0  0  0  0  0  0  0  0  0
   -0.9526    0.1130    0.1956 C   0  0  0  0  0  0  0  0  0  0  0  0
    1.0377   -1.3740    0.0912 C   0  0  0  0  0  0  0  0  0  0  0  0
    1.3123    1.0254    0.1596 C   0  0  0  0  0  0  0  0  0  0  0  0
   -1.7145    0.2561   -0.9639 C   0  0  0  0  0  0  0  0  0  0  0  0
   -1.5683    0.1685    1.4461 C   0  0  0  0  0  0  0  0  0  0  0  0
    2.6976    0.8681    0.1151 C   0  0  0  0  0  0  0  0  0  0  0  0
    2.4230   -1.5312    0.0467 C   0  0  0  0  0  0  0  0  0  0  0  0
   -3.0921    0.4548   -0.8730 C   0  0  0  0  0  0  0  0  0  0  0  0
   -2.9460    0.3672    1.5369 C   0  0  0  0  0  0  0  0  0  0  0  0
    3.2530   -0.4101    0.0588 C   0  0  0  0  0  0  0  0  0  0  0  0
   -3.7079    0.5105    0.3773 C   0  0  0  0  0  0  0  0  0  0  0  0
  1  6  1  0
  2  8  1  0
  3 10  1  0
  4  5  1  0
  4  6  2  0
  4  7  1  0
  5  8  2  0
  5  9  1  0
  6 11  1  0
  7 10  2  0
  8 12  1  0
  9 13  2  0
 10 14  1  0
 11 14  2  0
 12 15  2  0
 13 15  1  0
M  END
>  <PUBCHEM_COMPOUND_CID>  (1) 
37803

>  <PUBCHEM_CONFORMER_RMSD>  (1) 
0.4

>  <PUBCHEM_CONFORMER_DIVERSEORDER>  (1) 
1
2

>  <PUBCHEM_MMFF94_PARTIAL_CHARGES>  (1) 
20
1 -0.18
10 0.18
11 -0.15
12 -0.15
13 -0.15
14 -0.15
15 -0.15
16 0.15
17 0.15
18 0.15
19 0.15
2 -0.18
20 0.15
21 0.15
22 0.15
3 -0.18
6 0.18
7 -0.15
8 0.18
9 -0.15

>  <PUBCHEM_EFFECTIVE_ROTOR_COUNT>  (1) 
1

>  <PUBCHEM_PHARMACOPHORE_FEATURES>  (1) 
2
6 4 6 7 10 11 14 rings
6 5 8 9 12 13 15 rings

>  <PUBCHEM_HEAVY_ATOM_COUNT>  (1) 
15

>  <PUBCHEM_ATOM_DEF_STEREO_COUNT>  (1) 
0

>  <PUBCHEM_ATOM_UDEF_STEREO_COUNT>  (1) 
0

>  <PUBCHEM_BOND_DEF_STEREO_COUNT>  (1) 
0

>  <PUBCHEM_BOND_UDEF_STEREO_COUNT>  (1) 
0

>  <PUBCHEM_ISOTOPIC_ATOM_COUNT>  (1) 
0

>  <PUBCHEM_COMPONENT_COUNT>  (1) 
1

>  <PUBCHEM_CACTVS_TAUTO_COUNT>  (1) 
1

>  <PUBCHEM_CONFORMER_ID>  (1) 
000093AB00000001

>  <PUBCHEM_MMFF94_ENERGY>  (1) 
43.0773

>  <PUBCHEM_FEATURE_SELFOVERLAP>  (1) 
10.149

>  <PUBCHEM_SHAPE_FINGERPRINT>  (1) 
10608611 8 18114458968278509413
11132069 177 17167860881001095997
11725454 13 16809497073018148197
12119455 92 18114168761590756576
12236239 1 17704069564614675577
12491281 212 17131843087471845688
13538477 17 17274525586285180791
13581323 91 15140960651438394369
14817 1 17478928280922937919
15219456 202 17967814929143864609
15279307 12 17704065175111010055
15309172 13 18408042922337849546
15342168 16 18263932196723062468
15669948 3 16558740252222352405
15775835 57 17988926681947435793
16752209 62 16342837877608555485
16945 1 18339364041632952178
17844478 74 17749393624350315037
1813 80 17699580147660868190
18175812 5 17821734922489870863
18186145 218 18342742909842878468
19049666 15 17315905581568159088
19422 9 17775565321174956711
19873495 37 17703795846385824903
20279233 1 17748545930992151977
204376 136 18337111284421251200
20645476 183 17632573881380309277
20645477 70 18265325127916163071
20715346 28 17894353280274229776
21061003 4 18047196258602649154
21486144 27 18334858350662281708
21499 59 18341331188394444840
21639500 275 18340476837779191000
22079108 93 18129106795554158985
2255824 54 18271248214382677886
22802520 49 17534894195780879941
23236772 104 17775280569259446987
23557571 272 16878230762185792199
23559900 14 16298663876760042178
23598291 2 17846215523007154285
25 1 18341896316086260744
2748010 2 18336842990646664778
3286 77 18188776037152089530
474 4 17987222521030168912
495365 180 18191564416094396133
633830 44 18058746735521006453
77492 1 17704067365638866769
81228 2 17683521011121302514
8272917 22 18127136277712674371
90316 7 15068612777904505309

>  <PUBCHEM_SHAPE_MULTIPOLES>  (1) 
314.3
5.95
2
1.51
0.6
1.09
0.79
-2.88
-0.88
1.9
-0.12
-1.43
-0.24
0.04

>  <PUBCHEM_SHAPE_SELFOVERLAP>  (1) 
655.761

>  <PUBCHEM_SHAPE_VOLUME>  (1) 
173.2

>  <PUBCHEM_COORDINATE_TYPE>  (1) 
2
5
10

$$$$
