37801
     RDKit          3D

 20 22  0  0  1  0  0  0  0  0999 V2000
   -0.8578   -1.1729   -0.5470 O   0  0  0  0  0  0  0  0  0  0  0  0
   -5.0631   -1.5074    0.3638 O   0  0  0  0  0  0  0  0  0  0  0  0
   -3.1070   -1.3029    1.4898 O   0  0  0  0  0  0  0  0  0  0  0  0
   -2.2051    0.8323   -0.1256 C   0  0  0  0  0  0  0  0  0  0  0  0
   -0.9981    0.1415   -0.2156 C   0  0  0  0  0  0  0  0  0  0  0  0
   -3.5278    0.2006   -0.3887 C   0  0  0  0  0  0  0  0  0  0  0  0
    0.2474    0.7126    0.0253 C   0  0  0  0  0  0  0  0  0  0  0  0
    1.1936   -0.3270   -0.1747 C   0  0  0  0  0  0  0  0  0  0  0  0
   -2.1237    2.1817    0.2312 C   0  0  0  0  0  0  0  0  0  0  0  0
    0.3057    2.0709    0.3828 C   0  0  0  0  0  0  0  0  0  0  0  0
    2.6221   -0.3212   -0.0671 C   0  0  0  0  0  0  0  0  0  0  0  0
    0.4726   -1.4467   -0.5194 C   0  0  0  0  0  0  0  0  0  0  0  0
   -3.6881   -0.3466   -1.8226 C   0  0  0  0  0  0  0  0  0  0  0  0
   -0.8920    2.7923    0.4810 C   0  0  0  0  0  0  0  0  0  0  0  0
   -3.8526   -0.9328    0.5921 C   0  0  0  0  0  0  0  0  0  0  0  0
    3.4078   -0.0151   -1.1805 C   0  0  0  0  0  0  0  0  0  0  0  0
    3.2345   -0.6221    1.1516 C   0  0  0  0  0  0  0  0  0  0  0  0
    4.7987   -0.0100   -1.0757 C   0  0  0  0  0  0  0  0  0  0  0  0
    4.6254   -0.6167    1.2564 C   0  0  0  0  0  0  0  0  0  0  0  0
    5.4076   -0.3106    0.1428 C   0  0  0  0  0  0  0  0  0  0  0  0
  1  5  1  0
  1 12  1  0
  2 15  1  0
  3 15  2  0
  4  5  2  0
  4  6  1  0
  4  9  1  0
  5  7  1  0
  6 13  1  0
  6 15  1  0
  7  8  1  0
  7 10  2  0
  8 11  1  0
  8 12  2  0
  9 14  2  0
 10 14  1  0
 11 16  2  0
 11 17  1  0
 16 18  1  0
 17 19  2  0
 18 20  2  0
 19 20  1  0
M  END
>  <PUBCHEM_COMPOUND_CID>  (1) 
37801

>  <PUBCHEM_CONFORMER_RMSD>  (1) 
0.6

>  <PUBCHEM_CONFORMER_DIVERSEORDER>  (1) 
3
7
15
10
11
14
6
4
13
9
5
16
12
8
1
2

>  <PUBCHEM_MMFF94_PARTIAL_CHARGES>  (1) 
28
1 -0.28
10 -0.15
11 0.05
12 -0.01
14 -0.15
15 0.66
16 -0.15
17 -0.15
18 -0.15
19 -0.15
2 -0.65
20 -0.15
22 0.15
23 0.15
24 0.15
28 0.15
29 0.15
3 -0.57
30 0.15
31 0.15
32 0.15
33 0.15
34 0.5
4 -0.14
5 0.14
6 0.2
8 -0.05
9 -0.15

>  <PUBCHEM_EFFECTIVE_ROTOR_COUNT>  (1) 
3

>  <PUBCHEM_PHARMACOPHORE_FEATURES>  (1) 
8
1 1 acceptor
1 13 hydrophobe
1 2 acceptor
1 3 acceptor
3 2 3 15 anion
5 1 5 7 8 12 rings
6 11 16 17 18 19 20 rings
6 4 5 7 9 10 14 rings

>  <PUBCHEM_HEAVY_ATOM_COUNT>  (1) 
20

>  <PUBCHEM_ATOM_DEF_STEREO_COUNT>  (1) 
0

>  <PUBCHEM_ATOM_UDEF_STEREO_COUNT>  (1) 
1

>  <PUBCHEM_BOND_DEF_STEREO_COUNT>  (1) 
0

>  <PUBCHEM_BOND_UDEF_STEREO_COUNT>  (1) 
0

>  <PUBCHEM_ISOTOPIC_ATOM_COUNT>  (1) 
0

>  <PUBCHEM_COMPONENT_COUNT>  (1) 
1

>  <PUBCHEM_CACTVS_TAUTO_COUNT>  (1) 
1

>  <PUBCHEM_CONFORMER_ID>  (1) 
000093A900000003

>  <PUBCHEM_MMFF94_ENERGY>  (1) 
47.0821

>  <PUBCHEM_FEATURE_SELFOVERLAP>  (1) 
40.758

>  <PUBCHEM_SHAPE_FINGERPRINT>  (1) 
10498660 4 18198621043336055068
10906281 52 18269001899505980285
11045515 52 17095523993571687013
11132069 177 17775279460888826828
11315181 36 18040718048472722456
11370993 144 16056331530776965871
11543360 7 16515405196062494309
11552529 35 14907314482070314989
11578080 2 17751051744163415996
11796584 16 17312819394706765011
12107183 9 17101979024875440008
12236239 1 18040434370177782414
12403259 415 17489584529298378680
12553582 1 18343016718176579823
12596602 18 17895186715237756488
13140716 1 18127406971799576995
13167823 11 16950279607233251250
13214271 11 18271806787811592133
13224815 77 18341615863174493014
13583140 156 16660943156886023340
13631057 29 17242189043801998354
13862211 1 18341888619294110311
14420673 8 17547565986584418858
14787075 74 18114748234299489002
16752209 62 18339913832001490932
16945 1 18343580746029375967
17138139 8 17532366663341336058
17349148 13 18259989253857895310
17357779 13 18200861933658274781
17492 89 18264769853180582674
1813 80 17988655111249751437
18222031 100 18201434826534637847
18927931 339 18271526407819531142
19141452 34 17203324541938763511
200 152 16515404058228470080
20028762 73 17844530118365699591
20261772 1 18131069363495866102
20510252 161 18130507431692241744
21029758 27 18410294735094796789
21033648 29 17346304969326351776
21041028 32 18200885058121120089
21267235 1 18410864256827975486
22182313 1 17916315934908098245
2297311 6 18271537433242939052
23366157 5 17829618262343516958
23402539 116 18271799112172115574
23536379 177 16443058383580530183
23557571 272 17988093192162249852
23558518 356 18046072557682126154
23559900 14 18040991877843572560
314173 85 18131633387328183353
3268164 11 18200864089636951092
34934 24 18197213655688646329
465052 167 18337401555406971267
474 4 17532384235133757292
5104073 3 18200309889017059266
7495541 125 18041565852872164303
8863177 126 17753907309389767427

>  <PUBCHEM_SHAPE_MULTIPOLES>  (1) 
393.98
10.11
1.96
1.23
5.62
1.43
-0.1
-3.87
0.28
-1.86
0.38
0.08
-0.32
0.03

>  <PUBCHEM_SHAPE_SELFOVERLAP>  (1) 
873.286

>  <PUBCHEM_SHAPE_VOLUME>  (1) 
211.9

>  <PUBCHEM_COORDINATE_TYPE>  (1) 
2
5
10

$$$$
