37808
     RDKit          3D

 17 19  0  0  0  0  0  0  0  0999 V2000
    1.6375    1.4709    0.7591 O   0  0  0  0  0  0  0  0  0  0  0  0
   -2.3163   -1.7244   -0.2470 N   0  0  0  0  0  0  0  0  0  0  0  0
   -3.1335    0.3530    0.1953 N   0  0  0  0  0  0  0  0  0  0  0  0
    0.0782    0.4685   -0.5164 C   0  0  0  0  0  0  0  0  0  0  0  0
   -1.1662    0.2358   -1.2747 C   0  0  0  0  0  0  0  0  0  0  0  0
    1.1640   -0.4330   -0.3610 C   0  0  0  0  0  0  0  0  0  0  0  0
    0.4154    1.6056    0.1807 C   0  0  0  0  0  0  0  0  0  0  0  0
   -2.2414   -0.3764   -0.4256 C   0  0  0  0  0  0  0  0  0  0  0  0
    2.0958    0.2302    0.4309 C   0  0  0  0  0  0  0  0  0  0  0  0
   -3.3997   -2.0439    0.6328 C   0  0  0  0  0  0  0  0  0  0  0  0
   -0.2676    2.8877    0.4090 C   0  0  0  0  0  0  0  0  0  0  0  0
   -3.9850   -0.6502    0.9060 C   0  0  0  0  0  0  0  0  0  0  0  0
    1.4619   -1.7347   -0.8010 C   0  0  0  0  0  0  0  0  0  0  0  0
    3.3181   -0.3139    0.8212 C   0  0  0  0  0  0  0  0  0  0  0  0
    0.0610    3.9422   -0.6563 C   0  0  0  0  0  0  0  0  0  0  0  0
    2.6840   -2.3086   -0.4247 C   0  0  0  0  0  0  0  0  0  0  0  0
    3.5939   -1.6087    0.3718 C   0  0  0  0  0  0  0  0  0  0  0  0
  1  7  1  0
  1  9  1  0
  2  8  1  0
  2 10  1  0
  3  8  2  0
  3 12  1  0
  4  5  1  0
  4  6  1  0
  4  7  2  0
  5  8  1  0
  6  9  2  0
  6 13  1  0
  7 11  1  0
  9 14  1  0
 10 12  1  0
 11 15  1  0
 13 16  2  0
 14 17  2  0
 16 17  1  0
M  END
>  <PUBCHEM_COMPOUND_CID>  (1) 
37808

>  <PUBCHEM_CONFORMER_RMSD>  (1) 
0.6

>  <PUBCHEM_CONFORMER_DIVERSEORDER>  (1) 
1
11
12
19
20
9
18
10
17
16
14
6
2
4
13
15
5
3
8
7

>  <PUBCHEM_MMFF94_PARTIAL_CHARGES>  (1) 
20
1 -0.28
10 0.37
11 0.18
12 0.25
13 -0.15
14 -0.15
16 -0.15
17 -0.15
2 -0.82
24 0.4
27 0.15
28 0.15
3 -0.7
32 0.15
33 0.15
4 -0.18
5 0.24
7 -0.04
8 0.44
9 0.14

>  <PUBCHEM_EFFECTIVE_ROTOR_COUNT>  (1) 
3.6

>  <PUBCHEM_PHARMACOPHORE_FEATURES>  (1) 
7
1 1 acceptor
1 15 hydrophobe
1 2 donor
3 2 3 8 cation
5 1 4 6 7 9 rings
5 2 3 8 10 12 rings
6 6 9 13 14 16 17 rings

>  <PUBCHEM_HEAVY_ATOM_COUNT>  (1) 
17

>  <PUBCHEM_ATOM_DEF_STEREO_COUNT>  (1) 
0

>  <PUBCHEM_ATOM_UDEF_STEREO_COUNT>  (1) 
0

>  <PUBCHEM_BOND_DEF_STEREO_COUNT>  (1) 
0

>  <PUBCHEM_BOND_UDEF_STEREO_COUNT>  (1) 
0

>  <PUBCHEM_ISOTOPIC_ATOM_COUNT>  (1) 
0

>  <PUBCHEM_COMPONENT_COUNT>  (1) 
1

>  <PUBCHEM_CACTVS_TAUTO_COUNT>  (1) 
1

>  <PUBCHEM_CONFORMER_ID>  (1) 
000093B000000001

>  <PUBCHEM_MMFF94_ENERGY>  (1) 
30.0368

>  <PUBCHEM_FEATURE_SELFOVERLAP>  (1) 
35.623

>  <PUBCHEM_SHAPE_FINGERPRINT>  (1) 
10493431 412 17693930096513120600
10764073 3 10152160604559253350
1100329 8 15240321739567181923
11471102 22 18342737450707564138
12251169 10 18201157740977827215
12382932 28 18342173345439621075
12506688 2 18408042917979838539
12532896 13 17402603057145597540
12553582 1 18411982472495143206
12696612 119 18270401727630444863
12714826 92 17749669597806144527
13140716 1 18412542076610706808
14787075 74 18041558169655882298
14790565 3 18050854617473152368
15375462 189 18187362108201502274
15422964 175 18411699863594344686
15885798 251 18337397037132530769
16945 1 17632570569849695388
17841504 4 18337955713619840155
19049666 15 17837770032534249614
19591789 44 17472141047411156700
20559304 39 18268438012901203881
20645477 70 18046612684749145983
20739085 24 18338797943843367832
20871998 22 18341618079245878942
21061003 4 18341604932166122759
21524375 3 17263570301476582245
21665056 4 17399230854940549204
22182313 1 17486484898740915870
2255824 54 18050291667281477293
23382010 3 11314606349394500967
2748010 2 18197190685887133860
3071541 236 17617645567202230328
31174 14 18118401971968764791
3759504 43 17400365551172782684
458136 41 17614016500215304137
5902787 121 18260542338002522842
6786 2 16239054137196554933
6992083 37 17846768633433022431
7097593 13 18270124646695493339
7364860 26 18121223335700787557
81228 2 18195242213522072689
8809292 202 17981039713527263982

>  <PUBCHEM_SHAPE_MULTIPOLES>  (1) 
334.02
5.93
3.47
0.99
2.06
3.61
0.07
-5.06
-1.83
0.05
0.29
0.08
-0.01
0.6

>  <PUBCHEM_SHAPE_SELFOVERLAP>  (1) 
724.185

>  <PUBCHEM_SHAPE_VOLUME>  (1) 
187.4

>  <PUBCHEM_COORDINATE_TYPE>  (1) 
2
5
10

$$$$
