37802
     RDKit          3D

 16 16  0  0  1  0  0  0  0  0999 V2000
    2.5463    1.8174   -0.3853 O   0  0  0  0  0  0  0  0  0  0  0  0
    3.4205   -0.8114   -0.1651 O   0  0  0  0  0  0  0  0  0  0  0  0
   -2.8397   -0.2468   -0.9569 N   0  0  0  0  0  0  0  0  0  0  0  0
   -3.1180   -0.2951    2.4626 N   0  0  0  0  0  0  0  0  0  0  0  0
   -2.0882    0.3762    0.1321 C   0  0  0  0  0  0  0  0  0  0  0  0
   -0.6066    0.0602    0.0519 C   0  0  0  0  0  0  0  0  0  0  0  0
    0.2917    1.0946   -0.1314 C   0  0  0  0  0  0  0  0  0  0  0  0
   -0.1930   -1.2539    0.1635 C   0  0  0  0  0  0  0  0  0  0  0  0
    1.6540    0.8040   -0.2058 C   0  0  0  0  0  0  0  0  0  0  0  0
    2.0926   -0.5156   -0.0954 C   0  0  0  0  0  0  0  0  0  0  0  0
   -2.2695    0.1272   -2.2507 C   0  0  0  0  0  0  0  0  0  0  0  0
   -4.2494    0.1363   -0.8897 C   0  0  0  0  0  0  0  0  0  0  0  0
    1.1690   -1.5445    0.0891 C   0  0  0  0  0  0  0  0  0  0  0  0
   -2.6636   -0.0013    1.4358 C   0  0  0  0  0  0  0  0  0  0  0  0
    3.0681    2.4373    0.7885 C   0  0  0  0  0  0  0  0  0  0  0  0
    3.7859   -2.1847   -0.0432 C   0  0  0  0  0  0  0  0  0  0  0  0
  1  9  1  0
  1 15  1  0
  2 10  1  0
  2 16  1  0
  3  5  1  0
  3 11  1  0
  3 12  1  0
  4 14  3  0
  5  6  1  0
  5 14  1  0
  6  7  2  0
  6  8  1  0
  7  9  1  0
  8 13  2  0
  9 10  2  0
 10 13  1  0
M  END
>  <PUBCHEM_COMPOUND_CID>  (1) 
37802

>  <PUBCHEM_CONFORMER_RMSD>  (1) 
0.6

>  <PUBCHEM_CONFORMER_DIVERSEORDER>  (1) 
1
35
13
22
24
25
27
18
30
20
34
26
6
8
12
36
33
16
29
28
9
32
2
14
7
17
10
21
15
19
31
11
23
5
3
4

>  <PUBCHEM_MMFF94_PARTIAL_CHARGES>  (1) 
19
1 -0.36
10 0.08
11 0.27
12 0.27
13 -0.15
14 0.36
15 0.28
16 0.28
18 0.15
19 0.15
2 -0.36
26 0.15
3 -0.81
4 -0.56
5 0.61
6 -0.14
7 -0.15
8 -0.15
9 0.08

>  <PUBCHEM_EFFECTIVE_ROTOR_COUNT>  (1) 
4

>  <PUBCHEM_PHARMACOPHORE_FEATURES>  (1) 
5
1 1 acceptor
1 2 acceptor
1 3 cation
1 4 acceptor
6 6 7 8 9 10 13 rings

>  <PUBCHEM_HEAVY_ATOM_COUNT>  (1) 
16

>  <PUBCHEM_ATOM_DEF_STEREO_COUNT>  (1) 
0

>  <PUBCHEM_ATOM_UDEF_STEREO_COUNT>  (1) 
1

>  <PUBCHEM_BOND_DEF_STEREO_COUNT>  (1) 
0

>  <PUBCHEM_BOND_UDEF_STEREO_COUNT>  (1) 
0

>  <PUBCHEM_ISOTOPIC_ATOM_COUNT>  (1) 
0

>  <PUBCHEM_COMPONENT_COUNT>  (1) 
1

>  <PUBCHEM_CACTVS_TAUTO_COUNT>  (1) 
1

>  <PUBCHEM_CONFORMER_ID>  (1) 
000093AA00000001

>  <PUBCHEM_MMFF94_ENERGY>  (1) 
65.113

>  <PUBCHEM_FEATURE_SELFOVERLAP>  (1) 
25.376

>  <PUBCHEM_SHAPE_FINGERPRINT>  (1) 
12236239 1 17775283838067149675
124424 183 17749387010190551306
12500047 106 16370721496351489651
13134695 92 18338228272476572692
13296908 3 17822016427457389289
13380535 21 18192167094690243970
14115302 16 17346019131011164119
15219456 202 17968100849606821001
15653759 3 17240491303190210363
16945 1 18411703153866249986
17357990 137 17345776121339511096
17844478 74 17676783031940459329
1813 80 17915192221693718038
18175812 5 17676493851850591519
18186145 218 18271256009484309724
18534176 82 16732988587666252791
19049666 15 17604420787176829041
19422 9 17775569745091439863
200 152 18271800199352833031
20279233 1 17821444690159207361
204376 136 18122341552206900504
20645477 70 18409161104157059782
20715346 28 17894633690035740952
21061003 4 18191038819186607827
21639500 275 18341602771993018004
22112679 90 17418376882780164161
23402539 116 18127402346742421414
23493267 7 16588586396505291137
23526113 38 17751356183797131187
23557571 272 16805613619676906461
23559900 14 16732700524114803506
23598291 2 17703804595176405300
2748010 2 18114181973052551454
3286 77 18262258658584226139
474 4 17842549918929022952
6049 1 17749398065277946685
7364860 26 18343295990351778680
7615 1 17561082509781378513
77492 1 17704076196218253841
81228 2 16459653011831187730
88987 49 15647044971730813077

>  <PUBCHEM_SHAPE_MULTIPOLES>  (1) 
307.57
6.88
1.93
1.53
0.88
0.45
-0.29
-0.54
0.1
-3.23
-0.19
2.31
0.01
0.21

>  <PUBCHEM_SHAPE_SELFOVERLAP>  (1) 
629.835

>  <PUBCHEM_SHAPE_VOLUME>  (1) 
178.3

>  <PUBCHEM_COORDINATE_TYPE>  (1) 
2
5
10

$$$$
