37810
     RDKit          3D

 22 24  0  0  1  0  0  0  0  0999 V2000
   -0.2839   -0.1376    0.4813 N   0  0  0  0  0  0  0  0  0  0  0  0
    2.3899    3.3995   -0.1336 N   0  0  0  0  0  0  0  0  0  0  0  0
   -5.1104    0.0423   -0.4597 N   0  0  0  0  0  0  0  0  0  0  0  0
    0.5262    0.8657    0.0215 C   0  0  0  0  0  0  0  0  0  0  0  0
    1.7060    0.2992   -0.4182 C   0  0  0  0  0  0  0  0  0  0  0  0
    0.1210    2.2955    0.0324 C   0  0  0  0  0  0  0  0  0  0  0  0
    2.8465    1.0647   -0.9956 C   0  0  0  0  0  0  0  0  0  0  0  0
    1.5988   -1.1123   -0.2135 C   0  0  0  0  0  0  0  0  0  0  0  0
    0.3447   -1.3539    0.3516 C   0  0  0  0  0  0  0  0  0  0  0  0
    1.1766    3.1967    0.6857 C   0  0  0  0  0  0  0  0  0  0  0  0
    3.3034    2.2376   -0.1170 C   0  0  0  0  0  0  0  0  0  0  0  0
   -1.6123    0.0331    1.0358 C   0  0  0  0  0  0  0  0  0  0  0  0
   -2.6983   -0.0499   -0.0364 C   0  0  0  0  0  0  0  0  0  0  0  0
    2.4493   -2.2122   -0.4547 C   0  0  0  0  0  0  0  0  0  0  0  0
   -0.1008   -2.6374    0.6887 C   0  0  0  0  0  0  0  0  0  0  0  0
    3.1095    4.5814    0.3613 C   0  0  0  0  0  0  0  0  0  0  0  0
   -4.0855    0.1449    0.5721 C   0  0  0  0  0  0  0  0  0  0  0  0
    2.0176   -3.5016   -0.1232 C   0  0  0  0  0  0  0  0  0  0  0  0
    0.7611   -3.7086    0.4405 C   0  0  0  0  0  0  0  0  0  0  0  0
    2.9162   -4.6663   -0.3765 C   0  0  0  0  0  0  0  0  0  0  0  0
   -4.9285    1.0837   -1.4725 C   0  0  0  0  0  0  0  0  0  0  0  0
   -6.4471    0.1358    0.1301 C   0  0  0  0  0  0  0  0  0  0  0  0
  1  4  1  0
  1  9  1  0
  1 12  1  0
  2 10  1  0
  2 11  1  0
  2 16  1  0
  3 17  1  0
  3 21  1  0
  3 22  1  0
  4  5  2  0
  4  6  1  0
  5  7  1  0
  5  8  1  0
  6 10  1  0
  7 11  1  0
  8  9  2  0
  8 14  1  0
  9 15  1  0
 12 13  1  0
 13 17  1  0
 14 18  2  0
 15 19  2  0
 18 19  1  0
 18 20  1  0
M  END
>  <PUBCHEM_COMPOUND_CID>  (1) 
37810

>  <PUBCHEM_CONFORMER_RMSD>  (1) 
0.8

>  <PUBCHEM_CONFORMER_DIVERSEORDER>  (1) 
5
12
15
14
6
13
16
11
2
4
7
10
8
3
1
9

>  <PUBCHEM_MMFF94_PARTIAL_CHARGES>  (1) 
23
1 0.05
10 0.27
11 0.27
12 0.26
14 -0.15
15 -0.15
16 0.27
17 0.27
18 -0.14
19 -0.15
2 -0.81
20 0.14
21 0.27
22 0.27
3 -0.81
35 0.15
36 0.15
4 -0.33
42 0.15
5 -0.18
6 0.18
7 0.18
9 -0.15

>  <PUBCHEM_EFFECTIVE_ROTOR_COUNT>  (1) 
5

>  <PUBCHEM_PHARMACOPHORE_FEATURES>  (1) 
6
1 1 cation
1 2 cation
1 3 cation
5 1 4 5 8 9 rings
6 8 9 14 15 18 19 rings
7 2 4 5 6 7 10 11 rings

>  <PUBCHEM_HEAVY_ATOM_COUNT>  (1) 
22

>  <PUBCHEM_ATOM_DEF_STEREO_COUNT>  (1) 
0

>  <PUBCHEM_ATOM_UDEF_STEREO_COUNT>  (1) 
0

>  <PUBCHEM_BOND_DEF_STEREO_COUNT>  (1) 
0

>  <PUBCHEM_BOND_UDEF_STEREO_COUNT>  (1) 
0

>  <PUBCHEM_ISOTOPIC_ATOM_COUNT>  (1) 
0

>  <PUBCHEM_COMPONENT_COUNT>  (1) 
1

>  <PUBCHEM_CACTVS_TAUTO_COUNT>  (1) 
1

>  <PUBCHEM_CONFORMER_ID>  (1) 
000093B200000005

>  <PUBCHEM_MMFF94_ENERGY>  (1) 
45.223

>  <PUBCHEM_FEATURE_SELFOVERLAP>  (1) 
30.57

>  <PUBCHEM_SHAPE_FINGERPRINT>  (1) 
10411042 1 18050570638182004138
10693767 8 18130515132505755366
1100329 8 18410292545199636954
11265709 11 17978232655915073035
11582403 64 17823964839498106673
12107183 9 18120075437731831792
12553582 1 17977681809279933219
12730499 353 18335993064248074419
12769317 202 18411410743982256309
12788726 201 17109598575867881411
13009979 54 17629488497329158571
13134695 92 18266459802340873783
13140716 1 18195826269477062672
13533116 47 18411139113808481785
13540713 4 17552094204932453956
13590594 115 17906182750169422201
138480 1 18266743484714243146
13955234 65 18410296904406514595
14178000 15 18267867172712908824
14508225 48 17979068284609576223
15081414 286 18339924792668658467
16087824 20 17185599014609798489
16728300 4 17607491723960511840
17539 30 17330831323140221494
17980427 26 18270387407993592549
20645477 70 18334577898146562219
21304303 282 17479423061255358526
21452121 199 18120366554144438034
221357 26 18117554025692873725
23419403 2 17388502014024578388
23559900 14 18410573976614608723
2748010 2 17977412716999372078
283562 15 17686065989898462314
3091708 16 9039567232269643346
4409770 3 17402324274928524635
46194498 28 17749118755698074375
495365 180 18340200907441963329
5281201 14 18261673654590742855
5969126 39 17763456223899965454
6025842 7 18411134749652457639
6443956 14 18264769848483954574
7471813 234 18126559029454480527
77188 2 18195246603157484134
84936 182 18343305889777130009
9777508 108 17620191374496258161
9981440 41 18050563242268692667

>  <PUBCHEM_SHAPE_MULTIPOLES>  (1) 
437.81
8.68
6.06
0.93
20.88
0.39
-0.11
-1.69
-2.04
-10.63
0.52
0.46
-0.1
0.75

>  <PUBCHEM_SHAPE_SELFOVERLAP>  (1) 
917.355

>  <PUBCHEM_SHAPE_VOLUME>  (1) 
248.6

>  <PUBCHEM_COORDINATE_TYPE>  (1) 
2
5
10

$$$$
