3781
     RDKit          3D

 20 22  0  0  1  0  0  0  0  0999 V2000
    2.6620   -1.0413    0.9034 S   0  0  0  0  0  0  0  0  0  0  0  0
    0.0269    0.0462   -0.3589 N   0  0  0  0  0  0  0  0  0  0  0  0
   -3.4493    1.3752    0.0176 N   0  0  0  0  0  0  0  0  0  0  0  0
    0.9393    2.2469   -0.7315 N   0  0  0  0  0  0  0  0  0  0  0  0
   -2.1866    0.7748    0.4519 C   0  0  0  0  0  0  0  0  0  0  0  0
   -1.2624    0.6248   -0.7608 C   0  0  0  0  0  0  0  0  0  0  0  0
    0.1140   -1.3607   -0.2241 C   0  0  0  0  0  0  0  0  0  0  0  0
   -1.5733    1.6549    1.5410 C   0  0  0  0  0  0  0  0  0  0  0  0
    1.1056    0.9699   -0.2791 C   0  0  0  0  0  0  0  0  0  0  0  0
    1.2602   -1.9711    0.3216 C   0  0  0  0  0  0  0  0  0  0  0  0
    2.3413    0.5758    0.2488 C   0  0  0  0  0  0  0  0  0  0  0  0
   -4.3789    1.4753    1.1414 C   0  0  0  0  0  0  0  0  0  0  0  0
   -4.0391    0.5929   -1.0673 C   0  0  0  0  0  0  0  0  0  0  0  0
   -0.9244   -2.2210   -0.6461 C   0  0  0  0  0  0  0  0  0  0  0  0
    1.3402   -3.3700    0.4521 C   0  0  0  0  0  0  0  0  0  0  0  0
    3.3894    1.5071    0.3031 C   0  0  0  0  0  0  0  0  0  0  0  0
   -0.8384   -3.6105   -0.5178 C   0  0  0  0  0  0  0  0  0  0  0  0
    0.2944   -4.1859    0.0347 C   0  0  0  0  0  0  0  0  0  0  0  0
    1.9702    3.1178   -0.6672 C   0  0  0  0  0  0  0  0  0  0  0  0
    3.2089    2.7990   -0.1627 C   0  0  0  0  0  0  0  0  0  0  0  0
  1 10  1  0
  1 11  1  0
  2  6  1  0
  2  7  1  0
  2  9  1  0
  3  5  1  0
  3 12  1  0
  3 13  1  0
  4  9  1  0
  4 19  2  0
  5  6  1  0
  5  8  1  0
  7 10  2  0
  7 14  1  0
  9 11  2  0
 10 15  1  0
 11 16  1  0
 14 17  2  0
 15 18  2  0
 16 20  2  0
 17 18  1  0
 19 20  1  0
M  END
>  <PUBCHEM_COMPOUND_CID>  (1) 
3781

>  <PUBCHEM_CONFORMER_RMSD>  (1) 
0.6

>  <PUBCHEM_CONFORMER_DIVERSEORDER>  (1) 
1
10
4
7
5
8
3
9
6
2

>  <PUBCHEM_MMFF94_PARTIAL_CHARGES>  (1) 
26
1 -0.2
10 0.1
11 0.1
12 0.27
13 0.27
14 -0.15
15 -0.15
16 -0.15
17 -0.15
18 -0.15
19 0.16
2 -0.57
20 -0.15
3 -0.81
33 0.15
34 0.15
35 0.15
36 0.15
37 0.15
38 0.15
39 0.15
4 -0.62
5 0.27
6 0.37
7 0.1
9 0.41

>  <PUBCHEM_EFFECTIVE_ROTOR_COUNT>  (1) 
3.4

>  <PUBCHEM_PHARMACOPHORE_FEATURES>  (1) 
6
1 2 cation
1 3 cation
1 4 acceptor
6 1 2 7 9 10 11 rings
6 4 9 11 16 19 20 rings
6 7 10 14 15 17 18 rings

>  <PUBCHEM_HEAVY_ATOM_COUNT>  (1) 
20

>  <PUBCHEM_ATOM_DEF_STEREO_COUNT>  (1) 
0

>  <PUBCHEM_ATOM_UDEF_STEREO_COUNT>  (1) 
1

>  <PUBCHEM_BOND_DEF_STEREO_COUNT>  (1) 
0

>  <PUBCHEM_BOND_UDEF_STEREO_COUNT>  (1) 
0

>  <PUBCHEM_ISOTOPIC_ATOM_COUNT>  (1) 
0

>  <PUBCHEM_COMPONENT_COUNT>  (1) 
1

>  <PUBCHEM_CACTVS_TAUTO_COUNT>  (1) 
1

>  <PUBCHEM_CONFORMER_ID>  (1) 
00000EC500000001

>  <PUBCHEM_MMFF94_ENERGY>  (1) 
72.7334

>  <PUBCHEM_FEATURE_SELFOVERLAP>  (1) 
30.478

>  <PUBCHEM_SHAPE_FINGERPRINT>  (1) 
10411042 1 17545596756462613263
104564 63 17834398199865459910
10493431 412 18411975871589195792
10967382 1 18265888060668583558
1100329 8 18411695487449918546
11578080 2 13666421164021502545
11582403 64 16376016778831910645
116883 192 16968852269686225029
11725454 13 16880158231986930341
12553582 1 17762623884775201951
12788726 201 17762615492371935410
12954195 1 17616271607628996908
13140716 1 18337098025989220402
13149001 5 17910999891014744110
13681431 1 17756731648926613068
138480 1 17977946778443461335
14178342 30 17977649133601261920
14790565 3 18266468611946954404
14866123 147 18265895938013183410
14955137 171 18265060132940106682
15906896 17 17983860256967902406
16752209 62 17978782733919755214
16945 1 18265322907333486478
17138139 8 17698693103738356535
19591789 44 18194683662311137526
20510252 161 17619066574296130896
20642791 105 17977078469221321483
20645477 70 18189606151931621445
20739085 24 18051136891228273418
21197605 99 18263378039548982419
21524375 3 18272931656536173013
2255824 54 18268435641847070039
2334 1 18264476451179352438
23419403 2 16238792174482564350
23557571 272 17696483149696460052
23558518 356 17901952168954476556
25147074 1 17608922424838419988
283562 15 17399796489691888976
3060560 45 18337957792325956836
3091708 16 9046042247560703411
3380486 145 17473267569766607936
350125 39 18265055906312154274
352729 6 18341049726070689874
474 4 18340487768618607057
5312544 6 18410567418684733807
59755656 520 18268162022202552948
633830 44 18130517365936097997
6438718 38 17411922938678026111
6443956 14 17759806944585083565
7097593 13 17767411184367326697
7164475 11 17762056936402153700
7364860 26 18266745675348069633
81228 2 17474128955511678248
8272917 22 18267308638540158441

>  <PUBCHEM_SHAPE_MULTIPOLES>  (1) 
400.5
5.74
5.05
1.06
4.54
4.81
0.19
-5.54
0.75
-2.06
-0.36
0.56
-0.33
-1.24

>  <PUBCHEM_SHAPE_SELFOVERLAP>  (1) 
843.107

>  <PUBCHEM_SHAPE_VOLUME>  (1) 
227.2

>  <PUBCHEM_COORDINATE_TYPE>  (1) 
2
5
10

$$$$
