37819
     RDKit          3D

 13 14  0  0  0  0  0  0  0  0999 V2000
    2.6040   -0.8614    0.5064 O   0  0  0  0  0  0  0  0  0  0  0  0
   -2.6044   -0.8611    0.5071 O   0  0  0  0  0  0  0  0  0  0  0  0
    3.8000   -1.3677    0.0121 N   0  0  0  0  0  0  0  0  0  0  0  0
   -3.8000   -1.3677    0.0122 N   0  0  0  0  0  0  0  0  0  0  0  0
   -0.0001    0.4270    0.0746 C   0  0  0  0  0  0  0  0  0  0  0  0
    1.2636    1.1333    0.5742 C   0  0  0  0  0  0  0  0  0  0  0  0
   -1.2636    1.1333    0.5743 C   0  0  0  0  0  0  0  0  0  0  0  0
    2.5119    0.4189    0.1211 C   0  0  0  0  0  0  0  0  0  0  0  0
   -2.5121    0.4192    0.1215 C   0  0  0  0  0  0  0  0  0  0  0  0
    3.5711    0.8129   -0.6039 C   0  0  0  0  0  0  0  0  0  0  0  0
   -3.5708    0.8128   -0.6043 C   0  0  0  0  0  0  0  0  0  0  0  0
    4.3600   -0.3496   -0.6474 C   0  0  0  0  0  0  0  0  0  0  0  0
   -4.3597   -0.3498   -0.6480 C   0  0  0  0  0  0  0  0  0  0  0  0
  1  3  1  0
  1  8  1  0
  2  4  1  0
  2  9  1  0
  3 12  2  0
  4 13  2  0
  5  6  1  0
  5  7  1  0
  6  8  1  0
  7  9  1  0
  8 10  2  0
  9 11  2  0
 10 12  1  0
 11 13  1  0
M  END
>  <PUBCHEM_COMPOUND_CID>  (1) 
37819

>  <PUBCHEM_CONFORMER_RMSD>  (1) 
0.6

>  <PUBCHEM_CONFORMER_DIVERSEORDER>  (1) 
1
36
18
20
35
4
37
34
23
38
3
2
25
26
19
24
17
28
27
33
32
21
22
15
5
7
16
12
30
6
8
10
29
9
11
31
13
14

>  <PUBCHEM_MMFF94_PARTIAL_CHARGES>  (1) 
16
1 -0.02
10 -0.15
11 -0.15
12 0.14
13 0.14
2 -0.02
20 0.15
21 0.15
22 0.15
23 0.15
3 -0.41
4 -0.41
6 0.18
7 0.18
8 -0.04
9 -0.04

>  <PUBCHEM_EFFECTIVE_ROTOR_COUNT>  (1) 
4

>  <PUBCHEM_PHARMACOPHORE_FEATURES>  (1) 
4
1 3 acceptor
1 4 acceptor
5 1 3 8 10 12 rings
5 2 4 9 11 13 rings

>  <PUBCHEM_HEAVY_ATOM_COUNT>  (1) 
13

>  <PUBCHEM_ATOM_DEF_STEREO_COUNT>  (1) 
0

>  <PUBCHEM_ATOM_UDEF_STEREO_COUNT>  (1) 
0

>  <PUBCHEM_BOND_DEF_STEREO_COUNT>  (1) 
0

>  <PUBCHEM_BOND_UDEF_STEREO_COUNT>  (1) 
0

>  <PUBCHEM_ISOTOPIC_ATOM_COUNT>  (1) 
0

>  <PUBCHEM_COMPONENT_COUNT>  (1) 
1

>  <PUBCHEM_CACTVS_TAUTO_COUNT>  (1) 
1

>  <PUBCHEM_CONFORMER_ID>  (1) 
000093BB00000001

>  <PUBCHEM_MMFF94_ENERGY>  (1) 
6.5036

>  <PUBCHEM_FEATURE_SELFOVERLAP>  (1) 
20.297

>  <PUBCHEM_SHAPE_FINGERPRINT>  (1) 
114248 4 17458346368275332833
11543360 7 17894917368399447724
122479 349 8862937286205683860
12251169 10 11527941261995624872
13675066 3 12031794664357535513
14123260 362 13767926771864212909
14252887 29 16630530618285948964
14576447 43 18410577280082548198
15239191 94 17988641912788480623
15242433 33 18408044004822543365
15477762 27 18410295813669495764
177051 138 18059856164307247248
17870717 6 18411428280285818383
1798214 20 18413103948685611718
18186145 218 15647057070532665412
18915474 69 18408888459817485550
19422 9 18342183232681033944
1986462 14 18408603656499726237
200 152 18343581832619256416
20281407 28 18343864424298098161
20281475 54 18341897359362374240
20432913 95 16343987996144851150
20645477 56 11674884389704219777
20645477 70 18411982442752099462
20671657 53 18343867731439123593
20871999 31 18040712572052011381
21065199 12 11167945766151710461
21119208 17 17749108885124534861
212847 35 11602818004163460910
22485316 2 18412823590363617580
22646028 28 18202565068331455350
23402539 116 16877938343864617252
23402655 69 18113339674294969292
23403322 49 18343019991163049343
23559900 14 18340479045339874216
2871803 45 18335137570601917774
42 15 12895358789246913212
4921388 177 16660655089208367003
548570 60 10953455236823071183
77779 3 18335422369761989853
93112 12 18186521024792550661
94968 8 18342739628677670976

>  <PUBCHEM_SHAPE_MULTIPOLES>  (1) 
245.83
9.87
1.3
0.81
0
0.15
0.05
2.81
2.28
0
-0.11
0
-0.06
0

>  <PUBCHEM_SHAPE_SELFOVERLAP>  (1) 
514.803

>  <PUBCHEM_SHAPE_VOLUME>  (1) 
141.3

>  <PUBCHEM_COORDINATE_TYPE>  (1) 
2
5
10

$$$$
