37813
     RDKit          3D

 24 27  0  0  0  0  0  0  0  0999 V2000
    3.7379   -1.1594   -0.0956 O   0  0  0  0  0  0  0  0  0  0  0  0
   -0.2198    0.6183   -0.3321 N   0  0  0  0  0  0  0  0  0  0  0  0
   -4.6578   -1.3341    0.5286 N   0  0  0  0  0  0  0  0  0  0  0  0
    1.0225    0.0829   -0.0523 C   0  0  0  0  0  0  0  0  0  0  0  0
    1.8638    1.1665    0.1922 C   0  0  0  0  0  0  0  0  0  0  0  0
   -0.2070    1.9890   -0.2678 C   0  0  0  0  0  0  0  0  0  0  0  0
    1.0903    2.3668    0.0579 C   0  0  0  0  0  0  0  0  0  0  0  0
   -1.3807   -0.0414   -0.9076 C   0  0  0  0  0  0  0  0  0  0  0  0
    3.3219    1.1303    0.5225 C   0  0  0  0  0  0  0  0  0  0  0  0
    1.2865   -1.3715   -0.0637 C   0  0  0  0  0  0  0  0  0  0  0  0
   -2.4436   -0.3569    0.1445 C   0  0  0  0  0  0  0  0  0  0  0  0
    3.7947   -0.2340    0.9921 C   0  0  0  0  0  0  0  0  0  0  0  0
   -3.6453   -1.0592   -0.4838 C   0  0  0  0  0  0  0  0  0  0  0  0
   -1.2388    2.9110   -0.4778 C   0  0  0  0  0  0  0  0  0  0  0  0
    2.5882   -1.9086   -0.0970 C   0  0  0  0  0  0  0  0  0  0  0  0
    1.3792    3.7430    0.1797 C   0  0  0  0  0  0  0  0  0  0  0  0
    0.2139   -2.2851   -0.0672 C   0  0  0  0  0  0  0  0  0  0  0  0
   -0.9299    4.2675   -0.3491 C   0  0  0  0  0  0  0  0  0  0  0  0
    0.3601    4.6800   -0.0255 C   0  0  0  0  0  0  0  0  0  0  0  0
    2.7980   -3.2920   -0.1935 C   0  0  0  0  0  0  0  0  0  0  0  0
    0.4268   -3.6657   -0.1353 C   0  0  0  0  0  0  0  0  0  0  0  0
    1.7191   -4.1690   -0.2072 C   0  0  0  0  0  0  0  0  0  0  0  0
   -5.8271   -1.9778   -0.0732 C   0  0  0  0  0  0  0  0  0  0  0  0
   -5.0527   -0.1006    1.2112 C   0  0  0  0  0  0  0  0  0  0  0  0
  1 12  1  0
  1 15  1  0
  2  4  1  0
  2  6  1  0
  2  8  1  0
  3 13  1  0
  3 23  1  0
  3 24  1  0
  4  5  2  0
  4 10  1  0
  5  7  1  0
  5  9  1  0
  6  7  2  0
  6 14  1  0
  7 16  1  0
  8 11  1  0
  9 12  1  0
 10 15  2  0
 10 17  1  0
 11 13  1  0
 14 18  2  0
 15 20  1  0
 16 19  2  0
 17 21  2  0
 18 19  1  0
 20 22  2  0
 21 22  1  0
M  END
>  <PUBCHEM_COMPOUND_CID>  (1) 
37813

>  <PUBCHEM_CONFORMER_RMSD>  (1) 
0.8

>  <PUBCHEM_CONFORMER_DIVERSEORDER>  (1) 
1
5
2
3
4

>  <PUBCHEM_MMFF94_PARTIAL_CHARGES>  (1) 
30
1 -0.36
10 0.05
12 0.28
13 0.27
14 -0.15
15 0.08
16 -0.15
17 -0.15
18 -0.15
19 -0.15
2 0.05
20 -0.15
21 -0.15
22 -0.15
23 0.27
24 0.27
3 -0.81
35 0.15
36 0.15
37 0.15
38 0.15
39 0.15
4 -0.2
40 0.15
41 0.15
42 0.15
5 -0.18
6 -0.15
8 0.26
9 0.18

>  <PUBCHEM_EFFECTIVE_ROTOR_COUNT>  (1) 
4.6

>  <PUBCHEM_PHARMACOPHORE_FEATURES>  (1) 
7
1 1 acceptor
1 2 cation
1 3 cation
5 2 4 5 6 7 rings
6 10 15 17 20 21 22 rings
6 6 7 14 16 18 19 rings
7 1 4 5 9 10 12 15 rings

>  <PUBCHEM_HEAVY_ATOM_COUNT>  (1) 
24

>  <PUBCHEM_ATOM_DEF_STEREO_COUNT>  (1) 
0

>  <PUBCHEM_ATOM_UDEF_STEREO_COUNT>  (1) 
0

>  <PUBCHEM_BOND_DEF_STEREO_COUNT>  (1) 
0

>  <PUBCHEM_BOND_UDEF_STEREO_COUNT>  (1) 
0

>  <PUBCHEM_ISOTOPIC_ATOM_COUNT>  (1) 
0

>  <PUBCHEM_COMPONENT_COUNT>  (1) 
1

>  <PUBCHEM_CACTVS_TAUTO_COUNT>  (1) 
1

>  <PUBCHEM_CONFORMER_ID>  (1) 
000093B500000001

>  <PUBCHEM_MMFF94_ENERGY>  (1) 
81.799

>  <PUBCHEM_FEATURE_SELFOVERLAP>  (1) 
35.649

>  <PUBCHEM_SHAPE_FINGERPRINT>  (1) 
10411042 1 18338797814635775975
10967382 1 18338791346762492732
1100329 8 17978507864887952632
11578080 2 16767836444350321001
12553582 1 18411409635653464158
12788726 201 17829056416080458163
13140716 1 17906160012680933784
13785724 45 18198360480771354183
138480 1 18410576193192045671
14178342 30 17976245856052750722
14223421 5 18123746461557257450
14790565 3 18266188411942852740
14955137 171 18337114574250350098
15420108 30 17545869890412433824
15927050 60 17619069872989425948
18785283 64 18119251907283843843
19591789 44 18411418432031485188
20028762 73 17984699176009170903
20739085 24 18263647427712293773
20775438 99 17617613763248849325
21796203 349 18190765174251666160
22849339 104 17117499670404166399
2334 1 18339349778531813348
23558518 356 17900547778883485058
23559900 14 16686521860772842042
2748010 2 18268129977947039644
3091708 16 9141139004273978597
3178227 256 18192162704859024081
3380486 145 18192728760517529257
3886686 26 16974455922282228056
469060 322 18339371760063788664
5309563 4 18410571764970383511
59554788 170 18342177726691502110
6443956 14 18408887330425787501
9709674 26 17621028764364989294

>  <PUBCHEM_SHAPE_MULTIPOLES>  (1) 
478.08
7.58
6.42
0.81
12.18
3.62
-0.09
-6.38
-2.04
-2.45
0.73
0.27
0.02
0.5

>  <PUBCHEM_SHAPE_SELFOVERLAP>  (1) 
1043.619

>  <PUBCHEM_SHAPE_VOLUME>  (1) 
261.3

>  <PUBCHEM_COORDINATE_TYPE>  (1) 
2
5
10

$$$$
