37814
     RDKit          3D

 25 28  0  0  0  0  0  0  0  0999 V2000
   -1.5562    3.6506   -0.0962 O   0  0  0  0  0  0  0  0  0  0  0  0
   -0.0975   -0.4352   -0.3371 N   0  0  0  0  0  0  0  0  0  0  0  0
    4.3820   -2.2868    0.5314 N   0  0  0  0  0  0  0  0  0  0  0  0
   -0.5724    0.8312   -0.0560 C   0  0  0  0  0  0  0  0  0  0  0  0
   -1.9374    0.6873    0.1841 C   0  0  0  0  0  0  0  0  0  0  0  0
   -1.0955   -1.3752   -0.2779 C   0  0  0  0  0  0  0  0  0  0  0  0
   -2.2673   -0.7016    0.0458 C   0  0  0  0  0  0  0  0  0  0  0  0
    1.1838   -0.8143   -0.9099 C   0  0  0  0  0  0  0  0  0  0  0  0
   -2.9219    1.7636    0.5138 C   0  0  0  0  0  0  0  0  0  0  0  0
    0.2942    2.0288   -0.0622 C   0  0  0  0  0  0  0  0  0  0  0  0
    2.1445   -1.3652    0.1434 C   0  0  0  0  0  0  0  0  0  0  0  0
   -2.2665    3.0484    0.9881 C   0  0  0  0  0  0  0  0  0  0  0  0
   -3.4606   -1.4463    0.1624 C   0  0  0  0  0  0  0  0  0  0  0  0
   -1.0455   -2.7576   -0.4908 C   0  0  0  0  0  0  0  0  0  0  0  0
   -0.2195    3.3399   -0.0942 C   0  0  0  0  0  0  0  0  0  0  0  0
    3.4852   -1.7442   -0.4822 C   0  0  0  0  0  0  0  0  0  0  0  0
   -3.4303   -2.8300   -0.0457 C   0  0  0  0  0  0  0  0  0  0  0  0
   -2.2385   -3.4743   -0.3672 C   0  0  0  0  0  0  0  0  0  0  0  0
    1.6961    1.8876   -0.0619 C   0  0  0  0  0  0  0  0  0  0  0  0
    0.6336    4.4494   -0.1857 C   0  0  0  0  0  0  0  0  0  0  0  0
   -4.6900   -3.6211    0.0771 C   0  0  0  0  0  0  0  0  0  0  0  0
    2.5449    2.9973   -0.1250 C   0  0  0  0  0  0  0  0  0  0  0  0
    2.0134    4.2783   -0.1957 C   0  0  0  0  0  0  0  0  0  0  0  0
    5.6576   -2.6831   -0.0678 C   0  0  0  0  0  0  0  0  0  0  0  0
    3.7637   -3.4275    1.2094 C   0  0  0  0  0  0  0  0  0  0  0  0
  1 12  1  0
  1 15  1  0
  2  4  1  0
  2  6  1  0
  2  8  1  0
  3 16  1  0
  3 24  1  0
  3 25  1  0
  4  5  2  0
  4 10  1  0
  5  7  1  0
  5  9  1  0
  6  7  2  0
  6 14  1  0
  7 13  1  0
  8 11  1  0
  9 12  1  0
 10 15  2  0
 10 19  1  0
 11 16  1  0
 13 17  2  0
 14 18  2  0
 15 20  1  0
 17 18  1  0
 17 21  1  0
 19 22  2  0
 20 23  2  0
 22 23  1  0
M  END
>  <PUBCHEM_COMPOUND_CID>  (1) 
37814

>  <PUBCHEM_CONFORMER_RMSD>  (1) 
0.8

>  <PUBCHEM_CONFORMER_DIVERSEORDER>  (1) 
1
2
5
3
4

>  <PUBCHEM_MMFF94_PARTIAL_CHARGES>  (1) 
30
1 -0.36
10 0.05
12 0.28
13 -0.15
14 -0.15
15 0.08
16 0.27
17 -0.14
18 -0.15
19 -0.15
2 0.05
20 -0.15
21 0.14
22 -0.15
23 -0.15
24 0.27
25 0.27
3 -0.81
34 0.15
35 0.15
38 0.15
39 0.15
4 -0.2
40 0.15
44 0.15
45 0.15
5 -0.18
6 -0.15
8 0.26
9 0.18

>  <PUBCHEM_EFFECTIVE_ROTOR_COUNT>  (1) 
4.6

>  <PUBCHEM_PHARMACOPHORE_FEATURES>  (1) 
7
1 1 acceptor
1 2 cation
1 3 cation
5 2 4 5 6 7 rings
6 10 15 19 20 22 23 rings
6 6 7 13 14 17 18 rings
7 1 4 5 9 10 12 15 rings

>  <PUBCHEM_HEAVY_ATOM_COUNT>  (1) 
25

>  <PUBCHEM_ATOM_DEF_STEREO_COUNT>  (1) 
0

>  <PUBCHEM_ATOM_UDEF_STEREO_COUNT>  (1) 
0

>  <PUBCHEM_BOND_DEF_STEREO_COUNT>  (1) 
0

>  <PUBCHEM_BOND_UDEF_STEREO_COUNT>  (1) 
0

>  <PUBCHEM_ISOTOPIC_ATOM_COUNT>  (1) 
0

>  <PUBCHEM_COMPONENT_COUNT>  (1) 
1

>  <PUBCHEM_CACTVS_TAUTO_COUNT>  (1) 
1

>  <PUBCHEM_CONFORMER_ID>  (1) 
000093B600000001

>  <PUBCHEM_MMFF94_ENERGY>  (1) 
84.4124

>  <PUBCHEM_FEATURE_SELFOVERLAP>  (1) 
35.648

>  <PUBCHEM_SHAPE_FINGERPRINT>  (1) 
10050765 1 18194402423943542519
10074138 170 17977075999879429634
10411042 1 18410856581136615127
10967382 1 17692538127407907597
1100329 8 18410858716320131145
11014199 57 18410855460576886258
11578080 2 17750216131988334028
12107183 9 18341345431165674379
12592029 89 17762904663861377979
12788726 201 18118705244000000398
13140716 1 18412834577359284017
13540713 5 17986119728511712203
13757389 114 18053957160123359462
138480 1 14880031823636174294
13911987 19 17757824529252024421
14508225 48 18340753884771291999
14790565 3 17836387955267266372
14844126 61 18118684310112888642
15042514 8 18266745670847867667
15326921 28 17038641593765682488
16728300 4 17539363964547427096
19591789 44 17691695480583420295
19930381 70 17977946018519099608
20028762 73 16470940142977990678
20101258 96 18409740538437770746
20600515 1 18128826239705899316
20905425 154 18199763590087582092
21421861 104 18192715763645362947
21650355 55 18266175041698428646
23366157 5 18190184683366879766
23559900 14 18338789126001150227
283562 15 17765447817304161593
3091708 16 9353102864213720162
3178227 256 18194136114379978737
43471831 8 17907016527632565988
4409770 3 17901380100247539524
484989 97 18334852793697482541
5385378 56 17907022029950090947
59755656 215 18049726518177992357
6138700 20 17907869749088743924
9709674 26 15891663588550340932

>  <PUBCHEM_SHAPE_MULTIPOLES>  (1) 
498.66
7.71
7.26
0.8
6.01
2.42
0.08
6.11
-0.01
-9.26
1.34
-0.11
0.24
-1.2

>  <PUBCHEM_SHAPE_SELFOVERLAP>  (1) 
1085.726

>  <PUBCHEM_SHAPE_VOLUME>  (1) 
274.1

>  <PUBCHEM_COORDINATE_TYPE>  (1) 
2
5
10

$$$$
