37829
     RDKit          3D

 12 11  0  0  0  0  0  0  0  0999 V2000
   -2.3999   -0.5985   -1.7613 Cl  0  0  0  0  0  0  0  0  0  0  0  0
   -3.3656   -0.1497    0.9533 Cl  0  0  0  0  0  0  0  0  0  0  0  0
   -0.8473   -1.5423    1.0225 O   0  0  0  0  0  0  0  0  0  0  0  0
    0.4394    0.1022    0.0222 N   0  0  0  0  0  0  0  0  0  0  0  0
    0.5720    1.3163   -0.7768 C   0  0  0  0  0  0  0  0  0  0  0  0
    1.6845   -0.4475    0.5429 C   0  0  0  0  0  0  0  0  0  0  0  0
   -0.7751   -0.5133    0.3425 C   0  0  0  0  0  0  0  0  0  0  0  0
    0.5297    2.5025    0.1280 C   0  0  0  0  0  0  0  0  0  0  0  0
    2.2162   -1.4523   -0.4241 C   0  0  0  0  0  0  0  0  0  0  0  0
   -2.0363    0.1402   -0.1924 C   0  0  0  0  0  0  0  0  0  0  0  0
    1.5345    3.3759    0.2597 C   0  0  0  0  0  0  0  0  0  0  0  0
    2.4477   -2.7336   -0.1165 C   0  0  0  0  0  0  0  0  0  0  0  0
  1 10  1  0
  2 10  1  0
  3  7  2  0
  4  5  1  0
  4  6  1  0
  4  7  1  0
  5  8  1  0
  6  9  1  0
  7 10  1  0
  8 11  2  0
  9 12  2  0
M  END
>  <PUBCHEM_COMPOUND_CID>  (1) 
37829

>  <PUBCHEM_CONFORMER_RMSD>  (1) 
0.6

>  <PUBCHEM_CONFORMER_DIVERSEORDER>  (1) 
1
124
88
25
50
81
52
75
118
51
61
39
109
14
80
114
73
65
41
84
99
117
79
72
101
108
125
116
69
28
85
112
77
27
82
68
55
12
26
90
123
42
105
119
59
64
111
89
34
96
49
106
97
121
11
104
113
70
66
38
74
47
86
10
45
33
100
91
15
92
13
93
17
22
57
62
30
36
44
48
54
5
24
67
21
95
102
20
35
16
63
40
53
9
19
98
87
103
31
3
71
122
115
94
7
8
18
43
107
56
2
29
110
4
76
78
46
83
6
58
37
23
60
32
120

>  <PUBCHEM_MMFF94_PARTIAL_CHARGES>  (1) 
18
1 -0.29
10 0.64
11 -0.3
12 -0.3
17 0.15
18 0.15
2 -0.29
20 0.15
21 0.15
22 0.15
23 0.15
3 -0.57
4 -0.66
5 0.44
6 0.44
7 0.57
8 -0.29
9 -0.29

>  <PUBCHEM_EFFECTIVE_ROTOR_COUNT>  (1) 
6

>  <PUBCHEM_PHARMACOPHORE_FEATURES>  (1) 
3
1 11 hydrophobe
1 12 hydrophobe
1 3 acceptor

>  <PUBCHEM_HEAVY_ATOM_COUNT>  (1) 
12

>  <PUBCHEM_ATOM_DEF_STEREO_COUNT>  (1) 
0

>  <PUBCHEM_ATOM_UDEF_STEREO_COUNT>  (1) 
0

>  <PUBCHEM_BOND_DEF_STEREO_COUNT>  (1) 
0

>  <PUBCHEM_BOND_UDEF_STEREO_COUNT>  (1) 
0

>  <PUBCHEM_ISOTOPIC_ATOM_COUNT>  (1) 
0

>  <PUBCHEM_COMPONENT_COUNT>  (1) 
1

>  <PUBCHEM_CACTVS_TAUTO_COUNT>  (1) 
1

>  <PUBCHEM_CONFORMER_ID>  (1) 
000093C500000001

>  <PUBCHEM_MMFF94_ENERGY>  (1) 
18.0499

>  <PUBCHEM_FEATURE_SELFOVERLAP>  (1) 
15.223

>  <PUBCHEM_SHAPE_FINGERPRINT>  (1) 
1 1 18122065565965876380
12759256 9 18338503253030182328
14648413 74 18263935491057294099
15852999 172 17611719577437900735
15906896 17 17330268368801980205
16945 1 18339072786952151581
17357990 137 17415313626680116977
19021347 4 17619352447261310984
20711978 78 18336553831872864487
20711985 344 17760918550708850898
20871998 184 17767406777435293342
21061003 4 18261402087697674859
21524375 3 17541088101294420288
23526113 38 18044350795529352613
23552423 10 18200024183133564583
23598291 2 17988648548850673837
2748010 2 18193542390125661140
305870 269 18123756623191702937
58734987 140 18340469098121451988
6992083 37 17916302741132470239
7364860 26 18339653359166957521
81228 2 17904473005161088712

>  <PUBCHEM_SHAPE_MULTIPOLES>  (1) 
239.84
4.1
3.32
1.16
2.29
2.58
0.33
-2.16
-0.13
-3.58
-0.14
0.93
-0.28
0.05

>  <PUBCHEM_SHAPE_SELFOVERLAP>  (1) 
436.985

>  <PUBCHEM_SHAPE_VOLUME>  (1) 
153.6

>  <PUBCHEM_COORDINATE_TYPE>  (1) 
2
5
10

$$$$
