37826
     RDKit          3D

  9  9  0  0  0  0  0  0  0  0999 V2000
   -0.9570    1.5224    0.3379 S   0  0  0  0  0  0  0  0  0  0  0  0
   -0.9295   -1.4416    0.6222 S   0  0  0  0  0  0  0  0  0  0  0  0
    1.2947    0.0104   -0.0671 C   0  0  0  0  0  0  0  0  0  0  0  0
    0.0525    0.0781    0.8114 C   0  0  0  0  0  0  0  0  0  0  0  0
    2.1455   -1.2003    0.3424 C   0  0  0  0  0  0  0  0  0  0  0  0
    0.8750   -0.1325   -1.5370 C   0  0  0  0  0  0  0  0  0  0  0  0
    2.1160    1.2957    0.1081 C   0  0  0  0  0  0  0  0  0  0  0  0
   -2.4833    0.6244   -0.0582 C   0  0  0  0  0  0  0  0  0  0  0  0
   -2.1139   -0.7565   -0.5596 C   0  0  0  0  0  0  0  0  0  0  0  0
  1  4  1  0
  1  8  1  0
  2  4  1  0
  2  9  1  0
  3  4  1  0
  3  5  1  0
  3  6  1  0
  3  7  1  0
  8  9  1  0
M  END
>  <PUBCHEM_COMPOUND_CID>  (1) 
37826

>  <PUBCHEM_CONFORMER_RMSD>  (1) 
0.4

>  <PUBCHEM_CONFORMER_DIVERSEORDER>  (1) 
1
3
2

>  <PUBCHEM_MMFF94_PARTIAL_CHARGES>  (1) 
5
1 -0.46
2 -0.46
4 0.46
8 0.23
9 0.23

>  <PUBCHEM_EFFECTIVE_ROTOR_COUNT>  (1) 
2

>  <PUBCHEM_PHARMACOPHORE_FEATURES>  (1) 
2
4 3 5 6 7 hydrophobe
5 1 2 4 8 9 rings

>  <PUBCHEM_HEAVY_ATOM_COUNT>  (1) 
9

>  <PUBCHEM_ATOM_DEF_STEREO_COUNT>  (1) 
0

>  <PUBCHEM_ATOM_UDEF_STEREO_COUNT>  (1) 
0

>  <PUBCHEM_BOND_DEF_STEREO_COUNT>  (1) 
0

>  <PUBCHEM_BOND_UDEF_STEREO_COUNT>  (1) 
0

>  <PUBCHEM_ISOTOPIC_ATOM_COUNT>  (1) 
0

>  <PUBCHEM_COMPONENT_COUNT>  (1) 
1

>  <PUBCHEM_CACTVS_TAUTO_COUNT>  (1) 
1

>  <PUBCHEM_CONFORMER_ID>  (1) 
000093C200000001

>  <PUBCHEM_MMFF94_ENERGY>  (1) 
28.5849

>  <PUBCHEM_FEATURE_SELFOVERLAP>  (1) 
10.148

>  <PUBCHEM_SHAPE_FINGERPRINT>  (1) 
12423570 1 11678871081279791960
12897270 3 18271809080801960132
137420 1 13774327024522355995
15310529 11 18271803570548706535
15775835 57 18189624851728773565
16945 1 18268988683158023559
18185500 45 18048311146249943451
20653085 51 16950285083252944805
21040471 1 18187372029585940043
23235687 12 17846500313867188461
23552423 10 18335136483811700691
241688 4 17048819788986854962
24536 1 17095822012751299824
29004967 10 16056875810491727211
369184 2 18410292518986221289
5084963 1 18200585891561700089

>  <PUBCHEM_SHAPE_MULTIPOLES>  (1) 
192.91
3.22
1.63
1.07
0.24
0.08
0.31
0.09
0.16
0.03
-0.29
-0.12
-0.1
-0.09

>  <PUBCHEM_SHAPE_SELFOVERLAP>  (1) 
348.844

>  <PUBCHEM_SHAPE_VOLUME>  (1) 
122.1

>  <PUBCHEM_COORDINATE_TYPE>  (1) 
2
5
10

$$$$
