37822
     RDKit          3D

 24 24  0  0  1  0  0  0  0  0999 V2000
   -2.3574    2.6020   -0.7393 I   0  0  0  0  0  0  0  0  0  0  0  0
    0.6515   -2.6035    0.1795 I   0  0  0  0  0  0  0  0  0  0  0  0
   -5.2953   -2.7541   -0.2535 I   0  0  0  0  0  0  0  0  0  0  0  0
    2.7605    0.8212    0.2577 O   0  0  0  0  0  0  0  0  0  0  0  0
    0.0306    0.5317   -0.2812 O   0  0  0  0  0  0  0  0  0  0  0  0
    4.8437   -1.9119    0.0801 O   0  0  0  0  0  0  0  0  0  0  0  0
    5.6820   -0.5622    1.6985 O   0  0  0  0  0  0  0  0  0  0  0  0
   -5.4321    1.0135    1.5553 O   0  0  0  0  0  0  0  0  0  0  0  0
   -4.7795    0.4485   -0.6370 N   0  0  0  0  0  0  0  0  0  0  0  0
    5.0469    0.4146   -0.4473 C   0  0  0  0  0  0  0  0  0  0  0  0
    6.3992    1.0555   -0.7980 C   0  0  0  0  0  0  0  0  0  0  0  0
    4.0247    1.4434    0.0493 C   0  0  0  0  0  0  0  0  0  0  0  0
    7.4202    0.1007   -1.4040 C   0  0  0  0  0  0  0  0  0  0  0  0
    5.2359   -0.7057    0.5678 C   0  0  0  0  0  0  0  0  0  0  0  0
    1.8083    1.7406    0.7721 C   0  0  0  0  0  0  0  0  0  0  0  0
    0.4869    1.0240    0.9729 C   0  0  0  0  0  0  0  0  0  0  0  0
   -1.1492   -0.1646   -0.2786 C   0  0  0  0  0  0  0  0  0  0  0  0
   -2.3613    0.5014   -0.4596 C   0  0  0  0  0  0  0  0  0  0  0  0
   -3.5581   -0.2149   -0.4560 C   0  0  0  0  0  0  0  0  0  0  0  0
   -1.1339   -1.5472   -0.0939 C   0  0  0  0  0  0  0  0  0  0  0  0
   -3.5428   -1.5975   -0.2712 C   0  0  0  0  0  0  0  0  0  0  0  0
   -2.3307   -2.2636   -0.0903 C   0  0  0  0  0  0  0  0  0  0  0  0
   -5.6107    0.9995    0.3418 C   0  0  0  0  0  0  0  0  0  0  0  0
   -6.8397    1.6286   -0.2651 C   0  0  0  0  0  0  0  0  0  0  0  0
  1 18  1  0
  2 20  1  0
  3 21  1  0
  4 12  1  0
  4 15  1  0
  5 16  1  0
  5 17  1  0
  6 14  1  0
  7 14  2  0
  8 23  2  0
  9 19  1  0
  9 23  1  0
 10 11  1  0
 10 12  1  0
 10 14  1  0
 11 13  1  0
 15 16  1  0
 17 18  2  0
 17 20  1  0
 18 19  1  0
 19 21  2  0
 20 22  2  0
 21 22  1  0
 23 24  1  0
M  END
>  <PUBCHEM_COMPOUND_CID>  (1) 
37822

>  <PUBCHEM_CONFORMER_RMSD>  (1) 
1

>  <PUBCHEM_CONFORMER_DIVERSEORDER>  (1) 
1
85
21
95
71
23
67
76
83
20
97
93
88
57
49
87
4
77
45
66
82
72
26
27
63
44
25
73
84
35
94
47
53
60
58
17
90
13
80
34
14
89
75
81
3
56
69
50
74
37
54
33
46
96
40
12
19
86
70
55
39
62
59
2
29
79
5
32
64
31
22
61
65
15
92
48
30
28
18
6
42
36
68
7
8
78
52
9
38
16
24
41
43
51
91
11
10

>  <PUBCHEM_MMFF94_PARTIAL_CHARGES>  (1) 
25
1 -0.08
10 0.06
12 0.28
14 0.66
15 0.28
16 0.28
17 0.08
18 0.08
19 0.12
2 -0.08
20 0.08
21 0.08
22 -0.15
23 0.57
24 0.06
3 -0.08
37 0.5
38 0.15
39 0.37
4 -0.56
5 -0.36
6 -0.65
7 -0.57
8 -0.57
9 -0.55

>  <PUBCHEM_EFFECTIVE_ROTOR_COUNT>  (1) 
10

>  <PUBCHEM_PHARMACOPHORE_FEATURES>  (1) 
12
1 1 hydrophobe
1 13 hydrophobe
1 2 hydrophobe
1 3 hydrophobe
1 4 acceptor
1 5 acceptor
1 6 acceptor
1 7 acceptor
1 8 acceptor
1 9 donor
3 6 7 14 anion
6 17 18 19 20 21 22 rings

>  <PUBCHEM_HEAVY_ATOM_COUNT>  (1) 
24

>  <PUBCHEM_ATOM_DEF_STEREO_COUNT>  (1) 
0

>  <PUBCHEM_ATOM_UDEF_STEREO_COUNT>  (1) 
1

>  <PUBCHEM_BOND_DEF_STEREO_COUNT>  (1) 
0

>  <PUBCHEM_BOND_UDEF_STEREO_COUNT>  (1) 
0

>  <PUBCHEM_ISOTOPIC_ATOM_COUNT>  (1) 
0

>  <PUBCHEM_COMPONENT_COUNT>  (1) 
1

>  <PUBCHEM_CACTVS_TAUTO_COUNT>  (1) 
2

>  <PUBCHEM_CONFORMER_ID>  (1) 
000093BE00000001

>  <PUBCHEM_MMFF94_ENERGY>  (1) 
85.349

>  <PUBCHEM_FEATURE_SELFOVERLAP>  (1) 
60.961

>  <PUBCHEM_SHAPE_FINGERPRINT>  (1) 
10 15 18113625569103997547
10595046 47 18187364363813485708
10835480 77 18130503158585443288
11524674 6 17275385425863748215
11578080 2 17242431851520498175
11796584 16 18272092729680858886
12236239 1 17603864507218220524
12596602 18 13973671854514747412
12788726 201 18059863826972217088
13533116 47 17774724139509804558
13914758 101 14836134216764891347
14251758 9 17917711309568630313
14251764 18 18335419092701949415
14617045 38 18409452475387006918
14790565 3 18410855456049706347
14955137 171 17821738251575322485
15183329 4 18413107255736764944
15196674 1 18410852195985016147
1577012 14 18259981587520723838
21236236 1 18411980304248834503
21267235 1 18265054807354667799
21279426 13 18344146998765148959
220451 1 18260267456164283360
2215653 11 17989204850242128548
2297311 6 18337111266887973765
23522609 53 18189640335028451348
23559900 14 18271801393438605288
3004659 81 18409166641250696756
335352 9 18411697695321708261
350125 39 18409446964453660933
3680242 22 18335414617879284258
5104073 3 18340762753546234745
5265222 85 18267875063311617588
559249 180 18342455962977820335
59755656 215 18343022146904407213
59755656 520 18411411814056237207
7226269 152 18060707177902178945
9996256 80 18411418453675367051

>  <PUBCHEM_SHAPE_MULTIPOLES>  (1) 
495.39
18.18
3.11
1.08
18.34
1.03
-0.16
-2.04
2.01
-3.55
0.17
0.74
-0.19
-0.69

>  <PUBCHEM_SHAPE_SELFOVERLAP>  (1) 
939.279

>  <PUBCHEM_SHAPE_VOLUME>  (1) 
313

>  <PUBCHEM_COORDINATE_TYPE>  (1) 
2
5
10

$$$$
