37834
     RDKit          3D

 25 28  0  0  1  0  0  0  0  0999 V2000
   -0.5155   -2.8970   -0.6594 O   0  0  0  0  0  0  0  0  0  0  0  0
    1.9741   -3.8896   -0.4985 O   0  0  0  0  0  0  0  0  0  0  0  0
   -4.6522   -0.9566    0.1520 O   0  0  0  0  0  0  0  0  0  0  0  0
   -4.8718    1.7728   -0.3017 O   0  0  0  0  0  0  0  0  0  0  0  0
    2.4339    2.5618    0.1874 N   0  0  0  0  0  0  0  0  0  0  0  0
    1.1607    1.6729    0.3329 C   0  0  0  0  0  0  0  0  0  0  0  0
    3.5760    1.8723    0.9525 C   0  0  0  0  0  0  0  0  0  0  0  0
    1.3849    0.1851    0.0927 C   0  0  0  0  0  0  0  0  0  0  0  0
    0.0049    2.1914   -0.5452 C   0  0  0  0  0  0  0  0  0  0  0  0
    3.8917    0.5035    0.3652 C   0  0  0  0  0  0  0  0  0  0  0  0
    2.6802   -0.3617    0.1528 C   0  0  0  0  0  0  0  0  0  0  0  0
    2.2099    3.9271    0.8530 C   0  0  0  0  0  0  0  0  0  0  0  0
    2.8357    2.8083   -1.2679 C   0  0  0  0  0  0  0  0  0  0  0  0
    0.2560   -0.6482   -0.1235 C   0  0  0  0  0  0  0  0  0  0  0  0
   -1.2339    1.3456   -0.3477 C   0  0  0  0  0  0  0  0  0  0  0  0
   -1.1003   -0.0478   -0.1525 C   0  0  0  0  0  0  0  0  0  0  0  0
    2.8593   -1.7346   -0.0503 C   0  0  0  0  0  0  0  0  0  0  0  0
    0.4789   -2.0220   -0.3221 C   0  0  0  0  0  0  0  0  0  0  0  0
    1.7656   -2.5590   -0.2863 C   0  0  0  0  0  0  0  0  0  0  0  0
   -2.5016    1.9438   -0.4107 C   0  0  0  0  0  0  0  0  0  0  0  0
   -2.2778   -0.7977    0.0185 C   0  0  0  0  0  0  0  0  0  0  0  0
   -3.6496    1.1750   -0.2486 C   0  0  0  0  0  0  0  0  0  0  0  0
   -3.5375   -0.1932   -0.0291 C   0  0  0  0  0  0  0  0  0  0  0  0
    1.9473   -4.7392    0.6461 C   0  0  0  0  0  0  0  0  0  0  0  0
   -5.1191   -1.1131    1.4902 C   0  0  0  0  0  0  0  0  0  0  0  0
  1 18  1  0
  2 19  1  0
  2 24  1  0
  3 23  1  0
  3 25  1  0
  4 22  1  0
  5  6  1  0
  5  7  1  0
  5 12  1  0
  5 13  1  0
  6  8  1  0
  6  9  1  0
  7 10  1  0
  8 11  2  0
  8 14  1  0
  9 15  1  0
 10 11  1  0
 11 17  1  0
 14 16  1  0
 14 18  2  0
 15 16  2  0
 15 20  1  0
 16 21  1  0
 17 19  2  0
 18 19  1  0
 20 22  2  0
 21 23  2  0
 22 23  1  0
M  CHG  1   5   1
M  END
>  <PUBCHEM_COMPOUND_CID>  (1) 
37834

>  <PUBCHEM_CONFORMER_RMSD>  (1) 
0.6

>  <PUBCHEM_CONFORMER_DIVERSEORDER>  (1) 
2
4
1
6
3
5

>  <PUBCHEM_MMFF94_PARTIAL_CHARGES>  (1) 
28
1 -0.53
10 0.14
11 -0.14
12 0.5
13 0.5
15 -0.14
17 -0.15
18 0.08
19 0.08
2 -0.36
20 -0.15
21 -0.15
22 0.08
23 0.08
24 0.28
25 0.28
3 -0.36
39 0.15
4 -0.53
40 0.15
41 0.15
42 0.45
43 0.45
5 -1.01
6 0.65
7 0.5
8 -0.14
9 0.14

>  <PUBCHEM_EFFECTIVE_ROTOR_COUNT>  (1) 
2.8

>  <PUBCHEM_PHARMACOPHORE_FEATURES>  (1) 
9
1 1 donor
1 2 acceptor
1 3 acceptor
1 4 donor
1 5 cation
6 15 16 20 21 22 23 rings
6 5 6 7 8 10 11 rings
6 6 8 9 14 15 16 rings
6 8 11 14 17 18 19 rings

>  <PUBCHEM_HEAVY_ATOM_COUNT>  (1) 
25

>  <PUBCHEM_ATOM_DEF_STEREO_COUNT>  (1) 
0

>  <PUBCHEM_ATOM_UDEF_STEREO_COUNT>  (1) 
1

>  <PUBCHEM_BOND_DEF_STEREO_COUNT>  (1) 
0

>  <PUBCHEM_BOND_UDEF_STEREO_COUNT>  (1) 
0

>  <PUBCHEM_ISOTOPIC_ATOM_COUNT>  (1) 
0

>  <PUBCHEM_COMPONENT_COUNT>  (1) 
1

>  <PUBCHEM_CACTVS_TAUTO_COUNT>  (1) 
26

>  <PUBCHEM_CONFORMER_ID>  (1) 
000093CA00000002

>  <PUBCHEM_MMFF94_ENERGY>  (1) 
109.9133

>  <PUBCHEM_FEATURE_SELFOVERLAP>  (1) 
45.753

>  <PUBCHEM_SHAPE_FINGERPRINT>  (1) 
10074138 170 17403424847776980200
10165383 225 18124045781907435488
10411042 1 17763740992667978199
10493431 412 18052536861419909888
10967382 1 18339919321054182276
1100329 8 18268425905673265714
11578080 2 16662595567932518854
11680986 33 18337672997519095189
12035758 1 18342164601714161288
12107183 9 17766848221835231705
12173636 292 18051686943168382964
12403259 226 18118682111031246591
12553582 1 17548703984500783430
12592029 89 18411705425645246755
12788726 201 17254563694822255578
12839892 36 18265881617969401755
13140716 1 18194960962010099794
138480 1 18195524788315931014
14223421 5 18336543824625581469
14790565 3 18121509217230041645
14863182 85 18117292551777454301
14955137 171 18339355271968987082
15196674 1 18410008832106920165
15475509 84 17912947006144422097
15927050 60 18340483491380468910
16728300 4 17608053557191041074
16945 1 18339912797046254540
17492 89 18410855417864966715
19591789 44 18267304411869923926
20028762 73 18056755653112878807
20739085 24 18261968452029160213
21065198 57 18337955567902188441
21197605 99 17977676625755924331
221490 88 18337395911608798203
2334 1 17906165505811944054
23366157 5 18187931625185831431
23557571 272 17458057154337423605
23558518 356 17977090586025936642
23559900 14 18337667508107629801
2748010 2 18051680062994446630
3091708 16 9474165695933430050
3178227 256 18337966665791798146
335352 9 18339357440252270916
350125 39 18266180711261026560
3886686 26 15955520312373743786
4015057 19 18194385720540824357
458136 41 18339375161408646593
49207404 50 18335987570489186601
5104073 3 18409448047154516593
5265222 85 18265621060370347468
58807428 26 18268698584298491634
6438718 38 17340412918441528846
6442390 28 18123195867992508353
6443956 14 18195526995723808748
7364860 26 18340483370350575732
7808743 9 17545601614134298824
9709674 26 18336543794945691935
9777508 108 17621872523659742472

>  <PUBCHEM_SHAPE_MULTIPOLES>  (1) 
486.03
7.91
5.04
0.92
9.8
3.69
0.11
-1.85
1.77
-5.1
0.15
0.03
-0.18
0.8

>  <PUBCHEM_SHAPE_SELFOVERLAP>  (1) 
1063.984

>  <PUBCHEM_SHAPE_VOLUME>  (1) 
265.5

>  <PUBCHEM_COORDINATE_TYPE>  (1) 
2
5
10

$$$$
