37836
     RDKit          3D

 15 17  0  0  1  0  0  0  0  0999 V2000
    2.3982   -1.3114    0.0336 O   0  0  0  0  0  0  0  0  0  0  0  0
   -0.1002   -2.6333   -0.1842 O   0  0  0  0  0  0  0  0  0  0  0  0
    1.1409   -0.6958    0.0166 N   0  0  0  0  0  0  0  0  0  0  0  0
    0.2287    1.4651    0.2261 N   0  0  0  0  0  0  0  0  0  0  0  0
    2.6787    1.0285    0.2655 C   0  0  0  0  0  0  0  0  0  0  0  0
    1.2400    0.6644    0.1782 C   0  0  0  0  0  0  0  0  0  0  0  0
    3.2572   -0.3334    0.6435 C   0  0  0  0  0  0  0  0  0  0  0  0
    3.1754    1.5157   -1.0891 C   0  0  0  0  0  0  0  0  0  0  0  0
   -0.0134   -1.4174   -0.0819 C   0  0  0  0  0  0  0  0  0  0  0  0
   -1.2164   -0.5407   -0.0414 C   0  0  0  0  0  0  0  0  0  0  0  0
   -1.0448    0.8545    0.1094 C   0  0  0  0  0  0  0  0  0  0  0  0
   -2.4922   -1.1006   -0.1502 C   0  0  0  0  0  0  0  0  0  0  0  0
   -2.1829    1.6669    0.1467 C   0  0  0  0  0  0  0  0  0  0  0  0
   -3.6114   -0.2705   -0.1104 C   0  0  0  0  0  0  0  0  0  0  0  0
   -3.4579    1.1079    0.0374 C   0  0  0  0  0  0  0  0  0  0  0  0
  1  3  1  0
  1  7  1  0
  2  9  2  0
  3  6  1  0
  3  9  1  0
  4  6  2  0
  4 11  1  0
  5  6  1  0
  5  7  1  0
  5  8  1  0
  9 10  1  0
 10 11  2  0
 10 12  1  0
 11 13  1  0
 12 14  2  0
 13 15  2  0
 14 15  1  0
M  END
>  <PUBCHEM_COMPOUND_CID>  (1) 
37836

>  <PUBCHEM_CONFORMER_RMSD>  (1) 
0.4

>  <PUBCHEM_CONFORMER_DIVERSEORDER>  (1) 
1
2

>  <PUBCHEM_MMFF94_PARTIAL_CHARGES>  (1) 
18
1 -0.32
10 0.09
11 0.18
12 -0.15
13 -0.15
14 -0.15
15 -0.15
2 -0.57
22 0.15
23 0.15
24 0.15
25 0.15
3 -0.08
4 -0.63
5 0.06
6 0.45
7 0.28
9 0.54

>  <PUBCHEM_EFFECTIVE_ROTOR_COUNT>  (1) 
0.6

>  <PUBCHEM_PHARMACOPHORE_FEATURES>  (1) 
4
1 2 acceptor
5 1 3 5 6 7 rings
6 10 11 12 13 14 15 rings
6 3 4 6 9 10 11 rings

>  <PUBCHEM_HEAVY_ATOM_COUNT>  (1) 
15

>  <PUBCHEM_ATOM_DEF_STEREO_COUNT>  (1) 
0

>  <PUBCHEM_ATOM_UDEF_STEREO_COUNT>  (1) 
1

>  <PUBCHEM_BOND_DEF_STEREO_COUNT>  (1) 
0

>  <PUBCHEM_BOND_UDEF_STEREO_COUNT>  (1) 
0

>  <PUBCHEM_ISOTOPIC_ATOM_COUNT>  (1) 
0

>  <PUBCHEM_COMPONENT_COUNT>  (1) 
1

>  <PUBCHEM_CACTVS_TAUTO_COUNT>  (1) 
3

>  <PUBCHEM_CONFORMER_ID>  (1) 
000093CC00000001

>  <PUBCHEM_MMFF94_ENERGY>  (1) 
40.2979

>  <PUBCHEM_FEATURE_SELFOVERLAP>  (1) 
20.451

>  <PUBCHEM_SHAPE_FINGERPRINT>  (1) 
10608611 8 18410851027949187921
10967382 1 18411698777141406227
11132069 177 18412536592074717257
11471102 20 18339918226043328093
12491281 212 18341061752137309641
13140716 1 18339642230927766929
13380535 76 18410570652705488755
13538477 17 18189893295985509770
14144814 61 18411417332108316393
14325111 11 18411135831425118345
14614273 12 18262510391213235109
15196674 1 18411417306586243921
15309172 13 18412553127856971571
15442244 35 18194680363243413394
15536298 74 18272087163192220346
15669948 3 18268989967527383558
15775835 57 18410860974919164245
16945 1 18196085762230883881
1813 80 17241599513087227018
18186145 218 18410577245052883996
193761 8 17547287169590076993
19422 9 18187364350110600832
19591789 44 15668177963342594841
20510252 161 18201721786000131937
20645476 183 18042698362776010278
21267235 1 18410863152467700291
21501502 16 18410573963908781737
21524375 3 18411133632328094179
2334 1 18411699897959039425
23402539 116 18272075124066470124
23402655 69 18270948048219913957
23463225 33 18336261249941875842
23552423 10 18336828576451335795
23559900 14 18200883993523209364
2748010 2 18411702062638380943
335352 9 17979353058168376789
474 4 17024880496568702924
5104073 3 18410292501912016929
528886 8 18412255130056664123
537710 114 18411140268321611317
53812653 166 18201711881694667024
53812653 8 18337678623472533332
54173680 148 18122061167708777899
57096353 35 18339920527897775429
7364860 26 18055914286199207751

>  <PUBCHEM_SHAPE_MULTIPOLES>  (1) 
286.99
5.83
2.05
0.72
0.21
0.61
-0.07
-1.48
-0.21
0.02
-0.16
-0.35
-0.13
-0.47

>  <PUBCHEM_SHAPE_SELFOVERLAP>  (1) 
635.204

>  <PUBCHEM_SHAPE_VOLUME>  (1) 
155.6

>  <PUBCHEM_COORDINATE_TYPE>  (1) 
2
5
10

$$$$
