37849
     RDKit          3D

 16 17  0  0  0  0  0  0  0  0999 V2000
   -5.7582    0.0178    0.0216 O   0  0  0  0  0  0  0  0  0  0  0  0
   -3.5652    0.2844    0.7875 N   0  0  0  0  0  0  0  0  0  0  0  0
   -0.1097    0.1179   -0.5597 C   0  0  0  0  0  0  0  0  0  0  0  0
    2.2895    0.3919    0.1727 C   0  0  0  0  0  0  0  0  0  0  0  0
    1.0642    1.0853   -0.4200 C   0  0  0  0  0  0  0  0  0  0  0  0
   -0.5282   -0.4270    0.8117 C   0  0  0  0  0  0  0  0  0  0  0  0
   -1.2908    0.7985   -1.2627 C   0  0  0  0  0  0  0  0  0  0  0  0
    2.7275   -0.7838   -0.7112 C   0  0  0  0  0  0  0  0  0  0  0  0
    3.4389    1.3910    0.3620 C   0  0  0  0  0  0  0  0  0  0  0  0
   -2.9193   -0.7193   -0.0274 C   0  0  0  0  0  0  0  0  0  0  0  0
   -1.7377   -1.3575    0.7084 C   0  0  0  0  0  0  0  0  0  0  0  0
   -2.4946   -0.1373   -1.3780 C   0  0  0  0  0  0  0  0  0  0  0  0
    3.9835   -1.4607   -0.1672 C   0  0  0  0  0  0  0  0  0  0  0  0
    4.6938    0.7104    0.9040 C   0  0  0  0  0  0  0  0  0  0  0  0
    5.1209   -0.4630    0.0278 C   0  0  0  0  0  0  0  0  0  0  0  0
   -4.9146    0.5513    0.7306 C   0  0  0  0  0  0  0  0  0  0  0  0
  1 16  2  0
  2 10  1  0
  2 16  1  0
  3  5  1  0
  3  6  1  0
  3  7  1  0
  4  5  1  0
  4  8  1  0
  4  9  1  0
  6 11  1  0
  7 12  1  0
  8 13  1  0
  9 14  1  0
 10 11  1  0
 10 12  1  0
 13 15  1  0
 14 15  1  0
M  END
>  <PUBCHEM_COMPOUND_CID>  (1) 
37849

>  <PUBCHEM_CONFORMER_RMSD>  (1) 
0.8

>  <PUBCHEM_CONFORMER_DIVERSEORDER>  (1) 
1
6
10
2
11
4
3
8
5
15
7
12
14
16
9
18
17
13

>  <PUBCHEM_MMFF94_PARTIAL_CHARGES>  (1) 
6
1 -0.57
10 0.3
16 0.57
2 -0.73
40 0.37
41 0.06

>  <PUBCHEM_EFFECTIVE_ROTOR_COUNT>  (1) 
6.4

>  <PUBCHEM_PHARMACOPHORE_FEATURES>  (1) 
4
1 1 acceptor
1 2 donor
6 3 6 7 10 11 12 rings
6 4 8 9 13 14 15 rings

>  <PUBCHEM_HEAVY_ATOM_COUNT>  (1) 
16

>  <PUBCHEM_ATOM_DEF_STEREO_COUNT>  (1) 
0

>  <PUBCHEM_ATOM_UDEF_STEREO_COUNT>  (1) 
0

>  <PUBCHEM_BOND_DEF_STEREO_COUNT>  (1) 
0

>  <PUBCHEM_BOND_UDEF_STEREO_COUNT>  (1) 
0

>  <PUBCHEM_ISOTOPIC_ATOM_COUNT>  (1) 
0

>  <PUBCHEM_COMPONENT_COUNT>  (1) 
1

>  <PUBCHEM_CACTVS_TAUTO_COUNT>  (1) 
2

>  <PUBCHEM_CONFORMER_ID>  (1) 
000093D900000001

>  <PUBCHEM_MMFF94_ENERGY>  (1) 
15.5079

>  <PUBCHEM_FEATURE_SELFOVERLAP>  (1) 
20.297

>  <PUBCHEM_SHAPE_FINGERPRINT>  (1) 
11089746 13 16487248872571492576
11401426 45 13398628342750598689
117890 112 17203613657556766073
12107183 9 17268929978069239195
12186901 62 16081081554961947111
12236239 1 16917064473454556806
12670546 56 18131072597690447881
13533116 47 17988365871336224642
13544592 145 18335709308238054126
13583140 156 17417811807076550099
13675066 3 18334862731534224393
13760787 19 17132110273150443518
13862211 1 17022901281133178859
14252887 29 18333731304220613232
14386348 63 18187366523796776982
15527383 91 18343302561477863112
15885798 251 18187086147946916700
17834072 33 17846494863669812471
17834076 25 14908180845804059785
18186145 218 18260541238643570402
19141452 34 18334859450200640503
200 152 17918269861691739918
20279233 1 18260824912828328374
20645477 56 18114175358665817709
20645477 70 18130791122983035414
23048698 100 17060344024166782122
23402539 116 17703787008039669613
23503953 91 18335418023371137376
23536379 177 17917712388169832619
23557571 272 17241044306083777118
23559900 14 18114466751413065820
265663 24 17846781797913862183
26918003 58 18343865528447532674
2838139 119 17703507676294429457
300161 21 17203602701195264384
328317 168 12679459772659276965
351380 180 17989489615158792673
42 15 18411422808128107213
465052 167 15430333446505483521
474 4 16771239661294747216
5104073 3 18263360446660622992
5374978 207 17632294562624757192
542803 24 17846498140671739512
69090 78 18409726287535783183
8272917 22 17775291530190215918

>  <PUBCHEM_SHAPE_MULTIPOLES>  (1) 
318.42
11.37
1.27
1.1
2.61
0.1
-0.16
-0.06
2.37
-0.86
0.04
0.44
-0.07
0.47

>  <PUBCHEM_SHAPE_SELFOVERLAP>  (1) 
633.65

>  <PUBCHEM_SHAPE_VOLUME>  (1) 
185.2

>  <PUBCHEM_COORDINATE_TYPE>  (1) 
2
5
10

$$$$
