3784
     RDKit          3D

 27 29  0  0  1  0  0  0  0  0999 V2000
    2.6726    0.6347   -0.0227 O   0  0  0  0  0  0  0  0  0  0  0  0
   -3.2526   -0.8355    0.5286 O   0  0  0  0  0  0  0  0  0  0  0  0
    2.3398    2.2589    1.5929 O   0  0  0  0  0  0  0  0  0  0  0  0
   -0.1394   -1.8581   -2.8014 O   0  0  0  0  0  0  0  0  0  0  0  0
   -3.4538    0.8381    2.1155 O   0  0  0  0  0  0  0  0  0  0  0  0
   -1.0744    2.4888   -1.2918 N   0  0  0  0  0  0  0  0  0  0  0  0
   -0.3127   -0.8225   -1.8992 N   0  0  0  0  0  0  0  0  0  0  0  0
    0.2104   -3.0392   -2.1698 N   0  0  0  0  0  0  0  0  0  0  0  0
   -0.4405    0.7015    0.8132 C   0  0  0  0  0  0  0  0  0  0  0  0
    0.5968    1.5991    0.1287 C   0  0  0  0  0  0  0  0  0  0  0  0
   -1.8738    0.9895    0.3553 C   0  0  0  0  0  0  0  0  0  0  0  0
   -0.1063   -0.7427    0.5719 C   0  0  0  0  0  0  0  0  0  0  0  0
    0.2484    2.4270   -0.8826 C   0  0  0  0  0  0  0  0  0  0  0  0
   -2.1249    1.8304   -0.6733 C   0  0  0  0  0  0  0  0  0  0  0  0
   -0.0727   -1.3457   -0.6904 C   0  0  0  0  0  0  0  0  0  0  0  0
    1.9643    1.5576    0.6717 C   0  0  0  0  0  0  0  0  0  0  0  0
    0.2005   -1.5862    1.6463 C   0  0  0  0  0  0  0  0  0  0  0  0
    1.1913    3.3182   -1.6450 C   0  0  0  0  0  0  0  0  0  0  0  0
   -2.9526    0.3450    1.1219 C   0  0  0  0  0  0  0  0  0  0  0  0
   -3.4867    2.1413   -1.2334 C   0  0  0  0  0  0  0  0  0  0  0  0
    0.2597   -2.7549   -0.8623 C   0  0  0  0  0  0  0  0  0  0  0  0
    0.5245   -2.9583    1.4789 C   0  0  0  0  0  0  0  0  0  0  0  0
    0.5668   -3.5939    0.2245 C   0  0  0  0  0  0  0  0  0  0  0  0
    4.0333    0.4762    0.3918 C   0  0  0  0  0  0  0  0  0  0  0  0
    4.0664    0.0785    1.8596 C   0  0  0  0  0  0  0  0  0  0  0  0
    4.7085   -0.5615   -0.4920 C   0  0  0  0  0  0  0  0  0  0  0  0
   -4.2931   -1.5863    1.1629 C   0  0  0  0  0  0  0  0  0  0  0  0
  1 16  1  0
  1 24  1  0
  2 19  1  0
  2 27  1  0
  3 16  2  0
  4  7  1  0
  4  8  1  0
  5 19  2  0
  6 13  1  0
  6 14  1  0
  7 15  2  0
  8 21  2  0
  9 10  1  0
  9 11  1  0
  9 12  1  0
 10 13  2  0
 10 16  1  0
 11 14  2  0
 11 19  1  0
 12 15  1  0
 12 17  2  0
 13 18  1  0
 14 20  1  0
 15 21  1  0
 17 22  1  0
 21 23  1  0
 22 23  2  0
 24 25  1  0
 24 26  1  0
M  END
>  <PUBCHEM_COMPOUND_CID>  (1) 
3784

>  <PUBCHEM_CONFORMER_RMSD>  (1) 
0.8

>  <PUBCHEM_CONFORMER_DIVERSEORDER>  (1) 
4
61
43
55
25
21
29
54
49
36
58
40
22
34
27
28
30
10
20
62
42
57
23
33
52
35
19
31
45
44
56
2
24
53
51
50
41
39
60
38
18
26
32
15
17
14
12
5
59
48
37
13
6
9
47
46
7
11
16
1
8
3

>  <PUBCHEM_MMFF94_PARTIAL_CHARGES>  (1) 
29
1 -0.43
10 -0.12
11 -0.12
12 -0.14
13 -0.04
14 -0.04
15 0.29
16 0.71
17 -0.15
18 0.14
19 0.71
2 -0.43
20 0.14
21 0.29
22 -0.15
23 -0.15
24 0.28
27 0.28
29 0.4
3 -0.57
30 0.15
37 0.15
38 0.15
4 0.24
5 -0.57
6 -0.6
7 -0.41
8 -0.41
9 0.42

>  <PUBCHEM_EFFECTIVE_ROTOR_COUNT>  (1) 
6.4

>  <PUBCHEM_PHARMACOPHORE_FEATURES>  (1) 
10
1 3 acceptor
1 5 acceptor
1 6 cation
1 6 donor
1 7 acceptor
1 8 acceptor
3 24 25 26 hydrophobe
5 4 7 8 15 21 rings
6 12 15 17 21 22 23 rings
6 6 9 10 11 13 14 rings

>  <PUBCHEM_HEAVY_ATOM_COUNT>  (1) 
27

>  <PUBCHEM_ATOM_DEF_STEREO_COUNT>  (1) 
0

>  <PUBCHEM_ATOM_UDEF_STEREO_COUNT>  (1) 
1

>  <PUBCHEM_BOND_DEF_STEREO_COUNT>  (1) 
0

>  <PUBCHEM_BOND_UDEF_STEREO_COUNT>  (1) 
0

>  <PUBCHEM_ISOTOPIC_ATOM_COUNT>  (1) 
0

>  <PUBCHEM_COMPONENT_COUNT>  (1) 
1

>  <PUBCHEM_CACTVS_TAUTO_COUNT>  (1) 
3

>  <PUBCHEM_CONFORMER_ID>  (1) 
00000EC800000004

>  <PUBCHEM_MMFF94_ENERGY>  (1) 
72.5298

>  <PUBCHEM_FEATURE_SELFOVERLAP>  (1) 
50.92

>  <PUBCHEM_SHAPE_FINGERPRINT>  (1) 
10906281 52 18044094558008262221
11578080 2 16446434828817472550
12035759 4 17838008798260976895
12422481 6 18057623133896927955
12592029 89 18197478658906562301
13140716 1 18334576858559384761
14178342 30 18268167395686577793
14251751 93 18271515468337387187
16945 1 18271242703485800833
19591789 44 18408039615471689602
20691752 17 17898885502138764835
20905425 154 17975692788544608252
22182313 1 17899145923312767729
23419403 2 17910415908152656647
23559900 14 17467340132746259146
2748010 2 17972607580587363633
465052 167 17969236688257943307
5265222 85 18336260168865956818
59755656 215 18338522945898508817
81228 2 17836625784579521704

>  <PUBCHEM_SHAPE_MULTIPOLES>  (1) 
511.36
6.02
4.15
2.11
1.55
1.03
0.7
-1.15
-2.6
-0.02
1.48
-0.12
0.72
0.85

>  <PUBCHEM_SHAPE_SELFOVERLAP>  (1) 
1096.586

>  <PUBCHEM_SHAPE_VOLUME>  (1) 
284.4

>  <PUBCHEM_COORDINATE_TYPE>  (1) 
2
5
10

$$$$
