37847
     RDKit          3D

 17 18  0  0  0  0  0  0  0  0999 V2000
    5.4421    0.0546    1.4186 O   0  0  0  0  0  0  0  0  0  0  0  0
    5.5028    1.4812   -0.3500 O   0  0  0  0  0  0  0  0  0  0  0  0
   -3.9211   -0.2093    0.3645 C   0  0  0  0  0  0  0  0  0  0  0  0
   -3.9710    1.2533   -0.0660 C   0  0  0  0  0  0  0  0  0  0  0  0
   -5.3406   -0.6838    0.0697 C   0  0  0  0  0  0  0  0  0  0  0  0
   -5.3391    1.7335    0.4086 C   0  0  0  0  0  0  0  0  0  0  0  0
   -6.2173    0.4850    0.5075 C   0  0  0  0  0  0  0  0  0  0  0  0
   -2.8578   -1.0122   -0.3643 C   0  0  0  0  0  0  0  0  0  0  0  0
   -1.4556   -0.4662   -0.0915 C   0  0  0  0  0  0  0  0  0  0  0  0
   -0.3862   -1.3045   -0.7952 C   0  0  0  0  0  0  0  0  0  0  0  0
    1.0023   -0.7955   -0.5035 C   0  0  0  0  0  0  0  0  0  0  0  0
    1.5651    0.1620   -1.3343 C   0  0  0  0  0  0  0  0  0  0  0  0
    1.6946   -1.2915    0.5911 C   0  0  0  0  0  0  0  0  0  0  0  0
    2.8497    0.6343   -1.0643 C   0  0  0  0  0  0  0  0  0  0  0  0
    2.9791   -0.8191    0.8612 C   0  0  0  0  0  0  0  0  0  0  0  0
    3.5565    0.1437    0.0334 C   0  0  0  0  0  0  0  0  0  0  0  0
    4.8965    0.6344    0.3144 C   0  0  0  0  0  0  0  0  0  0  0  0
  1 17  1  0
  2 17  2  0
  3  4  1  0
  3  5  1  0
  3  8  1  0
  4  6  1  0
  5  7  1  0
  6  7  1  0
  8  9  1  0
  9 10  1  0
 10 11  1  0
 11 12  2  0
 11 13  1  0
 12 14  1  0
 13 15  2  0
 14 16  2  0
 15 16  1  0
 16 17  1  0
M  END
>  <PUBCHEM_COMPOUND_CID>  (1) 
37847

>  <PUBCHEM_CONFORMER_RMSD>  (1) 
0.8

>  <PUBCHEM_CONFORMER_DIVERSEORDER>  (1) 
1
7
2
8
11
3
4
10
12
13
9
6
5

>  <PUBCHEM_MMFF94_PARTIAL_CHARGES>  (1) 
15
1 -0.65
10 0.14
11 -0.14
12 -0.15
13 -0.15
14 -0.15
15 -0.15
16 0.09
17 0.63
2 -0.57
33 0.15
34 0.15
35 0.15
36 0.15
37 0.5

>  <PUBCHEM_EFFECTIVE_ROTOR_COUNT>  (1) 
6

>  <PUBCHEM_PHARMACOPHORE_FEATURES>  (1) 
5
1 1 acceptor
1 2 acceptor
3 1 2 17 anion
5 3 4 5 6 7 rings
6 11 12 13 14 15 16 rings

>  <PUBCHEM_HEAVY_ATOM_COUNT>  (1) 
17

>  <PUBCHEM_ATOM_DEF_STEREO_COUNT>  (1) 
0

>  <PUBCHEM_ATOM_UDEF_STEREO_COUNT>  (1) 
0

>  <PUBCHEM_BOND_DEF_STEREO_COUNT>  (1) 
0

>  <PUBCHEM_BOND_UDEF_STEREO_COUNT>  (1) 
0

>  <PUBCHEM_ISOTOPIC_ATOM_COUNT>  (1) 
0

>  <PUBCHEM_COMPONENT_COUNT>  (1) 
1

>  <PUBCHEM_CACTVS_TAUTO_COUNT>  (1) 
1

>  <PUBCHEM_CONFORMER_ID>  (1) 
000093D700000001

>  <PUBCHEM_MMFF94_ENERGY>  (1) 
37.0334

>  <PUBCHEM_FEATURE_SELFOVERLAP>  (1) 
25.429

>  <PUBCHEM_SHAPE_FINGERPRINT>  (1) 
100836 57 18202566184991349239
10354089 29 18113339712780616398
10670039 82 17489320646133614784
10688039 33 16226042284337809180
10693767 8 12031248182106001524
11089746 13 18343293794916680284
11128504 68 12823292407616116491
11724838 91 18335142029374096079
11796584 16 11025789899391317521
12107183 9 17539681405468919713
12236239 1 18407758148757872067
12507557 5 18186240637123028693
12596602 18 17748826328058951537
12633257 1 16732988656005804371
12714333 28 16056879134780609482
12730499 353 16056884649476647446
13167372 99 18409448051017115936
13288520 33 7997971271939160447
13533116 47 17603861166403421978
13685833 64 12107795103393715389
14123255 352 18202562873856426613
14123256 34 10953747672936350225
1420 363 13117999993866245947
14252887 29 16298380232761530546
14341114 176 17022901246520011742
14341114 328 18186802482705196427
14455015 7 13695586641807912011
14528608 73 13470682650742932491
15183329 4 12175627273692387620
15188451 53 15647349588808888905
15238133 3 18187374220067097932
15475509 8 18188227433423126868
15880784 105 14851900187585300897
17870717 6 9223230746228327489
18222031 100 9727634990345400806
193927 3 11891336413501261127
19784866 240 10737283528677925687
200 152 11240002265015331823
20281389 69 18272649051919480728
20645477 56 17847062199122596151
20645477 70 15554181284695442254
21150785 3 16056871439080339181
212847 35 18060416893947355450
21637258 2 7997694164395492272
221357 26 13973968679588581531
22224240 67 16805884091268891888
23402539 116 17703783747531543462
23402655 69 13614530636182153323
26918003 58 16226050002863147605
2767999 5 17989202646660232953
2916195 48 17917987308514662395
29717793 49 9727637210743045275
300161 21 18335136471707377631
3060560 45 14045740422288886436
33382 64 13262664908245509760
351380 3 8935000356674904945
3545911 37 18131074835183896487
4325135 7 17560796663477234319
465052 167 13118001089510155178
5104073 3 17531531013234545968
542803 24 18413107264474301671
559249 180 8430324524342622329
59682541 35 18342182211296534619
59682541 52 15410626826170075348
960060 61 12607404399061340954

>  <PUBCHEM_SHAPE_MULTIPOLES>  (1) 
338.11
15.18
1.43
1.04
6.67
0.22
0.04
6.41
-3.85
0.58
0.02
-0.96
-0.03
-0.62

>  <PUBCHEM_SHAPE_SELFOVERLAP>  (1) 
701.378

>  <PUBCHEM_SHAPE_VOLUME>  (1) 
194.2

>  <PUBCHEM_COORDINATE_TYPE>  (1) 
2
5
10

$$$$
