37845
     RDKit          3D

 25 27  0  0  1  0  0  0  0  0999 V2000
    0.6994   -1.0868   -0.2733 O   0  0  0  0  0  0  0  0  0  0  0  0
   -1.8500   -2.4776   -0.1604 O   0  0  0  0  0  0  0  0  0  0  0  0
    2.3340   -3.3672   -0.0993 O   0  0  0  0  0  0  0  0  0  0  0  0
    0.6237    1.6402   -0.1716 O   0  0  0  0  0  0  0  0  0  0  0  0
   -4.2250    1.5129    0.1300 O   0  0  0  0  0  0  0  0  0  0  0  0
   -2.8555    3.7481    0.1214 O   0  0  0  0  0  0  0  0  0  0  0  0
    4.0363   -0.1263    0.4532 N   0  0  0  0  0  0  0  0  0  0  0  0
    2.6473   -2.1715    0.6207 C   0  0  0  0  0  0  0  0  0  0  0  0
    3.6109   -1.3405   -0.2298 C   0  0  0  0  0  0  0  0  0  0  0  0
    1.3462   -1.4415    0.9466 C   0  0  0  0  0  0  0  0  0  0  0  0
    4.9950    0.6166   -0.3535 C   0  0  0  0  0  0  0  0  0  0  0  0
   -0.4946   -0.4352   -0.1736 C   0  0  0  0  0  0  0  0  0  0  0  0
   -1.7061   -1.1229   -0.1212 C   0  0  0  0  0  0  0  0  0  0  0  0
   -2.9508   -0.5098   -0.0210 C   0  0  0  0  0  0  0  0  0  0  0  0
   -0.5726    0.9604   -0.1198 C   0  0  0  0  0  0  0  0  0  0  0  0
   -1.8056    1.6146   -0.0187 C   0  0  0  0  0  0  0  0  0  0  0  0
   -3.0105    0.8950    0.0323 C   0  0  0  0  0  0  0  0  0  0  0  0
   -3.9001   -1.5659    0.0019 C   0  0  0  0  0  0  0  0  0  0  0  0
   -3.1816   -2.7356   -0.0854 C   0  0  0  0  0  0  0  0  0  0  0  0
    6.2348   -0.2330   -0.6178 C   0  0  0  0  0  0  0  0  0  0  0  0
    5.3617    1.9140    0.3602 C   0  0  0  0  0  0  0  0  0  0  0  0
   -1.8284    3.0893    0.0346 C   0  0  0  0  0  0  0  0  0  0  0  0
   -3.5700   -4.1527   -0.1106 C   0  0  0  0  0  0  0  0  0  0  0  0
   -0.5184    3.7640   -0.0245 C   0  0  0  0  0  0  0  0  0  0  0  0
    0.5798    3.0113   -0.1206 C   0  0  0  0  0  0  0  0  0  0  0  0
  1 10  1  0
  1 12  1  0
  2 13  1  0
  2 19  1  0
  3  8  1  0
  4 15  1  0
  4 25  1  0
  5 17  1  0
  6 22  2  0
  7  9  1  0
  7 11  1  0
  8  9  1  0
  8 10  1  0
 11 20  1  0
 11 21  1  0
 12 13  2  0
 12 15  1  0
 13 14  1  0
 14 17  2  0
 14 18  1  0
 15 16  2  0
 16 17  1  0
 16 22  1  0
 18 19  2  0
 19 23  1  0
 22 24  1  0
 24 25  2  0
M  END
>  <PUBCHEM_COMPOUND_CID>  (1) 
37845

>  <PUBCHEM_CONFORMER_RMSD>  (1) 
0.8

>  <PUBCHEM_CONFORMER_DIVERSEORDER>  (1) 
1
56
12
51
39
57
52
10
53
38
47
46
54
20
48
36
23
6
26
40
42
33
28
50
27
55
32
8
4
37
17
31
43
15
24
19
41
13
29
18
49
5
22
21
7
16
25
44
30
11
34
35
2
9
14
3
45

>  <PUBCHEM_MMFF94_PARTIAL_CHARGES>  (1) 
28
1 -0.36
10 0.28
11 0.27
12 0.08
13 0.14
15 0.08
16 0.09
17 0.08
18 -0.15
19 -0.04
2 -0.28
22 0.47
23 0.18
24 -0.14
25 -0.07
3 -0.68
32 0.36
33 0.15
4 -0.16
40 0.4
44 0.15
45 0.15
46 0.45
5 -0.53
6 -0.57
7 -0.9
8 0.28
9 0.27

>  <PUBCHEM_EFFECTIVE_ROTOR_COUNT>  (1) 
6

>  <PUBCHEM_PHARMACOPHORE_FEATURES>  (1) 
13
1 1 acceptor
1 2 acceptor
1 3 acceptor
1 3 donor
1 4 acceptor
1 5 donor
1 6 acceptor
1 7 cation
1 7 donor
3 11 20 21 hydrophobe
5 2 13 14 18 19 rings
6 12 13 14 15 16 17 rings
6 4 15 16 22 24 25 rings

>  <PUBCHEM_HEAVY_ATOM_COUNT>  (1) 
25

>  <PUBCHEM_ATOM_DEF_STEREO_COUNT>  (1) 
0

>  <PUBCHEM_ATOM_UDEF_STEREO_COUNT>  (1) 
1

>  <PUBCHEM_BOND_DEF_STEREO_COUNT>  (1) 
0

>  <PUBCHEM_BOND_UDEF_STEREO_COUNT>  (1) 
0

>  <PUBCHEM_ISOTOPIC_ATOM_COUNT>  (1) 
0

>  <PUBCHEM_COMPONENT_COUNT>  (1) 
1

>  <PUBCHEM_CACTVS_TAUTO_COUNT>  (1) 
4

>  <PUBCHEM_CONFORMER_ID>  (1) 
000093D500000001

>  <PUBCHEM_MMFF94_ENERGY>  (1) 
53.5608

>  <PUBCHEM_FEATURE_SELFOVERLAP>  (1) 
66.114

>  <PUBCHEM_SHAPE_FINGERPRINT>  (1) 
10319926 262 18268975537307779034
10411042 1 18194685001914198623
10498660 4 18409445873948322380
10616163 171 18411138009342698614
10670039 82 18334867134640769796
10693767 8 17624967627475488367
10906281 52 18271250409379829341
1100329 8 18410015459589799497
11578080 2 17169530944526558958
12107183 9 17758387475575058082
12173636 292 18122336874601795877
12553582 1 18337943593059139835
12788726 201 18334008376423608771
13140716 1 18196941182768586281
138480 1 15816780593336837481
14081887 123 18339911650173922754
14787075 74 18042685186064551466
14790565 3 18051696534231833441
15196674 1 18410574020286779444
16087824 20 18410292490113706605
19591789 44 18122343742333850504
19930381 70 18049438450548054576
20028762 73 15748111358902329015
20101258 96 18265342870515850747
20510252 161 17982165617840012801
20642791 178 18115880761377942060
21049683 271 17826798341440736319
23227448 37 18339642227044502884
23557571 272 18272377451536800702
23559900 14 18195516228683486995
335352 9 18338797931464238119
34934 24 18408601431416542383
463206 1 17976261562147246046
474 4 17676501505925223252
5309563 4 18194964273372031411
7097593 13 17393872965118202522
9709674 26 18126002668171178878

>  <PUBCHEM_SHAPE_MULTIPOLES>  (1) 
474.29
10.1
5.16
0.69
14.9
1.29
0.04
-2.99
-0.68
-4.34
0.07
0.28
-0.1
-0.22

>  <PUBCHEM_SHAPE_SELFOVERLAP>  (1) 
1021.157

>  <PUBCHEM_SHAPE_VOLUME>  (1) 
263.8

>  <PUBCHEM_COORDINATE_TYPE>  (1) 
2
5
10

$$$$
