37846
     RDKit          3D

 15 16  0  0  0  0  0  0  0  0999 V2000
   -4.3172    1.4415    0.0026 O   0  0  0  0  0  0  0  0  0  0  0  0
   -4.6181   -0.5804   -0.9914 O   0  0  0  0  0  0  0  0  0  0  0  0
    2.5439   -0.3049   -0.0468 C   0  0  0  0  0  0  0  0  0  0  0  0
    2.8446    1.1902   -0.0084 C   0  0  0  0  0  0  0  0  0  0  0  0
    3.9334   -0.9197    0.0868 C   0  0  0  0  0  0  0  0  0  0  0  0
    4.1200    1.3335   -0.8331 C   0  0  0  0  0  0  0  0  0  0  0  0
    4.8150   -0.0282   -0.7817 C   0  0  0  0  0  0  0  0  0  0  0  0
    1.5844   -0.7509    1.0427 C   0  0  0  0  0  0  0  0  0  0  0  0
    0.1475   -0.4972    0.6654 C   0  0  0  0  0  0  0  0  0  0  0  0
   -0.5639   -1.4797   -0.0073 C   0  0  0  0  0  0  0  0  0  0  0  0
   -0.4414    0.7139    0.9976 C   0  0  0  0  0  0  0  0  0  0  0  0
   -1.8942   -1.2460   -0.3559 C   0  0  0  0  0  0  0  0  0  0  0  0
   -1.7717    0.9477    0.6493 C   0  0  0  0  0  0  0  0  0  0  0  0
   -2.4980   -0.0323   -0.0276 C   0  0  0  0  0  0  0  0  0  0  0  0
   -3.8845    0.2126   -0.3923 C   0  0  0  0  0  0  0  0  0  0  0  0
  1 15  1  0
  2 15  2  0
  3  4  1  0
  3  5  1  0
  3  8  1  0
  4  6  1  0
  5  7  1  0
  6  7  1  0
  8  9  1  0
  9 10  2  0
  9 11  1  0
 10 12  1  0
 11 13  2  0
 12 14  2  0
 13 14  1  0
 14 15  1  0
M  END
>  <PUBCHEM_COMPOUND_CID>  (1) 
37846

>  <PUBCHEM_CONFORMER_RMSD>  (1) 
0.6

>  <PUBCHEM_CONFORMER_DIVERSEORDER>  (1) 
1
12
5
11
4
10
6
9
2
7
8
3

>  <PUBCHEM_MMFF94_PARTIAL_CHARGES>  (1) 
15
1 -0.65
10 -0.15
11 -0.15
12 -0.15
13 -0.15
14 0.09
15 0.63
2 -0.57
27 0.15
28 0.15
29 0.15
30 0.15
31 0.5
8 0.14
9 -0.14

>  <PUBCHEM_EFFECTIVE_ROTOR_COUNT>  (1) 
4

>  <PUBCHEM_PHARMACOPHORE_FEATURES>  (1) 
5
1 1 acceptor
1 2 acceptor
3 1 2 15 anion
5 3 4 5 6 7 rings
6 9 10 11 12 13 14 rings

>  <PUBCHEM_HEAVY_ATOM_COUNT>  (1) 
15

>  <PUBCHEM_ATOM_DEF_STEREO_COUNT>  (1) 
0

>  <PUBCHEM_ATOM_UDEF_STEREO_COUNT>  (1) 
0

>  <PUBCHEM_BOND_DEF_STEREO_COUNT>  (1) 
0

>  <PUBCHEM_BOND_UDEF_STEREO_COUNT>  (1) 
0

>  <PUBCHEM_ISOTOPIC_ATOM_COUNT>  (1) 
0

>  <PUBCHEM_COMPONENT_COUNT>  (1) 
1

>  <PUBCHEM_CACTVS_TAUTO_COUNT>  (1) 
1

>  <PUBCHEM_CONFORMER_ID>  (1) 
000093D600000001

>  <PUBCHEM_MMFF94_ENERGY>  (1) 
37.0458

>  <PUBCHEM_FEATURE_SELFOVERLAP>  (1) 
25.429

>  <PUBCHEM_SHAPE_FINGERPRINT>  (1) 
11543360 7 18408320016564099187
12119455 92 15502369032561514779
12670546 177 18342734148046252623
13675066 3 10664102250756970707
14252887 29 11959735967071993444
14911166 2 18202560687749689067
14943859 89 17240483615119661658
14993402 34 18410290319952461581
15342168 16 16878800425236388094
15775835 57 18186523211178557852
17959699 21 18333732416174557460
1813 80 12966857865890650656
18186145 218 17894624868489523498
19862831 5 18413108364012218832
200 152 15482675667180418498
20279233 1 16271927121300697334
20300324 65 17989208148518633321
20432913 95 11815897863994097420
20645476 183 18408881858395281367
20645477 70 18336266752249273162
20671657 53 16415761942015861994
20871999 31 18271240637854594111
21065199 12 8069759463984518518
21119208 17 18413109463650421094
21501925 9 10592043561628956954
22079108 93 17095532811518950633
22485316 2 11312057638422941431
22646028 28 11887958752498716492
22854114 59 14996283613015644874
22926399 37 18186522119898402381
231179 274 17530678806008101118
23402539 116 18131347479797478292
23402655 69 18408327700735261076
23559900 14 17989203772632540248
25 1 17894630353284054114
4028521 119 18259983773242326788
42 15 9799694800617718468
474 4 17603871160565608812
4990 188 17775003483443907191
633830 44 18040998414509328051
93112 12 18341617053096679350

>  <PUBCHEM_SHAPE_MULTIPOLES>  (1) 
296.95
9.57
1.43
0.97
0.51
0.08
0.06
1.95
-3.49
0.06
-0.02
0.05
0.01
-0.64

>  <PUBCHEM_SHAPE_SELFOVERLAP>  (1) 
625.471

>  <PUBCHEM_SHAPE_VOLUME>  (1) 
168.3

>  <PUBCHEM_COORDINATE_TYPE>  (1) 
2
5
10

$$$$
