37856
     RDKit          3D

 18 19  0  0  1  0  0  0  0  0999 V2000
   -0.6725   -0.1785   -0.2485 O   0  0  0  0  0  0  0  0  0  0  0  0
    0.3217    1.8933   -0.5086 O   0  0  0  0  0  0  0  0  0  0  0  0
   -4.3566   -0.0821   -0.1099 N   0  0  0  0  0  0  0  0  0  0  0  0
    2.9303    0.7454   -0.5969 C   0  0  0  0  0  0  0  0  0  0  0  0
    2.6167    0.2363    0.7918 C   0  0  0  0  0  0  0  0  0  0  0  0
    1.6731   -0.0439   -0.3485 C   0  0  0  0  0  0  0  0  0  0  0  0
    4.0434    0.1606   -1.4166 C   0  0  0  0  0  0  0  0  0  0  0  0
    3.3636   -0.8804    1.3832 C   0  0  0  0  0  0  0  0  0  0  0  0
    0.3766    0.6789   -0.3789 C   0  0  0  0  0  0  0  0  0  0  0  0
    5.3805    0.1441   -0.7318 C   0  0  0  0  0  0  0  0  0  0  0  0
    4.6669   -1.1722    1.2459 C   0  0  0  0  0  0  0  0  0  0  0  0
    5.6256   -0.4356    0.4533 C   0  0  0  0  0  0  0  0  0  0  0  0
   -1.9680    0.4292   -0.2682 C   0  0  0  0  0  0  0  0  0  0  0  0
   -3.0198   -0.6575   -0.1128 C   0  0  0  0  0  0  0  0  0  0  0  0
   -4.4970    0.8967    0.9710 C   0  0  0  0  0  0  0  0  0  0  0  0
   -5.3717   -1.1300    0.0224 C   0  0  0  0  0  0  0  0  0  0  0  0
   -5.8661    1.5545    0.9416 C   0  0  0  0  0  0  0  0  0  0  0  0
   -5.2468   -2.1587   -1.0885 C   0  0  0  0  0  0  0  0  0  0  0  0
  1  9  1  0
  1 13  1  0
  2  9  2  0
  3 14  1  0
  3 15  1  0
  3 16  1  0
  4  5  1  0
  4  6  1  0
  4  7  1  0
  5  6  1  0
  5  8  1  0
  6  9  1  0
  7 10  1  0
  8 11  2  0
 10 12  2  0
 11 12  1  0
 13 14  1  0
 15 17  1  0
 16 18  1  0
M  END
>  <PUBCHEM_COMPOUND_CID>  (1) 
37856

>  <PUBCHEM_CONFORMER_RMSD>  (1) 
1

>  <PUBCHEM_CONFORMER_DIVERSEORDER>  (1) 
1
483
179
34
467
172
224
140
448
13
326
90
154
5
320
113
35
73
298
4
549
445
515
575
77
371
65
257
357
85
416
111
235
406
74
613
519
163
411
197
521
32
67
230
602
38
524
313
55
567
227
28
391
11
83
139
205
9
17
225
49
178
146
233
258
37
30
52
199
302
452
349
100
566
185
39
16
89
86
539
40
512
428
213
559
303
48
355
6
153
125
14
56
359

>  <PUBCHEM_MMFF94_PARTIAL_CHARGES>  (1) 
23
1 -0.43
10 -0.29
11 -0.15
12 -0.15
13 0.28
14 0.27
15 0.27
16 0.27
19 0.1
2 -0.57
20 0.1
21 0.1
24 0.15
25 0.15
26 0.15
27 0.15
3 -0.81
4 -0.19
5 -0.06
6 -0.1
7 0.23
8 -0.19
9 0.72

>  <PUBCHEM_EFFECTIVE_ROTOR_COUNT>  (1) 
7.4

>  <PUBCHEM_PHARMACOPHORE_FEATURES>  (1) 
3
1 2 acceptor
1 3 cation
7 4 5 7 8 10 11 12 rings

>  <PUBCHEM_HEAVY_ATOM_COUNT>  (1) 
18

>  <PUBCHEM_ATOM_DEF_STEREO_COUNT>  (1) 
0

>  <PUBCHEM_ATOM_UDEF_STEREO_COUNT>  (1) 
3

>  <PUBCHEM_BOND_DEF_STEREO_COUNT>  (1) 
0

>  <PUBCHEM_BOND_UDEF_STEREO_COUNT>  (1) 
0

>  <PUBCHEM_ISOTOPIC_ATOM_COUNT>  (1) 
0

>  <PUBCHEM_COMPONENT_COUNT>  (1) 
1

>  <PUBCHEM_CACTVS_TAUTO_COUNT>  (1) 
1

>  <PUBCHEM_CONFORMER_ID>  (1) 
000093E000000001

>  <PUBCHEM_MMFF94_ENERGY>  (1) 
33.5133

>  <PUBCHEM_FEATURE_SELFOVERLAP>  (1) 
15.223

>  <PUBCHEM_SHAPE_FINGERPRINT>  (1) 
10912923 1 18408044030740118125
11315181 36 18412544340797053789
11545043 162 17632576072029966347
12236239 1 18408606963424005988
12596602 18 18131347531405560818
12616971 3 18041005041981463085
13533116 47 18040433257813018594
13583140 156 16200429165764529837
13675066 3 16917350346462025765
13760787 5 17675926503834685389
13955234 65 17240203257668255024
14251764 18 18261116266635923809
15188451 53 17916855933184329271
15348495 7 16988556952833738091
17834072 33 18040434399651755276
17844677 252 17917997217284016617
17857418 61 18259978284305829267
18222031 100 18412541045824005957
19433438 28 16702304563845846635
19489759 90 17846779603322672083
200 152 17603585205800851636
20281475 54 18113616811285892253
20645477 70 17022616455802480514
21033648 29 16128647518843149603
21267235 1 17604432891265185306
21315763 178 18259982656503240106
21623969 137 16878237389146244219
220451 1 18334018280512515691
22061861 79 16226041184968709139
22950370 63 18187365432511002517
23081809 10 18260833712836412437
23402539 116 18413106160952621333
23402655 69 7853584508469557213
23522609 53 18116742688326562493
23559900 14 17489875912068347797
2767999 5 10807933760411441994
29717793 49 17749384854259315814
314194 84 17967250892632270058
351380 3 18333728030923095459
465052 167 18408324406237220038
5104073 3 18342461490985787897
5385378 56 17844544206110675939
542803 24 18408326583400198725
559249 180 18410853257722776423
573450 72 18341610426167876579

>  <PUBCHEM_SHAPE_MULTIPOLES>  (1) 
353.71
16.14
1.52
1.23
9.04
0.2
0.12
3.01
1.75
2.47
-0.08
-0.97
0.13
-2.12

>  <PUBCHEM_SHAPE_SELFOVERLAP>  (1) 
709.887

>  <PUBCHEM_SHAPE_VOLUME>  (1) 
207.6

>  <PUBCHEM_COORDINATE_TYPE>  (1) 
2
5
10

$$$$
