37852
     RDKit          3D

 20 19  0  0  1  0  0  0  0  0999 V2000
   -4.2450   -0.4360    0.2245 O   0  0  0  0  0  0  0  0  0  0  0  0
   -3.7136    0.4194   -1.8527 O   0  0  0  0  0  0  0  0  0  0  0  0
    3.5031    2.2201    0.2388 C   0  0  0  0  0  0  0  0  0  0  0  0
    3.5437    0.9322   -0.6137 C   0  0  0  0  0  0  0  0  0  0  0  0
    3.6686   -0.3747    0.1786 C   0  0  0  0  0  0  0  0  0  0  0  0
    3.7778   -1.5792   -0.7637 C   0  0  0  0  0  0  0  0  0  0  0  0
    3.8336   -2.9304   -0.0267 C   0  0  0  0  0  0  0  0  0  0  0  0
    2.2249    2.3766    1.0878 C   0  0  0  0  0  0  0  0  0  0  0  0
    4.7389    2.3364    1.1370 C   0  0  0  0  0  0  0  0  0  0  0  0
    3.8797   -4.0741   -1.0430 C   0  0  0  0  0  0  0  0  0  0  0  0
    5.0317   -3.0316    0.9184 C   0  0  0  0  0  0  0  0  0  0  0  0
    0.9650    2.3732    0.2653 C   0  0  0  0  0  0  0  0  0  0  0  0
   -0.0144    1.4666    0.4160 C   0  0  0  0  0  0  0  0  0  0  0  0
   -1.2648    1.3863   -0.3440 C   0  0  0  0  0  0  0  0  0  0  0  0
   -1.5034    2.4398   -1.3949 C   0  0  0  0  0  0  0  0  0  0  0  0
   -2.1257    0.3946   -0.0394 C   0  0  0  0  0  0  0  0  0  0  0  0
   -3.4335    0.1539   -0.6957 C   0  0  0  0  0  0  0  0  0  0  0  0
   -5.5581   -0.7699   -0.2374 C   0  0  0  0  0  0  0  0  0  0  0  0
   -6.3348   -1.3951    0.8337 C   0  0  0  0  0  0  0  0  0  0  0  0
   -6.9735   -1.9079    1.7111 C   0  0  0  0  0  0  0  0  0  0  0  0
  1 17  1  0
  1 18  1  0
  2 17  2  0
  3  4  1  0
  3  8  1  0
  3  9  1  0
  4  5  1  0
  5  6  1  0
  6  7  1  0
  7 10  1  0
  7 11  1  0
  8 12  1  0
 12 13  2  0
 13 14  1  0
 14 15  1  0
 14 16  2  0
 16 17  1  0
 18 19  1  0
 19 20  3  0
M  END
>  <PUBCHEM_COMPOUND_CID>  (1) 
37852

>  <PUBCHEM_CONFORMER_RMSD>  (1) 
1

>  <PUBCHEM_CONFORMER_DIVERSEORDER>  (1) 
1
264
194
30
31
202
199
160
244
157
246
228
153
176
64
100
80
122
213
10
149
143
34
255
200
21
40
84
126
167
92
212
206
172
270
71
65
15
179
170
49
211
41
91
118
39
8
263
146
27
66
182
51
96
98
9
222
220
190
136
185
57
175
162
169
155
88
171
42
114
17
229
165
181
217
36
259
258
7
154
152
28
47
216
195
107
24
139
183
261
201
141
93
50
233
240
256
184
266
124
67
77
82
43
131
142
108
196
130
243
69
74
60
137
231
158
198
144
78
250
75
119
129
72
29
87
13
251
262
104
241
166
18
230
2
117
173
226
147
218
45
95
161
94
215
44
252
58
168
79
63
62
186
116
247
187
237
12
236
38
272
265
235
232
189
159
16
52
132
123
112
224
238
121
3
239
178
32
125
192
26
133
103
22
193
25
55
271
120
210
148
109
5
111
209
254
105
257
203
164
242
145
191
48
150
83
253
89
234
248
127
90
33
11
46
219
204
163
174
221
113
208
101
54
59
227
225
245
188
86
20
180
135
106
19
207
223
260
73
85
70
269
68
115
14
110
99
37
56
267
102
197
134
138
140
97
53
156
61
76
177
23
81
35
249
268
205
4
151
214
128
6

>  <PUBCHEM_MMFF94_PARTIAL_CHARGES>  (1) 
16
1 -0.43
12 -0.29
13 -0.15
14 -0.14
15 0.14
16 -0.14
17 0.71
18 0.48
19 -0.2
2 -0.57
20 -0.18
40 0.15
41 0.15
45 0.15
48 0.18
8 0.14

>  <PUBCHEM_EFFECTIVE_ROTOR_COUNT>  (1) 
10

>  <PUBCHEM_PHARMACOPHORE_FEATURES>  (1) 
5
1 15 hydrophobe
1 2 acceptor
1 20 hydrophobe
1 9 hydrophobe
3 7 10 11 hydrophobe

>  <PUBCHEM_HEAVY_ATOM_COUNT>  (1) 
20

>  <PUBCHEM_ATOM_DEF_STEREO_COUNT>  (1) 
0

>  <PUBCHEM_ATOM_UDEF_STEREO_COUNT>  (1) 
0

>  <PUBCHEM_BOND_DEF_STEREO_COUNT>  (1) 
0

>  <PUBCHEM_BOND_UDEF_STEREO_COUNT>  (1) 
2

>  <PUBCHEM_ISOTOPIC_ATOM_COUNT>  (1) 
0

>  <PUBCHEM_COMPONENT_COUNT>  (1) 
1

>  <PUBCHEM_CACTVS_TAUTO_COUNT>  (1) 
1

>  <PUBCHEM_CONFORMER_ID>  (1) 
000093DC00000001

>  <PUBCHEM_MMFF94_ENERGY>  (1) 
28.6143

>  <PUBCHEM_FEATURE_SELFOVERLAP>  (1) 
25.374

>  <PUBCHEM_SHAPE_FINGERPRINT>  (1) 
10669705 251 17899427660282965019
12107183 9 17985841319708940161
12596602 18 16629407037239485681
12623949 98 18411709789348129727
12730499 353 18339081600821427936
13073987 5 18342178873426723153
13533116 47 18201162134765872425
13911852 28 18411980261235585295
13955234 65 18199744907228024368
14251740 57 18334862714085576687
14251764 30 18334300851191222771
14429380 30 18123187901535900526
14556957 393 13407058320324753879
14617045 38 18339931531561821932
14863182 85 18339358673794549668
15019793 15 18192996139317375803
15110567 62 18411703205326918174
15537594 2 18202001083396599804
17492 89 18268429032277744318
1768 124 18266462195244721811
17859628 70 18413671322888039880
18335252 114 8502386511794698816
20554085 129 14548750482754323239
20645477 70 18408317800645986592
212916 134 14405192781000919669
21315759 148 18335422409065795585
21315759 227 18117831102101281982
21623969 137 18337109072149110033
22224240 67 17986379208892367816
3089732 80 18260835920935470995
33382 64 18411985788384001569
3421961 26 18342452621825476032
345986 75 17560806506577244225
34797466 226 16805611416580132421
46194498 28 17749389320967600180
5104073 3 18273217465398733825
57634706 306 10951768522400193739
621550 34 18339067315639583564
6433294 58 18412260653627803966
7918774 8 17604446184009443347
88748 71 18339924788473781670

>  <PUBCHEM_SHAPE_MULTIPOLES>  (1) 
399.85
15.96
4.53
1.35
23.91
3.24
-0.06
13.73
5.08
-8.03
0.13
0.93
0.05
3.15

>  <PUBCHEM_SHAPE_SELFOVERLAP>  (1) 
758.945

>  <PUBCHEM_SHAPE_VOLUME>  (1) 
246.1

>  <PUBCHEM_COORDINATE_TYPE>  (1) 
2
5
10

$$$$
