37862
     RDKit          3D

 20 22  0  0  1  0  0  0  0  0999 V2000
    0.1025    0.8047    0.1470 O   0  0  0  0  0  0  0  0  0  0  0  0
   -1.2562    2.5646   -0.4900 O   0  0  0  0  0  0  0  0  0  0  0  0
    2.6747   -0.3224    0.5074 N   0  0  0  0  0  0  0  0  0  0  0  0
    5.4453   -0.8453   -0.2772 N   0  0  0  0  0  0  0  0  0  0  0  0
   -3.5820    0.8575   -0.2373 C   0  0  0  0  0  0  0  0  0  0  0  0
   -2.8046   -0.3865   -0.6032 C   0  0  0  0  0  0  0  0  0  0  0  0
   -2.2390    0.5952    0.3895 C   0  0  0  0  0  0  0  0  0  0  0  0
   -4.8318    0.7891    0.5911 C   0  0  0  0  0  0  0  0  0  0  0  0
   -3.2181   -1.7131   -0.1298 C   0  0  0  0  0  0  0  0  0  0  0  0
   -1.0913    1.4408   -0.0374 C   0  0  0  0  0  0  0  0  0  0  0  0
   -5.8819   -0.1449    0.0603 C   0  0  0  0  0  0  0  0  0  0  0  0
   -4.4645   -2.1807    0.0441 C   0  0  0  0  0  0  0  0  0  0  0  0
   -5.6891   -1.4490   -0.1906 C   0  0  0  0  0  0  0  0  0  0  0  0
    1.2591    1.5395   -0.2315 C   0  0  0  0  0  0  0  0  0  0  0  0
    2.4211    1.1098    0.6498 C   0  0  0  0  0  0  0  0  0  0  0  0
    3.0502   -0.6832   -0.8654 C   0  0  0  0  0  0  0  0  0  0  0  0
    3.6857   -0.8016    1.4580 C   0  0  0  0  0  0  0  0  0  0  0  0
    4.4853   -0.2935   -1.2405 C   0  0  0  0  0  0  0  0  0  0  0  0
    5.1222   -0.4119    1.0872 C   0  0  0  0  0  0  0  0  0  0  0  0
    6.8123   -0.4691   -0.6318 C   0  0  0  0  0  0  0  0  0  0  0  0
  1 10  1  0
  1 14  1  0
  2 10  2  0
  3 15  1  0
  3 16  1  0
  3 17  1  0
  4 18  1  0
  4 19  1  0
  4 20  1  0
  5  6  1  0
  5  7  1  0
  5  8  1  0
  6  7  1  0
  6  9  1  0
  7 10  1  0
  8 11  1  0
  9 12  2  0
 11 13  2  0
 12 13  1  0
 14 15  1  0
 16 18  1  0
 17 19  1  0
M  END
>  <PUBCHEM_COMPOUND_CID>  (1) 
37862

>  <PUBCHEM_CONFORMER_RMSD>  (1) 
1

>  <PUBCHEM_CONFORMER_DIVERSEORDER>  (1) 
4
307
213
387
65
84
427
472
1
285
445
209
2
459
8
76
181
9
262
6
71
29
247
30
531
588
330
338
33
558
35
22
234
107
590
83
51
25
477
364
370
81
253
110
443
186
14
576
148
26
231
553
589
362
62
393
16
507
157
10
291
189
172
348
424
526
556
211
294
218
118
271
13
104
550
122
388
207
161
230
381
125
74
77
55
241
584
403
208
379
187
200
363
177
114
220
134
260
11
175
39
224
64
27
60
113

>  <PUBCHEM_MMFF94_PARTIAL_CHARGES>  (1) 
27
1 -0.43
10 0.72
11 -0.29
12 -0.15
13 -0.15
14 0.28
15 0.27
16 0.27
17 0.27
18 0.27
19 0.27
2 -0.57
20 0.27
21 0.1
22 0.1
23 0.1
26 0.15
27 0.15
28 0.15
29 0.15
3 -0.81
4 -0.81
5 -0.19
6 -0.06
7 -0.1
8 0.23
9 -0.19

>  <PUBCHEM_EFFECTIVE_ROTOR_COUNT>  (1) 
6.6

>  <PUBCHEM_PHARMACOPHORE_FEATURES>  (1) 
5
1 2 acceptor
1 3 cation
1 4 cation
6 3 4 16 17 18 19 rings
7 5 6 8 9 11 12 13 rings

>  <PUBCHEM_HEAVY_ATOM_COUNT>  (1) 
20

>  <PUBCHEM_ATOM_DEF_STEREO_COUNT>  (1) 
0

>  <PUBCHEM_ATOM_UDEF_STEREO_COUNT>  (1) 
3

>  <PUBCHEM_BOND_DEF_STEREO_COUNT>  (1) 
0

>  <PUBCHEM_BOND_UDEF_STEREO_COUNT>  (1) 
0

>  <PUBCHEM_ISOTOPIC_ATOM_COUNT>  (1) 
0

>  <PUBCHEM_COMPONENT_COUNT>  (1) 
1

>  <PUBCHEM_CACTVS_TAUTO_COUNT>  (1) 
1

>  <PUBCHEM_CONFORMER_ID>  (1) 
000093E600000004

>  <PUBCHEM_MMFF94_ENERGY>  (1) 
45.3186

>  <PUBCHEM_FEATURE_SELFOVERLAP>  (1) 
25.373

>  <PUBCHEM_SHAPE_FINGERPRINT>  (1) 
10354089 29 13542463164125392598
10447042 23 16950279590480364058
10968037 39 18261114071089983941
11089746 13 9151165433675206666
11128504 68 17095244739108430652
11315181 36 18131073740368039329
11524674 6 16917065559970948943
12236239 1 17749108851244759828
12516196 113 18131349717596875904
12553582 1 18335409162779655201
12555020 224 18337661015061681487
12596602 18 14620788332083883895
12788726 201 18261391079411957833
13288520 33 18411419510089187077
13402501 40 18131075913442630502
13685833 64 18410577318637001163
13740256 8 18410857685127150841
14123256 34 18411989082476237275
14251731 8 18408881828720289821
14251752 14 17531518807158887189
14341114 176 16630524042548600792
14386348 63 17989208122901712974
14420673 8 18413394224451673643
14576447 43 18113053827378836536
14617045 38 18412266112235805467
15183329 4 18260260837957271077
15348495 7 16916778638796273795
15537594 2 18187647972581801659
15880784 105 16558741364771947207
17492 89 18050288373701242895
17834072 8 18408036313158576205
17844677 252 18202569487842793072
17857418 61 18335415777308911371
1813 80 18040436598680636941
193927 3 18341339980261090987
19489759 90 17275106111809214913
200 152 16877943811104881428
20374829 77 18408884044744046889
20403669 9 18411981381773877431
20621476 21 18059864969286038934
21033648 29 16486396694882234074
21054139 6 18040997337300926338
21267235 1 18408890668042741795
21623969 137 17060342903349181966
22950370 63 18407479963794668901
2297311 6 18272375243670604068
23016692 55 18410860962239802540
23035841 295 18411139108891295170
23198884 109 14923939029779852613
23522609 53 18118996678573717676
23557571 272 18130229238123662740
23559900 14 18270392918980153233
239999 70 18272369789620937146
26918003 58 17918274251227515817
2767999 5 10159700183450156667
2838139 119 8286199422643860642
3004659 81 18260547848361011588
314173 85 18272086097913957785
335352 9 18408881833606283029
351380 3 18260827098544740914
4214541 1 18413107251953669545
4325135 7 18408325514934732092
465052 167 18341618147791204678
5104073 3 18271250546924103001
559249 180 18410572873567330767
59682541 35 18271796970107165352
59755656 215 17989211417252970782
7495541 125 18131068239074030736
8863177 126 17824556394508907787
960060 61 17530685428525950668
9709674 26 18119811563113445787

>  <PUBCHEM_SHAPE_MULTIPOLES>  (1) 
389.89
16.41
1.9
1.02
7.41
0.24
0.11
-7.27
-0.49
-2.02
-0.12
1.27
-0.12
-0.07

>  <PUBCHEM_SHAPE_SELFOVERLAP>  (1) 
800.14

>  <PUBCHEM_SHAPE_VOLUME>  (1) 
223.3

>  <PUBCHEM_COORDINATE_TYPE>  (1) 
2
5
10

$$$$
