37879
     RDKit          3D

 11 11  0  0  0  0  0  0  0  0999 V2000
    1.6088   -2.2818   -0.1612 Cl  0  0  0  0  0  0  0  0  0  0  0  0
    1.9998    1.6450   -0.9542 O   0  0  0  0  0  0  0  0  0  0  0  0
    2.6476    0.5463    0.9272 O   0  0  0  0  0  0  0  0  0  0  0  0
   -3.0509    1.3681    0.1359 N   0  0  0  0  0  0  0  0  0  0  0  0
    0.4586    0.1842    0.0321 C   0  0  0  0  0  0  0  0  0  0  0  0
   -1.9354    0.5081    0.0659 C   0  0  0  0  0  0  0  0  0  0  0  0
   -0.6444    1.0353    0.1015 C   0  0  0  0  0  0  0  0  0  0  0  0
    0.2707   -1.1939   -0.0729 C   0  0  0  0  0  0  0  0  0  0  0  0
   -2.1233   -0.8700   -0.0392 C   0  0  0  0  0  0  0  0  0  0  0  0
   -1.0202   -1.7210   -0.1084 C   0  0  0  0  0  0  0  0  0  0  0  0
    1.7888    0.7797    0.0734 C   0  0  0  0  0  0  0  0  0  0  0  0
  1  8  1  0
  2 11  1  0
  3 11  2  0
  4  6  1  0
  5  7  2  0
  5  8  1  0
  5 11  1  0
  6  7  1  0
  6  9  2  0
  8 10  2  0
  9 10  1  0
M  END
>  <PUBCHEM_COMPOUND_CID>  (1) 
37879

>  <PUBCHEM_CONFORMER_RMSD>  (1) 
0.4

>  <PUBCHEM_CONFORMER_DIVERSEORDER>  (1) 
2
1

>  <PUBCHEM_MMFF94_PARTIAL_CHARGES>  (1) 
17
1 -0.18
10 -0.15
11 0.63
12 0.15
13 0.15
14 0.15
15 0.4
16 0.4
17 0.5
2 -0.65
3 -0.57
4 -0.9
5 0.09
6 0.1
7 -0.15
8 0.18
9 -0.15

>  <PUBCHEM_EFFECTIVE_ROTOR_COUNT>  (1) 
1

>  <PUBCHEM_PHARMACOPHORE_FEATURES>  (1) 
6
1 2 acceptor
1 3 acceptor
1 4 cation
1 4 donor
3 2 3 11 anion
6 5 6 7 8 9 10 rings

>  <PUBCHEM_HEAVY_ATOM_COUNT>  (1) 
11

>  <PUBCHEM_ATOM_DEF_STEREO_COUNT>  (1) 
0

>  <PUBCHEM_ATOM_UDEF_STEREO_COUNT>  (1) 
0

>  <PUBCHEM_BOND_DEF_STEREO_COUNT>  (1) 
0

>  <PUBCHEM_BOND_UDEF_STEREO_COUNT>  (1) 
0

>  <PUBCHEM_ISOTOPIC_ATOM_COUNT>  (1) 
0

>  <PUBCHEM_COMPONENT_COUNT>  (1) 
1

>  <PUBCHEM_CACTVS_TAUTO_COUNT>  (1) 
1

>  <PUBCHEM_CONFORMER_ID>  (1) 
000093F700000002

>  <PUBCHEM_MMFF94_ENERGY>  (1) 
41.3511

>  <PUBCHEM_FEATURE_SELFOVERLAP>  (1) 
30.503

>  <PUBCHEM_SHAPE_FINGERPRINT>  (1) 
12423570 1 11921963829679158103
13380535 21 18339659879249222035
13380535 76 18410566293181820971
16945 1 18268431424268442999
193761 8 18411420600810842391
20511035 2 18342737364834643943
21040471 1 18412828014095400033
21501502 16 18412544293178153015
23211744 41 17559105708381465872
23552423 10 18408325479583333551
23559900 14 18130517414003644980
241688 4 17617100200639015394
2748010 2 18411142398651725063
369184 2 17773874375286093816
5084963 1 17986405579246986638
528862 383 18263638481083835203
53812653 8 18047479108016068532
7364860 26 18129660790390296590

>  <PUBCHEM_SHAPE_MULTIPOLES>  (1) 
211.52
3.61
2.17
0.73
0.83
0.82
-0.01
-1.15
0.25
-0.68
-0.24
-0.28
-0.13
-0.11

>  <PUBCHEM_SHAPE_SELFOVERLAP>  (1) 
437.212

>  <PUBCHEM_SHAPE_VOLUME>  (1) 
122

>  <PUBCHEM_COORDINATE_TYPE>  (1) 
2
5
10

$$$$
