37882
     RDKit          3D

 26 28  0  0  0  0  0  0  0  0999 V2000
    0.1374    2.0160   -0.6575 O   0  0  0  0  0  0  0  0  0  0  0  0
    5.1453    0.1831    0.7810 O   0  0  0  0  0  0  0  0  0  0  0  0
   -4.6144   -0.3127    0.9251 O   0  0  0  0  0  0  0  0  0  0  0  0
    6.6525   -1.9844   -0.2401 N   0  0  0  0  0  0  0  0  0  0  0  0
   -7.7563   -1.3091   -0.7203 N   0  0  0  0  0  0  0  0  0  0  0  0
    0.2830   -0.3486    1.0637 C   0  0  0  0  0  0  0  0  0  0  0  0
    1.4894    0.3851    0.5574 C   0  0  0  0  0  0  0  0  0  0  0  0
   -1.0061    0.2585    0.5944 C   0  0  0  0  0  0  0  0  0  0  0  0
    1.3529    1.5091   -0.2624 C   0  0  0  0  0  0  0  0  0  0  0  0
   -1.0083    1.3891   -0.2277 C   0  0  0  0  0  0  0  0  0  0  0  0
    2.7737   -0.0553    0.9046 C   0  0  0  0  0  0  0  0  0  0  0  0
   -2.2281   -0.3091    0.9787 C   0  0  0  0  0  0  0  0  0  0  0  0
    3.9025    0.6190    0.4380 C   0  0  0  0  0  0  0  0  0  0  0  0
   -3.4327    0.2464    0.5461 C   0  0  0  0  0  0  0  0  0  0  0  0
    2.4839    2.1845   -0.7293 C   0  0  0  0  0  0  0  0  0  0  0  0
   -2.2152    1.9453   -0.6607 C   0  0  0  0  0  0  0  0  0  0  0  0
    3.7574    1.7385   -0.3785 C   0  0  0  0  0  0  0  0  0  0  0  0
   -3.4259    1.3731   -0.2733 C   0  0  0  0  0  0  0  0  0  0  0  0
    6.1972    0.4191   -0.1540 C   0  0  0  0  0  0  0  0  0  0  0  0
   -5.7117   -0.1863    0.0220 C   0  0  0  0  0  0  0  0  0  0  0  0
    7.2413   -0.6752   -0.0009 C   0  0  0  0  0  0  0  0  0  0  0  0
   -6.6107   -1.4031    0.1723 C   0  0  0  0  0  0  0  0  0  0  0  0
    6.0847   -2.0589   -1.5885 C   0  0  0  0  0  0  0  0  0  0  0  0
    7.6480   -3.0426   -0.0519 C   0  0  0  0  0  0  0  0  0  0  0  0
   -8.5257   -0.0923   -0.4493 C   0  0  0  0  0  0  0  0  0  0  0  0
   -8.6142   -2.4892   -0.5888 C   0  0  0  0  0  0  0  0  0  0  0  0
  1  9  1  0
  1 10  1  0
  2 13  1  0
  2 19  1  0
  3 14  1  0
  3 20  1  0
  4 21  1  0
  4 23  1  0
  4 24  1  0
  5 22  1  0
  5 25  1  0
  5 26  1  0
  6  7  1  0
  6  8  1  0
  7  9  2  0
  7 11  1  0
  8 10  2  0
  8 12  1  0
  9 15  1  0
 10 16  1  0
 11 13  2  0
 12 14  2  0
 13 17  1  0
 14 18  1  0
 15 17  2  0
 16 18  2  0
 19 21  1  0
 20 22  1  0
M  END
>  <PUBCHEM_COMPOUND_CID>  (1) 
37882

>  <PUBCHEM_CONFORMER_RMSD>  (1) 
1

>  <PUBCHEM_CONFORMER_DIVERSEORDER>  (1) 
6
30
27
20
24
5
28
17
8
31
21
1
2
12
16
25
11
22
7
4
18
14
29
13
9
23
3
19
26
10
15

>  <PUBCHEM_MMFF94_PARTIAL_CHARGES>  (1) 
32
1 -0.17
10 0.08
11 -0.15
12 -0.15
13 0.08
14 0.08
15 -0.15
16 -0.15
17 -0.15
18 -0.15
19 0.28
2 -0.36
20 0.28
21 0.27
22 0.27
23 0.27
24 0.27
25 0.27
26 0.27
29 0.15
3 -0.36
30 0.15
31 0.15
32 0.15
33 0.15
34 0.15
4 -0.81
5 -0.81
6 0.29
7 -0.14
8 -0.14
9 0.08

>  <PUBCHEM_EFFECTIVE_ROTOR_COUNT>  (1) 
8.4

>  <PUBCHEM_PHARMACOPHORE_FEATURES>  (1) 
8
1 1 acceptor
1 2 acceptor
1 3 acceptor
1 4 cation
1 5 cation
6 1 6 7 8 9 10 rings
6 7 9 11 13 15 17 rings
6 8 10 12 14 16 18 rings

>  <PUBCHEM_HEAVY_ATOM_COUNT>  (1) 
26

>  <PUBCHEM_ATOM_DEF_STEREO_COUNT>  (1) 
0

>  <PUBCHEM_ATOM_UDEF_STEREO_COUNT>  (1) 
0

>  <PUBCHEM_BOND_DEF_STEREO_COUNT>  (1) 
0

>  <PUBCHEM_BOND_UDEF_STEREO_COUNT>  (1) 
0

>  <PUBCHEM_ISOTOPIC_ATOM_COUNT>  (1) 
0

>  <PUBCHEM_COMPONENT_COUNT>  (1) 
1

>  <PUBCHEM_CACTVS_TAUTO_COUNT>  (1) 
1

>  <PUBCHEM_CONFORMER_ID>  (1) 
000093FA00000006

>  <PUBCHEM_MMFF94_ENERGY>  (1) 
88.3721

>  <PUBCHEM_FEATURE_SELFOVERLAP>  (1) 
40.652

>  <PUBCHEM_SHAPE_FINGERPRINT>  (1) 
10 15 13254793547140437914
10066227 49 18412545396837438367
10693767 8 18262515893304244490
11386260 185 17386006233940475229
11408170 108 18201725042435031983
12166972 35 18342741827680568680
125118 31 8430314645464758670
13073987 5 13613980876294623449
13533116 47 18272936033888569616
13540713 4 16952551326957828992
13668630 136 18335698373609722303
13685833 64 18343586214160988586
13782708 43 18343022190022787714
13885169 127 18342739581750048649
14216079 64 18410293597102426110
14251757 52 11963388557125704142
14849402 71 9007054669701236471
14931854 50 17385720279428450963
15198563 99 17168130227612864229
15690457 1 18201997763830095015
15706992 2 8069747442466281863
16126227 98 9655574119774634693
1768 124 18060422400364772998
1818759 1 18335988644864429123
18603816 31 17560509703859585271
19301679 30 17059506119350413812
2026 5 18268431239997248062
20771845 140 16415480433254724958
21095123 293 12613019562971297151
21130935 74 18272370828818458698
21150785 3 14345793851242679857
21267235 1 18186525410228538193
21304304 249 18410858767264094871
21307412 95 17821738247042861763
21315759 40 17988929989483294811
21521239 73 18334577949496090554
21682296 61 18337399244851209458
221357 26 18113616798332951180
23522609 53 18120972501269660796
23559900 14 17968099788724135912
23569917 315 18341337773002426655
23569943 247 18050288060058173146
23576562 1 16154283852537641015
29717793 49 18333733545745525693
3004659 81 17603861243507435633
33532 11 18343301461518024398
335352 9 17968096460182016360
4340502 62 15769783471777308557
504579 68 17095244713386132087
5104073 3 12894533017217355495
5718773 13 18411702079818542534
5758199 1 10375874078303380821
59682541 35 11959729396004178367
59755656 215 17967250888527499234

>  <PUBCHEM_SHAPE_MULTIPOLES>  (1) 
507.5
25.16
2.55
1.02
20.35
1.07
-0.04
23.81
-5.52
-2.23
-0.89
-0.32
0.16
0.21

>  <PUBCHEM_SHAPE_SELFOVERLAP>  (1) 
1070.23

>  <PUBCHEM_SHAPE_VOLUME>  (1) 
287.8

>  <PUBCHEM_COORDINATE_TYPE>  (1) 
2
5
10

$$$$
