37886
     RDKit          3D

 25 27  0  0  0  0  0  0  0  0999 V2000
   -0.5091    0.1165   -0.2441 O   0  0  0  0  0  0  0  0  0  0  0  0
    4.2170    0.4263   -0.6895 O   0  0  0  0  0  0  0  0  0  0  0  0
   -0.2995   -3.8939    0.4187 O   0  0  0  0  0  0  0  0  0  0  0  0
    0.7809    2.3693    0.2448 N   0  0  0  0  0  0  0  0  0  0  0  0
    1.8350    0.2677   -0.4640 C   0  0  0  0  0  0  0  0  0  0  0  0
    0.7041   -0.5172   -0.2369 C   0  0  0  0  0  0  0  0  0  0  0  0
    1.7013    1.7384   -0.7003 C   0  0  0  0  0  0  0  0  0  0  0  0
    0.8370   -1.8842   -0.0164 C   0  0  0  0  0  0  0  0  0  0  0  0
    3.0992   -0.3215   -0.4695 C   0  0  0  0  0  0  0  0  0  0  0  0
   -1.6755   -1.9624    0.2104 C   0  0  0  0  0  0  0  0  0  0  0  0
   -1.6509   -0.6350   -0.0255 C   0  0  0  0  0  0  0  0  0  0  0  0
   -0.3718   -2.6872    0.2223 C   0  0  0  0  0  0  0  0  0  0  0  0
    2.1017   -2.4787   -0.0218 C   0  0  0  0  0  0  0  0  0  0  0  0
    3.2321   -1.6927   -0.2489 C   0  0  0  0  0  0  0  0  0  0  0  0
   -2.8681    0.1875   -0.0731 C   0  0  0  0  0  0  0  0  0  0  0  0
   -2.8900   -2.8034    0.4790 C   0  0  0  0  0  0  0  0  0  0  0  0
    0.6793    3.8039   -0.0207 C   0  0  0  0  0  0  0  0  0  0  0  0
    1.2193    2.1339    1.6201 C   0  0  0  0  0  0  0  0  0  0  0  0
    5.1983    0.4439    0.3451 C   0  0  0  0  0  0  0  0  0  0  0  0
   -3.3511    0.7870    1.0904 C   0  0  0  0  0  0  0  0  0  0  0  0
   -3.5409    0.3692   -1.2816 C   0  0  0  0  0  0  0  0  0  0  0  0
   -4.5063    1.5673    1.0455 C   0  0  0  0  0  0  0  0  0  0  0  0
   -4.6961    1.1497   -1.3265 C   0  0  0  0  0  0  0  0  0  0  0  0
    5.9328    1.7671    0.3056 C   0  0  0  0  0  0  0  0  0  0  0  0
   -5.1787    1.7487   -0.1629 C   0  0  0  0  0  0  0  0  0  0  0  0
  1  6  1  0
  1 11  1  0
  2  9  1  0
  2 19  1  0
  3 12  2  0
  4  7  1  0
  4 17  1  0
  4 18  1  0
  5  6  2  0
  5  7  1  0
  5  9  1  0
  6  8  1  0
  8 12  1  0
  8 13  2  0
  9 14  2  0
 10 11  2  0
 10 12  1  0
 10 16  1  0
 11 15  1  0
 13 14  1  0
 15 20  2  0
 15 21  1  0
 19 24  1  0
 20 22  1  0
 21 23  2  0
 22 25  2  0
 23 25  1  0
M  END
>  <PUBCHEM_COMPOUND_CID>  (1) 
37886

>  <PUBCHEM_CONFORMER_RMSD>  (1) 
0.8

>  <PUBCHEM_CONFORMER_DIVERSEORDER>  (1) 
1
7
4
2
5
6
3

>  <PUBCHEM_MMFF94_PARTIAL_CHARGES>  (1) 
31
1 -0.16
10 -0.12
11 0.05
12 0.47
13 -0.15
14 -0.15
15 0.03
16 0.14
17 0.27
18 0.27
19 0.28
2 -0.36
20 -0.15
21 -0.15
22 -0.15
23 -0.15
25 -0.15
28 0.15
29 0.15
3 -0.57
4 -0.81
41 0.15
42 0.15
43 0.15
44 0.15
48 0.15
5 -0.14
6 0.08
7 0.41
8 0.09
9 0.08

>  <PUBCHEM_EFFECTIVE_ROTOR_COUNT>  (1) 
5

>  <PUBCHEM_PHARMACOPHORE_FEATURES>  (1) 
7
1 1 acceptor
1 2 acceptor
1 3 acceptor
1 4 cation
6 1 6 8 10 11 12 rings
6 15 20 21 22 23 25 rings
6 5 6 8 9 13 14 rings

>  <PUBCHEM_HEAVY_ATOM_COUNT>  (1) 
25

>  <PUBCHEM_ATOM_DEF_STEREO_COUNT>  (1) 
0

>  <PUBCHEM_ATOM_UDEF_STEREO_COUNT>  (1) 
0

>  <PUBCHEM_BOND_DEF_STEREO_COUNT>  (1) 
0

>  <PUBCHEM_BOND_UDEF_STEREO_COUNT>  (1) 
0

>  <PUBCHEM_ISOTOPIC_ATOM_COUNT>  (1) 
0

>  <PUBCHEM_COMPONENT_COUNT>  (1) 
1

>  <PUBCHEM_CACTVS_TAUTO_COUNT>  (1) 
1

>  <PUBCHEM_CONFORMER_ID>  (1) 
000093FE00000001

>  <PUBCHEM_MMFF94_ENERGY>  (1) 
85.4689

>  <PUBCHEM_FEATURE_SELFOVERLAP>  (1) 
35.55

>  <PUBCHEM_SHAPE_FINGERPRINT>  (1) 
10165383 225 18261682506270816389
10411042 1 17472984381546962426
104564 63 17763748685069767677
10493431 412 18410298007796338883
10675989 125 17831008036297941685
10906281 52 18271259278313417020
10967382 1 18265338313165113735
1100329 8 18410579530376736704
11112241 14 17130124628603357760
12236239 1 17917427554776739797
12390115 104 18339377339078573366
12403260 363 18194396929582501526
12788726 201 18124319298820747890
13140716 1 18338239395798693688
14466204 15 18336542815418887464
14765038 42 18200891594518129649
14787075 74 18060698377720144928
14790565 3 18267592307712712848
15081414 286 18340496568901367796
15196674 1 18409731768283441478
1601671 61 18410291419786128576
18219364 16 18335150778053406729
18608769 82 18338236089480925835
19784866 34 18410573946713250679
20600515 1 18341909484372062236
20642791 178 18117006670275795308
20739085 24 17974028170679156636
21033648 29 17604145909834576397
21279426 13 18342184367079797566
23558518 356 17899980726814166371
23559900 14 18196080260847289033
335352 9 18337112272638633302
34934 24 18411696586977234158
350125 39 18265340680187771163
474 4 18339360760842200007
5104073 3 18333449850671864634
70251023 43 17696198006422124335
7226269 152 18412545414475938176
9981440 41 17053267747592858305

>  <PUBCHEM_SHAPE_MULTIPOLES>  (1) 
491.9
10
3.97
1.04
1.88
1.02
-0.07
-5.98
0.48
0.2
-0.74
-0.67
-0.43
0.49

>  <PUBCHEM_SHAPE_SELFOVERLAP>  (1) 
1062.279

>  <PUBCHEM_SHAPE_VOLUME>  (1) 
272

>  <PUBCHEM_COORDINATE_TYPE>  (1) 
2
5
10

$$$$
