3789
     RDKit          3D

 16 18  0  0  1  0  0  0  0  0999 V2000
   -2.6353   -1.5873    0.1826 O   0  0  0  0  0  0  0  0  0  0  0  0
   -4.2989    0.5455    0.2640 O   0  0  0  0  0  0  0  0  0  0  0  0
   -2.9169    0.7058    0.0936 N   0  0  0  0  0  0  0  0  0  0  0  0
    1.1959    1.3978    0.3641 C   0  0  0  0  0  0  0  0  0  0  0  0
    1.5955   -1.1171    0.4331 C   0  0  0  0  0  0  0  0  0  0  0  0
   -0.7091   -0.2079   -0.1029 C   0  0  0  0  0  0  0  0  0  0  0  0
    1.1582    0.0429   -1.7756 C   0  0  0  0  0  0  0  0  0  0  0  0
    1.9683    0.2493    1.0549 C   0  0  0  0  0  0  0  0  0  0  0  0
   -0.3203    1.1434    0.5267 C   0  0  0  0  0  0  0  0  0  0  0  0
    0.0737   -1.3366    0.5948 C   0  0  0  0  0  0  0  0  0  0  0  0
    1.5405    1.3910   -1.1430 C   0  0  0  0  0  0  0  0  0  0  0  0
    1.9338   -1.0846   -1.0751 C   0  0  0  0  0  0  0  0  0  0  0  0
   -0.3503   -0.1920   -1.5997 C   0  0  0  0  0  0  0  0  0  0  0  0
    1.5775    2.7431    0.9882 C   0  0  0  0  0  0  0  0  0  0  0  0
    2.3694   -2.2430    1.1252 C   0  0  0  0  0  0  0  0  0  0  0  0
   -2.1820   -0.4504    0.0691 C   0  0  0  0  0  0  0  0  0  0  0  0
  1 16  2  0
  2  3  1  0
  3 16  1  0
  4  8  1  0
  4  9  1  0
  4 11  1  0
  4 14  1  0
  5  8  1  0
  5 10  1  0
  5 12  1  0
  5 15  1  0
  6  9  1  0
  6 10  1  0
  6 13  1  0
  6 16  1  0
  7 11  1  0
  7 12  1  0
  7 13  1  0
M  END
>  <PUBCHEM_COMPOUND_CID>  (1) 
3789

>  <PUBCHEM_CONFORMER_RMSD>  (1) 
0.6

>  <PUBCHEM_CONFORMER_DIVERSEORDER>  (1) 
1
2
3

>  <PUBCHEM_MMFF94_PARTIAL_CHARGES>  (1) 
7
1 -0.57
16 0.57
2 -0.44
3 -0.39
36 0.37
37 0.4
6 0.06

>  <PUBCHEM_EFFECTIVE_ROTOR_COUNT>  (1) 
3.2

>  <PUBCHEM_PHARMACOPHORE_FEATURES>  (1) 
6
1 1 acceptor
1 3 donor
6 4 5 6 8 9 10 rings
6 4 5 7 8 11 12 rings
6 4 6 7 9 11 13 rings
6 5 6 7 10 12 13 rings

>  <PUBCHEM_HEAVY_ATOM_COUNT>  (1) 
16

>  <PUBCHEM_ATOM_DEF_STEREO_COUNT>  (1) 
0

>  <PUBCHEM_ATOM_UDEF_STEREO_COUNT>  (1) 
2

>  <PUBCHEM_BOND_DEF_STEREO_COUNT>  (1) 
0

>  <PUBCHEM_BOND_UDEF_STEREO_COUNT>  (1) 
0

>  <PUBCHEM_ISOTOPIC_ATOM_COUNT>  (1) 
0

>  <PUBCHEM_COMPONENT_COUNT>  (1) 
1

>  <PUBCHEM_CACTVS_TAUTO_COUNT>  (1) 
3

>  <PUBCHEM_CONFORMER_ID>  (1) 
00000ECD00000001

>  <PUBCHEM_MMFF94_ENERGY>  (1) 
57.3266

>  <PUBCHEM_FEATURE_SELFOVERLAP>  (1) 
42.917

>  <PUBCHEM_SHAPE_FINGERPRINT>  (1) 
10863032 1 18339084907708576556
10948715 1 18053664964882235128
11578080 2 17750778966379110140
12326174 3 18272374221489187828
12423570 1 11184660550860367636
12725867 57 17702956811761007724
13024252 1 17109005960833919338
13132413 78 18264766550128627100
13134695 92 18196634234013425221
13464514 151 18270135602809347408
13571099 52 18196934589544991121
14142880 1 14613685491126210394
14344429 50 18412548691039735941
14817 1 11224867827088160436
15852999 172 17317577097209903139
16945 1 18194373750007638056
20233049 118 18193564371900183461
20511035 2 18187935018305369571
20559304 39 18337395950442429857
21501502 16 18340482374250387903
21524375 3 17625816441571682096
22112679 90 17909855157481115944
22892500 29 18337371778472340533
23419403 2 17827041101508088644
2748010 2 18336550537722736039
305870 269 18266730475379895808
430814 3 17628345288472094808
528886 8 16951146030737829926
7364860 26 18341895211999869978
74978 22 18343592836837074291
81228 2 17694227668673159616

>  <PUBCHEM_SHAPE_MULTIPOLES>  (1) 
312.55
4.09
2.23
1.43
5.36
0.55
0.57
-0.35
-0.81
-1.49
-0.85
-0.79
0
-0.13

>  <PUBCHEM_SHAPE_SELFOVERLAP>  (1) 
677.13

>  <PUBCHEM_SHAPE_VOLUME>  (1) 
166.6

>  <PUBCHEM_COORDINATE_TYPE>  (1) 
2
5
10

$$$$
