37890
     RDKit          3D

 19 20  0  0  0  0  0  0  0  0999 V2000
   -1.0046   -1.3210    0.3235 O   0  0  0  0  0  0  0  0  0  0  0  0
    3.0819    1.1139    0.3612 O   0  0  0  0  0  0  0  0  0  0  0  0
   -3.1492    2.0620   -0.3736 O   0  0  0  0  0  0  0  0  0  0  0  0
    2.9302   -1.4813   -0.2415 N   0  0  0  0  0  0  0  0  0  0  0  0
    1.0206   -0.1113    0.3410 C   0  0  0  0  0  0  0  0  0  0  0  0
   -0.3685   -0.1156    0.2065 C   0  0  0  0  0  0  0  0  0  0  0  0
    1.7594   -1.3857    0.6005 C   0  0  0  0  0  0  0  0  0  0  0  0
   -1.0477    1.0729   -0.0338 C   0  0  0  0  0  0  0  0  0  0  0  0
    1.7254    1.0876    0.2332 C   0  0  0  0  0  0  0  0  0  0  0  0
   -2.5099    1.0372   -0.1710 C   0  0  0  0  0  0  0  0  0  0  0  0
   -3.1652   -0.2972   -0.0489 C   0  0  0  0  0  0  0  0  0  0  0  0
   -0.3461    2.2769   -0.1424 C   0  0  0  0  0  0  0  0  0  0  0  0
   -2.3852   -1.3711    0.1910 C   0  0  0  0  0  0  0  0  0  0  0  0
    1.0428    2.2799   -0.0084 C   0  0  0  0  0  0  0  0  0  0  0  0
    2.5623   -1.4526   -1.6629 C   0  0  0  0  0  0  0  0  0  0  0  0
    3.6924   -2.7022    0.0499 C   0  0  0  0  0  0  0  0  0  0  0  0
   -4.6544   -0.3069   -0.2340 C   0  0  0  0  0  0  0  0  0  0  0  0
   -2.9039   -2.7686    0.3733 C   0  0  0  0  0  0  0  0  0  0  0  0
    3.7198    2.3833    0.2364 C   0  0  0  0  0  0  0  0  0  0  0  0
  1  6  1  0
  1 13  1  0
  2  9  1  0
  2 19  1  0
  3 10  2  0
  4  7  1  0
  4 15  1  0
  4 16  1  0
  5  6  2  0
  5  7  1  0
  5  9  1  0
  6  8  1  0
  8 10  1  0
  8 12  2  0
  9 14  2  0
 10 11  1  0
 11 13  2  0
 11 17  1  0
 12 14  1  0
 13 18  1  0
M  END
>  <PUBCHEM_COMPOUND_CID>  (1) 
37890

>  <PUBCHEM_CONFORMER_RMSD>  (1) 
0.6

>  <PUBCHEM_CONFORMER_DIVERSEORDER>  (1) 
4
3
1
2
5
6

>  <PUBCHEM_MMFF94_PARTIAL_CHARGES>  (1) 
21
1 -0.16
10 0.47
11 -0.12
12 -0.15
13 -0.06
14 -0.15
15 0.27
16 0.27
17 0.14
18 0.14
19 0.28
2 -0.36
22 0.15
23 0.15
3 -0.57
4 -0.81
5 -0.14
6 0.08
7 0.41
8 0.09
9 0.08

>  <PUBCHEM_EFFECTIVE_ROTOR_COUNT>  (1) 
3

>  <PUBCHEM_PHARMACOPHORE_FEATURES>  (1) 
6
1 1 acceptor
1 2 acceptor
1 3 acceptor
1 4 cation
6 1 6 8 10 11 13 rings
6 5 6 8 9 12 14 rings

>  <PUBCHEM_HEAVY_ATOM_COUNT>  (1) 
19

>  <PUBCHEM_ATOM_DEF_STEREO_COUNT>  (1) 
0

>  <PUBCHEM_ATOM_UDEF_STEREO_COUNT>  (1) 
0

>  <PUBCHEM_BOND_DEF_STEREO_COUNT>  (1) 
0

>  <PUBCHEM_BOND_UDEF_STEREO_COUNT>  (1) 
0

>  <PUBCHEM_ISOTOPIC_ATOM_COUNT>  (1) 
0

>  <PUBCHEM_COMPONENT_COUNT>  (1) 
1

>  <PUBCHEM_CACTVS_TAUTO_COUNT>  (1) 
3

>  <PUBCHEM_CONFORMER_ID>  (1) 
0000940200000004

>  <PUBCHEM_MMFF94_ENERGY>  (1) 
66.52

>  <PUBCHEM_FEATURE_SELFOVERLAP>  (1) 
30.475

>  <PUBCHEM_SHAPE_FINGERPRINT>  (1) 
10608611 8 18410006645799865409
10616163 171 18266458904476183927
10967382 1 18409445920781648953
11578080 2 17097187486508985404
11680986 33 18409731785214825737
116883 192 18270402676570349380
12553582 1 18195256520205854818
12839892 36 18195227035750759746
13140716 1 18339368469823122115
13296908 3 18410291385104357489
14115302 16 17970923162922385254
14223421 5 18339078306048502001
14790565 3 17474963025751244784
15196674 1 18410008823996897049
15219456 202 18412544314346826476
15442244 35 18339642239602266177
15536298 74 18413106156167075969
16945 1 18265054815474987017
17804303 29 18266744584273467143
18186145 218 18189609454445129845
19591789 44 18192434074226112273
20510252 161 18341611499862695801
20600515 1 17766268779053951296
20645477 70 18272369784687991519
20691752 17 17676207931393046209
20905425 154 18340492256801188252
21267235 1 18409735049242543978
21501502 16 18341614797722033761
221490 88 18409173233419133586
22182313 1 18260537918887506661
22802520 49 18341057336715555247
23184049 29 18409445864931418722
2334 1 18410292540250074187
23366157 5 18113618980650604064
23402539 116 18118672455765507752
23557571 272 17769937875416092582
23559900 14 18268143172387318234
23566358 2 18409440393253879709
2748010 2 18410009940013043857
3084891 72 17978506425910046795
335352 9 18122341281481172557
34934 24 18339354288020451845
5104073 3 18410857646857431585
58051976 378 18337950215650563076
5902787 121 18337667495597534298
59755656 215 18409729603461461060
7364860 26 18341894116973269480
74978 22 18338235959871972347
81228 2 17482001034076319874
8809292 202 18265053539669194595
9709674 26 18410009974742209767

>  <PUBCHEM_SHAPE_MULTIPOLES>  (1) 
368.42
7.12
3.24
0.82
1.89
0.34
-0.23
1.69
-0.41
-1.69
0.03
-0.39
0.26
0.8

>  <PUBCHEM_SHAPE_SELFOVERLAP>  (1) 
783.351

>  <PUBCHEM_SHAPE_VOLUME>  (1) 
207.8

>  <PUBCHEM_COORDINATE_TYPE>  (1) 
2
5
10

$$$$
