37896
     RDKit          3D

 19 20  0  0  0  0  0  0  0  0999 V2000
    5.9893   -1.2372    0.0836 O   0  0  0  0  0  0  0  0  0  0  0  0
   -0.0208    0.8315    0.0329 O   0  0  0  0  0  0  0  0  0  0  0  0
    2.2787    2.0322    0.1264 O   0  0  0  0  0  0  0  0  0  0  0  0
    3.5607    0.1419   -0.2904 N   0  0  0  0  0  0  0  0  0  0  0  0
   -1.1783    0.0430   -0.0412 N   0  0  0  0  0  0  0  0  0  0  0  0
    4.8303    0.8659   -0.2293 C   0  0  0  0  0  0  0  0  0  0  0  0
    3.6882   -1.2651   -0.6848 C   0  0  0  0  0  0  0  0  0  0  0  0
    5.8446    0.0891    0.5980 C   0  0  0  0  0  0  0  0  0  0  0  0
    4.7542   -1.9542    0.1578 C   0  0  0  0  0  0  0  0  0  0  0  0
    2.3600    0.8221   -0.0990 C   0  0  0  0  0  0  0  0  0  0  0  0
    1.1003   -0.0029   -0.1739 C   0  0  0  0  0  0  0  0  0  0  0  0
   -2.2542    0.7497    0.1409 C   0  0  0  0  0  0  0  0  0  0  0  0
   -3.5747    0.0671    0.0645 C   0  0  0  0  0  0  0  0  0  0  0  0
   -4.6665    0.7828   -0.3771 C   0  0  0  0  0  0  0  0  0  0  0  0
   -3.6596   -1.2568    0.4376 C   0  0  0  0  0  0  0  0  0  0  0  0
   -2.2320    2.2406    0.4151 C   0  0  0  0  0  0  0  0  0  0  0  0
   -5.9040    0.1431   -0.4489 C   0  0  0  0  0  0  0  0  0  0  0  0
   -4.8971   -1.8964    0.3656 C   0  0  0  0  0  0  0  0  0  0  0  0
   -6.0192   -1.1964   -0.0777 C   0  0  0  0  0  0  0  0  0  0  0  0
  1  8  1  0
  1  9  1  0
  2  5  1  0
  2 11  1  0
  3 10  2  0
  4  6  1  0
  4  7  1  0
  4 10  1  0
  5 12  2  0
  6  8  1  0
  7  9  1  0
 10 11  1  0
 12 13  1  0
 12 16  1  0
 13 14  2  0
 13 15  1  0
 14 17  1  0
 15 18  2  0
 17 19  2  0
 18 19  1  0
M  END
>  <PUBCHEM_COMPOUND_CID>  (1) 
37896

>  <PUBCHEM_CONFORMER_RMSD>  (1) 
0.8

>  <PUBCHEM_CONFORMER_DIVERSEORDER>  (1) 
1
42
11
15
12
41
29
34
18
26
36
32
17
22
20
8
28
16
33
40
43
4
23
2
30
25
27
9
35
37
10
7
6
38
13
24
14
19
31
39
3
5
21

>  <PUBCHEM_MMFF94_PARTIAL_CHARGES>  (1) 
24
1 -0.56
10 0.57
11 0.34
12 0.3
13 0.09
14 -0.15
15 -0.15
16 0.06
17 -0.15
18 -0.15
19 -0.15
2 -0.22
3 -0.57
30 0.15
31 0.15
35 0.15
36 0.15
37 0.15
4 -0.66
5 -0.51
6 0.3
7 0.3
8 0.28
9 0.28

>  <PUBCHEM_EFFECTIVE_ROTOR_COUNT>  (1) 
6.2

>  <PUBCHEM_PHARMACOPHORE_FEATURES>  (1) 
5
1 1 acceptor
1 3 acceptor
1 5 acceptor
6 1 4 6 7 8 9 rings
6 13 14 15 17 18 19 rings

>  <PUBCHEM_HEAVY_ATOM_COUNT>  (1) 
19

>  <PUBCHEM_ATOM_DEF_STEREO_COUNT>  (1) 
0

>  <PUBCHEM_ATOM_UDEF_STEREO_COUNT>  (1) 
0

>  <PUBCHEM_BOND_DEF_STEREO_COUNT>  (1) 
0

>  <PUBCHEM_BOND_UDEF_STEREO_COUNT>  (1) 
1

>  <PUBCHEM_ISOTOPIC_ATOM_COUNT>  (1) 
0

>  <PUBCHEM_COMPONENT_COUNT>  (1) 
1

>  <PUBCHEM_CACTVS_TAUTO_COUNT>  (1) 
1

>  <PUBCHEM_CONFORMER_ID>  (1) 
0000940800000001

>  <PUBCHEM_MMFF94_ENERGY>  (1) 
46.9009

>  <PUBCHEM_FEATURE_SELFOVERLAP>  (1) 
25.373

>  <PUBCHEM_SHAPE_FINGERPRINT>  (1) 
10 15 18272358816122090120
10354089 29 12679459790166284698
10595046 47 18408608058783383620
10835480 77 18410566305967061333
11089746 13 13912323516426088948
11315181 36 18342741832091112393
11524674 6 17132115762651892063
11858739 19 18410855434485173158
12107183 9 17617378385776266256
12236239 1 18186802486820965021
12516196 113 18273494580608851817
12596602 18 17489872618192650194
12760667 363 18343584036659996881
13073987 5 18271805679768123640
13167823 11 18409448081013152618
13288520 33 18410012148364764301
13533116 47 18412262852724483832
13685833 64 18408889559651061579
13862211 1 18343581876175668951
1420 363 18272654553703956462
14251732 16 18341048601337787200
14251752 14 17313093121409031213
14341114 176 18411141337462194652
14848160 23 18409728469447442527
15048467 5 9295288339417013670
15183329 4 18040994020968793987
15352361 1 18410857659215000201
17834072 33 18335142011782692332
17844677 252 18409736157328606813
17857418 61 18410573976572338971
18222031 100 17748827419218047276
19489759 90 18040151816921732821
200 152 18273495676331842849
20374829 77 18334857221064777321
20645477 56 9367347029141048633
20645477 70 18410858729273806318
21267235 1 18411707585934655542
21623969 137 18060703883551486598
21682296 61 17845102770254083838
23035841 295 18333732425365352651
23198884 109 15502374526462677703
23402539 116 18409164420288368229
23559900 14 18337102458416737585
239999 70 18342745096582956982
26918003 58 18413388743909496901
29717793 49 17603868901343979620
3004659 81 18113900455579809390
329604 57 18343304764585271568
351380 180 18410575097643043315
4073 2 18040721419252157298
4214541 1 18409730634448797189
465052 167 18272092695236770038
5104073 3 18130224852972155576
542803 24 13117998894639474325
559249 180 18408039590171195479
57483677 66 18408602560808337923
59682541 35 18272357695378115250
59682541 52 13912869900859559120
59755656 215 18040992917151896083
67856867 119 18336267958707874236
7495541 125 17846213388693238496

>  <PUBCHEM_SHAPE_MULTIPOLES>  (1) 
363.44
17.19
1.96
0.7
3.48
0
0
6.56
0.03
-0.07
-0.2
0.01
0.03
0.29

>  <PUBCHEM_SHAPE_SELFOVERLAP>  (1) 
749.139

>  <PUBCHEM_SHAPE_VOLUME>  (1) 
208.1

>  <PUBCHEM_COORDINATE_TYPE>  (1) 
2
5
10

$$$$
