3790
     RDKit          3D

 22 23  0  0  0  0  0  0  0  0999 V2000
   -6.4092   -0.1017    0.7759 Br  0  0  0  0  0  0  0  0  0  0  0  0
    0.3507   -0.0142    0.1414 O   0  0  0  0  0  0  0  0  0  0  0  0
    2.3479   -0.2274    1.9185 O   0  0  0  0  0  0  0  0  0  0  0  0
    1.6945    0.0364   -0.2779 N   0  0  0  0  0  0  0  0  0  0  0  0
   -1.9181    0.0612   -0.5723 C   0  0  0  0  0  0  0  0  0  0  0  0
   -2.5791   -1.1631   -0.5089 C   0  0  0  0  0  0  0  0  0  0  0  0
   -2.5846    1.2374   -0.2371 C   0  0  0  0  0  0  0  0  0  0  0  0
   -3.9142   -1.2116   -0.1081 C   0  0  0  0  0  0  0  0  0  0  0  0
   -3.9197    1.1890    0.1638 C   0  0  0  0  0  0  0  0  0  0  0  0
   -4.5845   -0.0355    0.2282 C   0  0  0  0  0  0  0  0  0  0  0  0
   -0.4819    0.1134   -1.0032 C   0  0  0  0  0  0  0  0  0  0  0  0
   -1.8571   -2.4233   -0.8701 C   0  0  0  0  0  0  0  0  0  0  0  0
   -1.8687    2.5498   -0.3075 C   0  0  0  0  0  0  0  0  0  0  0  0
   -4.6044   -2.5396   -0.0478 C   0  0  0  0  0  0  0  0  0  0  0  0
   -4.6157    2.4669    0.5188 C   0  0  0  0  0  0  0  0  0  0  0  0
    2.6522   -0.0744    0.7215 C   0  0  0  0  0  0  0  0  0  0  0  0
    4.0459   -0.0244    0.3086 C   0  0  0  0  0  0  0  0  0  0  0  0
    5.0239   -0.6615    1.0722 C   0  0  0  0  0  0  0  0  0  0  0  0
    4.4040    0.6599   -0.8528 C   0  0  0  0  0  0  0  0  0  0  0  0
    6.3600   -0.6144    0.6744 C   0  0  0  0  0  0  0  0  0  0  0  0
    5.7401    0.7071   -1.2506 C   0  0  0  0  0  0  0  0  0  0  0  0
    6.7181    0.0699   -0.4871 C   0  0  0  0  0  0  0  0  0  0  0  0
  1 10  1  0
  2  4  1  0
  2 11  1  0
  3 16  2  0
  4 16  1  0
  5  6  2  0
  5  7  1  0
  5 11  1  0
  6  8  1  0
  6 12  1  0
  7  9  2  0
  7 13  1  0
  8 10  2  0
  8 14  1  0
  9 10  1  0
  9 15  1  0
 16 17  1  0
 17 18  2  0
 17 19  1  0
 18 20  1  0
 19 21  2  0
 20 22  2  0
 21 22  1  0
M  END
>  <PUBCHEM_COMPOUND_CID>  (1) 
3790

>  <PUBCHEM_CONFORMER_RMSD>  (1) 
0.8

>  <PUBCHEM_CONFORMER_DIVERSEORDER>  (1) 
1
15
24
28
11
2
23
26
17
19
16
20
22
13
4
25
18
7
10
29
14
6
3
27
12
5
8
9
21

>  <PUBCHEM_MMFF94_PARTIAL_CHARGES>  (1) 
28
1 -0.11
10 0.11
11 0.42
12 0.14
13 0.14
14 0.14
15 0.14
16 0.54
17 0.09
18 -0.15
19 -0.15
2 -0.32
20 -0.15
21 -0.15
22 -0.15
3 -0.57
37 0.37
38 0.15
39 0.15
4 -0.39
40 0.15
41 0.15
42 0.15
5 -0.14
6 -0.14
7 -0.14
8 -0.14
9 -0.14

>  <PUBCHEM_EFFECTIVE_ROTOR_COUNT>  (1) 
5

>  <PUBCHEM_PHARMACOPHORE_FEATURES>  (1) 
5
1 1 hydrophobe
1 3 acceptor
1 4 donor
6 17 18 19 20 21 22 rings
6 5 6 7 8 9 10 rings

>  <PUBCHEM_HEAVY_ATOM_COUNT>  (1) 
22

>  <PUBCHEM_ATOM_DEF_STEREO_COUNT>  (1) 
0

>  <PUBCHEM_ATOM_UDEF_STEREO_COUNT>  (1) 
0

>  <PUBCHEM_BOND_DEF_STEREO_COUNT>  (1) 
0

>  <PUBCHEM_BOND_UDEF_STEREO_COUNT>  (1) 
0

>  <PUBCHEM_ISOTOPIC_ATOM_COUNT>  (1) 
0

>  <PUBCHEM_COMPONENT_COUNT>  (1) 
1

>  <PUBCHEM_CACTVS_TAUTO_COUNT>  (1) 
2

>  <PUBCHEM_CONFORMER_ID>  (1) 
00000ECE00000001

>  <PUBCHEM_MMFF94_ENERGY>  (1) 
77.6661

>  <PUBCHEM_FEATURE_SELFOVERLAP>  (1) 
25.371

>  <PUBCHEM_SHAPE_FINGERPRINT>  (1) 
10299344 5 18260268547228693754
10411042 1 18124595547440003087
10595046 47 18260830414997770236
10912923 1 18040431092822310592
11089746 13 11600002159543969762
11273773 42 17751379463427179060
11315181 36 18333731342289931932
11524674 6 17131833179214890359
11545043 162 17989201577097286378
12107183 9 17540806201595651384
12236239 1 17894632552185957709
12390115 104 17987809497236144737
12516196 113 16081089285596968941
12596602 18 17675928702852815769
12616971 3 17748822995586075524
13140716 1 18196943378260999035
13167823 11 18261106366551904442
13540713 4 18051992320835133103
13540713 5 17981055416903501437
13782708 43 17417808503972659590
14341114 328 18186519890957867520
14840074 17 16950566588273730318
14849402 71 18188488116611869668
14933364 13 18343866641366424896
15042514 8 18269273646608826791
15183329 4 18408604747616663174
15250474 111 18188475931061592626
15537594 2 18186235134557850587
15716309 27 17822010904108464594
17834072 33 18113899368842326764
17844677 252 18272933864492157192
18927931 339 18272088331660916599
19377110 9 17822279189868487040
200 152 16370720431072726749
21033648 29 16988548096452554712
21267235 1 18336271227662633227
21792961 116 17346326960545343884
220451 1 18187647986083680178
22950370 63 18333447643063435324
2297311 6 18343871025662793045
2303208 19 17489875946924043206
23035841 295 18335139799531656531
23081809 10 18040154020382224540
23175994 123 16702302377586206585
23522609 53 17969527964561741028
23536379 177 18410575072595809154
23559900 14 18267858561762903497
2838139 119 14117526415844174699
335352 9 18410571808858533957
34797466 226 18059584615675542132
3545911 37 18060139821011169854
4214541 1 18412260631909939004
4325135 7 18040155119598505270
497634 4 17894908555210998311
5104073 3 18341891934966587328
5265222 85 18129386067824816846
5385378 56 17631746962758494287
542803 24 18186519899927597108
57724786 102 16056590023504976418
59755656 215 17775573026346591310
59755656 520 14836400333529661997
7495541 125 18342454876873347048

>  <PUBCHEM_SHAPE_MULTIPOLES>  (1) 
441.97
17.55
2.12
1.13
18.74
0.06
0.18
-0.5
2.05
-4.05
-0.26
1
-0.07
-1.15

>  <PUBCHEM_SHAPE_SELFOVERLAP>  (1) 
923.505

>  <PUBCHEM_SHAPE_VOLUME>  (1) 
258.5

>  <PUBCHEM_COORDINATE_TYPE>  (1) 
2
5
10

$$$$
