37902
     RDKit          3D

 27 28  0  0  0  0  0  0  0  0999 V2000
    6.7544    1.6408    1.4325 Cl  0  0  0  0  0  0  0  0  0  0  0  0
   -4.2492    0.7821   -0.0831 O   0  0  0  0  0  0  0  0  0  0  0  0
    4.5094    1.5064   -0.7954 O   0  0  0  0  0  0  0  0  0  0  0  0
   -7.5766   -0.7750   -0.3826 N   0  0  0  0  0  0  0  0  0  0  0  0
   -2.9585    0.2414   -0.1169 N   0  0  0  0  0  0  0  0  0  0  0  0
    3.4059   -0.3748    0.0828 N   0  0  0  0  0  0  0  0  0  0  0  0
    8.0758   -0.4348    0.6623 N   0  0  0  0  0  0  0  0  0  0  0  0
   -6.5860    0.2863   -0.2061 C   0  0  0  0  0  0  0  0  0  0  0  0
   -7.7767   -1.5010    0.8709 C   0  0  0  0  0  0  0  0  0  0  0  0
   -8.8424   -0.2185   -0.8587 C   0  0  0  0  0  0  0  0  0  0  0  0
   -5.1769   -0.2835   -0.2407 C   0  0  0  0  0  0  0  0  0  0  0  0
   -8.7579   -2.6470    0.6910 C   0  0  0  0  0  0  0  0  0  0  0  0
   -9.4343    0.7455    0.1554 C   0  0  0  0  0  0  0  0  0  0  0  0
   -0.6217    0.7606    0.0384 C   0  0  0  0  0  0  0  0  0  0  0  0
   -2.0541    1.1648    0.0222 C   0  0  0  0  0  0  0  0  0  0  0  0
    2.0631    0.0034    0.0673 C   0  0  0  0  0  0  0  0  0  0  0  0
    0.3566    1.6420   -0.4219 C   0  0  0  0  0  0  0  0  0  0  0  0
   -0.2575   -0.4994    0.5132 C   0  0  0  0  0  0  0  0  0  0  0  0
    1.6989    1.2635   -0.4075 C   0  0  0  0  0  0  0  0  0  0  0  0
    1.0849   -0.8780    0.5276 C   0  0  0  0  0  0  0  0  0  0  0  0
   -2.3864    2.6353    0.1821 C   0  0  0  0  0  0  0  0  0  0  0  0
    4.5169    0.3700   -0.3343 C   0  0  0  0  0  0  0  0  0  0  0  0
    5.8276   -0.3217   -0.2194 C   0  0  0  0  0  0  0  0  0  0  0  0
    6.0274   -1.5163   -0.9023 C   0  0  0  0  0  0  0  0  0  0  0  0
    6.8740    0.1726    0.5426 C   0  0  0  0  0  0  0  0  0  0  0  0
    7.2502   -2.1708   -0.8039 C   0  0  0  0  0  0  0  0  0  0  0  0
    8.2330   -1.5939   -0.0158 C   0  0  0  0  0  0  0  0  0  0  0  0
  1 25  1  0
  2  5  1  0
  2 11  1  0
  3 22  2  0
  4  8  1  0
  4  9  1  0
  4 10  1  0
  5 15  2  0
  6 16  1  0
  6 22  1  0
  7 25  2  0
  7 27  1  0
  8 11  1  0
  9 12  1  0
 10 13  1  0
 14 15  1  0
 14 17  2  0
 14 18  1  0
 15 21  1  0
 16 19  2  0
 16 20  1  0
 17 19  1  0
 18 20  2  0
 22 23  1  0
 23 24  2  0
 23 25  1  0
 24 26  1  0
 26 27  2  0
M  END
>  <PUBCHEM_COMPOUND_CID>  (1) 
37902

>  <PUBCHEM_CONFORMER_RMSD>  (1) 
1

>  <PUBCHEM_CONFORMER_DIVERSEORDER>  (1) 
2
29
80
64
18
40
55
53
21
58
8
13
23
37
48
57
19
65
32
49
75
25
79
42
39
31
6
9
62
51
30
54
59
34
16
69
71
67
14
60
47
24
46
10
28
81
36
74
43
76
56
11
78
33
73
61
45
17
35
44
70
68
38
15
50
20
27
4
26
72
22
5
1
52
63
41
77
12
66
7
3

>  <PUBCHEM_MMFF94_PARTIAL_CHARGES>  (1) 
33
1 -0.18
10 0.27
11 0.28
14 0.09
15 0.3
16 0.12
17 -0.15
18 -0.15
19 -0.15
2 -0.22
20 -0.15
21 0.06
22 0.54
23 0.09
24 -0.15
25 0.49
26 -0.15
27 0.16
3 -0.57
4 -0.81
42 0.15
43 0.15
44 0.15
45 0.15
49 0.37
5 -0.51
50 0.15
51 0.15
52 0.15
6 -0.55
7 -0.62
8 0.27
9 0.27

>  <PUBCHEM_EFFECTIVE_ROTOR_COUNT>  (1) 
10

>  <PUBCHEM_PHARMACOPHORE_FEATURES>  (1) 
7
1 3 acceptor
1 4 cation
1 5 acceptor
1 6 donor
1 7 acceptor
6 14 16 17 18 19 20 rings
6 7 23 24 25 26 27 rings

>  <PUBCHEM_HEAVY_ATOM_COUNT>  (1) 
27

>  <PUBCHEM_ATOM_DEF_STEREO_COUNT>  (1) 
0

>  <PUBCHEM_ATOM_UDEF_STEREO_COUNT>  (1) 
0

>  <PUBCHEM_BOND_DEF_STEREO_COUNT>  (1) 
0

>  <PUBCHEM_BOND_UDEF_STEREO_COUNT>  (1) 
1

>  <PUBCHEM_ISOTOPIC_ATOM_COUNT>  (1) 
0

>  <PUBCHEM_COMPONENT_COUNT>  (1) 
1

>  <PUBCHEM_CACTVS_TAUTO_COUNT>  (1) 
3

>  <PUBCHEM_CONFORMER_ID>  (1) 
0000940E00000002

>  <PUBCHEM_MMFF94_ENERGY>  (1) 
75.3429

>  <PUBCHEM_FEATURE_SELFOVERLAP>  (1) 
35.522

>  <PUBCHEM_SHAPE_FINGERPRINT>  (1) 
10 15 11743838053911228869
10050765 1 18051130294263975517
10299344 5 17203605990997911975
11135926 11 18409157810724681327
11181472 205 12108049060198319919
11315181 36 11386367033482473319
12082328 90 18411979136144337413
13617811 41 17240765056617511268
13668630 136 18333449837411863655
13692114 37 18187643631135328418
13885169 127 18340769256913067365
14150022 121 16128383632396041057
14251764 18 12679465283608661429
14251764 46 18410292505890329207
15419008 91 18262216889891064476
15510794 2 18409448098203591003
15690457 1 18272084998312497103
1754908 1 17561081427845492819
1754911 235 11169910598195089915
1818759 1 18410580578069078263
18335252 114 13118001110901037310
18335252 98 18273495668147888726
20771845 171 14996566141130074242
21130935 74 18198906903854033754
21150785 3 15864070962067355583
21267235 1 18409169913709827661
21315763 28 18407760339544848445
21792934 111 18343857822907529737
21792961 116 18335695010845586773
22224240 67 12031785860059843893
232437 2 18412544319670506983
23569917 315 18335709312712986866
23569943 247 17759808044714637482
23576562 1 14924809932825240223
246663 6 18273216387050406815
249057 3 15864359064231325495
3178227 256 17060621109328252590
335352 9 18113624482683039038
34797466 226 17132117957575338764
4325135 7 18260546714879892727
5283156 175 18412263921722941133
54039377 194 18409169931169434407
59682541 35 18202560704876785048
6126387 218 17988645178092825441
67123 10 18411981368756950732

>  <PUBCHEM_SHAPE_MULTIPOLES>  (1) 
525.85
33.36
2.16
0.91
36.6
0.2
0.1
16.67
1.76
0.22
0.13
-0.49
0.03
2.06

>  <PUBCHEM_SHAPE_SELFOVERLAP>  (1) 
1079.567

>  <PUBCHEM_SHAPE_VOLUME>  (1) 
303.8

>  <PUBCHEM_COORDINATE_TYPE>  (1) 
2
5
10

$$$$
