37900
     RDKit          3D

 20 21  0  0  0  0  0  0  0  0999 V2000
   -6.3043   -1.3884   -0.0840 O   0  0  0  0  0  0  0  0  0  0  0  0
   -0.3783    0.9100   -0.0317 O   0  0  0  0  0  0  0  0  0  0  0  0
   -2.7225    2.0218   -0.1099 O   0  0  0  0  0  0  0  0  0  0  0  0
   -3.9296    0.0802    0.2949 N   0  0  0  0  0  0  0  0  0  0  0  0
    0.8090    0.1662    0.0332 N   0  0  0  0  0  0  0  0  0  0  0  0
    6.9701   -1.4842    0.1090 N   0  0  0  0  0  0  0  0  0  0  0  0
   -5.2263    0.7553    0.2427 C   0  0  0  0  0  0  0  0  0  0  0  0
   -4.0017   -1.3336    0.6784 C   0  0  0  0  0  0  0  0  0  0  0  0
   -6.2123   -0.0534   -0.5881 C   0  0  0  0  0  0  0  0  0  0  0  0
   -5.0426   -2.0566   -0.1670 C   0  0  0  0  0  0  0  0  0  0  0  0
   -2.7566    0.8077    0.1060 C   0  0  0  0  0  0  0  0  0  0  0  0
   -1.4657    0.0314    0.1712 C   0  0  0  0  0  0  0  0  0  0  0  0
    3.2024    0.2835   -0.0782 C   0  0  0  0  0  0  0  0  0  0  0  0
    1.8564    0.9153   -0.1458 C   0  0  0  0  0  0  0  0  0  0  0  0
    4.2670    1.0370    0.3664 C   0  0  0  0  0  0  0  0  0  0  0  0
    3.3372   -1.0329   -0.4633 C   0  0  0  0  0  0  0  0  0  0  0  0
    5.6945   -0.8858    0.0457 C   0  0  0  0  0  0  0  0  0  0  0  0
    5.5285    0.4451    0.4290 C   0  0  0  0  0  0  0  0  0  0  0  0
    4.5988   -1.6249   -0.4005 C   0  0  0  0  0  0  0  0  0  0  0  0
    1.7760    2.4063   -0.4080 C   0  0  0  0  0  0  0  0  0  0  0  0
  1  9  1  0
  1 10  1  0
  2  5  1  0
  2 12  1  0
  3 11  2  0
  4  7  1  0
  4  8  1  0
  4 11  1  0
  5 14  2  0
  6 17  1  0
  7  9  1  0
  8 10  1  0
 11 12  1  0
 13 14  1  0
 13 15  2  0
 13 16  1  0
 14 20  1  0
 15 18  1  0
 16 19  2  0
 17 18  2  0
 17 19  1  0
M  END
>  <PUBCHEM_COMPOUND_CID>  (1) 
37900

>  <PUBCHEM_CONFORMER_RMSD>  (1) 
0.8

>  <PUBCHEM_CONFORMER_DIVERSEORDER>  (1) 
1
37
36
19
3
6
40
8
33
2
16
41
18
32
22
27
9
4
31
38
29
20
14
12
17
25
23
35
13
11
10
24
30
28
42
21
26
39
5
15
7
34

>  <PUBCHEM_MMFF94_PARTIAL_CHARGES>  (1) 
26
1 -0.56
10 0.28
11 0.57
12 0.34
13 0.09
14 0.3
15 -0.15
16 -0.15
17 0.1
18 -0.15
19 -0.15
2 -0.22
20 0.06
3 -0.57
31 0.15
32 0.15
33 0.15
34 0.15
38 0.4
39 0.4
4 -0.66
5 -0.51
6 -0.9
7 0.3
8 0.3
9 0.28

>  <PUBCHEM_EFFECTIVE_ROTOR_COUNT>  (1) 
6.2

>  <PUBCHEM_PHARMACOPHORE_FEATURES>  (1) 
7
1 1 acceptor
1 3 acceptor
1 5 acceptor
1 6 cation
1 6 donor
6 1 4 7 8 9 10 rings
6 13 15 16 17 18 19 rings

>  <PUBCHEM_HEAVY_ATOM_COUNT>  (1) 
20

>  <PUBCHEM_ATOM_DEF_STEREO_COUNT>  (1) 
0

>  <PUBCHEM_ATOM_UDEF_STEREO_COUNT>  (1) 
0

>  <PUBCHEM_BOND_DEF_STEREO_COUNT>  (1) 
0

>  <PUBCHEM_BOND_UDEF_STEREO_COUNT>  (1) 
1

>  <PUBCHEM_ISOTOPIC_ATOM_COUNT>  (1) 
0

>  <PUBCHEM_COMPONENT_COUNT>  (1) 
1

>  <PUBCHEM_CACTVS_TAUTO_COUNT>  (1) 
2

>  <PUBCHEM_CONFORMER_ID>  (1) 
0000940C00000001

>  <PUBCHEM_MMFF94_ENERGY>  (1) 
59.7955

>  <PUBCHEM_FEATURE_SELFOVERLAP>  (1) 
35.522

>  <PUBCHEM_SHAPE_FINGERPRINT>  (1) 
10354089 29 13110964227893011218
11315181 36 18272936033698438081
11524674 6 16845573128026701871
12166972 35 18343022207282376120
12236239 1 18273497870522145465
12516196 113 18342455941671821480
12596602 18 17632580448395906474
13167823 11 18411981377536776399
13288520 33 18410293619078143141
13533116 47 18342458187955717040
13668630 136 18113898282136797963
13685833 64 18410295813025748722
13862211 1 18335138670472228850
1420 363 18343585144023178406
14251732 16 18343300409498755488
14251751 18 18341333374511705943
14251752 14 16950552256115114783
14251764 18 18272650160685596560
14848160 23 18412824698554733875
15048467 5 9295289438923327731
15183329 4 18113333098684182555
15352361 1 18410013242969780833
15716309 27 17989767808658916215
17844677 252 18341619212948829928
17857418 61 18410856568435692839
18222031 100 17676205779952034724
19489759 90 18186239515925379121
200 152 18201720665509325081
20028762 73 18343582945501895030
21267235 1 18410299107249781888
21623969 137 17703793604513435286
23402539 116 18408319999769306501
23522609 53 18120970314788331388
23559900 14 18336823208233092825
26918003 58 18202284688661245009
29717793 49 17967817154253409308
3004659 81 18113617898065650840
4073 2 18187932810692017426
4214541 1 18410576154279162977
4340502 62 15123789570564519628
465052 167 18202004305423827342
5104073 3 18202281360357061840
542803 24 12967129419345103504
559249 180 18410292502465832423
5718773 13 18262796247505467810
59682541 35 18130776885799107946
59755656 215 18040994016642346963
67856867 119 18339081621864104917
7495541 125 17704068538165153392

>  <PUBCHEM_SHAPE_MULTIPOLES>  (1) 
379.04
18.51
2.02
0.69
3.58
0.12
0
-8.53
-0.14
0.03
0.17
0.05
-0.03
0.24

>  <PUBCHEM_SHAPE_SELFOVERLAP>  (1) 
783.202

>  <PUBCHEM_SHAPE_VOLUME>  (1) 
216.9

>  <PUBCHEM_COORDINATE_TYPE>  (1) 
2
5
10

$$$$
