37913
     RDKit          3D

 23 24  0  0  1  0  0  0  0  0999 V2000
    5.9840   -1.0357    2.0647 Cl  0  0  0  0  0  0  0  0  0  0  0  0
   -3.7688   -2.8038   -0.9033 O   0  0  0  0  0  0  0  0  0  0  0  0
   -1.9884   -2.3735    0.4427 O   0  0  0  0  0  0  0  0  0  0  0  0
    4.5514    0.2420   -0.3683 N   0  0  0  0  0  0  0  0  0  0  0  0
   -1.0328    0.5630   -0.6481 N   0  0  0  0  0  0  0  0  0  0  0  0
   -1.5287    0.3608    0.4845 N   0  0  0  0  0  0  0  0  0  0  0  0
    3.1453    0.3279   -0.4376 C   0  0  0  0  0  0  0  0  0  0  0  0
    5.2191   -1.0303   -0.5581 C   0  0  0  0  0  0  0  0  0  0  0  0
    2.5104    1.5541   -0.2405 C   0  0  0  0  0  0  0  0  0  0  0  0
    1.1197    1.6386   -0.3091 C   0  0  0  0  0  0  0  0  0  0  0  0
    2.3894   -0.8139   -0.7037 C   0  0  0  0  0  0  0  0  0  0  0  0
    0.3691    0.4965   -0.5750 C   0  0  0  0  0  0  0  0  0  0  0  0
    5.3459    1.4223   -0.0925 C   0  0  0  0  0  0  0  0  0  0  0  0
    0.9987   -0.7294   -0.7726 C   0  0  0  0  0  0  0  0  0  0  0  0
    5.1739   -1.8649    0.7122 C   0  0  0  0  0  0  0  0  0  0  0  0
    0.4622    2.9628   -0.0954 C   0  0  0  0  0  0  0  0  0  0  0  0
   -2.9260    0.4272    0.4121 C   0  0  0  0  0  0  0  0  0  0  0  0
   -3.6847   -0.7126    0.1461 C   0  0  0  0  0  0  0  0  0  0  0  0
   -3.5577    1.6550    0.6102 C   0  0  0  0  0  0  0  0  0  0  0  0
   -5.0752   -0.6246    0.0782 C   0  0  0  0  0  0  0  0  0  0  0  0
   -4.9482    1.7430    0.5424 C   0  0  0  0  0  0  0  0  0  0  0  0
   -5.7069    0.6031    0.2764 C   0  0  0  0  0  0  0  0  0  0  0  0
   -3.0518   -2.0078   -0.0652 C   0  0  0  0  0  0  0  0  0  0  0  0
  1 15  1  0
  2 23  1  0
  3 23  2  0
  4  7  1  0
  4  8  1  0
  4 13  1  0
  5  6  2  0
  5 12  1  0
  6 17  1  0
  7  9  2  0
  7 11  1  0
  8 15  1  0
  9 10  1  0
 10 12  2  0
 10 16  1  0
 11 14  2  0
 12 14  1  0
 17 18  2  0
 17 19  1  0
 18 20  1  0
 18 23  1  0
 19 21  2  0
 20 22  2  0
 21 22  1  0
M  END
>  <PUBCHEM_COMPOUND_CID>  (1) 
37913

>  <PUBCHEM_CONFORMER_RMSD>  (1) 
0.8

>  <PUBCHEM_CONFORMER_DIVERSEORDER>  (1) 
3
16
7
50
21
40
52
32
38
44
60
43
37
39
8
58
46
45
12
22
59
10
26
55
18
30
15
35
54
31
49
28
42
57
27
9
1
20
23
29
5
24
41
36
14
17
11
25
6
2
51
19
56
4
33
34
47
53
13
48

>  <PUBCHEM_MMFF94_PARTIAL_CHARGES>  (1) 
31
1 -0.29
10 -0.14
11 -0.15
12 0.18
13 0.37
14 -0.15
15 0.29
16 0.14
17 0.18
18 0.09
19 -0.15
2 -0.65
20 -0.15
21 -0.15
22 -0.15
23 0.63
26 0.15
27 0.15
3 -0.57
31 0.15
37 0.15
38 0.15
39 0.15
4 -0.84
40 0.15
41 0.5
5 -0.18
6 -0.18
7 0.1
8 0.37
9 -0.15

>  <PUBCHEM_EFFECTIVE_ROTOR_COUNT>  (1) 
6

>  <PUBCHEM_PHARMACOPHORE_FEATURES>  (1) 
6
1 2 acceptor
1 3 acceptor
1 4 cation
3 2 3 23 anion
6 17 18 19 20 21 22 rings
6 7 9 10 11 12 14 rings

>  <PUBCHEM_HEAVY_ATOM_COUNT>  (1) 
23

>  <PUBCHEM_ATOM_DEF_STEREO_COUNT>  (1) 
0

>  <PUBCHEM_ATOM_UDEF_STEREO_COUNT>  (1) 
0

>  <PUBCHEM_BOND_DEF_STEREO_COUNT>  (1) 
0

>  <PUBCHEM_BOND_UDEF_STEREO_COUNT>  (1) 
0

>  <PUBCHEM_ISOTOPIC_ATOM_COUNT>  (1) 
0

>  <PUBCHEM_COMPONENT_COUNT>  (1) 
1

>  <PUBCHEM_CACTVS_TAUTO_COUNT>  (1) 
1

>  <PUBCHEM_CONFORMER_ID>  (1) 
0000941900000003

>  <PUBCHEM_MMFF94_ENERGY>  (1) 
79.2491

>  <PUBCHEM_FEATURE_SELFOVERLAP>  (1) 
30.503

>  <PUBCHEM_SHAPE_FINGERPRINT>  (1) 
11045977 3 17989486329566463064
11405975 8 18412266168054250953
11578080 2 13037535474220433065
12107183 9 18193842526766921944
12236239 1 18186241731885800427
12596602 18 18202275923371511778
12633257 1 18410015424760134053
13167823 11 18408325509727069914
14251752 14 17385999521227947789
14341114 176 18341622528705435972
14790565 3 17688881147861561452
15183329 4 18335422343981591027
15196674 1 18412268371282634062
15250474 111 18338227262832983350
15348495 7 17988634221003363218
15788980 27 17385444310478442244
17492 89 18121503715782818379
17857418 61 18334289873212713442
1813 80 17313108544636766996
19141452 34 18410860958023917557
19489759 90 17775005652908871905
19784866 140 14634868617764422660
200 152 17917715716764296765
20511986 3 18336535066907625099
21033648 29 16774078453402390616
21267235 1 18339375131649720239
21421861 104 17970066639169496986
21703447 108 17767956898300270099
21859007 373 17897717678935405373
220451 1 18260274048997105212
22061861 79 15068337891739909746
23366157 5 17972321982168223084
23402539 116 18343019969904731221
23522609 53 17898321371001493484
23559900 14 18271802488634036809
23622692 118 18057600070080284447
3004659 81 18260274023491162558
335352 9 18411142420353363245
345986 75 17751059341965278800
34797466 226 17131845295317612132
3680242 22 18262239907010563730
4073 2 18115594897387409240
4214541 1 18412832395463377333
4340502 62 15051731963246239420
4409770 3 17898559891762369901
5104073 3 18341056314745500121
559249 180 18336546032476076979
5924683 9 18130222765739693375
59755656 215 18269848514668954286
67856867 119 18268151044308511029
9709674 26 18195537102214223463

>  <PUBCHEM_SHAPE_MULTIPOLES>  (1) 
448.52
14.56
2.63
1.04
4.74
0.14
-0.36
3.14
-4.05
-0.91
0.05
1.24
0.3
-1.5

>  <PUBCHEM_SHAPE_SELFOVERLAP>  (1) 
943.023

>  <PUBCHEM_SHAPE_VOLUME>  (1) 
254.8

>  <PUBCHEM_COORDINATE_TYPE>  (1) 
2
5
10

$$$$
