37917
     RDKit          3D

 20 22  0  0  0  0  0  0  0  0999 V2000
    3.1002    2.6750    0.3878 O   0  0  0  0  0  0  0  0  0  0  0  0
   -3.4222   -0.0752    0.0411 N   0  0  0  0  0  0  0  0  0  0  0  0
    1.8050   -2.6456    0.0696 N   0  0  0  0  0  0  0  0  0  0  0  0
   -4.3232    0.0914    1.1811 C   0  0  0  0  0  0  0  0  0  0  0  0
   -3.3719    1.2394   -0.5982 C   0  0  0  0  0  0  0  0  0  0  0  0
   -5.4493    0.9375    0.6056 C   0  0  0  0  0  0  0  0  0  0  0  0
   -4.8250    1.6892   -0.5659 C   0  0  0  0  0  0  0  0  0  0  0  0
   -2.1054   -0.5505    0.4383 C   0  0  0  0  0  0  0  0  0  0  0  0
   -1.2038   -0.7590   -0.7811 C   0  0  0  0  0  0  0  0  0  0  0  0
    0.1536   -1.2720   -0.4000 C   0  0  0  0  0  0  0  0  0  0  0  0
    1.2813   -0.4831   -0.0932 C   0  0  0  0  0  0  0  0  0  0  0  0
    0.4872   -2.5896   -0.2973 C   0  0  0  0  0  0  0  0  0  0  0  0
    2.3156   -1.3739    0.2019 C   0  0  0  0  0  0  0  0  0  0  0  0
    1.5401    0.9006   -0.0328 C   0  0  0  0  0  0  0  0  0  0  0  0
   -0.2968   -3.8223   -0.5057 C   0  0  0  0  0  0  0  0  0  0  0  0
    3.6007   -0.9485    0.5565 C   0  0  0  0  0  0  0  0  0  0  0  0
    2.8209    1.3408    0.3208 C   0  0  0  0  0  0  0  0  0  0  0  0
    3.8338    0.4286    0.6104 C   0  0  0  0  0  0  0  0  0  0  0  0
    0.4857    1.9210   -0.3346 C   0  0  0  0  0  0  0  0  0  0  0  0
    3.5735    3.2962   -0.8042 C   0  0  0  0  0  0  0  0  0  0  0  0
  1 17  1  0
  1 20  1  0
  2  4  1  0
  2  5  1  0
  2  8  1  0
  3 12  1  0
  3 13  1  0
  4  6  1  0
  5  7  1  0
  6  7  1  0
  8  9  1  0
  9 10  1  0
 10 11  1  0
 10 12  2  0
 11 13  2  0
 11 14  1  0
 12 15  1  0
 13 16  1  0
 14 17  2  0
 14 19  1  0
 16 18  2  0
 17 18  1  0
M  END
>  <PUBCHEM_COMPOUND_CID>  (1) 
37917

>  <PUBCHEM_CONFORMER_RMSD>  (1) 
0.8

>  <PUBCHEM_CONFORMER_DIVERSEORDER>  (1) 
2
8
7
3
5
1
6
4

>  <PUBCHEM_MMFF94_PARTIAL_CHARGES>  (1) 
20
1 -0.36
10 -0.18
12 -0.33
13 -0.15
14 -0.14
15 0.18
16 -0.15
17 0.08
18 -0.15
19 0.14
2 -0.81
20 0.28
3 0.03
33 0.27
37 0.15
38 0.15
4 0.27
5 0.27
8 0.27
9 0.18

>  <PUBCHEM_EFFECTIVE_ROTOR_COUNT>  (1) 
5

>  <PUBCHEM_PHARMACOPHORE_FEATURES>  (1) 
7
1 1 acceptor
1 2 cation
1 3 cation
1 3 donor
5 2 4 5 6 7 rings
5 3 10 11 12 13 rings
6 11 13 14 16 17 18 rings

>  <PUBCHEM_HEAVY_ATOM_COUNT>  (1) 
20

>  <PUBCHEM_ATOM_DEF_STEREO_COUNT>  (1) 
0

>  <PUBCHEM_ATOM_UDEF_STEREO_COUNT>  (1) 
0

>  <PUBCHEM_BOND_DEF_STEREO_COUNT>  (1) 
0

>  <PUBCHEM_BOND_UDEF_STEREO_COUNT>  (1) 
0

>  <PUBCHEM_ISOTOPIC_ATOM_COUNT>  (1) 
0

>  <PUBCHEM_COMPONENT_COUNT>  (1) 
1

>  <PUBCHEM_CACTVS_TAUTO_COUNT>  (1) 
1

>  <PUBCHEM_CONFORMER_ID>  (1) 
0000941D00000002

>  <PUBCHEM_MMFF94_ENERGY>  (1) 
45.9581

>  <PUBCHEM_FEATURE_SELFOVERLAP>  (1) 
35.614

>  <PUBCHEM_SHAPE_FINGERPRINT>  (1) 
10411042 1 17691406308862739846
10493431 412 18266458904666594700
1100329 8 18340481257727527384
12390115 104 18051145979521989948
12633257 1 17968084322472524283
12788726 201 17689140632099080530
13140716 1 18265323079591205458
13540713 5 18047738576255678626
13583140 156 16951660593758330496
138480 1 17979073786457439959
13965767 371 18118379943224519840
14123255 52 18339643463573142717
14178342 30 17834657672104580168
14790565 3 18409737283158898580
15342168 16 18410013281814358453
15475509 8 17986695692173004854
1601671 61 18336548227177874612
16945 1 18337091442025953326
18785283 64 18333734615297734516
19427546 62 18410856543251646375
19784866 9 18343017757590021777
20157964 124 18340199675740878053
204376 136 18341334474234291315
20645477 70 18337947875457531823
20739085 24 18265056838541675008
21197605 99 18265342879565104579
21524375 3 18201152260425458351
21709351 56 18340760464645371623
21756936 100 18126284392324544980
22182313 1 18051395289810140630
23184049 59 18410008814710506798
23557571 272 13326565229927680811
23558518 356 18046343304036642642
23559900 14 18265332798970424731
2838139 119 15194413469916789834
3060560 45 18200314308074592070
3178227 256 18336839597632927386
335352 9 18411979161919181998
350125 39 18123470746047359763
474 4 18413387622928372531
49207404 50 18334306383087949099
5048184 11 18267585891052294781
5104073 3 18334300847154699481
633830 44 18201442488576861861
7808743 9 18049445043581784468
7832392 63 18268143339685074006
8272917 22 18270965618398202631
9999458 23 18333734611282387630

>  <PUBCHEM_SHAPE_MULTIPOLES>  (1) 
395.76
9.21
3.72
0.89
11.03
1.19
0.04
-6.63
1.8
-3.12
-0.94
0.32
-0.09
-0.19

>  <PUBCHEM_SHAPE_SELFOVERLAP>  (1) 
845.197

>  <PUBCHEM_SHAPE_VOLUME>  (1) 
224.8

>  <PUBCHEM_COORDINATE_TYPE>  (1) 
2
5
10

$$$$
