37911
     RDKit          3D

 21 23  0  0  0  0  0  0  0  0999 V2000
    3.5983   -0.5041    0.2187 O   0  0  0  0  0  0  0  0  0  0  0  0
    1.7463    2.3966    1.0980 O   0  0  0  0  0  0  0  0  0  0  0  0
    3.3096    0.0791   -2.0072 O   0  0  0  0  0  0  0  0  0  0  0  0
    2.4003    0.2240    0.5080 N   0  0  0  0  0  0  0  0  0  0  0  0
   -2.8170   -1.9672    0.3941 C   0  0  0  0  0  0  0  0  0  0  0  0
   -1.3640   -1.5473    0.4723 C   0  0  0  0  0  0  0  0  0  0  0  0
   -1.2268   -0.1783    0.1498 C   0  0  0  0  0  0  0  0  0  0  0  0
   -3.4909   -0.6732   -0.0119 C   0  0  0  0  0  0  0  0  0  0  0  0
   -2.5366    0.3598   -0.1485 C   0  0  0  0  0  0  0  0  0  0  0  0
    0.0198    0.4246    0.1573 C   0  0  0  0  0  0  0  0  0  0  0  0
   -0.2687   -2.3255    0.8036 C   0  0  0  0  0  0  0  0  0  0  0  0
    1.1308   -0.3561    0.4913 C   0  0  0  0  0  0  0  0  0  0  0  0
   -4.8376   -0.4479   -0.2365 C   0  0  0  0  0  0  0  0  0  0  0  0
   -2.9294    1.6366   -0.5142 C   0  0  0  0  0  0  0  0  0  0  0  0
    0.9878   -1.7173    0.8112 C   0  0  0  0  0  0  0  0  0  0  0  0
   -5.2333    0.8392   -0.6053 C   0  0  0  0  0  0  0  0  0  0  0  0
   -4.2888    1.8711   -0.7427 C   0  0  0  0  0  0  0  0  0  0  0  0
    2.6239    1.5815    0.8112 C   0  0  0  0  0  0  0  0  0  0  0  0
    4.0626    2.0524    0.7855 C   0  0  0  0  0  0  0  0  0  0  0  0
    3.9266   -0.4825   -1.1121 C   0  0  0  0  0  0  0  0  0  0  0  0
    5.1871   -1.2652   -1.3226 C   0  0  0  0  0  0  0  0  0  0  0  0
  1  4  1  0
  1 20  1  0
  2 18  2  0
  3 20  2  0
  4 12  1  0
  4 18  1  0
  5  6  1  0
  5  8  1  0
  6  7  2  0
  6 11  1  0
  7  9  1  0
  7 10  1  0
  8  9  2  0
  8 13  1  0
  9 14  1  0
 10 12  2  0
 11 15  2  0
 12 15  1  0
 13 16  2  0
 14 17  2  0
 16 17  1  0
 18 19  1  0
 20 21  1  0
M  END
>  <PUBCHEM_COMPOUND_CID>  (1) 
37911

>  <PUBCHEM_CONFORMER_RMSD>  (1) 
0.6

>  <PUBCHEM_CONFORMER_DIVERSEORDER>  (1) 
1
51
44
50
2
6
45
36
22
49
41
23
40
18
35
42
10
21
12
39
24
46
27
43
34
17
37
48
30
38
31
5
47
32
9
11
33
14
20
28
15
8
16
4
26
3
25
19
29
7
13

>  <PUBCHEM_MMFF94_PARTIAL_CHARGES>  (1) 
26
1 -0.19
10 -0.15
11 -0.15
12 0.12
13 -0.15
14 -0.15
15 -0.15
16 -0.15
17 -0.15
18 0.57
19 0.06
2 -0.57
20 0.66
21 0.06
24 0.15
25 0.15
26 0.15
27 0.15
28 0.15
29 0.15
3 -0.57
30 0.15
4 -0.14
5 0.29
6 -0.14
8 -0.14

>  <PUBCHEM_EFFECTIVE_ROTOR_COUNT>  (1) 
4.2

>  <PUBCHEM_PHARMACOPHORE_FEATURES>  (1) 
5
1 2 acceptor
1 3 acceptor
5 5 6 7 8 9 rings
6 6 7 10 11 12 15 rings
6 8 9 13 14 16 17 rings

>  <PUBCHEM_HEAVY_ATOM_COUNT>  (1) 
21

>  <PUBCHEM_ATOM_DEF_STEREO_COUNT>  (1) 
0

>  <PUBCHEM_ATOM_UDEF_STEREO_COUNT>  (1) 
0

>  <PUBCHEM_BOND_DEF_STEREO_COUNT>  (1) 
0

>  <PUBCHEM_BOND_UDEF_STEREO_COUNT>  (1) 
0

>  <PUBCHEM_ISOTOPIC_ATOM_COUNT>  (1) 
0

>  <PUBCHEM_COMPONENT_COUNT>  (1) 
1

>  <PUBCHEM_CACTVS_TAUTO_COUNT>  (1) 
1

>  <PUBCHEM_CONFORMER_ID>  (1) 
0000941700000001

>  <PUBCHEM_MMFF94_ENERGY>  (1) 
76.1606

>  <PUBCHEM_FEATURE_SELFOVERLAP>  (1) 
25.536

>  <PUBCHEM_SHAPE_FINGERPRINT>  (1) 
10498660 4 18261104162964812317
10608611 8 18338227262768945921
10646746 165 18334852839913272864
10670039 82 17895196554121699516
12173636 292 18261667155888927695
12236239 1 16877663474257463942
12403259 415 18408041810326610585
12916748 109 18334857255424437953
12954195 1 18056488257070151172
13544592 145 18411984667502726774
14251757 17 18343302565424619232
14289901 80 15068607289052020219
15183329 4 17822866269222880022
15196674 1 18408877464885863137
15536298 74 18341888623446431833
1601671 61 17603587395885890180
17349148 13 15051739681033243230
1813 80 13326571882362569419
18186145 218 18342741827273645955
19784866 240 15626231182331128430
19862831 5 18272088279577684363
200 152 16559033761655182691
20369508 70 18272367543232033786
20645477 56 18337951319509775873
20645477 70 17632583759979085318
22122407 14 14851612046634601933
221357 26 18272087175924394829
22182313 1 18267311021867096082
22393880 68 18410567371297603791
23227448 37 18268420403624883367
23366157 5 17388252334691540003
23493267 7 17240774990011853283
23557571 272 18194400228291321859
23559900 14 18341612637891469616
3004659 81 18188214174854587950
3060560 45 18059569157592332662
32948 21 18336268959677340550
3298306 158 18340772550409607598
474 4 17167866339809570483
495365 180 17560509729270218232
4990 188 18273495658703593911
5104073 3 18115019707146297617
5161694 15 18343867727333456126
5281201 14 18201721772935823052
633830 44 18341321249903399661
7399639 24 17194029476685211938
7808743 9 17971470947420474800
9709674 26 18268991071144132875

>  <PUBCHEM_SHAPE_MULTIPOLES>  (1) 
409.58
10.59
2.38
1.17
0.08
0.21
-0.36
2.4
-3.93
0.09
0.65
1.4
0.06
1.75

>  <PUBCHEM_SHAPE_SELFOVERLAP>  (1) 
896.515

>  <PUBCHEM_SHAPE_VOLUME>  (1) 
223.1

>  <PUBCHEM_COORDINATE_TYPE>  (1) 
2
5
10

$$$$
