37918
     RDKit          3D

 24 27  0  0  0  0  0  0  0  0999 V2000
    3.4555    3.2555    0.0059 O   0  0  0  0  0  0  0  0  0  0  0  0
   -2.5021   -0.5177    0.1727 N   0  0  0  0  0  0  0  0  0  0  0  0
    3.0794   -2.2142    0.0168 N   0  0  0  0  0  0  0  0  0  0  0  0
   -4.0832    1.0917   -1.0097 C   0  0  0  0  0  0  0  0  0  0  0  0
   -4.8700   -0.4611    1.1092 C   0  0  0  0  0  0  0  0  0  0  0  0
   -4.8428    1.8707    0.0681 C   0  0  0  0  0  0  0  0  0  0  0  0
   -4.8860   -0.1477   -1.4352 C   0  0  0  0  0  0  0  0  0  0  0  0
   -5.2825    1.0075    1.2435 C   0  0  0  0  0  0  0  0  0  0  0  0
   -5.3246   -1.0186   -0.2487 C   0  0  0  0  0  0  0  0  0  0  0  0
   -2.6480    0.7412   -0.5590 C   0  0  0  0  0  0  0  0  0  0  0  0
   -3.3569   -0.6556    1.3524 C   0  0  0  0  0  0  0  0  0  0  0  0
   -1.1005   -0.7595    0.5160 C   0  0  0  0  0  0  0  0  0  0  0  0
   -0.2393   -0.8882   -0.7429 C   0  0  0  0  0  0  0  0  0  0  0  0
    1.2001   -1.1602   -0.4181 C   0  0  0  0  0  0  0  0  0  0  0  0
    2.1927   -0.1801   -0.2144 C   0  0  0  0  0  0  0  0  0  0  0  0
    1.7543   -2.3968   -0.2748 C   0  0  0  0  0  0  0  0  0  0  0  0
    3.3753   -0.8703    0.0604 C   0  0  0  0  0  0  0  0  0  0  0  0
    2.2182    1.2286   -0.2328 C   0  0  0  0  0  0  0  0  0  0  0  0
    1.1787   -3.7512   -0.3810 C   0  0  0  0  0  0  0  0  0  0  0  0
    4.5868   -0.2196    0.3194 C   0  0  0  0  0  0  0  0  0  0  0  0
    3.4230    1.8929    0.0247 C   0  0  0  0  0  0  0  0  0  0  0  0
    4.5878    1.1780    0.2963 C   0  0  0  0  0  0  0  0  0  0  0  0
    5.8525   -0.9537    0.6125 C   0  0  0  0  0  0  0  0  0  0  0  0
    2.2316    3.9283   -0.2814 C   0  0  0  0  0  0  0  0  0  0  0  0
  1 21  1  0
  1 24  1  0
  2 10  1  0
  2 11  1  0
  2 12  1  0
  3 16  1  0
  3 17  1  0
  4  6  1  0
  4  7  1  0
  4 10  1  0
  5  8  1  0
  5  9  1  0
  5 11  1  0
  6  8  1  0
  7  9  1  0
 12 13  1  0
 13 14  1  0
 14 15  1  0
 14 16  2  0
 15 17  2  0
 15 18  1  0
 16 19  1  0
 17 20  1  0
 18 21  2  0
 20 22  2  0
 20 23  1  0
 21 22  1  0
M  END
>  <PUBCHEM_COMPOUND_CID>  (1) 
37918

>  <PUBCHEM_CONFORMER_RMSD>  (1) 
0.8

>  <PUBCHEM_CONFORMER_DIVERSEORDER>  (1) 
1
6
12
7
17
18
19
20
10
14
9
16
13
11
4
8
15
2
3
5

>  <PUBCHEM_MMFF94_PARTIAL_CHARGES>  (1) 
20
1 -0.36
10 0.27
11 0.27
12 0.27
13 0.18
14 -0.18
16 -0.33
17 -0.15
18 -0.15
19 0.18
2 -0.81
20 -0.14
21 0.08
22 -0.15
23 0.14
24 0.28
3 0.03
43 0.27
44 0.15
48 0.15

>  <PUBCHEM_EFFECTIVE_ROTOR_COUNT>  (1) 
5.4

>  <PUBCHEM_PHARMACOPHORE_FEATURES>  (1) 
7
1 1 acceptor
1 2 cation
1 3 cation
1 3 donor
5 3 14 15 16 17 rings
6 15 17 18 20 21 22 rings
9 2 4 5 6 7 8 9 10 11 rings

>  <PUBCHEM_HEAVY_ATOM_COUNT>  (1) 
24

>  <PUBCHEM_ATOM_DEF_STEREO_COUNT>  (1) 
0

>  <PUBCHEM_ATOM_UDEF_STEREO_COUNT>  (1) 
0

>  <PUBCHEM_BOND_DEF_STEREO_COUNT>  (1) 
0

>  <PUBCHEM_BOND_UDEF_STEREO_COUNT>  (1) 
0

>  <PUBCHEM_ISOTOPIC_ATOM_COUNT>  (1) 
0

>  <PUBCHEM_COMPONENT_COUNT>  (1) 
1

>  <PUBCHEM_CACTVS_TAUTO_COUNT>  (1) 
1

>  <PUBCHEM_CONFORMER_ID>  (1) 
0000941E00000001

>  <PUBCHEM_MMFF94_ENERGY>  (1) 
62.4888

>  <PUBCHEM_FEATURE_SELFOVERLAP>  (1) 
35.614

>  <PUBCHEM_SHAPE_FINGERPRINT>  (1) 
10090160 65 18343018882708396987
10411042 1 17979073787360195622
11045977 3 17967813864055187851
11370993 144 18191590749002865013
11545043 162 17240488013403556369
12107183 9 17551240558416686051
12166972 35 18201998837387205648
12236239 1 17561360664964783462
12507557 5 18411700963358985297
12616971 3 18131072653741228797
12769317 202 18341608230780387392
12925494 130 18338515223743320921
13402501 40 18259981561297382476
13583140 156 18114177527872618203
13631057 29 17916573380276822791
14251764 38 18410858729073755393
14466204 15 18337102368153631784
14849402 71 18337113470797585756
15081414 286 18341335483693978964
17844677 252 18340774758444010957
18681886 176 18342449357734896242
18785283 64 18261677073010735684
19489759 90 16877659059432075115
20157964 124 18340485574222537223
20511986 3 17774990272478127521
21033648 144 18189324826682687029
21033648 29 17313088766312472749
21033650 10 14907084658676455602
21315763 129 18408602561103620193
21709351 56 18413103965791907543
21792961 116 18041835096800588950
22122407 14 18130241384660513377
23559900 14 18337670802506184731
245318 6 17753344349949762077
3178227 256 18335145284943430498
335352 9 18411699916288934902
351380 180 18334853922266130425
4015057 19 18409162251445928417
4325135 7 18201716267568497599
4409770 3 15463852783790385078
474 4 18413106190584895018
508706 21 17458893856716235317
5104073 3 18189342282057538683
7808743 9 17761215810097173292
8272917 22 18270686367924634926

>  <PUBCHEM_SHAPE_MULTIPOLES>  (1) 
478.08
13.69
3.43
1.04
7.54
1.23
-0.06
2.74
-2.04
-4.13
0.46
1.38
-0.04
0.02

>  <PUBCHEM_SHAPE_SELFOVERLAP>  (1) 
1025.72

>  <PUBCHEM_SHAPE_VOLUME>  (1) 
262.1

>  <PUBCHEM_COORDINATE_TYPE>  (1) 
2
5
10

$$$$
