37920
     RDKit          3D

 20 21  0  0  0  0  0  0  0  0999 V2000
    3.3905    2.6999    0.2451 O   0  0  0  0  0  0  0  0  0  0  0  0
    1.9731   -2.5987    0.2720 N   0  0  0  0  0  0  0  0  0  0  0  0
   -3.1953    0.0798   -0.3013 N   0  0  0  0  0  0  0  0  0  0  0  0
    0.3720   -1.2238   -0.4161 C   0  0  0  0  0  0  0  0  0  0  0  0
    1.5193   -0.4455   -0.0954 C   0  0  0  0  0  0  0  0  0  0  0  0
   -0.9258   -0.7213   -0.9149 C   0  0  0  0  0  0  0  0  0  0  0  0
    2.5093   -1.3322    0.3336 C   0  0  0  0  0  0  0  0  0  0  0  0
    0.6820   -2.5434   -0.1799 C   0  0  0  0  0  0  0  0  0  0  0  0
    1.8115    0.9325   -0.1289 C   0  0  0  0  0  0  0  0  0  0  0  0
   -1.9135   -0.3865    0.2168 C   0  0  0  0  0  0  0  0  0  0  0  0
    3.7820   -0.9081    0.7320 C   0  0  0  0  0  0  0  0  0  0  0  0
    3.0802    1.3713    0.2667 C   0  0  0  0  0  0  0  0  0  0  0  0
   -0.1219   -3.7707   -0.3379 C   0  0  0  0  0  0  0  0  0  0  0  0
    4.0489    0.4634    0.6900 C   0  0  0  0  0  0  0  0  0  0  0  0
    0.8046    1.9484   -0.5744 C   0  0  0  0  0  0  0  0  0  0  0  0
   -4.1159    0.3801    0.7858 C   0  0  0  0  0  0  0  0  0  0  0  0
   -5.4593    0.8595    0.2960 C   0  0  0  0  0  0  0  0  0  0  0  0
    3.9504    3.2128   -0.9610 C   0  0  0  0  0  0  0  0  0  0  0  0
   -6.2367   -0.0677   -0.5950 C   0  0  0  0  0  0  0  0  0  0  0  0
   -5.9555    2.0501    0.6667 C   0  0  0  0  0  0  0  0  0  0  0  0
  1 12  1  0
  1 18  1  0
  2  7  1  0
  2  8  1  0
  3 10  1  0
  3 16  1  0
  4  5  1  0
  4  6  1  0
  4  8  2  0
  5  7  2  0
  5  9  1  0
  6 10  1  0
  7 11  1  0
  8 13  1  0
  9 12  2  0
  9 15  1  0
 11 14  2  0
 12 14  1  0
 16 17  1  0
 17 19  1  0
 17 20  2  0
M  END
>  <PUBCHEM_COMPOUND_CID>  (1) 
37920

>  <PUBCHEM_CONFORMER_RMSD>  (1) 
0.8

>  <PUBCHEM_CONFORMER_DIVERSEORDER>  (1) 
1
16
17
10
12
18
4
3
5
2
11
9
21
6
8
14
15
7
19
20
13

>  <PUBCHEM_MMFF94_PARTIAL_CHARGES>  (1) 
25
1 -0.36
10 0.27
11 -0.15
12 0.08
13 0.18
14 -0.15
15 0.14
16 0.41
17 -0.28
18 0.28
19 0.14
2 0.03
20 -0.3
23 0.27
26 0.15
3 -0.9
30 0.15
34 0.36
4 -0.18
43 0.15
44 0.15
6 0.18
7 -0.15
8 -0.33
9 -0.14

>  <PUBCHEM_EFFECTIVE_ROTOR_COUNT>  (1) 
6

>  <PUBCHEM_PHARMACOPHORE_FEATURES>  (1) 
7
1 1 acceptor
1 2 cation
1 2 donor
1 3 cation
1 3 donor
5 2 4 5 7 8 rings
6 5 7 9 11 12 14 rings

>  <PUBCHEM_HEAVY_ATOM_COUNT>  (1) 
20

>  <PUBCHEM_ATOM_DEF_STEREO_COUNT>  (1) 
0

>  <PUBCHEM_ATOM_UDEF_STEREO_COUNT>  (1) 
0

>  <PUBCHEM_BOND_DEF_STEREO_COUNT>  (1) 
0

>  <PUBCHEM_BOND_UDEF_STEREO_COUNT>  (1) 
0

>  <PUBCHEM_ISOTOPIC_ATOM_COUNT>  (1) 
0

>  <PUBCHEM_COMPONENT_COUNT>  (1) 
1

>  <PUBCHEM_CACTVS_TAUTO_COUNT>  (1) 
1

>  <PUBCHEM_CONFORMER_ID>  (1) 
0000942000000001

>  <PUBCHEM_MMFF94_ENERGY>  (1) 
42.2052

>  <PUBCHEM_FEATURE_SELFOVERLAP>  (1) 
35.612

>  <PUBCHEM_SHAPE_FINGERPRINT>  (1) 
10090160 65 18412538791641467043
10411042 1 17834394519285105522
10493431 412 18265894855227847988
10595046 47 18342735214042127853
10688039 33 17749669580658593301
12236239 1 17846491509411227935
12390115 104 18049175650437352068
12403259 327 16805321123550390041
12633257 1 17821997727217379219
12788726 201 17182233937248514511
13140716 1 18263914609607049250
13540713 5 18046611581174457986
13583140 156 16662019548646588788
13878862 14 18192692494019527213
13965767 371 18118099576375725800
14178342 30 17834095826036894688
14251764 75 18267317593352279321
14528608 73 18343019999995603165
14774955 27 18336545010163298701
14790565 3 18192158306729104292
15342168 16 18336547221786470349
15475509 35 16226594201095026272
15475509 8 18200044945691022566
16945 1 18263622075168711294
17810953 82 18411140220903079689
19377110 9 18131359601223732235
19427546 62 18410294697015259851
19784866 9 18343017770522389923
20157964 124 18339640037191307085
20715895 44 17696194700035966905
20739085 24 18260553311691748908
21033648 29 17022892438027566741
21197605 99 18264496251253485171
23559900 14 18267306435285453715
245318 6 17897743173750693045
2748010 2 17978204090841772950
335352 9 18411136953250164558
34797466 226 15123501554231459881
350125 39 18409449163857010524
4409770 3 15962326267394278735
474 4 18411698785963598939
5104073 3 18260824951129554915
633830 44 18343020016516232782
8272917 22 18341897325329865223
9999458 23 18260830393365048598

>  <PUBCHEM_SHAPE_MULTIPOLES>  (1) 
395.76
11.7
3.63
0.88
22.38
0.96
-0.03
-8.51
1.73
-3.39
-0.61
0
-0.16
-1.25

>  <PUBCHEM_SHAPE_SELFOVERLAP>  (1) 
824.915

>  <PUBCHEM_SHAPE_VOLUME>  (1) 
228.8

>  <PUBCHEM_COORDINATE_TYPE>  (1) 
2
5
10

$$$$
