37934
     RDKit          3D

 27 28  0  0  1  0  0  0  0  0999 V2000
    2.2819   -0.2694    0.5615 O   0  0  0  0  0  0  0  0  0  0  0  0
    1.5193   -1.5604   -1.1654 O   0  0  0  0  0  0  0  0  0  0  0  0
   -4.5858    0.9129   -0.2850 O   0  0  0  0  0  0  0  0  0  0  0  0
    4.5450    1.4165   -0.1025 N   0  0  0  0  0  0  0  0  0  0  0  0
    0.1099   -0.1242    0.0311 N   0  0  0  0  0  0  0  0  0  0  0  0
    4.6305    0.2516    0.7833 C   0  0  0  0  0  0  0  0  0  0  0  0
    3.5915   -0.8025    0.3709 C   0  0  0  0  0  0  0  0  0  0  0  0
    6.0521   -0.3234    0.7523 C   0  0  0  0  0  0  0  0  0  0  0  0
    3.7246   -2.0752    1.2110 C   0  0  0  0  0  0  0  0  0  0  0  0
    6.1654   -1.5896    1.5979 C   0  0  0  0  0  0  0  0  0  0  0  0
    5.1403   -2.6371    1.1756 C   0  0  0  0  0  0  0  0  0  0  0  0
    4.8700    1.0355   -1.4752 C   0  0  0  0  0  0  0  0  0  0  0  0
    5.4390    2.4746    0.3628 C   0  0  0  0  0  0  0  0  0  0  0  0
    4.7873    2.2298   -2.4106 C   0  0  0  0  0  0  0  0  0  0  0  0
    5.0761    2.9211    1.7689 C   0  0  0  0  0  0  0  0  0  0  0  0
    1.3080   -0.7346   -0.2856 C   0  0  0  0  0  0  0  0  0  0  0  0
   -1.1496   -0.3074   -0.5839 C   0  0  0  0  0  0  0  0  0  0  0  0
   -2.2596    0.4018   -0.1252 C   0  0  0  0  0  0  0  0  0  0  0  0
   -1.2822   -1.1977   -1.6494 C   0  0  0  0  0  0  0  0  0  0  0  0
   -6.7622    0.7455    0.7110 C   0  0  0  0  0  0  0  0  0  0  0  0
   -3.5023    0.2208   -0.7322 C   0  0  0  0  0  0  0  0  0  0  0  0
   -8.1530    0.1226    0.6137 C   0  0  0  0  0  0  0  0  0  0  0  0
   -5.8597    0.2860   -0.4254 C   0  0  0  0  0  0  0  0  0  0  0  0
   -9.0654    0.6215    1.7339 C   0  0  0  0  0  0  0  0  0  0  0  0
   -2.5250   -1.3788   -2.2564 C   0  0  0  0  0  0  0  0  0  0  0  0
   -3.6350   -0.6695   -1.7977 C   0  0  0  0  0  0  0  0  0  0  0  0
  -10.4612    0.0296    1.6207 C   0  0  0  0  0  0  0  0  0  0  0  0
  1  7  1  0
  1 16  1  0
  2 16  2  0
  3 21  1  0
  3 23  1  0
  4  6  1  0
  4 12  1  0
  4 13  1  0
  5 16  1  0
  5 17  1  0
  6  7  1  0
  6  8  1  0
  7  9  1  0
  8 10  1  0
  9 11  1  0
 10 11  1  0
 12 14  1  0
 13 15  1  0
 17 18  2  0
 17 19  1  0
 18 21  1  0
 19 25  2  0
 20 22  1  0
 20 23  1  0
 21 26  2  0
 22 24  1  0
 24 27  1  0
 25 26  1  0
M  END
>  <PUBCHEM_COMPOUND_CID>  (1) 
37934

>  <PUBCHEM_CONFORMER_RMSD>  (1) 
1.2

>  <PUBCHEM_CONFORMER_DIVERSEORDER>  (1) 
2
12
17
51
43
25
36
13
53
37
28
23
67
54
45
34
65
21
41
57
56
50
26
48
18
10
9
42
61
60
30
59
52
66
19
35
63
64
7
11
22
58
15
38
29
39
33
55
62
20
3
32
16
40
27
47
31
44
49
5
24
8
1
6
46
4
14

>  <PUBCHEM_MMFF94_PARTIAL_CHARGES>  (1) 
22
1 -0.43
12 0.27
13 0.27
16 0.78
17 0.12
18 -0.15
19 -0.15
2 -0.57
21 0.08
23 0.28
25 -0.15
26 -0.15
3 -0.36
4 -0.81
48 0.37
49 0.15
5 -0.55
50 0.15
59 0.15
6 0.27
60 0.15
7 0.28

>  <PUBCHEM_EFFECTIVE_ROTOR_COUNT>  (1) 
13.2

>  <PUBCHEM_PHARMACOPHORE_FEATURES>  (1) 
7
1 2 acceptor
1 27 hydrophobe
1 3 acceptor
1 4 cation
1 5 donor
6 17 18 19 21 25 26 rings
6 6 7 8 9 10 11 rings

>  <PUBCHEM_HEAVY_ATOM_COUNT>  (1) 
27

>  <PUBCHEM_ATOM_DEF_STEREO_COUNT>  (1) 
2

>  <PUBCHEM_ATOM_UDEF_STEREO_COUNT>  (1) 
0

>  <PUBCHEM_BOND_DEF_STEREO_COUNT>  (1) 
0

>  <PUBCHEM_BOND_UDEF_STEREO_COUNT>  (1) 
0

>  <PUBCHEM_ISOTOPIC_ATOM_COUNT>  (1) 
0

>  <PUBCHEM_COMPONENT_COUNT>  (1) 
1

>  <PUBCHEM_CACTVS_TAUTO_COUNT>  (1) 
2

>  <PUBCHEM_CONFORMER_ID>  (1) 
0000942E00000002

>  <PUBCHEM_MMFF94_ENERGY>  (1) 
59.8986

>  <PUBCHEM_FEATURE_SELFOVERLAP>  (1) 
35.52

>  <PUBCHEM_SHAPE_FINGERPRINT>  (1) 
10 15 18272092687242758731
10554248 39 18058713720270667223
10816530 90 17203610397555600577
11211813 74 14333130741877211355
11475781 23 15195560204235152511
12236239 1 18200578268670255662
12616971 3 18340189839675030598
13177829 20 18261115184488684179
13533116 47 18260823770504242674
13692114 37 15936697038055646275
13782708 43 15936400126797693539
14251764 18 18343582959003182631
14400156 188 16588854682697773002
15183329 4 17917703621688290869
15188451 53 11458413657151021564
15392192 104 17531261598805609347
15419008 91 15864340390325459863
1577012 14 18059850692977887413
1754908 1 17968104123332120593
17844677 252 17822565010972013772
17852330 31 18337942472315581490
21781055 127 16917075425859103666
21792934 111 17676203547159845901
22149856 69 18187087299298624835
22224240 67 18412829080387058095
23081809 10 18130211740299967463
23522609 53 18201442540449142205
23559900 14 17822003212782341194
3383291 50 16008756814654443569
3711267 37 16271934809735081809
397830 11 17095242544833699941
5104073 3 18263909081720655186
5385378 56 17131552726688465119
5470011 282 9367334947746036121
57359948 33 15410897366713970832
5758199 1 16774080645070113599
68570916 9 18261114127710717807

>  <PUBCHEM_SHAPE_MULTIPOLES>  (1) 
528.08
26.6
2.35
2.08
65.21
0.54
0.66
5.86
-17.38
-6.82
-0.5
0.25
0.17
-2.4

>  <PUBCHEM_SHAPE_SELFOVERLAP>  (1) 
1062.686

>  <PUBCHEM_SHAPE_VOLUME>  (1) 
309.3

>  <PUBCHEM_COORDINATE_TYPE>  (1) 
2
5
10

$$$$
