37945
     RDKit          3D

 28 30  0  0  1  0  0  0  0  0999 V2000
   -2.5787   -0.6199   -1.0642 O   0  0  0  0  0  0  0  0  0  0  0  0
   -2.0826    1.5168   -0.4174 O   0  0  0  0  0  0  0  0  0  0  0  0
    4.3920    0.2076   -1.1453 O   0  0  0  0  0  0  0  0  0  0  0  0
   -5.6608   -0.0654    0.8577 N   0  0  0  0  0  0  0  0  0  0  0  0
   -0.4187   -0.0292   -0.9846 N   0  0  0  0  0  0  0  0  0  0  0  0
   -4.3574   -0.6360    0.5518 C   0  0  0  0  0  0  0  0  0  0  0  0
   -3.9710   -0.3359   -0.9061 C   0  0  0  0  0  0  0  0  0  0  0  0
   -4.3360   -2.1483    0.8332 C   0  0  0  0  0  0  0  0  0  0  0  0
   -4.7723   -1.1601   -1.9196 C   0  0  0  0  0  0  0  0  0  0  0  0
   -5.1465   -2.9584   -0.1783 C   0  0  0  0  0  0  0  0  0  0  0  0
   -5.7030    1.3799    0.6378 C   0  0  0  0  0  0  0  0  0  0  0  0
   -6.0347   -0.2472    2.2600 C   0  0  0  0  0  0  0  0  0  0  0  0
   -4.7210   -2.6564   -1.6121 C   0  0  0  0  0  0  0  0  0  0  0  0
   -6.9712    1.7981    1.3671 C   0  0  0  0  0  0  0  0  0  0  0  0
   -7.1871    0.7307    2.4355 C   0  0  0  0  0  0  0  0  0  0  0  0
   -1.7138    0.4077   -0.7842 C   0  0  0  0  0  0  0  0  0  0  0  0
    0.7813    0.6981   -0.8150 C   0  0  0  0  0  0  0  0  0  0  0  0
    2.0093    0.0863   -1.0668 C   0  0  0  0  0  0  0  0  0  0  0  0
    0.7374    2.0278   -0.3959 C   0  0  0  0  0  0  0  0  0  0  0  0
    7.7213   -0.0601    0.5869 C   0  0  0  0  0  0  0  0  0  0  0  0
    6.5006   -0.4816   -0.2297 C   0  0  0  0  0  0  0  0  0  0  0  0
    8.7605   -1.1731    0.7475 C   0  0  0  0  0  0  0  0  0  0  0  0
    3.1935    0.8042   -0.8995 C   0  0  0  0  0  0  0  0  0  0  0  0
    5.5123    0.6659   -0.3899 C   0  0  0  0  0  0  0  0  0  0  0  0
    9.9707   -0.7587    1.5855 C   0  0  0  0  0  0  0  0  0  0  0  0
    1.9216    2.7458   -0.2285 C   0  0  0  0  0  0  0  0  0  0  0  0
    3.1496    2.1339   -0.4803 C   0  0  0  0  0  0  0  0  0  0  0  0
   11.0046   -1.8725    1.6545 C   0  0  0  0  0  0  0  0  0  0  0  0
  1  7  1  0
  1 16  1  0
  2 16  2  0
  3 23  1  0
  3 24  1  0
  4  6  1  0
  4 11  1  0
  4 12  1  0
  5 16  1  0
  5 17  1  0
  6  7  1  0
  6  8  1  0
  7  9  1  0
  8 10  1  0
  9 13  1  0
 10 13  1  0
 11 14  1  0
 12 15  1  0
 14 15  1  0
 17 18  2  0
 17 19  1  0
 18 23  1  0
 19 26  2  0
 20 21  1  0
 20 22  1  0
 21 24  1  0
 22 25  1  0
 23 27  2  0
 25 28  1  0
 26 27  1  0
M  END
>  <PUBCHEM_COMPOUND_CID>  (1) 
37945

>  <PUBCHEM_CONFORMER_RMSD>  (1) 
1.2

>  <PUBCHEM_CONFORMER_DIVERSEORDER>  (1) 
2
102
93
98
78
23
73
68
46
58
63
79
88
21
59
25
56
82
1
80
69
99
97
47
61
31
72
38
70
19
36
90
35
96
100
101
55
83
76
87
51
89
95
43
52
53
103
74
24
33
62
85
15
32
5
14
94
27
86
77
91
49
66
41
48
71
65
54
20
64
29
75
45
50
4
81
84
37
39
67
44
92
17
7
28
30
13
26
8
34
16
22
12
18
57
10
42
60
9
40
6
3
11

>  <PUBCHEM_MMFF94_PARTIAL_CHARGES>  (1) 
22
1 -0.43
11 0.27
12 0.27
16 0.78
17 0.12
18 -0.15
19 -0.15
2 -0.57
23 0.08
24 0.28
26 -0.15
27 -0.15
3 -0.36
4 -0.81
47 0.37
48 0.15
5 -0.55
51 0.15
6 0.27
60 0.15
61 0.15
7 0.28

>  <PUBCHEM_EFFECTIVE_ROTOR_COUNT>  (1) 
13.2

>  <PUBCHEM_PHARMACOPHORE_FEATURES>  (1) 
9
1 2 acceptor
1 28 hydrophobe
1 3 acceptor
1 4 cation
1 5 donor
4 20 21 22 25 hydrophobe
5 4 11 12 14 15 rings
6 17 18 19 23 26 27 rings
6 6 7 8 9 10 13 rings

>  <PUBCHEM_HEAVY_ATOM_COUNT>  (1) 
28

>  <PUBCHEM_ATOM_DEF_STEREO_COUNT>  (1) 
2

>  <PUBCHEM_ATOM_UDEF_STEREO_COUNT>  (1) 
0

>  <PUBCHEM_BOND_DEF_STEREO_COUNT>  (1) 
0

>  <PUBCHEM_BOND_UDEF_STEREO_COUNT>  (1) 
0

>  <PUBCHEM_ISOTOPIC_ATOM_COUNT>  (1) 
0

>  <PUBCHEM_COMPONENT_COUNT>  (1) 
1

>  <PUBCHEM_CACTVS_TAUTO_COUNT>  (1) 
2

>  <PUBCHEM_CONFORMER_ID>  (1) 
0000943900000002

>  <PUBCHEM_MMFF94_ENERGY>  (1) 
53.5603

>  <PUBCHEM_FEATURE_SELFOVERLAP>  (1) 
45.671

>  <PUBCHEM_SHAPE_FINGERPRINT>  (1) 
10429389 143 14261353518313171009
10669705 176 9295285050284896544
11135926 11 18187358809788132742
11315621 246 13551483617723296697
11973863 73 17968374533861166112
12107183 9 18271537433317129549
12616971 3 18263373623900303397
13627175 4 17095517435377899362
13668630 136 14924231564033892209
13782708 43 17676479584275131068
14279260 333 17822293431600408041
15183329 4 17385718132066368930
15350500 55 14045741509226738402
15419008 145 18339366270953782969
15461852 350 15195284244455815029
1577012 14 18270408299099765332
17093844 174 17132115749582002815
1754908 1 18201146725251662426
1818759 1 17676209040575907010
18603816 31 17894638084104095627
2026 5 16805878486933125058
20982279 24 17677341498845434050
21130935 74 18272088353109346510
21150785 3 7997967960118591600
21585481 151 18202570579745804758
21792961 116 17385718071984247805
22288116 15 11674881099717034081
23081809 10 18339648965463309277
23522609 53 18119841189492841013
3383291 50 18333446561138690602
3711267 37 13686291431686471258
393628 179 16772963476547507193
4169191 19 11815898972554822722
444769 64 18040716969845334547
4516262 110 12679456483853843548
497634 4 7853306281100344443
5104073 3 18129949012887262465
5283384 27 13110963115733929992
54039377 194 16153433843622055090
636775 72 15554171389291038217
636775 8 12179858199190285313
9953998 17 17846497019653652792
9980921 7 12535331416904626242
999808 66 17675925404391902178

>  <PUBCHEM_SHAPE_MULTIPOLES>  (1) 
548.66
30.67
2.61
1.9
76.92
0.47
-0.73
15.03
-22.59
-2.16
0.22
-2.32
0.4
-4.48

>  <PUBCHEM_SHAPE_SELFOVERLAP>  (1) 
1120.997

>  <PUBCHEM_SHAPE_VOLUME>  (1) 
317.4

>  <PUBCHEM_COORDINATE_TYPE>  (1) 
2
5
10

$$$$
