37957
     RDKit          3D

 25 26  0  0  1  0  0  0  0  0999 V2000
    1.7076    0.2676   -0.7139 O   0  0  0  0  0  0  0  0  0  0  0  0
    0.2685    1.0191    0.8968 O   0  0  0  0  0  0  0  0  0  0  0  0
   -5.9227   -0.8168   -0.0241 O   0  0  0  0  0  0  0  0  0  0  0  0
    3.9916   -1.2012    0.3013 N   0  0  0  0  0  0  0  0  0  0  0  0
   -0.4546   -0.2874   -0.9062 N   0  0  0  0  0  0  0  0  0  0  0  0
    4.0833    0.1342   -0.2962 C   0  0  0  0  0  0  0  0  0  0  0  0
    2.7857    0.9167   -0.0418 C   0  0  0  0  0  0  0  0  0  0  0  0
    5.3021    0.8750    0.2682 C   0  0  0  0  0  0  0  0  0  0  0  0
    2.8890    2.3523   -0.5631 C   0  0  0  0  0  0  0  0  0  0  0  0
    5.3893    2.3030   -0.2654 C   0  0  0  0  0  0  0  0  0  0  0  0
    4.1036    3.0786    0.0013 C   0  0  0  0  0  0  0  0  0  0  0  0
    3.8518   -1.0998    1.7522 C   0  0  0  0  0  0  0  0  0  0  0  0
    5.1676   -1.9953   -0.0476 C   0  0  0  0  0  0  0  0  0  0  0  0
    3.7549   -2.4744    2.3919 C   0  0  0  0  0  0  0  0  0  0  0  0
    5.2936   -2.1577   -1.5530 C   0  0  0  0  0  0  0  0  0  0  0  0
    0.4692    0.3926   -0.1365 C   0  0  0  0  0  0  0  0  0  0  0  0
   -1.8439   -0.4206   -0.6830 C   0  0  0  0  0  0  0  0  0  0  0  0
   -2.6269   -1.1521   -1.5760 C   0  0  0  0  0  0  0  0  0  0  0  0
   -2.4318    0.1783    0.4312 C   0  0  0  0  0  0  0  0  0  0  0  0
   -3.9977   -1.2847   -1.3551 C   0  0  0  0  0  0  0  0  0  0  0  0
   -3.8026    0.0457    0.6523 C   0  0  0  0  0  0  0  0  0  0  0  0
   -4.5856   -0.6857   -0.2409 C   0  0  0  0  0  0  0  0  0  0  0  0
   -6.5788    0.2537    0.6537 C   0  0  0  0  0  0  0  0  0  0  0  0
   -8.0266    0.3144    0.1915 C   0  0  0  0  0  0  0  0  0  0  0  0
   -8.7868    1.4443    0.8624 C   0  0  0  0  0  0  0  0  0  0  0  0
  1  7  1  0
  1 16  1  0
  2 16  2  0
  3 22  1  0
  3 23  1  0
  4  6  1  0
  4 12  1  0
  4 13  1  0
  5 16  1  0
  5 17  1  0
  6  7  1  0
  6  8  1  0
  7  9  1  0
  8 10  1  0
  9 11  1  0
 10 11  1  0
 12 14  1  0
 13 15  1  0
 17 18  2  0
 17 19  1  0
 18 20  1  0
 19 21  2  0
 20 22  2  0
 21 22  1  0
 23 24  1  0
 24 25  1  0
M  END
>  <PUBCHEM_COMPOUND_CID>  (1) 
37957

>  <PUBCHEM_CONFORMER_RMSD>  (1) 
1

>  <PUBCHEM_CONFORMER_DIVERSEORDER>  (1) 
1
48
8
44
19
60
11
57
56
12
28
9
42
30
40
46
63
17
35
61
5
50
10
16
21
65
32
51
6
45
53
41
59
52
26
22
24
54
33
13
18
62
55
27
15
64
37
38
49
43
34
58
23
29
2
66
31
36
39
20
4
3
7
25
14
47

>  <PUBCHEM_MMFF94_PARTIAL_CHARGES>  (1) 
22
1 -0.43
12 0.27
13 0.27
16 0.78
17 0.12
18 -0.15
19 -0.15
2 -0.57
20 -0.15
21 -0.15
22 0.08
23 0.28
3 -0.36
4 -0.81
46 0.37
47 0.15
48 0.15
49 0.15
5 -0.55
50 0.15
6 0.27
7 0.28

>  <PUBCHEM_EFFECTIVE_ROTOR_COUNT>  (1) 
11.2

>  <PUBCHEM_PHARMACOPHORE_FEATURES>  (1) 
7
1 2 acceptor
1 25 hydrophobe
1 3 acceptor
1 4 cation
1 5 donor
6 17 18 19 20 21 22 rings
6 6 7 8 9 10 11 rings

>  <PUBCHEM_HEAVY_ATOM_COUNT>  (1) 
25

>  <PUBCHEM_ATOM_DEF_STEREO_COUNT>  (1) 
2

>  <PUBCHEM_ATOM_UDEF_STEREO_COUNT>  (1) 
0

>  <PUBCHEM_BOND_DEF_STEREO_COUNT>  (1) 
0

>  <PUBCHEM_BOND_UDEF_STEREO_COUNT>  (1) 
0

>  <PUBCHEM_ISOTOPIC_ATOM_COUNT>  (1) 
0

>  <PUBCHEM_COMPONENT_COUNT>  (1) 
1

>  <PUBCHEM_CACTVS_TAUTO_COUNT>  (1) 
2

>  <PUBCHEM_CONFORMER_ID>  (1) 
0000944500000001

>  <PUBCHEM_MMFF94_ENERGY>  (1) 
60.2052

>  <PUBCHEM_FEATURE_SELFOVERLAP>  (1) 
35.52

>  <PUBCHEM_SHAPE_FINGERPRINT>  (1) 
10554248 39 18202841050615058421
11719270 70 17489591139042343599
12107183 9 17984149158212151576
12236239 1 18343582971307790375
12596602 18 18339645637211723275
12616971 3 18343576361268804119
12730499 353 17749104530750344360
12778500 126 18411420613405515973
12788726 201 17775015595352097808
13167372 99 18343024372272732609
13533116 47 18113333098462487123
13785724 45 18054514595402842790
14251764 18 18272088331892635101
14347424 109 18413669101830843760
15183329 4 17417819456856429001
15250474 111 17987784354118130726
15301273 46 16370722605338976327
1577012 14 18130787893441532621
17844677 252 18186515488553410700
20281389 69 18408887330980058613
20511986 3 18058719338135881756
20554085 129 16630241442364753207
20645477 70 18408317805236112678
21049683 271 11458722620683766263
21150785 3 11314319347443837175
21196832 93 9654988076183833973
21344244 78 18200863003648490080
220451 1 18260265287148075719
22149856 69 14490463141956345301
23081809 10 18131064979009126639
23516275 100 14332826215289805147
239999 70 18408040728527744846
3004659 81 18272937124050321428
312425 54 17894633686579680595
3178227 256 17967806185730050128
345986 75 18339347570813187304
3663271 9 18335702788968043235
4073 2 18042409208323953899
4093350 32 18413672413482893690
4340502 62 17968088776997110018
5104073 3 18340481287650270059
70251023 43 18264492789725472498

>  <PUBCHEM_SHAPE_MULTIPOLES>  (1) 
486.92
21
2.56
1.45
40.69
0.79
-0.37
2.82
-3.54
-5.61
-0.15
-0.91
-1.09
-1.85

>  <PUBCHEM_SHAPE_SELFOVERLAP>  (1) 
986.941

>  <PUBCHEM_SHAPE_VOLUME>  (1) 
283.4

>  <PUBCHEM_COORDINATE_TYPE>  (1) 
2
5
10

$$$$
