37959
     RDKit          3D

 27 28  0  0  1  0  0  0  0  0999 V2000
    2.4876   -0.4169    0.5811 O   0  0  0  0  0  0  0  0  0  0  0  0
    1.2926   -0.8976   -1.3086 O   0  0  0  0  0  0  0  0  0  0  0  0
   -5.0289    0.6603   -0.9073 O   0  0  0  0  0  0  0  0  0  0  0  0
    4.8259    1.2391    0.1395 N   0  0  0  0  0  0  0  0  0  0  0  0
    0.2995    0.0649    0.5803 N   0  0  0  0  0  0  0  0  0  0  0  0
    4.8905   -0.1784    0.5073 C   0  0  0  0  0  0  0  0  0  0  0  0
    3.6654   -0.9234   -0.0446 C   0  0  0  0  0  0  0  0  0  0  0  0
    6.1974   -0.7920   -0.0105 C   0  0  0  0  0  0  0  0  0  0  0  0
    3.7547   -2.4261    0.2330 C   0  0  0  0  0  0  0  0  0  0  0  0
    6.2691   -2.2895    0.2785 C   0  0  0  0  0  0  0  0  0  0  0  0
    5.0570   -3.0256   -0.2829 C   0  0  0  0  0  0  0  0  0  0  0  0
    4.8747    1.3895   -1.3131 C   0  0  0  0  0  0  0  0  0  0  0  0
    5.9181    1.9774    0.7698 C   0  0  0  0  0  0  0  0  0  0  0  0
    4.8088    2.8529   -1.7161 C   0  0  0  0  0  0  0  0  0  0  0  0
    5.8465    1.8773    2.2840 C   0  0  0  0  0  0  0  0  0  0  0  0
    1.3377   -0.4575   -0.1663 C   0  0  0  0  0  0  0  0  0  0  0  0
   -1.0545    0.2148    0.2030 C   0  0  0  0  0  0  0  0  0  0  0  0
   -1.4741   -0.1896   -1.0643 C   0  0  0  0  0  0  0  0  0  0  0  0
   -1.9707    0.7683    1.0974 C   0  0  0  0  0  0  0  0  0  0  0  0
   -7.3063    0.0563   -0.4540 C   0  0  0  0  0  0  0  0  0  0  0  0
   -8.3961   -0.0609    0.6093 C   0  0  0  0  0  0  0  0  0  0  0  0
   -3.7260    0.5129   -0.5427 C   0  0  0  0  0  0  0  0  0  0  0  0
   -6.0058    0.5891    0.1303 C   0  0  0  0  0  0  0  0  0  0  0  0
   -2.8099   -0.0406   -1.4372 C   0  0  0  0  0  0  0  0  0  0  0  0
   -3.3064    0.9175    0.7245 C   0  0  0  0  0  0  0  0  0  0  0  0
   -9.6852   -0.6361    0.0233 C   0  0  0  0  0  0  0  0  0  0  0  0
  -10.7619   -0.7860    1.0863 C   0  0  0  0  0  0  0  0  0  0  0  0
  1  7  1  0
  1 16  1  0
  2 16  2  0
  3 22  1  0
  3 23  1  0
  4  6  1  0
  4 12  1  0
  4 13  1  0
  5 16  1  0
  5 17  1  0
  6  7  1  0
  6  8  1  0
  7  9  1  0
  8 10  1  0
  9 11  1  0
 10 11  1  0
 12 14  1  0
 13 15  1  0
 17 18  2  0
 17 19  1  0
 18 24  1  0
 19 25  2  0
 20 21  1  0
 20 23  1  0
 21 26  1  0
 22 24  2  0
 22 25  1  0
 26 27  1  0
M  END
>  <PUBCHEM_COMPOUND_CID>  (1) 
37959

>  <PUBCHEM_CONFORMER_RMSD>  (1) 
1.2

>  <PUBCHEM_CONFORMER_DIVERSEORDER>  (1) 
1
34
17
29
4
13
8
10
30
12
26
27
14
5
19
32
28
21
9
16
31
23
22
2
7
18
25
24
11
20
33
3
6
15

>  <PUBCHEM_MMFF94_PARTIAL_CHARGES>  (1) 
22
1 -0.43
12 0.27
13 0.27
16 0.78
17 0.12
18 -0.15
19 -0.15
2 -0.57
22 0.08
23 0.28
24 -0.15
25 -0.15
3 -0.36
4 -0.81
48 0.37
49 0.15
5 -0.55
50 0.15
57 0.15
58 0.15
6 0.27
7 0.28

>  <PUBCHEM_EFFECTIVE_ROTOR_COUNT>  (1) 
13.2

>  <PUBCHEM_PHARMACOPHORE_FEATURES>  (1) 
7
1 2 acceptor
1 27 hydrophobe
1 3 acceptor
1 4 cation
1 5 donor
6 17 18 19 22 24 25 rings
6 6 7 8 9 10 11 rings

>  <PUBCHEM_HEAVY_ATOM_COUNT>  (1) 
27

>  <PUBCHEM_ATOM_DEF_STEREO_COUNT>  (1) 
2

>  <PUBCHEM_ATOM_UDEF_STEREO_COUNT>  (1) 
0

>  <PUBCHEM_BOND_DEF_STEREO_COUNT>  (1) 
0

>  <PUBCHEM_BOND_UDEF_STEREO_COUNT>  (1) 
0

>  <PUBCHEM_ISOTOPIC_ATOM_COUNT>  (1) 
0

>  <PUBCHEM_COMPONENT_COUNT>  (1) 
1

>  <PUBCHEM_CACTVS_TAUTO_COUNT>  (1) 
2

>  <PUBCHEM_CONFORMER_ID>  (1) 
0000944700000001

>  <PUBCHEM_MMFF94_ENERGY>  (1) 
59.7884

>  <PUBCHEM_FEATURE_SELFOVERLAP>  (1) 
35.52

>  <PUBCHEM_SHAPE_FINGERPRINT>  (1) 
10299344 5 18060136536215964599
10391435 84 17822293535534178355
12236239 1 18130783443085325869
13533116 47 18341328903883390918
13617811 41 14129058110443167767
13692114 37 16805602581379069171
14251764 18 17775565343593908711
14400156 188 17677602070200783562
14461889 52 18261390095906502274
15419008 91 17168411745481082269
15510794 2 18335138675616489647
15716309 27 18343300358623825119
17844677 252 18262521377560204236
18335252 98 18408604760411757811
20157964 124 18335139795790460212
21033648 29 17822279146939867500
21315763 28 18261955154984024005
22149856 69 18342175608998357467
22224240 67 17967250902098008283
23522609 53 17560536074331061153
23559900 14 18259989250164444698
3044373 193 18113059341673986724
34797466 226 18040154019638646924
397830 11 17677064549893392545
59682541 35 18412546540205541963

>  <PUBCHEM_SHAPE_MULTIPOLES>  (1) 
528.08
28.79
2.35
1.39
75.08
0.49
0.09
3.67
6.58
-7.39
-0.18
-1.15
-0.81
0.38

>  <PUBCHEM_SHAPE_SELFOVERLAP>  (1) 
1062.708

>  <PUBCHEM_SHAPE_VOLUME>  (1) 
309.6

>  <PUBCHEM_COORDINATE_TYPE>  (1) 
2
5
10

$$$$
