37972
     RDKit          3D

 23 26  0  0  1  0  0  0  0  0999 V2000
    1.8448    1.8244   -0.5067 O   0  0  0  0  0  0  0  0  0  0  0  0
   -1.7053   -2.1548   -1.8345 O   0  0  0  0  0  0  0  0  0  0  0  0
   -1.1714    1.5600    1.9754 O   0  0  0  0  0  0  0  0  0  0  0  0
   -3.6696    1.1682    1.0143 O   0  0  0  0  0  0  0  0  0  0  0  0
    2.8053    3.8598   -0.0224 O   0  0  0  0  0  0  0  0  0  0  0  0
    1.9625   -3.0582    1.5655 N   0  0  0  0  0  0  0  0  0  0  0  0
    0.8957   -1.5756   -0.6723 N   0  0  0  0  0  0  0  0  0  0  0  0
    2.2650    3.2846   -2.1820 N   0  0  0  0  0  0  0  0  0  0  0  0
    2.6891   -2.0784    0.7665 C   0  0  0  0  0  0  0  0  0  0  0  0
    2.1828   -3.3406    0.1528 C   0  0  0  0  0  0  0  0  0  0  0  0
    1.9973   -0.9380    0.0889 C   0  0  0  0  0  0  0  0  0  0  0  0
    1.1112   -3.0116   -0.8474 C   0  0  0  0  0  0  0  0  0  0  0  0
    1.2794    0.0784    1.0225 C   0  0  0  0  0  0  0  0  0  0  0  0
   -0.2982   -0.9516   -0.3799 C   0  0  0  0  0  0  0  0  0  0  0  0
   -0.1533   -0.0104    0.5531 C   0  0  0  0  0  0  0  0  0  0  0  0
    1.8733    1.4748    0.8649 C   0  0  0  0  0  0  0  0  0  0  0  0
   -1.5985   -1.2925   -0.9689 C   0  0  0  0  0  0  0  0  0  0  0  0
   -1.2991    0.7309    1.0811 C   0  0  0  0  0  0  0  0  0  0  0  0
   -2.7852   -0.5173   -0.4697 C   0  0  0  0  0  0  0  0  0  0  0  0
   -2.6342    0.4216    0.4886 C   0  0  0  0  0  0  0  0  0  0  0  0
   -4.0823   -0.8921   -1.1339 C   0  0  0  0  0  0  0  0  0  0  0  0
    2.3457    3.0595   -0.8301 C   0  0  0  0  0  0  0  0  0  0  0  0
   -3.8551    2.3587    0.2742 C   0  0  0  0  0  0  0  0  0  0  0  0
  1 16  1  0
  1 22  1  0
  2 17  2  0
  3 18  2  0
  4 20  1  0
  4 23  1  0
  5 22  2  0
  6  9  1  0
  6 10  1  0
  7 11  1  0
  7 12  1  0
  7 14  1  0
  8 22  1  0
  9 10  1  0
  9 11  1  0
 10 12  1  0
 11 13  1  0
 13 15  1  0
 13 16  1  0
 14 15  2  0
 14 17  1  0
 15 18  1  0
 17 19  1  0
 18 20  1  0
 19 20  2  0
 19 21  1  0
M  END
>  <PUBCHEM_COMPOUND_CID>  (1) 
37972

>  <PUBCHEM_CONFORMER_RMSD>  (1) 
0.8

>  <PUBCHEM_CONFORMER_DIVERSEORDER>  (1) 
1
6
2
7
4
5
3
8

>  <PUBCHEM_MMFF94_PARTIAL_CHARGES>  (1) 
28
1 -0.43
10 -0.04
11 0.46
12 0.46
13 0.14
14 0.11
15 -0.12
16 0.28
17 0.54
18 0.54
19 -0.12
2 -0.57
20 0.09
21 0.14
22 0.78
23 0.28
24 0.1
25 0.1
27 0.36
3 -0.57
39 0.37
4 -0.36
40 0.37
5 -0.57
6 -0.68
7 -0.84
8 -0.8
9 -0.04

>  <PUBCHEM_EFFECTIVE_ROTOR_COUNT>  (1) 
4.6

>  <PUBCHEM_PHARMACOPHORE_FEATURES>  (1) 
11
1 2 acceptor
1 3 acceptor
1 4 acceptor
1 5 acceptor
1 6 cation
1 6 donor
1 7 cation
1 8 donor
5 7 11 13 14 15 rings
6 14 15 17 18 19 20 rings
6 6 7 9 10 11 12 rings

>  <PUBCHEM_HEAVY_ATOM_COUNT>  (1) 
23

>  <PUBCHEM_ATOM_DEF_STEREO_COUNT>  (1) 
4

>  <PUBCHEM_ATOM_UDEF_STEREO_COUNT>  (1) 
0

>  <PUBCHEM_BOND_DEF_STEREO_COUNT>  (1) 
0

>  <PUBCHEM_BOND_UDEF_STEREO_COUNT>  (1) 
0

>  <PUBCHEM_ISOTOPIC_ATOM_COUNT>  (1) 
0

>  <PUBCHEM_COMPONENT_COUNT>  (1) 
1

>  <PUBCHEM_CACTVS_TAUTO_COUNT>  (1) 
18

>  <PUBCHEM_CONFORMER_ID>  (1) 
0000945400000001

>  <PUBCHEM_MMFF94_ENERGY>  (1) 
79.1383

>  <PUBCHEM_FEATURE_SELFOVERLAP>  (1) 
56.107

>  <PUBCHEM_SHAPE_FINGERPRINT>  (1) 
11640471 11 17103102042806868900
121448 382 17839747302486387560
12173636 292 17904492044534937972
12293681 160 17771067386557196249
12643181 29 15456490406776846754
13004483 165 17687176487677340194
13134695 92 18045222639478194973
13583140 156 17970358027336733297
13681431 1 18118706334783926316
13965767 371 16473476084710196347
14022347 108 17763483719995458707
14181834 199 18200018560715204436
14787075 74 17762054737326683167
14955137 171 17983048615934759522
15463212 79 17831852830574291864
16945 1 18408315592621385171
17980427 23 17987496148610538053
1813 80 18121220883306415334
19591789 44 17404016423730126619
19765921 60 18196943394201411736
19930374 2 17044572341293570010
20600515 1 17770499729398284554
20739085 24 17623598370251684457
21285901 2 17261589574212616093
21524375 3 18045216296043698208
2255824 54 18410012139194873290
22907989 373 16893728709297467748
23366157 5 18335137579170766459
25147074 1 18131349705233888427
394222 165 17899953200474489226
474 4 18262229035994208144
59554788 62 17838591398022566890
6786 2 17394782578929473300
6992083 37 17911523090702819171
81228 2 17255699494828409016
90316 7 17761489188574695418
9981440 41 18192704776924049145

>  <PUBCHEM_SHAPE_MULTIPOLES>  (1) 
429.04
5.72
4.54
1.55
5.49
3.36
0.19
-0.08
-0.32
-4.84
1.74
0.01
0.37
-2.17

>  <PUBCHEM_SHAPE_SELFOVERLAP>  (1) 
938.888

>  <PUBCHEM_SHAPE_VOLUME>  (1) 
235.4

>  <PUBCHEM_COORDINATE_TYPE>  (1) 
2
5
10

$$$$
