37971
     RDKit          3D

 26 28  0  0  1  0  0  0  0  0999 V2000
   -1.4566   -0.6874   -0.7827 O   0  0  0  0  0  0  0  0  0  0  0  0
   -0.0373   -1.0683    0.9696 O   0  0  0  0  0  0  0  0  0  0  0  0
    6.0756    0.9445   -0.0933 O   0  0  0  0  0  0  0  0  0  0  0  0
   -3.8503    0.7930   -0.0947 N   0  0  0  0  0  0  0  0  0  0  0  0
    0.6782   -0.0471   -1.0117 N   0  0  0  0  0  0  0  0  0  0  0  0
   -3.8494   -0.6246   -0.4553 C   0  0  0  0  0  0  0  0  0  0  0  0
   -2.5216   -1.2748   -0.0370 C   0  0  0  0  0  0  0  0  0  0  0  0
   -5.0461   -1.3288    0.1963 C   0  0  0  0  0  0  0  0  0  0  0  0
   -2.5296   -2.7816   -0.3066 C   0  0  0  0  0  0  0  0  0  0  0  0
   -5.0379   -2.8293   -0.0863 C   0  0  0  0  0  0  0  0  0  0  0  0
   -3.7228   -3.4716    0.3427 C   0  0  0  0  0  0  0  0  0  0  0  0
   -4.8059    1.5350   -0.9291 C   0  0  0  0  0  0  0  0  0  0  0  0
   -4.1514    0.9597    1.3341 C   0  0  0  0  0  0  0  0  0  0  0  0
   -4.7838    3.0280   -0.5982 C   0  0  0  0  0  0  0  0  0  0  0  0
   -4.1078    2.4340    1.7389 C   0  0  0  0  0  0  0  0  0  0  0  0
   -5.0504    3.2721    0.8828 C   0  0  0  0  0  0  0  0  0  0  0  0
   -0.2346   -0.6395   -0.1608 C   0  0  0  0  0  0  0  0  0  0  0  0
    2.0497    0.2034   -0.7790 C   0  0  0  0  0  0  0  0  0  0  0  0
    2.6289   -0.1618    0.4362 C   0  0  0  0  0  0  0  0  0  0  0  0
    2.8236    0.8171   -1.7640 C   0  0  0  0  0  0  0  0  0  0  0  0
    3.9821    0.0865    0.6664 C   0  0  0  0  0  0  0  0  0  0  0  0
    4.1767    1.0655   -1.5339 C   0  0  0  0  0  0  0  0  0  0  0  0
    4.7559    0.7002   -0.3187 C   0  0  0  0  0  0  0  0  0  0  0  0
    6.7636    0.0451    0.7750 C   0  0  0  0  0  0  0  0  0  0  0  0
    8.2280   -0.0082    0.3675 C   0  0  0  0  0  0  0  0  0  0  0  0
    9.0232   -0.9611    1.2417 C   0  0  0  0  0  0  0  0  0  0  0  0
  1  7  1  0
  1 17  1  0
  2 17  2  0
  3 23  1  0
  3 24  1  0
  4  6  1  0
  4 12  1  0
  4 13  1  0
  5 17  1  0
  5 18  1  0
  6  7  1  0
  6  8  1  0
  7  9  1  0
  8 10  1  0
  9 11  1  0
 10 11  1  0
 12 14  1  0
 13 15  1  0
 14 16  1  0
 15 16  1  0
 18 19  2  0
 18 20  1  0
 19 21  1  0
 20 22  2  0
 21 23  2  0
 22 23  1  0
 24 25  1  0
 25 26  1  0
M  END
>  <PUBCHEM_COMPOUND_CID>  (1) 
37971

>  <PUBCHEM_CONFORMER_RMSD>  (1) 
1

>  <PUBCHEM_CONFORMER_DIVERSEORDER>  (1) 
1
14
18
41
2
44
13
46
20
30
4
22
29
25
51
48
16
17
47
35
26
56
37
9
34
43
52
40
33
49
7
50
42
55
5
27
23
15
6
24
54
3
12
10
38
11
32
36
31
39
57
21
28
8
19
53
45

>  <PUBCHEM_MMFF94_PARTIAL_CHARGES>  (1) 
22
1 -0.43
12 0.27
13 0.27
17 0.78
18 0.12
19 -0.15
2 -0.57
20 -0.15
21 -0.15
22 -0.15
23 0.08
24 0.28
3 -0.36
4 -0.81
47 0.37
48 0.15
49 0.15
5 -0.55
50 0.15
51 0.15
6 0.27
7 0.28

>  <PUBCHEM_EFFECTIVE_ROTOR_COUNT>  (1) 
10.4

>  <PUBCHEM_PHARMACOPHORE_FEATURES>  (1) 
8
1 2 acceptor
1 26 hydrophobe
1 3 acceptor
1 4 cation
1 5 donor
6 18 19 20 21 22 23 rings
6 4 12 13 14 15 16 rings
6 6 7 8 9 10 11 rings

>  <PUBCHEM_HEAVY_ATOM_COUNT>  (1) 
26

>  <PUBCHEM_ATOM_DEF_STEREO_COUNT>  (1) 
1

>  <PUBCHEM_ATOM_UDEF_STEREO_COUNT>  (1) 
1

>  <PUBCHEM_BOND_DEF_STEREO_COUNT>  (1) 
0

>  <PUBCHEM_BOND_UDEF_STEREO_COUNT>  (1) 
0

>  <PUBCHEM_ISOTOPIC_ATOM_COUNT>  (1) 
0

>  <PUBCHEM_COMPONENT_COUNT>  (1) 
1

>  <PUBCHEM_CACTVS_TAUTO_COUNT>  (1) 
2

>  <PUBCHEM_CONFORMER_ID>  (1) 
0000945300000001

>  <PUBCHEM_MMFF94_ENERGY>  (1) 
54.8435

>  <PUBCHEM_FEATURE_SELFOVERLAP>  (1) 
40.596

>  <PUBCHEM_SHAPE_FINGERPRINT>  (1) 
100830 39 18411417297886007360
10291535 26 17918281926587431217
10319926 262 18342443868761040744
10411042 1 17979353381373287239
105312 117 18271250430712149989
11315181 36 18260546770340031551
11524674 6 14056996148845532161
12107183 9 18046058268209972387
12236239 1 18187081793503641164
12616971 3 17458633328183945276
12741549 16 16988287598982932779
12788726 201 18191600854961185671
13885169 127 18411416224829641314
14068700 675 18265892648416134919
15021287 119 17240486913997573244
15183329 4 18040437715899621846
15439362 3 18052822442759447239
15461852 350 17846206791348925271
1577012 14 18187090572654632532
17093844 174 18341888606635639570
17844677 252 18340493386267024928
19489759 90 18341895224948335183
21033648 29 17060349516992012919
21033650 10 18192462781318007766
21130935 74 18334851741488744642
21585481 151 18408882907528124034
21756936 100 18272651221626947189
23081809 10 17967537917492580828
23522609 53 17750257888489184380
23559900 14 18128832845334310030
23569943 247 17314208005263311578
249057 25 18114188591676425924
32027 91 17770801030250704086
4144715 1 18340492282950839160
444769 64 17603302631618312906
5104073 3 18337679619931735851
58260988 114 16443642297723323179
6299153 45 18187923928978957602
6327066 14 18263358089383609693
7226269 152 18272369737438414320
9849439 229 17910403792979245625

>  <PUBCHEM_SHAPE_MULTIPOLES>  (1) 
507.5
21.17
3.3
1.34
46.79
0.42
0.02
-2.38
-6.17
-9.59
-0.5
0.44
-0.64
-1.74

>  <PUBCHEM_SHAPE_SELFOVERLAP>  (1) 
1045.161

>  <PUBCHEM_SHAPE_VOLUME>  (1) 
289.4

>  <PUBCHEM_COORDINATE_TYPE>  (1) 
2
5
10

$$$$
