3798
     RDKit          3D

 21 23  0  0  0  0  0  0  0  0999 V2000
   -3.0128    2.3668    0.1455 O   0  0  0  0  0  0  0  0  0  0  0  0
   -4.7282    0.2367   -0.3460 O   0  0  0  0  0  0  0  0  0  0  0  0
    1.5995    0.2852    0.5617 N   0  0  0  0  0  0  0  0  0  0  0  0
   -1.0619   -2.7980   -0.1736 N   0  0  0  0  0  0  0  0  0  0  0  0
    1.1768   -2.0065    0.2368 N   0  0  0  0  0  0  0  0  0  0  0  0
   -0.6739   -0.4537    0.1521 C   0  0  0  0  0  0  0  0  0  0  0  0
   -1.5295   -1.5397   -0.0952 C   0  0  0  0  0  0  0  0  0  0  0  0
    0.6753   -0.7591    0.3092 C   0  0  0  0  0  0  0  0  0  0  0  0
   -1.1740    0.8576    0.2321 C   0  0  0  0  0  0  0  0  0  0  0  0
   -2.5349    1.0947    0.0653 C   0  0  0  0  0  0  0  0  0  0  0  0
   -2.8870   -1.2736   -0.2580 C   0  0  0  0  0  0  0  0  0  0  0  0
   -3.3921    0.0277   -0.1799 C   0  0  0  0  0  0  0  0  0  0  0  0
    2.9581    0.4442    0.2463 C   0  0  0  0  0  0  0  0  0  0  0  0
    0.2656   -2.9630   -0.0038 C   0  0  0  0  0  0  0  0  0  0  0  0
    3.7899    1.2001    1.0781 C   0  0  0  0  0  0  0  0  0  0  0  0
    3.4895   -0.1525   -0.9011 C   0  0  0  0  0  0  0  0  0  0  0  0
    5.1401    1.3575    0.7656 C   0  0  0  0  0  0  0  0  0  0  0  0
    4.8398    0.0050   -1.2137 C   0  0  0  0  0  0  0  0  0  0  0  0
    5.6650    0.7601   -0.3803 C   0  0  0  0  0  0  0  0  0  0  0  0
   -3.0638    3.1185   -1.0660 C   0  0  0  0  0  0  0  0  0  0  0  0
   -5.5414    0.1918    0.8247 C   0  0  0  0  0  0  0  0  0  0  0  0
  1 10  1  0
  1 20  1  0
  2 12  1  0
  2 21  1  0
  3  8  1  0
  3 13  1  0
  4  7  2  0
  4 14  1  0
  5  8  1  0
  5 14  2  0
  6  7  1  0
  6  8  2  0
  6  9  1  0
  7 11  1  0
  9 10  2  0
 10 12  1  0
 11 12  2  0
 13 15  2  0
 13 16  1  0
 15 17  1  0
 16 18  2  0
 17 19  2  0
 18 19  1  0
M  END
>  <PUBCHEM_COMPOUND_CID>  (1) 
3798

>  <PUBCHEM_CONFORMER_RMSD>  (1) 
0.6

>  <PUBCHEM_CONFORMER_DIVERSEORDER>  (1) 
1
14
8
21
5
17
2
10
15
9
6
16
13
7
20
12
11
19
18
3
4

>  <PUBCHEM_MMFF94_PARTIAL_CHARGES>  (1) 
29
1 -0.36
10 0.08
11 -0.15
12 0.08
13 0.1
14 0.47
15 -0.15
16 -0.15
17 -0.15
18 -0.15
19 -0.15
2 -0.36
20 0.28
21 0.28
22 0.15
23 0.15
24 0.4
25 0.15
26 0.15
27 0.15
28 0.15
29 0.15
3 -0.6
30 0.15
4 -0.62
5 -0.62
7 0.31
8 0.41
9 -0.15

>  <PUBCHEM_EFFECTIVE_ROTOR_COUNT>  (1) 
4

>  <PUBCHEM_PHARMACOPHORE_FEATURES>  (1) 
8
1 1 acceptor
1 2 acceptor
1 3 donor
3 3 5 8 cation
3 4 5 14 cation
6 13 15 16 17 18 19 rings
6 4 5 6 7 8 14 rings
6 6 7 9 10 11 12 rings

>  <PUBCHEM_HEAVY_ATOM_COUNT>  (1) 
21

>  <PUBCHEM_ATOM_DEF_STEREO_COUNT>  (1) 
0

>  <PUBCHEM_ATOM_UDEF_STEREO_COUNT>  (1) 
0

>  <PUBCHEM_BOND_DEF_STEREO_COUNT>  (1) 
0

>  <PUBCHEM_BOND_UDEF_STEREO_COUNT>  (1) 
0

>  <PUBCHEM_ISOTOPIC_ATOM_COUNT>  (1) 
0

>  <PUBCHEM_COMPONENT_COUNT>  (1) 
1

>  <PUBCHEM_CACTVS_TAUTO_COUNT>  (1) 
3

>  <PUBCHEM_CONFORMER_ID>  (1) 
00000ED600000001

>  <PUBCHEM_MMFF94_ENERGY>  (1) 
97.7617

>  <PUBCHEM_FEATURE_SELFOVERLAP>  (1) 
40.771

>  <PUBCHEM_SHAPE_FINGERPRINT>  (1) 
10411042 1 17617938479482574363
10498660 4 18338231561984359788
10646746 165 18412261749065601096
10670039 82 18115035108609240900
12173636 292 18410287012690695438
12236239 1 17531242898660219376
12390115 104 18199761258390027057
12403259 415 18341892970106556440
12596602 18 16733270148442310032
12788726 201 17101172370046581778
12916748 109 18408326592296166440
13140716 1 18120095232823739009
13544592 145 18272097080640907342
14251757 17 18060144210995371048
14508225 48 17766262551045924015
15042514 8 18192435388323237227
15575132 122 18113899355741654373
18186145 218 18131071528470359928
19784866 170 18408610253849022427
200 152 15554456201779174578
20645477 56 18341614853851890864
20645477 70 16917078741858121540
21033648 29 18342164570895743640
21065201 7 18340484569316351482
21279426 13 18197784306713530758
21315764 268 18336818771526834908
221357 26 17846499222935413744
22224240 67 18411708707955381091
23227448 37 18268988859373197188
23366157 5 17825951424923462579
23402539 116 18270675480092563622
23536379 177 15913335684345801003
23557571 272 18127979809005188038
23559900 14 18202004365653413944
293599 30 18413110571609773091
3004659 81 11455886979699118816
350125 39 18265897960246401986
3545911 37 18342742927328741672
4028521 119 18272369767629343752
469060 322 18263662726765617489
474 4 17676492743849288214
5104073 3 18190183382519349361
5486654 2 18409167732035350279
59755656 215 18342182132831737846
7808743 9 18337106890859858312
8863177 126 12102690139699743381
9709674 26 18057888133573730550
9981440 41 18261109656053898171

>  <PUBCHEM_SHAPE_MULTIPOLES>  (1) 
405.49
11.48
2.75
0.94
6.4
0.45
0.06
-5.94
0.16
-2.13
0.4
0.55
-0.29
0.82

>  <PUBCHEM_SHAPE_SELFOVERLAP>  (1) 
885.982

>  <PUBCHEM_SHAPE_VOLUME>  (1) 
218.7

>  <PUBCHEM_COORDINATE_TYPE>  (1) 
2
5
10

$$$$
