37985
     RDKit          3D

  6  6  0  0  1  0  0  0  0  0999 V2000
   -2.1888    0.6898    0.1987 S   0  0  0  0  0  0  0  0  0  0  0  0
    1.4317    1.3684   -0.2072 N   0  0  0  0  0  0  0  0  0  0  0  0
    0.6057    0.3844    0.4257 C   0  0  0  0  0  0  0  0  0  0  0  0
   -0.6132    0.0400   -0.4553 C   0  0  0  0  0  0  0  0  0  0  0  0
    1.1177   -1.0432    0.1413 C   0  0  0  0  0  0  0  0  0  0  0  0
   -0.3532   -1.4394   -0.1032 C   0  0  0  0  0  0  0  0  0  0  0  0
  1  4  1  0
  2  3  1  0
  3  4  1  0
  3  5  1  0
  4  6  1  0
  5  6  1  0
M  END
>  <PUBCHEM_COMPOUND_CID>  (1) 
37985

>  <PUBCHEM_CONFORMER_RMSD>  (1) 
0.4

>  <PUBCHEM_CONFORMER_DIVERSEORDER>  (1) 
1
2

>  <PUBCHEM_MMFF94_PARTIAL_CHARGES>  (1) 
7
1 -0.4
13 0.36
14 0.36
15 0.18
2 -0.93
3 0.21
4 0.22

>  <PUBCHEM_EFFECTIVE_ROTOR_COUNT>  (1) 
0.8

>  <PUBCHEM_PHARMACOPHORE_FEATURES>  (1) 
3
1 2 cation
1 2 donor
4 3 4 5 6 rings

>  <PUBCHEM_HEAVY_ATOM_COUNT>  (1) 
6

>  <PUBCHEM_ATOM_DEF_STEREO_COUNT>  (1) 
0

>  <PUBCHEM_ATOM_UDEF_STEREO_COUNT>  (1) 
0

>  <PUBCHEM_BOND_DEF_STEREO_COUNT>  (1) 
0

>  <PUBCHEM_BOND_UDEF_STEREO_COUNT>  (1) 
0

>  <PUBCHEM_ISOTOPIC_ATOM_COUNT>  (1) 
0

>  <PUBCHEM_COMPONENT_COUNT>  (1) 
1

>  <PUBCHEM_CACTVS_TAUTO_COUNT>  (1) 
1

>  <PUBCHEM_CONFORMER_ID>  (1) 
0000946100000001

>  <PUBCHEM_MMFF94_ENERGY>  (1) 
16.8408

>  <PUBCHEM_FEATURE_SELFOVERLAP>  (1) 
15.223

>  <PUBCHEM_SHAPE_FINGERPRINT>  (1) 
20096714 4 18411980277787758789
21015797 1 9365973807415556814
21040471 1 18340764939684535641
29004967 10 17975698290218515987
5943 1 9611340160797495991

>  <PUBCHEM_SHAPE_MULTIPOLES>  (1) 
122.35
2.2
1.48
0.7
1.4
0.01
-0.01
0.42
-0.17
-0.54
0.08
0.05
0.01
-0.1

>  <PUBCHEM_SHAPE_SELFOVERLAP>  (1) 
224.131

>  <PUBCHEM_SHAPE_VOLUME>  (1) 
81

>  <PUBCHEM_COORDINATE_TYPE>  (1) 
2
5
10

$$$$
