37983
     RDKit          3D

 14 14  0  0  0  0  0  0  0  0999 V2000
   -0.8526   -0.5172    1.8111 O   0  0  0  0  0  0  0  0  0  0  0  0
    4.8199    0.8810   -0.6595 N   0  0  0  0  0  0  0  0  0  0  0  0
   -2.7644   -1.2238   -0.2260 C   0  0  0  0  0  0  0  0  0  0  0  0
   -3.1446    0.2478   -0.4184 C   0  0  0  0  0  0  0  0  0  0  0  0
   -1.2596   -1.4626   -0.3719 C   0  0  0  0  0  0  0  0  0  0  0  0
   -4.6555    0.4490   -0.3009 C   0  0  0  0  0  0  0  0  0  0  0  0
   -0.4284   -0.7418    0.6801 C   0  0  0  0  0  0  0  0  0  0  0  0
    0.9551   -0.3136    0.3265 C   0  0  0  0  0  0  0  0  0  0  0  0
   -5.0445    1.8998   -0.5356 C   0  0  0  0  0  0  0  0  0  0  0  0
    1.6611   -1.0545   -0.5945 C   0  0  0  0  0  0  0  0  0  0  0  0
    1.4759    0.8067    0.9347 C   0  0  0  0  0  0  0  0  0  0  0  0
    2.9559   -0.6543   -0.9248 C   0  0  0  0  0  0  0  0  0  0  0  0
    2.7708    1.2070    0.6044 C   0  0  0  0  0  0  0  0  0  0  0  0
    3.5107    0.4765   -0.3254 C   0  0  0  0  0  0  0  0  0  0  0  0
  1  7  2  0
  2 14  1  0
  3  4  1  0
  3  5  1  0
  4  6  1  0
  5  7  1  0
  6  9  1  0
  7  8  1  0
  8 10  2  0
  8 11  1  0
 10 12  1  0
 11 13  2  0
 12 14  2  0
 13 14  1  0
M  END
>  <PUBCHEM_COMPOUND_CID>  (1) 
37983

>  <PUBCHEM_CONFORMER_RMSD>  (1) 
0.6

>  <PUBCHEM_CONFORMER_DIVERSEORDER>  (1) 
1
84
30
87
50
31
73
35
89
51
60
65
2
9
15
85
3
27
78
55
49
20
10
82
22
62
76
6
16
77
81
11
8
26
41
45
48
28
64
12
39
90
43
14
25
19
21
88
63
79
68
91
13
69
56
75
86
83
74
46
54
29
47
24
5
17
33
61
36
18
38
72
80
53
23
59
7
57
70
52
34
4
37
32
66
58
40
67
42
71
44

>  <PUBCHEM_MMFF94_PARTIAL_CHARGES>  (1) 
16
1 -0.57
10 -0.15
11 -0.15
12 -0.15
13 -0.15
14 0.1
2 -0.9
26 0.15
27 0.15
28 0.15
29 0.15
30 0.4
31 0.4
5 0.06
7 0.42
8 0.09

>  <PUBCHEM_EFFECTIVE_ROTOR_COUNT>  (1) 
5

>  <PUBCHEM_PHARMACOPHORE_FEATURES>  (1) 
6
1 1 acceptor
1 2 cation
1 2 donor
1 9 hydrophobe
4 3 4 5 6 hydrophobe
6 8 10 11 12 13 14 rings

>  <PUBCHEM_HEAVY_ATOM_COUNT>  (1) 
14

>  <PUBCHEM_ATOM_DEF_STEREO_COUNT>  (1) 
0

>  <PUBCHEM_ATOM_UDEF_STEREO_COUNT>  (1) 
0

>  <PUBCHEM_BOND_DEF_STEREO_COUNT>  (1) 
0

>  <PUBCHEM_BOND_UDEF_STEREO_COUNT>  (1) 
0

>  <PUBCHEM_ISOTOPIC_ATOM_COUNT>  (1) 
0

>  <PUBCHEM_COMPONENT_COUNT>  (1) 
1

>  <PUBCHEM_CACTVS_TAUTO_COUNT>  (1) 
7

>  <PUBCHEM_CONFORMER_ID>  (1) 
0000945F00000001

>  <PUBCHEM_MMFF94_ENERGY>  (1) 
34.5898

>  <PUBCHEM_FEATURE_SELFOVERLAP>  (1) 
30.446

>  <PUBCHEM_SHAPE_FINGERPRINT>  (1) 
100836 57 18259707791655381725
10498660 4 18336533916632298245
11046707 91 11671785970384913165
11401426 45 17846779646156365346
12251169 10 13190341270705162259
12500047 106 18342174509286204719
12670543 26 18201167585443393996
13549 16 17918273138888923755
13675066 3 12901814056705601414
1420 369 9943513151220661653
14252887 29 13262387843904533520
14943859 89 18113337513820820315
14993402 34 16487260988652888702
15775835 57 18040991826424933385
177051 138 9799689311828953311
18186145 218 17918275376561824827
193927 3 11383827234025227733
200 152 15985110707974125394
20261772 1 12540706920093539817
20645477 56 18410857689775474543
20645477 70 17632025173306748790
20871999 31 18130217259712841847
21119208 17 17418375809032883381
212847 35 18334851676014136849
21637258 2 13686030752640577620
221357 26 17774996865743810081
22485316 2 11599738263076948423
231179 274 18411417310580517847
23402539 116 18334287695489941852
23402655 69 18059856142943265117
23500284 214 17603870017877220827
23557571 272 18340493377935637903
23559900 14 17203326749952886410
25 1 18413106151940888295
251288 83 9511452329722102286
276578 36 16877939417010394563
32948 21 18412265025840714164
4028521 119 18411979135843656605
4072396 5 18130495363330076962
42 15 8430316848682215533
76465 3 12823025183625815332
9882013 296 13479137882665901001

>  <PUBCHEM_SHAPE_MULTIPOLES>  (1) 
277.26
9.44
1.56
1.09
5.95
0.16
-0.32
5.13
3.32
0.86
0.16
-0.19
-0.02
0.63

>  <PUBCHEM_SHAPE_SELFOVERLAP>  (1) 
558.991

>  <PUBCHEM_SHAPE_VOLUME>  (1) 
163

>  <PUBCHEM_COORDINATE_TYPE>  (1) 
2
5
10

$$$$
