37980
     RDKit          3D

 16 17  0  0  0  0  0  0  0  0999 V2000
   -4.7417    0.9945    0.5155 O   0  0  0  0  0  0  0  0  0  0  0  0
    1.1201   -2.1285    0.8482 O   0  0  0  0  0  0  0  0  0  0  0  0
   -2.4014   -0.2935   -0.4672 N   0  0  0  0  0  0  0  0  0  0  0  0
   -0.0557   -0.5783   -0.4089 N   0  0  0  0  0  0  0  0  0  0  0  0
    4.6082    1.2470   -0.2138 N   0  0  0  0  0  0  0  0  0  0  0  0
   -2.3413    0.6656    0.6446 C   0  0  0  0  0  0  0  0  0  0  0  0
   -3.7112   -0.9594   -0.4872 C   0  0  0  0  0  0  0  0  0  0  0  0
   -3.4835    1.6703    0.5245 C   0  0  0  0  0  0  0  0  0  0  0  0
   -4.8209    0.0840   -0.5817 C   0  0  0  0  0  0  0  0  0  0  0  0
   -1.3224   -1.2739   -0.3656 C   0  0  0  0  0  0  0  0  0  0  0  0
    1.0768   -1.0772    0.2146 C   0  0  0  0  0  0  0  0  0  0  0  0
    2.3112   -0.2647    0.0651 C   0  0  0  0  0  0  0  0  0  0  0  0
    3.5335   -0.8907    0.1329 C   0  0  0  0  0  0  0  0  0  0  0  0
    2.1968    1.0905   -0.1373 C   0  0  0  0  0  0  0  0  0  0  0  0
    4.6542   -0.0891   -0.0127 C   0  0  0  0  0  0  0  0  0  0  0  0
    3.3773    1.8035   -0.2709 C   0  0  0  0  0  0  0  0  0  0  0  0
  1  8  1  0
  1  9  1  0
  2 11  2  0
  3  6  1  0
  3  7  1  0
  3 10  1  0
  4 10  1  0
  4 11  1  0
  5 15  2  0
  5 16  1  0
  6  8  1  0
  7  9  1  0
 11 12  1  0
 12 13  2  0
 12 14  1  0
 13 15  1  0
 14 16  2  0
M  END
>  <PUBCHEM_COMPOUND_CID>  (1) 
37980

>  <PUBCHEM_CONFORMER_RMSD>  (1) 
0.6

>  <PUBCHEM_CONFORMER_DIVERSEORDER>  (1) 
2
19
20
13
17
5
18
9
16
22
21
10
7
11
14
6
12
4
8
15
3
1

>  <PUBCHEM_MMFF94_PARTIAL_CHARGES>  (1) 
21
1 -0.56
10 0.57
11 0.54
12 0.09
13 -0.15
14 -0.15
15 0.16
16 0.16
2 -0.57
27 0.37
28 0.15
29 0.15
3 -0.81
30 0.15
31 0.15
4 -0.73
5 -0.62
6 0.27
7 0.27
8 0.28
9 0.28

>  <PUBCHEM_EFFECTIVE_ROTOR_COUNT>  (1) 
5.2

>  <PUBCHEM_PHARMACOPHORE_FEATURES>  (1) 
7
1 1 acceptor
1 2 acceptor
1 3 cation
1 4 donor
1 5 acceptor
6 1 3 6 7 8 9 rings
6 5 12 13 14 15 16 rings

>  <PUBCHEM_HEAVY_ATOM_COUNT>  (1) 
16

>  <PUBCHEM_ATOM_DEF_STEREO_COUNT>  (1) 
0

>  <PUBCHEM_ATOM_UDEF_STEREO_COUNT>  (1) 
0

>  <PUBCHEM_BOND_DEF_STEREO_COUNT>  (1) 
0

>  <PUBCHEM_BOND_UDEF_STEREO_COUNT>  (1) 
0

>  <PUBCHEM_ISOTOPIC_ATOM_COUNT>  (1) 
0

>  <PUBCHEM_COMPONENT_COUNT>  (1) 
1

>  <PUBCHEM_CACTVS_TAUTO_COUNT>  (1) 
2

>  <PUBCHEM_CONFORMER_ID>  (1) 
0000945C00000002

>  <PUBCHEM_MMFF94_ENERGY>  (1) 
35.1282

>  <PUBCHEM_FEATURE_SELFOVERLAP>  (1) 
35.522

>  <PUBCHEM_SHAPE_FINGERPRINT>  (1) 
10354089 29 18334018284791587384
11471102 20 18335417967953163950
12107183 9 17763462812078259987
12236239 1 18343580737381438438
12346645 44 18409728456552166479
12644460 14 17894622613790176642
12916748 109 18343871029920804502
13897977 58 18272371975643317645
14252887 29 11819267828916335936
15196674 1 18412545422385254208
15342168 16 17823422771754780244
15775835 57 18412266137841773593
17802600 8 18413383237403006641
17834072 32 18124597479668857897
17834072 33 18341327868427001239
17834072 8 18272660026230692206
18186145 218 18334010597290796518
20233049 118 17703784795556246368
20279233 1 15719395001834534435
20300324 65 17917427653307552605
204376 136 17967254221147807466
212847 35 18413387640213834176
21524375 3 18410854377944453598
21652331 79 18409167697211576677
22854114 59 17894910732669486287
231179 274 18186796954997897006
23402539 116 17846210068387885668
23402655 69 18342176704552062892
23559900 14 17702103560620854847
351380 180 18411980269182155856
3545911 37 18411139142887004159
4214541 1 18413388743724776741
474 4 18187366570703755236
4990 188 17988932167037066654
5104073 3 18408602586646694858
54446538 1 18413387639718007341
633830 44 18409166623538292326
77779 3 18413108368091096671
9981440 41 17404006515335761400

>  <PUBCHEM_SHAPE_MULTIPOLES>  (1) 
302.59
10.84
1.79
0.76
2.67
0.12
-0.03
3.47
0.62
-0.38
-0.19
0.27
-0.04
-0.92

>  <PUBCHEM_SHAPE_SELFOVERLAP>  (1) 
627.902

>  <PUBCHEM_SHAPE_VOLUME>  (1) 
170.4

>  <PUBCHEM_COORDINATE_TYPE>  (1) 
2
5
10

$$$$
