37987
     RDKit          3D

  4  3  0  0  0  0  0  0  0  0999 V2000
   -0.5855   -0.4482    0.0000 N   0  0  0  0  0  0  0  0  0  0  0  0
    0.5173    0.3542    0.0000 C   0  0  0  0  0  0  0  0  0  0  0  0
    1.7807   -0.0815    0.0000 C   0  0  0  0  0  0  0  0  0  0  0  0
   -1.7125    0.1755    0.0000 C   0  0  0  0  0  0  0  0  0  0  0  0
  1  2  1  0
  1  4  2  0
  2  3  2  0
M  END
>  <PUBCHEM_COMPOUND_CID>  (1) 
37987

>  <PUBCHEM_CONFORMER_RMSD>  (1) 
0.4

>  <PUBCHEM_CONFORMER_DIVERSEORDER>  (1) 
1
2

>  <PUBCHEM_MMFF94_PARTIAL_CHARGES>  (1) 
9
1 -0.62
2 0.02
3 -0.3
4 0.33
5 0.15
6 0.15
7 0.15
8 0.06
9 0.06

>  <PUBCHEM_EFFECTIVE_ROTOR_COUNT>  (1) 
1

>  <PUBCHEM_PHARMACOPHORE_FEATURES>  (1) 
1
1 1 acceptor

>  <PUBCHEM_HEAVY_ATOM_COUNT>  (1) 
4

>  <PUBCHEM_ATOM_DEF_STEREO_COUNT>  (1) 
0

>  <PUBCHEM_ATOM_UDEF_STEREO_COUNT>  (1) 
0

>  <PUBCHEM_BOND_DEF_STEREO_COUNT>  (1) 
0

>  <PUBCHEM_BOND_UDEF_STEREO_COUNT>  (1) 
0

>  <PUBCHEM_ISOTOPIC_ATOM_COUNT>  (1) 
0

>  <PUBCHEM_COMPONENT_COUNT>  (1) 
1

>  <PUBCHEM_CACTVS_TAUTO_COUNT>  (1) 
1

>  <PUBCHEM_CONFORMER_ID>  (1) 
0000946300000001

>  <PUBCHEM_MMFF94_ENERGY>  (1) 
5.2433

>  <PUBCHEM_FEATURE_SELFOVERLAP>  (1) 
5.074

>  <PUBCHEM_SHAPE_FINGERPRINT>  (1) 
139733 1 18410856546881507717
20096714 4 8718819895022400366
21015797 1 18194120956432165860
5460574 1 18410856546770731428

>  <PUBCHEM_SHAPE_MULTIPOLES>  (1) 
77.34
2.36
0.68
0.6
0
0.02
0
0.02
0
-0.01
0
0.01
0.01
0

>  <PUBCHEM_SHAPE_SELFOVERLAP>  (1) 
132.21

>  <PUBCHEM_SHAPE_VOLUME>  (1) 
52.3

>  <PUBCHEM_COORDINATE_TYPE>  (1) 
2
5
10

$$$$
