37999
     RDKit          3D

 19 19  0  0  0  0  0  0  0  0999 V2000
   -3.6874   -0.8494   -0.1109 O   0  0  0  0  0  0  0  0  0  0  0  0
   -1.5763   -2.4886   -0.8373 O   0  0  0  0  0  0  0  0  0  0  0  0
   -3.1997    1.7873    0.5841 O   0  0  0  0  0  0  0  0  0  0  0  0
    1.7311    2.3570   -0.3780 O   0  0  0  0  0  0  0  0  0  0  0  0
    2.5502    0.2302    0.0287 N   0  0  0  0  0  0  0  0  0  0  0  0
    3.8348    0.6528    0.0062 N   0  0  0  0  0  0  0  0  0  0  0  0
    6.1182   -0.0989    0.2300 N   0  0  0  0  0  0  0  0  0  0  0  0
    4.3865   -1.5686    0.4170 N   0  0  0  0  0  0  0  0  0  0  0  0
    0.1599    0.6272   -0.1594 C   0  0  0  0  0  0  0  0  0  0  0  0
   -2.4147   -0.3606   -0.1265 C   0  0  0  0  0  0  0  0  0  0  0  0
   -1.3542   -1.1894   -0.4929 C   0  0  0  0  0  0  0  0  0  0  0  0
   -2.1730    0.9677    0.2234 C   0  0  0  0  0  0  0  0  0  0  0  0
   -0.0521   -0.6898   -0.5095 C   0  0  0  0  0  0  0  0  0  0  0  0
   -0.8708    1.4675    0.2066 C   0  0  0  0  0  0  0  0  0  0  0  0
    1.5474    1.1594   -0.1749 C   0  0  0  0  0  0  0  0  0  0  0  0
   -4.3785   -0.8148    1.1355 C   0  0  0  0  0  0  0  0  0  0  0  0
   -1.5338   -3.4535    0.2122 C   0  0  0  0  0  0  0  0  0  0  0  0
   -3.8377    2.5237   -0.4573 C   0  0  0  0  0  0  0  0  0  0  0  0
    4.7501   -0.2592    0.2032 C   0  0  0  0  0  0  0  0  0  0  0  0
  1 10  1  0
  1 16  1  0
  2 11  1  0
  2 17  1  0
  3 12  1  0
  3 18  1  0
  4 15  2  0
  5  6  1  0
  5 15  1  0
  6 19  2  3
  7 19  1  0
  8 19  1  0
  9 13  2  0
  9 14  1  0
  9 15  1  0
 10 11  2  0
 10 12  1  0
 11 13  1  0
 12 14  2  0
M  END
>  <PUBCHEM_COMPOUND_CID>  (1) 
37999

>  <PUBCHEM_CONFORMER_RMSD>  (1) 
0.8

>  <PUBCHEM_CONFORMER_DIVERSEORDER>  (1) 
1
5
2
3
4

>  <PUBCHEM_MMFF94_PARTIAL_CHARGES>  (1) 
26
1 -0.36
10 0.08
11 0.08
12 0.08
13 -0.15
14 -0.15
15 0.54
16 0.28
17 0.28
18 0.28
19 0.55
2 -0.36
20 0.15
21 0.15
22 0.37
3 -0.36
32 0.4
33 0.4
34 0.4
35 0.4
4 -0.57
5 -0.37
6 -0.51
7 -0.85
8 -0.85
9 0.09

>  <PUBCHEM_EFFECTIVE_ROTOR_COUNT>  (1) 
6

>  <PUBCHEM_PHARMACOPHORE_FEATURES>  (1) 
9
1 1 acceptor
1 2 acceptor
1 3 acceptor
1 4 acceptor
1 5 donor
1 7 donor
1 8 donor
4 6 7 8 19 cation
6 9 10 11 12 13 14 rings

>  <PUBCHEM_HEAVY_ATOM_COUNT>  (1) 
19

>  <PUBCHEM_ATOM_DEF_STEREO_COUNT>  (1) 
0

>  <PUBCHEM_ATOM_UDEF_STEREO_COUNT>  (1) 
0

>  <PUBCHEM_BOND_DEF_STEREO_COUNT>  (1) 
0

>  <PUBCHEM_BOND_UDEF_STEREO_COUNT>  (1) 
0

>  <PUBCHEM_ISOTOPIC_ATOM_COUNT>  (1) 
0

>  <PUBCHEM_COMPONENT_COUNT>  (1) 
1

>  <PUBCHEM_CACTVS_TAUTO_COUNT>  (1) 
4

>  <PUBCHEM_CONFORMER_ID>  (1) 
0000946F00000001

>  <PUBCHEM_MMFF94_ENERGY>  (1) 
93.0736

>  <PUBCHEM_FEATURE_SELFOVERLAP>  (1) 
45.748

>  <PUBCHEM_SHAPE_FINGERPRINT>  (1) 
10616163 171 18340486759618238814
12251169 10 18412546547893201412
12500047 106 18342731906152542328
12553582 1 18335125519361593698
13140716 1 18126009509906199779
13551218 46 18341616988250793878
13675066 3 18413387644292517144
13862211 1 18270119153733417847
14965852 173 18340485689732947444
15042514 8 18266463294603355611
15196674 1 18338797815131141362
15442244 35 18410574028444392356
16752209 62 18339344332486693827
16945 1 18268152135799260349
17804303 29 18343302569957125360
17859628 97 18191020114831211978
1813 80 17458349611471384214
20281475 54 18335418036730676132
20510252 161 18202570561943118249
21267235 1 18410019849003885546
21478907 32 18124028198796583399
22182313 1 18199486371834541751
2334 1 17333371702360289469
23402539 116 18272927254700674741
23559900 14 18270672207860591232
23566358 27 17898862515088876252
23728640 28 18343018925652963951
2748010 2 18269291075295268653
335352 9 18411699920082690341
350125 39 18410858759280619913
4214541 1 18411980261030090640
5104073 3 18410854352543954800
532947 4 18055074255026011695
5364581 5 17913188039898834784
559249 180 18334852771684452090
58051976 100 18259983747393570589
58807428 26 18269288863102359107
9709674 26 18272938228215996206

>  <PUBCHEM_SHAPE_MULTIPOLES>  (1) 
347.61
9.7
2.9
0.77
13.64
1.35
-0.04
-0.06
-1.98
-2.65
0.23
-0.45
0.12
-0.08

>  <PUBCHEM_SHAPE_SELFOVERLAP>  (1) 
719.352

>  <PUBCHEM_SHAPE_VOLUME>  (1) 
198.1

>  <PUBCHEM_COORDINATE_TYPE>  (1) 
2
5
10

$$$$
