37990
     RDKit          3D

 26 27  0  0  1  0  0  0  0  0999 V2000
   -3.3611   -2.5280   -0.8476 S   0  0  0  0  0  0  0  0  0  0  0  0
   -1.1394    3.0963   -1.4061 O   0  0  0  0  0  0  0  0  0  0  0  0
   -5.5015   -0.2244    1.5780 O   0  0  0  0  0  0  0  0  0  0  0  0
   -3.9150   -3.3753   -1.8872 O   0  0  0  0  0  0  0  0  0  0  0  0
   -1.9357   -2.2721   -0.7868 O   0  0  0  0  0  0  0  0  0  0  0  0
    1.5178    2.2064   -0.7575 N   0  0  0  0  0  0  0  0  0  0  0  0
   -4.2536   -1.0565   -0.8142 N   0  0  0  0  0  0  0  0  0  0  0  0
    2.6505    1.2734   -0.8898 C   0  0  0  0  0  0  0  0  0  0  0  0
    2.8935    0.6232    0.4977 C   0  0  0  0  0  0  0  0  0  0  0  0
    0.3310    1.4990   -0.3151 C   0  0  0  0  0  0  0  0  0  0  0  0
    2.2643    0.2410   -1.9578 C   0  0  0  0  0  0  0  0  0  0  0  0
    3.8575    2.0912   -1.3697 C   0  0  0  0  0  0  0  0  0  0  0  0
   -0.8524    2.4622   -0.1603 C   0  0  0  0  0  0  0  0  0  0  0  0
    4.0560   -0.3381    0.5932 C   0  0  0  0  0  0  0  0  0  0  0  0
   -2.0989    1.7393    0.3007 C   0  0  0  0  0  0  0  0  0  0  0  0
    3.8460   -1.6826    0.3354 C   0  0  0  0  0  0  0  0  0  0  0  0
    5.3081    0.1447    0.9362 C   0  0  0  0  0  0  0  0  0  0  0  0
   -2.5931    0.6923   -0.4582 C   0  0  0  0  0  0  0  0  0  0  0  0
   -2.7175    2.1396    1.4724 C   0  0  0  0  0  0  0  0  0  0  0  0
   -3.7416    0.0250   -0.0321 C   0  0  0  0  0  0  0  0  0  0  0  0
    4.9188   -2.5699    0.4232 C   0  0  0  0  0  0  0  0  0  0  0  0
    6.3807   -0.7427    1.0239 C   0  0  0  0  0  0  0  0  0  0  0  0
   -3.8659    1.4724    1.8986 C   0  0  0  0  0  0  0  0  0  0  0  0
   -4.3781    0.4152    1.1463 C   0  0  0  0  0  0  0  0  0  0  0  0
    6.1860   -2.0999    0.7674 C   0  0  0  0  0  0  0  0  0  0  0  0
   -3.8562   -3.2316    0.7096 C   0  0  0  0  0  0  0  0  0  0  0  0
  1  4  2  0
  1  5  2  0
  1  7  1  0
  1 26  1  0
  2 13  1  0
  3 24  1  0
  6  8  1  0
  6 10  1  0
  7 20  1  0
  8  9  1  0
  8 11  1  0
  8 12  1  0
  9 14  1  0
 10 13  1  0
 13 15  1  0
 14 16  2  0
 14 17  1  0
 15 18  2  0
 15 19  1  0
 16 21  1  0
 17 22  2  0
 18 20  1  0
 19 23  2  0
 20 24  2  0
 21 25  2  0
 22 25  1  0
 23 24  1  0
M  END
>  <PUBCHEM_COMPOUND_CID>  (1) 
37990

>  <PUBCHEM_CONFORMER_RMSD>  (1) 
1

>  <PUBCHEM_CONFORMER_DIVERSEORDER>  (1) 
5
77
631
129
202
309
6
268
496
587
438
519
259
290
570
613
313
96
95
81
448
563
198
371
386
173
65
329
143
229
307
186
9
543
644
18
402
278
73
54
549
674
479
544
112
144
361
522
435
87
279
572
679
599
88
596
51
315
289
288
691
648
8
568
175
618
704
601
300
616
398
328
238
499
538
467
131
125
153
94
504
181
261
82
491
15
395
86
609
240
471
163
468
111
38
459
89
147
583
243
612
646
117
580
241
394
57
548
11
150
248
667
619
557
214
513
360
48
614
16
250
137
99
227
346
26
331
2
50
42
13
592
151
421
124
591
98
4
320
643
474
494
349
141
37
670
149
523
10
221
559
102
606
358
97
370
20
103
201
148
164
145
242
63
409
101
3
61
180
176
7
74
118
104
1
521
211
83
80
33
14
56
244
446
84
159

>  <PUBCHEM_MMFF94_PARTIAL_CHARGES>  (1) 
36
1 1.33
10 0.27
13 0.42
14 -0.14
15 -0.14
16 -0.15
17 -0.15
18 -0.15
19 -0.15
2 -0.68
20 0.2
21 -0.15
22 -0.15
23 -0.15
24 0.08
25 -0.15
26 0.11
29 0.36
3 -0.53
39 0.15
4 -0.65
40 0.15
41 0.15
42 0.15
43 0.4
44 0.15
45 0.15
46 0.15
47 0.15
48 0.42
5 -0.65
52 0.45
6 -0.9
7 -0.76
8 0.27
9 0.14

>  <PUBCHEM_EFFECTIVE_ROTOR_COUNT>  (1) 
8

>  <PUBCHEM_PHARMACOPHORE_FEATURES>  (1) 
11
1 2 acceptor
1 2 donor
1 3 donor
1 4 acceptor
1 5 acceptor
1 6 cation
1 6 donor
1 7 donor
3 8 11 12 hydrophobe
6 14 16 17 21 22 25 rings
6 15 18 19 20 23 24 rings

>  <PUBCHEM_HEAVY_ATOM_COUNT>  (1) 
26

>  <PUBCHEM_ATOM_DEF_STEREO_COUNT>  (1) 
0

>  <PUBCHEM_ATOM_UDEF_STEREO_COUNT>  (1) 
1

>  <PUBCHEM_BOND_DEF_STEREO_COUNT>  (1) 
0

>  <PUBCHEM_BOND_UDEF_STEREO_COUNT>  (1) 
0

>  <PUBCHEM_ISOTOPIC_ATOM_COUNT>  (1) 
0

>  <PUBCHEM_COMPONENT_COUNT>  (1) 
1

>  <PUBCHEM_CACTVS_TAUTO_COUNT>  (1) 
3

>  <PUBCHEM_CONFORMER_ID>  (1) 
0000946600000005

>  <PUBCHEM_MMFF94_ENERGY>  (1) 
70.3925

>  <PUBCHEM_FEATURE_SELFOVERLAP>  (1) 
55.844

>  <PUBCHEM_SHAPE_FINGERPRINT>  (1) 
10042902 136 18336551525997848166
10622 236 18196642106889251007
10928967 22 18189619350134357818
11135926 11 17751932560382809484
11552529 35 18131057234719036858
12174731 88 18262792943931864314
12422481 6 18271815566213327910
12596602 18 17846211134368035000
12633257 1 17989212546459870345
13103583 49 18272652316379533504
13583140 156 18128516216393302220
14117953 113 18338233739891066493
14950920 106 17917987261544816568
15163728 17 11603081848305008161
15250474 111 18412545444055120358
15537594 2 18189633767869805701
15728490 51 18410574016318742888
16110190 28 18413110545882037442
16994733 274 14619959167974233465
17780758 139 18273492355921294289
17857418 61 18409444787100212788
19319366 153 17114099426658108501
193927 3 17604162419493929904
20843269 155 18127684035766000574
21585480 29 18129084788474452762
21673915 165 18411130312909198690
229767 44 18342457015076457471
2838139 119 9223220872056432898
312425 54 18202278066217119216
46194498 28 14129924577298300542
463206 1 18334298681810777858
5104073 3 18130231569995304577
559249 180 18261672563463892793
56633871 153 18411704257688903203
5924683 9 18201430385369551143
6431902 208 18334851753598283674
7970288 3 18041005037380645171

>  <PUBCHEM_SHAPE_MULTIPOLES>  (1) 
505.48
14.64
3.89
1.65
12.04
1.9
0.17
9.06
-5.48
-2.61
1.05
-0.88
-0.17
-3.08

>  <PUBCHEM_SHAPE_SELFOVERLAP>  (1) 
1041.652

>  <PUBCHEM_SHAPE_VOLUME>  (1) 
292.7

>  <PUBCHEM_COORDINATE_TYPE>  (1) 
2
5
10

$$$$
