3799
     RDKit          3D

 14 15  0  0  0  0  0  0  0  0999 V2000
   -2.8619   -1.5235    0.5663 O   0  0  0  0  0  0  0  0  0  0  0  0
    1.2181   -0.5657   -0.0415 C   0  0  0  0  0  0  0  0  0  0  0  0
    1.5505    0.8060    0.0633 C   0  0  0  0  0  0  0  0  0  0  0  0
   -0.1328   -0.9486   -0.0155 C   0  0  0  0  0  0  0  0  0  0  0  0
   -1.1416    0.0068    0.1122 C   0  0  0  0  0  0  0  0  0  0  0  0
    0.5223    1.7542    0.1908 C   0  0  0  0  0  0  0  0  0  0  0  0
   -0.8146    1.3558    0.2149 C   0  0  0  0  0  0  0  0  0  0  0  0
    2.2464   -1.5136   -0.1693 C   0  0  0  0  0  0  0  0  0  0  0  0
    2.9013    1.1892    0.0371 C   0  0  0  0  0  0  0  0  0  0  0  0
    3.5831   -1.1151   -0.1932 C   0  0  0  0  0  0  0  0  0  0  0  0
    3.9101    0.2338   -0.0901 C   0  0  0  0  0  0  0  0  0  0  0  0
   -2.5357   -0.4063    0.1367 C   0  0  0  0  0  0  0  0  0  0  0  0
   -3.5762    0.5332   -0.3978 C   0  0  0  0  0  0  0  0  0  0  0  0
   -4.8690    0.1937   -0.4140 C   0  0  0  0  0  0  0  0  0  0  0  0
  1 12  2  0
  2  3  1  0
  2  4  2  0
  2  8  1  0
  3  6  2  0
  3  9  1  0
  4  5  1  0
  5  7  2  0
  5 12  1  0
  6  7  1  0
  8 10  2  0
  9 11  2  0
 10 11  1  0
 12 13  1  0
 13 14  2  0
M  END
>  <PUBCHEM_COMPOUND_CID>  (1) 
3799

>  <PUBCHEM_CONFORMER_RMSD>  (1) 
0.6

>  <PUBCHEM_CONFORMER_DIVERSEORDER>  (1) 
1
3
2
4

>  <PUBCHEM_MMFF94_PARTIAL_CHARGES>  (1) 
22
1 -0.57
10 -0.15
11 -0.15
12 0.47
13 -0.14
14 -0.3
15 0.15
16 0.15
17 0.15
18 0.15
19 0.15
20 0.15
21 0.15
22 0.15
23 0.15
24 0.15
4 -0.15
5 0.09
6 -0.15
7 -0.15
8 -0.15
9 -0.15

>  <PUBCHEM_EFFECTIVE_ROTOR_COUNT>  (1) 
2

>  <PUBCHEM_PHARMACOPHORE_FEATURES>  (1) 
4
1 1 acceptor
1 14 hydrophobe
6 2 3 4 5 6 7 rings
6 2 3 8 9 10 11 rings

>  <PUBCHEM_HEAVY_ATOM_COUNT>  (1) 
14

>  <PUBCHEM_ATOM_DEF_STEREO_COUNT>  (1) 
0

>  <PUBCHEM_ATOM_UDEF_STEREO_COUNT>  (1) 
0

>  <PUBCHEM_BOND_DEF_STEREO_COUNT>  (1) 
0

>  <PUBCHEM_BOND_UDEF_STEREO_COUNT>  (1) 
0

>  <PUBCHEM_ISOTOPIC_ATOM_COUNT>  (1) 
0

>  <PUBCHEM_COMPONENT_COUNT>  (1) 
1

>  <PUBCHEM_CACTVS_TAUTO_COUNT>  (1) 
1

>  <PUBCHEM_CONFORMER_ID>  (1) 
00000ED700000001

>  <PUBCHEM_MMFF94_ENERGY>  (1) 
44.3945

>  <PUBCHEM_FEATURE_SELFOVERLAP>  (1) 
20.324

>  <PUBCHEM_SHAPE_FINGERPRINT>  (1) 
10130415 120 18410571760516712593
10219947 1 18131635581887523750
10608611 8 18336262426779096397
10967382 1 18411700967569608294
11132069 177 18412821412962800802
11401426 45 18342450460955707640
11471102 20 18411697690525275388
12032990 46 18411426115411330114
124424 183 18335138691704322691
13296908 3 18408326609360036587
13571099 22 18411982463889163237
13760787 19 17603586348167220106
14115302 16 18041289815287237863
14251717 144 18343017783148991134
14252887 29 17917721188241447534
14325111 11 18410012169085265736
14576447 43 17987219201057015103
14911166 2 18409731750665222319
14943859 89 13118007694869344577
14993402 34 17918275367576037046
15196674 1 18410575119054641190
15219456 202 18335985358554583739
15375358 24 18408882949174043147
15536298 74 18272369776261385464
16945 1 18341620342915105544
18186145 218 17821722840741585999
200 152 17989484104456944325
20201158 50 18410013221373514691
20279233 1 18335143098161524299
20645477 70 18342457015023424479
21267235 1 18340778060783465534
21501502 16 18197222447075160296
21501925 9 18340198605808523218
221490 88 18193278722341907099
23402539 116 18271798025687918334
23402655 69 18341321207433950141
23463225 33 18411140225403294564
23559900 14 18408040698214982570
2748010 2 17835525190894423368
2871803 45 18336828598179360454
3312278 4 18409733975621850955
34934 24 18340479049703068698
4072396 5 18337090299179355682
5104073 3 18410012164848334659
537710 114 18412548716830924644
69090 78 18412258446061839719
7364860 26 18271242832741267792
8809292 202 18260553341830093555
9709674 26 18341336591352806431

>  <PUBCHEM_SHAPE_MULTIPOLES>  (1) 
282.24
7.65
1.62
0.66
4.76
0.1
0.01
-0.75
0.97
-0.61
-0.1
0.12
-0.01
0.3

>  <PUBCHEM_SHAPE_SELFOVERLAP>  (1) 
615.222

>  <PUBCHEM_SHAPE_VOLUME>  (1) 
154.3

>  <PUBCHEM_COORDINATE_TYPE>  (1) 
2
5
10

$$$$
