37993
     RDKit          3D

 13 12  0  0  0  0  0  0  0  0999 V2000
   -4.8115    1.2236    0.4355 O   0  0  0  0  0  0  0  0  0  0  0  0
    1.2426   -2.8504   -0.7638 O   0  0  0  0  0  0  0  0  0  0  0  0
   -3.7942    0.2562   -1.3500 O   0  0  0  0  0  0  0  0  0  0  0  0
    0.9248   -0.9727    0.1516 N   0  0  0  0  0  0  0  0  0  0  0  0
    0.7854   -2.2817    0.2348 N   0  0  0  0  0  0  0  0  0  0  0  0
    2.2396   -0.4874    0.6018 C   0  0  0  0  0  0  0  0  0  0  0  0
    2.6827    0.7058   -0.2432 C   0  0  0  0  0  0  0  0  0  0  0  0
   -0.1321   -0.2579    0.8587 C   0  0  0  0  0  0  0  0  0  0  0  0
   -1.3896   -0.1803   -0.0079 C   0  0  0  0  0  0  0  0  0  0  0  0
    4.0380    1.2396    0.2222 C   0  0  0  0  0  0  0  0  0  0  0  0
   -2.5313    0.5562    0.6860 C   0  0  0  0  0  0  0  0  0  0  0  0
    4.5026    2.4051   -0.6366 C   0  0  0  0  0  0  0  0  0  0  0  0
   -3.7570    0.6442   -0.1892 C   0  0  0  0  0  0  0  0  0  0  0  0
  1 13  1  0
  2  5  2  0
  3 13  2  0
  4  5  1  0
  4  6  1  0
  4  8  1  0
  6  7  1  0
  7 10  1  0
  8  9  1  0
  9 11  1  0
 10 12  1  0
 11 13  1  0
M  END
>  <PUBCHEM_COMPOUND_CID>  (1) 
37993

>  <PUBCHEM_CONFORMER_RMSD>  (1) 
0.8

>  <PUBCHEM_CONFORMER_DIVERSEORDER>  (1) 
1
251
130
91
29
272
15
38
22
206
220
66
132
137
77
148
204
53
270
12
157
224
62
61
6
159
147
202
152
275
169
128
39
280
55
273
16
80
238
127
73
74
217
151
195
269
10
255
242
236
248
44
150
4
40
11
50
51
235
31
282
112
95
72
209
179
182
189
262
254
219
97
208
75
65
2
123
187
103
3
122
247
212
173
233
111
135
203
5
239
144
108
120
129
278
164
64
119
60
48
71
36
200
86
146
47
82
250
19
185
167
268
228
156
68
13
215
89
18
58
171
34
168
241
176
54
85
113
139
76
8
43
160
30
87
63
7
225
83
218
100
101
126
183
245
267
191
166
180
27
121
276
274
93
88
253
41
107
92
81
207
256
257
232
197
223
279
21
67
244
186
106
266
271
26
116
32
136
20
177
216
175
94
162
70
140
181
281
178
133
90
210
142
109
193
49
240
56
211
252
263
105
78
261
104
141
161
84
283
124
155
57
264
196
214
42
260
17
110
154
138
184
125
145
174
33
69
258
118
172
163
149
265
277
134
45
131
213
165
231
249
158
14
102
222
24
234
259
190
153
9
170
117
226
96
192
237
28
23
46
246
99
114
221
198
115
143
205
243
59
35
229
25
98
79
230
37
52
201
188
199
227
194

>  <PUBCHEM_MMFF94_PARTIAL_CHARGES>  (1) 
10
1 -0.65
11 0.06
13 0.66
2 -0.16
29 0.5
3 -0.57
4 -0.36
5 -0.01
6 0.27
8 0.27

>  <PUBCHEM_EFFECTIVE_ROTOR_COUNT>  (1) 
8

>  <PUBCHEM_PHARMACOPHORE_FEATURES>  (1) 
4
1 1 acceptor
1 12 hydrophobe
1 3 acceptor
3 1 3 13 anion

>  <PUBCHEM_HEAVY_ATOM_COUNT>  (1) 
13

>  <PUBCHEM_ATOM_DEF_STEREO_COUNT>  (1) 
0

>  <PUBCHEM_ATOM_UDEF_STEREO_COUNT>  (1) 
0

>  <PUBCHEM_BOND_DEF_STEREO_COUNT>  (1) 
0

>  <PUBCHEM_BOND_UDEF_STEREO_COUNT>  (1) 
0

>  <PUBCHEM_ISOTOPIC_ATOM_COUNT>  (1) 
0

>  <PUBCHEM_COMPONENT_COUNT>  (1) 
1

>  <PUBCHEM_CACTVS_TAUTO_COUNT>  (1) 
1

>  <PUBCHEM_CONFORMER_ID>  (1) 
0000946900000001

>  <PUBCHEM_MMFF94_ENERGY>  (1) 
11.5947

>  <PUBCHEM_FEATURE_SELFOVERLAP>  (1) 
20.355

>  <PUBCHEM_SHAPE_FINGERPRINT>  (1) 
12119455 92 18260540147917107968
122479 349 17969788664781062272
14123255 52 18337673121962461332
14415576 193 18410293571142601312
170605 34 18333731290771475507
1741750 31 18267584787809806112
17834072 32 18191592054488897724
18342897 55 18411979173949430863
19786989 88 18335692811020451639
204376 136 18336266829088575536
20671657 53 17766000497610787902
21499 59 18411135861436953494
21524375 3 18409725188445824002
2255824 54 18197779890733328119
23402539 116 18202278147969547436
23532345 1 18337957792336512913
328317 168 18409445929224091829
449060 50 18335707118052269849
449060 62 18334012791787158040
57096353 35 17917415532809740117
81539 233 18408039593922993230

>  <PUBCHEM_SHAPE_MULTIPOLES>  (1) 
239.96
9.18
2.31
0.92
2.56
1.43
-0.1
-8.23
-1.22
-2.22
-0.54
0.34
0
-0.39

>  <PUBCHEM_SHAPE_SELFOVERLAP>  (1) 
445.305

>  <PUBCHEM_SHAPE_VOLUME>  (1) 
151.4

>  <PUBCHEM_COORDINATE_TYPE>  (1) 
2
5
10

$$$$
