38
     RDKit          3D

 10  9  0  0  0  0  0  0  0  0999 V2000
   -1.4882   -0.3836   -1.9013 O   0  0  0  0  0  0  0  0  0  0  0  0
    0.5976    1.7797   -0.1673 O   0  0  0  0  0  0  0  0  0  0  0  0
    2.6763    0.4066   -0.3091 O   0  0  0  0  0  0  0  0  0  0  0  0
    1.5008   -1.5052    0.1758 O   0  0  0  0  0  0  0  0  0  0  0  0
   -0.9668   -0.0036    0.4527 C   0  0  0  0  0  0  0  0  0  0  0  0
   -1.3848   -1.0194   -0.6321 C   0  0  0  0  0  0  0  0  0  0  0  0
   -1.9961    1.1352    0.4852 C   0  0  0  0  0  0  0  0  0  0  0  0
   -0.9173   -0.6992    1.8220 C   0  0  0  0  0  0  0  0  0  0  0  0
    0.3902    0.5961    0.0686 C   0  0  0  0  0  0  0  0  0  0  0  0
    1.5884   -0.3065    0.0056 C   0  0  0  0  0  0  0  0  0  0  0  0
  1  6  1  0
  2  9  2  0
  3 10  1  0
  4 10  2  0
  5  6  1  0
  5  7  1  0
  5  8  1  0
  5  9  1  0
  9 10  1  0
M  END
>  <PUBCHEM_COMPOUND_CID>  (1) 
38

>  <PUBCHEM_CONFORMER_RMSD>  (1) 
0.6

>  <PUBCHEM_CONFORMER_DIVERSEORDER>  (1) 
1
9
2
10
3
6
7
4
8
5

>  <PUBCHEM_MMFF94_PARTIAL_CHARGES>  (1) 
10
1 -0.68
10 0.72
19 0.4
2 -0.57
20 0.5
3 -0.65
4 -0.57
5 0.06
6 0.28
9 0.51

>  <PUBCHEM_EFFECTIVE_ROTOR_COUNT>  (1) 
3

>  <PUBCHEM_PHARMACOPHORE_FEATURES>  (1) 
7
1 1 acceptor
1 1 donor
1 2 acceptor
1 3 acceptor
1 4 acceptor
3 3 4 10 anion
3 5 7 8 hydrophobe

>  <PUBCHEM_HEAVY_ATOM_COUNT>  (1) 
10

>  <PUBCHEM_ATOM_DEF_STEREO_COUNT>  (1) 
0

>  <PUBCHEM_ATOM_UDEF_STEREO_COUNT>  (1) 
0

>  <PUBCHEM_BOND_DEF_STEREO_COUNT>  (1) 
0

>  <PUBCHEM_BOND_UDEF_STEREO_COUNT>  (1) 
0

>  <PUBCHEM_ISOTOPIC_ATOM_COUNT>  (1) 
0

>  <PUBCHEM_COMPONENT_COUNT>  (1) 
1

>  <PUBCHEM_CACTVS_TAUTO_COUNT>  (1) 
1

>  <PUBCHEM_CONFORMER_ID>  (1) 
0000002600000001

>  <PUBCHEM_MMFF94_ENERGY>  (1) 
23.7599

>  <PUBCHEM_FEATURE_SELFOVERLAP>  (1) 
35.594

>  <PUBCHEM_SHAPE_FINGERPRINT>  (1) 
12423570 1 8394420916450212339
13024252 1 17894922814380860832
137420 1 12775682867207654003
14128692 85 17487324082892580990
16945 1 18411707556154916129
18185500 45 18201997767602647462
21040471 1 17201924734560601937
23552333 60 17629760329829911011
24536 1 18114183093886119456
29004967 10 18261409848539860120
369184 2 16153428376250012984
5084963 1 17844826947258512210

>  <PUBCHEM_SHAPE_MULTIPOLES>  (1) 
182.32
2.7
1.41
1.34
1.24
0.22
-0.11
0.14
-0.18
0.03
0.05
-0.86
-0.41
-0.21

>  <PUBCHEM_SHAPE_SELFOVERLAP>  (1) 
355.029

>  <PUBCHEM_SHAPE_VOLUME>  (1) 
109.9

>  <PUBCHEM_COORDINATE_TYPE>  (1) 
2
5
10

$$$$
