38005
     RDKit          3D

 14 15  0  0  1  0  0  0  0  0999 V2000
    2.4430   -1.9232    0.1876 O   0  0  0  0  0  0  0  0  0  0  0  0
    4.0492    0.3093    0.1226 O   0  0  0  0  0  0  0  0  0  0  0  0
   -3.7963   -0.1476   -0.1528 N   0  0  0  0  0  0  0  0  0  0  0  0
   -2.3894   -0.3016    0.2144 C   0  0  0  0  0  0  0  0  0  0  0  0
   -1.8159   -1.5683   -0.4234 C   0  0  0  0  0  0  0  0  0  0  0  0
   -1.5817    0.9238   -0.2354 C   0  0  0  0  0  0  0  0  0  0  0  0
   -0.3789   -1.7958    0.0467 C   0  0  0  0  0  0  0  0  0  0  0  0
   -0.0900    0.7271   -0.1119 C   0  0  0  0  0  0  0  0  0  0  0  0
    0.4778   -0.5567   -0.0208 C   0  0  0  0  0  0  0  0  0  0  0  0
    1.8721   -0.6882    0.0679 C   0  0  0  0  0  0  0  0  0  0  0  0
    0.7499    1.8507   -0.1493 C   0  0  0  0  0  0  0  0  0  0  0  0
    2.6953    0.4371    0.0402 C   0  0  0  0  0  0  0  0  0  0  0  0
    2.1345    1.7058   -0.0708 C   0  0  0  0  0  0  0  0  0  0  0  0
   -4.3695    1.0274    0.4849 C   0  0  0  0  0  0  0  0  0  0  0  0
  1 10  1  0
  2 12  1  0
  3  4  1  0
  3 14  1  0
  4  5  1  0
  4  6  1  0
  5  7  1  0
  6  8  1  0
  7  9  1  0
  8  9  2  0
  8 11  1  0
  9 10  1  0
 10 12  2  0
 11 13  2  0
 12 13  1  0
M  END
>  <PUBCHEM_COMPOUND_CID>  (1) 
38005

>  <PUBCHEM_CONFORMER_RMSD>  (1) 
0.6

>  <PUBCHEM_CONFORMER_DIVERSEORDER>  (1) 
1
2

>  <PUBCHEM_MMFF94_PARTIAL_CHARGES>  (1) 
18
1 -0.53
10 0.08
11 -0.15
12 0.08
13 -0.15
14 0.27
2 -0.53
22 0.36
23 0.15
24 0.15
28 0.45
29 0.45
3 -0.9
4 0.27
6 0.14
7 0.14
8 -0.14
9 -0.14

>  <PUBCHEM_EFFECTIVE_ROTOR_COUNT>  (1) 
1.8

>  <PUBCHEM_PHARMACOPHORE_FEATURES>  (1) 
6
1 1 donor
1 2 donor
1 3 cation
1 3 donor
6 4 5 6 7 8 9 rings
6 8 9 10 11 12 13 rings

>  <PUBCHEM_HEAVY_ATOM_COUNT>  (1) 
14

>  <PUBCHEM_ATOM_DEF_STEREO_COUNT>  (1) 
0

>  <PUBCHEM_ATOM_UDEF_STEREO_COUNT>  (1) 
1

>  <PUBCHEM_BOND_DEF_STEREO_COUNT>  (1) 
0

>  <PUBCHEM_BOND_UDEF_STEREO_COUNT>  (1) 
0

>  <PUBCHEM_ISOTOPIC_ATOM_COUNT>  (1) 
0

>  <PUBCHEM_COMPONENT_COUNT>  (1) 
1

>  <PUBCHEM_CACTVS_TAUTO_COUNT>  (1) 
53

>  <PUBCHEM_CONFORMER_ID>  (1) 
0000947500000001

>  <PUBCHEM_MMFF94_ENERGY>  (1) 
27.0933

>  <PUBCHEM_FEATURE_SELFOVERLAP>  (1) 
30.472

>  <PUBCHEM_SHAPE_FINGERPRINT>  (1) 
10219947 1 18410577249685311747
10608611 8 18338795736008390905
10967382 1 18410292497295119886
10980938 120 18408885131012057179
11132069 177 18339917207877531640
11471102 20 18409725132447647285
12251169 10 18411139147308519985
13140716 1 18265047123278282968
13221675 6 18408886252024979654
13380535 21 18263371428718035183
13380535 76 18411418444499746567
13922767 16 18412543202208935153
14144814 61 18411419509904512329
14251717 144 18410851054003464647
14325111 11 18411138073703891477
14897335 6 18341609352004052823
14993402 34 18413109459038949285
15196674 1 18410575127639132150
15219456 202 18188203192000193893
15442244 35 18340206267639782563
15536298 74 18343865489624034662
15775835 57 18410296925591044381
16945 1 18337383932981595220
17844478 74 17676487233385129253
18186145 218 18341897364021247421
18511873 20 18412545439681018553
20201158 50 18408602578120004482
20588541 1 18408324401862702518
20645477 70 18338229354687330239
20871998 22 18125160433737651694
21267235 1 18339369650870907135
21501502 16 18193554690774528678
2334 1 17833269001397321292
23402539 116 18131061636712453172
23402655 69 18341885269715277389
23463225 33 18409166588803630415
23552423 10 18191302891013655918
23559900 14 18270967964162775692
2748010 2 18120928413260471148
5104073 3 18338233872496683858
528886 8 18411414042142093210
53655031 270 18412263921744176520
53812653 166 18341046397708263072
63268167 104 18410857663567717171
69090 78 18342171189713970871
7364860 26 18343302535723981134
7832392 63 18341891934902906317
8809292 202 18187085113002015450

>  <PUBCHEM_SHAPE_MULTIPOLES>  (1) 
271.39
6.19
1.98
0.64
2.95
0.26
0
-1.25
0.68
-0.41
-0.04
0.12
-0.01
-0.3

>  <PUBCHEM_SHAPE_SELFOVERLAP>  (1) 
574.264

>  <PUBCHEM_SHAPE_VOLUME>  (1) 
152

>  <PUBCHEM_COORDINATE_TYPE>  (1) 
2
5
10

$$$$
