38000
     RDKit          3D

 15 15  0  0  0  0  0  0  0  0999 V2000
    5.4717   -0.4173   -0.7736 Cl  0  0  0  0  0  0  0  0  0  0  0  0
   -0.6664    1.6284    0.8965 O   0  0  0  0  0  0  0  0  0  0  0  0
   -2.9062   -0.8770   -1.2890 O   0  0  0  0  0  0  0  0  0  0  0  0
   -5.3006    0.3563   -1.0925 O   0  0  0  0  0  0  0  0  0  0  0  0
   -1.0658   -0.6512    0.7531 N   0  0  0  0  0  0  0  0  0  0  0  0
   -4.4652    0.2104    0.0232 N   0  0  0  0  0  0  0  0  0  0  0  0
    1.1507    0.2594    0.3288 C   0  0  0  0  0  0  0  0  0  0  0  0
   -2.4746   -0.5949    1.0709 C   0  0  0  0  0  0  0  0  0  0  0  0
   -0.2420    0.4783    0.6854 C   0  0  0  0  0  0  0  0  0  0  0  0
    1.8783    1.2730   -0.2947 C   0  0  0  0  0  0  0  0  0  0  0  0
    1.7595   -0.9634    0.6118 C   0  0  0  0  0  0  0  0  0  0  0  0
    3.2146    1.0638   -0.6355 C   0  0  0  0  0  0  0  0  0  0  0  0
    3.0959   -1.1726    0.2711 C   0  0  0  0  0  0  0  0  0  0  0  0
    3.8235   -0.1589   -0.3524 C   0  0  0  0  0  0  0  0  0  0  0  0
   -3.2735   -0.4343   -0.2032 C   0  0  0  0  0  0  0  0  0  0  0  0
  1 14  1  0
  2  9  2  0
  3 15  2  0
  4  6  1  0
  5  8  1  0
  5  9  1  0
  6 15  1  0
  7  9  1  0
  7 10  2  0
  7 11  1  0
  8 15  1  0
 10 12  1  0
 11 13  2  0
 12 14  2  0
 13 14  1  0
M  END
>  <PUBCHEM_COMPOUND_CID>  (1) 
38000

>  <PUBCHEM_CONFORMER_RMSD>  (1) 
0.6

>  <PUBCHEM_CONFORMER_DIVERSEORDER>  (1) 
1
5
7
3
6
2
4
8

>  <PUBCHEM_MMFF94_PARTIAL_CHARGES>  (1) 
22
1 -0.18
10 -0.15
11 -0.15
12 -0.15
13 -0.15
14 0.18
15 0.57
18 0.37
19 0.15
2 -0.57
20 0.15
21 0.15
22 0.15
23 0.37
24 0.4
3 -0.57
4 -0.44
5 -0.73
6 -0.39
7 0.09
8 0.36
9 0.54

>  <PUBCHEM_EFFECTIVE_ROTOR_COUNT>  (1) 
5

>  <PUBCHEM_PHARMACOPHORE_FEATURES>  (1) 
5
1 2 acceptor
1 3 acceptor
1 5 donor
1 6 donor
6 7 10 11 12 13 14 rings

>  <PUBCHEM_HEAVY_ATOM_COUNT>  (1) 
15

>  <PUBCHEM_ATOM_DEF_STEREO_COUNT>  (1) 
0

>  <PUBCHEM_ATOM_UDEF_STEREO_COUNT>  (1) 
0

>  <PUBCHEM_BOND_DEF_STEREO_COUNT>  (1) 
0

>  <PUBCHEM_BOND_UDEF_STEREO_COUNT>  (1) 
0

>  <PUBCHEM_ISOTOPIC_ATOM_COUNT>  (1) 
0

>  <PUBCHEM_COMPONENT_COUNT>  (1) 
1

>  <PUBCHEM_CACTVS_TAUTO_COUNT>  (1) 
6

>  <PUBCHEM_CONFORMER_ID>  (1) 
0000947000000001

>  <PUBCHEM_MMFF94_ENERGY>  (1) 
35.3501

>  <PUBCHEM_FEATURE_SELFOVERLAP>  (1) 
25.372

>  <PUBCHEM_SHAPE_FINGERPRINT>  (1) 
100836 57 15647057057658072862
10354089 29 8646770002050621446
11046707 91 17275108331505563722
11401426 45 18412261757381079896
11471102 20 18333453153416714352
12251169 10 10159694694302461385
12500047 106 17023189365663833042
12670543 26 18114749239791100718
12815109 37 17988923366374744186
12916748 109 13045943482281558342
13760787 5 18271820041600626264
14252887 29 10951781767831544348
14576447 43 18412824694544941022
14911166 2 18333455348118778298
14943859 89 14779266418787962011
14993402 34 18131634499492532974
17834072 8 18409165494067076589
1798214 20 18272929427395190831
18186145 218 17676482882261342521
19862831 5 18335141998596960704
200 152 18342178860351416704
20432913 95 12535634881301606247
20645477 56 16298106497189150203
20645477 70 18114464470379750114
21119208 17 18410576192764654294
21637258 2 16988287461395895878
22485316 2 17632577166871885210
22854114 59 10303815375704720747
23402539 116 18060424581928252680
23402655 69 18260547805390187652
23557571 272 16988570056958170080
23559900 14 18339361972081240440
25 1 17531242859383288242
2871803 45 18334862680326984606
29717793 49 17918280831022578308
4072396 5 17967801753117799578
42 15 12895074019945935915
449060 50 9007056842790339376
9882013 296 9943807798455458189

>  <PUBCHEM_SHAPE_MULTIPOLES>  (1) 
282.99
10.27
1.25
1.05
3.68
0.16
0.1
-0.33
4.33
-0.55
-0.14
0.64
0
0.01

>  <PUBCHEM_SHAPE_SELFOVERLAP>  (1) 
575.229

>  <PUBCHEM_SHAPE_VOLUME>  (1) 
165.1

>  <PUBCHEM_COORDINATE_TYPE>  (1) 
2
5
10

$$$$
