38008
     RDKit          3D

 16 18  0  0  0  0  0  0  0  0999 V2000
    4.1253   -0.3461    0.0093 O   0  0  0  0  0  0  0  0  0  0  0  0
   -1.3621   -0.5804   -0.0017 N   0  0  0  0  0  0  0  0  0  0  0  0
   -3.6437   -1.1697   -0.3798 N   0  0  0  0  0  0  0  0  0  0  0  0
   -1.6857    0.7548   -0.0039 C   0  0  0  0  0  0  0  0  0  0  0  0
   -3.1081    1.1944   -0.0225 C   0  0  0  0  0  0  0  0  0  0  0  0
   -0.5103    1.4719   -0.0189 C   0  0  0  0  0  0  0  0  0  0  0  0
    0.0078   -0.7413    0.0067 C   0  0  0  0  0  0  0  0  0  0  0  0
   -2.3408   -1.6587    0.0745 C   0  0  0  0  0  0  0  0  0  0  0  0
    0.5661    0.5417   -0.0105 C   0  0  0  0  0  0  0  0  0  0  0  0
   -4.0442    0.0415    0.3399 C   0  0  0  0  0  0  0  0  0  0  0  0
    0.8031   -1.8973    0.0327 C   0  0  0  0  0  0  0  0  0  0  0  0
   -0.3901    2.9449   -0.0402 C   0  0  0  0  0  0  0  0  0  0  0  0
    1.9693    0.6759   -0.0120 C   0  0  0  0  0  0  0  0  0  0  0  0
    2.7684   -0.4717    0.0091 C   0  0  0  0  0  0  0  0  0  0  0  0
    2.1918   -1.7384    0.0325 C   0  0  0  0  0  0  0  0  0  0  0  0
    4.6532    0.9785   -0.0152 C   0  0  0  0  0  0  0  0  0  0  0  0
  1 14  1  0
  1 16  1  0
  2  4  1  0
  2  7  1  0
  2  8  1  0
  3  8  1  0
  3 10  1  0
  4  5  1  0
  4  6  2  0
  5 10  1  0
  6  9  1  0
  6 12  1  0
  7  9  2  0
  7 11  1  0
  9 13  1  0
 11 15  2  0
 13 14  2  0
 14 15  1  0
M  END
>  <PUBCHEM_COMPOUND_CID>  (1) 
38008

>  <PUBCHEM_CONFORMER_RMSD>  (1) 
0.6

>  <PUBCHEM_CONFORMER_DIVERSEORDER>  (1) 
1
2

>  <PUBCHEM_MMFF94_PARTIAL_CHARGES>  (1) 
19
1 -0.36
10 0.27
11 -0.15
12 0.18
13 -0.15
14 0.08
15 -0.15
16 0.28
2 0.05
23 0.36
24 0.15
28 0.15
29 0.15
3 -0.9
4 -0.33
5 0.18
6 -0.18
7 -0.15
8 0.53

>  <PUBCHEM_EFFECTIVE_ROTOR_COUNT>  (1) 
1.8

>  <PUBCHEM_PHARMACOPHORE_FEATURES>  (1) 
7
1 1 acceptor
1 2 cation
1 3 cation
1 3 donor
5 2 4 6 7 9 rings
6 2 3 4 5 8 10 rings
6 7 9 11 13 14 15 rings

>  <PUBCHEM_HEAVY_ATOM_COUNT>  (1) 
16

>  <PUBCHEM_ATOM_DEF_STEREO_COUNT>  (1) 
0

>  <PUBCHEM_ATOM_UDEF_STEREO_COUNT>  (1) 
0

>  <PUBCHEM_BOND_DEF_STEREO_COUNT>  (1) 
0

>  <PUBCHEM_BOND_UDEF_STEREO_COUNT>  (1) 
0

>  <PUBCHEM_ISOTOPIC_ATOM_COUNT>  (1) 
0

>  <PUBCHEM_COMPONENT_COUNT>  (1) 
1

>  <PUBCHEM_CACTVS_TAUTO_COUNT>  (1) 
1

>  <PUBCHEM_CONFORMER_ID>  (1) 
0000947800000001

>  <PUBCHEM_MMFF94_ENERGY>  (1) 
38.4452

>  <PUBCHEM_FEATURE_SELFOVERLAP>  (1) 
35.737

>  <PUBCHEM_SHAPE_FINGERPRINT>  (1) 
10608611 8 18266737991709781220
10967382 1 18410575088958065706
11132069 177 18411978057342336504
11806522 49 18339076111578897503
12032990 46 18410860962139718411
12382932 28 18411983524914923059
12403814 3 17603865594145490661
13132413 78 18412546522197653525
13140716 1 18338523065582755633
13214271 11 18413385453584746743
13380535 76 18408605850895990858
14576447 43 18199453523867165863
15196674 1 18410575058914562538
15442244 35 18049158861257243706
15536298 74 18342459201625819598
16945 1 18194681466844163023
193761 8 17834113048243711115
200 152 18130498708924750439
20510252 161 18270681948239685737
21029758 11 18341044198901486505
21029758 27 18261401095486402301
21267235 1 18410583889599633071
21501502 16 18194964045812176178
221490 88 17975696413687559811
22213442 358 18411417353851937711
2334 1 18266459999682496269
23388829 49 18408609153583254365
23402539 116 18341606044942649118
23402655 69 18341322298239403885
23463225 33 18408886226212906438
23557571 272 18271536316425042980
23559900 14 18196928869250101842
25610 137 18410294679223103636
2748010 2 18339354292004384181
3312278 4 18410576167153093177
335352 9 17978228262020695471
34934 24 18410286987253077175
43471831 8 18334572400414558090
4990 188 17988935444387263918
5104073 3 18337673014197675426
528886 8 18411414007777216554
537710 114 18335990847575879972
53812653 166 18342735230383259728
7364860 26 18196934602646385193
81228 2 18191320285668426817
8809292 202 18187650270795616691
9709674 26 18411143493768444534

>  <PUBCHEM_SHAPE_MULTIPOLES>  (1) 
313.44
6.99
2.31
0.62
2.49
0.75
0.01
-0.17
0.1
-0.3
-0.03
-0.06
0
-0.07

>  <PUBCHEM_SHAPE_SELFOVERLAP>  (1) 
684.224

>  <PUBCHEM_SHAPE_VOLUME>  (1) 
171.4

>  <PUBCHEM_COORDINATE_TYPE>  (1) 
2
5
10

$$$$
