38011
     RDKit          3D

 14 14  0  0  0  0  0  0  0  0999 V2000
    2.3940   -0.4398   -0.4951 O   0  0  0  0  0  0  0  0  0  0  0  0
    1.2913    1.5633   -0.4563 O   0  0  0  0  0  0  0  0  0  0  0  0
    0.1586   -0.4776   -0.2326 N   0  0  0  0  0  0  0  0  0  0  0  0
    3.6099    0.1458   -0.0153 C   0  0  0  0  0  0  0  0  0  0  0  0
   -1.1810   -0.1059   -0.0928 C   0  0  0  0  0  0  0  0  0  0  0  0
   -2.1775   -1.0686    0.0677 C   0  0  0  0  0  0  0  0  0  0  0  0
    3.4426    0.5168    1.4504 C   0  0  0  0  0  0  0  0  0  0  0  0
    4.7545   -0.8339   -0.2248 C   0  0  0  0  0  0  0  0  0  0  0  0
   -1.5161    1.2479   -0.1141 C   0  0  0  0  0  0  0  0  0  0  0  0
   -3.5091   -0.6775    0.2069 C   0  0  0  0  0  0  0  0  0  0  0  0
    1.2723    0.3398   -0.3989 C   0  0  0  0  0  0  0  0  0  0  0  0
   -1.8478   -2.5259    0.0938 C   0  0  0  0  0  0  0  0  0  0  0  0
   -2.8477    1.6391    0.0253 C   0  0  0  0  0  0  0  0  0  0  0  0
   -3.8442    0.6764    0.1858 C   0  0  0  0  0  0  0  0  0  0  0  0
  1  4  1  0
  1 11  1  0
  2 11  2  0
  3  5  1  0
  3 11  1  0
  4  7  1  0
  4  8  1  0
  5  6  2  0
  5  9  1  0
  6 10  1  0
  6 12  1  0
  9 13  2  0
 10 14  2  0
 13 14  1  0
M  END
>  <PUBCHEM_COMPOUND_CID>  (1) 
38011

>  <PUBCHEM_CONFORMER_RMSD>  (1) 
0.6

>  <PUBCHEM_CONFORMER_DIVERSEORDER>  (1) 
2
18
11
13
6
5
12
22
23
9
15
4
1
25
8
14
16
3
24
21
7
10
19
20
17

>  <PUBCHEM_MMFF94_PARTIAL_CHARGES>  (1) 
17
1 -0.43
10 -0.15
11 0.78
12 0.14
13 -0.15
14 -0.15
2 -0.57
22 0.37
23 0.15
24 0.15
28 0.15
29 0.15
3 -0.55
4 0.28
5 0.12
6 -0.14
9 -0.15

>  <PUBCHEM_EFFECTIVE_ROTOR_COUNT>  (1) 
4

>  <PUBCHEM_PHARMACOPHORE_FEATURES>  (1) 
4
1 2 acceptor
1 3 donor
3 4 7 8 hydrophobe
6 5 6 9 10 13 14 rings

>  <PUBCHEM_HEAVY_ATOM_COUNT>  (1) 
14

>  <PUBCHEM_ATOM_DEF_STEREO_COUNT>  (1) 
0

>  <PUBCHEM_ATOM_UDEF_STEREO_COUNT>  (1) 
0

>  <PUBCHEM_BOND_DEF_STEREO_COUNT>  (1) 
0

>  <PUBCHEM_BOND_UDEF_STEREO_COUNT>  (1) 
0

>  <PUBCHEM_ISOTOPIC_ATOM_COUNT>  (1) 
0

>  <PUBCHEM_COMPONENT_COUNT>  (1) 
1

>  <PUBCHEM_CACTVS_TAUTO_COUNT>  (1) 
2

>  <PUBCHEM_CONFORMER_ID>  (1) 
0000947B00000002

>  <PUBCHEM_MMFF94_ENERGY>  (1) 
37.9423

>  <PUBCHEM_FEATURE_SELFOVERLAP>  (1) 
20.297

>  <PUBCHEM_SHAPE_FINGERPRINT>  (1) 
10608611 8 18272085011113178176
11132069 177 18410007745290153801
12119455 92 17203605960785382973
12251169 10 18408041822831541957
12346177 29 18340475746762604527
124424 183 17775565321354168256
12500047 106 18340764862533431778
12932764 1 17240472628862363364
13024252 1 14273454782539173693
13380535 76 18413110533102942527
13862211 1 18338238288710221395
14144814 61 18333448729146751352
14965852 173 18337111266829860342
15042514 8 18336553832416820155
15375462 189 17531239539837642704
15653759 3 18343862234165321144
15669948 3 18336833111942107871
17804303 29 18411705391343705764
17834072 33 18260837037895558108
19107657 47 16486972886663030986
200 152 16988837272453319749
20279233 1 17988931058645509814
20281475 54 18113896083166133982
20361792 2 16660636388614655364
20510252 161 18272373023309746937
20528008 55 18273492377332592929
20645464 45 18131075922195451839
20645477 56 18412548678360757257
21501502 16 18265057022966851541
22169311 14 18202561783087642962
2255824 54 17241051015260685860
232386 152 18335989756442833092
23402539 116 18342733027581943263
23559900 14 18343301457882056740
23598291 2 17822580511408829694
2748010 2 18048042874303309759
42 15 18409450263199293946
474 4 16662347327956420996
5104073 3 18410858788828134840
5706482 22 18410011014388111083
573450 72 18260257534447036082
69090 78 18344142596840603527
8809292 202 18409735087934153370
9709674 26 18343308067225419638

>  <PUBCHEM_SHAPE_MULTIPOLES>  (1) 
271.39
8.28
1.8
0.81
6.68
0.64
-0.21
0.32
-0.89
-1.49
0
0.58
-0.09
0.31

>  <PUBCHEM_SHAPE_SELFOVERLAP>  (1) 
552.284

>  <PUBCHEM_SHAPE_VOLUME>  (1) 
158

>  <PUBCHEM_COORDINATE_TYPE>  (1) 
2
5
10

$$$$
