38017
     RDKit          3D

 18 19  0  0  0  0  0  0  0  0999 V2000
   -0.5877   -0.0337   -2.4131 Cl  0  0  0  0  0  0  0  0  0  0  0  0
    1.1305    2.4636    0.2415 Cl  0  0  0  0  0  0  0  0  0  0  0  0
    0.5682   -2.9653    0.1336 Cl  0  0  0  0  0  0  0  0  0  0  0  0
   -3.7114    0.3003   -2.0321 Cl  0  0  0  0  0  0  0  0  0  0  0  0
    4.2902    2.0506   -0.0197 Cl  0  0  0  0  0  0  0  0  0  0  0  0
   -4.9054    0.3707    0.9256 Cl  0  0  0  0  0  0  0  0  0  0  0  0
   -0.4555   -0.0992    0.2948 C   0  0  0  0  0  0  0  0  0  0  0  0
    0.9831   -0.2536    0.1768 C   0  0  0  0  0  0  0  0  0  0  0  0
   -1.2875    0.0129   -0.8191 C   0  0  0  0  0  0  0  0  0  0  0  0
   -1.0003   -0.0648    1.5785 C   0  0  0  0  0  0  0  0  0  0  0  0
    1.8169    0.8668    0.1424 C   0  0  0  0  0  0  0  0  0  0  0  0
    1.5395   -1.5327    0.0970 C   0  0  0  0  0  0  0  0  0  0  0  0
   -2.6641    0.1593   -0.6495 C   0  0  0  0  0  0  0  0  0  0  0  0
   -2.3770    0.0817    1.7481 C   0  0  0  0  0  0  0  0  0  0  0  0
    3.1982    0.7092    0.0287 C   0  0  0  0  0  0  0  0  0  0  0  0
    2.9208   -1.6903   -0.0167 C   0  0  0  0  0  0  0  0  0  0  0  0
   -3.2089    0.1936    0.6341 C   0  0  0  0  0  0  0  0  0  0  0  0
    3.7502   -0.5693   -0.0509 C   0  0  0  0  0  0  0  0  0  0  0  0
  1  9  1  0
  2 11  1  0
  3 12  1  0
  4 13  1  0
  5 15  1  0
  6 17  1  0
  7  8  1  0
  7  9  2  0
  7 10  1  0
  8 11  2  0
  8 12  1  0
  9 13  1  0
 10 14  2  0
 11 15  1  0
 12 16  2  0
 13 17  2  0
 14 17  1  0
 15 18  2  0
 16 18  1  0
M  END
>  <PUBCHEM_COMPOUND_CID>  (1) 
38017

>  <PUBCHEM_CONFORMER_RMSD>  (1) 
0.6

>  <PUBCHEM_CONFORMER_DIVERSEORDER>  (1) 
1
2

>  <PUBCHEM_MMFF94_PARTIAL_CHARGES>  (1) 
20
1 -0.18
10 -0.15
11 0.18
12 0.18
13 0.18
14 -0.15
15 0.18
16 -0.15
17 0.18
18 -0.15
19 0.15
2 -0.18
20 0.15
21 0.15
22 0.15
3 -0.18
4 -0.18
5 -0.18
6 -0.18
9 0.18

>  <PUBCHEM_EFFECTIVE_ROTOR_COUNT>  (1) 
1

>  <PUBCHEM_PHARMACOPHORE_FEATURES>  (1) 
2
6 7 9 10 13 14 17 rings
6 8 11 12 15 16 18 rings

>  <PUBCHEM_HEAVY_ATOM_COUNT>  (1) 
18

>  <PUBCHEM_ATOM_DEF_STEREO_COUNT>  (1) 
0

>  <PUBCHEM_ATOM_UDEF_STEREO_COUNT>  (1) 
0

>  <PUBCHEM_BOND_DEF_STEREO_COUNT>  (1) 
0

>  <PUBCHEM_BOND_UDEF_STEREO_COUNT>  (1) 
0

>  <PUBCHEM_ISOTOPIC_ATOM_COUNT>  (1) 
0

>  <PUBCHEM_COMPONENT_COUNT>  (1) 
1

>  <PUBCHEM_CACTVS_TAUTO_COUNT>  (1) 
1

>  <PUBCHEM_CONFORMER_ID>  (1) 
0000948100000001

>  <PUBCHEM_MMFF94_ENERGY>  (1) 
53.1613

>  <PUBCHEM_FEATURE_SELFOVERLAP>  (1) 
10.149

>  <PUBCHEM_SHAPE_FINGERPRINT>  (1) 
11132069 177 16587738724848948085
11471102 20 18410013230190224736
11725454 13 17098299186657783391
12119455 92 18114451340584974434
12236239 1 17632297856505970330
12403259 415 17821730515747845772
13140716 1 18338514253201349426
13538477 17 17275097332331708459
13581323 91 15068621590987212688
13583140 156 18341899580767730209
13760787 19 18060700598349605287
15219456 202 17967249784446200782
15309172 13 18335702766912827826
15342168 16 18264215879597669908
15375358 24 17676479553614371253
15775835 57 17917716815753808592
16752209 62 16343122693937830351
16945 1 18411412891064458027
1813 80 17699304170200189366
18175812 5 17821736039123481962
18186145 218 18413108364070312574
18219364 16 18261953054518214856
19049666 15 17677607545164869248
19422 9 17704068477956561230
200 152 18272083855729747035
20233049 118 14417855847611705679
20344682 1 17676494929634435078
204376 136 18337113470517348354
20600515 1 16081374085168679485
20645476 183 17775002440199332237
20645477 70 18336266747574316026
20871999 31 15769489940874785997
21639500 275 18411976996511963496
22079108 93 18199472232390753107
22112679 90 17275095111569827017
23175994 123 18188218602258364684
23402539 116 15410887448916941929
23493267 7 17203332230078045959
23526113 38 17680692731932698815
23532345 42 16515688857467683005
23557571 272 16733272256938657223
23559900 14 16443622377475177274
23598291 2 17917426493144253845
25 1 18411699928435416600
2748010 2 18266192784698997338
3286 77 18187931620796093986
350125 39 17689444106193303432
4340502 62 18341347643052752043
474 4 17915163840434034904
495365 180 18189873384147892917
633830 44 18201452358353581428
77492 1 17704070672700459154
81228 2 16390680643257609722
8272917 22 18270411485880634835

>  <PUBCHEM_SHAPE_MULTIPOLES>  (1) 
381.65
7.58
2.14
1.66
2.04
0.64
-0.75
-2.41
0.38
-2.54
0.17
2.04
-0.1
0.03

>  <PUBCHEM_SHAPE_SELFOVERLAP>  (1) 
775.362

>  <PUBCHEM_SHAPE_VOLUME>  (1) 
215.2

>  <PUBCHEM_COORDINATE_TYPE>  (1) 
2
5
10

$$$$
