38022
     RDKit          3D

 24 27  0  0  1  0  0  0  0  0999 V2000
    4.5553    0.3793    1.9272 O   0  0  0  0  0  0  0  0  0  0  0  0
   -5.7510    0.2034    0.4943 O   0  0  0  0  0  0  0  0  0  0  0  0
    0.2911    0.1818   -0.0808 C   0  0  0  0  0  0  0  0  0  0  0  0
   -0.2954   -1.1695   -0.5711 C   0  0  0  0  0  0  0  0  0  0  0  0
   -1.7819   -1.3421   -0.1859 C   0  0  0  0  0  0  0  0  0  0  0  0
    1.8096    0.3494   -0.4702 C   0  0  0  0  0  0  0  0  0  0  0  0
   -2.6819   -0.1366   -0.6099 C   0  0  0  0  0  0  0  0  0  0  0  0
    2.5810   -0.8883    0.0889 C   0  0  0  0  0  0  0  0  0  0  0  0
   -0.6017    1.3829   -0.4689 C   0  0  0  0  0  0  0  0  0  0  0  0
   -1.8685    1.0116   -1.2382 C   0  0  0  0  0  0  0  0  0  0  0  0
    0.5505   -2.3644   -0.1006 C   0  0  0  0  0  0  0  0  0  0  0  0
   -3.3776    0.3031    0.7085 C   0  0  0  0  0  0  0  0  0  0  0  0
   -2.0488   -1.5594    1.3146 C   0  0  0  0  0  0  0  0  0  0  0  0
    2.0282   -2.2117   -0.4527 C   0  0  0  0  0  0  0  0  0  0  0  0
    2.4063    1.6151    0.2086 C   0  0  0  0  0  0  0  0  0  0  0  0
   -3.4249   -0.9637    1.5500 C   0  0  0  0  0  0  0  0  0  0  0  0
    4.1032   -0.7900   -0.1184 C   0  0  0  0  0  0  0  0  0  0  0  0
    1.9692    0.4812   -2.0080 C   0  0  0  0  0  0  0  0  0  0  0  0
    4.6839    0.4898    0.5050 C   0  0  0  0  0  0  0  0  0  0  0  0
   -3.6992   -0.6254   -1.6670 C   0  0  0  0  0  0  0  0  0  0  0  0
    3.9263    1.7414    0.0392 C   0  0  0  0  0  0  0  0  0  0  0  0
   -4.7393    0.9019    0.5352 C   0  0  0  0  0  0  0  0  0  0  0  0
    6.1751    0.6098    0.1840 C   0  0  0  0  0  0  0  0  0  0  0  0
   -4.8095    2.4003    0.4162 C   0  0  0  0  0  0  0  0  0  0  0  0
  1 19  1  0
  2 22  2  0
  3  4  1  0
  3  6  1  0
  3  9  1  0
  4  5  1  0
  4 11  1  0
  5  7  1  0
  5 13  1  0
  6  8  1  0
  6 15  1  0
  6 18  1  0
  7 10  1  0
  7 12  1  0
  7 20  1  0
  8 14  1  0
  8 17  1  0
  9 10  1  0
 11 14  1  0
 12 16  1  0
 12 22  1  0
 13 16  1  0
 15 21  1  0
 17 19  1  0
 19 21  1  0
 19 23  1  0
 22 24  1  0
M  END
>  <PUBCHEM_COMPOUND_CID>  (1) 
38022

>  <PUBCHEM_CONFORMER_RMSD>  (1) 
0.6

>  <PUBCHEM_CONFORMER_DIVERSEORDER>  (1) 
1
9
16
7
18
10
5
6
20
21
13
2
14
11
8
19
4
12
3
15
17

>  <PUBCHEM_MMFF94_PARTIAL_CHARGES>  (1) 
7
1 -0.68
12 0.06
19 0.28
2 -0.57
22 0.45
24 0.06
57 0.4

>  <PUBCHEM_EFFECTIVE_ROTOR_COUNT>  (1) 
3.2

>  <PUBCHEM_PHARMACOPHORE_FEATURES>  (1) 
7
1 1 acceptor
1 1 donor
1 2 acceptor
5 5 7 12 13 16 rings
6 3 4 5 7 9 10 rings
6 3 4 6 8 11 14 rings
6 6 8 15 17 19 21 rings

>  <PUBCHEM_HEAVY_ATOM_COUNT>  (1) 
24

>  <PUBCHEM_ATOM_DEF_STEREO_COUNT>  (1) 
5

>  <PUBCHEM_ATOM_UDEF_STEREO_COUNT>  (1) 
3

>  <PUBCHEM_BOND_DEF_STEREO_COUNT>  (1) 
0

>  <PUBCHEM_BOND_UDEF_STEREO_COUNT>  (1) 
0

>  <PUBCHEM_ISOTOPIC_ATOM_COUNT>  (1) 
0

>  <PUBCHEM_COMPONENT_COUNT>  (1) 
1

>  <PUBCHEM_CACTVS_TAUTO_COUNT>  (1) 
3

>  <PUBCHEM_CONFORMER_ID>  (1) 
0000948600000001

>  <PUBCHEM_MMFF94_ENERGY>  (1) 
87.0791

>  <PUBCHEM_FEATURE_SELFOVERLAP>  (1) 
35.744

>  <PUBCHEM_SHAPE_FINGERPRINT>  (1) 
10366900 7 18336536201048036032
10498660 4 14836121069796216610
11089746 13 17203322304224028088
11370993 144 18335422339797276634
12166972 35 11887958757326538202
12236239 1 17489587844607098687
12403260 363 18196080260451767374
12422481 6 18115024087095339664
12633257 1 17240489129963177683
12670546 177 10592042453395675313
12788726 201 17489031439772627577
128620 24 12679467520880427742
13140716 1 18188776191770704284
13224815 77 18187929520583349662
13288520 33 10737284645406248403
13583140 156 18060423547136579243
13631057 29 17488448858209608751
13675066 3 18336273374729634327
14178342 30 18261121819649180131
14341114 176 17385722491695336520
14350574 20 9223226347532917865
14466204 15 18413107234220237600
14790565 3 18265341788421741644
15142383 8 15068613868741470863
15163728 17 16054931780162262889
15196674 1 18411983546215835502
15209294 21 18272370854203393617
15238133 3 18262532406857210029
15375358 24 18408044000532980787
15788980 27 18272371988032386356
1601671 61 18335140904129412508
16945 1 18335425672560237751
17349148 13 18114454643277694807
1813 80 16008755692655323718
193927 3 12396302530151915769
19784866 170 18407763624993908394
19784866 240 11458427925316909955
19784866 9 18412262818048111064
200 152 18060412542886839919
20871999 31 10735887161616210355
21033648 29 18271798051932547544
21421861 104 17895748479479543450
21452121 103 18340207388510410082
21637258 2 13623822673884597241
22182313 1 18042964272553896255
22646028 28 11746937598659458395
23402539 116 17988920093831490228
23559900 14 17896336730679720638
2838139 119 16558753382174916081
296302 2 18201719548169040054
335352 9 18412546505523972406
34797466 226 15410613743583503593
34934 24 18059855030652204533
350125 39 18266464209335736158
4340502 62 18271815626859659419
46194498 28 11383820567629381770
474 4 18342740727719897826
5104073 3 18263374594720629011
58807428 26 18113615677151321602
59755656 215 18341339894725748790
633830 44 18201716306096550924
7495541 125 10881406439284334340

>  <PUBCHEM_SHAPE_MULTIPOLES>  (1) 
482.17
11.53
2.11
1.38
2.25
0.23
0.12
-4.56
-3.33
-0.36
-0.09
-0.33
0.07
0.23

>  <PUBCHEM_SHAPE_SELFOVERLAP>  (1) 
1019.002

>  <PUBCHEM_SHAPE_VOLUME>  (1) 
269

>  <PUBCHEM_COORDINATE_TYPE>  (1) 
2
5
10

$$$$
