38023
     RDKit          3D

 15 15  0  0  0  0  0  0  0  0999 V2000
   -0.8860    3.1027    0.0006 Cl  0  0  0  0  0  0  0  0  0  0  0  0
    1.6146   -2.6206    0.0000 Cl  0  0  0  0  0  0  0  0  0  0  0  0
   -3.1330   -1.7696    0.0026 O   0  0  0  0  0  0  0  0  0  0  0  0
    3.8537    1.0666    0.0009 O   0  0  0  0  0  0  0  0  0  0  0  0
    3.7050   -1.1236    0.0003 O   0  0  0  0  0  0  0  0  0  0  0  0
   -2.4154    0.4754   -0.0006 N   0  0  0  0  0  0  0  0  0  0  0  0
    3.1764    0.0125    0.0003 N   0  0  0  0  0  0  0  0  0  0  0  0
   -1.0208    0.3763   -0.0011 C   0  0  0  0  0  0  0  0  0  0  0  0
   -0.2109    1.5120   -0.0002 C   0  0  0  0  0  0  0  0  0  0  0  0
   -0.4425   -0.8930   -0.0015 C   0  0  0  0  0  0  0  0  0  0  0  0
    1.7560    0.1089   -0.0001 C   0  0  0  0  0  0  0  0  0  0  0  0
    0.9459   -1.0266   -0.0010 C   0  0  0  0  0  0  0  0  0  0  0  0
    1.1777    1.3783    0.0003 C   0  0  0  0  0  0  0  0  0  0  0  0
   -3.3537   -0.5629   -0.0005 C   0  0  0  0  0  0  0  0  0  0  0  0
   -4.7670   -0.0365    0.0001 C   0  0  0  0  0  0  0  0  0  0  0  0
  1  9  1  0
  2 12  1  0
  3 14  2  0
  4  7  1  0
  5  7  2  0
  6  8  1  0
  6 14  1  0
  7 11  1  0
  8  9  2  0
  8 10  1  0
  9 13  1  0
 10 12  2  0
 11 12  1  0
 11 13  2  0
 14 15  1  0
M  CHG  2   4  -1   7   1
M  END
>  <PUBCHEM_COMPOUND_CID>  (1) 
38023

>  <PUBCHEM_CONFORMER_RMSD>  (1) 
0.6

>  <PUBCHEM_CONFORMER_DIVERSEORDER>  (1) 
1
2
3

>  <PUBCHEM_MMFF94_PARTIAL_CHARGES>  (1) 
18
1 -0.18
10 -0.15
11 0.13
12 0.18
13 -0.15
14 0.57
15 0.06
16 0.15
17 0.15
18 0.37
2 -0.18
3 -0.57
4 -0.52
5 -0.52
6 -0.55
7 0.91
8 0.12
9 0.18

>  <PUBCHEM_EFFECTIVE_ROTOR_COUNT>  (1) 
3

>  <PUBCHEM_PHARMACOPHORE_FEATURES>  (1) 
6
1 3 acceptor
1 4 acceptor
1 4 anion
1 5 acceptor
1 6 donor
6 8 9 10 11 12 13 rings

>  <PUBCHEM_HEAVY_ATOM_COUNT>  (1) 
15

>  <PUBCHEM_ATOM_DEF_STEREO_COUNT>  (1) 
0

>  <PUBCHEM_ATOM_UDEF_STEREO_COUNT>  (1) 
0

>  <PUBCHEM_BOND_DEF_STEREO_COUNT>  (1) 
0

>  <PUBCHEM_BOND_UDEF_STEREO_COUNT>  (1) 
0

>  <PUBCHEM_ISOTOPIC_ATOM_COUNT>  (1) 
0

>  <PUBCHEM_COMPONENT_COUNT>  (1) 
1

>  <PUBCHEM_CACTVS_TAUTO_COUNT>  (1) 
2

>  <PUBCHEM_CONFORMER_ID>  (1) 
0000948700000001

>  <PUBCHEM_MMFF94_ENERGY>  (1) 
52.1281

>  <PUBCHEM_FEATURE_SELFOVERLAP>  (1) 
30.527

>  <PUBCHEM_SHAPE_FINGERPRINT>  (1) 
10219947 1 18411984688645240835
10967382 1 18410855494503769894
11132069 177 18410568517684561227
11471102 20 18410570699744134431
11806522 49 18340484590337533151
12032990 46 18410578404694047151
13140716 1 18267014149495633946
13380535 21 17980488866776085780
14178342 30 17977089181465837530
14251717 144 18411135865779594983
14252887 29 18059307512432024655
14576447 43 18200297948992372735
15196674 1 18410574023985862151
15442244 35 18050286959875949611
16945 1 18410856516917080356
193761 8 17978229361542852836
200 152 18131063875176293895
20201158 50 18335139799874664779
20510252 161 18343300340906145864
20588541 1 18335142015856106939
20645477 70 18341610382891623975
20711985 365 18049720724636335691
20871998 22 18270689653584880071
21267235 1 18411146805024614887
21421861 104 17970908852022718659
21501502 16 18121783824664081664
21634736 98 17624402478350741479
221490 88 17975417129228358339
2334 1 17978508959724382660
23402539 116 18343013436937447838
23402655 69 18340758270470730909
23463225 33 18409449206315468868
23557571 272 18270970033308052636
23559900 14 18123180217543430602
25610 137 18410012121856605676
2748010 2 18122065570155205576
2871803 45 18409446942820419598
3312278 4 18410012122183594817
34934 24 18411693288468763479
537710 114 18335989765223080844
7364860 26 18052537965453338689
81228 2 18117291267445582737
8809292 202 18187650249352396219

>  <PUBCHEM_SHAPE_MULTIPOLES>  (1) 
284.86
6.64
2.65
0.59
2.92
0.81
0
-1.8
0
-0.26
0
0.03
0.01
0

>  <PUBCHEM_SHAPE_SELFOVERLAP>  (1) 
579.46

>  <PUBCHEM_SHAPE_VOLUME>  (1) 
167.4

>  <PUBCHEM_COORDINATE_TYPE>  (1) 
2
5
10

$$$$
