38027
     RDKit          3D

 14 13  0  0  0  0  0  0  0  0999 V2000
   -2.5964   -0.3127    0.2608 O   0  0  0  0  0  0  0  0  0  0  0  0
   -4.6980    0.1657   -0.5705 O   0  0  0  0  0  0  0  0  0  0  0  0
   -0.1293    2.5262   -0.1181 C   0  0  0  0  0  0  0  0  0  0  0  0
    1.3372    2.7252    0.2795 C   0  0  0  0  0  0  0  0  0  0  0  0
   -0.6758    1.1477    0.2725 C   0  0  0  0  0  0  0  0  0  0  0  0
    3.6134   -1.5821    0.1485 C   0  0  0  0  0  0  0  0  0  0  0  0
    3.9518   -0.1374   -0.2323 C   0  0  0  0  0  0  0  0  0  0  0  0
    2.2365   -2.0278   -0.3492 C   0  0  0  0  0  0  0  0  0  0  0  0
    2.2576    1.7096   -0.3335 C   0  0  0  0  0  0  0  0  0  0  0  0
    3.0189    0.8668    0.3803 C   0  0  0  0  0  0  0  0  0  0  0  0
   -2.1420    0.9806   -0.1100 C   0  0  0  0  0  0  0  0  0  0  0  0
    1.9713   -3.4873   -0.0143 C   0  0  0  0  0  0  0  0  0  0  0  0
   -3.9041   -0.5917   -0.0292 C   0  0  0  0  0  0  0  0  0  0  0  0
   -4.2410   -1.9827    0.4155 C   0  0  0  0  0  0  0  0  0  0  0  0
  1 11  1  0
  1 13  1  0
  2 13  2  0
  3  4  1  0
  3  5  1  0
  4  9  1  0
  5 11  1  0
  6  7  1  0
  6  8  1  0
  7 10  1  0
  8 12  1  0
  9 10  2  0
 13 14  1  0
M  END
>  <PUBCHEM_COMPOUND_CID>  (1) 
38027

>  <PUBCHEM_CONFORMER_RMSD>  (1) 
1

>  <PUBCHEM_CONFORMER_DIVERSEORDER>  (1) 
1
62
49
336
2
430
261
80
439
17
23
4
162
271
526
595
33
129
55
457
248
39
37
7
15
384
235
98
14
35
145
25
460
453
60
64
318
13
191
32
29
422
315
99
560
6
455
606
247
616
252
340
101
51
198
27
204
8
221
146
219
161
31
38
193
362
517
494
284
449
105
9
127
72
334
576
339
347
92
48
435
155
260
45
577
335
555
371
613
12
189
152
16
598
58
85
522
82
605
282
53
378
100
256
573

>  <PUBCHEM_MMFF94_PARTIAL_CHARGES>  (1) 
11
1 -0.43
10 -0.29
11 0.28
13 0.66
14 0.06
2 -0.57
27 0.15
28 0.15
4 0.14
7 0.14
9 -0.29

>  <PUBCHEM_EFFECTIVE_ROTOR_COUNT>  (1) 
9

>  <PUBCHEM_PHARMACOPHORE_FEATURES>  (1) 
4
1 12 hydrophobe
1 2 acceptor
4 3 4 5 9 hydrophobe
4 6 7 8 10 hydrophobe

>  <PUBCHEM_HEAVY_ATOM_COUNT>  (1) 
14

>  <PUBCHEM_ATOM_DEF_STEREO_COUNT>  (1) 
0

>  <PUBCHEM_ATOM_UDEF_STEREO_COUNT>  (1) 
0

>  <PUBCHEM_BOND_DEF_STEREO_COUNT>  (1) 
0

>  <PUBCHEM_BOND_UDEF_STEREO_COUNT>  (1) 
1

>  <PUBCHEM_ISOTOPIC_ATOM_COUNT>  (1) 
0

>  <PUBCHEM_COMPONENT_COUNT>  (1) 
1

>  <PUBCHEM_CACTVS_TAUTO_COUNT>  (1) 
1

>  <PUBCHEM_CONFORMER_ID>  (1) 
0000948B00000001

>  <PUBCHEM_MMFF94_ENERGY>  (1) 
2.3247

>  <PUBCHEM_FEATURE_SELFOVERLAP>  (1) 
20.298

>  <PUBCHEM_SHAPE_FINGERPRINT>  (1) 
12400797 245 18271241613006901212
12616999 72 18115031942981089788
13533116 47 18200876287976807825
14251705 54 18411137991914929030
14251717 144 18411138064813231058
14251731 5 18268433421555024702
14251757 17 17971177154561592021
14251757 5 16325148646235820030
14252887 29 17632585946196852468
14916288 52 17691691082616459286
15110567 62 18336833090726188955
15352361 1 18338516339795715098
15422964 175 18339351964522629948
17834074 16 18409729590660610655
20621476 78 18201423810365393767
20645477 70 18261950872648675601
2871803 45 18410013196083518566
33824 294 18339358686278336472
4283 87 18270671095121287287
5283384 97 18198892790380691455
53428517 54 18411984680108125213
556388 4 18337106770147119290
59391676 29 18409730672771186996
59682541 52 18123156140547211455
6443956 14 18409450284294783645
8199 65 18410577318578848782

>  <PUBCHEM_SHAPE_MULTIPOLES>  (1) 
276.37
8.95
3.8
0.68
8.45
1.39
0
4.76
-0.25
-2.46
0.09
0.02
-0.01
0.39

>  <PUBCHEM_SHAPE_SELFOVERLAP>  (1) 
506.759

>  <PUBCHEM_SHAPE_VOLUME>  (1) 
174.9

>  <PUBCHEM_COORDINATE_TYPE>  (1) 
2
5
10

$$$$
