38028
     RDKit          3D

 13 13  0  0  0  0  0  0  0  0999 V2000
    3.6513    0.1660   -0.5217 O   0  0  0  0  0  0  0  0  0  0  0  0
    2.8969   -1.7410    0.2818 O   0  0  0  0  0  0  0  0  0  0  0  0
    2.7544   -0.5647   -0.0789 N   0  0  0  0  0  0  0  0  0  0  0  0
    1.4251    2.5306    0.4453 N   0  0  0  0  0  0  0  0  0  0  0  0
   -0.9885   -0.4973   -0.0910 C   0  0  0  0  0  0  0  0  0  0  0  0
   -1.6853   -0.5691    1.1152 C   0  0  0  0  0  0  0  0  0  0  0  0
   -1.6425   -0.0806   -1.2504 C   0  0  0  0  0  0  0  0  0  0  0  0
    0.4202   -0.8564   -0.1396 C   0  0  0  0  0  0  0  0  0  0  0  0
   -3.0361   -0.2244    1.1620 C   0  0  0  0  0  0  0  0  0  0  0  0
   -2.9932    0.2644   -1.2037 C   0  0  0  0  0  0  0  0  0  0  0  0
   -3.6900    0.1925    0.0026 C   0  0  0  0  0  0  0  0  0  0  0  0
    1.4503   -0.0057    0.0233 C   0  0  0  0  0  0  0  0  0  0  0  0
    1.4375    1.3857    0.2552 C   0  0  0  0  0  0  0  0  0  0  0  0
  1  3  1  0
  2  3  2  0
  3 12  1  0
  4 13  3  0
  5  6  2  0
  5  7  1  0
  5  8  1  0
  6  9  1  0
  7 10  2  0
  8 12  2  0
  9 11  2  0
 10 11  1  0
 12 13  1  0
M  CHG  2   1  -1   3   1
M  END
>  <PUBCHEM_COMPOUND_CID>  (1) 
38028

>  <PUBCHEM_CONFORMER_RMSD>  (1) 
0.6

>  <PUBCHEM_CONFORMER_DIVERSEORDER>  (1) 
1
3
2

>  <PUBCHEM_MMFF94_PARTIAL_CHARGES>  (1) 
19
1 -0.52
10 -0.15
11 -0.15
12 0.27
13 0.49
14 0.15
15 0.15
16 0.15
17 0.15
18 0.15
19 0.15
2 -0.52
3 0.84
4 -0.56
5 0.03
6 -0.15
7 -0.15
8 -0.18
9 -0.15

>  <PUBCHEM_EFFECTIVE_ROTOR_COUNT>  (1) 
2

>  <PUBCHEM_PHARMACOPHORE_FEATURES>  (1) 
5
1 1 acceptor
1 1 anion
1 2 acceptor
1 4 acceptor
6 5 6 7 9 10 11 rings

>  <PUBCHEM_HEAVY_ATOM_COUNT>  (1) 
13

>  <PUBCHEM_ATOM_DEF_STEREO_COUNT>  (1) 
0

>  <PUBCHEM_ATOM_UDEF_STEREO_COUNT>  (1) 
0

>  <PUBCHEM_BOND_DEF_STEREO_COUNT>  (1) 
0

>  <PUBCHEM_BOND_UDEF_STEREO_COUNT>  (1) 
1

>  <PUBCHEM_ISOTOPIC_ATOM_COUNT>  (1) 
0

>  <PUBCHEM_COMPONENT_COUNT>  (1) 
1

>  <PUBCHEM_CACTVS_TAUTO_COUNT>  (1) 
1

>  <PUBCHEM_CONFORMER_ID>  (1) 
0000948C00000001

>  <PUBCHEM_MMFF94_ENERGY>  (1) 
37.1576

>  <PUBCHEM_FEATURE_SELFOVERLAP>  (1) 
25.451

>  <PUBCHEM_SHAPE_FINGERPRINT>  (1) 
10130415 120 18261385594980943298
10219947 1 18272934890767729686
10857977 72 16878224255484366397
124424 183 18187358792417768346
12932764 1 18040990773984100099
14144814 61 18131070419915272498
14993402 34 17988926669347097878
15219456 202 18113900515060667485
16945 1 18413102861895420403
17357990 137 17202228324487710177
17844478 74 17894918425151222133
18186145 218 18201715176071524927
19049666 15 17896308138970901153
20645464 45 17750220560368815993
20645476 183 17632855343698978055
20653085 51 18341040887597544573
20715346 28 17895754109901943469
21130352 189 18409726266013441440
23175994 123 18335425612699486798
3248919 1 17346884472279066047
3286 77 18408040728026312111
74978 22 18272368727920204127
77492 1 17489869345110811971
81228 2 17979075977428837824
9939556 21 17988915725765107487

>  <PUBCHEM_SHAPE_MULTIPOLES>  (1) 
245.83
6.01
1.48
1.1
0.41
0.76
-0.05
-0.33
-0.23
1.45
0.3
-0.94
0
0.34

>  <PUBCHEM_SHAPE_SELFOVERLAP>  (1) 
516.345

>  <PUBCHEM_SHAPE_VOLUME>  (1) 
136.7

>  <PUBCHEM_COORDINATE_TYPE>  (1) 
2
5
10

$$$$
