38026
     RDKit          3D

 47 52  0  0  1  0  0  0  0  0999 V2000
    1.5392    1.0565    1.8793 Si  0  0  0  0  0  4  0  0  0  0  0  0
   -0.9884   -0.8143    1.7118 Si  0  0  0  0  0  4  0  0  0  0  0  0
    4.3363    0.0560    0.7925 Si  0  0  0  0  0  4  0  0  0  0  0  0
   -3.7328    0.4191    0.7445 Si  0  0  0  0  0  4  0  0  0  0  0  0
    0.5524   -0.2224    1.4517 O   0  0  0  0  0  0  0  0  0  0  0  0
    2.9611    0.9694    1.0121 O   0  0  0  0  0  0  0  0  0  0  0  0
   -2.1060    0.2344    1.0510 O   0  0  0  0  0  0  0  0  0  0  0  0
    0.6621    2.6183    1.2880 C   0  0  0  0  0  0  0  0  0  0  0  0
   -1.1189   -2.4100    0.7130 C   0  0  0  0  0  0  0  0  0  0  0  0
    1.8302    1.0899    3.7206 C   0  0  0  0  0  0  0  0  0  0  0  0
   -1.2965   -1.1244    3.5253 C   0  0  0  0  0  0  0  0  0  0  0  0
    3.7711   -1.6474    0.2392 C   0  0  0  0  0  0  0  0  0  0  0  0
    5.2601    0.7962   -0.6705 C   0  0  0  0  0  0  0  0  0  0  0  0
   -4.2503   -0.9995   -0.3749 C   0  0  0  0  0  0  0  0  0  0  0  0
   -3.9446    1.9359   -0.3457 C   0  0  0  0  0  0  0  0  0  0  0  0
    5.4335    0.0179    2.2919 C   0  0  0  0  0  0  0  0  0  0  0  0
   -4.7407    0.5398    2.3008 C   0  0  0  0  0  0  0  0  0  0  0  0
   -0.2028    3.2726    2.1472 C   0  0  0  0  0  0  0  0  0  0  0  0
   -1.4123   -3.5927    1.3679 C   0  0  0  0  0  0  0  0  0  0  0  0
    0.8991    3.0811    0.0057 C   0  0  0  0  0  0  0  0  0  0  0  0
   -0.9186   -2.3675   -0.6551 C   0  0  0  0  0  0  0  0  0  0  0  0
    4.2020   -2.7691    0.9333 C   0  0  0  0  0  0  0  0  0  0  0  0
    4.8048    1.9773   -1.2345 C   0  0  0  0  0  0  0  0  0  0  0  0
   -4.8184   -2.1354    0.1827 C   0  0  0  0  0  0  0  0  0  0  0  0
   -2.8813    2.3705   -1.1226 C   0  0  0  0  0  0  0  0  0  0  0  0
    2.9285   -1.7645   -0.8572 C   0  0  0  0  0  0  0  0  0  0  0  0
    6.3829    0.1493   -1.1621 C   0  0  0  0  0  0  0  0  0  0  0  0
   -4.0576   -0.8919   -1.7442 C   0  0  0  0  0  0  0  0  0  0  0  0
   -5.1619    2.6003   -0.3591 C   0  0  0  0  0  0  0  0  0  0  0  0
   -0.8520    4.4272    1.7100 C   0  0  0  0  0  0  0  0  0  0  0  0
   -1.5082   -4.7725    0.6299 C   0  0  0  0  0  0  0  0  0  0  0  0
    0.2499    4.2357   -0.4315 C   0  0  0  0  0  0  0  0  0  0  0  0
   -1.0147   -3.5473   -1.3930 C   0  0  0  0  0  0  0  0  0  0  0  0
    3.7816   -4.0341    0.5225 C   0  0  0  0  0  0  0  0  0  0  0  0
    5.4902    2.5259   -2.3185 C   0  0  0  0  0  0  0  0  0  0  0  0
   -5.2028   -3.1876   -0.6485 C   0  0  0  0  0  0  0  0  0  0  0  0
   -3.0390    3.4956   -1.9319 C   0  0  0  0  0  0  0  0  0  0  0  0
    2.5079   -3.0295   -1.2679 C   0  0  0  0  0  0  0  0  0  0  0  0
    7.0683    0.6980   -2.2461 C   0  0  0  0  0  0  0  0  0  0  0  0
   -4.4421   -1.9442   -2.5751 C   0  0  0  0  0  0  0  0  0  0  0  0
   -5.3196    3.7253   -1.1684 C   0  0  0  0  0  0  0  0  0  0  0  0
   -0.6256    4.9087    0.4207 C   0  0  0  0  0  0  0  0  0  0  0  0
   -1.3095   -4.7498   -0.7504 C   0  0  0  0  0  0  0  0  0  0  0  0
    2.9345   -4.1641   -0.5782 C   0  0  0  0  0  0  0  0  0  0  0  0
    6.6219    1.8862   -2.8242 C   0  0  0  0  0  0  0  0  0  0  0  0
   -5.0146   -3.0919   -2.0272 C   0  0  0  0  0  0  0  0  0  0  0  0
   -4.2582    4.1731   -1.9547 C   0  0  0  0  0  0  0  0  0  0  0  0
  1  5  1  0
  1  6  1  0
  1  8  1  0
  1 10  1  0
  2  5  1  0
  2  7  1  0
  2  9  1  0
  2 11  1  0
  3  6  1  0
  3 12  1  0
  3 13  1  0
  3 16  1  0
  4  7  1  0
  4 14  1  0
  4 15  1  0
  4 17  1  0
  8 18  2  0
  8 20  1  0
  9 19  2  0
  9 21  1  0
 12 22  2  0
 12 26  1  0
 13 23  2  0
 13 27  1  0
 14 24  2  0
 14 28  1  0
 15 25  2  0
 15 29  1  0
 18 30  1  0
 19 31  1  0
 20 32  2  0
 21 33  2  0
 22 34  1  0
 23 35  1  0
 24 36  1  0
 25 37  1  0
 26 38  2  0
 27 39  2  0
 28 40  2  0
 29 41  2  0
 30 42  2  0
 31 43  2  0
 32 42  1  0
 33 43  1  0
 34 44  2  0
 35 45  2  0
 36 46  2  0
 37 47  2  0
 38 44  1  0
 39 45  1  0
 40 46  1  0
 41 47  1  0
M  END
>  <PUBCHEM_COMPOUND_CID>  (1) 
38026

>  <PUBCHEM_CONFORMER_RMSD>  (1) 
1.4

>  <PUBCHEM_CONFORMER_DIVERSEORDER>  (1) 
1
219
31
111
502
346
272
166
446
288
68
385
359
306
298
297
72
76
316
203
415
394
424
80
479
444
186
188
515
28
2
79
426
330
449
348
377
39
96
465
458
477
262
266
200
153
373
270
411
193
256
472
154
339
448
125
292
427
191
400
345
236
258
210
401
514
430
344
402
484
110
212
198
4
376
354
127
386
172
224
49
204
19
491
296
505
104
229
124
310
158
460
364
242
414
273
177
293
233
517
10
63
147
499
496
48
213
230
159
379
280
269
214
239
512
208
246
180
187
381
62
254
182
36
485
468
470
305
87
244
44
202
396
118
441
387
34
41
45
234
456
371
243
503
487
84
312
240
420
27
222
169
83
404
437
326
173
342
395
248
211
66
406
304
294
116
279
162
23
368
315
265
247
199
370
206
189
136
139
281
492
109
132
228
245
175
393
58
237
438
331
369
190
46
91
303
518
307
35
398
252
225
232
135
450
314
356
164
464
447
25
142
384
220
146
249
100
15
390
291
184
399
196
268
183
8
155
209
197
221
178
161
40
73
171
257
22
267
106
409
334
380
117
123
167
141
388
223
378
410
85
194
145
454
290
129
231
56
82
67
38
283
94
30
86
170
260
131
325
403
32
457
6
5
74
311
165
130
149
14
20
138
205
250
439
51
29
65
201
57
69
9
263
11
289
163
391
128
140
55
382
120
77
374
7
75
215
89
102
95
343
93
157
98
185
282
361
97
397
285
105
24
323
64
90
43
54
358
92
143
26
152
179
336
16
300
18
3
21
101
37
271
60
42
299
53
114
353
195
71
108
13
78
103
99
52
251
70
88
59
122
17
284
12
107
61
168
126
112
113
176
181
115
47
81
50
33
134
150

>  <PUBCHEM_MMFF94_PARTIAL_CHARGES>  (1) 
77
1 0.9
10 -0.08
11 -0.08
12 -0.22
13 -0.22
14 -0.22
15 -0.22
16 -0.08
17 -0.08
18 -0.15
19 -0.15
2 0.9
20 -0.15
21 -0.15
22 -0.15
23 -0.15
24 -0.15
25 -0.15
26 -0.15
27 -0.15
28 -0.15
29 -0.15
3 0.82
30 -0.15
31 -0.15
32 -0.15
33 -0.15
34 -0.15
35 -0.15
36 -0.15
37 -0.15
38 -0.15
39 -0.15
4 0.82
40 -0.15
41 -0.15
42 -0.15
43 -0.15
44 -0.15
45 -0.15
46 -0.15
47 -0.15
5 -0.59
6 -0.59
60 0.15
61 0.15
62 0.15
63 0.15
64 0.15
65 0.15
66 0.15
67 0.15
68 0.15
69 0.15
7 -0.59
70 0.15
71 0.15
72 0.15
73 0.15
74 0.15
75 0.15
76 0.15
77 0.15
78 0.15
79 0.15
8 -0.22
80 0.15
81 0.15
82 0.15
83 0.15
84 0.15
85 0.15
86 0.15
87 0.15
88 0.15
89 0.15
9 -0.22

>  <PUBCHEM_EFFECTIVE_ROTOR_COUNT>  (1) 
12

>  <PUBCHEM_PHARMACOPHORE_FEATURES>  (1) 
6
6 12 22 26 34 38 44 rings
6 13 23 27 35 39 45 rings
6 14 24 28 36 40 46 rings
6 15 25 29 37 41 47 rings
6 8 18 20 30 32 42 rings
6 9 19 21 31 33 43 rings

>  <PUBCHEM_HEAVY_ATOM_COUNT>  (1) 
47

>  <PUBCHEM_ATOM_DEF_STEREO_COUNT>  (1) 
0

>  <PUBCHEM_ATOM_UDEF_STEREO_COUNT>  (1) 
2

>  <PUBCHEM_BOND_DEF_STEREO_COUNT>  (1) 
0

>  <PUBCHEM_BOND_UDEF_STEREO_COUNT>  (1) 
0

>  <PUBCHEM_ISOTOPIC_ATOM_COUNT>  (1) 
0

>  <PUBCHEM_COMPONENT_COUNT>  (1) 
1

>  <PUBCHEM_CACTVS_TAUTO_COUNT>  (1) 
1

>  <PUBCHEM_CONFORMER_ID>  (1) 
0000948A00000001

>  <PUBCHEM_MMFF94_ENERGY>  (1) 
87.8141

>  <PUBCHEM_FEATURE_SELFOVERLAP>  (1) 
30.452

>  <PUBCHEM_SHAPE_FINGERPRINT>  (1) 
10581848 31 18273500091152204137
11170278 133 17977945687754039556
11377469 6 17560251339346967859
11513181 2 18335139756745384508
13383661 66 17488762176052259246
13636023 20 18058443365265498272
14068700 675 17202777032245168730
15320291 9 18266172846806610406
15406563 228 17976543806661054926
20764821 26 18267854008791205511
5265222 85 18334862710012818429

>  <PUBCHEM_SHAPE_MULTIPOLES>  (1) 
1022.48
14.09
7.48
3.07
11.63
0.32
-0.9
-2.41
9.86
-5.08
1.97
1.12
-1.08
-1.19

>  <PUBCHEM_SHAPE_SELFOVERLAP>  (1) 
2150.453

>  <PUBCHEM_SHAPE_VOLUME>  (1) 
572.3

>  <PUBCHEM_COORDINATE_TYPE>  (1) 
2
5
10

$$$$
