38021
     RDKit          3D

 15 16  0  0  0  0  0  0  0  0999 V2000
    2.7883   -0.2591    0.0057 C   0  0  0  0  0  0  0  0  0  0  0  0
    2.9639    1.2131   -0.4542 C   0  0  0  0  0  0  0  0  0  0  0  0
    1.2814   -0.3728   -0.0169 C   0  0  0  0  0  0  0  0  0  0  0  0
    1.7180    1.9792    0.0156 C   0  0  0  0  0  0  0  0  0  0  0  0
    0.6858    0.8970   -0.0183 C   0  0  0  0  0  0  0  0  0  0  0  0
    3.3195   -0.4634    1.4307 C   0  0  0  0  0  0  0  0  0  0  0  0
    3.4859   -1.2186   -0.9618 C   0  0  0  0  0  0  0  0  0  0  0  0
   -2.9696    0.0185    0.0039 C   0  0  0  0  0  0  0  0  0  0  0  0
   -1.4822   -0.1051   -0.0054 C   0  0  0  0  0  0  0  0  0  0  0  0
   -0.6917    1.0450   -0.0045 C   0  0  0  0  0  0  0  0  0  0  0  0
    0.4982   -1.5181   -0.0096 C   0  0  0  0  0  0  0  0  0  0  0  0
   -0.8916   -1.3776   -0.0083 C   0  0  0  0  0  0  0  0  0  0  0  0
   -3.5844   -0.6585    1.2674 C   0  0  0  0  0  0  0  0  0  0  0  0
   -3.6008   -0.6622   -1.2497 C   0  0  0  0  0  0  0  0  0  0  0  0
   -3.5204    1.4826    0.0052 C   0  0  0  0  0  0  0  0  0  0  0  0
  1  2  1  0
  1  3  1  0
  1  6  1  0
  1  7  1  0
  2  4  1  0
  3  5  2  0
  3 11  1  0
  4  5  1  0
  5 10  1  0
  8  9  1  0
  8 13  1  0
  8 14  1  0
  8 15  1  0
  9 10  2  0
  9 12  1  0
 11 12  2  0
M  END
>  <PUBCHEM_COMPOUND_CID>  (1) 
38021

>  <PUBCHEM_CONFORMER_RMSD>  (1) 
0.6

>  <PUBCHEM_CONFORMER_DIVERSEORDER>  (1) 
1

>  <PUBCHEM_MMFF94_PARTIAL_CHARGES>  (1) 
12
1 0.14
10 -0.15
11 -0.15
12 -0.15
26 0.15
27 0.15
28 0.15
3 -0.14
4 0.14
5 -0.14
8 0.14
9 -0.14

>  <PUBCHEM_EFFECTIVE_ROTOR_COUNT>  (1) 
1.6

>  <PUBCHEM_PHARMACOPHORE_FEATURES>  (1) 
4
3 1 6 7 hydrophobe
4 8 13 14 15 hydrophobe
5 1 2 3 4 5 rings
6 3 5 9 10 11 12 rings

>  <PUBCHEM_HEAVY_ATOM_COUNT>  (1) 
15

>  <PUBCHEM_ATOM_DEF_STEREO_COUNT>  (1) 
0

>  <PUBCHEM_ATOM_UDEF_STEREO_COUNT>  (1) 
0

>  <PUBCHEM_BOND_DEF_STEREO_COUNT>  (1) 
0

>  <PUBCHEM_BOND_UDEF_STEREO_COUNT>  (1) 
0

>  <PUBCHEM_ISOTOPIC_ATOM_COUNT>  (1) 
0

>  <PUBCHEM_COMPONENT_COUNT>  (1) 
1

>  <PUBCHEM_CACTVS_TAUTO_COUNT>  (1) 
1

>  <PUBCHEM_CONFORMER_ID>  (1) 
0000948500000001

>  <PUBCHEM_MMFF94_ENERGY>  (1) 
54.9515

>  <PUBCHEM_FEATURE_SELFOVERLAP>  (1) 
20.379

>  <PUBCHEM_SHAPE_FINGERPRINT>  (1) 
10062212 137 18339632361451856795
10130415 120 18261105262444356392
10608611 8 18408323310867526589
10922523 26 18201722808128170365
10980938 120 18339363075513204348
11132069 177 18272926107385276091
11471102 20 18410572885650431541
12032990 46 18409739442951844134
124424 183 17821998792458912827
12932764 1 17312819385689081059
13140716 1 18337670948313364634
13221675 6 18409169904539605330
13296908 3 17967534605402947209
13380535 21 18120669173297660214
13571099 22 18131352977281647244
13581323 91 15791739615509390947
13583140 156 17168415064788901795
13675066 3 18202284688734981187
13705890 14 16988843890876688134
13760787 19 17023191500125305355
13922767 16 18411692180040205544
14144814 61 18410013255759561945
14289901 80 15769482222744760311
14325111 11 18409731780925360421
15309172 13 18342463642505946083
15536298 74 18272933830000289876
15653759 3 17530689831241923585
16945 1 18409728456457123490
17844478 74 18040442113571378317
18175812 5 17822008722586753671
18186145 218 17894632547632443045
18522853 295 18408325480010471530
19026448 4 16081083788054627887
19026448 5 15626220204125823971
19422 9 17917997200067087631
200 152 18201992257945460479
20645476 183 17531543073682353070
20645477 70 18409442605109276583
21501502 16 18194962070064033334
21501925 9 18338504309623772808
2255824 54 18041282149145095604
2334 1 18049440640875821930
23402539 116 18272360937350533326
23402655 69 18342454833522773541
23463225 33 18334292050433883464
23557571 272 15195567931150259259
23559900 14 18202563956778899012
2748010 2 18192435396590892086
296302 2 14620790513620951290
5104073 3 18408605863796561961
57812782 119 18259980483323478745
581208 293 18272083907448748038
633830 44 18335143072417977575
69090 78 18060131072273908783
7364860 26 18272091656002591376
74978 22 18336827597140724558
77492 1 17704077321594611405

>  <PUBCHEM_SHAPE_MULTIPOLES>  (1) 
308.69
6.99
1.71
1.04
2.17
0.4
-0.14
-0.36
-0.02
-0.38
0.12
0.05
-0.26
0.02

>  <PUBCHEM_SHAPE_SELFOVERLAP>  (1) 
650.859

>  <PUBCHEM_SHAPE_VOLUME>  (1) 
171.2

>  <PUBCHEM_COORDINATE_TYPE>  (1) 
2
5
10

$$$$
