38024
     RDKit          3D

 18 19  0  0  0  0  0  0  0  0999 V2000
   -0.9336   -1.7205   -1.7755 Cl  0  0  0  0  0  0  0  0  0  0  0  0
    0.9336   -1.7204    1.7756 Cl  0  0  0  0  0  0  0  0  0  0  0  0
   -0.2209    2.1399    2.0180 Cl  0  0  0  0  0  0  0  0  0  0  0  0
    0.2210    2.1397   -2.0181 Cl  0  0  0  0  0  0  0  0  0  0  0  0
   -4.0604   -1.6687   -1.1109 Cl  0  0  0  0  0  0  0  0  0  0  0  0
    4.0604   -1.6687    1.1109 Cl  0  0  0  0  0  0  0  0  0  0  0  0
   -0.7146    0.2017    0.1398 C   0  0  0  0  0  0  0  0  0  0  0  0
    0.7146    0.2017   -0.1398 C   0  0  0  0  0  0  0  0  0  0  0  0
   -1.5702   -0.6493   -0.5597 C   0  0  0  0  0  0  0  0  0  0  0  0
    1.5701   -0.6492    0.5598 C   0  0  0  0  0  0  0  0  0  0  0  0
   -1.2265    1.0592    1.1136 C   0  0  0  0  0  0  0  0  0  0  0  0
    1.2265    1.0591   -1.1137 C   0  0  0  0  0  0  0  0  0  0  0  0
   -2.9378   -0.6427   -0.2855 C   0  0  0  0  0  0  0  0  0  0  0  0
    2.9377   -0.6427    0.2856 C   0  0  0  0  0  0  0  0  0  0  0  0
   -2.5942    1.0657    1.3878 C   0  0  0  0  0  0  0  0  0  0  0  0
    2.5942    1.0656   -1.3878 C   0  0  0  0  0  0  0  0  0  0  0  0
   -3.4498    0.2149    0.6882 C   0  0  0  0  0  0  0  0  0  0  0  0
    3.4498    0.2148   -0.6882 C   0  0  0  0  0  0  0  0  0  0  0  0
  1  9  1  0
  2 10  1  0
  3 11  1  0
  4 12  1  0
  5 13  1  0
  6 14  1  0
  7  8  1  0
  7  9  2  0
  7 11  1  0
  8 10  2  0
  8 12  1  0
  9 13  1  0
 10 14  1  0
 11 15  2  0
 12 16  2  0
 13 17  2  0
 14 18  2  0
 15 17  1  0
 16 18  1  0
M  END
>  <PUBCHEM_COMPOUND_CID>  (1) 
38024

>  <PUBCHEM_CONFORMER_RMSD>  (1) 
0.6

>  <PUBCHEM_CONFORMER_DIVERSEORDER>  (1) 
2
1

>  <PUBCHEM_MMFF94_PARTIAL_CHARGES>  (1) 
20
1 -0.18
10 0.18
11 0.18
12 0.18
13 0.18
14 0.18
15 -0.15
16 -0.15
17 -0.15
18 -0.15
19 0.15
2 -0.18
20 0.15
21 0.15
22 0.15
3 -0.18
4 -0.18
5 -0.18
6 -0.18
9 0.18

>  <PUBCHEM_EFFECTIVE_ROTOR_COUNT>  (1) 
1

>  <PUBCHEM_PHARMACOPHORE_FEATURES>  (1) 
2
6 7 9 11 13 15 17 rings
6 8 10 12 14 16 18 rings

>  <PUBCHEM_HEAVY_ATOM_COUNT>  (1) 
18

>  <PUBCHEM_ATOM_DEF_STEREO_COUNT>  (1) 
0

>  <PUBCHEM_ATOM_UDEF_STEREO_COUNT>  (1) 
0

>  <PUBCHEM_BOND_DEF_STEREO_COUNT>  (1) 
0

>  <PUBCHEM_BOND_UDEF_STEREO_COUNT>  (1) 
0

>  <PUBCHEM_ISOTOPIC_ATOM_COUNT>  (1) 
0

>  <PUBCHEM_COMPONENT_COUNT>  (1) 
1

>  <PUBCHEM_CACTVS_TAUTO_COUNT>  (1) 
1

>  <PUBCHEM_CONFORMER_ID>  (1) 
0000948800000002

>  <PUBCHEM_MMFF94_ENERGY>  (1) 
52.5111

>  <PUBCHEM_FEATURE_SELFOVERLAP>  (1) 
10.149

>  <PUBCHEM_SHAPE_FINGERPRINT>  (1) 
10863032 1 17823147880836229299
11578080 2 18122308424628534020
12035758 1 16679791732174817384
12236239 1 18410581681732858560
12423570 1 14034107588913809312
13009979 54 18341339911462688010
13140716 1 17632299042723975139
13464514 151 15720494470269752119
13538477 17 18271812302169701089
13581323 91 17846779615458721622
13911987 19 17095253518744744582
14115302 16 18266737064207933095
14178342 30 17203343182434548291
14787075 74 18055631961167074000
14817 1 17488469576424962025
15219456 202 16081092601248378540
15375462 189 18341057392787513867
16752209 62 18131340921994457615
16945 1 18410865355732909220
1813 80 18116443531565164142
18175812 5 15698005114974722021
18186145 218 17967824876388329486
19010151 120 18187638090109758550
19422 9 18410577283686724231
19765921 60 17762638564841739260
200 152 18040711450569570875
20600515 1 17489307447482888569
20645477 70 17385437730615334138
21639500 275 17677342743304163716
22112679 90 18342179946698678185
22802520 49 15068613847235089299
23175994 123 16660653920676458308
23184049 29 17486761154862648887
232386 152 18131347544300991991
23419403 2 17840263939596621725
23557571 272 16845026636044988689
23559900 14 17131287752980919124
23598291 2 18335144171834607791
2748010 2 17458898224871586948
350125 39 16765392127271018113
474 4 18047473610817333956
5902787 121 17774723177051670505
6992083 37 18338524036187043253
7364860 26 16842753022218994905
77492 1 18410584980267800357
81228 2 16915688928584469937
8272917 22 17968104062585340843
90316 7 17988645142593728025
9981440 41 17261595587557928464

>  <PUBCHEM_SHAPE_MULTIPOLES>  (1) 
381.65
6.1
2.19
2.06
0
0.25
0
-2.93
0
0
0
0
0.56
-2.03

>  <PUBCHEM_SHAPE_SELFOVERLAP>  (1) 
776.486

>  <PUBCHEM_SHAPE_VOLUME>  (1) 
216

>  <PUBCHEM_COORDINATE_TYPE>  (1) 
2
5
10

$$$$
