38031
     RDKit          3D

 15 16  0  0  0  0  0  0  0  0999 V2000
   -0.8859   -2.7402   -0.0007 Cl  0  0  0  0  0  0  0  0  0  0  0  0
   -0.8887    2.7407    0.0003 Cl  0  0  0  0  0  0  0  0  0  0  0  0
    4.9712   -0.0012   -0.0001 Cl  0  0  0  0  0  0  0  0  0  0  0  0
   -0.9863    0.0002    0.0000 C   0  0  0  0  0  0  0  0  0  0  0  0
    0.4606    0.0009    0.0001 C   0  0  0  0  0  0  0  0  0  0  0  0
   -1.6915   -1.2081   -0.0002 C   0  0  0  0  0  0  0  0  0  0  0  0
   -1.6927    1.2078    0.0003 C   0  0  0  0  0  0  0  0  0  0  0  0
    1.1579    0.0016   -1.2079 C   0  0  0  0  0  0  0  0  0  0  0  0
    1.1581    0.0000    1.2081 C   0  0  0  0  0  0  0  0  0  0  0  0
   -3.0864   -1.2089   -0.0002 C   0  0  0  0  0  0  0  0  0  0  0  0
   -3.0876    1.2071    0.0003 C   0  0  0  0  0  0  0  0  0  0  0  0
    2.5528    0.0013   -1.2080 C   0  0  0  0  0  0  0  0  0  0  0  0
    2.5530   -0.0002    1.2079 C   0  0  0  0  0  0  0  0  0  0  0  0
   -3.7845   -0.0013    0.0001 C   0  0  0  0  0  0  0  0  0  0  0  0
    3.2503    0.0004   -0.0001 C   0  0  0  0  0  0  0  0  0  0  0  0
  1  6  1  0
  2  7  1  0
  3 15  1  0
  4  5  1  0
  4  6  2  0
  4  7  1  0
  5  8  2  0
  5  9  1  0
  6 10  1  0
  7 11  2  0
  8 12  1  0
  9 13  2  0
 10 14  2  0
 11 14  1  0
 12 15  2  0
 13 15  1  0
M  END
>  <PUBCHEM_COMPOUND_CID>  (1) 
38031

>  <PUBCHEM_CONFORMER_RMSD>  (1) 
0.4

>  <PUBCHEM_CONFORMER_DIVERSEORDER>  (1) 
1

>  <PUBCHEM_MMFF94_PARTIAL_CHARGES>  (1) 
20
1 -0.18
10 -0.15
11 -0.15
12 -0.15
13 -0.15
14 -0.15
15 0.18
16 0.15
17 0.15
18 0.15
19 0.15
2 -0.18
20 0.15
21 0.15
22 0.15
3 -0.18
6 0.18
7 0.18
8 -0.15
9 -0.15

>  <PUBCHEM_EFFECTIVE_ROTOR_COUNT>  (1) 
1

>  <PUBCHEM_PHARMACOPHORE_FEATURES>  (1) 
2
6 4 6 7 10 11 14 rings
6 5 8 9 12 13 15 rings

>  <PUBCHEM_HEAVY_ATOM_COUNT>  (1) 
15

>  <PUBCHEM_ATOM_DEF_STEREO_COUNT>  (1) 
0

>  <PUBCHEM_ATOM_UDEF_STEREO_COUNT>  (1) 
0

>  <PUBCHEM_BOND_DEF_STEREO_COUNT>  (1) 
0

>  <PUBCHEM_BOND_UDEF_STEREO_COUNT>  (1) 
0

>  <PUBCHEM_ISOTOPIC_ATOM_COUNT>  (1) 
0

>  <PUBCHEM_COMPONENT_COUNT>  (1) 
1

>  <PUBCHEM_CACTVS_TAUTO_COUNT>  (1) 
1

>  <PUBCHEM_CONFORMER_ID>  (1) 
0000948F00000001

>  <PUBCHEM_MMFF94_ENERGY>  (1) 
43.5089

>  <PUBCHEM_FEATURE_SELFOVERLAP>  (1) 
10.149

>  <PUBCHEM_SHAPE_FINGERPRINT>  (1) 
11578080 2 12605413024479431723
12236239 1 17676487245895341545
124424 183 17775565334413325234
12500047 106 18413102866522982958
13140716 1 18267030642803007883
13538477 17 18113616832476099963
13581323 91 18409444782636401418
14614273 12 18189332360514441821
14993402 34 18186796993747606647
15219456 202 17703513211810116318
15309172 13 18409738335277446043
15653759 3 18131066043749539586
15669948 3 18336262439590132278
15775835 57 18261673683890739713
16752209 62 18334844018456648255
16945 1 18410575085127257093
18175812 5 17775281702977929612
18186145 218 17987810604635716516
19049666 15 17773324430583367526
19422 9 17676773144699241530
19868273 325 18409449223653801477
200 152 16370723746771700385
20201158 50 17561369473837056630
20279233 1 17775289369462917686
20344682 1 17775004591587849797
20510252 161 18342459188382332217
20600515 1 18341905116094812581
20645476 183 17821445785497615883
20645477 70 16414922929013600476
2297311 6 18341625810529766900
23175994 123 17275103946592017856
232386 152 18263364844401269351
23402539 116 18341886394316012549
23526113 38 17560524984772611030
23557571 272 18272940418675671020
23559900 14 18272091553033957966
2748010 2 18194392523621048537
3286 77 16486682684070051787
350125 39 17546456578950448801
43471831 8 18335137532121785883
465052 167 17825689986887066555
474 4 17024882695623522652
7364860 26 17910674267900775303
77492 1 17676205775213591683
81228 2 18269854050596948729
9709674 26 18342747312269370414

>  <PUBCHEM_SHAPE_MULTIPOLES>  (1) 
314.3
6.86
2.08
1.01
4.88
0
0
0
0
-1.88
0
0.71
0
0

>  <PUBCHEM_SHAPE_SELFOVERLAP>  (1) 
655.602

>  <PUBCHEM_SHAPE_VOLUME>  (1) 
171.8

>  <PUBCHEM_COORDINATE_TYPE>  (1) 
2
5
10

$$$$
