38034
     RDKit          3D

 15 16  0  0  0  0  0  0  0  0999 V2000
    0.9312   -2.2691    0.2744 Cl  0  0  0  0  0  0  0  0  0  0  0  0
    4.0545   -1.7048   -0.1520 Cl  0  0  0  0  0  0  0  0  0  0  0  0
   -4.0177   -0.3590   -2.0308 Cl  0  0  0  0  0  0  0  0  0  0  0  0
    0.6334    0.4233    0.0678 C   0  0  0  0  0  0  0  0  0  0  0  0
   -0.7901    0.2436    0.2547 C   0  0  0  0  0  0  0  0  0  0  0  0
    1.5281   -0.6500    0.0569 C   0  0  0  0  0  0  0  0  0  0  0  0
    1.1118    1.7243   -0.1072 C   0  0  0  0  0  0  0  0  0  0  0  0
   -1.6201    0.0507   -0.8496 C   0  0  0  0  0  0  0  0  0  0  0  0
   -1.3326    0.2649    1.5396 C   0  0  0  0  0  0  0  0  0  0  0  0
    2.8920   -0.4236   -0.1275 C   0  0  0  0  0  0  0  0  0  0  0  0
    2.4757    1.9507   -0.2915 C   0  0  0  0  0  0  0  0  0  0  0  0
   -2.9924   -0.1211   -0.6691 C   0  0  0  0  0  0  0  0  0  0  0  0
   -2.7050    0.0932    1.7202 C   0  0  0  0  0  0  0  0  0  0  0  0
    3.3659    0.8768   -0.3016 C   0  0  0  0  0  0  0  0  0  0  0  0
   -3.5349   -0.0999    0.6158 C   0  0  0  0  0  0  0  0  0  0  0  0
  1  6  1  0
  2 10  1  0
  3 12  1  0
  4  5  1  0
  4  6  2  0
  4  7  1  0
  5  8  2  0
  5  9  1  0
  6 10  1  0
  7 11  2  0
  8 12  1  0
  9 13  2  0
 10 14  2  0
 11 14  1  0
 12 15  2  0
 13 15  1  0
M  END
>  <PUBCHEM_COMPOUND_CID>  (1) 
38034

>  <PUBCHEM_CONFORMER_RMSD>  (1) 
0.4

>  <PUBCHEM_CONFORMER_DIVERSEORDER>  (1) 
1
4
6
2
5
3

>  <PUBCHEM_MMFF94_PARTIAL_CHARGES>  (1) 
20
1 -0.18
10 0.18
11 -0.15
12 0.18
13 -0.15
14 -0.15
15 -0.15
16 0.15
17 0.15
18 0.15
19 0.15
2 -0.18
20 0.15
21 0.15
22 0.15
3 -0.18
6 0.18
7 -0.15
8 -0.15
9 -0.15

>  <PUBCHEM_EFFECTIVE_ROTOR_COUNT>  (1) 
1

>  <PUBCHEM_PHARMACOPHORE_FEATURES>  (1) 
2
6 4 6 7 10 11 14 rings
6 5 8 9 12 13 15 rings

>  <PUBCHEM_HEAVY_ATOM_COUNT>  (1) 
15

>  <PUBCHEM_ATOM_DEF_STEREO_COUNT>  (1) 
0

>  <PUBCHEM_ATOM_UDEF_STEREO_COUNT>  (1) 
0

>  <PUBCHEM_BOND_DEF_STEREO_COUNT>  (1) 
0

>  <PUBCHEM_BOND_UDEF_STEREO_COUNT>  (1) 
0

>  <PUBCHEM_ISOTOPIC_ATOM_COUNT>  (1) 
0

>  <PUBCHEM_COMPONENT_COUNT>  (1) 
1

>  <PUBCHEM_CACTVS_TAUTO_COUNT>  (1) 
1

>  <PUBCHEM_CONFORMER_ID>  (1) 
0000949200000001

>  <PUBCHEM_MMFF94_ENERGY>  (1) 
43.9068

>  <PUBCHEM_FEATURE_SELFOVERLAP>  (1) 
10.149

>  <PUBCHEM_SHAPE_FINGERPRINT>  (1) 
10062212 137 17918277528319230499
11471102 20 18407759235627106708
11725454 13 17173168313664759941
12186901 62 15864077546278607131
12236239 1 17846504733314748041
124424 183 17458617904782136240
12500047 106 16153421753210021731
12932764 1 17385725819862396683
13134695 92 18334857204059274084
13296908 3 17821453473177391120
13464514 151 17461425950063219277
13538477 17 17346602963053289265
14251717 144 18410569591611124918
15219456 202 17821732757747251921
15309172 13 18335430113598372738
16945 1 18409172099568463602
1813 80 18056218890260200846
18175812 5 17603309279594677494
18186145 218 18408890658677158716
19026448 4 17167865278868044476
19026448 5 17632863031284183848
19049666 15 17531523170624204537
19422 9 17846782909672198959
200 152 18343578530100531661
20201158 50 18041000604910974667
20279233 1 17603865632483613457
204376 136 18120378911250976240
20645477 70 18334290963759925238
20715346 28 17604154829811613168
21639500 275 18338517555171317552
22112679 90 17561369465257645793
2255824 54 18341621434052894718
232386 152 16917341541615512519
23402539 116 18269556048960466806
23493267 7 15936412212703834593
23526113 38 17678726839486195003
23557571 272 16732989747122598685
23559900 14 16515680005962254546
23598291 2 18131074809387608621
2748010 2 18118136976707800410
474 4 17700120286779463784
57096353 35 17917150623121281885
6049 1 17313680329111179085
633830 44 18198646439044815492
7615 1 17846502538534024321
77492 1 17846505841368889625
81228 2 16966594976820475402
8272917 22 18268722627725841851
88987 49 15357693119514973265

>  <PUBCHEM_SHAPE_MULTIPOLES>  (1) 
314.3
7.18
1.76
1.39
0.93
0.23
-0.01
1.27
-1.88
-2.19
-0.06
2.09
0.05
-0.43

>  <PUBCHEM_SHAPE_SELFOVERLAP>  (1) 
654.999

>  <PUBCHEM_SHAPE_VOLUME>  (1) 
173.2

>  <PUBCHEM_COORDINATE_TYPE>  (1) 
2
5
10

$$$$
