38046
     RDKit          3D

 13 14  0  0  0  0  0  0  0  0999 V2000
   -0.4278   -1.6212    0.0032 O   0  0  0  0  0  0  0  0  0  0  0  0
   -2.6913   -1.8104   -0.0039 O   0  0  0  0  0  0  0  0  0  0  0  0
   -0.8117    2.5651    0.0035 N   0  0  0  0  0  0  0  0  0  0  0  0
   -3.1107    0.8570   -0.0003 N   0  0  0  0  0  0  0  0  0  0  0  0
    0.6180    0.5796    0.0001 C   0  0  0  0  0  0  0  0  0  0  0  0
   -0.7263    1.1956    0.0006 C   0  0  0  0  0  0  0  0  0  0  0  0
    0.7181   -0.8102    0.0024 C   0  0  0  0  0  0  0  0  0  0  0  0
   -1.8186    0.4003   -0.0006 C   0  0  0  0  0  0  0  0  0  0  0  0
    1.8228    1.3020   -0.0033 C   0  0  0  0  0  0  0  0  0  0  0  0
    1.9453   -1.4795    0.0026 C   0  0  0  0  0  0  0  0  0  0  0  0
   -1.7022   -1.0832   -0.0010 C   0  0  0  0  0  0  0  0  0  0  0  0
    3.0616    0.6475   -0.0032 C   0  0  0  0  0  0  0  0  0  0  0  0
    3.1228   -0.7427   -0.0001 C   0  0  0  0  0  0  0  0  0  0  0  0
  1  7  1  0
  1 11  1  0
  2 11  2  0
  3  6  1  0
  4  8  1  0
  5  6  1  0
  5  7  2  0
  5  9  1  0
  6  8  2  0
  7 10  1  0
  8 11  1  0
  9 12  2  0
 10 13  2  0
 12 13  1  0
M  END
>  <PUBCHEM_COMPOUND_CID>  (1) 
38046

>  <PUBCHEM_CONFORMER_RMSD>  (1) 
0.4

>  <PUBCHEM_CONFORMER_DIVERSEORDER>  (1) 
1

>  <PUBCHEM_MMFF94_PARTIAL_CHARGES>  (1) 
21
1 -0.23
10 -0.15
11 0.71
12 -0.15
13 -0.15
14 0.15
15 0.15
16 0.15
17 0.15
18 0.4
19 0.4
2 -0.57
20 0.4
21 0.4
3 -0.9
4 -0.9
5 0.03
6 0.07
7 0.08
8 0.11
9 -0.15

>  <PUBCHEM_EFFECTIVE_ROTOR_COUNT>  (1) 
0

>  <PUBCHEM_PHARMACOPHORE_FEATURES>  (1) 
7
1 2 acceptor
1 3 cation
1 3 donor
1 4 cation
1 4 donor
6 1 5 6 7 8 11 rings
6 5 7 9 10 12 13 rings

>  <PUBCHEM_HEAVY_ATOM_COUNT>  (1) 
13

>  <PUBCHEM_ATOM_DEF_STEREO_COUNT>  (1) 
0

>  <PUBCHEM_ATOM_UDEF_STEREO_COUNT>  (1) 
0

>  <PUBCHEM_BOND_DEF_STEREO_COUNT>  (1) 
0

>  <PUBCHEM_BOND_UDEF_STEREO_COUNT>  (1) 
0

>  <PUBCHEM_ISOTOPIC_ATOM_COUNT>  (1) 
0

>  <PUBCHEM_COMPONENT_COUNT>  (1) 
1

>  <PUBCHEM_CACTVS_TAUTO_COUNT>  (1) 
5

>  <PUBCHEM_CONFORMER_ID>  (1) 
0000949E00000001

>  <PUBCHEM_MMFF94_ENERGY>  (1) 
49.6973

>  <PUBCHEM_FEATURE_SELFOVERLAP>  (1) 
35.551

>  <PUBCHEM_SHAPE_FINGERPRINT>  (1) 
10608611 8 18411976966537038512
10967382 1 18338798901177352196
11132069 177 18413102857890538696
12032990 46 18338242668595382619
12382932 28 18412824702680967784
12524768 44 18340773649867727487
12897270 3 18411136935342281844
13380535 76 18340483344596537759
13897977 150 18412258454213943765
14325111 11 18410574011148218660
15775835 57 18410018719147846904
16945 1 18338517413463497670
17844478 74 18041009427100770201
193761 8 14591522158561462630
19973954 147 18410857633729792718
20201158 50 18340767057198488054
20871998 184 18201721764562095143
21501502 16 18410293622829810962
2334 1 18338799042953587907
23402539 116 18270666572541446765
23402655 69 18269541781226796613
23463225 33 18408887355826215518
23552423 10 18260831526856314110
23559900 14 18342738482501697110
241688 4 18410011061052353433
2748010 2 18339078297405741959
3312278 4 18410014351065795704
5084963 1 18058163934370973080
528886 8 18411414003445150587
53812653 166 18343298201685137888
8809292 202 18334300842321986098

>  <PUBCHEM_SHAPE_MULTIPOLES>  (1) 
245.83
4.5
2.13
0.59
0.44
0.34
0
-0.5
0
-0.64
0
0.05
0
0

>  <PUBCHEM_SHAPE_SELFOVERLAP>  (1) 
538.926

>  <PUBCHEM_SHAPE_VOLUME>  (1) 
132.2

>  <PUBCHEM_COORDINATE_TYPE>  (1) 
2
5
10

$$$$
