38040
     RDKit          3D

 16 17  0  0  0  0  0  0  0  0999 V2000
   -1.0065   -1.7585    1.4864 Cl  0  0  0  0  0  0  0  0  0  0  0  0
    1.0064    1.7625    1.4816 Cl  0  0  0  0  0  0  0  0  0  0  0  0
   -4.1230   -1.0320    1.3664 Cl  0  0  0  0  0  0  0  0  0  0  0  0
    4.1230    1.0358    1.3635 Cl  0  0  0  0  0  0  0  0  0  0  0  0
   -0.7125    0.1375   -0.4371 C   0  0  0  0  0  0  0  0  0  0  0  0
    0.7126   -0.1387   -0.4367 C   0  0  0  0  0  0  0  0  0  0  0  0
   -1.6013   -0.5387    0.3986 C   0  0  0  0  0  0  0  0  0  0  0  0
    1.6014    0.5399    0.3971 C   0  0  0  0  0  0  0  0  0  0  0  0
   -1.1847    1.1169   -1.3110 C   0  0  0  0  0  0  0  0  0  0  0  0
    1.1847   -1.1204   -1.3080 C   0  0  0  0  0  0  0  0  0  0  0  0
   -2.9623   -0.2358    0.3603 C   0  0  0  0  0  0  0  0  0  0  0  0
    2.9623    0.2367    0.3596 C   0  0  0  0  0  0  0  0  0  0  0  0
   -2.5457    1.4197   -1.3494 C   0  0  0  0  0  0  0  0  0  0  0  0
    2.5456   -1.4234   -1.3455 C   0  0  0  0  0  0  0  0  0  0  0  0
   -3.4346    0.7434   -0.5138 C   0  0  0  0  0  0  0  0  0  0  0  0
    3.4345   -0.7448   -0.5118 C   0  0  0  0  0  0  0  0  0  0  0  0
  1  7  1  0
  2  8  1  0
  3 11  1  0
  4 12  1  0
  5  6  1  0
  5  7  2  0
  5  9  1  0
  6  8  2  0
  6 10  1  0
  7 11  1  0
  8 12  1  0
  9 13  2  0
 10 14  2  0
 11 15  2  0
 12 16  2  0
 13 15  1  0
 14 16  1  0
M  END
>  <PUBCHEM_COMPOUND_CID>  (1) 
38040

>  <PUBCHEM_CONFORMER_RMSD>  (1) 
0.6

>  <PUBCHEM_CONFORMER_DIVERSEORDER>  (1) 
2
1

>  <PUBCHEM_MMFF94_PARTIAL_CHARGES>  (1) 
20
1 -0.18
10 -0.15
11 0.18
12 0.18
13 -0.15
14 -0.15
15 -0.15
16 -0.15
17 0.15
18 0.15
19 0.15
2 -0.18
20 0.15
21 0.15
22 0.15
3 -0.18
4 -0.18
7 0.18
8 0.18
9 -0.15

>  <PUBCHEM_EFFECTIVE_ROTOR_COUNT>  (1) 
1

>  <PUBCHEM_PHARMACOPHORE_FEATURES>  (1) 
2
6 5 7 9 11 13 15 rings
6 6 8 10 12 14 16 rings

>  <PUBCHEM_HEAVY_ATOM_COUNT>  (1) 
16

>  <PUBCHEM_ATOM_DEF_STEREO_COUNT>  (1) 
0

>  <PUBCHEM_ATOM_UDEF_STEREO_COUNT>  (1) 
0

>  <PUBCHEM_BOND_DEF_STEREO_COUNT>  (1) 
0

>  <PUBCHEM_BOND_UDEF_STEREO_COUNT>  (1) 
0

>  <PUBCHEM_ISOTOPIC_ATOM_COUNT>  (1) 
0

>  <PUBCHEM_COMPONENT_COUNT>  (1) 
1

>  <PUBCHEM_CACTVS_TAUTO_COUNT>  (1) 
1

>  <PUBCHEM_CONFORMER_ID>  (1) 
0000949800000002

>  <PUBCHEM_MMFF94_ENERGY>  (1) 
47.9865

>  <PUBCHEM_FEATURE_SELFOVERLAP>  (1) 
10.149

>  <PUBCHEM_SHAPE_FINGERPRINT>  (1) 
10980938 120 17561079207304832140
11132069 177 18334016107654696355
13296908 3 18411141303107854623
13538477 17 16298394599099990539
13581323 91 17603303764893644602
13583140 156 17971443361071977072
14115302 16 15357981230263674899
15219456 202 18413668002355989868
15309172 13 17918270982688792838
15342168 16 17631452443928955096
15375462 175 17676496037983728931
15653759 3 18333168366577275745
16752209 62 17095234861306239563
16945 1 17749395857664698087
17844478 74 18412548686660613173
18186145 218 18264492797312957348
18219364 16 17916576686920851896
18785283 64 18125723640930513104
19049666 15 18266458702586314773
19422 9 15719112448277486169
20279233 1 18410288094969550390
204376 136 17774147050518529616
20510252 161 18186527592029700245
20600515 1 17822008761236580973
20645476 183 15502672523830838891
20645477 70 17774151297602817510
21639500 275 17560504188356288944
22112679 90 16298102081656756613
23175994 123 18201165343085479676
232386 152 17095520746528391970
23402539 116 18041830822622216735
23493267 7 18334010576026969616
23526113 38 18268415863375108816
23557571 272 18260276234650305268
23559900 14 18114745911281344558
23598291 2 16056883494167198853
3286 77 18201167628224326515
350125 39 17268612610483228720
43471831 8 17313098610382919979
465052 167 16444498830271640571
474 4 16701157841979816576
6049 1 18339651044169230532
63268167 104 17203600497861314704
69090 78 18343018913269066239
77492 1 15769771338430971278

>  <PUBCHEM_SHAPE_MULTIPOLES>  (1) 
336.75
6.88
1.69
1.69
0
0
0.13
0
1.62
0
0.18
0
0
2.15

>  <PUBCHEM_SHAPE_SELFOVERLAP>  (1) 
695.766

>  <PUBCHEM_SHAPE_VOLUME>  (1) 
187.3

>  <PUBCHEM_COORDINATE_TYPE>  (1) 
2
5
10

$$$$
