38042
     RDKit          3D

 13 12  0  0  0  0  0  0  0  0999 V2000
   -6.6473   -0.8991    0.0357 Cl  0  0  0  0  0  0  0  0  0  0  0  0
   -5.3100    1.3843   -0.0750 O   0  0  0  0  0  0  0  0  0  0  0  0
    1.1036   -0.4350    0.0229 C   0  0  0  0  0  0  0  0  0  0  0  0
   -0.1942    0.3746   -0.0073 C   0  0  0  0  0  0  0  0  0  0  0  0
    2.3643    0.4344    0.0544 C   0  0  0  0  0  0  0  0  0  0  0  0
   -1.4195   -0.5430   -0.0161 C   0  0  0  0  0  0  0  0  0  0  0  0
    3.6936   -0.3216    0.1707 C   0  0  0  0  0  0  0  0  0  0  0  0
   -2.7190    0.2680   -0.0092 C   0  0  0  0  0  0  0  0  0  0  0  0
    4.9451    0.5582    0.2552 C   0  0  0  0  0  0  0  0  0  0  0  0
   -3.9617   -0.6219   -0.0462 C   0  0  0  0  0  0  0  0  0  0  0  0
    6.2191   -0.2335    0.2879 C   0  0  0  0  0  0  0  0  0  0  0  0
   -5.2659    0.1586   -0.0489 C   0  0  0  0  0  0  0  0  0  0  0  0
    7.1917   -0.1240   -0.6240 C   0  0  0  0  0  0  0  0  0  0  0  0
  1 12  1  0
  2 12  2  0
  3  4  1  0
  3  5  1  0
  4  6  1  0
  5  7  1  0
  6  8  1  0
  7  9  1  0
  8 10  1  0
  9 11  1  0
 10 12  1  0
 11 13  2  0
M  END
>  <PUBCHEM_COMPOUND_CID>  (1) 
38042

>  <PUBCHEM_CONFORMER_RMSD>  (1) 
1

>  <PUBCHEM_CONFORMER_DIVERSEORDER>  (1) 
1
170
16
102
41
181
5
137
165
15
13
17
64
179
195
21
59
194
118
117
51
86
58
40
113
18
95
166
30
123
108
116
206
39
158
62
48
7
101
55
205
133
65
130
2
46
134
199
87
47
20
31
204
81
201
196
60
203
68
57
163
168
110
70
10
33
154
200
202
29
45
61
153
82
112
180
148
107
56
208
97
139
6
174
73
14
63
126
162
71
120
152
4
186
42
37
138
11
146
83
8
100
69
27
178
149
147
35
9
189
90
84
177
85
128
198
109
75
188
44
136
38
89
111
3
155
22
193
197
131
72
169
94
12
106
19
135
132
28
151
105
24
99
190
127
171
143
141
210
23
36
182
119
53
176
209
103
187
25
129
50
34
93
77
185
145
211
76
26
32
173
43
74
104
114
122
124
140
52
212
91
80
66
88
96
159
207
49
175
54
150
67
115
125
92
98
121
172
142
184
79
191
192
157
78
144
161
160
167
183
164
156

>  <PUBCHEM_MMFF94_PARTIAL_CHARGES>  (1) 
10
1 -0.21
10 0.06
11 -0.29
12 0.72
13 -0.3
2 -0.57
30 0.15
31 0.15
32 0.15
9 0.14

>  <PUBCHEM_EFFECTIVE_ROTOR_COUNT>  (1) 
9

>  <PUBCHEM_PHARMACOPHORE_FEATURES>  (1) 
1
1 13 hydrophobe

>  <PUBCHEM_HEAVY_ATOM_COUNT>  (1) 
13

>  <PUBCHEM_ATOM_DEF_STEREO_COUNT>  (1) 
0

>  <PUBCHEM_ATOM_UDEF_STEREO_COUNT>  (1) 
0

>  <PUBCHEM_BOND_DEF_STEREO_COUNT>  (1) 
0

>  <PUBCHEM_BOND_UDEF_STEREO_COUNT>  (1) 
0

>  <PUBCHEM_ISOTOPIC_ATOM_COUNT>  (1) 
0

>  <PUBCHEM_COMPONENT_COUNT>  (1) 
1

>  <PUBCHEM_CACTVS_TAUTO_COUNT>  (1) 
1

>  <PUBCHEM_CONFORMER_ID>  (1) 
0000949A00000001

>  <PUBCHEM_MMFF94_ENERGY>  (1) 
3.8828

>  <PUBCHEM_FEATURE_SELFOVERLAP>  (1) 
5.074

>  <PUBCHEM_SHAPE_FINGERPRINT>  (1) 
10968037 39 17095242527379595087
11315181 36 17313108570912770881
12091667 2 18412263939530499139
13533116 47 17677041353350033730
1420 363 17418377999640264542
14251764 18 18040433291344633627
14251764 46 18408884044380140967
17834076 25 18260547826981029562
20281389 69 18410853274195984872
20621476 8 18339927017303351788
21130983 4 16153432753401858596
220451 1 17312819381689675770
22224240 67 14996283647834287128
23035841 295 18412261744148336618
23218964 4 18273494568161526784
23402539 116 18202557397646530477
23521765 1 18341895199009544434
33684 2 18334011692270041010
3545911 37 18273214200832951214
42788 4 18411417319159967936
4463277 17 18335420175513853396
57583515 80 12535347904709166111
59755656 215 18272374144501933054
8209 1 18410573993741392238

>  <PUBCHEM_SHAPE_MULTIPOLES>  (1) 
263.53
20.64
0.92
0.66
6.65
0.1
-0.01
-1.29
-1.13
-0.93
0
0.3
-0.02
0.12

>  <PUBCHEM_SHAPE_SELFOVERLAP>  (1) 
470.595

>  <PUBCHEM_SHAPE_VOLUME>  (1) 
168.9

>  <PUBCHEM_COORDINATE_TYPE>  (1) 
2
5
10

$$$$
