38044
     RDKit          3D

 15 16  0  0  0  0  0  0  0  0999 V2000
    0.2825   -1.7717    0.0066 O   0  0  0  0  0  0  0  0  0  0  0  0
   -1.9485   -2.2479   -0.0079 O   0  0  0  0  0  0  0  0  0  0  0  0
   -2.9227    1.6428    0.0014 O   0  0  0  0  0  0  0  0  0  0  0  0
   -3.5278   -0.4749   -0.0015 O   0  0  0  0  0  0  0  0  0  0  0  0
   -0.6402    2.3637    0.0050 N   0  0  0  0  0  0  0  0  0  0  0  0
   -2.6858    0.4298   -0.0004 N   0  0  0  0  0  0  0  0  0  0  0  0
    1.0254    0.5659    0.0007 C   0  0  0  0  0  0  0  0  0  0  0  0
   -0.3910    1.0155    0.0017 C   0  0  0  0  0  0  0  0  0  0  0  0
    1.3080   -0.8049    0.0048 C   0  0  0  0  0  0  0  0  0  0  0  0
   -1.3123    0.0374   -0.0003 C   0  0  0  0  0  0  0  0  0  0  0  0
    2.1284    1.4367   -0.0061 C   0  0  0  0  0  0  0  0  0  0  0  0
    2.6129   -1.3074    0.0051 C   0  0  0  0  0  0  0  0  0  0  0  0
   -1.0541   -1.4102   -0.0017 C   0  0  0  0  0  0  0  0  0  0  0  0
    3.4416    0.9477   -0.0066 C   0  0  0  0  0  0  0  0  0  0  0  0
    3.6836   -0.4226   -0.0007 C   0  0  0  0  0  0  0  0  0  0  0  0
  1  9  1  0
  1 13  1  0
  2 13  2  0
  3  6  1  0
  4  6  2  0
  5  8  1  0
  6 10  1  0
  7  8  1  0
  7  9  2  0
  7 11  1  0
  8 10  2  0
  9 12  1  0
 10 13  1  0
 11 14  2  0
 12 15  2  0
 14 15  1  0
M  CHG  2   3  -1   6   1
M  END
>  <PUBCHEM_COMPOUND_CID>  (1) 
38044

>  <PUBCHEM_CONFORMER_RMSD>  (1) 
0.4

>  <PUBCHEM_CONFORMER_DIVERSEORDER>  (1) 
1

>  <PUBCHEM_MMFF94_PARTIAL_CHARGES>  (1) 
21
1 -0.23
10 0.22
11 -0.15
12 -0.15
13 0.71
14 -0.15
15 -0.15
16 0.15
17 0.15
18 0.15
19 0.15
2 -0.57
20 0.4
21 0.4
3 -0.52
4 -0.52
5 -0.9
6 0.84
7 0.03
8 0.07
9 0.08

>  <PUBCHEM_EFFECTIVE_ROTOR_COUNT>  (1) 
1

>  <PUBCHEM_PHARMACOPHORE_FEATURES>  (1) 
8
1 2 acceptor
1 3 acceptor
1 3 anion
1 4 acceptor
1 5 cation
1 5 donor
6 1 7 8 9 10 13 rings
6 7 9 11 12 14 15 rings

>  <PUBCHEM_HEAVY_ATOM_COUNT>  (1) 
15

>  <PUBCHEM_ATOM_DEF_STEREO_COUNT>  (1) 
0

>  <PUBCHEM_ATOM_UDEF_STEREO_COUNT>  (1) 
0

>  <PUBCHEM_BOND_DEF_STEREO_COUNT>  (1) 
0

>  <PUBCHEM_BOND_UDEF_STEREO_COUNT>  (1) 
0

>  <PUBCHEM_ISOTOPIC_ATOM_COUNT>  (1) 
0

>  <PUBCHEM_COMPONENT_COUNT>  (1) 
1

>  <PUBCHEM_CACTVS_TAUTO_COUNT>  (1) 
4

>  <PUBCHEM_CONFORMER_ID>  (1) 
0000949C00000001

>  <PUBCHEM_MMFF94_ENERGY>  (1) 
67.0921

>  <PUBCHEM_FEATURE_SELFOVERLAP>  (1) 
40.737

>  <PUBCHEM_SHAPE_FINGERPRINT>  (1) 
10411042 1 16177070789005423147
10608611 8 18412259562531816488
10967382 1 18410575076257819110
11132069 177 18412820304961432752
11471102 20 18410286982557196436
12032990 46 18410018753354721427
12382932 28 18412543249405842952
13140716 1 18410574015453774898
13221675 6 18410012113514538890
13380535 21 18411147947691267214
13380535 76 18412260618924998758
13897977 150 18340201985589218732
14144814 61 18410573963877146344
14325111 11 18410856546844785824
14790565 3 15306769604153539307
15196674 1 18410855447253822404
15442244 35 18337951161012827562
15536298 74 18342739628767348162
15775835 57 18408046203993524444
16945 1 18338798914357757126
17804303 29 18340488864077788990
17844478 74 18040160608345280253
18186145 218 18341052895782882732
193761 8 17762055845010779905
20201158 50 18413389826156969910
20510252 161 18272370836812697193
20588541 1 18413392020742657958
20871998 184 18201161052212931431
21267235 1 18410302423081014186
21501502 16 18337952389283550006
2334 1 18266459999872341866
23402539 116 18342727507778866997
23402655 69 18341883062044026061
23463225 33 18408322198502236164
23552423 10 18189054351391371590
23559900 14 18343584024144464004
2748010 2 18339643468036726766
3312278 4 18411141376449255232
335352 9 18194401082947498966
5104073 3 18410573972562059784
528886 8 18411414033742101690
53812653 166 18271803592166052480
54173680 148 18337392758965717946
69090 78 18342734135214325207
7364860 26 18343018857655842378
8809292 202 18334581256568329722
9709674 26 18341898484892030998

>  <PUBCHEM_SHAPE_MULTIPOLES>  (1) 
275.25
5.46
2.16
0.58
0.46
0.01
0
0.19
-0.01
-0.62
0
0.08
0
-0.01

>  <PUBCHEM_SHAPE_SELFOVERLAP>  (1) 
608.167

>  <PUBCHEM_SHAPE_VOLUME>  (1) 
145.9

>  <PUBCHEM_COORDINATE_TYPE>  (1) 
2
5
10

$$$$
