38050
     RDKit          3D

 20 21  0  0  1  0  0  0  0  0999 V2000
    2.8167   -0.8054   -2.0121 O   0  0  0  0  0  0  0  0  0  0  0  0
    3.5076    2.9761    0.5071 O   0  0  0  0  0  0  0  0  0  0  0  0
   -4.8788   -0.5208    1.2280 O   0  0  0  0  0  0  0  0  0  0  0  0
    3.1430    1.0533   -0.7074 N   0  0  0  0  0  0  0  0  0  0  0  0
   -3.8081    0.4982   -0.6088 N   0  0  0  0  0  0  0  0  0  0  0  0
    1.7090   -0.7875    0.1532 C   0  0  0  0  0  0  0  0  0  0  0  0
    2.2469   -0.2751    1.5083 C   0  0  0  0  0  0  0  0  0  0  0  0
    1.8635   -2.3258    0.1160 C   0  0  0  0  0  0  0  0  0  0  0  0
    0.2237   -0.4400   -0.0510 C   0  0  0  0  0  0  0  0  0  0  0  0
    2.2449    1.2447    1.5675 C   0  0  0  0  0  0  0  0  0  0  0  0
    2.6120   -0.2130   -0.9507 C   0  0  0  0  0  0  0  0  0  0  0  0
    3.0339    1.8427    0.4313 C   0  0  0  0  0  0  0  0  0  0  0  0
    3.3030   -2.7367    0.3444 C   0  0  0  0  0  0  0  0  0  0  0  0
   -0.1616    0.3198   -1.1505 C   0  0  0  0  0  0  0  0  0  0  0  0
   -0.7219   -0.8902    0.8641 C   0  0  0  0  0  0  0  0  0  0  0  0
   -1.5081    0.6331   -1.3367 C   0  0  0  0  0  0  0  0  0  0  0  0
   -2.0684   -0.5770    0.6778 C   0  0  0  0  0  0  0  0  0  0  0  0
   -2.4613    0.1847   -0.4226 C   0  0  0  0  0  0  0  0  0  0  0  0
   -4.8988    0.1404    0.1948 C   0  0  0  0  0  0  0  0  0  0  0  0
   -6.1970    0.6783   -0.3527 C   0  0  0  0  0  0  0  0  0  0  0  0
  1 11  2  0
  2 12  2  0
  3 19  2  0
  4 11  1  0
  4 12  1  0
  5 18  1  0
  5 19  1  0
  6  7  1  0
  6  8  1  0
  6  9  1  0
  6 11  1  0
  7 10  1  0
  8 13  1  0
  9 14  2  0
  9 15  1  0
 10 12  1  0
 14 16  1  0
 15 17  2  0
 16 18  2  0
 17 18  1  0
 19 20  1  0
M  END
>  <PUBCHEM_COMPOUND_CID>  (1) 
38050

>  <PUBCHEM_CONFORMER_RMSD>  (1) 
0.6

>  <PUBCHEM_CONFORMER_DIVERSEORDER>  (1) 
4
5
13
7
11
19
9
1
18
17
14
2
8
6
3
10
12
15
16

>  <PUBCHEM_MMFF94_PARTIAL_CHARGES>  (1) 
23
1 -0.57
10 0.06
11 0.57
12 0.57
14 -0.15
15 -0.15
16 -0.15
17 -0.15
18 0.12
19 0.57
2 -0.57
20 0.06
27 0.37
3 -0.57
31 0.15
32 0.15
33 0.15
34 0.15
35 0.37
4 -0.49
5 -0.55
6 0.2
9 -0.14

>  <PUBCHEM_EFFECTIVE_ROTOR_COUNT>  (1) 
4.8

>  <PUBCHEM_PHARMACOPHORE_FEATURES>  (1) 
8
1 1 acceptor
1 13 hydrophobe
1 2 acceptor
1 3 acceptor
1 4 donor
1 5 donor
6 4 6 7 10 11 12 rings
6 9 14 15 16 17 18 rings

>  <PUBCHEM_HEAVY_ATOM_COUNT>  (1) 
20

>  <PUBCHEM_ATOM_DEF_STEREO_COUNT>  (1) 
0

>  <PUBCHEM_ATOM_UDEF_STEREO_COUNT>  (1) 
1

>  <PUBCHEM_BOND_DEF_STEREO_COUNT>  (1) 
0

>  <PUBCHEM_BOND_UDEF_STEREO_COUNT>  (1) 
0

>  <PUBCHEM_ISOTOPIC_ATOM_COUNT>  (1) 
0

>  <PUBCHEM_COMPONENT_COUNT>  (1) 
1

>  <PUBCHEM_CACTVS_TAUTO_COUNT>  (1) 
6

>  <PUBCHEM_CONFORMER_ID>  (1) 
000094A200000004

>  <PUBCHEM_MMFF94_ENERGY>  (1) 
62.347

>  <PUBCHEM_FEATURE_SELFOVERLAP>  (1) 
40.596

>  <PUBCHEM_SHAPE_FINGERPRINT>  (1) 
10165383 225 18335427919387478060
11132069 177 17385723604313399267
12730499 353 18338244854728240915
13134695 92 18121480381304575246
13224815 77 17312820464121433287
13533116 47 18335703789621557019
13675066 3 18040435482516263815
13955234 65 18409729547537267658
14022347 108 16226056543855785343
14115302 16 15770059432358454398
14170010 4 18411974733523206114
14178342 30 17896883368246904315
14252887 29 17894638049775693009
14289901 80 18342450448624622443
16945 1 18412266125726985522
17844677 252 18341616980414817633
1813 80 17558560110544794454
18186145 218 18059852844629856447
18785283 64 18334006220956472824
19078846 21 17915747465858287416
20369508 70 18339079285559865622
20645476 183 16128087970435449749
20645477 70 18059860553816760047
21452121 103 18334005090773529344
21503847 285 18130517344418881481
21618674 25 18335135444582466017
2255824 54 18201719531321714206
23557571 272 17532103837291420059
23559900 14 17749114357140015583
25 1 17844815974176532480
3060560 45 17917999360520202902
31174 14 18337101281215487534
312423 11 17845946134426812161
3286 77 18264204716660883551
34797466 226 18202569505929588133
4072396 5 16008735915048129041
427121 178 17967809496427051288
474 4 18270115854423132985
495365 180 18412819192248651907
5104073 3 18186805756108573705
5281201 14 17846505785808874757
5374978 207 15574711392006372653
6049 1 17969211244528835621
633830 44 18131355176958868119
6442390 28 18193280912617069986
7364860 26 18408880707813200122
7495541 125 18261676978294588658
77188 2 18123183499357309418
8272917 22 18343863307580142738
90127 26 18343311340660028641
9999458 23 18409164437758192942

>  <PUBCHEM_SHAPE_MULTIPOLES>  (1) 
384.02
9.66
2.14
1.42
17.01
0.06
0.13
1.7
-0.61
-3.79
-0.43
-0.66
0.1
0.88

>  <PUBCHEM_SHAPE_SELFOVERLAP>  (1) 
812.504

>  <PUBCHEM_SHAPE_VOLUME>  (1) 
212.4

>  <PUBCHEM_COORDINATE_TYPE>  (1) 
2
5
10

$$$$
