38053
     RDKit          3D

 24 27  0  0  0  0  0  0  0  0999 V2000
   -3.1127   -1.6364   -0.3364 O   0  0  0  0  0  0  0  0  0  0  0  0
    4.6362   -1.0869    0.0139 O   0  0  0  0  0  0  0  0  0  0  0  0
   -5.7948    0.7735    0.3954 N   0  0  0  0  0  0  0  0  0  0  0  0
    2.4344   -1.7406    0.0424 N   0  0  0  0  0  0  0  0  0  0  0  0
    3.0948    0.5717    0.1122 N   0  0  0  0  0  0  0  0  0  0  0  0
   -7.1219    0.6734    1.0019 C   0  0  0  0  0  0  0  0  0  0  0  0
   -6.0222    1.3743   -0.9187 C   0  0  0  0  0  0  0  0  0  0  0  0
   -7.7627    2.0053    0.6403 C   0  0  0  0  0  0  0  0  0  0  0  0
   -7.0424    2.4641   -0.6239 C   0  0  0  0  0  0  0  0  0  0  0  0
   -5.1250   -0.5156    0.3086 C   0  0  0  0  0  0  0  0  0  0  0  0
   -3.7348   -0.3591   -0.2865 C   0  0  0  0  0  0  0  0  0  0  0  0
   -1.7456   -1.6620   -0.2431 C   0  0  0  0  0  0  0  0  0  0  0  0
   -1.1155   -2.7618    0.3275 C   0  0  0  0  0  0  0  0  0  0  0  0
   -1.0034   -0.5878   -0.7200 C   0  0  0  0  0  0  0  0  0  0  0  0
    1.0276   -1.7138   -0.0536 C   0  0  0  0  0  0  0  0  0  0  0  0
    0.2760   -2.7878    0.4227 C   0  0  0  0  0  0  0  0  0  0  0  0
    0.3879   -0.6137   -0.6249 C   0  0  0  0  0  0  0  0  0  0  0  0
    3.3347   -0.7099    0.0591 C   0  0  0  0  0  0  0  0  0  0  0  0
    5.3019    0.1050    0.0430 C   0  0  0  0  0  0  0  0  0  0  0  0
    4.3557    1.1174    0.1030 C   0  0  0  0  0  0  0  0  0  0  0  0
    6.6763    0.3064    0.0182 C   0  0  0  0  0  0  0  0  0  0  0  0
    4.7905    2.4499    0.1422 C   0  0  0  0  0  0  0  0  0  0  0  0
    7.0936    1.6411    0.0580 C   0  0  0  0  0  0  0  0  0  0  0  0
    6.1715    2.6932    0.1187 C   0  0  0  0  0  0  0  0  0  0  0  0
  1 11  1  0
  1 12  1  0
  2 18  1  0
  2 19  1  0
  3  6  1  0
  3  7  1  0
  3 10  1  0
  4 15  1  0
  4 18  1  0
  5 18  2  0
  5 20  1  0
  6  8  1  0
  7  9  1  0
  8  9  1  0
 10 11  1  0
 12 13  2  0
 12 14  1  0
 13 16  1  0
 14 17  2  0
 15 16  2  0
 15 17  1  0
 19 20  2  0
 19 21  1  0
 20 22  1  0
 21 23  2  0
 22 24  2  0
 23 24  1  0
M  END
>  <PUBCHEM_COMPOUND_CID>  (1) 
38053

>  <PUBCHEM_CONFORMER_RMSD>  (1) 
0.8

>  <PUBCHEM_CONFORMER_DIVERSEORDER>  (1) 
1
95
160
107
53
11
14
126
129
51
106
159
2
46
163
75
145
94
100
108
143
144
50
110
73
112
20
41
135
33
118
64
55
120
8
69
157
137
60
156
97
24
58
136
87
91
96
132
22
117
34
140
70
150
39
56
88
47
84
98
38
131
162
82
79
16
90
161
62
49
153
30
18
63
102
149
32
105
21
152
61
133
154
147
15
93
99
54
42
155
146
31
109
141
25
83
36
142
67
37
52
48
27
40
68
115
59
9
130
119
125
45
4
151
123
81
23
66
29
138
71
92
35
89
104
158
101
111
77
44
121
124
28
76
7
13
3
134
86
128
113
10
57
43
122
65
139
5
103
12
85
127
80
19
6
78
74
116
114
26
148
17
72

>  <PUBCHEM_MMFF94_PARTIAL_CHARGES>  (1) 
31
1 -0.36
10 0.27
11 0.28
12 0.08
13 -0.15
14 -0.15
15 0.1
16 -0.15
17 -0.15
18 0.56
19 0.14
2 -0.28
20 0.23
21 -0.15
22 -0.15
23 -0.15
24 -0.15
3 -0.81
37 0.15
38 0.15
39 0.15
4 -0.58
40 0.15
41 0.4
42 0.15
43 0.15
44 0.15
45 0.15
5 -0.57
6 0.27
7 0.27

>  <PUBCHEM_EFFECTIVE_ROTOR_COUNT>  (1) 
7

>  <PUBCHEM_PHARMACOPHORE_FEATURES>  (1) 
8
1 1 acceptor
1 3 cation
1 4 donor
3 4 5 18 cation
5 2 5 18 19 20 rings
5 3 6 7 8 9 rings
6 12 13 14 15 16 17 rings
6 19 20 21 22 23 24 rings

>  <PUBCHEM_HEAVY_ATOM_COUNT>  (1) 
24

>  <PUBCHEM_ATOM_DEF_STEREO_COUNT>  (1) 
0

>  <PUBCHEM_ATOM_UDEF_STEREO_COUNT>  (1) 
0

>  <PUBCHEM_BOND_DEF_STEREO_COUNT>  (1) 
0

>  <PUBCHEM_BOND_UDEF_STEREO_COUNT>  (1) 
0

>  <PUBCHEM_ISOTOPIC_ATOM_COUNT>  (1) 
0

>  <PUBCHEM_COMPONENT_COUNT>  (1) 
1

>  <PUBCHEM_CACTVS_TAUTO_COUNT>  (1) 
2

>  <PUBCHEM_CONFORMER_ID>  (1) 
000094A500000001

>  <PUBCHEM_MMFF94_ENERGY>  (1) 
62.6971

>  <PUBCHEM_FEATURE_SELFOVERLAP>  (1) 
40.716

>  <PUBCHEM_SHAPE_FINGERPRINT>  (1) 
10 15 18113339700449524643
10006869 2 18265322928549704222
10050765 1 18410855460461815863
10280341 67 18128242592902087672
10554248 39 17560803177951326486
10693767 8 9727628380649318541
11135609 99 8790880787938382752
11410812 94 14764079913199492002
11963148 33 9295020041717491864
13167372 99 18411698794643002848
13248334 5 18123189000509899751
13668630 136 10303813172650384881
14020679 6 17168146801015776833
14202776 33 17916297424332756639
14394314 77 18341336609356284097
14565420 104 18114180809106443491
14617042 71 18270688563750539649
14931854 50 17846787290655249536
15419008 145 18116140087799209456
15475509 35 15937245569941641434
15519825 34 16154001256827167633
1577012 14 18412821395577554006
15778101 99 18411702122831739735
15840311 113 18337958892169887773
16087824 20 18410857651337852220
16989713 51 17130697470357345415
1768 4 18342748420956021313
18335252 114 18131628959359235228
20058555 10 18410855417886117625
2026 5 9007056855998092593
20281389 69 18334576828498907575
20398071 356 8935001495047103085
20526848 3 18341896290237186305
20621476 66 18410857684947601420
20691028 202 18339077197963257504
20715895 44 18411982481585958192
21033648 29 18340195414785089464
21095123 293 17895201034506364540
21298829 104 18411138047734127965
21424621 283 18334858324792563235
21585482 111 18263645065828700845
22224240 67 18040998445270645843
22288116 15 17131822210479754991
23524908 199 17632304415712309894
24771293 8 18334576879664125429
270888 7 18411698798658583611
2748736 6 18411409614426677225
2838139 119 18342733048560959397
312425 54 16950282914284099811
3472631 163 18272090508597386439
3627633 1 17762337320468818223
406291 66 8286196141837830121
4073 2 18187087307772963130
4169191 19 18411417281397247549
465052 167 10737287935182626226
504843 32 17846497075990265599
5104073 3 15792595091395695527
5385378 56 18187079525603394050
5470011 282 12247670595806913321
5718773 13 9439413419066478284
5911458 16 17988932133026105249
59682541 35 18113628885288268273
59682541 52 17060070203016940166
6327066 14 18413105052998836599
6328613 192 18343584040717925273
636775 72 18196366151130313592
6697151 62 17031878549036049747
7970288 3 9223228542488390633
9689198 14 18333736814273303129
999808 66 10807928302478823309

>  <PUBCHEM_SHAPE_MULTIPOLES>  (1) 
467.23
23.38
3.16
0.79
15.65
0.03
-0.01
-23.7
2.45
0
0.17
0.89
-0.11
0.25

>  <PUBCHEM_SHAPE_SELFOVERLAP>  (1) 
1015.987

>  <PUBCHEM_SHAPE_VOLUME>  (1) 
257.2

>  <PUBCHEM_COORDINATE_TYPE>  (1) 
2
5
10

$$$$
