38073
     RDKit          3D

 12 11  0  0  0  0  0  0  0  0999 V2000
   -1.8818    0.3411    0.0010 N   0  0  0  0  0  0  0  0  0  0  0  0
    6.8528   -0.2814    0.0114 N   0  0  0  0  0  0  0  0  0  0  0  0
    1.8467   -0.4359   -0.0122 C   0  0  0  0  0  0  0  0  0  0  0  0
    0.5684    0.4066   -0.0132 C   0  0  0  0  0  0  0  0  0  0  0  0
    3.0945    0.4503   -0.0127 C   0  0  0  0  0  0  0  0  0  0  0  0
   -0.6762   -0.4787    0.0234 C   0  0  0  0  0  0  0  0  0  0  0  0
    4.4045   -0.3434   -0.0427 C   0  0  0  0  0  0  0  0  0  0  0  0
   -3.0764   -0.4910    0.0251 C   0  0  0  0  0  0  0  0  0  0  0  0
   -4.3309    0.3804   -0.0080 C   0  0  0  0  0  0  0  0  0  0  0  0
    5.6481    0.5416    0.0350 C   0  0  0  0  0  0  0  0  0  0  0  0
   -5.5982   -0.4751   -0.0050 C   0  0  0  0  0  0  0  0  0  0  0  0
   -6.8516    0.3856   -0.0020 C   0  0  0  0  0  0  0  0  0  0  0  0
  1  6  1  0
  1  8  1  0
  2 10  1  0
  3  4  1  0
  3  5  1  0
  4  6  1  0
  5  7  1  0
  7 10  1  0
  8  9  1  0
  9 11  1  0
 11 12  1  0
M  END
>  <PUBCHEM_COMPOUND_CID>  (1) 
38073

>  <PUBCHEM_CONFORMER_RMSD>  (1) 
0.8

>  <PUBCHEM_CONFORMER_DIVERSEORDER>  (1) 
1
336
188
366
376
129
250
161
95
223
211
131
359
308
7
201
304
370
355
115
88
369
137
258
329
3
114
219
18
384
230
116
280
377
375
323
371
262
231
300
54
6
246
106
221
4
166
365
134
349
285
81
317
85
234
350
173
385
78
382
290
253
15
314
39
383
284
343
312
46
105
333
387
241
38
295
291
79
279
176
305
2
247
338
147
274
192
381
226
65
248
327
242
324
174
325
111
144
77
31
122
251
113
179
270
145
364
139
334
293
357
8
275
12
346
93
335
193
40
337
80
217
360
344
178
162
271
42
266
44
73
206
177
153
313
239
55
9
72
84
255
103
28
130
289
99
345
298
205
309
36
368
20
278
265
261
117
74
109
358
339
388
43
112
62
19
185
170
25
196
379
151
100
108
224
22
149
216
283
352
157
204
386
348
90
287
189
49
297
277
195
257
27
146
143
57
59
243
340
51
240
272
102
33
186
159
164
282
273
342
267
97
330
232
94
136
233
347
252
160
263
68
367
150
75
168
167
82
311
37
238
45
190
321
269
5
184
319
127
225
26
123
156
182
374
331
70
199
124
13
229
91
21
307
32
135
249
332
372
128
302
286
30
306
11
140
227
356
281
14
301
98
256
50
67
326
87
228
48
24
259
119
96
288
60
222
64
66
41
110
169
132
322
10
198
378
104
53
254
142
148
310
118
373
154
210
152
23
86
292
107
245
83
172
200
125
237
34
361
354
214
268
362
315
101
171
208
215
180
52
183
353
294
264
17
89
235
303
16
158
218
341
63
194
181
207
191
47
155
141
61
197
92
187
363
29
260
133
212
165
318
71
121
203
120
138
202
328
316
69
220
35
380
56
175
126
320
76
299
351
276
296
58
236
163
209
244
213

>  <PUBCHEM_MMFF94_PARTIAL_CHARGES>  (1) 
8
1 -0.9
10 0.27
2 -0.99
25 0.36
35 0.36
36 0.36
6 0.27
8 0.27

>  <PUBCHEM_EFFECTIVE_ROTOR_COUNT>  (1) 
9

>  <PUBCHEM_PHARMACOPHORE_FEATURES>  (1) 
6
1 1 cation
1 1 donor
1 12 hydrophobe
1 2 cation
1 2 donor
4 3 4 5 7 hydrophobe

>  <PUBCHEM_HEAVY_ATOM_COUNT>  (1) 
12

>  <PUBCHEM_ATOM_DEF_STEREO_COUNT>  (1) 
0

>  <PUBCHEM_ATOM_UDEF_STEREO_COUNT>  (1) 
0

>  <PUBCHEM_BOND_DEF_STEREO_COUNT>  (1) 
0

>  <PUBCHEM_BOND_UDEF_STEREO_COUNT>  (1) 
0

>  <PUBCHEM_ISOTOPIC_ATOM_COUNT>  (1) 
0

>  <PUBCHEM_COMPONENT_COUNT>  (1) 
1

>  <PUBCHEM_CACTVS_TAUTO_COUNT>  (1) 
1

>  <PUBCHEM_CONFORMER_ID>  (1) 
000094B900000001

>  <PUBCHEM_MMFF94_ENERGY>  (1) 
-10.4814

>  <PUBCHEM_FEATURE_SELFOVERLAP>  (1) 
30.446

>  <PUBCHEM_SHAPE_FINGERPRINT>  (1) 
12091667 2 18408041815117157651
13533116 47 17313092022150481728
14123238 8 18410575084663078919
1420 363 18260553324481217691
14251764 46 17275103929443582214
17834076 25 18410573989446424931
187816 3 15626225723412195279
20281389 69 18259701203254898204
20621476 8 18334013852633218869
20645477 70 18129666287922380502
20767249 213 18410575101842961101
21130983 4 18113340825187949036
23402539 116 18130783481950943877
23521765 1 18341895194640646149
33684 2 18411135831308911355
42788 4 18410856564198578916
8209 1 18410855460133443053

>  <PUBCHEM_SHAPE_MULTIPOLES>  (1) 
236.99
18.81
0.79
0.6
0.22
0
0
-0.9
0.04
0.05
0
0.03
0
0.02

>  <PUBCHEM_SHAPE_SELFOVERLAP>  (1) 
416.983

>  <PUBCHEM_SHAPE_VOLUME>  (1) 
153.6

>  <PUBCHEM_COORDINATE_TYPE>  (1) 
2
5
10

$$$$
