38082
     RDKit          3D

 13 14  0  0  0  0  0  0  0  0999 V2000
    1.2723    1.8577   -0.3179 O   0  0  0  0  0  0  0  0  0  0  0  0
    1.8348   -0.2717    0.4019 N   0  0  0  0  0  0  0  0  0  0  0  0
   -4.5481   -0.7358   -0.0358 N   0  0  0  0  0  0  0  0  0  0  0  0
    3.2545   -0.0552    0.4426 C   0  0  0  0  0  0  0  0  0  0  0  0
    4.0854   -0.2066   -0.7893 C   0  0  0  0  0  0  0  0  0  0  0  0
    4.2036   -1.2027    0.3268 C   0  0  0  0  0  0  0  0  0  0  0  0
    0.9173    0.7139    0.0181 C   0  0  0  0  0  0  0  0  0  0  0  0
   -0.4885    0.3409    0.0055 C   0  0  0  0  0  0  0  0  0  0  0  0
   -1.4698    1.3140    0.1942 C   0  0  0  0  0  0  0  0  0  0  0  0
   -0.8552   -0.9897   -0.1965 C   0  0  0  0  0  0  0  0  0  0  0  0
   -2.8181    0.9564    0.1811 C   0  0  0  0  0  0  0  0  0  0  0  0
   -2.2035   -1.3471   -0.2097 C   0  0  0  0  0  0  0  0  0  0  0  0
   -3.1848   -0.3741   -0.0209 C   0  0  0  0  0  0  0  0  0  0  0  0
  1  7  2  0
  2  4  1  0
  2  7  1  0
  3 13  1  0
  4  5  1  0
  4  6  1  0
  5  6  1  0
  7  8  1  0
  8  9  2  0
  8 10  1  0
  9 11  1  0
 10 12  2  0
 11 13  2  0
 12 13  1  0
M  END
>  <PUBCHEM_COMPOUND_CID>  (1) 
38082

>  <PUBCHEM_CONFORMER_RMSD>  (1) 
0.6

>  <PUBCHEM_CONFORMER_DIVERSEORDER>  (1) 
1
2
3

>  <PUBCHEM_MMFF94_PARTIAL_CHARGES>  (1) 
25
1 -0.57
10 -0.15
11 -0.15
12 -0.15
13 0.1
14 0.1
15 0.1
16 0.1
17 0.1
18 0.1
19 0.37
2 -0.58
20 0.15
21 0.15
22 0.15
23 0.15
24 0.4
25 0.4
3 -0.9
4 0.05
5 -0.2
6 -0.2
7 0.54
8 0.09
9 -0.15

>  <PUBCHEM_EFFECTIVE_ROTOR_COUNT>  (1) 
3.6

>  <PUBCHEM_PHARMACOPHORE_FEATURES>  (1) 
5
1 1 acceptor
1 2 donor
1 3 cation
1 3 donor
6 8 9 10 11 12 13 rings

>  <PUBCHEM_HEAVY_ATOM_COUNT>  (1) 
13

>  <PUBCHEM_ATOM_DEF_STEREO_COUNT>  (1) 
0

>  <PUBCHEM_ATOM_UDEF_STEREO_COUNT>  (1) 
0

>  <PUBCHEM_BOND_DEF_STEREO_COUNT>  (1) 
0

>  <PUBCHEM_BOND_UDEF_STEREO_COUNT>  (1) 
0

>  <PUBCHEM_ISOTOPIC_ATOM_COUNT>  (1) 
0

>  <PUBCHEM_COMPONENT_COUNT>  (1) 
1

>  <PUBCHEM_CACTVS_TAUTO_COUNT>  (1) 
3

>  <PUBCHEM_CONFORMER_ID>  (1) 
000094C200000001

>  <PUBCHEM_MMFF94_ENERGY>  (1) 
43.8055

>  <PUBCHEM_FEATURE_SELFOVERLAP>  (1) 
25.371

>  <PUBCHEM_SHAPE_FINGERPRINT>  (1) 
10465860 71 18339099132888311180
10751810 167 18260555510777709974
11543360 7 15864078709956339914
12032990 46 18411983559058266507
13690532 89 18410009935908065067
14115302 16 17676778650879028446
14144814 61 18410008819205934354
14252887 29 17917435306992333374
14993402 34 18260829293278076470
15375462 189 18114463366509234488
15536298 74 18341611576876558304
17804303 29 18272371966320251072
19422 9 18261115136669082778
1986462 14 18412263900163637068
200 152 18060409227768056493
21267235 1 18410582777224182954
22485316 2 18409444770073233474
23402539 116 17846490427464487469
23463225 33 18337107865637962846
23559900 14 18201432559187525104
42 15 18201721755829637995
43471831 8 18337106744282707891
449060 50 17489296530182001600
5104073 3 18412826893087935192
7364860 26 18198623431206022416

>  <PUBCHEM_SHAPE_MULTIPOLES>  (1) 
251.7
8.06
1.46
0.7
3.16
0.24
-0.03
-2.66
-0.11
-0.32
-0.05
0.32
-0.01
-0.28

>  <PUBCHEM_SHAPE_SELFOVERLAP>  (1) 
526.842

>  <PUBCHEM_SHAPE_VOLUME>  (1) 
143.2

>  <PUBCHEM_COORDINATE_TYPE>  (1) 
2
5
10

$$$$
