38081
     RDKit          3D

 21 22  0  0  0  0  0  0  0  0999 V2000
   -5.2815    0.2569    0.0933 F   0  0  0  0  0  0  0  0  0  0  0  0
   -4.2673   -0.4495   -1.6890 F   0  0  0  0  0  0  0  0  0  0  0  0
   -4.2975   -1.6822    0.1021 F   0  0  0  0  0  0  0  0  0  0  0  0
    4.1886   -2.5026    0.1515 O   0  0  0  0  0  0  0  0  0  0  0  0
    2.1950   -2.2275    1.2081 O   0  0  0  0  0  0  0  0  0  0  0  0
    0.7885   -0.2336   -0.0717 N   0  0  0  0  0  0  0  0  0  0  0  0
    2.0997    1.6358   -0.7085 N   0  0  0  0  0  0  0  0  0  0  0  0
   -1.6489   -0.3063   -0.1956 C   0  0  0  0  0  0  0  0  0  0  0  0
   -0.4775    0.2987    0.2594 C   0  0  0  0  0  0  0  0  0  0  0  0
   -2.8898    0.2335    0.1431 C   0  0  0  0  0  0  0  0  0  0  0  0
   -0.5467    1.4435    1.0532 C   0  0  0  0  0  0  0  0  0  0  0  0
   -2.9590    1.3783    0.9370 C   0  0  0  0  0  0  0  0  0  0  0  0
   -1.5792   -1.5355   -1.0464 C   0  0  0  0  0  0  0  0  0  0  0  0
   -1.7875    1.9833    1.3921 C   0  0  0  0  0  0  0  0  0  0  0  0
    2.0518    0.3585   -0.2534 C   0  0  0  0  0  0  0  0  0  0  0  0
   -4.1594   -0.3956   -0.3293 C   0  0  0  0  0  0  0  0  0  0  0  0
    3.1868   -0.3892    0.0415 C   0  0  0  0  0  0  0  0  0  0  0  0
    4.4316    0.2034   -0.1395 C   0  0  0  0  0  0  0  0  0  0  0  0
    4.5118    1.5113   -0.6046 C   0  0  0  0  0  0  0  0  0  0  0  0
    3.3272    2.1783   -0.8722 C   0  0  0  0  0  0  0  0  0  0  0  0
    3.1133   -1.7596    0.5290 C   0  0  0  0  0  0  0  0  0  0  0  0
  1 16  1  0
  2 16  1  0
  3 16  1  0
  4 21  1  0
  5 21  2  0
  6  9  1  0
  6 15  1  0
  7 15  2  0
  7 20  1  0
  8  9  2  0
  8 10  1  0
  8 13  1  0
  9 11  1  0
 10 12  2  0
 10 16  1  0
 11 14  2  0
 12 14  1  0
 15 17  1  0
 17 18  2  0
 17 21  1  0
 18 19  1  0
 19 20  2  0
M  END
>  <PUBCHEM_COMPOUND_CID>  (1) 
38081

>  <PUBCHEM_CONFORMER_RMSD>  (1) 
0.6

>  <PUBCHEM_CONFORMER_DIVERSEORDER>  (1) 
2
14
21
15
17
20
24
16
19
18
3
13
4
12
22
10
11
23
5
8
6
9
7
1

>  <PUBCHEM_MMFF94_PARTIAL_CHARGES>  (1) 
29
1 -0.34
10 -0.14
11 -0.15
12 -0.15
13 0.14
14 -0.15
15 0.41
16 1.16
17 0.09
18 -0.15
19 -0.15
2 -0.34
20 0.16
21 0.63
22 0.4
23 0.15
24 0.15
28 0.15
29 0.15
3 -0.34
30 0.15
31 0.15
32 0.5
4 -0.65
5 -0.57
6 -0.6
7 -0.62
8 -0.14
9 0.1

>  <PUBCHEM_EFFECTIVE_ROTOR_COUNT>  (1) 
4

>  <PUBCHEM_PHARMACOPHORE_FEATURES>  (1) 
8
1 4 acceptor
1 5 acceptor
1 6 cation
1 6 donor
1 7 acceptor
3 4 5 21 anion
6 7 15 17 18 19 20 rings
6 8 9 10 11 12 14 rings

>  <PUBCHEM_HEAVY_ATOM_COUNT>  (1) 
21

>  <PUBCHEM_ATOM_DEF_STEREO_COUNT>  (1) 
0

>  <PUBCHEM_ATOM_UDEF_STEREO_COUNT>  (1) 
0

>  <PUBCHEM_BOND_DEF_STEREO_COUNT>  (1) 
0

>  <PUBCHEM_BOND_UDEF_STEREO_COUNT>  (1) 
0

>  <PUBCHEM_ISOTOPIC_ATOM_COUNT>  (1) 
0

>  <PUBCHEM_COMPONENT_COUNT>  (1) 
1

>  <PUBCHEM_CACTVS_TAUTO_COUNT>  (1) 
3

>  <PUBCHEM_CONFORMER_ID>  (1) 
000094C100000002

>  <PUBCHEM_MMFF94_ENERGY>  (1) 
71.8878

>  <PUBCHEM_FEATURE_SELFOVERLAP>  (1) 
40.653

>  <PUBCHEM_SHAPE_FINGERPRINT>  (1) 
10062212 137 18273211963745586857
10616163 171 18270967945869920902
10759866 29 18411142480171422022
10906281 52 17988375771873697281
11370993 70 17822291335424148194
11578080 2 18125410108534423144
12107183 9 17834400016473154936
12236239 1 18341896298821917612
12553582 1 17774999141717287271
12670546 56 18272651234010968528
12788726 201 17918003745739931809
12916754 54 18334858277415696621
13009979 54 17985549949243292522
13167823 11 18411983537683799715
13533116 47 18410856546897553059
13760787 5 18412260628020965303
14251739 40 18261114062594969172
14251757 17 17459446902068669341
15375358 24 16081088203428876608
15442244 35 18266745671422458464
15669948 3 17989486337781883740
16752209 62 17917707976979839801
17349148 13 18060134310578678999
17492 89 18341619165714907990
1813 80 18119818998039939030
18186145 218 17022906726719167401
18681886 176 17988925596180358068
19422 9 18340772550408756386
200 152 18411982476800601289
20279233 1 16298390162541159744
20511986 3 18270949211159155132
20645477 70 18113898252003234202
20715895 44 17908140980494911993
21267235 1 18341060652852515342
2255824 54 18334021566864123590
22646028 28 18342457006512325010
23402539 116 17846497049898071029
23557571 272 16415490315336318345
23559900 14 18409726266345569226
23598288 3 18130503033809247909
23598291 2 18338807689123713888
3004659 81 18411698759835072990
312423 11 18341907250872328434
33824 294 18186801396584846682
34934 24 18058445568377700060
4340502 62 17821734965824711731
474 4 18187933949354326532
5104073 3 18272374131099729194
57096353 35 18341899618636660180
602551 16 16343695577712770446
603831 33 18343580767499048020
67856867 119 18411414034174917344
7164475 11 18341049605985899732
7615 1 18341337686611690960
8272917 22 18333734611187331654
9709674 26 18335993003596812490

>  <PUBCHEM_SHAPE_MULTIPOLES>  (1) 
388.65
10.1
2.34
1.11
2.3
0.4
-0.02
1.1
-1.61
-1.79
0.39
0.38
-0.11
-1.98

>  <PUBCHEM_SHAPE_SELFOVERLAP>  (1) 
843.301

>  <PUBCHEM_SHAPE_VOLUME>  (1) 
212.6

>  <PUBCHEM_COORDINATE_TYPE>  (1) 
2
5
10

$$$$
