3809
     RDKit          3D

 19 19  0  0  0  0  0  0  0  0999 V2000
   -0.2968    2.3157    1.2757 O   0  0  0  0  0  0  0  0  0  0  0  0
   -5.8212   -0.8441   -0.5914 O   0  0  0  0  0  0  0  0  0  0  0  0
   -5.0673   -2.5353    1.3799 O   0  0  0  0  0  0  0  0  0  0  0  0
   -0.9693    1.4653   -0.7751 N   0  0  0  0  0  0  0  0  0  0  0  0
    4.8341   -1.1360   -0.1472 N   0  0  0  0  0  0  0  0  0  0  0  0
   -4.1372   -1.7141    0.7292 N   0  0  0  0  0  0  0  0  0  0  0  0
   -3.3531    1.2810   -0.1898 C   0  0  0  0  0  0  0  0  0  0  0  0
   -2.2476    2.1197   -0.8216 C   0  0  0  0  0  0  0  0  0  0  0  0
   -3.5522   -0.0590   -0.8985 C   0  0  0  0  0  0  0  0  0  0  0  0
    1.2079    0.8962    0.1715 C   0  0  0  0  0  0  0  0  0  0  0  0
    3.6075   -0.4478   -0.0401 C   0  0  0  0  0  0  0  0  0  0  0  0
   -0.0848    1.6193    0.2865 C   0  0  0  0  0  0  0  0  0  0  0  0
    2.3123    1.3972    0.8292 C   0  0  0  0  0  0  0  0  0  0  0  0
    1.2626   -0.2540   -0.5883 C   0  0  0  0  0  0  0  0  0  0  0  0
    3.5256    0.7176    0.7221 C   0  0  0  0  0  0  0  0  0  0  0  0
    2.4761   -0.9335   -0.6952 C   0  0  0  0  0  0  0  0  0  0  0  0
   -4.6412   -0.8981   -0.2551 C   0  0  0  0  0  0  0  0  0  0  0  0
    4.8555   -2.5748   -0.3208 C   0  0  0  0  0  0  0  0  0  0  0  0
    6.0891   -0.4152   -0.0710 C   0  0  0  0  0  0  0  0  0  0  0  0
  1 12  2  0
  2 17  2  0
  3  6  1  0
  4  8  1  0
  4 12  1  0
  5 11  1  0
  5 18  1  0
  5 19  1  0
  6 17  1  0
  7  8  1  0
  7  9  1  0
  9 17  1  0
 10 12  1  0
 10 13  2  0
 10 14  1  0
 11 15  2  0
 11 16  1  0
 13 15  1  0
 14 16  2  0
M  END
>  <PUBCHEM_COMPOUND_CID>  (1) 
3809

>  <PUBCHEM_CONFORMER_RMSD>  (1) 
0.8

>  <PUBCHEM_CONFORMER_DIVERSEORDER>  (1) 
1
19
41
24
15
38
28
22
18
31
43
47
5
40
35
29
34
17
39
52
8
37
48
36
50
27
26
51
42
7
30
49
44
32
13
46
12
33
25
10
45
14
3
11
9
4
20
16
6
21
23
2

>  <PUBCHEM_MMFF94_PARTIAL_CHARGES>  (1) 
25
1 -0.57
10 0.09
11 0.1
12 0.54
13 -0.15
14 -0.15
15 -0.15
16 -0.15
17 0.57
18 0.37
19 0.37
2 -0.57
26 0.37
27 0.15
28 0.15
29 0.15
3 -0.44
30 0.15
37 0.37
38 0.4
4 -0.73
5 -0.84
6 -0.39
8 0.3
9 0.06

>  <PUBCHEM_EFFECTIVE_ROTOR_COUNT>  (1) 
8

>  <PUBCHEM_PHARMACOPHORE_FEATURES>  (1) 
6
1 1 acceptor
1 2 acceptor
1 4 donor
1 5 cation
1 6 donor
6 10 11 13 14 15 16 rings

>  <PUBCHEM_HEAVY_ATOM_COUNT>  (1) 
19

>  <PUBCHEM_ATOM_DEF_STEREO_COUNT>  (1) 
0

>  <PUBCHEM_ATOM_UDEF_STEREO_COUNT>  (1) 
0

>  <PUBCHEM_BOND_DEF_STEREO_COUNT>  (1) 
0

>  <PUBCHEM_BOND_UDEF_STEREO_COUNT>  (1) 
0

>  <PUBCHEM_ISOTOPIC_ATOM_COUNT>  (1) 
0

>  <PUBCHEM_COMPONENT_COUNT>  (1) 
1

>  <PUBCHEM_CACTVS_TAUTO_COUNT>  (1) 
6

>  <PUBCHEM_CONFORMER_ID>  (1) 
00000EE100000001

>  <PUBCHEM_MMFF94_ENERGY>  (1) 
55.6031

>  <PUBCHEM_FEATURE_SELFOVERLAP>  (1) 
30.446

>  <PUBCHEM_SHAPE_FINGERPRINT>  (1) 
11796584 16 18116988888984062842
12596602 18 15554154978374285207
12633257 1 17203609332661803615
12969540 114 12540697037035921433
13103583 49 16988570134293831355
13402501 40 18409450306197043835
13544653 18 18343021116465729245
13740256 8 18412263930413310212
13911882 115 18339077210990201304
13941219 33 18267881509888730515
14211702 104 18195808471407855666
14251740 79 17967820431287381587
14790565 3 17332237010350320304
15352361 1 18410011057184718751
15537594 2 17385442107809118307
15880784 105 17631725088779757687
17870717 6 17894624851831764103
193927 3 18411989061053810693
20261772 1 17846771931762222998
20281389 69 10592040258799262246
20403669 9 18413109459482359935
20621476 21 18341621390813779790
21054139 6 17603584123838443138
221490 88 18412260640668931992
23379529 103 18115597079093924843
23402539 116 16298672668331432444
23402655 69 12612752401991207877
23559900 14 18335692836811770173
26918003 58 18129937871420479485
2838139 119 9151174225156951963
2871803 45 18261100877388216013
314194 84 18131061654124164710
316301 35 18408597042224074122
329604 57 18408327696060407812
465052 167 18060137622647427670
5104073 3 17916577632019340376
5365585 94 18335710407670684243
5486654 36 18411991252062476201
59755656 520 18120369849002260013
633830 44 13769043806747955817
7062679 13 18408039623988011299
7495541 125 18342735217920597556
9862886 166 18186522128804965242

>  <PUBCHEM_SHAPE_MULTIPOLES>  (1) 
358.46
13.49
2.56
1.01
2.46
0.51
0.15
10.3
0.05
1.28
0.56
0.66
0.01
1.77

>  <PUBCHEM_SHAPE_SELFOVERLAP>  (1) 
726.081

>  <PUBCHEM_SHAPE_VOLUME>  (1) 
209

>  <PUBCHEM_COORDINATE_TYPE>  (1) 
2
5
10

$$$$
