38095
     RDKit          3D

 28 30  0  0  1  0  0  0  0  0999 V2000
    5.6419   -3.8115   -0.2024 Cl  0  0  0  0  0  0  0  0  0  0  0  0
   -5.6844    2.3445    0.6634 O   0  0  0  0  0  0  0  0  0  0  0  0
   -2.4339    2.3825   -0.9826 O   0  0  0  0  0  0  0  0  0  0  0  0
    5.5595    1.9331    0.8753 O   0  0  0  0  0  0  0  0  0  0  0  0
   -4.3839   -0.1842    0.4968 N   0  0  0  0  0  0  0  0  0  0  0  0
    2.8494    1.6847    0.6066 N   0  0  0  0  0  0  0  0  0  0  0  0
   -4.4360   -1.6144    0.1997 C   0  0  0  0  0  0  0  0  0  0  0  0
   -3.4537   -1.9481   -0.9285 C   0  0  0  0  0  0  0  0  0  0  0  0
   -4.1201   -2.4208    1.4642 C   0  0  0  0  0  0  0  0  0  0  0  0
   -3.4242   -3.4484   -1.2151 C   0  0  0  0  0  0  0  0  0  0  0  0
   -4.0904   -3.9206    1.1745 C   0  0  0  0  0  0  0  0  0  0  0  0
   -3.1219   -4.2562    0.0439 C   0  0  0  0  0  0  0  0  0  0  0  0
   -4.7302    0.5997   -0.6788 C   0  0  0  0  0  0  0  0  0  0  0  0
   -4.7426    2.1018   -0.3856 C   0  0  0  0  0  0  0  0  0  0  0  0
   -3.3824    2.6448    0.0470 C   0  0  0  0  0  0  0  0  0  0  0  0
   -1.1331    2.2106   -0.5914 C   0  0  0  0  0  0  0  0  0  0  0  0
   -0.6613    2.8666    0.5406 C   0  0  0  0  0  0  0  0  0  0  0  0
   -0.2952    1.3817   -1.3295 C   0  0  0  0  0  0  0  0  0  0  0  0
    1.5096    1.8617    0.2031 C   0  0  0  0  0  0  0  0  0  0  0  0
    0.6640    2.6917    0.9390 C   0  0  0  0  0  0  0  0  0  0  0  0
    1.0301    1.2066   -0.9312 C   0  0  0  0  0  0  0  0  0  0  0  0
    3.6571    0.5899    0.4365 C   0  0  0  0  0  0  0  0  0  0  0  0
    5.1115    0.9220    0.3342 C   0  0  0  0  0  0  0  0  0  0  0  0
    3.1661   -0.6589    0.3873 C   0  0  0  0  0  0  0  0  0  0  0  0
    6.0091    0.1204   -0.5309 C   0  0  0  0  0  0  0  0  0  0  0  0
    3.8570   -1.9212    0.3186 C   0  0  0  0  0  0  0  0  0  0  0  0
    5.9660   -1.1943   -0.7667 C   0  0  0  0  0  0  0  0  0  0  0  0
    5.0721   -2.1639   -0.1881 C   0  0  0  0  0  0  0  0  0  0  0  0
  1 28  1  0
  2 14  1  0
  3 15  1  0
  3 16  1  0
  4 23  2  0
  5  7  1  0
  5 13  1  0
  6 19  1  0
  6 22  1  0
  7  8  1  0
  7  9  1  0
  8 10  1  0
  9 11  1  0
 10 12  1  0
 11 12  1  0
 13 14  1  0
 14 15  1  0
 16 17  2  0
 16 18  1  0
 17 20  1  0
 18 21  2  0
 19 20  2  0
 19 21  1  0
 22 23  1  0
 22 24  2  0
 23 25  1  0
 24 26  1  0
 25 27  2  0
 26 28  2  0
 27 28  1  0
M  END
>  <PUBCHEM_COMPOUND_CID>  (1) 
38095

>  <PUBCHEM_CONFORMER_RMSD>  (1) 
1.2

>  <PUBCHEM_CONFORMER_DIVERSEORDER>  (1) 
4
70
136
180
438
143
203
527
611
332
87
24
172
520
272
447
15
227
290
31
494
16
327
429
18
159
269
48
361
145
3
534
609
325
415
364
167
311
453
301
324
300
12
347
157
22
348
34
383
33
533
95
247
405
129
45
230
366
432
406
477
109
113
313
522
1
490
151
67
90
8
2
318
237
550
235
386
359
337
604
184
249
25
92
27
60
81
13
178
444
6
23
29
239
72
89
126
11
595
481
213
112
10
28
63
339
98
7
211
19
189
411
144
368
196
156
132
169
32
30
110
66
46
57

>  <PUBCHEM_MMFF94_PARTIAL_CHARGES>  (1) 
34
1 -0.14
13 0.27
14 0.28
15 0.28
16 0.08
17 -0.15
18 -0.15
19 0.1
2 -0.68
20 -0.15
21 -0.15
22 0.11
23 0.54
24 -0.15
25 -0.14
26 -0.15
27 -0.15
28 0.14
3 -0.36
4 -0.57
40 0.36
46 0.4
47 0.15
48 0.15
49 0.15
5 -0.9
50 0.15
51 0.4
52 0.15
53 0.15
54 0.15
55 0.15
6 -0.6
7 0.27

>  <PUBCHEM_EFFECTIVE_ROTOR_COUNT>  (1) 
9.2

>  <PUBCHEM_PHARMACOPHORE_FEATURES>  (1) 
11
1 2 acceptor
1 2 donor
1 3 acceptor
1 4 acceptor
1 5 cation
1 5 donor
1 6 cation
1 6 donor
6 16 17 18 19 20 21 rings
6 7 8 9 10 11 12 rings
7 22 23 24 25 26 27 28 rings

>  <PUBCHEM_HEAVY_ATOM_COUNT>  (1) 
28

>  <PUBCHEM_ATOM_DEF_STEREO_COUNT>  (1) 
0

>  <PUBCHEM_ATOM_UDEF_STEREO_COUNT>  (1) 
1

>  <PUBCHEM_BOND_DEF_STEREO_COUNT>  (1) 
0

>  <PUBCHEM_BOND_UDEF_STEREO_COUNT>  (1) 
0

>  <PUBCHEM_ISOTOPIC_ATOM_COUNT>  (1) 
0

>  <PUBCHEM_COMPONENT_COUNT>  (1) 
1

>  <PUBCHEM_CACTVS_TAUTO_COUNT>  (1) 
2

>  <PUBCHEM_CONFORMER_ID>  (1) 
000094CF00000004

>  <PUBCHEM_MMFF94_ENERGY>  (1) 
85.6851

>  <PUBCHEM_FEATURE_SELFOVERLAP>  (1) 
55.824

>  <PUBCHEM_SHAPE_FINGERPRINT>  (1) 
10462674 125 15188204694915890062
10462674 296 17624403578179315678
10928967 22 17836663176955619783
11135609 12 18187653565262191065
11135609 99 18265894662835456742
11186622 123 18260821601319197610
14251757 5 18336544915526312115
14461889 52 18341880923419526616
14950920 106 17273986916024477395
15274700 232 17405437603198960390
15361156 5 17968390008444002844
15799311 1 18339094687386331780
16110190 28 18410864278218272929
17627616 140 17899968340746228555
18608769 82 18411417320204661096
19315092 285 16840788242644033907
19958102 18 18262790753408164589
20775530 9 18116988000126455155
23516275 137 17686925833412463099
23559900 14 18410567379503234969
3383291 50 18410571804405875979
3737641 26 18412262874310531774
4073 2 18411134766658636824
437795 96 18342745095839704383
4435113 14 18341625788886775278
463206 1 18409166584603719353
484989 97 18341060649327986806
5104073 3 17701811095440155464
5265222 85 18190457156720736661
56633871 153 18050013483131138355
6431902 208 18265047114382464383
6437827 68 18410856521090689574
7970288 3 17905047307009004995
8863177 126 18341611504141279812

>  <PUBCHEM_SHAPE_MULTIPOLES>  (1) 
550.53
16.13
5.7
1.13
11.4
4.72
0.02
8.05
-0.47
-4.96
-0.52
-0.66
0.21
1.48

>  <PUBCHEM_SHAPE_SELFOVERLAP>  (1) 
1141.486

>  <PUBCHEM_SHAPE_VOLUME>  (1) 
311.8

>  <PUBCHEM_COORDINATE_TYPE>  (1) 
2
5
10

$$$$
