38117
     RDKit          3D

 20 22  0  0  0  0  0  0  0  0999 V2000
    3.2633   -1.4027   -0.0082 O   0  0  0  0  0  0  0  0  0  0  0  0
   -2.9862   -2.2493    0.0082 O   0  0  0  0  0  0  0  0  0  0  0  0
   -6.4633    1.4189    0.0073 O   0  0  0  0  0  0  0  0  0  0  0  0
   -4.4599    2.4929   -0.0140 O   0  0  0  0  0  0  0  0  0  0  0  0
    1.3313   -0.2273    0.0023 C   0  0  0  0  0  0  0  0  0  0  0  0
    2.4185    0.6950    0.0027 C   0  0  0  0  0  0  0  0  0  0  0  0
    1.9044   -1.4952   -0.0045 C   0  0  0  0  0  0  0  0  0  0  0  0
   -0.8326   -1.3048    0.0044 C   0  0  0  0  0  0  0  0  0  0  0  0
    3.5760   -0.0769   -0.0040 C   0  0  0  0  0  0  0  0  0  0  0  0
   -0.0722   -0.1277    0.0071 C   0  0  0  0  0  0  0  0  0  0  0  0
    1.1748   -2.6829   -0.0070 C   0  0  0  0  0  0  0  0  0  0  0  0
   -0.2175   -2.5589   -0.0023 C   0  0  0  0  0  0  0  0  0  0  0  0
   -2.2849   -1.2172    0.0086 C   0  0  0  0  0  0  0  0  0  0  0  0
   -2.9715    0.1602    0.0159 C   0  0  0  0  0  0  0  0  0  0  0  0
    2.5489    2.0961    0.0080 C   0  0  0  0  0  0  0  0  0  0  0  0
    4.8666    0.4492   -0.0060 C   0  0  0  0  0  0  0  0  0  0  0  0
   -4.4934    0.0786   -0.0133 C   0  0  0  0  0  0  0  0  0  0  0  0
    3.8342    2.6543    0.0065 C   0  0  0  0  0  0  0  0  0  0  0  0
    4.9712    1.8433   -0.0007 C   0  0  0  0  0  0  0  0  0  0  0  0
   -5.1076    1.4543   -0.0110 C   0  0  0  0  0  0  0  0  0  0  0  0
  1  7  1  0
  1  9  1  0
  2 13  2  0
  3 20  1  0
  4 20  2  0
  5  6  1  0
  5  7  2  0
  5 10  1  0
  6  9  2  0
  6 15  1  0
  7 11  1  0
  8 10  2  0
  8 12  1  0
  8 13  1  0
  9 16  1  0
 11 12  2  0
 13 14  1  0
 14 17  1  0
 15 18  2  0
 16 19  2  0
 17 20  1  0
 18 19  1  0
M  END
>  <PUBCHEM_COMPOUND_CID>  (1) 
38117

>  <PUBCHEM_CONFORMER_RMSD>  (1) 
0.6

>  <PUBCHEM_CONFORMER_DIVERSEORDER>  (1) 
1
34
11
48
35
23
58
10
43
22
57
16
19
51
3
52
12
30
36
9
14
31
59
26
5
24
56
17
15
44
25
13
4
18
53
6
49
47
39
32
45
29
2
7
27
46
38
8
41
42
60
54
55
50
33
20
37
28
21
40

>  <PUBCHEM_MMFF94_PARTIAL_CHARGES>  (1) 
26
1 -0.28
10 -0.15
11 -0.15
12 -0.15
13 0.42
14 0.06
15 -0.15
16 -0.15
17 0.06
18 -0.15
19 -0.15
2 -0.57
20 0.66
21 0.15
22 0.15
23 0.15
26 0.15
27 0.15
3 -0.65
30 0.15
31 0.15
32 0.5
4 -0.57
7 0.14
8 0.09
9 0.14

>  <PUBCHEM_EFFECTIVE_ROTOR_COUNT>  (1) 
4

>  <PUBCHEM_PHARMACOPHORE_FEATURES>  (1) 
8
1 1 acceptor
1 2 acceptor
1 3 acceptor
1 4 acceptor
3 3 4 20 anion
5 1 5 6 7 9 rings
6 5 7 8 10 11 12 rings
6 6 9 15 16 18 19 rings

>  <PUBCHEM_HEAVY_ATOM_COUNT>  (1) 
20

>  <PUBCHEM_ATOM_DEF_STEREO_COUNT>  (1) 
0

>  <PUBCHEM_ATOM_UDEF_STEREO_COUNT>  (1) 
0

>  <PUBCHEM_BOND_DEF_STEREO_COUNT>  (1) 
0

>  <PUBCHEM_BOND_UDEF_STEREO_COUNT>  (1) 
0

>  <PUBCHEM_ISOTOPIC_ATOM_COUNT>  (1) 
0

>  <PUBCHEM_COMPONENT_COUNT>  (1) 
1

>  <PUBCHEM_CACTVS_TAUTO_COUNT>  (1) 
2

>  <PUBCHEM_CONFORMER_ID>  (1) 
000094E500000001

>  <PUBCHEM_MMFF94_ENERGY>  (1) 
41.4625

>  <PUBCHEM_FEATURE_SELFOVERLAP>  (1) 
40.856

>  <PUBCHEM_SHAPE_FINGERPRINT>  (1) 
10411042 1 17618222806354505774
11595378 159 16588291753344006821
12107183 9 18263070051332685746
12173636 292 18123466348122356670
12293681 160 17918279778839916016
12390115 104 18268165290814563457
12403259 415 18128538352364082616
12730499 353 18336837411552660707
12769317 202 18340758261168957777
12788726 201 17346042152189352105
13103583 49 11891325401495297551
13785724 45 17905603307747812666
13878862 14 18044633348959846333
14251764 75 18341063977205292681
14790565 3 18263932205735068228
14848178 96 18412258450040503801
15188451 53 15575293098604105321
15196674 1 18410855498793449442
15475509 35 16226887722848652594
17810953 82 18408608054150942836
17834072 32 18410856585520395653
17959699 21 18412544318668291177
20157964 124 18339078186554295773
20645477 56 18333733507591629071
20715895 44 18339075982719524105
21033648 29 18269269230743890104
21279426 13 18342185470786016510
21304253 335 18261396688886860908
21315764 268 18188204295933616909
21421861 104 17822837703336748730
22950370 63 9078846202808598570
23227448 37 18412544332027758503
23402655 69 18271803544657661550
23559900 14 18272371958506068718
23845131 108 18186519900128882811
245318 6 17751376185650051613
2838139 119 18341324561080708613
293599 30 18411420626495723958
335352 9 18410856543309402742
350125 39 18335983074054209316
474 4 18410856542765953683
5104073 3 18187358865611717162
543358 83 18411983525015195194
59124914 9 18409729556253555736
59682541 35 18187940495585658097
59755656 215 18340494365930850132
633830 44 18412539929343869646
636775 72 17619629520673244016
7808743 9 18338232794433699977
8272917 22 18341896242681628214

>  <PUBCHEM_SHAPE_MULTIPOLES>  (1) 
388.11
11.94
3.12
0.6
11.34
0.14
0
-10.35
-0.02
0.06
0
-0.05
0
0.02

>  <PUBCHEM_SHAPE_SELFOVERLAP>  (1) 
859.497

>  <PUBCHEM_SHAPE_VOLUME>  (1) 
209.5

>  <PUBCHEM_COORDINATE_TYPE>  (1) 
2
5
10

$$$$
