38122
     RDKit          3D

 31 34  0  0  0  0  0  0  0  0999 V2000
    2.7616   -0.5107    0.0122 S   0  0  0  0  0  0  0  0  0  0  0  0
   -1.3023   -5.3886    1.1984 O   0  0  0  0  0  0  0  0  0  0  0  0
    6.0913    1.6045    0.3828 O   0  0  0  0  0  0  0  0  0  0  0  0
    5.3953   -0.3456    1.3936 O   0  0  0  0  0  0  0  0  0  0  0  0
    0.3375   -0.6859   -1.2413 N   0  0  0  0  0  0  0  0  0  0  0  0
   -4.0431    0.9991   -0.6179 N   0  0  0  0  0  0  0  0  0  0  0  0
   -2.3462    2.4216   -0.8114 N   0  0  0  0  0  0  0  0  0  0  0  0
    0.3281    1.0892   -2.5204 N   0  0  0  0  0  0  0  0  0  0  0  0
    1.5193    1.0613   -1.8229 N   0  0  0  0  0  0  0  0  0  0  0  0
   -1.7368   -0.3567   -2.6583 C   0  0  0  0  0  0  0  0  0  0  0  0
   -2.7176    0.8414   -2.7052 C   0  0  0  0  0  0  0  0  0  0  0  0
   -0.3662    0.0341   -2.1584 C   0  0  0  0  0  0  0  0  0  0  0  0
   -3.0047    1.4420   -1.3892 C   0  0  0  0  0  0  0  0  0  0  0  0
   -4.0557    1.7426    0.5341 C   0  0  0  0  0  0  0  0  0  0  0  0
   -0.0756   -1.8686   -0.6276 C   0  0  0  0  0  0  0  0  0  0  0  0
   -2.9872    2.6233    0.3894 C   0  0  0  0  0  0  0  0  0  0  0  0
    1.5059   -0.0097   -1.0618 C   0  0  0  0  0  0  0  0  0  0  0  0
   -4.8848    1.7214    1.6562 C   0  0  0  0  0  0  0  0  0  0  0  0
   -0.2020   -1.9269    0.7603 C   0  0  0  0  0  0  0  0  0  0  0  0
   -0.3613   -2.9931   -1.4018 C   0  0  0  0  0  0  0  0  0  0  0  0
   -2.7149    3.5441    1.4152 C   0  0  0  0  0  0  0  0  0  0  0  0
   -4.5993    2.6448    2.6674 C   0  0  0  0  0  0  0  0  0  0  0  0
   -3.5342    3.5407    2.5510 C   0  0  0  0  0  0  0  0  0  0  0  0
   -0.6143   -3.1097    1.3739 C   0  0  0  0  0  0  0  0  0  0  0  0
   -0.7736   -4.1759   -0.7883 C   0  0  0  0  0  0  0  0  0  0  0  0
   -0.9001   -4.2342    0.5996 C   0  0  0  0  0  0  0  0  0  0  0  0
    3.9888    0.8054   -0.2346 C   0  0  0  0  0  0  0  0  0  0  0  0
    5.2113    0.5837    0.6200 C   0  0  0  0  0  0  0  0  0  0  0  0
   -1.4106   -5.3784    2.6210 C   0  0  0  0  0  0  0  0  0  0  0  0
    7.3177    1.5468    1.1188 C   0  0  0  0  0  0  0  0  0  0  0  0
    8.1737    2.7381    0.7450 C   0  0  0  0  0  0  0  0  0  0  0  0
  1 17  1  0
  1 27  1  0
  2 26  1  0
  2 29  1  0
  3 28  1  0
  3 30  1  0
  4 28  2  0
  5 12  1  0
  5 15  1  0
  5 17  1  0
  6 13  1  0
  6 14  1  0
  7 13  2  0
  7 16  1  0
  8  9  1  0
  8 12  2  0
  9 17  2  0
 10 11  1  0
 10 12  1  0
 11 13  1  0
 14 16  2  0
 14 18  1  0
 15 19  2  0
 15 20  1  0
 16 21  1  0
 18 22  2  0
 19 24  1  0
 20 25  2  0
 21 23  2  0
 22 23  1  0
 24 26  2  0
 25 26  1  0
 27 28  1  0
 30 31  1  0
M  END
>  <PUBCHEM_COMPOUND_CID>  (1) 
38122

>  <PUBCHEM_CONFORMER_RMSD>  (1) 
1

>  <PUBCHEM_CONFORMER_DIVERSEORDER>  (1) 
1
13
43
26
4
8
25
50
10
6
55
2
54
36
15
22
24
57
7
45
27
28
23
32
53
52
42
33
17
51
40
47
35
9
29
11
48
3
39
37
14
16
18
41
38
20
46
5
12
34
19
21
31
44
30
49
56

>  <PUBCHEM_MMFF94_PARTIAL_CHARGES>  (1) 
39
1 -0.29
10 0.18
11 0.18
12 0.01
13 0.01
14 -0.15
15 -0.02
16 0.23
17 0.24
18 -0.15
19 -0.15
2 -0.36
20 -0.15
21 -0.15
22 -0.15
23 -0.15
24 -0.15
25 -0.15
26 0.08
27 0.29
28 0.66
29 0.28
3 -0.43
30 0.28
36 0.27
37 0.15
38 0.15
39 0.15
4 -0.57
40 0.15
41 0.15
42 0.15
43 0.15
44 0.15
5 0.33
6 0.03
7 -0.57
8 -0.34
9 -0.34

>  <PUBCHEM_EFFECTIVE_ROTOR_COUNT>  (1) 
10

>  <PUBCHEM_PHARMACOPHORE_FEATURES>  (1) 
10
1 2 acceptor
1 4 acceptor
1 6 donor
3 5 8 12 cation
3 5 9 17 cation
3 6 7 13 cation
5 5 8 9 12 17 rings
5 6 7 13 14 16 rings
6 14 16 18 21 22 23 rings
6 15 19 20 24 25 26 rings

>  <PUBCHEM_HEAVY_ATOM_COUNT>  (1) 
31

>  <PUBCHEM_ATOM_DEF_STEREO_COUNT>  (1) 
0

>  <PUBCHEM_ATOM_UDEF_STEREO_COUNT>  (1) 
0

>  <PUBCHEM_BOND_DEF_STEREO_COUNT>  (1) 
0

>  <PUBCHEM_BOND_UDEF_STEREO_COUNT>  (1) 
0

>  <PUBCHEM_ISOTOPIC_ATOM_COUNT>  (1) 
0

>  <PUBCHEM_COMPONENT_COUNT>  (1) 
1

>  <PUBCHEM_CACTVS_TAUTO_COUNT>  (1) 
2

>  <PUBCHEM_CONFORMER_ID>  (1) 
000094EA00000001

>  <PUBCHEM_MMFF94_ENERGY>  (1) 
78.1378

>  <PUBCHEM_FEATURE_SELFOVERLAP>  (1) 
53.356

>  <PUBCHEM_SHAPE_FINGERPRINT>  (1) 
10074138 170 18336549437900080450
10119406 146 18201163157722449838
10291535 26 18129654331023104212
10816530 145 18263343928586583276
11007060 377 18261655048560639500
11115154 58 17765688589145204599
11331351 85 17905065980989069182
12717326 25 18187925033387310050
12988421 55 18338510846516881744
13726171 33 16844740699182989801
14150022 121 18194684997956231240
15338160 23 18268149941171516992
15475509 84 17757568708473609715
19304152 47 18340496551542787537
21344244 78 17614305658651637963
244849 19 17844555295436738118
24893989 43 14215852501794448969
255183 313 17967245404117655086
3737641 26 16454365534002676143
392239 28 18342465884937654745
4616759 239 17974542979082597264
508180 173 16415473866418424232
6376802 137 18054783155570935647
7288768 16 18342461417359335453
7808743 9 16845002395650756557
79837 15 18409176501778677411

>  <PUBCHEM_SHAPE_MULTIPOLES>  (1) 
599.3
12.81
6.75
2.91
33.49
10.21
0.45
-20.3
-8.41
-5.6
-6
-3.16
-0.02
-0.64

>  <PUBCHEM_SHAPE_SELFOVERLAP>  (1) 
1279.552

>  <PUBCHEM_SHAPE_VOLUME>  (1) 
336.3

>  <PUBCHEM_COORDINATE_TYPE>  (1) 
2
5
10

$$$$
