38126
     RDKit          3D

 29 32  0  0  0  0  0  0  0  0999 V2000
    2.8958    1.7628   -1.5233 S   0  0  0  0  0  0  0  0  0  0  0  0
    1.6982    3.6277    0.6736 O   0  0  0  0  0  0  0  0  0  0  0  0
    1.7405   -0.6632   -1.0150 N   0  0  0  0  0  0  0  0  0  0  0  0
   -2.3132   -0.9304   -1.3222 N   0  0  0  0  0  0  0  0  0  0  0  0
   -2.4298   -2.1379    0.5402 N   0  0  0  0  0  0  0  0  0  0  0  0
    0.6313   -1.0632   -2.8582 N   0  0  0  0  0  0  0  0  0  0  0  0
    1.2699    0.1538   -2.9895 N   0  0  0  0  0  0  0  0  0  0  0  0
   -0.3360    3.1232   -0.3314 N   0  0  0  0  0  0  0  0  0  0  0  0
   -1.0491    3.2794    0.8399 N   0  0  0  0  0  0  0  0  0  0  0  0
    0.4650   -2.8149   -1.0920 C   0  0  0  0  0  0  0  0  0  0  0  0
   -1.0474   -3.0602   -1.3200 C   0  0  0  0  0  0  0  0  0  0  0  0
    0.9365   -1.5070   -1.6821 C   0  0  0  0  0  0  0  0  0  0  0  0
   -1.9269   -2.0693   -0.6722 C   0  0  0  0  0  0  0  0  0  0  0  0
    2.2609   -0.8230    0.2693 C   0  0  0  0  0  0  0  0  0  0  0  0
   -3.1187   -0.2162   -0.4727 C   0  0  0  0  0  0  0  0  0  0  0  0
   -3.1761   -0.9908    0.6826 C   0  0  0  0  0  0  0  0  0  0  0  0
    1.9292    0.3760   -1.8749 C   0  0  0  0  0  0  0  0  0  0  0  0
    1.5500   -0.3435    1.3618 C   0  0  0  0  0  0  0  0  0  0  0  0
    3.4840   -1.4588    0.4386 C   0  0  0  0  0  0  0  0  0  0  0  0
    2.0712   -0.5025    2.6458 C   0  0  0  0  0  0  0  0  0  0  0  0
   -3.7819    1.0037   -0.6115 C   0  0  0  0  0  0  0  0  0  0  0  0
   -3.9354   -0.5369    1.7743 C   0  0  0  0  0  0  0  0  0  0  0  0
    4.0053   -1.6179    1.7227 C   0  0  0  0  0  0  0  0  0  0  0  0
    3.2989   -1.1398    2.8263 C   0  0  0  0  0  0  0  0  0  0  0  0
   -4.5329    1.4401    0.4849 C   0  0  0  0  0  0  0  0  0  0  0  0
   -4.6096    0.6850    1.6574 C   0  0  0  0  0  0  0  0  0  0  0  0
    1.3164    0.0085    3.8263 C   0  0  0  0  0  0  0  0  0  0  0  0
    1.6711    3.0967   -1.6646 C   0  0  0  0  0  0  0  0  0  0  0  0
    1.0328    3.3187   -0.3141 C   0  0  0  0  0  0  0  0  0  0  0  0
  1 17  1  0
  1 28  1  0
  2 29  2  0
  3 12  1  0
  3 14  1  0
  3 17  1  0
  4 13  1  0
  4 15  1  0
  5 13  2  0
  5 16  1  0
  6  7  1  0
  6 12  2  0
  7 17  2  0
  8  9  1  0
  8 29  1  0
 10 11  1  0
 10 12  1  0
 11 13  1  0
 14 18  2  0
 14 19  1  0
 15 16  2  0
 15 21  1  0
 16 22  1  0
 18 20  1  0
 19 23  2  0
 20 24  2  0
 20 27  1  0
 21 25  2  0
 22 26  2  0
 23 24  1  0
 25 26  1  0
 28 29  1  0
M  END
>  <PUBCHEM_COMPOUND_CID>  (1) 
38126

>  <PUBCHEM_CONFORMER_RMSD>  (1) 
1

>  <PUBCHEM_CONFORMER_DIVERSEORDER>  (1) 
1
148
73
131
53
112
159
3
44
176
120
75
2
170
165
78
125
14
39
137
79
18
6
162
65
74
153
169
174
161
21
99
146
56
97
10
152
88
150
151
127
15
46
94
80
70
129
135
144
64
149
5
49
42
28
71
163
36
43
63
31
160
8
32
26
119
134
76
30
114
55
154
68
72
106
77
85
38
172
121
173
12
141
104
109
51
50
62
27
124
156
122
147
33
59
98
96
145
86
35
93
23
111
107
167
100
95
82
140
118
138
115
41
101
142
57
16
69
81
48
166
25
13
54
133
47
132
103
9
130
29
102
7
20
66
157
155
67
113
123
40
92
83
158
175
168
108
11
34
61
105
52
89
84
45
143
58
4
139
110
90
17
19
91
136
164
126
116
87
171
117
128
24
37
22
60

>  <PUBCHEM_MMFF94_PARTIAL_CHARGES>  (1) 
41
1 -0.29
10 0.18
11 0.18
12 0.01
13 0.01
14 -0.02
15 -0.15
16 0.23
17 0.24
18 -0.15
19 -0.15
2 -0.57
20 -0.14
21 -0.15
22 -0.15
23 -0.15
24 -0.15
25 -0.15
26 -0.15
27 0.14
28 0.29
29 0.57
3 0.33
34 0.27
35 0.15
36 0.15
37 0.15
38 0.15
39 0.15
4 0.03
40 0.15
41 0.15
42 0.15
48 0.37
49 0.36
5 -0.57
50 0.36
6 -0.34
7 -0.34
8 -0.42
9 -0.73

>  <PUBCHEM_EFFECTIVE_ROTOR_COUNT>  (1) 
8

>  <PUBCHEM_PHARMACOPHORE_FEATURES>  (1) 
11
1 2 acceptor
1 4 donor
1 8 donor
1 9 donor
3 3 6 12 cation
3 3 7 17 cation
3 4 5 13 cation
5 3 6 7 12 17 rings
5 4 5 13 15 16 rings
6 14 18 19 20 23 24 rings
6 15 16 21 22 25 26 rings

>  <PUBCHEM_HEAVY_ATOM_COUNT>  (1) 
29

>  <PUBCHEM_ATOM_DEF_STEREO_COUNT>  (1) 
0

>  <PUBCHEM_ATOM_UDEF_STEREO_COUNT>  (1) 
0

>  <PUBCHEM_BOND_DEF_STEREO_COUNT>  (1) 
0

>  <PUBCHEM_BOND_UDEF_STEREO_COUNT>  (1) 
0

>  <PUBCHEM_ISOTOPIC_ATOM_COUNT>  (1) 
0

>  <PUBCHEM_COMPONENT_COUNT>  (1) 
1

>  <PUBCHEM_CACTVS_TAUTO_COUNT>  (1) 
4

>  <PUBCHEM_CONFORMER_ID>  (1) 
000094EE00000001

>  <PUBCHEM_MMFF94_ENERGY>  (1) 
72.1124

>  <PUBCHEM_FEATURE_SELFOVERLAP>  (1) 
60.003

>  <PUBCHEM_SHAPE_FINGERPRINT>  (1) 
10764073 3 17272846507908694406
107951 10 12146839190196828326
11763715 3 16190257837289507686
12156800 1 16604901800579621379
12633257 1 18335985290093570031
13135754 10 16958423462338087866
133893 2 17173171625205363874
13533116 47 15864370051385702483
13583140 156 17603866758303160991
13615921 28 17749396922784893961
13726171 33 18120405105666281741
13965767 371 18187377531745034583
14251757 17 16266324216072443864
17093844 170 17691130331570183957
17921350 177 18334581235040713405
17974551 9 16878496818340887693
20600515 1 18272081682407912208
21795232 40 10710438179629376011
25265897 201 15123516959915264189
3052486 1 18048890588920096508
35225 105 17110104449942857640
3524813 1 17701823172302122075
3737641 26 15286478709172822282
484985 159 15146841715913523370
539174 4 17323757499435305636
57091435 65 18336547230371331416
5895379 119 18128835065653034145

>  <PUBCHEM_SHAPE_MULTIPOLES>  (1) 
559.92
7.31
3.93
3.28
6.91
3.69
-1.17
-0.79
-3.84
-1.37
0.64
-2.23
-1.09
-1.92

>  <PUBCHEM_SHAPE_SELFOVERLAP>  (1) 
1206.493

>  <PUBCHEM_SHAPE_VOLUME>  (1) 
311.7

>  <PUBCHEM_COORDINATE_TYPE>  (1) 
2
5
10

$$$$
