38125
     RDKit          3D

 28 31  0  0  0  0  0  0  0  0999 V2000
    2.9994    1.7646   -1.2575 S   0  0  0  0  0  0  0  0  0  0  0  0
    1.7085    3.6274    0.8878 O   0  0  0  0  0  0  0  0  0  0  0  0
    1.8237   -0.6619   -0.8015 N   0  0  0  0  0  0  0  0  0  0  0  0
   -2.2131   -0.9291   -1.2826 N   0  0  0  0  0  0  0  0  0  0  0  0
   -2.4093   -2.1384    0.5719 N   0  0  0  0  0  0  0  0  0  0  0  0
    0.7946   -1.0603   -2.6910 N   0  0  0  0  0  0  0  0  0  0  0  0
    1.4381    0.1569   -2.7936 N   0  0  0  0  0  0  0  0  0  0  0  0
   -0.2806    3.1237   -0.2040 N   0  0  0  0  0  0  0  0  0  0  0  0
   -1.0434    3.2787    0.9357 N   0  0  0  0  0  0  0  0  0  0  0  0
    0.5529   -2.8136   -0.9351 C   0  0  0  0  0  0  0  0  0  0  0  0
   -0.9483   -3.0588   -1.2280 C   0  0  0  0  0  0  0  0  0  0  0  0
    1.0491   -1.5051   -1.5033 C   0  0  0  0  0  0  0  0  0  0  0  0
   -1.8549   -2.0686   -0.6177 C   0  0  0  0  0  0  0  0  0  0  0  0
   -3.0544   -0.2158   -0.4678 C   0  0  0  0  0  0  0  0  0  0  0  0
   -3.1611   -0.9915    0.6834 C   0  0  0  0  0  0  0  0  0  0  0  0
    2.2886   -0.8229    0.5038 C   0  0  0  0  0  0  0  0  0  0  0  0
    2.0490    0.3781   -1.6515 C   0  0  0  0  0  0  0  0  0  0  0  0
   -3.7112    1.0042   -0.6337 C   0  0  0  0  0  0  0  0  0  0  0  0
   -3.9667   -0.5387    1.7419 C   0  0  0  0  0  0  0  0  0  0  0  0
    3.5033   -1.4588    0.7250 C   0  0  0  0  0  0  0  0  0  0  0  0
    1.5311   -0.3446    1.5651 C   0  0  0  0  0  0  0  0  0  0  0  0
   -4.5085    1.4395    0.4299 C   0  0  0  0  0  0  0  0  0  0  0  0
   -4.6354    0.6833    1.5974 C   0  0  0  0  0  0  0  0  0  0  0  0
    3.9688   -1.6191    2.0302 C   0  0  0  0  0  0  0  0  0  0  0  0
    1.9965   -0.5048    2.8702 C   0  0  0  0  0  0  0  0  0  0  0  0
    3.2153   -1.1421    3.1027 C   0  0  0  0  0  0  0  0  0  0  0  0
    1.7818    3.0986   -1.4499 C   0  0  0  0  0  0  0  0  0  0  0  0
    1.0862    3.3193   -0.1278 C   0  0  0  0  0  0  0  0  0  0  0  0
  1 17  1  0
  1 27  1  0
  2 28  2  0
  3 12  1  0
  3 16  1  0
  3 17  1  0
  4 13  1  0
  4 14  1  0
  5 13  2  0
  5 15  1  0
  6  7  1  0
  6 12  2  0
  7 17  2  0
  8  9  1  0
  8 28  1  0
 10 11  1  0
 10 12  1  0
 11 13  1  0
 14 15  2  0
 14 18  1  0
 15 19  1  0
 16 20  2  0
 16 21  1  0
 18 22  2  0
 19 23  2  0
 20 24  1  0
 21 25  2  0
 22 23  1  0
 24 26  2  0
 25 26  1  0
 27 28  1  0
M  END
>  <PUBCHEM_COMPOUND_CID>  (1) 
38125

>  <PUBCHEM_CONFORMER_RMSD>  (1) 
1

>  <PUBCHEM_CONFORMER_DIVERSEORDER>  (1) 
1
109
103
25
111
63
62
71
77
11
35
14
53
45
86
84
9
118
41
100
66
54
36
90
67
102
113
95
20
18
114
106
47
50
38
88
52
2
17
79
56
74
5
104
80
43
27
59
93
44
24
32
61
116
85
112
51
57
78
58
28
75
70
92
65
94
39
40
37
81
115
68
101
16
33
3
117
26
89
8
99
105
69
30
21
10
76
97
72
82
96
46
87
108
55
49
64
15
48
19
6
83
91
29
98
34
73
4
110
22
13
60
31
7
107
12
23
42

>  <PUBCHEM_MMFF94_PARTIAL_CHARGES>  (1) 
41
1 -0.29
10 0.18
11 0.18
12 0.01
13 0.01
14 -0.15
15 0.23
16 -0.02
17 0.24
18 -0.15
19 -0.15
2 -0.57
20 -0.15
21 -0.15
22 -0.15
23 -0.15
24 -0.15
25 -0.15
26 -0.15
27 0.29
28 0.57
3 0.33
33 0.27
34 0.15
35 0.15
36 0.15
37 0.15
38 0.15
39 0.15
4 0.03
40 0.15
41 0.15
42 0.15
45 0.37
46 0.36
47 0.36
5 -0.57
6 -0.34
7 -0.34
8 -0.42
9 -0.73

>  <PUBCHEM_EFFECTIVE_ROTOR_COUNT>  (1) 
8

>  <PUBCHEM_PHARMACOPHORE_FEATURES>  (1) 
11
1 2 acceptor
1 4 donor
1 8 donor
1 9 donor
3 3 6 12 cation
3 3 7 17 cation
3 4 5 13 cation
5 3 6 7 12 17 rings
5 4 5 13 14 15 rings
6 14 15 18 19 22 23 rings
6 16 20 21 24 25 26 rings

>  <PUBCHEM_HEAVY_ATOM_COUNT>  (1) 
28

>  <PUBCHEM_ATOM_DEF_STEREO_COUNT>  (1) 
0

>  <PUBCHEM_ATOM_UDEF_STEREO_COUNT>  (1) 
0

>  <PUBCHEM_BOND_DEF_STEREO_COUNT>  (1) 
0

>  <PUBCHEM_BOND_UDEF_STEREO_COUNT>  (1) 
0

>  <PUBCHEM_ISOTOPIC_ATOM_COUNT>  (1) 
0

>  <PUBCHEM_COMPONENT_COUNT>  (1) 
1

>  <PUBCHEM_CACTVS_TAUTO_COUNT>  (1) 
4

>  <PUBCHEM_CONFORMER_ID>  (1) 
000094ED00000001

>  <PUBCHEM_MMFF94_ENERGY>  (1) 
69.9039

>  <PUBCHEM_FEATURE_SELFOVERLAP>  (1) 
60.003

>  <PUBCHEM_SHAPE_FINGERPRINT>  (1) 
10764073 3 17272844308906550666
107951 10 12003002170057248214
11763715 3 16046421925204043062
12156800 1 16677804919006626531
12539773 59 13359114995329745555
12633257 1 18408321060546944919
13122387 1 18124899875272934061
13135754 10 17103947129177990602
13533116 47 15864652621563216923
13583140 156 17676767681986046983
13726171 33 18120686589269843653
13965767 371 18187655708134107815
16114785 44 17479119338775231520
17093844 170 17691410706993075229
17921350 177 18335143089714157693
17974551 9 17096079182877470953
20600515 1 18272642433353876288
21864079 5 18340782536582318095
3052486 1 18049452439425167484
35225 105 17038607602545409488
3737641 26 15503494816800127354
484985 159 15219179681142665978
539174 4 17396942088665269376
57091435 65 18336264651619667800
5895379 119 18129395820841218049
8509985 295 18188204304449308485

>  <PUBCHEM_SHAPE_MULTIPOLES>  (1) 
539.34
7.51
4.05
2.82
6.81
3.59
-0.56
-0.46
-4.29
-1.41
0.43
-2.24
-1.02
-1.89

>  <PUBCHEM_SHAPE_SELFOVERLAP>  (1) 
1164.414

>  <PUBCHEM_SHAPE_VOLUME>  (1) 
299

>  <PUBCHEM_COORDINATE_TYPE>  (1) 
2
5
10

$$$$
