3812
     RDKit          3D

 23 23  0  0  0  0  0  0  0  0999 V2000
    6.9656    2.3301    1.1656 O   0  0  0  0  0  0  0  0  0  0  0  0
   -2.4958   -2.7906    1.2711 O   0  0  0  0  0  0  0  0  0  0  0  0
    9.2108    1.0933    0.3022 O   0  0  0  0  0  0  0  0  0  0  0  0
   -1.4550   -2.1808   -0.7104 N   0  0  0  0  0  0  0  0  0  0  0  0
   -5.8730    2.3988   -0.1217 N   0  0  0  0  0  0  0  0  0  0  0  0
    7.9697    0.8566   -0.3035 N   0  0  0  0  0  0  0  0  0  0  0  0
    2.8183   -1.4324    0.0650 C   0  0  0  0  0  0  0  0  0  0  0  0
    1.5171   -1.7454   -0.6767 C   0  0  0  0  0  0  0  0  0  0  0  0
    3.5642   -0.2670   -0.5872 C   0  0  0  0  0  0  0  0  0  0  0  0
    0.7917   -2.9376   -0.0459 C   0  0  0  0  0  0  0  0  0  0  0  0
    4.8807    0.0242    0.1340 C   0  0  0  0  0  0  0  0  0  0  0  0
   -0.5178   -3.2687   -0.7541 C   0  0  0  0  0  0  0  0  0  0  0  0
    5.6098    1.2087   -0.4959 C   0  0  0  0  0  0  0  0  0  0  0  0
    6.9028    1.5440    0.2241 C   0  0  0  0  0  0  0  0  0  0  0  0
   -2.3820   -2.0284    0.3148 C   0  0  0  0  0  0  0  0  0  0  0  0
   -3.2990   -0.8651    0.2006 C   0  0  0  0  0  0  0  0  0  0  0  0
   -5.0019    1.2948   -0.0128 C   0  0  0  0  0  0  0  0  0  0  0  0
   -4.5414   -0.9348    0.7964 C   0  0  0  0  0  0  0  0  0  0  0  0
   -2.8792    0.2481   -0.4979 C   0  0  0  0  0  0  0  0  0  0  0  0
   -5.4025    0.1574    0.6885 C   0  0  0  0  0  0  0  0  0  0  0  0
   -3.7403    1.3402   -0.6059 C   0  0  0  0  0  0  0  0  0  0  0  0
   -6.8321    2.6831    0.9271 C   0  0  0  0  0  0  0  0  0  0  0  0
   -5.8108    3.2715   -1.2772 C   0  0  0  0  0  0  0  0  0  0  0  0
  1 14  2  0
  2 15  2  0
  3  6  1  0
  4 12  1  0
  4 15  1  0
  5 17  1  0
  5 22  1  0
  5 23  1  0
  6 14  1  0
  7  8  1  0
  7  9  1  0
  8 10  1  0
  9 11  1  0
 10 12  1  0
 11 13  1  0
 13 14  1  0
 15 16  1  0
 16 18  2  0
 16 19  1  0
 17 20  2  0
 17 21  1  0
 18 20  1  0
 19 21  2  0
M  END
>  <PUBCHEM_COMPOUND_CID>  (1) 
3812

>  <PUBCHEM_CONFORMER_RMSD>  (1) 
1

>  <PUBCHEM_CONFORMER_DIVERSEORDER>  (1) 
1
269
42
82
283
164
48
150
274
227
114
71
253
194
6
68
108
207
245
244
44
257
116
175
277
4
13
5
260
181
45
66
250
259
220
165
236
124
170
35
209
167
242
22
97
249
282
103
14
221
75
264
237
206
222
132
51
258
239
179
96
273
79
98
229
177
147
76
261
109
24
180
160
99
191
141
223
62
248
29
178
267
70
55
176
211
10
37
134
271
149
235
110
28
90
172
144
26
275
18
25
276
225
203
174
186
279
201
272
159
9
155
204
120
240
263
67
115
41
122
199
85
89
214
27
11
43
230
53
268
113
131
142
200
183
16
23
135
40
280
30
148
145
104
92
278
188
101
100
184
59
87
163
2
127
205
281
102
121
56
38
21
69
265
129
112
166
143
247
128
162
262
20
158
215
118
31
77
7
119
130
86
254
33
190
238
126
140
182
111
168
15
64
133
234
216
73
246
39
65
153
154
8
72
3
138
157
213
46
74
106
251
152
12
19
105
58
161
266
224
196
125
91
233
78
270
241
84
47
60
208
36
198
212
83
197
139
54
195
193
94
217
219
93
218
192
226
136
256
123
117
156
252
231
49
80
137
32
107
202
61
232
151
17
50
173
210
255
146
88
228
81
243
95
63
52
34
169
57
171
189
185
187

>  <PUBCHEM_MMFF94_PARTIAL_CHARGES>  (1) 
25
1 -0.57
12 0.3
13 0.06
14 0.57
15 0.54
16 0.09
17 0.1
18 -0.15
19 -0.15
2 -0.57
20 -0.15
21 -0.15
22 0.37
23 0.37
3 -0.44
38 0.37
39 0.15
4 -0.73
40 0.15
41 0.15
42 0.15
43 0.37
5 -0.84
50 0.4
6 -0.39

>  <PUBCHEM_EFFECTIVE_ROTOR_COUNT>  (1) 
12

>  <PUBCHEM_PHARMACOPHORE_FEATURES>  (1) 
8
1 1 acceptor
1 2 acceptor
1 4 donor
1 5 cation
1 6 donor
3 7 8 10 hydrophobe
3 9 11 13 hydrophobe
6 16 17 18 19 20 21 rings

>  <PUBCHEM_HEAVY_ATOM_COUNT>  (1) 
23

>  <PUBCHEM_ATOM_DEF_STEREO_COUNT>  (1) 
0

>  <PUBCHEM_ATOM_UDEF_STEREO_COUNT>  (1) 
0

>  <PUBCHEM_BOND_DEF_STEREO_COUNT>  (1) 
0

>  <PUBCHEM_BOND_UDEF_STEREO_COUNT>  (1) 
0

>  <PUBCHEM_ISOTOPIC_ATOM_COUNT>  (1) 
0

>  <PUBCHEM_COMPONENT_COUNT>  (1) 
1

>  <PUBCHEM_CACTVS_TAUTO_COUNT>  (1) 
6

>  <PUBCHEM_CONFORMER_ID>  (1) 
00000EE400000001

>  <PUBCHEM_MMFF94_ENERGY>  (1) 
54.7527

>  <PUBCHEM_FEATURE_SELFOVERLAP>  (1) 
40.595

>  <PUBCHEM_SHAPE_FINGERPRINT>  (1) 
11273773 42 18273208678349073413
11409948 8 18262250967563993361
12895836 83 18413669115032419323
12895837 130 18339927124761819950
13911852 28 8646185045064726307
14123256 34 9223227455481674972
14251764 75 18270124504908727707
14429114 114 18195246603517122137
14919807 6 18341911680096824756
15519825 34 16298968549113387505
15803439 3 16487251067094125166
16110190 28 18040720294065879340
16120349 189 18409721838260797543
1768 4 18271536316942170433
17780758 139 12613021791051689767
19438510 23 18334016068567578690
21033648 29 18335149665066722071
21196832 93 10447920698900451172
21307412 95 11023528170436514473
21756936 100 18339640143880428038
23559900 14 17833554492944823087
270888 7 18412262805142376255
2748736 6 18412536596290680016
2838139 119 18342454902468928110
393628 179 18200579359217948480
393628 194 18411983550938870053
484985 159 8934733197199070023
5104073 3 17967535644754028027
5219985 13 18411703183773259758
56633871 153 11458719321562865553
57307002 19 17968652710440702661
6327066 14 18413105039707804863
636775 72 18197493146617579744
7808743 9 18411135874369906322

>  <PUBCHEM_SHAPE_MULTIPOLES>  (1) 
440.78
23.75
4.06
1
43.57
0.82
-0.02
-28.4
-3.63
-3.5
0.25
-0.67
-0.16
1.84

>  <PUBCHEM_SHAPE_SELFOVERLAP>  (1) 
877.55

>  <PUBCHEM_SHAPE_VOLUME>  (1) 
260.5

>  <PUBCHEM_COORDINATE_TYPE>  (1) 
2
5
10

$$$$
