38133
     RDKit          3D

 11 11  0  0  0  0  0  0  0  0999 V2000
   -0.9036    0.4157   -0.5766 O   0  0  0  0  0  0  0  0  0  0  0  0
    2.0354    0.4244    0.3046 N   0  0  0  0  0  0  0  0  0  0  0  0
    1.9487   -0.9975   -0.0265 C   0  0  0  0  0  0  0  0  0  0  0  0
    0.7638   -1.2728   -0.9530 C   0  0  0  0  0  0  0  0  0  0  0  0
   -0.5403   -0.8514   -0.3238 C   0  0  0  0  0  0  0  0  0  0  0  0
   -1.4227   -1.5128    0.4543 C   0  0  0  0  0  0  0  0  0  0  0  0
    2.2549    1.2182   -0.9039 C   0  0  0  0  0  0  0  0  0  0  0  0
    3.1066    0.6596    1.2722 C   0  0  0  0  0  0  0  0  0  0  0  0
   -2.0854    0.5829    0.0734 C   0  0  0  0  0  0  0  0  0  0  0  0
   -2.4475   -0.5744    0.7228 C   0  0  0  0  0  0  0  0  0  0  0  0
   -2.7099    1.9080   -0.0435 C   0  0  0  0  0  0  0  0  0  0  0  0
  1  5  1  0
  1  9  1  0
  2  3  1  0
  2  7  1  0
  2  8  1  0
  3  4  1  0
  4  5  1  0
  5  6  2  0
  6 10  1  0
  9 10  2  0
  9 11  1  0
M  END
>  <PUBCHEM_COMPOUND_CID>  (1) 
38133

>  <PUBCHEM_CONFORMER_RMSD>  (1) 
0.6

>  <PUBCHEM_CONFORMER_DIVERSEORDER>  (1) 
5
2
12
8
1
9
3
10
11
6
4
7

>  <PUBCHEM_MMFF94_PARTIAL_CHARGES>  (1) 
13
1 -0.28
10 -0.15
11 0.18
16 0.15
2 -0.81
23 0.15
3 0.27
4 0.18
5 -0.04
6 -0.15
7 0.27
8 0.27
9 -0.04

>  <PUBCHEM_EFFECTIVE_ROTOR_COUNT>  (1) 
3

>  <PUBCHEM_PHARMACOPHORE_FEATURES>  (1) 
3
1 1 acceptor
1 2 cation
5 1 5 6 9 10 rings

>  <PUBCHEM_HEAVY_ATOM_COUNT>  (1) 
11

>  <PUBCHEM_ATOM_DEF_STEREO_COUNT>  (1) 
0

>  <PUBCHEM_ATOM_UDEF_STEREO_COUNT>  (1) 
0

>  <PUBCHEM_BOND_DEF_STEREO_COUNT>  (1) 
0

>  <PUBCHEM_BOND_UDEF_STEREO_COUNT>  (1) 
0

>  <PUBCHEM_ISOTOPIC_ATOM_COUNT>  (1) 
0

>  <PUBCHEM_COMPONENT_COUNT>  (1) 
1

>  <PUBCHEM_CACTVS_TAUTO_COUNT>  (1) 
1

>  <PUBCHEM_CONFORMER_ID>  (1) 
000094F500000005

>  <PUBCHEM_MMFF94_ENERGY>  (1) 
12.8867

>  <PUBCHEM_FEATURE_SELFOVERLAP>  (1) 
15.223

>  <PUBCHEM_SHAPE_FINGERPRINT>  (1) 
10857977 72 18262247727976989923
12251169 10 18113897178050244800
12696612 119 18187087277755092868
12932764 1 17989213658792947046
13839132 238 18337401447768544695
14128692 85 9151167692617066314
14390081 3 18202282485342924585
15775835 57 17774999119936430496
16945 1 18337959020454702623
19973954 147 18409457959448307629
20511035 2 18341892948678965614
20645464 45 18412545383730490123
20653085 51 17487624030977331601
20711985 344 11603909793308579054
21028194 46 18273779345593684626
230 275 18341897372458149140
23211744 41 18342464703331395127
2748010 2 18338529529750934255
305870 269 18341603803070142162
3248919 1 18259701220138985006
369184 2 16805597122617728015
5084963 1 18342188773014843838

>  <PUBCHEM_SHAPE_MULTIPOLES>  (1) 
215.52
4.69
1.76
1.03
1.01
0.24
0.08
1.94
1.18
-0.63
-0.15
0.57
0.04
0.35

>  <PUBCHEM_SHAPE_SELFOVERLAP>  (1) 
430.465

>  <PUBCHEM_SHAPE_VOLUME>  (1) 
131

>  <PUBCHEM_COORDINATE_TYPE>  (1) 
2
5
10

$$$$
