3813
     RDKit          3D

 35 42  0  0  1  0  0  0  0  0999 V2000
    1.6565   -1.2148    1.1812 O   0  0  0  0  0  0  0  0  0  0  0  0
    3.1795    0.3047   -1.6985 O   0  0  0  0  0  0  0  0  0  0  0  0
    4.0555   -2.2678    0.5615 O   0  0  0  0  0  0  0  0  0  0  0  0
    5.2693   -1.0722   -0.9985 O   0  0  0  0  0  0  0  0  0  0  0  0
   -5.4054    0.1540   -0.0169 O   0  0  0  0  0  0  0  0  0  0  0  0
    1.1866    0.8899    0.2576 N   0  0  0  0  0  0  0  0  0  0  0  0
   -0.2591   -1.7097    0.0656 N   0  0  0  0  0  0  0  0  0  0  0  0
   -4.6785    2.3801   -0.0176 N   0  0  0  0  0  0  0  0  0  0  0  0
    2.2599   -0.0681    0.5581 C   0  0  0  0  0  0  0  0  0  0  0  0
    2.9074   -0.6623   -0.7062 C   0  0  0  0  0  0  0  0  0  0  0  0
    1.1391   -2.0240    0.1289 C   0  0  0  0  0  0  0  0  0  0  0  0
    1.8843   -1.6866   -1.1603 C   0  0  0  0  0  0  0  0  0  0  0  0
   -0.1844    0.7431    0.1749 C   0  0  0  0  0  0  0  0  0  0  0  0
   -0.8814   -0.4984    0.1111 C   0  0  0  0  0  0  0  0  0  0  0  0
   -1.0437    1.9017    0.1060 C   0  0  0  0  0  0  0  0  0  0  0  0
   -2.3250   -0.4161    0.0541 C   0  0  0  0  0  0  0  0  0  0  0  0
    3.2452    0.4515    1.6174 C   0  0  0  0  0  0  0  0  0  0  0  0
    1.3121    2.2805    0.0865 C   0  0  0  0  0  0  0  0  0  0  0  0
   -1.3275   -2.5912   -0.0233 C   0  0  0  0  0  0  0  0  0  0  0  0
    0.0215    2.8956    0.0568 C   0  0  0  0  0  0  0  0  0  0  0  0
   -2.4352    1.9670    0.0725 C   0  0  0  0  0  0  0  0  0  0  0  0
   -3.0927    0.7446    0.0585 C   0  0  0  0  0  0  0  0  0  0  0  0
   -2.5612   -1.8666   -0.0202 C   0  0  0  0  0  0  0  0  0  0  0  0
    4.2238   -1.3375   -0.4210 C   0  0  0  0  0  0  0  0  0  0  0  0
   -3.4164    3.0903    0.0167 C   0  0  0  0  0  0  0  0  0  0  0  0
    2.4652    3.0840   -0.0429 C   0  0  0  0  0  0  0  0  0  0  0  0
   -4.5298    0.9968    0.0032 C   0  0  0  0  0  0  0  0  0  0  0  0
   -1.3089   -3.9974   -0.1094 C   0  0  0  0  0  0  0  0  0  0  0  0
   -0.0511    4.3083   -0.0511 C   0  0  0  0  0  0  0  0  0  0  0  0
   -3.7563   -2.6253   -0.1024 C   0  0  0  0  0  0  0  0  0  0  0  0
    2.3476    4.4717   -0.1560 C   0  0  0  0  0  0  0  0  0  0  0  0
    1.1052    5.0804   -0.1507 C   0  0  0  0  0  0  0  0  0  0  0  0
   -2.5134   -4.6961   -0.1867 C   0  0  0  0  0  0  0  0  0  0  0  0
   -3.7227   -4.0206   -0.1822 C   0  0  0  0  0  0  0  0  0  0  0  0
    5.2341   -2.9894    0.9334 C   0  0  0  0  0  0  0  0  0  0  0  0
  1  9  1  0
  1 11  1  0
  2 10  1  0
  3 24  1  0
  3 35  1  0
  4 24  2  0
  5 27  2  0
  6  9  1  0
  6 13  1  0
  6 18  1  0
  7 11  1  0
  7 14  1  0
  7 19  1  0
  8 25  1  0
  8 27  1  0
  9 10  1  0
  9 17  1  0
 10 12  1  0
 10 24  1  0
 11 12  1  0
 13 14  2  0
 13 15  1  0
 14 16  1  0
 15 20  1  0
 15 21  2  0
 16 22  2  0
 16 23  1  0
 18 20  2  0
 18 26  1  0
 19 23  2  0
 19 28  1  0
 20 29  1  0
 21 22  1  0
 21 25  1  0
 22 27  1  0
 23 30  1  0
 26 31  2  0
 28 33  2  0
 29 32  2  0
 30 34  2  0
 31 32  1  0
 33 34  1  0
M  END
>  <PUBCHEM_COMPOUND_CID>  (1) 
3813

>  <PUBCHEM_CONFORMER_RMSD>  (1) 
0.8

>  <PUBCHEM_CONFORMER_DIVERSEORDER>  (1) 
1
3
4
2

>  <PUBCHEM_MMFF94_PARTIAL_CHARGES>  (1) 
41
1 -0.56
10 0.34
11 0.54
13 -0.05
14 -0.05
15 -0.01
16 -0.01
18 -0.15
19 -0.15
2 -0.68
21 -0.14
22 0.09
24 0.66
25 0.44
26 -0.15
27 0.54
28 -0.15
29 -0.15
3 -0.43
30 -0.15
31 -0.15
32 -0.15
33 -0.15
34 -0.15
35 0.28
4 -0.57
42 0.4
45 0.15
46 0.15
47 0.15
48 0.15
49 0.37
5 -0.57
50 0.15
51 0.15
52 0.15
53 0.15
6 -0.04
7 -0.04
8 -0.73
9 0.54

>  <PUBCHEM_EFFECTIVE_ROTOR_COUNT>  (1) 
3

>  <PUBCHEM_PHARMACOPHORE_FEATURES>  (1) 
16
1 1 acceptor
1 2 acceptor
1 2 donor
1 4 acceptor
1 5 acceptor
1 6 cation
1 7 cation
1 8 donor
5 1 9 10 11 12 rings
5 6 13 15 18 20 rings
5 7 14 16 19 23 rings
5 8 21 22 25 27 rings
6 13 14 15 16 21 22 rings
6 18 20 26 29 31 32 rings
6 19 23 28 30 33 34 rings
7 1 6 7 9 11 13 14 rings

>  <PUBCHEM_HEAVY_ATOM_COUNT>  (1) 
35

>  <PUBCHEM_ATOM_DEF_STEREO_COUNT>  (1) 
0

>  <PUBCHEM_ATOM_UDEF_STEREO_COUNT>  (1) 
3

>  <PUBCHEM_BOND_DEF_STEREO_COUNT>  (1) 
0

>  <PUBCHEM_BOND_UDEF_STEREO_COUNT>  (1) 
0

>  <PUBCHEM_ISOTOPIC_ATOM_COUNT>  (1) 
0

>  <PUBCHEM_COMPONENT_COUNT>  (1) 
1

>  <PUBCHEM_CACTVS_TAUTO_COUNT>  (1) 
2

>  <PUBCHEM_CONFORMER_ID>  (1) 
00000EE500000001

>  <PUBCHEM_MMFF94_ENERGY>  (1) 
141.6651

>  <PUBCHEM_FEATURE_SELFOVERLAP>  (1) 
83.024

>  <PUBCHEM_SHAPE_FINGERPRINT>  (1) 
10675989 125 16821643043664957829
10930396 42 17978753910937610314
1100329 8 18411140229761617401
11513181 2 17913776290781806279
11578080 2 17417237883275940371
12058002 1 17344096020517688785
12553582 1 18265888073300498661
12788726 201 18119545245318902566
13140716 1 18412819187953457296
138480 1 15168264411743353794
13911987 19 18118963585976698981
140371 6 18201169758048343012
14117953 113 18122903127807515837
14223421 5 18051132785276545845
14790565 3 18123480375322339553
14955137 171 18193017962071378777
15320467 1 18266741285759565863
15439362 3 18410006671865932437
15484559 13 18051676765018889007
15513586 35 16321381040962363936
15927050 60 18195534911543824517
15950262 2 15625361434416465953
16112460 7 18270697449615089625
16728300 4 17252819199703055536
17492 89 18266739275910615315
17818456 19 18118965789706637554
18681886 176 18338226064594279401
19311894 1 18339077077836334367
19319366 153 17749394702450839186
19591789 44 18123190095889025139
20028762 73 18273491257290745063
20600515 1 18271523096436714232
20642791 105 17687176496784466472
20775438 99 17694177409572478535
20905425 154 18053392281428987253
21033648 29 18058151861450357833
21133410 32 16156274003329133378
21421861 104 18048035465221175075
21796203 349 17976579110749345113
22113638 7 18338514145014556053
23366157 5 18116994596905908884
23559900 14 18342454884909250552
283562 15 17838334077699310016
3178227 256 18266193751303983825
350125 39 17906168808304743257
3882209 13 17836604812107282095
4280585 95 18411700993898386588
469060 322 17980211785329789473
484989 97 18336543902737086591
5265222 85 17474681547006905838
59755656 215 17906173210856789805
70251023 43 18192434288727337163
9709674 26 18268427004926255151
9981440 41 17472135077427383472

>  <PUBCHEM_SHAPE_MULTIPOLES>  (1) 
675.99
8.76
6.94
0.9
0.96
2.66
0.01
-4.57
0.16
0.17
0.18
-0.92
-0.29
-0.51

>  <PUBCHEM_SHAPE_SELFOVERLAP>  (1) 
1581.756

>  <PUBCHEM_SHAPE_VOLUME>  (1) 
340.6

>  <PUBCHEM_COORDINATE_TYPE>  (1) 
2
5
10

$$$$
