38141
     RDKit          3D

 26 28  0  0  1  0  0  0  0  0999 V2000
   -5.9645   -1.1394    1.9148 Cl  0  0  0  0  0  0  0  0  0  0  0  0
    4.7122    0.4973    1.1298 O   0  0  0  0  0  0  0  0  0  0  0  0
   -3.1419    1.2580    0.3270 N   0  0  0  0  0  0  0  0  0  0  0  0
   -0.5615    0.2918   -1.8605 N   0  0  0  0  0  0  0  0  0  0  0  0
    2.6022   -1.1465    0.4825 N   0  0  0  0  0  0  0  0  0  0  0  0
   -2.9814    1.8043   -1.0149 C   0  0  0  0  0  0  0  0  0  0  0  0
   -2.9459    0.7044   -2.0805 C   0  0  0  0  0  0  0  0  0  0  0  0
   -1.8410   -0.3336   -1.8869 C   0  0  0  0  0  0  0  0  0  0  0  0
    0.5112   -0.1960   -1.0659 C   0  0  0  0  0  0  0  0  0  0  0  0
   -4.3615    0.4525    0.4136 C   0  0  0  0  0  0  0  0  0  0  0  0
   -3.1721    2.3325    1.3210 C   0  0  0  0  0  0  0  0  0  0  0  0
    1.5772    0.6507   -0.7455 C   0  0  0  0  0  0  0  0  0  0  0  0
    0.4919   -1.5185   -0.6116 C   0  0  0  0  0  0  0  0  0  0  0  0
    2.6160    0.1264    0.0422 C   0  0  0  0  0  0  0  0  0  0  0  0
    1.5733   -1.9581    0.1706 C   0  0  0  0  0  0  0  0  0  0  0  0
   -4.4940   -0.1426    1.8069 C   0  0  0  0  0  0  0  0  0  0  0  0
   -1.8864    3.1416    1.2941 C   0  0  0  0  0  0  0  0  0  0  0  0
    1.6231    1.9838   -1.1892 C   0  0  0  0  0  0  0  0  0  0  0  0
   -0.5664   -2.3915   -0.9189 C   0  0  0  0  0  0  0  0  0  0  0  0
    3.6801    0.9646    0.3646 C   0  0  0  0  0  0  0  0  0  0  0  0
    1.5601   -3.2740    0.6253 C   0  0  0  0  0  0  0  0  0  0  0  0
    2.6984    2.8009   -0.8533 C   0  0  0  0  0  0  0  0  0  0  0  0
    3.7288    2.2899   -0.0747 C   0  0  0  0  0  0  0  0  0  0  0  0
   -0.5554   -3.7027   -0.4521 C   0  0  0  0  0  0  0  0  0  0  0  0
    0.5104   -4.1445    0.3213 C   0  0  0  0  0  0  0  0  0  0  0  0
    4.5872    0.6487    2.5402 C   0  0  0  0  0  0  0  0  0  0  0  0
  1 16  1  0
  2 20  1  0
  2 26  1  0
  3  6  1  0
  3 10  1  0
  3 11  1  0
  4  8  1  0
  4  9  1  0
  5 14  2  0
  5 15  1  0
  6  7  1  0
  7  8  1  0
  9 12  2  0
  9 13  1  0
 10 16  1  0
 11 17  1  0
 12 14  1  0
 12 18  1  0
 13 15  2  0
 13 19  1  0
 14 20  1  0
 15 21  1  0
 18 22  2  0
 19 24  2  0
 20 23  2  0
 21 25  2  0
 22 23  1  0
 24 25  1  0
M  END
>  <PUBCHEM_COMPOUND_CID>  (1) 
38141

>  <PUBCHEM_CONFORMER_RMSD>  (1) 
1

>  <PUBCHEM_CONFORMER_DIVERSEORDER>  (1) 
1
14
49
29
41
16
9
48
51
45
36
57
23
13
25
39
18
28
26
10
56
37
47
6
54
34
7
24
8
32
2
30
12
38
22
3
42
33
35
46
15
21
50
27
40
17
5
20
52
53
19
4
55
11
44
31
43

>  <PUBCHEM_MMFF94_PARTIAL_CHARGES>  (1) 
30
1 -0.29
10 0.27
11 0.27
14 0.31
15 0.31
16 0.29
18 -0.15
19 -0.15
2 -0.36
20 0.08
21 -0.15
22 -0.15
23 -0.15
24 -0.15
25 -0.15
26 0.28
3 -0.81
33 0.4
4 -0.87
43 0.15
44 0.15
45 0.15
46 0.15
47 0.15
48 0.15
49 0.15
5 -0.62
6 0.27
8 0.37
9 0.1

>  <PUBCHEM_EFFECTIVE_ROTOR_COUNT>  (1) 
9

>  <PUBCHEM_PHARMACOPHORE_FEATURES>  (1) 
8
1 2 acceptor
1 3 cation
1 4 cation
1 4 donor
1 5 acceptor
6 12 14 18 20 22 23 rings
6 13 15 19 21 24 25 rings
6 5 9 12 13 14 15 rings

>  <PUBCHEM_HEAVY_ATOM_COUNT>  (1) 
26

>  <PUBCHEM_ATOM_DEF_STEREO_COUNT>  (1) 
0

>  <PUBCHEM_ATOM_UDEF_STEREO_COUNT>  (1) 
0

>  <PUBCHEM_BOND_DEF_STEREO_COUNT>  (1) 
0

>  <PUBCHEM_BOND_UDEF_STEREO_COUNT>  (1) 
0

>  <PUBCHEM_ISOTOPIC_ATOM_COUNT>  (1) 
0

>  <PUBCHEM_COMPONENT_COUNT>  (1) 
1

>  <PUBCHEM_CACTVS_TAUTO_COUNT>  (1) 
2

>  <PUBCHEM_CONFORMER_ID>  (1) 
000094FD00000001

>  <PUBCHEM_MMFF94_ENERGY>  (1) 
118.3831

>  <PUBCHEM_FEATURE_SELFOVERLAP>  (1) 
40.661

>  <PUBCHEM_SHAPE_FINGERPRINT>  (1) 
1100329 8 17835533987008927925
11640471 11 17988354871687434117
12363563 72 15647350649339100533
12788726 201 17906450279318464894
13140716 1 17972850787658570556
13583140 156 18193279594441762589
13965767 371 17772193002933094589
14341114 328 18200047251777438201
14787075 74 18199754820386465973
14955137 171 17768538187986286502
15163728 17 15984816108010154320
15475509 84 16744266583338931787
17974551 9 17693939592442939737
19591789 44 18049708639094464622
1979834 28 18044124382788056267
20510252 161 17832129898903377526
20739085 24 18191583043741806628
20764821 26 18055064634520535625
21756936 100 18130791213061245380
23559900 14 18120384159726788153
23572383 38 17822023042773168699
25222932 49 14928498854834775145
352729 6 18120358011776499726
3797600 57 17916885555420444441
392239 28 18270963565530137107
469060 322 18337661040514623119
474 4 18339068307306751333
6438718 38 17771913988919254503
7097593 13 17834690300902497245
90316 7 9761985391760071140

>  <PUBCHEM_SHAPE_MULTIPOLES>  (1) 
516.13
9.19
4.41
2.04
5.98
3.47
0.31
-4.16
6.8
-0.77
0.33
0.95
-0.56
-0.15

>  <PUBCHEM_SHAPE_SELFOVERLAP>  (1) 
1091.448

>  <PUBCHEM_SHAPE_VOLUME>  (1) 
291.7

>  <PUBCHEM_COORDINATE_TYPE>  (1) 
2
5
10

$$$$
