38147
     RDKit          3D

 29 31  0  0  1  0  0  0  0  0999 V2000
   -8.4204   -1.8626    1.7018 Cl  0  0  0  0  0  0  0  0  0  0  0  0
    7.4080   -2.6083   -0.3976 Cl  0  0  0  0  0  0  0  0  0  0  0  0
   -1.9606   -1.0192    0.3773 O   0  0  0  0  0  0  0  0  0  0  0  0
   -0.7865    3.6291    0.4178 O   0  0  0  0  0  0  0  0  0  0  0  0
   -5.4426   -0.4959   -0.6511 N   0  0  0  0  0  0  0  0  0  0  0  0
    0.8291   -1.1440   -0.1038 N   0  0  0  0  0  0  0  0  0  0  0  0
    4.2209    1.3120    0.0711 N   0  0  0  0  0  0  0  0  0  0  0  0
   -4.0847   -0.1380   -0.3131 C   0  0  0  0  0  0  0  0  0  0  0  0
    1.9791   -0.3112   -0.0435 C   0  0  0  0  0  0  0  0  0  0  0  0
   -3.3029   -1.3795    0.0817 C   0  0  0  0  0  0  0  0  0  0  0  0
    1.8271    1.0716    0.1000 C   0  0  0  0  0  0  0  0  0  0  0  0
   -6.2519   -0.7031    0.5571 C   0  0  0  0  0  0  0  0  0  0  0  0
   -6.0659    0.5316   -1.4958 C   0  0  0  0  0  0  0  0  0  0  0  0
    3.2532   -0.8816   -0.1295 C   0  0  0  0  0  0  0  0  0  0  0  0
    0.2352   -1.7152    1.0579 C   0  0  0  0  0  0  0  0  0  0  0  0
   -1.1875   -2.1521    0.7531 C   0  0  0  0  0  0  0  0  0  0  0  0
    2.9916    1.8563    0.1536 C   0  0  0  0  0  0  0  0  0  0  0  0
    4.3617   -0.0205   -0.0670 C   0  0  0  0  0  0  0  0  0  0  0  0
    0.5590    1.6718    0.1889 C   0  0  0  0  0  0  0  0  0  0  0  0
   -7.4235   -1.6218    0.2472 C   0  0  0  0  0  0  0  0  0  0  0  0
   -5.2985    0.7146   -2.7941 C   0  0  0  0  0  0  0  0  0  0  0  0
    3.4353   -2.2680   -0.2741 C   0  0  0  0  0  0  0  0  0  0  0  0
    2.8468    3.2337    0.2963 C   0  0  0  0  0  0  0  0  0  0  0  0
    5.6328   -0.5825   -0.1523 C   0  0  0  0  0  0  0  0  0  0  0  0
    0.4416    3.0511    0.3312 C   0  0  0  0  0  0  0  0  0  0  0  0
    1.5881    3.8335    0.3850 C   0  0  0  0  0  0  0  0  0  0  0  0
    4.7167   -2.8046   -0.3571 C   0  0  0  0  0  0  0  0  0  0  0  0
    5.8175   -1.9598   -0.2961 C   0  0  0  0  0  0  0  0  0  0  0  0
   -1.9189    2.7627    0.3552 C   0  0  0  0  0  0  0  0  0  0  0  0
  1 20  1  0
  2 28  1  0
  3 10  1  0
  3 16  1  0
  4 25  1  0
  4 29  1  0
  5  8  1  0
  5 12  1  0
  5 13  1  0
  6  9  1  0
  6 15  1  0
  7 17  2  0
  7 18  1  0
  8 10  1  0
  9 11  2  0
  9 14  1  0
 11 17  1  0
 11 19  1  0
 12 20  1  0
 13 21  1  0
 14 18  2  0
 14 22  1  0
 15 16  1  0
 17 23  1  0
 18 24  1  0
 19 25  2  0
 22 27  2  0
 23 26  2  0
 24 28  2  0
 25 26  1  0
 27 28  1  0
M  END
>  <PUBCHEM_COMPOUND_CID>  (1) 
38147

>  <PUBCHEM_CONFORMER_RMSD>  (1) 
1.2

>  <PUBCHEM_CONFORMER_DIVERSEORDER>  (1) 
3
51
37
57
88
16
69
66
83
40
64
41
56
27
89
82
77
31
70
43
19
73
71
91
85
72
28
45
67
58
34
49
6
53
80
60
62
39
90
76
30
32
50
11
87
22
59
35
48
79
86
14
20
65
78
33
54
42
63
55
44
84
74
29
1
46
13
61
26
36
52
24
68
5
21
4
47
10
75
12
7
15
18
2
38
17
9
23
8
81
25

>  <PUBCHEM_MMFF94_PARTIAL_CHARGES>  (1) 
33
1 -0.29
10 0.28
12 0.27
13 0.27
15 0.37
16 0.28
17 0.31
18 0.31
19 -0.15
2 -0.18
20 0.29
22 -0.15
23 -0.15
24 -0.15
25 0.08
26 -0.15
27 -0.15
28 0.18
29 0.28
3 -0.56
4 -0.36
40 0.4
43 0.15
49 0.15
5 -0.81
50 0.15
51 0.15
52 0.15
53 0.15
6 -0.87
7 -0.62
8 0.27
9 0.1

>  <PUBCHEM_EFFECTIVE_ROTOR_COUNT>  (1) 
11

>  <PUBCHEM_PHARMACOPHORE_FEATURES>  (1) 
9
1 3 acceptor
1 4 acceptor
1 5 cation
1 6 cation
1 6 donor
1 7 acceptor
6 11 17 19 23 25 26 rings
6 14 18 22 24 27 28 rings
6 7 9 11 14 17 18 rings

>  <PUBCHEM_HEAVY_ATOM_COUNT>  (1) 
29

>  <PUBCHEM_ATOM_DEF_STEREO_COUNT>  (1) 
0

>  <PUBCHEM_ATOM_UDEF_STEREO_COUNT>  (1) 
0

>  <PUBCHEM_BOND_DEF_STEREO_COUNT>  (1) 
0

>  <PUBCHEM_BOND_UDEF_STEREO_COUNT>  (1) 
0

>  <PUBCHEM_ISOTOPIC_ATOM_COUNT>  (1) 
0

>  <PUBCHEM_COMPONENT_COUNT>  (1) 
1

>  <PUBCHEM_CACTVS_TAUTO_COUNT>  (1) 
2

>  <PUBCHEM_CONFORMER_ID>  (1) 
0000950300000003

>  <PUBCHEM_MMFF94_ENERGY>  (1) 
100.7659

>  <PUBCHEM_FEATURE_SELFOVERLAP>  (1) 
45.732

>  <PUBCHEM_SHAPE_FINGERPRINT>  (1) 
10411042 1 18339928117569126186
11646440 116 18412546535287894321
12166972 35 18113341920689225549
12645989 146 18342741801657537550
12788726 201 18262800636803607186
13402501 40 18261387893163109837
13533116 47 18270965751431529601
13782708 43 18040432226936919595
14040221 97 18042681892384390044
14681490 219 18337951199356264279
14931854 50 18191005838829191685
150020 25 18114449146991395223
15081414 286 18338233877209057177
15183329 4 18342451522192931863
15351339 4 17970618606796817979
15400415 2 17259339394225256161
15419008 47 18040435504049272437
15483637 11 18266179418666242369
16087824 20 18195530298728037801
20028762 73 18273214162299915886
20642791 13 18268433426403691434
21267235 1 18411706469322637122
21279426 13 18335130965227176965
21792961 116 18113627746705917658
221357 26 18409162199563312445
23536364 44 18192981639127021797
23559900 14 18340199795208600144
24771750 20 18118135889980653500
3004659 81 18186518791884264894
46194498 28 17677328458860609845
484989 97 18334014969150811316
508706 21 17749937986529304727

>  <PUBCHEM_SHAPE_MULTIPOLES>  (1) 
573.86
19.44
4.36
1.21
26.79
3.85
0.69
-17.77
1.29
-3.98
-0.91
2.97
-0.03
2.65

>  <PUBCHEM_SHAPE_SELFOVERLAP>  (1) 
1193.654

>  <PUBCHEM_SHAPE_VOLUME>  (1) 
330.8

>  <PUBCHEM_COORDINATE_TYPE>  (1) 
2
5
10

$$$$
