38143
     RDKit          3D

 23 25  0  0  0  0  0  0  0  0999 V2000
   -5.5815   -2.5818    1.0703 Cl  0  0  0  0  0  0  0  0  0  0  0  0
   -3.8237    0.1880    0.3780 S   0  0  0  0  0  0  0  0  0  0  0  0
    3.7454   -2.3352    0.7910 O   0  0  0  0  0  0  0  0  0  0  0  0
   -1.1994    0.5958   -1.1467 N   0  0  0  0  0  0  0  0  0  0  0  0
    2.6211    0.1622    0.5218 N   0  0  0  0  0  0  0  0  0  0  0  0
    0.0963    0.4488   -0.5812 C   0  0  0  0  0  0  0  0  0  0  0  0
    0.6551   -0.8266   -0.4510 C   0  0  0  0  0  0  0  0  0  0  0  0
    0.8010    1.5808   -0.1592 C   0  0  0  0  0  0  0  0  0  0  0  0
    1.9380   -0.9248    0.1138 C   0  0  0  0  0  0  0  0  0  0  0  0
    2.0781    1.3884    0.3941 C   0  0  0  0  0  0  0  0  0  0  0  0
   -1.9970    1.7580   -0.9421 C   0  0  0  0  0  0  0  0  0  0  0  0
   -0.0306   -1.9814   -0.8664 C   0  0  0  0  0  0  0  0  0  0  0  0
    2.4999   -2.1918    0.2460 C   0  0  0  0  0  0  0  0  0  0  0  0
    0.2635    2.8743   -0.2778 C   0  0  0  0  0  0  0  0  0  0  0  0
   -3.4729    1.3801   -0.9468 C   0  0  0  0  0  0  0  0  0  0  0  0
    2.7848    2.5115    0.8160 C   0  0  0  0  0  0  0  0  0  0  0  0
    0.5534   -3.2365   -0.7232 C   0  0  0  0  0  0  0  0  0  0  0  0
    1.8213   -3.3415   -0.1658 C   0  0  0  0  0  0  0  0  0  0  0  0
    0.9904    3.9806    0.1517 C   0  0  0  0  0  0  0  0  0  0  0  0
    2.2536    3.7984    0.6997 C   0  0  0  0  0  0  0  0  0  0  0  0
   -5.5937   -0.0218    0.0793 C   0  0  0  0  0  0  0  0  0  0  0  0
    4.8494   -2.2934   -0.1076 C   0  0  0  0  0  0  0  0  0  0  0  0
   -6.2526   -0.9321    1.1061 C   0  0  0  0  0  0  0  0  0  0  0  0
  1 23  1  0
  2 15  1  0
  2 21  1  0
  3 13  1  0
  3 22  1  0
  4  6  1  0
  4 11  1  0
  5  9  2  0
  5 10  1  0
  6  7  2  0
  6  8  1  0
  7  9  1  0
  7 12  1  0
  8 10  2  0
  8 14  1  0
  9 13  1  0
 10 16  1  0
 11 15  1  0
 12 17  2  0
 13 18  2  0
 14 19  2  0
 16 20  2  0
 17 18  1  0
 19 20  1  0
 21 23  1  0
M  END
>  <PUBCHEM_COMPOUND_CID>  (1) 
38143

>  <PUBCHEM_CONFORMER_RMSD>  (1) 
0.8

>  <PUBCHEM_CONFORMER_DIVERSEORDER>  (1) 
1
23
37
45
13
4
5
10
30
35
43
44
26
32
7
24
29
25
41
18
36
11
9
12
3
6
40
42
8
20
28
27
17
22
34
16
21
33
14
15
2
31
19
38
39

>  <PUBCHEM_MMFF94_PARTIAL_CHARGES>  (1) 
29
1 -0.29
10 0.31
11 0.37
12 -0.15
13 0.08
14 -0.15
15 0.23
16 -0.15
17 -0.15
18 -0.15
19 -0.15
2 -0.46
20 -0.15
21 0.23
22 0.28
23 0.29
24 0.4
27 0.15
28 0.15
3 -0.36
31 0.15
32 0.15
33 0.15
34 0.15
35 0.15
4 -0.87
5 -0.62
6 0.1
9 0.31

>  <PUBCHEM_EFFECTIVE_ROTOR_COUNT>  (1) 
7

>  <PUBCHEM_PHARMACOPHORE_FEATURES>  (1) 
7
1 3 acceptor
1 4 cation
1 4 donor
1 5 acceptor
6 5 6 7 8 9 10 rings
6 7 9 12 13 17 18 rings
6 8 10 14 16 19 20 rings

>  <PUBCHEM_HEAVY_ATOM_COUNT>  (1) 
23

>  <PUBCHEM_ATOM_DEF_STEREO_COUNT>  (1) 
0

>  <PUBCHEM_ATOM_UDEF_STEREO_COUNT>  (1) 
0

>  <PUBCHEM_BOND_DEF_STEREO_COUNT>  (1) 
0

>  <PUBCHEM_BOND_UDEF_STEREO_COUNT>  (1) 
0

>  <PUBCHEM_ISOTOPIC_ATOM_COUNT>  (1) 
0

>  <PUBCHEM_COMPONENT_COUNT>  (1) 
1

>  <PUBCHEM_CACTVS_TAUTO_COUNT>  (1) 
2

>  <PUBCHEM_CONFORMER_ID>  (1) 
000094FF00000001

>  <PUBCHEM_MMFF94_ENERGY>  (1) 
115.7706

>  <PUBCHEM_FEATURE_SELFOVERLAP>  (1) 
35.586

>  <PUBCHEM_SHAPE_FINGERPRINT>  (1) 
10967382 1 18268690767684930852
1100329 8 18269265932525471872
11227688 84 18053651478722415127
114674 6 18259706701092579971
12035758 1 18341596119642565042
12553582 1 18053641617387020158
12633257 1 18339375050351336075
12788726 201 17401750935433701992
13140716 1 18267561594997249386
14363568 33 18412821383093656616
14787075 74 18115033987311656410
14790565 3 17687470482573902597
14866123 147 17834950150819352816
14955137 171 18342461387569150614
15475509 84 17986961752291518953
15927050 60 18125721442439221348
18785283 64 18410574023811438048
19591789 44 18340761564457685924
1979834 28 18190753127448804841
20028762 73 18131059442586331823
20739085 24 18412267198867942568
21049683 271 18334586737031093220
21197605 99 17903926896270814235
221490 88 18336823100589683597
23559900 14 18408879621318388545
23572383 38 17969785383975044899
23845131 108 17979344593273392785
2748010 2 17765117646277937676
3117164 225 18197230153022352577
3178227 256 18337960098623739816
3421961 26 18410013226143242225
350125 39 18338518663430823732
352729 6 17401453419323385316
4015057 19 18267846343235263013
5309563 4 18339357453516876591
6442390 28 18051134997169086941
7495541 125 18335423439293359423
8863177 126 18333734624225435107

>  <PUBCHEM_SHAPE_MULTIPOLES>  (1) 
463.22
9.96
5.23
1.03
19.38
1.12
0.02
-5.89
-4.02
-5.23
-0.35
0.59
0
1.63

>  <PUBCHEM_SHAPE_SELFOVERLAP>  (1) 
975.854

>  <PUBCHEM_SHAPE_VOLUME>  (1) 
263.5

>  <PUBCHEM_COORDINATE_TYPE>  (1) 
2
5
10

$$$$
