38151
     RDKit          3D

 24 26  0  0  0  0  0  0  0  0999 V2000
    3.0865    5.2843    0.1222 Cl  0  0  0  0  0  0  0  0  0  0  0  0
   -6.2706    1.4474    2.0345 Cl  0  0  0  0  0  0  0  0  0  0  0  0
   -3.6916    0.4382    0.1450 S   0  0  0  0  0  0  0  0  0  0  0  0
    0.5822   -4.6372    0.0490 O   0  0  0  0  0  0  0  0  0  0  0  0
   -0.8778   -0.0865   -0.9418 N   0  0  0  0  0  0  0  0  0  0  0  0
    3.0109    0.2270    0.5555 N   0  0  0  0  0  0  0  0  0  0  0  0
    0.5135   -2.3315   -0.1898 N   0  0  0  0  0  0  0  0  0  0  0  0
    0.4453    0.0290   -0.4329 C   0  0  0  0  0  0  0  0  0  0  0  0
    1.0453    1.2886   -0.3130 C   0  0  0  0  0  0  0  0  0  0  0  0
    1.1124   -1.1303   -0.0650 C   0  0  0  0  0  0  0  0  0  0  0  0
    2.3516    1.3420    0.1946 C   0  0  0  0  0  0  0  0  0  0  0  0
   -1.6882   -1.2343   -0.7119 C   0  0  0  0  0  0  0  0  0  0  0  0
    2.4131   -0.9749    0.4311 C   0  0  0  0  0  0  0  0  0  0  0  0
    0.3769    2.4690   -0.6832 C   0  0  0  0  0  0  0  0  0  0  0  0
   -3.1515   -0.8938   -0.9655 C   0  0  0  0  0  0  0  0  0  0  0  0
    2.9584    2.5893    0.3186 C   0  0  0  0  0  0  0  0  0  0  0  0
    3.0869   -2.1327    0.8015 C   0  0  0  0  0  0  0  0  0  0  0  0
    1.0042    3.7044   -0.5502 C   0  0  0  0  0  0  0  0  0  0  0  0
    2.2979    3.7642   -0.0481 C   0  0  0  0  0  0  0  0  0  0  0  0
    1.2079   -3.4268    0.1831 C   0  0  0  0  0  0  0  0  0  0  0  0
    2.4908   -3.3817    0.6821 C   0  0  0  0  0  0  0  0  0  0  0  0
   -5.4039    0.5701   -0.4179 C   0  0  0  0  0  0  0  0  0  0  0  0
   -6.1581    1.6966    0.2743 C   0  0  0  0  0  0  0  0  0  0  0  0
   -0.7421   -4.6202   -0.4719 C   0  0  0  0  0  0  0  0  0  0  0  0
  1 19  1  0
  2 23  1  0
  3 15  1  0
  3 22  1  0
  4 20  1  0
  4 24  1  0
  5  8  1  0
  5 12  1  0
  6 11  2  0
  6 13  1  0
  7 10  1  0
  7 20  2  0
  8  9  2  0
  8 10  1  0
  9 11  1  0
  9 14  1  0
 10 13  2  0
 11 16  1  0
 12 15  1  0
 13 17  1  0
 14 18  2  0
 16 19  2  0
 17 21  2  0
 18 19  1  0
 20 21  1  0
 22 23  1  0
M  END
>  <PUBCHEM_COMPOUND_CID>  (1) 
38151

>  <PUBCHEM_CONFORMER_RMSD>  (1) 
0.8

>  <PUBCHEM_CONFORMER_DIVERSEORDER>  (1) 
2
19
32
22
24
28
33
17
7
25
30
1
23
31
34
27
13
18
3
21
20
36
8
16
9
11
29
10
6
4
12
26
15
35
5
14

>  <PUBCHEM_MMFF94_PARTIAL_CHARGES>  (1) 
29
1 -0.18
10 0.31
11 0.31
12 0.37
13 0.31
14 -0.15
15 0.23
16 -0.15
17 -0.15
18 -0.15
19 0.18
2 -0.29
20 0.39
21 -0.15
22 0.23
23 0.29
24 0.28
25 0.4
28 0.15
3 -0.46
31 0.15
32 0.15
33 0.15
34 0.15
4 -0.36
5 -0.87
6 -0.62
7 -0.62
8 0.1

>  <PUBCHEM_EFFECTIVE_ROTOR_COUNT>  (1) 
7

>  <PUBCHEM_PHARMACOPHORE_FEATURES>  (1) 
6
1 5 cation
1 5 donor
1 6 acceptor
6 6 8 9 10 11 13 rings
6 7 10 13 17 20 21 rings
6 9 11 14 16 18 19 rings

>  <PUBCHEM_HEAVY_ATOM_COUNT>  (1) 
24

>  <PUBCHEM_ATOM_DEF_STEREO_COUNT>  (1) 
0

>  <PUBCHEM_ATOM_UDEF_STEREO_COUNT>  (1) 
0

>  <PUBCHEM_BOND_DEF_STEREO_COUNT>  (1) 
0

>  <PUBCHEM_BOND_UDEF_STEREO_COUNT>  (1) 
0

>  <PUBCHEM_ISOTOPIC_ATOM_COUNT>  (1) 
0

>  <PUBCHEM_COMPONENT_COUNT>  (1) 
1

>  <PUBCHEM_CACTVS_TAUTO_COUNT>  (1) 
2

>  <PUBCHEM_CONFORMER_ID>  (1) 
0000950700000002

>  <PUBCHEM_MMFF94_ENERGY>  (1) 
89.6797

>  <PUBCHEM_FEATURE_SELFOVERLAP>  (1) 
30.512

>  <PUBCHEM_SHAPE_FINGERPRINT>  (1) 
10411042 1 18049997792655477470
10937287 8 18194963174076590497
1100329 8 18265321980084728714
12107183 9 18047448296617753992
12553582 1 18122047728798358870
12788726 201 17540818295728347195
12954195 1 17255126065513832460
13140716 1 18263636428078710150
13785724 45 17694512451339521823
138480 1 18265889164200709717
13878862 14 18189876670684637757
14178342 30 17762315304407248120
14790565 3 18263926720893292620
15081414 286 18267864991075367847
15420108 30 18194384801027108200
15475509 8 17986691302336665868
15664445 248 18199198303930343486
15927050 60 18194965373321106654
19591789 44 18336256938390848660
20157964 124 18410003339724639141
20510252 161 17113252802773226962
20739085 24 18336827489755882228
23558518 356 17685208774438911694
23845131 108 18191301787782093267
23929065 36 16974189862111602832
3091708 16 9687522598614005180
3178227 256 18335150795022727736
474 4 18338792420567730609
5104073 3 15594685511252538904
633830 44 18271525424145569509
6443956 14 18264485079367619799
79837 15 17904476664314930489
9981440 41 18120650499138995713

>  <PUBCHEM_SHAPE_MULTIPOLES>  (1) 
480.69
9.34
7.17
1.03
22.74
1.11
0.29
-8.46
3.74
-7.89
0.1
1.15
-0.16
-1.69

>  <PUBCHEM_SHAPE_SELFOVERLAP>  (1) 
1003.727

>  <PUBCHEM_SHAPE_VOLUME>  (1) 
277.7

>  <PUBCHEM_COORDINATE_TYPE>  (1) 
2
5
10

$$$$
