38155
     RDKit          3D

 29 31  0  0  1  0  0  0  0  0999 V2000
    5.6895   -0.2537   -2.9341 Cl  0  0  0  0  0  0  0  0  0  0  0  0
    1.4118    5.3719    0.0923 Cl  0  0  0  0  0  0  0  0  0  0  0  0
    1.5480   -2.4067    0.4982 O   0  0  0  0  0  0  0  0  0  0  0  0
   -5.1239   -2.4987   -0.1350 O   0  0  0  0  0  0  0  0  0  0  0  0
    4.0420   -1.0502    0.6608 N   0  0  0  0  0  0  0  0  0  0  0  0
   -0.5161   -1.0424   -0.8205 N   0  0  0  0  0  0  0  0  0  0  0  0
   -2.6604    2.3511    0.3408 N   0  0  0  0  0  0  0  0  0  0  0  0
   -3.2033   -1.2069   -0.2789 N   0  0  0  0  0  0  0  0  0  0  0  0
    3.8047   -2.3170    1.3132 C   0  0  0  0  0  0  0  0  0  0  0  0
    2.7770   -3.1189    0.5328 C   0  0  0  0  0  0  0  0  0  0  0  0
    4.8867   -1.2179   -0.5292 C   0  0  0  0  0  0  0  0  0  0  0  0
    4.6659   -0.0901    1.5807 C   0  0  0  0  0  0  0  0  0  0  0  0
   -1.2387    0.1175   -0.4261 C   0  0  0  0  0  0  0  0  0  0  0  0
   -0.7388   -2.3193   -0.2314 C   0  0  0  0  0  0  0  0  0  0  0  0
    0.5521   -3.1203   -0.2237 C   0  0  0  0  0  0  0  0  0  0  0  0
   -0.5828    1.3496   -0.3118 C   0  0  0  0  0  0  0  0  0  0  0  0
   -2.5943   -0.0099   -0.1618 C   0  0  0  0  0  0  0  0  0  0  0  0
   -1.3453    2.4591    0.0813 C   0  0  0  0  0  0  0  0  0  0  0  0
   -3.2705    1.1546    0.2240 C   0  0  0  0  0  0  0  0  0  0  0  0
    4.6837   -0.0484   -1.4801 C   0  0  0  0  0  0  0  0  0  0  0  0
    3.7800    0.1694    2.7873 C   0  0  0  0  0  0  0  0  0  0  0  0
    0.7909    1.4884   -0.5775 C   0  0  0  0  0  0  0  0  0  0  0  0
   -0.7040    3.6897    0.1982 C   0  0  0  0  0  0  0  0  0  0  0  0
   -4.6291    1.0336    0.4902 C   0  0  0  0  0  0  0  0  0  0  0  0
    1.4101    2.7288   -0.4538 C   0  0  0  0  0  0  0  0  0  0  0  0
    0.6606    3.8318   -0.0651 C   0  0  0  0  0  0  0  0  0  0  0  0
   -4.5239   -1.2743   -0.0098 C   0  0  0  0  0  0  0  0  0  0  0  0
   -5.2786   -0.1889    0.3766 C   0  0  0  0  0  0  0  0  0  0  0  0
   -4.2930   -3.5818   -0.5374 C   0  0  0  0  0  0  0  0  0  0  0  0
  1 20  1  0
  2 26  1  0
  3 10  1  0
  3 15  1  0
  4 27  1  0
  4 29  1  0
  5  9  1  0
  5 11  1  0
  5 12  1  0
  6 13  1  0
  6 14  1  0
  7 18  2  0
  7 19  1  0
  8 17  1  0
  8 27  2  0
  9 10  1  0
 11 20  1  0
 12 21  1  0
 13 16  2  0
 13 17  1  0
 14 15  1  0
 16 18  1  0
 16 22  1  0
 17 19  2  0
 18 23  1  0
 19 24  1  0
 22 25  2  0
 23 26  2  0
 24 28  2  0
 25 26  1  0
 27 28  1  0
M  END
>  <PUBCHEM_COMPOUND_CID>  (1) 
38155

>  <PUBCHEM_CONFORMER_RMSD>  (1) 
1.2

>  <PUBCHEM_CONFORMER_DIVERSEORDER>  (1) 
1
29
63
59
75
25
40
85
64
11
74
34
73
83
87
44
84
32
31
71
36
39
16
53
46
79
37
23
91
28
26
92
77
38
49
19
4
30
69
41
67
27
90
72
14
89
56
60
65
48
51
61
86
55
22
2
12
70
10
88
81
33
50
3
47
15
82
5
42
58
80
62
68
54
43
7
21
52
45
24
17
8
66
57
9
35
13
20
76
78
6
18

>  <PUBCHEM_MMFF94_PARTIAL_CHARGES>  (1) 
33
1 -0.29
10 0.28
11 0.27
12 0.27
13 0.1
14 0.37
15 0.28
17 0.31
18 0.31
19 0.31
2 -0.18
20 0.29
22 -0.15
23 -0.15
24 -0.15
25 -0.15
26 0.18
27 0.39
28 -0.15
29 0.28
3 -0.56
4 -0.36
42 0.4
48 0.15
49 0.15
5 -0.81
50 0.15
51 0.15
52 0.15
6 -0.87
7 -0.62
8 -0.62
9 0.27

>  <PUBCHEM_EFFECTIVE_ROTOR_COUNT>  (1) 
11

>  <PUBCHEM_PHARMACOPHORE_FEATURES>  (1) 
8
1 3 acceptor
1 5 cation
1 6 cation
1 6 donor
1 7 acceptor
6 16 18 22 23 25 26 rings
6 7 13 16 17 18 19 rings
6 8 17 19 24 27 28 rings

>  <PUBCHEM_HEAVY_ATOM_COUNT>  (1) 
29

>  <PUBCHEM_ATOM_DEF_STEREO_COUNT>  (1) 
0

>  <PUBCHEM_ATOM_UDEF_STEREO_COUNT>  (1) 
0

>  <PUBCHEM_BOND_DEF_STEREO_COUNT>  (1) 
0

>  <PUBCHEM_BOND_UDEF_STEREO_COUNT>  (1) 
0

>  <PUBCHEM_ISOTOPIC_ATOM_COUNT>  (1) 
0

>  <PUBCHEM_COMPONENT_COUNT>  (1) 
1

>  <PUBCHEM_CACTVS_TAUTO_COUNT>  (1) 
2

>  <PUBCHEM_CONFORMER_ID>  (1) 
0000950B00000001

>  <PUBCHEM_MMFF94_ENERGY>  (1) 
93.2751

>  <PUBCHEM_FEATURE_SELFOVERLAP>  (1) 
40.662

>  <PUBCHEM_SHAPE_FINGERPRINT>  (1) 
10369192 42 17272544361618178144
10670039 82 18264780865935133310
10906281 52 18126011456164578061
1100329 8 18338236076247948623
12553582 1 18410288099507240708
12788726 201 18264222317938165444
13140716 1 18121213448559244299
14394314 77 18410299094819359688
14787075 74 18040438784544943363
15001296 14 18261401095713314372
15274700 259 17606101902888528437
15927050 60 17763749092986321974
1813 80 17894903019045892264
18608769 82 18341608179974386122
19319366 153 17821728364819018130
19591789 44 18266744760752222293
20028762 73 16108112335340817047
21857420 4 15977173527076454174
23559900 14 18200601413779794877
392239 28 18262796242250281682
463206 1 18334864926104374171
469060 322 18411141299171649152
6823239 73 18202285784616273168
9777508 108 17546720452797635864

>  <PUBCHEM_SHAPE_MULTIPOLES>  (1) 
568.88
11.5
5.72
1.58
1.24
5.04
0.01
-7.85
-1.17
-0.33
0.19
3.95
-0.32
-1.08

>  <PUBCHEM_SHAPE_SELFOVERLAP>  (1) 
1184.49

>  <PUBCHEM_SHAPE_VOLUME>  (1) 
327.8

>  <PUBCHEM_COORDINATE_TYPE>  (1) 
2
5
10

$$$$
