38157
     RDKit          3D

 27 29  0  0  0  0  0  0  0  0999 V2000
   -6.5876    0.9949   -0.4978 Cl  0  0  0  0  0  0  0  0  0  0  0  0
   -2.3075   -3.2840    2.1866 Cl  0  0  0  0  0  0  0  0  0  0  0  0
   -0.4927   -3.9083   -0.5622 S   0  0  0  0  0  0  0  0  0  0  0  0
    3.5650    1.7553    0.5319 O   0  0  0  0  0  0  0  0  0  0  0  0
   -0.1349   -0.8591   -1.2843 N   0  0  0  0  0  0  0  0  0  0  0  0
   -1.8529    2.4256    0.6448 N   0  0  0  0  0  0  0  0  0  0  0  0
    1.4443    1.0135   -0.0429 N   0  0  0  0  0  0  0  0  0  0  0  0
   -0.7277    0.2559   -0.6298 C   0  0  0  0  0  0  0  0  0  0  0  0
   -2.1201    0.4043   -0.6153 C   0  0  0  0  0  0  0  0  0  0  0  0
    0.1066    1.1782   -0.0154 C   0  0  0  0  0  0  0  0  0  0  0  0
   -0.5150    2.2621    0.6179 C   0  0  0  0  0  0  0  0  0  0  0  0
   -2.6488    1.5231    0.0447 C   0  0  0  0  0  0  0  0  0  0  0  0
    0.9827   -1.5571   -0.7450 C   0  0  0  0  0  0  0  0  0  0  0  0
   -2.9736   -0.5255   -1.2351 C   0  0  0  0  0  0  0  0  0  0  0  0
    5.5540    0.5616   -0.0686 C   0  0  0  0  0  0  0  0  0  0  0  0
    0.3154    3.1898    1.2354 C   0  0  0  0  0  0  0  0  0  0  0  0
    2.2090    1.9407    0.5707 C   0  0  0  0  0  0  0  0  0  0  0  0
    0.9776   -3.0220   -1.1641 C   0  0  0  0  0  0  0  0  0  0  0  0
    4.0348    0.6001   -0.1536 C   0  0  0  0  0  0  0  0  0  0  0  0
   -4.0323    1.6811    0.0658 C   0  0  0  0  0  0  0  0  0  0  0  0
    6.1290   -0.6482   -0.7997 C   0  0  0  0  0  0  0  0  0  0  0  0
    1.6965    3.0416    1.2204 C   0  0  0  0  0  0  0  0  0  0  0  0
   -4.3534   -0.3462   -1.2008 C   0  0  0  0  0  0  0  0  0  0  0  0
   -4.8836    0.7598   -0.5487 C   0  0  0  0  0  0  0  0  0  0  0  0
    7.6484   -0.6595   -0.7491 C   0  0  0  0  0  0  0  0  0  0  0  0
    0.0570   -4.1991    1.1343 C   0  0  0  0  0  0  0  0  0  0  0  0
   -1.0903   -4.5784    2.0601 C   0  0  0  0  0  0  0  0  0  0  0  0
  1 24  1  0
  2 27  1  0
  3 18  1  0
  3 26  1  0
  4 17  1  0
  4 19  1  0
  5  8  1  0
  5 13  1  0
  6 11  2  0
  6 12  1  0
  7 10  1  0
  7 17  2  0
  8  9  1  0
  8 10  2  0
  9 12  2  0
  9 14  1  0
 10 11  1  0
 11 16  1  0
 12 20  1  0
 13 18  1  0
 14 23  2  0
 15 19  1  0
 15 21  1  0
 16 22  2  0
 17 22  1  0
 20 24  2  0
 21 25  1  0
 23 24  1  0
 26 27  1  0
M  END
>  <PUBCHEM_COMPOUND_CID>  (1) 
38157

>  <PUBCHEM_CONFORMER_RMSD>  (1) 
1

>  <PUBCHEM_CONFORMER_DIVERSEORDER>  (1) 
1
46
29
25
15
13
42
24
54
53
11
50
22
14
21
12
38
10
23
33
52
3
43
37
7
51
16
47
32
17
2
36
35
40
31
39
6
27
20
18
30
45
5
34
41
49
9
48
8
19
28
44
26
4

>  <PUBCHEM_MMFF94_PARTIAL_CHARGES>  (1) 
29
1 -0.18
10 0.31
11 0.31
12 0.31
13 0.37
14 -0.15
16 -0.15
17 0.39
18 0.23
19 0.28
2 -0.29
20 -0.15
22 -0.15
23 -0.15
24 0.18
26 0.23
27 0.29
28 0.4
3 -0.46
31 0.15
34 0.15
39 0.15
4 -0.36
42 0.15
43 0.15
5 -0.87
6 -0.62
7 -0.62
8 0.1

>  <PUBCHEM_EFFECTIVE_ROTOR_COUNT>  (1) 
10

>  <PUBCHEM_PHARMACOPHORE_FEATURES>  (1) 
7
1 25 hydrophobe
1 5 cation
1 5 donor
1 6 acceptor
6 6 8 9 10 11 12 rings
6 7 10 11 16 17 22 rings
6 9 12 14 20 23 24 rings

>  <PUBCHEM_HEAVY_ATOM_COUNT>  (1) 
27

>  <PUBCHEM_ATOM_DEF_STEREO_COUNT>  (1) 
0

>  <PUBCHEM_ATOM_UDEF_STEREO_COUNT>  (1) 
0

>  <PUBCHEM_BOND_DEF_STEREO_COUNT>  (1) 
0

>  <PUBCHEM_BOND_UDEF_STEREO_COUNT>  (1) 
0

>  <PUBCHEM_ISOTOPIC_ATOM_COUNT>  (1) 
0

>  <PUBCHEM_COMPONENT_COUNT>  (1) 
1

>  <PUBCHEM_CACTVS_TAUTO_COUNT>  (1) 
2

>  <PUBCHEM_CONFORMER_ID>  (1) 
0000950D00000001

>  <PUBCHEM_MMFF94_ENERGY>  (1) 
82.6056

>  <PUBCHEM_FEATURE_SELFOVERLAP>  (1) 
35.587

>  <PUBCHEM_SHAPE_FINGERPRINT>  (1) 
10693767 8 16911969482853864607
1100329 8 18272362122344717262
11607047 403 14109860852344721471
11756154 5 18337956792078703042
11991303 11 18113620126800795822
13140716 1 18059008522964205609
14787075 74 18339077077624928855
14790565 3 18272090495939961128
15420108 30 17056139328372740657
18681886 176 16988545910804986789
19591789 44 18200584929668653253
20832881 197 17917989499033028904
21267235 1 18202566176475845989
21421861 104 18194960734856634337
21781051 124 18262817266236150471
23559900 14 17916290792075374576
283562 15 18128541466453340160
3004659 81 18412261727986858508
3178227 256 18343029912553574457
335352 9 18131347505915994293
3383291 50 18342730858360545762
4058900 60 18189617142236064565
4073 2 18266173019644538728
59755656 215 18272932678738227476
59755656 520 18187361030433684358
6138700 20 18201719518689747348

>  <PUBCHEM_SHAPE_MULTIPOLES>  (1) 
542.42
12.03
5.41
1.52
14.2
6.89
-0.59
-3.68
4.7
-1.26
-3.62
-0.62
1.35
1.81

>  <PUBCHEM_SHAPE_SELFOVERLAP>  (1) 
1116.251

>  <PUBCHEM_SHAPE_VOLUME>  (1) 
317.1

>  <PUBCHEM_COORDINATE_TYPE>  (1) 
2
5
10

$$$$
