38163
     RDKit          3D

 29 32  0  0  1  0  0  0  0  0999 V2000
   -6.4437    0.3611   -1.9214 Cl  0  0  0  0  0  0  0  0  0  0  0  0
   -3.3278   -1.3818   -0.0533 N   0  0  0  0  0  0  0  0  0  0  0  0
   -0.9104    0.2269    1.9331 N   0  0  0  0  0  0  0  0  0  0  0  0
    2.0294    1.7247   -0.6400 N   0  0  0  0  0  0  0  0  0  0  0  0
    4.3386    0.3339   -1.0972 N   0  0  0  0  0  0  0  0  0  0  0  0
   -3.0996   -1.7034    1.3501 C   0  0  0  0  0  0  0  0  0  0  0  0
   -3.2176   -0.4675    2.2475 C   0  0  0  0  0  0  0  0  0  0  0  0
   -2.2629    0.6712    1.8905 C   0  0  0  0  0  0  0  0  0  0  0  0
   -3.2083   -2.5817   -0.8835 C   0  0  0  0  0  0  0  0  0  0  0  0
   -4.6450   -0.7688   -0.2344 C   0  0  0  0  0  0  0  0  0  0  0  0
    0.0891    0.7362    1.0599 C   0  0  0  0  0  0  0  0  0  0  0  0
    1.2617    0.0051    0.8430 C   0  0  0  0  0  0  0  0  0  0  0  0
   -1.8121   -3.1838   -0.7465 C   0  0  0  0  0  0  0  0  0  0  0  0
   -0.1117    1.9644    0.4248 C   0  0  0  0  0  0  0  0  0  0  0  0
    2.2297    0.5379   -0.0291 C   0  0  0  0  0  0  0  0  0  0  0  0
    0.8998    2.4277   -0.4298 C   0  0  0  0  0  0  0  0  0  0  0  0
   -4.8519   -0.4027   -1.6960 C   0  0  0  0  0  0  0  0  0  0  0  0
    3.4070   -0.1704   -0.2619 C   0  0  0  0  0  0  0  0  0  0  0  0
    1.4713   -1.2249    1.4750 C   0  0  0  0  0  0  0  0  0  0  0  0
    3.6111   -1.4121    0.3811 C   0  0  0  0  0  0  0  0  0  0  0  0
   -1.6549   -4.4212   -1.6168 C   0  0  0  0  0  0  0  0  0  0  0  0
   -1.2796    2.7215    0.6246 C   0  0  0  0  0  0  0  0  0  0  0  0
    2.6426   -1.9315    1.2447 C   0  0  0  0  0  0  0  0  0  0  0  0
    0.7091    3.6508   -1.0675 C   0  0  0  0  0  0  0  0  0  0  0  0
   -1.4464    3.9413   -0.0242 C   0  0  0  0  0  0  0  0  0  0  0  0
   -0.4495    4.4066   -0.8723 C   0  0  0  0  0  0  0  0  0  0  0  0
    4.8020   -2.1090    0.1345 C   0  0  0  0  0  0  0  0  0  0  0  0
    5.7542   -1.5830   -0.7244 C   0  0  0  0  0  0  0  0  0  0  0  0
    5.4756   -0.3674   -1.3106 C   0  0  0  0  0  0  0  0  0  0  0  0
  1 17  1  0
  2  6  1  0
  2  9  1  0
  2 10  1  0
  3  8  1  0
  3 11  1  0
  4 15  2  0
  4 16  1  0
  5 18  2  0
  5 29  1  0
  6  7  1  0
  7  8  1  0
  9 13  1  0
 10 17  1  0
 11 12  2  0
 11 14  1  0
 12 15  1  0
 12 19  1  0
 13 21  1  0
 14 16  2  0
 14 22  1  0
 15 18  1  0
 16 24  1  0
 18 20  1  0
 19 23  2  0
 20 23  1  0
 20 27  2  0
 22 25  2  0
 24 26  2  0
 25 26  1  0
 27 28  1  0
 28 29  2  0
M  END
>  <PUBCHEM_COMPOUND_CID>  (1) 
38163

>  <PUBCHEM_CONFORMER_RMSD>  (1) 
1

>  <PUBCHEM_CONFORMER_DIVERSEORDER>  (1) 
1
41
24
58
55
2
29
57
42
35
19
38
3
31
28
51
20
17
25
5
52
39
49
32
22
30
15
56
40
33
23
44
4
11
8
37
18
36
62
6
45
12
54
16
10
21
47
61
46
7
43
13
60
50
53
14
59
26
27
9
48
34

>  <PUBCHEM_MMFF94_PARTIAL_CHARGES>  (1) 
33
1 -0.29
10 0.27
11 0.1
15 0.31
16 0.31
17 0.29
18 0.31
19 -0.15
2 -0.81
22 -0.15
23 -0.15
24 -0.15
25 -0.15
26 -0.15
27 -0.15
28 -0.15
29 0.16
3 -0.87
4 -0.62
40 0.4
45 0.15
49 0.15
5 -0.62
50 0.15
51 0.15
52 0.15
53 0.15
54 0.15
55 0.15
56 0.15
6 0.27
8 0.37
9 0.27

>  <PUBCHEM_EFFECTIVE_ROTOR_COUNT>  (1) 
9

>  <PUBCHEM_PHARMACOPHORE_FEATURES>  (1) 
10
1 2 cation
1 21 hydrophobe
1 3 cation
1 3 donor
1 4 acceptor
1 5 acceptor
6 12 15 18 19 20 23 rings
6 14 16 22 24 25 26 rings
6 4 11 12 14 15 16 rings
6 5 18 20 27 28 29 rings

>  <PUBCHEM_HEAVY_ATOM_COUNT>  (1) 
29

>  <PUBCHEM_ATOM_DEF_STEREO_COUNT>  (1) 
0

>  <PUBCHEM_ATOM_UDEF_STEREO_COUNT>  (1) 
0

>  <PUBCHEM_BOND_DEF_STEREO_COUNT>  (1) 
0

>  <PUBCHEM_BOND_UDEF_STEREO_COUNT>  (1) 
0

>  <PUBCHEM_ISOTOPIC_ATOM_COUNT>  (1) 
0

>  <PUBCHEM_COMPONENT_COUNT>  (1) 
1

>  <PUBCHEM_CACTVS_TAUTO_COUNT>  (1) 
2

>  <PUBCHEM_CONFORMER_ID>  (1) 
0000951300000001

>  <PUBCHEM_MMFF94_ENERGY>  (1) 
120.1015

>  <PUBCHEM_FEATURE_SELFOVERLAP>  (1) 
50.844

>  <PUBCHEM_SHAPE_FINGERPRINT>  (1) 
10483366 6 18267291055318504653
11578080 2 18130495375508721728
12166972 35 18130218385047092351
12553582 1 18334022695796867066
12633257 1 13757802584712750007
12788726 201 18189606151409193875
13004483 165 18337096896006496618
13009979 54 17916041215983736683
13383661 66 17917990534404939199
13911987 19 17533245130893956802
14068700 675 17846490431506357577
14251757 5 18261948549261110613
14537116 161 17899100933915029877
14674994 50 17559936827566303695
15131766 46 14567377308797242174
16992727 255 17606108495014312053
17921350 177 18126006202876198367
19311894 1 18410017675577419666
20465049 17 18114166537815718005
20764821 26 17908708328140962375
20775438 99 17263239284722058623
23536364 44 18040718035023577989
238 59 17324069816577235945
3027735 51 17985537863120918783
340366 18 18340475786008277215
4280585 95 18339353167187078962
4353968 344 18335430016122374622
46194498 28 17170404176118797101
463206 1 18263652916553416994
513202 73 18121514461643689786
57527295 17 17531238496087010027
66674814 147 18131057247889263143

>  <PUBCHEM_SHAPE_MULTIPOLES>  (1) 
578.75
10.92
5.06
1.89
1.22
2.59
0.43
-7.24
-5.77
-2.16
-2.22
-1.74
-0.48
-0.88

>  <PUBCHEM_SHAPE_SELFOVERLAP>  (1) 
1248.541

>  <PUBCHEM_SHAPE_VOLUME>  (1) 
317.8

>  <PUBCHEM_COORDINATE_TYPE>  (1) 
2
5
10

$$$$
