38161
     RDKit          3D

 26 29  0  0  0  0  0  0  0  0999 V2000
    7.4346   -1.3866    0.1087 Cl  0  0  0  0  0  0  0  0  0  0  0  0
    5.0853    0.9846   -0.2048 S   0  0  0  0  0  0  0  0  0  0  0  0
    0.5651    1.2253   -1.1720 N   0  0  0  0  0  0  0  0  0  0  0  0
   -3.1309    0.6936    0.7267 N   0  0  0  0  0  0  0  0  0  0  0  0
   -0.6889    1.0444   -0.5276 C   0  0  0  0  0  0  0  0  0  0  0  0
   -1.1626   -0.2487   -0.2818 C   0  0  0  0  0  0  0  0  0  0  0  0
   -1.4377    2.1619   -0.1456 C   0  0  0  0  0  0  0  0  0  0  0  0
   -2.4048   -0.3791    0.3560 C   0  0  0  0  0  0  0  0  0  0  0  0
    1.2994    2.4430   -1.0901 C   0  0  0  0  0  0  0  0  0  0  0  0
   -0.4295   -1.3888   -0.6558 C   0  0  0  0  0  0  0  0  0  0  0  0
   -2.6708    1.9368    0.4882 C   0  0  0  0  0  0  0  0  0  0  0  0
   -0.9190   -2.6775   -0.4025 C   0  0  0  0  0  0  0  0  0  0  0  0
   -2.1666   -2.8176    0.2376 C   0  0  0  0  0  0  0  0  0  0  0  0
    2.8011    2.1773   -1.1803 C   0  0  0  0  0  0  0  0  0  0  0  0
   -2.8833   -1.6634    0.6036 C   0  0  0  0  0  0  0  0  0  0  0  0
   -0.9860    3.4723   -0.3806 C   0  0  0  0  0  0  0  0  0  0  0  0
    3.2982    1.2736   -0.0526 C   0  0  0  0  0  0  0  0  0  0  0  0
   -3.4221    3.0447    0.8713 C   0  0  0  0  0  0  0  0  0  0  0  0
   -0.1989   -3.8266   -0.7703 C   0  0  0  0  0  0  0  0  0  0  0  0
   -2.6646   -4.1060    0.4947 C   0  0  0  0  0  0  0  0  0  0  0  0
   -1.7557    4.5629    0.0122 C   0  0  0  0  0  0  0  0  0  0  0  0
   -2.9764    4.3484    0.6395 C   0  0  0  0  0  0  0  0  0  0  0  0
   -0.7071   -5.0987   -0.5081 C   0  0  0  0  0  0  0  0  0  0  0  0
   -1.9387   -5.2382    0.1238 C   0  0  0  0  0  0  0  0  0  0  0  0
    5.3019   -0.0798    1.2396 C   0  0  0  0  0  0  0  0  0  0  0  0
    6.7582   -0.4578    1.4700 C   0  0  0  0  0  0  0  0  0  0  0  0
  1 26  1  0
  2 17  1  0
  2 25  1  0
  3  5  1  0
  3  9  1  0
  4  8  2  0
  4 11  1  0
  5  6  2  0
  5  7  1  0
  6  8  1  0
  6 10  1  0
  7 11  2  0
  7 16  1  0
  8 15  1  0
  9 14  1  0
 10 12  2  0
 11 18  1  0
 12 13  1  0
 12 19  1  0
 13 15  2  0
 13 20  1  0
 14 17  1  0
 16 21  2  0
 18 22  2  0
 19 23  2  0
 20 24  2  0
 21 22  1  0
 23 24  1  0
 25 26  1  0
M  END
>  <PUBCHEM_COMPOUND_CID>  (1) 
38161

>  <PUBCHEM_CONFORMER_RMSD>  (1) 
0.8

>  <PUBCHEM_CONFORMER_DIVERSEORDER>  (1) 
1
19
11
42
27
23
44
47
4
36
39
40
8
12
54
9
38
18
3
24
6
41
46
13
48
17
33
7
2
26
43
30
31
49
21
35
34
29
15
10
50
37
25
5
28
45
20
53
32
14
57
22
52
55
16
56
51

>  <PUBCHEM_MMFF94_PARTIAL_CHARGES>  (1) 
32
1 -0.29
10 -0.15
11 0.31
15 -0.15
16 -0.15
17 0.23
18 -0.15
19 -0.15
2 -0.46
20 -0.15
21 -0.15
22 -0.15
23 -0.15
24 -0.15
25 0.23
26 0.29
29 0.4
3 -0.87
30 0.15
33 0.15
34 0.15
37 0.15
38 0.15
39 0.15
4 -0.62
40 0.15
41 0.15
42 0.15
43 0.15
5 0.1
8 0.31
9 0.37

>  <PUBCHEM_EFFECTIVE_ROTOR_COUNT>  (1) 
7

>  <PUBCHEM_PHARMACOPHORE_FEATURES>  (1) 
8
1 3 cation
1 3 donor
1 4 acceptor
4 2 14 17 25 hydrophobe
6 12 13 19 20 23 24 rings
6 4 5 6 7 8 11 rings
6 6 8 10 12 13 15 rings
6 7 11 16 18 21 22 rings

>  <PUBCHEM_HEAVY_ATOM_COUNT>  (1) 
26

>  <PUBCHEM_ATOM_DEF_STEREO_COUNT>  (1) 
0

>  <PUBCHEM_ATOM_UDEF_STEREO_COUNT>  (1) 
0

>  <PUBCHEM_BOND_DEF_STEREO_COUNT>  (1) 
0

>  <PUBCHEM_BOND_UDEF_STEREO_COUNT>  (1) 
0

>  <PUBCHEM_ISOTOPIC_ATOM_COUNT>  (1) 
0

>  <PUBCHEM_COMPONENT_COUNT>  (1) 
1

>  <PUBCHEM_CACTVS_TAUTO_COUNT>  (1) 
2

>  <PUBCHEM_CONFORMER_ID>  (1) 
0000951100000001

>  <PUBCHEM_MMFF94_ENERGY>  (1) 
114.7618

>  <PUBCHEM_FEATURE_SELFOVERLAP>  (1) 
40.682

>  <PUBCHEM_SHAPE_FINGERPRINT>  (1) 
10074138 170 18341039796111635216
10411042 1 17548435042338681372
10940486 97 18261968388211300140
1100329 8 17836385000856365243
11014199 57 18264766756835781122
11049842 53 17976289888120974996
12107183 9 17620781782909313387
12523318 42 18341604941452857752
12788726 201 18047209702113880532
12969540 37 17184185591867934381
13004483 165 18195246852117946169
13140716 1 18123475139624700420
138480 1 16968588386980006765
14100547 121 18409443670498477568
14363568 33 17042332640376176104
14844126 61 18336545014215413504
14866123 147 18411138030469440482
15042514 8 18337955700355117099
15230672 131 18122063105952682466
15250474 111 18261391187666711444
15320294 125 17970337119583531744
15439362 3 17400355650899580253
15475509 35 16455181912200754275
15927050 60 17981605970869500885
16719943 64 18268147557411569632
16728300 4 18040154007107121715
21421861 104 16826156053316903009
21796203 349 17108792024070284906
229767 44 18337106749120312120
23559900 14 16830672821366769919
3383291 50 18411132515620500395
3882209 13 17982993842212033638
3886686 26 18412824669081306888
4017518 198 18193831544841351806
4409770 3 18335418036746740989
463206 1 17541945733818881570
484985 159 18261658329783654678
508706 21 18343305855976444022
5104073 3 16323743032726480555
5171179 24 16535097092998253364
532947 4 17617660960106751517
5385378 56 17837219168582506193
56633871 153 18337959020666121674
6679774 75 17826263733823689322
79837 15 18339648853762120832
9981440 41 18266183833702407321

>  <PUBCHEM_SHAPE_MULTIPOLES>  (1) 
530.83
10.68
8.09
1.08
33.44
5.59
-0.05
0.53
-4.73
-10.63
0.36
0.76
-0.21
-1.2

>  <PUBCHEM_SHAPE_SELFOVERLAP>  (1) 
1141.581

>  <PUBCHEM_SHAPE_VOLUME>  (1) 
295.4

>  <PUBCHEM_COORDINATE_TYPE>  (1) 
2
5
10

$$$$
