38189
     RDKit          3D

 21 22  0  0  0  0  0  0  0  0999 V2000
   -4.0443   -1.1682    0.1770 O   0  0  0  0  0  0  0  0  0  0  0  0
   -3.2380    2.2757   -0.2715 O   0  0  0  0  0  0  0  0  0  0  0  0
    2.4017   -2.5437   -0.0922 O   0  0  0  0  0  0  0  0  0  0  0  0
    3.9975    1.9567    0.2767 O   0  0  0  0  0  0  0  0  0  0  0  0
    4.5116   -0.7567    0.0687 O   0  0  0  0  0  0  0  0  0  0  0  0
   -4.2158    0.2137   -0.0476 N   0  0  0  0  0  0  0  0  0  0  0  0
   -6.3322   -0.7431   -0.0695 C   0  0  0  0  0  0  0  0  0  0  0  0
   -5.6172    0.5721    0.0530 C   0  0  0  0  0  0  0  0  0  0  0  0
   -5.3285   -1.6761    0.5661 C   0  0  0  0  0  0  0  0  0  0  0  0
   -3.1541    1.0508   -0.1975 C   0  0  0  0  0  0  0  0  0  0  0  0
   -1.8234    0.4168   -0.2803 C   0  0  0  0  0  0  0  0  0  0  0  0
    0.6141    0.6197    0.1378 C   0  0  0  0  0  0  0  0  0  0  0  0
   -0.7754    1.1103    0.1625 C   0  0  0  0  0  0  0  0  0  0  0  0
    1.6560    1.5290    0.2195 C   0  0  0  0  0  0  0  0  0  0  0  0
    0.8510   -0.7414    0.0335 C   0  0  0  0  0  0  0  0  0  0  0  0
    2.1661   -1.2058    0.0104 C   0  0  0  0  0  0  0  0  0  0  0  0
    2.9711    1.0645    0.1963 C   0  0  0  0  0  0  0  0  0  0  0  0
    3.2261   -0.3028    0.0917 C   0  0  0  0  0  0  0  0  0  0  0  0
    5.1091   -1.0713    1.3244 C   0  0  0  0  0  0  0  0  0  0  0  0
    2.5263   -3.0807   -1.4076 C   0  0  0  0  0  0  0  0  0  0  0  0
    4.4985    2.4804   -0.9517 C   0  0  0  0  0  0  0  0  0  0  0  0
  1  6  1  0
  1  9  1  0
  2 10  2  0
  3 16  1  0
  3 20  1  0
  4 17  1  0
  4 21  1  0
  5 18  1  0
  5 19  1  0
  6  8  1  0
  6 10  1  0
  7  8  1  0
  7  9  1  0
 10 11  1  0
 11 13  2  0
 12 13  1  0
 12 14  2  0
 12 15  1  0
 14 17  1  0
 15 16  2  0
 16 18  1  0
 17 18  2  0
M  END
>  <PUBCHEM_COMPOUND_CID>  (1) 
38189

>  <PUBCHEM_CONFORMER_RMSD>  (1) 
0.8

>  <PUBCHEM_CONFORMER_DIVERSEORDER>  (1) 
1
14
10
17
15
8
12
11
13
7
16
3
2
18
5
9
4
6

>  <PUBCHEM_MMFF94_PARTIAL_CHARGES>  (1) 
24
1 -0.32
10 0.62
11 -0.14
12 0.03
13 -0.18
14 -0.15
15 -0.15
16 0.08
17 0.08
18 0.08
19 0.28
2 -0.57
20 0.28
21 0.28
28 0.15
29 0.15
3 -0.36
30 0.15
31 0.15
4 -0.36
5 -0.36
6 -0.32
8 0.3
9 0.28

>  <PUBCHEM_EFFECTIVE_ROTOR_COUNT>  (1) 
7

>  <PUBCHEM_PHARMACOPHORE_FEATURES>  (1) 
6
1 2 acceptor
1 3 acceptor
1 4 acceptor
1 5 acceptor
5 1 6 7 8 9 rings
6 12 14 15 16 17 18 rings

>  <PUBCHEM_HEAVY_ATOM_COUNT>  (1) 
21

>  <PUBCHEM_ATOM_DEF_STEREO_COUNT>  (1) 
0

>  <PUBCHEM_ATOM_UDEF_STEREO_COUNT>  (1) 
0

>  <PUBCHEM_BOND_DEF_STEREO_COUNT>  (1) 
0

>  <PUBCHEM_BOND_UDEF_STEREO_COUNT>  (1) 
1

>  <PUBCHEM_ISOTOPIC_ATOM_COUNT>  (1) 
0

>  <PUBCHEM_COMPONENT_COUNT>  (1) 
1

>  <PUBCHEM_CACTVS_TAUTO_COUNT>  (1) 
1

>  <PUBCHEM_CONFORMER_ID>  (1) 
0000952D00000001

>  <PUBCHEM_MMFF94_ENERGY>  (1) 
88.0898

>  <PUBCHEM_FEATURE_SELFOVERLAP>  (1) 
30.457

>  <PUBCHEM_SHAPE_FINGERPRINT>  (1) 
10835480 77 18335412487812959941
108634 29 18187376449181972707
11719270 70 18341606019188942202
12107183 9 17695639446336126049
12616971 3 18202272619723879284
12730499 353 18340213002259532440
13167823 11 18408037403547473849
13533116 47 18131071515991711299
13836976 161 18410858772286445140
13911882 115 18337403737271391771
14341114 176 18408045126131111745
146900 427 18059296568623317809
14790565 3 17688877857425722716
15196674 1 18408603682316807835
15250474 111 18130212861592750767
15537594 2 17989207096673548391
15927050 60 17331966530247287956
15961568 22 17458348584568961052
17492 89 18270120080844921559
17834072 33 18409730672945110885
17844677 252 18334017168564885781
17857418 61 18410569579063742227
1813 80 17313109653139093517
18222031 100 16515401871784376052
200 152 18272369793800087433
20286276 3 18268158552264324045
20645477 70 18410012117909570572
21197605 99 18268151040414704107
21267235 1 18412268311316719478
21315759 148 14261349223583238847
21344244 246 18199768977042201822
221490 88 18339929212052803974
23402539 116 16226045535764928597
23424784 1240 18337968856495047235
23557571 272 17676766479332037317
23559900 14 18197211451784588227
239999 70 18340772554989125422
26918003 58 18412822469872973729
3004659 81 18333449828663653888
314194 84 18202278130815779223
33824 294 18410855464586958346
4073 2 17895198860803753059
4214541 1 18337107874486535689
42630746 31 18344145891154197102
4325135 7 18187928425351020925
4340502 62 18271238435042812456
465052 167 18261387820169856010
5104073 3 18411697669077287673
7495541 125 18202277039351066297
77779 3 18410856530150323769
9709674 26 18409173186253627531

>  <PUBCHEM_SHAPE_MULTIPOLES>  (1) 
397.84
13.89
2.73
0.87
16.13
0.79
-0.05
1.55
1.29
-2.69
-0.81
-0.84
0.31
0.15

>  <PUBCHEM_SHAPE_SELFOVERLAP>  (1) 
829.816

>  <PUBCHEM_SHAPE_VOLUME>  (1) 
229

>  <PUBCHEM_COORDINATE_TYPE>  (1) 
2
5
10

$$$$
