38188
     RDKit          3D

 23 26  0  0  1  0  0  0  0  0999 V2000
   -0.4494    2.1918   -0.3119 O   0  0  0  0  0  0  0  0  0  0  0  0
    3.2617    0.1553    0.1520 N   0  0  0  0  0  0  0  0  0  0  0  0
   -2.9843   -1.5782    0.1893 N   0  0  0  0  0  0  0  0  0  0  0  0
    0.8314    0.1282   -0.2565 C   0  0  0  0  0  0  0  0  0  0  0  0
    2.0340    0.9491    0.2019 C   0  0  0  0  0  0  0  0  0  0  0  0
    5.6907    0.0999    0.6629 C   0  0  0  0  0  0  0  0  0  0  0  0
    4.4016    0.9387    0.6519 C   0  0  0  0  0  0  0  0  0  0  0  0
    0.7118   -1.1609    0.5878 C   0  0  0  0  0  0  0  0  0  0  0  0
    3.5065   -0.3264   -1.2140 C   0  0  0  0  0  0  0  0  0  0  0  0
    5.9779   -0.4653   -0.7326 C   0  0  0  0  0  0  0  0  0  0  0  0
    4.7572   -1.2034   -1.2717 C   0  0  0  0  0  0  0  0  0  0  0  0
   -0.4966   -2.0153    0.1745 C   0  0  0  0  0  0  0  0  0  0  0  0
   -1.6941   -1.1420    0.0995 C   0  0  0  0  0  0  0  0  0  0  0  0
   -0.4603    0.9693   -0.1979 C   0  0  0  0  0  0  0  0  0  0  0  0
   -1.7043    0.2257   -0.0688 C   0  0  0  0  0  0  0  0  0  0  0  0
    6.8725    0.9288    1.1625 C   0  0  0  0  0  0  0  0  0  0  0  0
   -3.0658    0.6450   -0.0706 C   0  0  0  0  0  0  0  0  0  0  0  0
   -3.8454   -0.5064    0.0914 C   0  0  0  0  0  0  0  0  0  0  0  0
   -3.3939   -2.9571    0.3570 C   0  0  0  0  0  0  0  0  0  0  0  0
   -3.7208    1.8879   -0.1952 C   0  0  0  0  0  0  0  0  0  0  0  0
   -5.2442   -0.4721    0.1340 C   0  0  0  0  0  0  0  0  0  0  0  0
   -5.1190    1.9354   -0.1538 C   0  0  0  0  0  0  0  0  0  0  0  0
   -5.8672    0.7720    0.0083 C   0  0  0  0  0  0  0  0  0  0  0  0
  1 14  2  0
  2  5  1  0
  2  7  1  0
  2  9  1  0
  3 13  1  0
  3 18  1  0
  3 19  1  0
  4  5  1  0
  4  8  1  0
  4 14  1  0
  6  7  1  0
  6 10  1  0
  6 16  1  0
  8 12  1  0
  9 11  1  0
 10 11  1  0
 12 13  1  0
 13 15  2  0
 14 15  1  0
 15 17  1  0
 17 18  2  0
 17 20  1  0
 18 21  1  0
 20 22  2  0
 21 23  2  0
 22 23  1  0
M  END
>  <PUBCHEM_COMPOUND_CID>  (1) 
38188

>  <PUBCHEM_CONFORMER_RMSD>  (1) 
0.6

>  <PUBCHEM_CONFORMER_DIVERSEORDER>  (1) 
1
7
26
2
27
19
9
15
17
10
28
11
16
5
14
6
13
3
18
25
30
4
8
23
24
20
12
31
29
21
22

>  <PUBCHEM_MMFF94_PARTIAL_CHARGES>  (1) 
21
1 -0.57
12 0.18
13 -0.33
14 0.6
15 -0.09
18 -0.15
19 0.26
2 -0.81
20 -0.15
21 -0.15
22 -0.15
23 -0.15
3 0.05
4 0.06
46 0.15
47 0.15
48 0.15
49 0.15
5 0.27
7 0.27
9 0.27

>  <PUBCHEM_EFFECTIVE_ROTOR_COUNT>  (1) 
3.8

>  <PUBCHEM_PHARMACOPHORE_FEATURES>  (1) 
7
1 1 acceptor
1 2 cation
1 3 cation
5 3 13 15 17 18 rings
6 17 18 20 21 22 23 rings
6 2 6 7 9 10 11 rings
6 4 8 12 13 14 15 rings

>  <PUBCHEM_HEAVY_ATOM_COUNT>  (1) 
23

>  <PUBCHEM_ATOM_DEF_STEREO_COUNT>  (1) 
0

>  <PUBCHEM_ATOM_UDEF_STEREO_COUNT>  (1) 
2

>  <PUBCHEM_BOND_DEF_STEREO_COUNT>  (1) 
0

>  <PUBCHEM_BOND_UDEF_STEREO_COUNT>  (1) 
0

>  <PUBCHEM_ISOTOPIC_ATOM_COUNT>  (1) 
0

>  <PUBCHEM_COMPONENT_COUNT>  (1) 
1

>  <PUBCHEM_CACTVS_TAUTO_COUNT>  (1) 
2

>  <PUBCHEM_CONFORMER_ID>  (1) 
0000952C00000001

>  <PUBCHEM_MMFF94_ENERGY>  (1) 
38.9642

>  <PUBCHEM_FEATURE_SELFOVERLAP>  (1) 
35.697

>  <PUBCHEM_SHAPE_FINGERPRINT>  (1) 
10 15 18261114105523855024
10319926 262 18267849739915538880
10411042 1 17904482149780198683
10835480 77 18201996642891396088
11045977 3 18272929449112783016
11315181 36 18113335348919971697
11578080 2 13684921323669616665
11646440 116 18342750610909528065
12011746 2 18408600349712434133
12236239 1 17313105258923273460
12390115 104 18269563728509977625
12516196 113 17989205953848568736
12596602 18 14333118694008792302
12616971 3 16660647371146808966
12838862 33 18263347154322916829
13140716 1 18192439795518118217
13402501 40 18343301453170520540
13533116 47 14404911250394998982
13583140 156 17131546257987201190
14386348 63 18273218595101252014
14573314 32 18271811198479150660
14790565 3 17906739103021304457
14856354 85 15936703613882833507
15042514 8 18191874629357024827
15131766 46 15432034485372573927
15183329 4 18334860493666365662
15196674 1 18336829804817250708
16079462 125 18059847372952375784
16087824 20 18409727375792537615
17844677 252 18336835289654115576
19141452 34 18130787897003595230
200 152 16559032662190813288
20645477 70 17203334360513557590
20681677 155 18335138683072222867
21033648 29 17917417761544235416
21236236 1 18411416250309392039
21267235 1 18335710477022760819
21279426 13 18196656198365101956
21315759 40 16515402992855346907
21792961 116 17846788378457945908
21859007 373 17968921012199003820
2215653 11 18059580157156201302
22182313 1 18198648608378262343
23402539 116 18413101783884970670
23536379 177 16773798065236956725
23559900 14 18343861147480930344
3004659 81 18187653509643848788
335352 9 18408604777807918149
3383291 50 18261958561199799099
34934 24 18409725140916671699
3545911 37 18411420596536506371
4073 2 18334860558682017842
4214541 1 18410012147673895137
5104073 3 18261960622582874635
5283173 99 18271246015143307088
5364581 5 18125428963614659920
5385378 56 18264777558425251755
542803 24 17167583782733028020
59755656 215 18339083688017349862
67856867 119 18115874177789319316
7226269 152 18272651225484591305
9995097 60 18272934933912418934

>  <PUBCHEM_SHAPE_MULTIPOLES>  (1) 
457.5
15.62
2.18
0.91
13.67
0.72
0.08
-3.13
-1.07
-2.64
-0.11
1.29
0.07
1.37

>  <PUBCHEM_SHAPE_SELFOVERLAP>  (1) 
989.025

>  <PUBCHEM_SHAPE_VOLUME>  (1) 
251.8

>  <PUBCHEM_COORDINATE_TYPE>  (1) 
2
5
10

$$$$
