38187
     RDKit          3D

 22 25  0  0  1  0  0  0  0  0999 V2000
    0.1847    2.2343   -0.1612 O   0  0  0  0  0  0  0  0  0  0  0  0
   -3.5601    0.2656    0.3139 N   0  0  0  0  0  0  0  0  0  0  0  0
    2.6423   -1.6112    0.0896 N   0  0  0  0  0  0  0  0  0  0  0  0
   -1.1431    0.1997   -0.1626 C   0  0  0  0  0  0  0  0  0  0  0  0
   -2.3113    1.0253    0.3699 C   0  0  0  0  0  0  0  0  0  0  0  0
   -1.0299   -1.1298    0.6174 C   0  0  0  0  0  0  0  0  0  0  0  0
    0.1454   -1.9910    0.1292 C   0  0  0  0  0  0  0  0  0  0  0  0
    1.3608   -1.1423    0.0585 C   0  0  0  0  0  0  0  0  0  0  0  0
   -3.8775   -0.1001   -1.0736 C   0  0  0  0  0  0  0  0  0  0  0  0
   -4.6553    1.0315    0.9253 C   0  0  0  0  0  0  0  0  0  0  0  0
    1.3987    0.2312   -0.0474 C   0  0  0  0  0  0  0  0  0  0  0  0
    0.1697    1.0078   -0.1045 C   0  0  0  0  0  0  0  0  0  0  0  0
   -5.1553   -0.9377   -1.1451 C   0  0  0  0  0  0  0  0  0  0  0  0
   -5.9585    0.2312    0.9191 C   0  0  0  0  0  0  0  0  0  0  0  0
   -6.3280   -0.2165   -0.4906 C   0  0  0  0  0  0  0  0  0  0  0  0
    2.7691    0.6194   -0.0709 C   0  0  0  0  0  0  0  0  0  0  0  0
    3.5254   -0.5555    0.0154 C   0  0  0  0  0  0  0  0  0  0  0  0
    3.0246   -3.0050    0.1824 C   0  0  0  0  0  0  0  0  0  0  0  0
    3.4497    1.8517   -0.1584 C   0  0  0  0  0  0  0  0  0  0  0  0
    4.9253   -0.5546    0.0185 C   0  0  0  0  0  0  0  0  0  0  0  0
    4.8493    1.8659   -0.1561 C   0  0  0  0  0  0  0  0  0  0  0  0
    5.5739    0.6799   -0.0687 C   0  0  0  0  0  0  0  0  0  0  0  0
  1 12  2  0
  2  5  1  0
  2  9  1  0
  2 10  1  0
  3  8  1  0
  3 17  1  0
  3 18  1  0
  4  5  1  0
  4  6  1  0
  4 12  1  0
  6  7  1  0
  7  8  1  0
  8 11  2  0
  9 13  1  0
 10 14  1  0
 11 12  1  0
 11 16  1  0
 13 15  1  0
 14 15  1  0
 16 17  2  0
 16 19  1  0
 17 20  1  0
 19 21  2  0
 20 22  2  0
 21 22  1  0
M  END
>  <PUBCHEM_COMPOUND_CID>  (1) 
38187

>  <PUBCHEM_CONFORMER_RMSD>  (1) 
0.6

>  <PUBCHEM_CONFORMER_DIVERSEORDER>  (1) 
1
6
5
2
4
10
9
8
3
11
7

>  <PUBCHEM_MMFF94_PARTIAL_CHARGES>  (1) 
21
1 -0.57
10 0.27
11 -0.09
12 0.6
17 -0.15
18 0.26
19 -0.15
2 -0.81
20 -0.15
21 -0.15
22 -0.15
3 0.05
4 0.06
43 0.15
44 0.15
45 0.15
46 0.15
5 0.27
7 0.18
8 -0.33
9 0.27

>  <PUBCHEM_EFFECTIVE_ROTOR_COUNT>  (1) 
3.8

>  <PUBCHEM_PHARMACOPHORE_FEATURES>  (1) 
7
1 1 acceptor
1 2 cation
1 3 cation
5 3 8 11 16 17 rings
6 16 17 19 20 21 22 rings
6 2 9 10 13 14 15 rings
6 4 6 7 8 11 12 rings

>  <PUBCHEM_HEAVY_ATOM_COUNT>  (1) 
22

>  <PUBCHEM_ATOM_DEF_STEREO_COUNT>  (1) 
0

>  <PUBCHEM_ATOM_UDEF_STEREO_COUNT>  (1) 
1

>  <PUBCHEM_BOND_DEF_STEREO_COUNT>  (1) 
0

>  <PUBCHEM_BOND_UDEF_STEREO_COUNT>  (1) 
0

>  <PUBCHEM_ISOTOPIC_ATOM_COUNT>  (1) 
0

>  <PUBCHEM_COMPONENT_COUNT>  (1) 
1

>  <PUBCHEM_CACTVS_TAUTO_COUNT>  (1) 
2

>  <PUBCHEM_CONFORMER_ID>  (1) 
0000952B00000001

>  <PUBCHEM_MMFF94_ENERGY>  (1) 
34.3922

>  <PUBCHEM_FEATURE_SELFOVERLAP>  (1) 
35.697

>  <PUBCHEM_SHAPE_FINGERPRINT>  (1) 
10 15 17603864559507167528
10090160 65 18260828202451419666
10411042 1 17905327330508536586
10595046 47 18343581846010411017
10693767 8 18130233632445218478
10906281 52 18338253629319870750
10912923 1 18131633357595592043
10967382 1 18409168792960532320
11471102 20 18408885140224432028
11578080 2 13119439323749892708
12107183 9 17622735215164490065
12236239 1 17988926660910111273
12403259 415 17895192160696904087
12730499 353 18334300868128726138
12788726 201 17346325847589658563
12838862 33 18337375141875130364
13009979 54 17557425371426471178
13140716 1 18336825416114801704
13167823 11 18273494551039881391
13533116 47 18343303639546153730
13583140 156 16443060629764205473
13862211 1 18409163286506711666
14251764 18 18410008841461453672
14341114 328 18202567263355266185
14528608 73 18342738541571027156
14787075 74 18412544318699894233
14790565 3 18338802333083555836
15196674 1 18337954476553344273
17349148 13 18334292063160672841
17492 89 18123468285047241622
17834072 33 18272932734678212245
17844677 252 18338521816089988213
200 152 18272650147563363385
20028762 73 18271519793670940446
20511986 3 18201144499698901785
20645477 70 18335419024040702826
21033648 29 17676752250037047629
21065198 48 18201441329373547945
21236236 1 18264490753521090811
21267235 1 18338522937445730470
21623969 137 18260558839736301291
21641784 216 17968393246654542980
22224240 67 18412257372736649872
23402539 116 18201999928177088045
23536379 177 17060344015154815429
23557571 272 14692301607862757833
23559900 14 18338231690701178856
314194 84 18341892996187343267
335352 9 18409452497278685422
33824 294 18334575720450307242
34797466 226 16128379332347929472
34934 24 18409164445858062586
350125 39 18337393717476498432
3545911 37 18334297578093723114
4073 2 18187090585259842723
42630746 31 18411702071661014086
4325135 7 18343300371023177085
4340502 62 16805321097933463122
474 4 18335422412922743732
5104073 3 18261961717773330273
542803 24 17775287166498025009
5758199 1 18342739654585021272
59755656 215 18334299743237535294
602551 16 15625645215621600983
7495541 125 16916779721259530985
8272917 22 18341899554533982014

>  <PUBCHEM_SHAPE_MULTIPOLES>  (1) 
436.92
14.04
2.19
0.85
12.09
0.81
-0.04
-1.98
-0.61
-2.63
0.1
1.05
0.02
-0.85

>  <PUBCHEM_SHAPE_SELFOVERLAP>  (1) 
948.421

>  <PUBCHEM_SHAPE_VOLUME>  (1) 
239.5

>  <PUBCHEM_COORDINATE_TYPE>  (1) 
2
5
10

$$$$
