38185
     RDKit          3D

 26 27  0  0  1  0  0  0  0  0999 V2000
   -1.4736   -0.7408    1.8760 O   0  0  0  0  0  0  0  0  0  0  0  0
    4.9559   -0.1271   -0.0370 N   0  0  0  0  0  0  0  0  0  0  0  0
    3.6202   -0.6050   -0.4629 C   0  0  0  0  0  0  0  0  0  0  0  0
    6.0607   -1.0687   -0.5389 C   0  0  0  0  0  0  0  0  0  0  0  0
    5.0504   -0.0583    1.4945 C   0  0  0  0  0  0  0  0  0  0  0  0
    5.2391    1.2762   -0.5936 C   0  0  0  0  0  0  0  0  0  0  0  0
    2.5269    0.3318    0.0371 C   0  0  0  0  0  0  0  0  0  0  0  0
    1.0914   -0.0522   -0.3413 C   0  0  0  0  0  0  0  0  0  0  0  0
    0.0445    0.9639    0.1348 C   0  0  0  0  0  0  0  0  0  0  0  0
    6.0472   -1.0910   -2.0518 C   0  0  0  0  0  0  0  0  0  0  0  0
    4.7755   -1.4291    2.0728 C   0  0  0  0  0  0  0  0  0  0  0  0
    6.6263    1.7089   -0.1718 C   0  0  0  0  0  0  0  0  0  0  0  0
   -1.3991    0.5167   -0.1951 C   0  0  0  0  0  0  0  0  0  0  0  0
   -2.3418    1.7062   -0.0970 C   0  0  0  0  0  0  0  0  0  0  0  0
   -1.8684   -0.6278    0.7162 C   0  0  0  0  0  0  0  0  0  0  0  0
   -2.5172    2.5494   -1.1944 C   0  0  0  0  0  0  0  0  0  0  0  0
   -3.0316    1.9536    1.0900 C   0  0  0  0  0  0  0  0  0  0  0  0
   -2.8030   -1.6628    0.1829 C   0  0  0  0  0  0  0  0  0  0  0  0
   -3.3819    3.6402   -1.1047 C   0  0  0  0  0  0  0  0  0  0  0  0
   -3.8965    3.0444    1.1795 C   0  0  0  0  0  0  0  0  0  0  0  0
   -3.7166   -1.3288   -0.8170 C   0  0  0  0  0  0  0  0  0  0  0  0
   -2.7624   -2.9640    0.6840 C   0  0  0  0  0  0  0  0  0  0  0  0
   -4.0716    3.8876    0.0821 C   0  0  0  0  0  0  0  0  0  0  0  0
   -4.5896   -2.2957   -1.3154 C   0  0  0  0  0  0  0  0  0  0  0  0
   -3.6355   -3.9309    0.1854 C   0  0  0  0  0  0  0  0  0  0  0  0
   -4.5490   -3.5967   -0.8143 C   0  0  0  0  0  0  0  0  0  0  0  0
  1 15  2  0
  2  3  1  0
  2  4  1  0
  2  5  1  0
  2  6  1  0
  3  7  1  0
  4 10  1  0
  5 11  1  0
  6 12  1  0
  7  8  1  0
  8  9  1  0
  9 13  1  0
 13 14  1  0
 13 15  1  0
 14 16  2  0
 14 17  1  0
 15 18  1  0
 16 19  1  0
 17 20  2  0
 18 21  2  0
 18 22  1  0
 19 23  2  0
 20 23  1  0
 21 24  1  0
 22 25  2  0
 24 26  2  0
 25 26  1  0
M  CHG  1   2   1
M  END
>  <PUBCHEM_COMPOUND_CID>  (1) 
38185

>  <PUBCHEM_CONFORMER_RMSD>  (1) 
1.2

>  <PUBCHEM_CONFORMER_DIVERSEORDER>  (1) 
1
56
37
35
51
59
15
60
14
39
27
19
58
9
47
38
54
4
33
32
28
2
26
21
53
5
52
10
7
16
12
61
25
49
46
40
8
34
45
11
44
30
41
31
57
23
55
13
36
3
20
24
18
43
17
48
6
22
42
50
29

>  <PUBCHEM_MMFF94_PARTIAL_CHARGES>  (1) 
30
1 -0.57
13 0.2
14 -0.14
15 0.42
16 -0.15
17 -0.15
18 0.09
19 -0.15
2 -1.01
20 -0.15
21 -0.15
22 -0.15
23 -0.15
24 -0.15
25 -0.15
26 -0.15
3 0.5
4 0.5
5 0.5
51 0.15
52 0.15
53 0.15
54 0.15
55 0.15
56 0.15
57 0.15
58 0.15
59 0.15
6 0.5
60 0.15

>  <PUBCHEM_EFFECTIVE_ROTOR_COUNT>  (1) 
11

>  <PUBCHEM_PHARMACOPHORE_FEATURES>  (1) 
5
1 1 acceptor
1 2 cation
4 7 8 9 13 hydrophobe
6 14 16 17 19 20 23 rings
6 18 21 22 24 25 26 rings

>  <PUBCHEM_HEAVY_ATOM_COUNT>  (1) 
26

>  <PUBCHEM_ATOM_DEF_STEREO_COUNT>  (1) 
0

>  <PUBCHEM_ATOM_UDEF_STEREO_COUNT>  (1) 
1

>  <PUBCHEM_BOND_DEF_STEREO_COUNT>  (1) 
0

>  <PUBCHEM_BOND_UDEF_STEREO_COUNT>  (1) 
0

>  <PUBCHEM_ISOTOPIC_ATOM_COUNT>  (1) 
0

>  <PUBCHEM_COMPONENT_COUNT>  (1) 
1

>  <PUBCHEM_CACTVS_TAUTO_COUNT>  (1) 
2

>  <PUBCHEM_CONFORMER_ID>  (1) 
0000952900000001

>  <PUBCHEM_MMFF94_ENERGY>  (1) 
89.071

>  <PUBCHEM_FEATURE_SELFOVERLAP>  (1) 
25.371

>  <PUBCHEM_SHAPE_FINGERPRINT>  (1) 
10595046 47 18334574690006146748
11056379 131 18411422816765787639
11101153 10 18120941856698719868
11135926 11 16081377315812508154
11545043 162 17989208127645241978
12107183 9 17973150735200068026
12597179 24 18128535951540609423
12616971 3 17458903722477159792
12788726 201 18336536188480015907
13004483 165 18197212762277368175
13631057 29 18339639057063232618
14068700 686 18342460382852855958
14347332 77 18337947999579144581
14508225 48 18266732670746455237
14713325 29 18341895182420577799
14866123 147 18411700976882236163
15131766 46 14927368522231448863
15230672 131 18048043978432723614
15250474 111 18187916262636972938
15463212 79 18189612753164356689
15927050 60 18197219144688811143
16990350 14 17044581137524651992
17539 30 18411692219343530453
17844677 252 18411989074619363404
19958102 18 18339077069440910135
21120745 212 18337109072750490233
21236236 1 18411702084197769405
21703447 108 18195801006195247168
23081809 10 17894354372256109230
23559900 14 18266731562085755881
249057 25 17894911884718182788
255183 313 18268447775905473113
283562 15 18336261336147709675
3610482 184 17895777113926045142
4073 2 18342460310085935286
44062 13 18413111632556171004
497634 4 17917724538131224824
508706 21 18412833464588844854
5104073 3 18411414004342144784
5924683 9 18409728477889573576
5969126 39 18269831072510917631
59755656 520 18198063582345491785
6669772 16 17982175522361703799
6698420 124 17843697564297366665

>  <PUBCHEM_SHAPE_MULTIPOLES>  (1) 
524.22
15.83
4.9
1.54
29.09
0.4
0.23
-1.96
-2.62
-11.79
-0.5
1.04
-0.27
-0.81

>  <PUBCHEM_SHAPE_SELFOVERLAP>  (1) 
1071.92

>  <PUBCHEM_SHAPE_VOLUME>  (1) 
304

>  <PUBCHEM_COORDINATE_TYPE>  (1) 
2
5
10

$$$$
