38194
     RDKit          3D

 24 27  0  0  1  0  0  0  0  0999 V2000
    3.8297    1.7565    0.5483 O   0  0  0  0  0  0  0  0  0  0  0  0
   -4.8042    1.5157    0.1480 O   0  0  0  0  0  0  0  0  0  0  0  0
   -3.1356    0.9164   -2.2765 O   0  0  0  0  0  0  0  0  0  0  0  0
    5.4423    0.9508   -1.5135 O   0  0  0  0  0  0  0  0  0  0  0  0
    0.7303   -0.1321    0.5320 C   0  0  0  0  0  0  0  0  0  0  0  0
   -0.8185    0.0321    0.8890 C   0  0  0  0  0  0  0  0  0  0  0  0
    1.0252   -1.6372    0.3015 C   0  0  0  0  0  0  0  0  0  0  0  0
   -1.6516   -0.5509   -0.3321 C   0  0  0  0  0  0  0  0  0  0  0  0
    1.7578    0.1327    1.6446 C   0  0  0  0  0  0  0  0  0  0  0  0
    3.0404   -0.4734    1.0217 C   0  0  0  0  0  0  0  0  0  0  0  0
    2.5468   -1.7996    0.3912 C   0  0  0  0  0  0  0  0  0  0  0  0
    1.1592    0.7827   -0.6906 C   0  0  0  0  0  0  0  0  0  0  0  0
    0.2960   -2.1790   -0.9133 C   0  0  0  0  0  0  0  0  0  0  0  0
   -3.2209   -0.3508   -0.2537 C   0  0  0  0  0  0  0  0  0  0  0  0
   -1.2205   -1.9955   -0.7268 C   0  0  0  0  0  0  0  0  0  0  0  0
    3.6115    0.4754   -0.0542 C   0  0  0  0  0  0  0  0  0  0  0  0
   -1.1933    1.5256    1.1558 C   0  0  0  0  0  0  0  0  0  0  0  0
    2.6012    0.6244   -1.1984 C   0  0  0  0  0  0  0  0  0  0  0  0
   -1.1797   -0.7348    2.1974 C   0  0  0  0  0  0  0  0  0  0  0  0
   -3.5767    0.9246    0.5725 C   0  0  0  0  0  0  0  0  0  0  0  0
   -2.4875    1.9859    0.4867 C   0  0  0  0  0  0  0  0  0  0  0  0
   -3.7565   -0.2100   -1.7073 C   0  0  0  0  0  0  0  0  0  0  0  0
   -3.9647   -1.5589    0.3583 C   0  0  0  0  0  0  0  0  0  0  0  0
    4.9691   -0.0006   -0.5807 C   0  0  0  0  0  0  0  0  0  0  0  0
  1 16  1  0
  2 20  1  0
  3 22  1  0
  4 24  1  0
  5  6  1  0
  5  7  1  0
  5  9  1  0
  5 12  1  0
  6  8  1  0
  6 17  1  0
  6 19  1  0
  7 11  1  0
  7 13  1  0
  8 14  1  0
  8 15  1  0
  9 10  1  0
 10 11  1  0
 10 16  1  0
 12 18  1  0
 13 15  1  0
 14 20  1  0
 14 22  1  0
 14 23  1  0
 16 18  1  0
 16 24  1  0
 17 21  1  0
 20 21  1  0
M  END
>  <PUBCHEM_COMPOUND_CID>  (1) 
38194

>  <PUBCHEM_CONFORMER_RMSD>  (1) 
0.8

>  <PUBCHEM_CONFORMER_DIVERSEORDER>  (1) 
2
3
1
4

>  <PUBCHEM_MMFF94_PARTIAL_CHARGES>  (1) 
12
1 -0.68
16 0.28
2 -0.68
20 0.28
22 0.28
24 0.28
3 -0.68
4 -0.68
55 0.4
56 0.4
57 0.4
58 0.4

>  <PUBCHEM_EFFECTIVE_ROTOR_COUNT>  (1) 
4.2

>  <PUBCHEM_PHARMACOPHORE_FEATURES>  (1) 
11
1 1 acceptor
1 1 donor
1 2 acceptor
1 2 donor
1 3 acceptor
1 3 donor
1 4 acceptor
1 4 donor
6 5 6 7 8 13 15 rings
6 6 8 14 17 20 21 rings
8 5 7 9 10 11 12 16 18 rings

>  <PUBCHEM_HEAVY_ATOM_COUNT>  (1) 
24

>  <PUBCHEM_ATOM_DEF_STEREO_COUNT>  (1) 
7

>  <PUBCHEM_ATOM_UDEF_STEREO_COUNT>  (1) 
1

>  <PUBCHEM_BOND_DEF_STEREO_COUNT>  (1) 
0

>  <PUBCHEM_BOND_UDEF_STEREO_COUNT>  (1) 
0

>  <PUBCHEM_ISOTOPIC_ATOM_COUNT>  (1) 
0

>  <PUBCHEM_COMPONENT_COUNT>  (1) 
1

>  <PUBCHEM_CACTVS_TAUTO_COUNT>  (1) 
1

>  <PUBCHEM_CONFORMER_ID>  (1) 
0000953200000002

>  <PUBCHEM_MMFF94_ENERGY>  (1) 
124.5845

>  <PUBCHEM_FEATURE_SELFOVERLAP>  (1) 
55.87

>  <PUBCHEM_SHAPE_FINGERPRINT>  (1) 
10498660 4 18343300357716639225
10646746 165 18272932704676809824
10759866 29 18409450250193456234
10863032 1 18408600353263869155
10948715 1 18410576201576394954
11578080 2 10663248935171489155
11640471 11 18261672670605466366
121448 382 18202284735916740034
12173636 292 18341329998978621725
12236239 1 18260551116883812864
12403259 415 18059859497275806904
12403814 3 17894347779185904309
12553582 1 17988634216555343315
12633257 1 16226047838015345480
12788726 201 17345479180644815985
128620 24 18273216421314991651
12892183 10 14418130690705321569
13224815 77 18412262826617069995
13583140 156 17530961406044716987
14289901 80 16660638557483488307
14787075 74 18043529623869270099
15183329 4 18339655456171476982
15209294 21 14851877032888834471
15788980 27 17275386508084450356
1601671 61 18113899360305295988
16752209 62 17917418809389966179
16945 1 18058995276809901827
17349148 13 18113617897902140344
17492 54 18337660984421631117
18186145 218 17822289033479809499
19862831 5 17561083600808391242
200 152 18131071536886156104
20715895 44 17977656516644840197
21033648 144 17677054663000236932
22393880 68 17917985066578890853
231179 274 17312822671776821572
23379529 103 16269088323806194359
23402539 116 17917991676786753980
23493267 7 18408884048965622915
23557571 272 18343028825821314319
23559900 14 17775567572518418160
296302 2 17312823783841087322
4325135 7 18041007262906667163
4340502 62 17604726448079988625
474 4 17894919524536236288
5104073 3 18408321073010016907
633830 44 17917987291287567008
9981440 41 17183346656603027520

>  <PUBCHEM_SHAPE_MULTIPOLES>  (1) 
470.43
8.84
1.99
1.66
3.63
0.35
0.13
-2.6
2.91
-0.66
-0.02
-0.31
-0.1
-0.44

>  <PUBCHEM_SHAPE_SELFOVERLAP>  (1) 
1002.147

>  <PUBCHEM_SHAPE_VOLUME>  (1) 
260.3

>  <PUBCHEM_COORDINATE_TYPE>  (1) 
2
5
10

$$$$
