38197
     RDKit          3D

 30 31  0  0  0  0  0  0  0  0999 V2000
   -3.9317    3.1956   -1.1175 O   0  0  0  0  0  0  0  0  0  0  0  0
   -4.1338   -3.0317    1.1499 O   0  0  0  0  0  0  0  0  0  0  0  0
    1.9342    1.8029    0.7959 O   0  0  0  0  0  0  0  0  0  0  0  0
    1.7713   -1.8849   -0.8156 O   0  0  0  0  0  0  0  0  0  0  0  0
    5.3702    2.1919    0.2908 O   0  0  0  0  0  0  0  0  0  0  0  0
    5.1953   -2.3465   -0.2901 O   0  0  0  0  0  0  0  0  0  0  0  0
    4.2301    1.0680    1.7991 O   0  0  0  0  0  0  0  0  0  0  0  0
    4.0866   -1.2586   -1.8475 O   0  0  0  0  0  0  0  0  0  0  0  0
   -2.6712    2.0395    0.4466 N   0  0  0  0  0  0  0  0  0  0  0  0
   -2.8389   -1.9805   -0.4619 N   0  0  0  0  0  0  0  0  0  0  0  0
   -1.4986    2.4459   -0.0912 N   0  0  0  0  0  0  0  0  0  0  0  0
   -1.6777   -2.3938    0.0948 N   0  0  0  0  0  0  0  0  0  0  0  0
    4.2642    1.8221    0.7829 N   0  0  0  0  0  0  0  0  0  0  0  0
    4.0999   -1.9682   -0.7993 N   0  0  0  0  0  0  0  0  0  0  0  0
   -5.1603    0.4208    0.6874 C   0  0  0  0  0  0  0  0  0  0  0  0
   -5.2136   -0.2647   -0.6830 C   0  0  0  0  0  0  0  0  0  0  0  0
   -5.0660    1.9455    0.6206 C   0  0  0  0  0  0  0  0  0  0  0  0
   -5.2266   -1.7895   -0.6190 C   0  0  0  0  0  0  0  0  0  0  0  0
   -3.8533    2.4645   -0.1338 C   0  0  0  0  0  0  0  0  0  0  0  0
   -4.0322   -2.3475    0.1351 C   0  0  0  0  0  0  0  0  0  0  0  0
    0.8948    2.3220    0.0911 C   0  0  0  0  0  0  0  0  0  0  0  0
    0.7179   -2.3438   -0.0900 C   0  0  0  0  0  0  0  0  0  0  0  0
   -0.4534    1.9941    0.5241 C   0  0  0  0  0  0  0  0  0  0  0  0
   -0.6206   -1.9980   -0.5385 C   0  0  0  0  0  0  0  0  0  0  0  0
    1.3547    3.0965   -0.9484 C   0  0  0  0  0  0  0  0  0  0  0  0
    1.1564   -3.0845    0.9829 C   0  0  0  0  0  0  0  0  0  0  0  0
    3.0702    2.2509    0.2001 C   0  0  0  0  0  0  0  0  0  0  0  0
    2.8945   -2.3377   -0.1995 C   0  0  0  0  0  0  0  0  0  0  0  0
    2.7675    3.0504   -0.8775 C   0  0  0  0  0  0  0  0  0  0  0  0
    2.5699   -3.0807    0.9116 C   0  0  0  0  0  0  0  0  0  0  0  0
  1 19  2  0
  2 20  2  0
  3 21  1  0
  3 27  1  0
  4 22  1  0
  4 28  1  0
  5 13  1  0
  6 14  1  0
  7 13  2  0
  8 14  2  0
  9 11  1  0
  9 19  1  0
 10 12  1  0
 10 20  1  0
 11 23  2  0
 12 24  2  0
 13 27  1  0
 14 28  1  0
 15 16  1  0
 15 17  1  0
 16 18  1  0
 17 19  1  0
 18 20  1  0
 21 23  1  0
 21 25  2  0
 22 24  1  0
 22 26  2  0
 25 29  1  0
 26 30  1  0
 27 29  2  0
 28 30  2  0
M  CHG  4   5  -1   6  -1  13   1  14   1
M  END
>  <PUBCHEM_COMPOUND_CID>  (1) 
38197

>  <PUBCHEM_CONFORMER_RMSD>  (1) 
1.2

>  <PUBCHEM_CONFORMER_DIVERSEORDER>  (1) 
1
2
101
46
27
135
9
5
82
45
98
24
145
31
4
44
54
115
12
47
107
3
18
68
43
139
10
104
19
66
95
91
96
42
146
64
100
60
86
75
114
81
40
36
147
69
122
142
52
22
85
83
77
124
113
65
33
110
121
15
25
140
94
21
8
132
49
127
105
78
76
63
37
109
118
90
102
16
26
106
30
6
141
28
112
70
41
87
38
57
123
136
61
119
14
131
144
116
134
50
125
97
143
39
35
20
7
51
128
17
53
55
120
130
34
58
108
72
62
84
89
74
29
92
80
11
111
71
133
48
138
56
93
129
117
79
73
67
126
59
13
103
23
32
99
88
137

>  <PUBCHEM_MMFF94_PARTIAL_CHARGES>  (1) 
36
1 -0.57
10 -0.37
11 -0.51
12 -0.51
13 0.96
14 0.96
17 0.06
18 0.06
19 0.57
2 -0.57
20 0.57
21 0.05
22 0.05
23 0.47
24 0.47
25 -0.15
26 -0.15
27 0.22
28 0.22
29 -0.15
3 -0.28
30 -0.15
39 0.37
4 -0.28
40 0.37
41 0.06
42 0.06
43 0.15
44 0.15
45 0.15
46 0.15
5 -0.52
6 -0.52
7 -0.52
8 -0.52
9 -0.37

>  <PUBCHEM_EFFECTIVE_ROTOR_COUNT>  (1) 
13

>  <PUBCHEM_PHARMACOPHORE_FEATURES>  (1) 
17
1 1 acceptor
1 10 donor
1 11 acceptor
1 12 acceptor
1 2 acceptor
1 3 acceptor
1 4 acceptor
1 5 acceptor
1 5 anion
1 6 acceptor
1 6 anion
1 7 acceptor
1 8 acceptor
1 9 donor
4 15 16 17 18 hydrophobe
5 3 21 25 27 29 rings
5 4 22 26 28 30 rings

>  <PUBCHEM_HEAVY_ATOM_COUNT>  (1) 
30

>  <PUBCHEM_ATOM_DEF_STEREO_COUNT>  (1) 
0

>  <PUBCHEM_ATOM_UDEF_STEREO_COUNT>  (1) 
0

>  <PUBCHEM_BOND_DEF_STEREO_COUNT>  (1) 
0

>  <PUBCHEM_BOND_UDEF_STEREO_COUNT>  (1) 
2

>  <PUBCHEM_ISOTOPIC_ATOM_COUNT>  (1) 
0

>  <PUBCHEM_COMPONENT_COUNT>  (1) 
1

>  <PUBCHEM_CACTVS_TAUTO_COUNT>  (1) 
3

>  <PUBCHEM_CONFORMER_ID>  (1) 
0000953500000001

>  <PUBCHEM_MMFF94_ENERGY>  (1) 
38.521

>  <PUBCHEM_FEATURE_SELFOVERLAP>  (1) 
86.475

>  <PUBCHEM_SHAPE_FINGERPRINT>  (1) 
10838868 158 17608103279283810155
10864689 126 17762339110978446812
1100329 8 18267027163003895359
11186622 123 18411139143061136015
11513181 2 18131350821482930791
12422481 6 18197187357561540066
12788726 201 17979930619606586524
13111901 25 18335974312758464184
14117953 113 17330552047608779349
144659 178 18335709376699419325
15001296 14 18335699494290322689
15968369 153 17988633095911867644
16112460 7 18271539598101836921
17093844 170 18267867371025475764
18336668 15 18115036186207792397
20609170 92 18261379041288598909
20721686 56 18409169948375826731
20764821 26 18336275577926609285
3027735 51 18268433614965463009
338550 245 18408608092969048868
373842 8 18410003351554499411
463206 1 18338526239706174281
508706 21 18408039611350606941
57527585 103 17315371456116520075
59755656 215 18342178929361050468
9543594 6 18411700971690430916

>  <PUBCHEM_SHAPE_MULTIPOLES>  (1) 
540.55
12.34
5.7
1.13
5.22
0.03
0.01
0.18
-0.06
-1.45
0.04
-0.63
-0.04
0.61

>  <PUBCHEM_SHAPE_SELFOVERLAP>  (1) 
1127.545

>  <PUBCHEM_SHAPE_VOLUME>  (1) 
304.8

>  <PUBCHEM_COORDINATE_TYPE>  (1) 
2
5
10

$$$$
