38192
     RDKit          3D

 18 18  0  0  1  0  0  0  0  0999 V2000
   -6.0095    0.2217   -0.7380 O   0  0  0  0  0  0  0  0  0  0  0  0
   -5.2402    1.4578    1.0159 O   0  0  0  0  0  0  0  0  0  0  0  0
    3.1959   -1.1194   -1.0711 O   0  0  0  0  0  0  0  0  0  0  0  0
   -0.9009   -0.5121    0.2732 C   0  0  0  0  0  0  0  0  0  0  0  0
   -1.2272    0.8190   -0.4175 C   0  0  0  0  0  0  0  0  0  0  0  0
   -1.9645   -1.5703   -0.0499 C   0  0  0  0  0  0  0  0  0  0  0  0
    0.4882   -1.0028   -0.1308 C   0  0  0  0  0  0  0  0  0  0  0  0
   -3.6879    0.2469   -0.3854 C   0  0  0  0  0  0  0  0  0  0  0  0
   -2.6319    1.3056   -0.0678 C   0  0  0  0  0  0  0  0  0  0  0  0
   -3.3694   -1.0830    0.2981 C   0  0  0  0  0  0  0  0  0  0  0  0
    1.5481    0.0377    0.2604 C   0  0  0  0  0  0  0  0  0  0  0  0
    0.7686   -2.3576    0.5245 C   0  0  0  0  0  0  0  0  0  0  0  0
   -5.0362    0.7221    0.0616 C   0  0  0  0  0  0  0  0  0  0  0  0
    2.9658   -0.3497   -0.1397 C   0  0  0  0  0  0  0  0  0  0  0  0
    4.0744    0.2110    0.7416 C   0  0  0  0  0  0  0  0  0  0  0  0
    5.3861    0.4824   -0.0103 C   0  0  0  0  0  0  0  0  0  0  0  0
    5.1861    1.5083   -1.1288 C   0  0  0  0  0  0  0  0  0  0  0  0
    6.4546    0.9826    0.9640 C   0  0  0  0  0  0  0  0  0  0  0  0
  1 13  1  0
  2 13  2  0
  3 14  2  0
  4  5  1  0
  4  6  1  0
  4  7  1  0
  5  9  1  0
  6 10  1  0
  7 11  1  0
  7 12  1  0
  8  9  1  0
  8 10  1  0
  8 13  1  0
 11 14  1  0
 14 15  1  0
 15 16  1  0
 16 17  1  0
 16 18  1  0
M  END
>  <PUBCHEM_COMPOUND_CID>  (1) 
38192

>  <PUBCHEM_CONFORMER_RMSD>  (1) 
0.8

>  <PUBCHEM_CONFORMER_DIVERSEORDER>  (1) 
3
207
149
216
210
221
199
220
52
27
194
158
106
24
123
102
10
97
174
178
45
159
171
139
185
86
103
23
144
177
47
89
33
223
211
189
91
222
117
2
28
58
191
162
35
137
7
78
141
226
201
110
53
43
69
175
59
74
134
225
90
219
131
14
60
151
157
26
197
4
115
143
121
124
208
127
66
204
68
200
82
164
227
25
145
165
30
81
15
13
195
142
147
92
36
40
20
95
169
73
188
70
38
46
44
229
153
64
228
230
63
130
166
179
99
57
125
1
5
111
181
129
160
156
224
88
77
196
184
136
148
183
104
17
163
122
67
128
186
55
172
107
113
198
192
155
37
161
29
173
42
140
54
34
6
203
180
120
118
22
16
215
48
80
150
76
83
8
146
202
100
209
56
133
138
214
62
218
119
126
170
112
41
61
12
187
206
85
152
168
93
212
72
49
116
39
109
84
18
182
101
213
217
114
190
87
193
19
108
32
167
51
135
75
98
205
154
65
11
94
176
105
9
71
50
79
96
132
21
31

>  <PUBCHEM_MMFF94_PARTIAL_CHARGES>  (1) 
9
1 -0.65
11 0.06
13 0.66
14 0.45
15 0.06
2 -0.57
3 -0.57
38 0.5
8 0.06

>  <PUBCHEM_EFFECTIVE_ROTOR_COUNT>  (1) 
7.2

>  <PUBCHEM_PHARMACOPHORE_FEATURES>  (1) 
7
1 1 acceptor
1 12 hydrophobe
1 2 acceptor
1 3 acceptor
3 1 2 13 anion
3 16 17 18 hydrophobe
6 4 5 6 8 9 10 rings

>  <PUBCHEM_HEAVY_ATOM_COUNT>  (1) 
18

>  <PUBCHEM_ATOM_DEF_STEREO_COUNT>  (1) 
0

>  <PUBCHEM_ATOM_UDEF_STEREO_COUNT>  (1) 
1

>  <PUBCHEM_BOND_DEF_STEREO_COUNT>  (1) 
0

>  <PUBCHEM_BOND_UDEF_STEREO_COUNT>  (1) 
0

>  <PUBCHEM_ISOTOPIC_ATOM_COUNT>  (1) 
0

>  <PUBCHEM_COMPONENT_COUNT>  (1) 
1

>  <PUBCHEM_CACTVS_TAUTO_COUNT>  (1) 
3

>  <PUBCHEM_CONFORMER_ID>  (1) 
0000953000000003

>  <PUBCHEM_MMFF94_ENERGY>  (1) 
28.5655

>  <PUBCHEM_FEATURE_SELFOVERLAP>  (1) 
35.576

>  <PUBCHEM_SHAPE_FINGERPRINT>  (1) 
10 15 17603591849840978057
100836 57 18409169917709278912
117890 112 18342176665649567136
12236239 1 17385721426437932586
12555020 224 10231744566680755305
12596602 18 16298389097442420600
12616971 3 16443349805591034070
12714333 28 17632574959564643776
12730499 353 18060707190903157510
12916748 109 18334019367144509840
13214271 11 18334576871570276599
13288520 33 9223232957709236475
13533116 47 18270398288084801546
13631057 29 18340199821691196675
13685833 64 9079114475150774020
1420 363 9655576322475666092
14251752 14 12607416455308951611
15048467 5 18343301448965276145
15188451 53 13695882462613942281
17834072 32 18336832008636731060
17834072 33 17275098431917085487
17980427 23 17895199956004959703
18222031 100 10663816356485895634
19784866 170 18260550008956421243
20281389 69 18334289855605693256
20645477 56 18411699893801306599
20645477 70 17417818275460919582
20871999 31 17417517116406433191
21150785 3 16271921640595308637
22224240 67 18187364337842949091
23016692 55 9223231879809452520
23198884 109 16988848271827641449
23402539 116 18338508742246469070
23402655 69 18060419109971106070
23557571 272 18129951198746106334
23559900 14 18412271619169817398
23590187 198 11169918281812344017
26918003 58 14273458067746199325
2767999 5 18409162220980386324
2916195 48 18271801363188724256
293599 30 18413390934031627034
300161 21 18408598162840915614
3472631 163 18262527008652661324
34797466 226 16487256616133841344
34934 24 18412258428544568207
351380 3 9727637198259238580
3545911 37 18411700980807710788
4340502 62 16443064984808062682
465052 167 8214142971679150352
5104073 3 18334018254917182419
542803 24 17967532398132531420
59682541 35 18335147531506544043
59682541 52 17059780988087285756
59755656 215 18338803321474679838
59755656 520 18040431109939616874

>  <PUBCHEM_SHAPE_MULTIPOLES>  (1) 
352.82
14.72
1.74
0.92
5.54
0.6
0.01
-7.74
-0.95
-0.22
-0.04
0.58
-0.15
-0.27

>  <PUBCHEM_SHAPE_SELFOVERLAP>  (1) 
694.156

>  <PUBCHEM_SHAPE_VOLUME>  (1) 
209.9

>  <PUBCHEM_COORDINATE_TYPE>  (1) 
2
5
10

$$$$
