38215
     RDKit          3D

 14 14  0  0  0  0  0  0  0  0999 V2000
   -5.3313    0.9883    0.8181 Cl  0  0  0  0  0  0  0  0  0  0  0  0
   -0.4010   -1.9546    0.0671 O   0  0  0  0  0  0  0  0  0  0  0  0
   -2.5476    0.3158    1.1472 O   0  0  0  0  0  0  0  0  0  0  0  0
    0.2865    0.1728   -0.6557 N   0  0  0  0  0  0  0  0  0  0  0  0
   -1.9854   -0.5451   -1.0222 C   0  0  0  0  0  0  0  0  0  0  0  0
    1.6487    0.2148   -0.2727 C   0  0  0  0  0  0  0  0  0  0  0  0
   -0.6083   -0.8743   -0.4789 C   0  0  0  0  0  0  0  0  0  0  0  0
   -2.9257    0.0531    0.0066 C   0  0  0  0  0  0  0  0  0  0  0  0
    2.3877    1.3586   -0.5246 C   0  0  0  0  0  0  0  0  0  0  0  0
    2.2130   -0.8887    0.3447 C   0  0  0  0  0  0  0  0  0  0  0  0
    3.7300    1.4000   -0.1479 C   0  0  0  0  0  0  0  0  0  0  0  0
    3.5555   -0.8472    0.7214 C   0  0  0  0  0  0  0  0  0  0  0  0
    4.3139    0.2971    0.4752 C   0  0  0  0  0  0  0  0  0  0  0  0
   -4.3358    0.3093   -0.4781 C   0  0  0  0  0  0  0  0  0  0  0  0
  1 14  1  0
  2  7  2  0
  3  8  2  0
  4  6  1  0
  4  7  1  0
  5  7  1  0
  5  8  1  0
  6  9  2  0
  6 10  1  0
  8 14  1  0
  9 11  1  0
 10 12  2  0
 11 13  2  0
 12 13  1  0
M  END
>  <PUBCHEM_COMPOUND_CID>  (1) 
38215

>  <PUBCHEM_CONFORMER_RMSD>  (1) 
0.6

>  <PUBCHEM_CONFORMER_DIVERSEORDER>  (1) 
1
66
2
92
27
88
40
85
23
74
36
81
14
60
86
80
3
58
47
19
12
93
91
62
17
41
46
65
22
54
79
28
83
78
32
57
84
8
9
26
50
64
5
37
70
16
31
51
38
39
34
25
55
67
82
52
56
30
53
73
90
7
33
48
43
18
69
11
24
42
35
76
15
49
61
71
59
29
6
87
10
75
89
13
72
77
4
63
21
45
44
68
20

>  <PUBCHEM_MMFF94_PARTIAL_CHARGES>  (1) 
20
1 -0.29
10 -0.15
11 -0.15
12 -0.15
13 -0.15
14 0.35
17 0.37
18 0.15
19 0.15
2 -0.57
20 0.15
21 0.15
24 0.15
3 -0.57
4 -0.55
5 0.12
6 0.12
7 0.57
8 0.45
9 -0.15

>  <PUBCHEM_EFFECTIVE_ROTOR_COUNT>  (1) 
5

>  <PUBCHEM_PHARMACOPHORE_FEATURES>  (1) 
5
1 2 acceptor
1 3 acceptor
1 4 donor
1 5 anion
6 6 9 10 11 12 13 rings

>  <PUBCHEM_HEAVY_ATOM_COUNT>  (1) 
14

>  <PUBCHEM_ATOM_DEF_STEREO_COUNT>  (1) 
0

>  <PUBCHEM_ATOM_UDEF_STEREO_COUNT>  (1) 
0

>  <PUBCHEM_BOND_DEF_STEREO_COUNT>  (1) 
0

>  <PUBCHEM_BOND_UDEF_STEREO_COUNT>  (1) 
0

>  <PUBCHEM_ISOTOPIC_ATOM_COUNT>  (1) 
0

>  <PUBCHEM_COMPONENT_COUNT>  (1) 
1

>  <PUBCHEM_CACTVS_TAUTO_COUNT>  (1) 
8

>  <PUBCHEM_CONFORMER_ID>  (1) 
0000954700000001

>  <PUBCHEM_MMFF94_ENERGY>  (1) 
32.224

>  <PUBCHEM_FEATURE_SELFOVERLAP>  (1) 
25.372

>  <PUBCHEM_SHAPE_FINGERPRINT>  (1) 
10354089 29 18335143093808547712
10498660 4 15984552074979932057
114248 4 14189571944891471885
12251169 10 18187082866575656030
13675066 3 17458343035470317165
14144814 61 18409442618141630934
14252887 29 16805603638030225824
14445660 50 18262517108362510446
15477762 27 9871757901257510968
15775835 57 18342175583207006261
17844478 74 16950271902119606870
18186145 218 18409725162407066438
20112054 13 18333169466326163463
20279233 1 16660638561715190939
204376 136 18411140238510073815
20645477 70 18041541564959290766
20871999 31 15051717691576440093
212847 35 18202844339948005272
22485316 2 8214144049351710679
22854114 59 17967249797584310319
23048698 100 18410292510264469904
23402539 116 16845281740122760629
23402655 69 18130786780380474996
23557571 272 15553870213383943703
23559900 14 15554450704131339220
3268164 11 16343695509447434953
351380 180 18259981561719343005
351380 3 11674886602140177457
4028521 119 16271929285885048073
42 15 17748544831448855957
465052 167 11098154244837320945
5104073 3 18261946474918228152
53428517 58 12967125029756619141
633830 44 18343304751631583863

>  <PUBCHEM_SHAPE_MULTIPOLES>  (1) 
273.26
10.09
1.39
0.96
7.08
0.13
0.05
-3.69
2.45
-0.61
-0.01
0.42
-0.03
-0.83

>  <PUBCHEM_SHAPE_SELFOVERLAP>  (1) 
549.699

>  <PUBCHEM_SHAPE_VOLUME>  (1) 
160.2

>  <PUBCHEM_COORDINATE_TYPE>  (1) 
2
5
10

$$$$
