38212
     RDKit          3D

 20 21  0  0  0  0  0  0  0  0999 V2000
   -0.0448   -1.9885    1.6231 S   0  0  0  0  0  0  0  0  0  0  0  0
   -0.8757   -0.7594   -0.6121 O   0  0  0  0  0  0  0  0  0  0  0  0
    1.6914   -2.2946   -1.0728 O   0  0  0  0  0  0  0  0  0  0  0  0
   -0.1424    1.2304    1.5304 O   0  0  0  0  0  0  0  0  0  0  0  0
   -2.2405   -0.1616    1.1358 O   0  0  0  0  0  0  0  0  0  0  0  0
   -3.0740   -0.3629   -1.0198 N   0  0  0  0  0  0  0  0  0  0  0  0
    0.2222   -0.8406    0.2566 C   0  0  0  0  0  0  0  0  0  0  0  0
    2.4266   -0.1300   -0.4227 C   0  0  0  0  0  0  0  0  0  0  0  0
    1.8889    0.9036    0.3408 C   0  0  0  0  0  0  0  0  0  0  0  0
    1.4741   -1.2409   -0.5044 C   0  0  0  0  0  0  0  0  0  0  0  0
    0.5494    0.5367    0.8087 C   0  0  0  0  0  0  0  0  0  0  0  0
    3.6870   -0.0402   -0.9804 C   0  0  0  0  0  0  0  0  0  0  0  0
    2.5890    2.0702    0.5786 C   0  0  0  0  0  0  0  0  0  0  0  0
    4.4093    1.1341   -0.7514 C   0  0  0  0  0  0  0  0  0  0  0  0
    3.8657    2.1791    0.0206 C   0  0  0  0  0  0  0  0  0  0  0  0
   -2.0877   -0.4037   -0.0569 C   0  0  0  0  0  0  0  0  0  0  0  0
   -0.2018   -3.5176    0.6692 C   0  0  0  0  0  0  0  0  0  0  0  0
   -4.4504   -0.0212   -0.7440 C   0  0  0  0  0  0  0  0  0  0  0  0
   -4.6254    1.4538   -0.8898 C   0  0  0  0  0  0  0  0  0  0  0  0
   -5.0608    2.2535    0.0904 C   0  0  0  0  0  0  0  0  0  0  0  0
  1  7  1  0
  1 17  1  0
  2  7  1  0
  2 16  1  0
  3 10  2  0
  4 11  2  0
  5 16  2  0
  6 16  1  0
  6 18  1  0
  7 10  1  0
  7 11  1  0
  8  9  2  0
  8 10  1  0
  8 12  1  0
  9 11  1  0
  9 13  1  0
 12 14  2  0
 13 15  2  0
 14 15  1  0
 18 19  1  0
 19 20  2  0
M  END
>  <PUBCHEM_COMPOUND_CID>  (1) 
38212

>  <PUBCHEM_CONFORMER_RMSD>  (1) 
0.8

>  <PUBCHEM_CONFORMER_DIVERSEORDER>  (1) 
1
20
14
25
31
40
27
33
34
4
28
45
29
18
23
37
35
2
6
44
3
9
26
42
7
38
15
21
39
43
5
36
41
16
22
11
10
46
13
30
12
19
24
8
32
17

>  <PUBCHEM_MMFF94_PARTIAL_CHARGES>  (1) 
28
1 -0.46
10 0.42
11 0.42
12 -0.15
13 -0.15
14 -0.15
15 -0.15
16 0.78
17 0.23
18 0.44
19 -0.29
2 -0.43
20 -0.3
21 0.15
22 0.15
23 0.15
24 0.15
28 0.37
3 -0.57
31 0.15
32 0.15
33 0.15
4 -0.57
5 -0.57
6 -0.73
7 0.63
8 0.09
9 0.09

>  <PUBCHEM_EFFECTIVE_ROTOR_COUNT>  (1) 
6.2

>  <PUBCHEM_PHARMACOPHORE_FEATURES>  (1) 
8
1 17 hydrophobe
1 20 hydrophobe
1 3 acceptor
1 4 acceptor
1 5 acceptor
1 6 donor
5 7 8 9 10 11 rings
6 8 9 12 13 14 15 rings

>  <PUBCHEM_HEAVY_ATOM_COUNT>  (1) 
20

>  <PUBCHEM_ATOM_DEF_STEREO_COUNT>  (1) 
0

>  <PUBCHEM_ATOM_UDEF_STEREO_COUNT>  (1) 
0

>  <PUBCHEM_BOND_DEF_STEREO_COUNT>  (1) 
0

>  <PUBCHEM_BOND_UDEF_STEREO_COUNT>  (1) 
0

>  <PUBCHEM_ISOTOPIC_ATOM_COUNT>  (1) 
0

>  <PUBCHEM_COMPONENT_COUNT>  (1) 
1

>  <PUBCHEM_CACTVS_TAUTO_COUNT>  (1) 
2

>  <PUBCHEM_CONFORMER_ID>  (1) 
0000954400000001

>  <PUBCHEM_MMFF94_ENERGY>  (1) 
50.3062

>  <PUBCHEM_FEATURE_SELFOVERLAP>  (1) 
40.692

>  <PUBCHEM_SHAPE_FINGERPRINT>  (1) 
10498660 4 18188194426262476677
10756046 5 17985836925471839045
11796584 16 12823297892690689805
12138202 97 18262523735492234634
12293681 160 18060422417196372328
12363563 72 11455892502889956765
12730499 353 18335426742661085547
12769317 202 18339350890548885765
12892183 10 12107783016722677278
13004483 165 17037233122780291171
13103583 49 10809608274024241813
13464514 151 18411136922351878419
13544653 18 11023827292525956903
13583140 156 17531809202788174048
13878862 14 17537413160695762325
13955234 65 17970908856766325507
14251764 30 11386912330498725624
15163728 17 17968676972088036492
16752209 62 15554450652581123421
16945 1 18272380767140880698
17959699 21 18412826854808125765
18186145 218 18340777025790987528
18222031 100 9727632830024135337
19765921 60 18339069480117776547
19784866 34 18408319973841247073
19862831 5 17561080311137891933
200 152 16271662164778665612
20261772 1 12324246074264912673
20645477 70 17703800218572894294
221357 26 17989199370260010709
22182313 1 17911814766775431606
22393880 68 17989201581397515629
22907989 373 17686058705105745423
231179 274 18408319986320038565
23402655 69 18130787854191065621
23493267 7 18116713104991792696
23557571 272 17895491318085776451
23559900 14 18270407208858085884
25 1 18411416223943229462
2748010 2 17840883081207998130
3009799 131 18272373045311636372
394222 165 18187918444010614307
4028521 119 18342176695556348973
427121 178 17168146702394786267
463206 1 12751241406628010093
474 4 18186240636796143501
543358 83 18129666275068717437
5895379 119 17628351571914446801
633830 44 18410567384066279533
6442390 28 18187650219424749067
76465 3 11383839242142033100
84936 182 18338792317172004641

>  <PUBCHEM_SHAPE_MULTIPOLES>  (1) 
386.98
8.64
2.92
1.26
7.6
1.66
0.22
-7.9
-2.95
-0.05
0.61
0.03
0.24
0.49

>  <PUBCHEM_SHAPE_SELFOVERLAP>  (1) 
816.867

>  <PUBCHEM_SHAPE_VOLUME>  (1) 
219.2

>  <PUBCHEM_COORDINATE_TYPE>  (1) 
2
5
10

$$$$
