38211
     RDKit          3D

 21 22  0  0  0  0  0  0  0  0999 V2000
   -0.0760   -1.3321    2.1770 S   0  0  0  0  0  0  0  0  0  0  0  0
   -0.9350   -0.4236   -0.1966 O   0  0  0  0  0  0  0  0  0  0  0  0
    1.2585   -2.4834   -0.5192 O   0  0  0  0  0  0  0  0  0  0  0  0
    0.3726    1.7651    1.4119 O   0  0  0  0  0  0  0  0  0  0  0  0
   -1.9465    0.7457    1.4864 O   0  0  0  0  0  0  0  0  0  0  0  0
   -3.1202    0.3383   -0.4795 N   0  0  0  0  0  0  0  0  0  0  0  0
    0.2252   -0.5444    0.5817 C   0  0  0  0  0  0  0  0  0  0  0  0
    2.4257   -0.4165   -0.4018 C   0  0  0  0  0  0  0  0  0  0  0  0
    2.1659    0.8293    0.1647 C   0  0  0  0  0  0  0  0  0  0  0  0
    1.2932   -1.3178   -0.1719 C   0  0  0  0  0  0  0  0  0  0  0  0
    0.8465    0.8248    0.8022 C   0  0  0  0  0  0  0  0  0  0  0  0
    3.6099   -0.6807   -1.0619 C   0  0  0  0  0  0  0  0  0  0  0  0
    3.0794    1.8631    0.0945 C   0  0  0  0  0  0  0  0  0  0  0  0
   -2.0025    0.2600    0.3579 C   0  0  0  0  0  0  0  0  0  0  0  0
   -4.3447    1.0206   -0.0727 C   0  0  0  0  0  0  0  0  0  0  0  0
   -3.1313   -0.2562   -1.8085 C   0  0  0  0  0  0  0  0  0  0  0  0
    4.5453    0.3543   -1.1439 C   0  0  0  0  0  0  0  0  0  0  0  0
    4.2826    1.6140   -0.5713 C   0  0  0  0  0  0  0  0  0  0  0  0
   -0.6030   -2.9578    1.5840 C   0  0  0  0  0  0  0  0  0  0  0  0
   -4.3192    2.4846   -0.4609 C   0  0  0  0  0  0  0  0  0  0  0  0
   -3.6265   -1.6872   -1.7722 C   0  0  0  0  0  0  0  0  0  0  0  0
  1  7  1  0
  1 19  1  0
  2  7  1  0
  2 14  1  0
  3 10  2  0
  4 11  2  0
  5 14  2  0
  6 14  1  0
  6 15  1  0
  6 16  1  0
  7 10  1  0
  7 11  1  0
  8  9  2  0
  8 10  1  0
  8 12  1  0
  9 11  1  0
  9 13  1  0
 12 17  2  0
 13 18  2  0
 15 20  1  0
 16 21  1  0
 17 18  1  0
M  END
>  <PUBCHEM_COMPOUND_CID>  (1) 
38211

>  <PUBCHEM_CONFORMER_RMSD>  (1) 
0.8

>  <PUBCHEM_CONFORMER_DIVERSEORDER>  (1) 
1
22
23
17
19
14
20
21
11
10
12
13
9
15
18
2
3
5
16
7
6
4
8

>  <PUBCHEM_MMFF94_PARTIAL_CHARGES>  (1) 
23
1 -0.46
10 0.42
11 0.42
12 -0.15
13 -0.15
14 0.78
15 0.3
16 0.3
17 -0.15
18 -0.15
19 0.23
2 -0.43
22 0.15
23 0.15
28 0.15
29 0.15
3 -0.57
4 -0.57
5 -0.57
6 -0.66
7 0.63
8 0.09
9 0.09

>  <PUBCHEM_EFFECTIVE_ROTOR_COUNT>  (1) 
6.2

>  <PUBCHEM_PHARMACOPHORE_FEATURES>  (1) 
6
1 19 hydrophobe
1 3 acceptor
1 4 acceptor
1 5 acceptor
5 7 8 9 10 11 rings
6 8 9 12 13 17 18 rings

>  <PUBCHEM_HEAVY_ATOM_COUNT>  (1) 
21

>  <PUBCHEM_ATOM_DEF_STEREO_COUNT>  (1) 
0

>  <PUBCHEM_ATOM_UDEF_STEREO_COUNT>  (1) 
0

>  <PUBCHEM_BOND_DEF_STEREO_COUNT>  (1) 
0

>  <PUBCHEM_BOND_UDEF_STEREO_COUNT>  (1) 
0

>  <PUBCHEM_ISOTOPIC_ATOM_COUNT>  (1) 
0

>  <PUBCHEM_COMPONENT_COUNT>  (1) 
1

>  <PUBCHEM_CACTVS_TAUTO_COUNT>  (1) 
1

>  <PUBCHEM_CONFORMER_ID>  (1) 
0000954300000001

>  <PUBCHEM_MMFF94_ENERGY>  (1) 
53.4111

>  <PUBCHEM_FEATURE_SELFOVERLAP>  (1) 
30.544

>  <PUBCHEM_SHAPE_FINGERPRINT>  (1) 
10498660 4 17896026681628384101
11543360 7 18131067177220122148
12138202 97 18041849522693623826
121448 382 17677320757683398403
12363563 72 13039183719174822349
12670546 177 18202565098407107772
12707595 3 14836114490170030677
12730499 353 18115318774013679081
12892183 10 11386372551376212596
13004483 165 16529728216411192499
13134695 92 16375472370015214915
13464514 151 18335986376287746632
13544653 18 13398909834490434146
15209294 21 13334733561586445340
16945 1 18339370669152384586
17349148 13 18413666912083208306
17357779 13 17832707146719238891
1813 80 17612857206727245954
18186145 218 18186800279350076276
18222031 100 10663813096294559889
19765921 60 18335416850982027539
19784866 34 18187083914748344201
19862831 5 17988924461549401685
200 152 17131845265590041812
20871999 31 18060412539166736397
221357 26 17988073517328289807
22182313 1 18125174976739119312
22393880 68 18131066043591518180
22907989 373 17755029927054820015
23382010 3 18337666524634004530
23402539 116 18407758140669130044
23402655 69 18272373040120383220
23419403 2 17549267381431387051
23493267 7 18041566952811164416
23557571 272 17386873697290901099
23559900 14 16988838398109375720
25 1 18335421248843895888
2748010 2 18126304153642718330
2838139 119 17967814998586678300
3082319 5 17989205953616252293
3323516 105 17988074629308126631
474 4 18113622287242964645
59755656 520 17967256403022842426
633830 44 18260266326187023109
6442390 28 17967544458480099763
81228 2 17244435418929479451
9981440 41 17195986573076195664

>  <PUBCHEM_SHAPE_MULTIPOLES>  (1) 
407.56
8.24
2.56
1.71
1.14
0.88
0.09
-5.05
-4.33
0.82
0.63
0.83
0.72
-0.19

>  <PUBCHEM_SHAPE_SELFOVERLAP>  (1) 
852.864

>  <PUBCHEM_SHAPE_VOLUME>  (1) 
234.1

>  <PUBCHEM_COORDINATE_TYPE>  (1) 
2
5
10

$$$$
