38214
     RDKit          3D

  9  8  0  0  1  0  0  0  0  0999 V2000
   -2.0534   -0.5644   -0.6204 O   0  0  0  0  0  0  0  0  0  0  0  0
   -1.3836    0.7240    1.1591 O   0  0  0  0  0  0  0  0  0  0  0  0
    0.1099   -0.0697   -0.4252 N   0  0  0  0  0  0  0  0  0  0  0  0
    1.3282    0.5098    0.1403 C   0  0  0  0  0  0  0  0  0  0  0  0
    2.5591   -0.3530   -0.1800 C   0  0  0  0  0  0  0  0  0  0  0  0
    1.5064    1.9215   -0.4168 C   0  0  0  0  0  0  0  0  0  0  0  0
    2.4671   -1.7735    0.3628 C   0  0  0  0  0  0  0  0  0  0  0  0
   -1.1269    0.0935    0.1387 C   0  0  0  0  0  0  0  0  0  0  0  0
   -3.4068   -0.4881   -0.1584 C   0  0  0  0  0  0  0  0  0  0  0  0
  1  8  1  0
  1  9  1  0
  2  8  2  0
  3  4  1  0
  3  8  1  0
  4  5  1  0
  4  6  1  0
  5  7  1  0
M  END
>  <PUBCHEM_COMPOUND_CID>  (1) 
38214

>  <PUBCHEM_CONFORMER_RMSD>  (1) 
0.6

>  <PUBCHEM_CONFORMER_DIVERSEORDER>  (1) 
1
14
18
3
10
13
15
21
2
9
19
8
5
11
6
12
4
7
20
16
17

>  <PUBCHEM_MMFF94_PARTIAL_CHARGES>  (1) 
7
1 -0.43
16 0.37
2 -0.57
3 -0.73
4 0.3
8 0.78
9 0.28

>  <PUBCHEM_EFFECTIVE_ROTOR_COUNT>  (1) 
4

>  <PUBCHEM_PHARMACOPHORE_FEATURES>  (1) 
3
1 2 acceptor
1 3 donor
1 7 hydrophobe

>  <PUBCHEM_HEAVY_ATOM_COUNT>  (1) 
9

>  <PUBCHEM_ATOM_DEF_STEREO_COUNT>  (1) 
0

>  <PUBCHEM_ATOM_UDEF_STEREO_COUNT>  (1) 
1

>  <PUBCHEM_BOND_DEF_STEREO_COUNT>  (1) 
0

>  <PUBCHEM_BOND_UDEF_STEREO_COUNT>  (1) 
0

>  <PUBCHEM_ISOTOPIC_ATOM_COUNT>  (1) 
0

>  <PUBCHEM_COMPONENT_COUNT>  (1) 
1

>  <PUBCHEM_CACTVS_TAUTO_COUNT>  (1) 
2

>  <PUBCHEM_CONFORMER_ID>  (1) 
0000954600000001

>  <PUBCHEM_MMFF94_ENERGY>  (1) 
6.1161

>  <PUBCHEM_FEATURE_SELFOVERLAP>  (1) 
15.223

>  <PUBCHEM_SHAPE_FINGERPRINT>  (1) 
10857977 72 15554444132652073347
12932741 1 17095531733097037121
12932764 1 17988080109944859077
20645477 70 18409724088987444031
20653085 51 17894908499803801501
20653091 64 18413394241467616472
20711985 344 17025989624522323972
20871998 22 18197498433400366206
23552333 60 18201159948395507352
23552423 10 18339642351260710359
23552449 11 18187632626911293224
29004967 10 18114469981006828760
5084963 1 18343019986461861177

>  <PUBCHEM_SHAPE_MULTIPOLES>  (1) 
168.5
4.72
1.57
0.8
2.73
0.22
-0.12
-1.71
0.26
-1.46
0.01
0.19
0.07
-0.41

>  <PUBCHEM_SHAPE_SELFOVERLAP>  (1) 
306.18

>  <PUBCHEM_SHAPE_VOLUME>  (1) 
109

>  <PUBCHEM_COORDINATE_TYPE>  (1) 
2
5
10

$$$$
