38210
     RDKit          3D

 34 37  0  0  0  0  0  0  0  0999 V2000
   -8.6307   -3.5449   -2.4305 Cl  0  0  0  0  0  0  0  0  0  0  0  0
  -10.5434    2.0365    1.2269 Cl  0  0  0  0  0  0  0  0  0  0  0  0
    1.4308   -1.6964    1.2054 O   0  0  0  0  0  0  0  0  0  0  0  0
   -7.6231   -0.3429   -0.2025 N   0  0  0  0  0  0  0  0  0  0  0  0
    0.9573    0.8219    0.8358 N   0  0  0  0  0  0  0  0  0  0  0  0
    4.8749    1.1878   -0.5878 N   0  0  0  0  0  0  0  0  0  0  0  0
    6.5543   -0.9666   -0.7083 N   0  0  0  0  0  0  0  0  0  0  0  0
   -3.9398    0.1657    0.7106 C   0  0  0  0  0  0  0  0  0  0  0  0
   -2.6466    0.2179   -0.1061 C   0  0  0  0  0  0  0  0  0  0  0  0
   -5.1909   -0.0597   -0.1442 C   0  0  0  0  0  0  0  0  0  0  0  0
   -1.4398    0.5172    0.7857 C   0  0  0  0  0  0  0  0  0  0  0  0
   -6.4774   -0.1372    0.6770 C   0  0  0  0  0  0  0  0  0  0  0  0
   -0.1438    0.5316   -0.0191 C   0  0  0  0  0  0  0  0  0  0  0  0
    2.2917    0.9240    0.3551 C   0  0  0  0  0  0  0  0  0  0  0  0
    3.1308   -0.1939    0.3035 C   0  0  0  0  0  0  0  0  0  0  0  0
   -7.6952   -1.7392   -0.6356 C   0  0  0  0  0  0  0  0  0  0  0  0
   -8.8640    0.0456    0.4696 C   0  0  0  0  0  0  0  0  0  0  0  0
    2.7472    2.1759   -0.0662 C   0  0  0  0  0  0  0  0  0  0  0  0
    4.4411   -0.0242   -0.1823 C   0  0  0  0  0  0  0  0  0  0  0  0
    4.0657    2.2635   -0.5374 C   0  0  0  0  0  0  0  0  0  0  0  0
    2.6832   -1.4508    0.7231 C   0  0  0  0  0  0  0  0  0  0  0  0
    5.2971   -1.1221   -0.2438 C   0  0  0  0  0  0  0  0  0  0  0  0
    4.8372   -2.3884    0.1823 C   0  0  0  0  0  0  0  0  0  0  0  0
   -8.5219   -1.8472   -1.9076 C   0  0  0  0  0  0  0  0  0  0  0  0
   -9.0460    1.5537    0.3948 C   0  0  0  0  0  0  0  0  0  0  0  0
    3.5339   -2.5448    0.6627 C   0  0  0  0  0  0  0  0  0  0  0  0
    1.9268    3.3169   -0.0257 C   0  0  0  0  0  0  0  0  0  0  0  0
    4.5291    3.5069   -0.9594 C   0  0  0  0  0  0  0  0  0  0  0  0
    2.4133    4.5486   -0.4532 C   0  0  0  0  0  0  0  0  0  0  0  0
    5.7135   -3.4802    0.1128 C   0  0  0  0  0  0  0  0  0  0  0  0
    3.7176    4.6434   -0.9211 C   0  0  0  0  0  0  0  0  0  0  0  0
    7.0031   -3.3114   -0.3657 C   0  0  0  0  0  0  0  0  0  0  0  0
    7.3711   -2.0436   -0.7608 C   0  0  0  0  0  0  0  0  0  0  0  0
    1.2427   -1.5636    2.6120 C   0  0  0  0  0  0  0  0  0  0  0  0
  1 24  1  0
  2 25  1  0
  3 21  1  0
  3 34  1  0
  4 12  1  0
  4 16  1  0
  4 17  1  0
  5 13  1  0
  5 14  1  0
  6 19  2  0
  6 20  1  0
  7 22  2  0
  7 33  1  0
  8  9  1  0
  8 10  1  0
  9 11  1  0
 10 12  1  0
 11 13  1  0
 14 15  2  0
 14 18  1  0
 15 19  1  0
 15 21  1  0
 16 24  1  0
 17 25  1  0
 18 20  2  0
 18 27  1  0
 19 22  1  0
 20 28  1  0
 21 26  2  0
 22 23  1  0
 23 26  1  0
 23 30  2  0
 27 29  2  0
 28 31  2  0
 29 31  1  0
 30 32  1  0
 32 33  2  0
M  END
>  <PUBCHEM_COMPOUND_CID>  (1) 
38210

>  <PUBCHEM_CONFORMER_RMSD>  (1) 
1.2

>  <PUBCHEM_CONFORMER_DIVERSEORDER>  (1) 
1
40
10
23
77
7
51
76
32
45
56
80
65
14
9
22
43
6
29
19
11
58
64
72
4
36
2
21
27
25
50
69
3
46
52
73
55
33
67
37
42
60
68
20
79
70
48
41
12
39
34
66
57
31
54
24
28
15
82
30
44
81
74
59
26
38
35
5
18
17
16
13
61
53
47
71
49
63
78
8
75
62

>  <PUBCHEM_MMFF94_PARTIAL_CHARGES>  (1) 
36
1 -0.29
12 0.27
13 0.37
14 0.1
16 0.27
17 0.27
19 0.31
2 -0.29
20 0.31
21 0.08
22 0.31
24 0.29
25 0.29
26 -0.15
27 -0.15
28 -0.15
29 -0.15
3 -0.36
30 -0.15
31 -0.15
32 -0.15
33 0.16
34 0.28
4 -0.81
47 0.4
5 -0.87
56 0.15
57 0.15
58 0.15
59 0.15
6 -0.62
60 0.15
61 0.15
62 0.15
63 0.15
7 -0.62

>  <PUBCHEM_EFFECTIVE_ROTOR_COUNT>  (1) 
13

>  <PUBCHEM_PHARMACOPHORE_FEATURES>  (1) 
11
1 3 acceptor
1 4 cation
1 5 cation
1 5 donor
1 6 acceptor
1 7 acceptor
4 8 9 10 11 hydrophobe
6 15 19 21 22 23 26 rings
6 18 20 27 28 29 31 rings
6 6 14 15 18 19 20 rings
6 7 22 23 30 32 33 rings

>  <PUBCHEM_HEAVY_ATOM_COUNT>  (1) 
34

>  <PUBCHEM_ATOM_DEF_STEREO_COUNT>  (1) 
0

>  <PUBCHEM_ATOM_UDEF_STEREO_COUNT>  (1) 
0

>  <PUBCHEM_BOND_DEF_STEREO_COUNT>  (1) 
0

>  <PUBCHEM_BOND_UDEF_STEREO_COUNT>  (1) 
0

>  <PUBCHEM_ISOTOPIC_ATOM_COUNT>  (1) 
0

>  <PUBCHEM_COMPONENT_COUNT>  (1) 
1

>  <PUBCHEM_CACTVS_TAUTO_COUNT>  (1) 
2

>  <PUBCHEM_CONFORMER_ID>  (1) 
0000954200000001

>  <PUBCHEM_MMFF94_ENERGY>  (1) 
119.516

>  <PUBCHEM_FEATURE_SELFOVERLAP>  (1) 
55.92

>  <PUBCHEM_SHAPE_FINGERPRINT>  (1) 
10299344 5 18342458124042670139
10411042 1 18264209098571770458
10693767 8 18338514145505725146
11386260 185 18113614629311216021
11607047 74 17845648291889470920
12144600 37 18261683674976759275
13008946 170 18199462349756492376
150020 25 17821730555399902123
15320294 125 17346590829396203975
15439362 3 18263368160802447540
1577012 14 18271809064745762445
21792965 96 18120953702313519733
221357 26 18259988137313967856
23081809 10 18201154451902946137
23522609 53 17986418726981449633
249057 25 17988375805785491713
255183 451 18339646646681797756
4073 2 17968945326746545635
44555599 121 18341623594902422025
4625314 4 18410855461204334959
57527452 28 17203612537288304774
58902169 19 18343863316866539783
6004065 56 18408324381057714386
9962374 69 18411975879709969491

>  <PUBCHEM_SHAPE_MULTIPOLES>  (1) 
677.65
30.86
5.28
1.44
93.61
3.53
0.01
-14.25
6.84
-8.13
2.16
2.35
-0.94
-5.97

>  <PUBCHEM_SHAPE_SELFOVERLAP>  (1) 
1429.266

>  <PUBCHEM_SHAPE_VOLUME>  (1) 
383.8

>  <PUBCHEM_COORDINATE_TYPE>  (1) 
2
5
10

$$$$
