38213
     RDKit          3D

 16 18  0  0  0  0  0  0  0  0999 V2000
   -5.3967   -0.8534    0.0002 Br  0  0  0  0  0  0  0  0  0  0  0  0
    5.3970    0.8535    0.0005 Br  0  0  0  0  0  0  0  0  0  0  0  0
   -0.2107   -1.4112   -0.0002 O   0  0  0  0  0  0  0  0  0  0  0  0
    0.2106    1.4113   -0.0003 O   0  0  0  0  0  0  0  0  0  0  0  0
   -1.2518   -0.5179   -0.0001 C   0  0  0  0  0  0  0  0  0  0  0  0
    1.2518    0.5179   -0.0002 C   0  0  0  0  0  0  0  0  0  0  0  0
    1.0460   -0.8609   -0.0001 C   0  0  0  0  0  0  0  0  0  0  0  0
   -1.0461    0.8609   -0.0001 C   0  0  0  0  0  0  0  0  0  0  0  0
   -2.5474   -1.0338    0.0000 C   0  0  0  0  0  0  0  0  0  0  0  0
    2.5473    1.0337   -0.0003 C   0  0  0  0  0  0  0  0  0  0  0  0
    2.1344   -1.7325    0.0001 C   0  0  0  0  0  0  0  0  0  0  0  0
   -2.1344    1.7325    0.0001 C   0  0  0  0  0  0  0  0  0  0  0  0
   -3.6373   -0.1629    0.0001 C   0  0  0  0  0  0  0  0  0  0  0  0
    3.6373    0.1628   -0.0001 C   0  0  0  0  0  0  0  0  0  0  0  0
    3.4312   -1.2179    0.0001 C   0  0  0  0  0  0  0  0  0  0  0  0
   -3.4312    1.2179    0.0002 C   0  0  0  0  0  0  0  0  0  0  0  0
  1 13  1  0
  2 14  1  0
  3  5  1  0
  3  7  1  0
  4  6  1  0
  4  8  1  0
  5  8  2  0
  5  9  1  0
  6  7  2  0
  6 10  1  0
  7 11  1  0
  8 12  1  0
  9 13  2  0
 10 14  2  0
 11 15  2  0
 12 16  2  0
 13 16  1  0
 14 15  1  0
M  END
>  <PUBCHEM_COMPOUND_CID>  (1) 
38213

>  <PUBCHEM_CONFORMER_RMSD>  (1) 
0.4

>  <PUBCHEM_CONFORMER_DIVERSEORDER>  (1) 
1

>  <PUBCHEM_MMFF94_PARTIAL_CHARGES>  (1) 
22
1 -0.11
10 -0.15
11 -0.15
12 -0.15
13 0.11
14 0.11
15 -0.15
16 -0.15
17 0.15
18 0.15
19 0.15
2 -0.11
20 0.15
21 0.15
22 0.15
3 -0.17
4 -0.17
5 0.08
6 0.08
7 0.08
8 0.08
9 -0.15

>  <PUBCHEM_EFFECTIVE_ROTOR_COUNT>  (1) 
0.4

>  <PUBCHEM_PHARMACOPHORE_FEATURES>  (1) 
7
1 1 hydrophobe
1 2 hydrophobe
1 3 acceptor
1 4 acceptor
6 3 4 5 6 7 8 rings
6 5 8 9 12 13 16 rings
6 6 7 10 11 14 15 rings

>  <PUBCHEM_HEAVY_ATOM_COUNT>  (1) 
16

>  <PUBCHEM_ATOM_DEF_STEREO_COUNT>  (1) 
0

>  <PUBCHEM_ATOM_UDEF_STEREO_COUNT>  (1) 
0

>  <PUBCHEM_BOND_DEF_STEREO_COUNT>  (1) 
0

>  <PUBCHEM_BOND_UDEF_STEREO_COUNT>  (1) 
0

>  <PUBCHEM_ISOTOPIC_ATOM_COUNT>  (1) 
0

>  <PUBCHEM_COMPONENT_COUNT>  (1) 
1

>  <PUBCHEM_CACTVS_TAUTO_COUNT>  (1) 
1

>  <PUBCHEM_CONFORMER_ID>  (1) 
0000954500000001

>  <PUBCHEM_MMFF94_ENERGY>  (1) 
44.6125

>  <PUBCHEM_FEATURE_SELFOVERLAP>  (1) 
35.598

>  <PUBCHEM_SHAPE_FINGERPRINT>  (1) 
10608611 8 18338231574768690588
10967382 1 18410575106137934886
11132069 177 18410007719594183592
11471102 20 18410853257105461574
11806522 49 18408885152861472567
12032990 46 18411422778306078679
13140716 1 18050568739774005601
13380535 76 18408605868291994954
13862211 1 18410851092584648431
14144814 61 18410856520985084042
14325111 11 18410575046071852160
15196674 1 18410575041713405957
15442244 35 18050567344189449418
15536298 74 18342176627205871022
16945 1 18338517550754693126
17802600 8 18410852170262568233
18186145 218 18042124275893353366
18522853 276 18411418414461076449
200 152 18273491278359009389
20510252 161 18272371923550088905
20645477 70 18342177713748649382
21267235 1 18411145731235162254
21501502 16 18338517417610713537
23402539 116 18410848902098456823
23402655 69 18341889654333528517
23463225 33 18336547131570901868
23557571 272 18131639979812657117
23559900 14 18053095125980768490
26918003 58 17967533510439611403
2748010 2 18338798909767286991
2871803 45 18333728005554114351
34934 24 18410285908915767943
3545911 37 18410857676711120678
4214541 1 18410855421573988229
4463277 17 18411983559791599961
474 4 17386296514206627980
474229 33 18410293644104479698
4990 188 17988372490244318396
5104073 3 18338798909767287744
537710 114 18411142454164474988
69090 78 18343298176094766423
7364860 26 18340486789213485320
77779 3 18339644447093948430
8809292 202 18187932823861859667
9709674 26 18410580560752221278

>  <PUBCHEM_SHAPE_MULTIPOLES>  (1) 
329.42
10.16
1.74
0.62
0
0
0
0
0
0
0
0
0
0

>  <PUBCHEM_SHAPE_SELFOVERLAP>  (1) 
706.482

>  <PUBCHEM_SHAPE_VOLUME>  (1) 
189.8

>  <PUBCHEM_COORDINATE_TYPE>  (1) 
2
5
10

$$$$
