38224
     RDKit          3D

 20 21  0  0  1  0  0  0  0  0999 V2000
    1.1396   -1.0056   -1.8089 O   0  0  0  0  0  0  0  0  0  0  0  0
   -0.4882   -1.9334    0.9130 O   0  0  0  0  0  0  0  0  0  0  0  0
   -1.1351   -0.1427   -0.4530 N   0  0  0  0  0  0  0  0  0  0  0  0
    1.2118   -0.8046   -0.3945 C   0  0  0  0  0  0  0  0  0  0  0  0
    2.1761   -1.8723    0.1827 C   0  0  0  0  0  0  0  0  0  0  0  0
    1.6742    0.6109   -0.0514 C   0  0  0  0  0  0  0  0  0  0  0  0
    3.6160   -1.7602   -0.3374 C   0  0  0  0  0  0  0  0  0  0  0  0
   -0.2290   -1.0350    0.1160 C   0  0  0  0  0  0  0  0  0  0  0  0
    4.5030   -2.8459    0.2539 C   0  0  0  0  0  0  0  0  0  0  0  0
    1.7200    0.9883    1.2721 C   0  0  0  0  0  0  0  0  0  0  0  0
    2.0288    1.4576   -1.0777 C   0  0  0  0  0  0  0  0  0  0  0  0
    2.1422    2.2803    1.5856 C   0  0  0  0  0  0  0  0  0  0  0  0
    2.4511    2.7494   -0.7641 C   0  0  0  0  0  0  0  0  0  0  0  0
   -2.5282   -0.0575   -0.2237 C   0  0  0  0  0  0  0  0  0  0  0  0
    2.5079    3.1607    0.5676 C   0  0  0  0  0  0  0  0  0  0  0  0
   -3.2674    0.9062   -0.8901 C   0  0  0  0  0  0  0  0  0  0  0  0
   -3.1251   -0.9398    0.6621 C   0  0  0  0  0  0  0  0  0  0  0  0
   -4.6413    0.9902   -0.6644 C   0  0  0  0  0  0  0  0  0  0  0  0
   -4.4991   -0.8558    0.8877 C   0  0  0  0  0  0  0  0  0  0  0  0
   -5.2572    0.1092    0.2245 C   0  0  0  0  0  0  0  0  0  0  0  0
  1  4  1  0
  2  8  2  0
  3  8  1  0
  3 14  1  0
  4  5  1  0
  4  6  1  0
  4  8  1  0
  5  7  1  0
  6 10  2  0
  6 11  1  0
  7  9  1  0
 10 12  1  0
 11 13  2  0
 12 15  2  0
 13 15  1  0
 14 16  2  0
 14 17  1  0
 16 18  1  0
 17 19  2  0
 18 20  2  0
 19 20  1  0
M  END
>  <PUBCHEM_COMPOUND_CID>  (1) 
38224

>  <PUBCHEM_CONFORMER_RMSD>  (1) 
0.8

>  <PUBCHEM_CONFORMER_DIVERSEORDER>  (1) 
2
20
19
18
3
6
11
13
21
4
7
17
1
16
14
15
5
12
10
8
9

>  <PUBCHEM_MMFF94_PARTIAL_CHARGES>  (1) 
29
1 -0.68
10 -0.15
11 -0.15
12 -0.15
13 -0.15
14 0.12
15 -0.15
16 -0.15
17 -0.15
18 -0.15
19 -0.15
2 -0.57
20 -0.15
28 0.15
29 0.15
3 -0.55
30 0.4
31 0.37
32 0.15
33 0.15
34 0.15
35 0.15
36 0.15
37 0.15
38 0.15
39 0.15
4 0.48
6 -0.14
8 0.57

>  <PUBCHEM_EFFECTIVE_ROTOR_COUNT>  (1) 
6

>  <PUBCHEM_PHARMACOPHORE_FEATURES>  (1) 
7
1 1 acceptor
1 1 donor
1 2 acceptor
1 3 donor
1 9 hydrophobe
6 14 16 17 18 19 20 rings
6 6 10 11 12 13 15 rings

>  <PUBCHEM_HEAVY_ATOM_COUNT>  (1) 
20

>  <PUBCHEM_ATOM_DEF_STEREO_COUNT>  (1) 
0

>  <PUBCHEM_ATOM_UDEF_STEREO_COUNT>  (1) 
1

>  <PUBCHEM_BOND_DEF_STEREO_COUNT>  (1) 
0

>  <PUBCHEM_BOND_UDEF_STEREO_COUNT>  (1) 
0

>  <PUBCHEM_ISOTOPIC_ATOM_COUNT>  (1) 
0

>  <PUBCHEM_COMPONENT_COUNT>  (1) 
1

>  <PUBCHEM_CACTVS_TAUTO_COUNT>  (1) 
2

>  <PUBCHEM_CONFORMER_ID>  (1) 
0000955000000002

>  <PUBCHEM_MMFF94_ENERGY>  (1) 
55.6382

>  <PUBCHEM_FEATURE_SELFOVERLAP>  (1) 
35.524

>  <PUBCHEM_SHAPE_FINGERPRINT>  (1) 
10498660 4 18056762250657255801
11405975 8 18410860945534830051
11545043 162 17749398040156957211
12403259 226 18261391113976845949
12403259 415 17967529048332516397
12616971 3 17918273148038073295
12730499 353 18196667391408655811
12788726 201 18047754789757851474
13134695 92 18201428139307442172
13955234 65 18338521940327405640
14170010 4 18342170059910640784
14347329 18 16228564418410281341
14466204 15 18120932811217298523
14955137 171 18130794421512838790
15295992 7 18261968379283345859
17980427 23 17631738158037958424
1813 80 17916314831460485022
18186145 218 18059865012235308625
18222031 100 17987798497682591854
18785283 64 18261671592822155356
192875 21 17988362576932304555
20671657 1 18341614853566976150
21041028 32 18199182897787784372
21065198 57 18408041806221469395
21065201 7 17313104151175191003
21452121 103 18409442613657039025
21524375 3 17840869899658000204
22149856 69 18042424546955272459
23175994 123 18267587909708048982
23419403 2 17984109619133861296
23557571 272 17170130371943115299
23559900 14 18040718061072846287
3286 77 18408608028560123383
350125 39 18335989679487044125
3886686 26 16172256053125939450
474 4 18197214956821286841
49207404 50 18188213229433573785
5104073 3 18409176523991453707
5895379 119 16557367941467842897
6049 1 18186796959583151229
6442390 28 17834967738240762602
7364860 26 18412263960725702278
7471813 234 17988633052339761097
7495541 125 18334583425199811871
7808743 9 17758964014051058116
81228 2 17692831297949745834
9709674 26 18115312297161110315
9971528 1 18130781210066556194
9981440 41 17908408500847831624

>  <PUBCHEM_SHAPE_MULTIPOLES>  (1) 
394.87
9.19
3.18
1.24
11
1.05
-0.02
-1.8
-0.4
-5.37
-0.44
-0.31
0.38
0.93

>  <PUBCHEM_SHAPE_SELFOVERLAP>  (1) 
835.234

>  <PUBCHEM_SHAPE_VOLUME>  (1) 
219.9

>  <PUBCHEM_COORDINATE_TYPE>  (1) 
2
5
10

$$$$
