38225
     RDKit          3D

 21 22  0  0  1  0  0  0  0  0999 V2000
   -6.7891    0.1502    0.3834 Br  0  0  0  0  0  0  0  0  0  0  0  0
    1.5208   -1.0062   -1.8050 O   0  0  0  0  0  0  0  0  0  0  0  0
   -0.1473   -1.9434    0.8891 O   0  0  0  0  0  0  0  0  0  0  0  0
   -0.7859   -0.1617   -0.4925 N   0  0  0  0  0  0  0  0  0  0  0  0
    1.5656   -0.8016   -0.3901 C   0  0  0  0  0  0  0  0  0  0  0  0
    2.5291   -1.8590    0.2069 C   0  0  0  0  0  0  0  0  0  0  0  0
    2.0085    0.6189   -0.0418 C   0  0  0  0  0  0  0  0  0  0  0  0
    3.9771   -1.7345   -0.2872 C   0  0  0  0  0  0  0  0  0  0  0  0
    0.1180   -1.0444    0.0948 C   0  0  0  0  0  0  0  0  0  0  0  0
    4.8633   -2.8107    0.3225 C   0  0  0  0  0  0  0  0  0  0  0  0
    2.0268    0.9995    1.2813 C   0  0  0  0  0  0  0  0  0  0  0  0
    2.3737    1.4666   -1.0636 C   0  0  0  0  0  0  0  0  0  0  0  0
    2.4312    2.2960    1.5995 C   0  0  0  0  0  0  0  0  0  0  0  0
    2.7782    2.7631   -0.7453 C   0  0  0  0  0  0  0  0  0  0  0  0
   -2.1837   -0.0891   -0.2886 C   0  0  0  0  0  0  0  0  0  0  0  0
    2.8070    3.1777    0.5863 C   0  0  0  0  0  0  0  0  0  0  0  0
   -2.9196    0.8661   -0.9703 C   0  0  0  0  0  0  0  0  0  0  0  0
   -2.7878   -0.9748    0.5888 C   0  0  0  0  0  0  0  0  0  0  0  0
   -4.2980    0.9378   -0.7691 C   0  0  0  0  0  0  0  0  0  0  0  0
   -4.1662   -0.9033    0.7900 C   0  0  0  0  0  0  0  0  0  0  0  0
   -4.9214    0.0530    0.1109 C   0  0  0  0  0  0  0  0  0  0  0  0
  1 21  1  0
  2  5  1  0
  3  9  2  0
  4  9  1  0
  4 15  1  0
  5  6  1  0
  5  7  1  0
  5  9  1  0
  6  8  1  0
  7 11  2  0
  7 12  1  0
  8 10  1  0
 11 13  1  0
 12 14  2  0
 13 16  2  0
 14 16  1  0
 15 17  2  0
 15 18  1  0
 17 19  1  0
 18 20  2  0
 19 21  2  0
 20 21  1  0
M  END
>  <PUBCHEM_COMPOUND_CID>  (1) 
38225

>  <PUBCHEM_CONFORMER_RMSD>  (1) 
0.8

>  <PUBCHEM_CONFORMER_DIVERSEORDER>  (1) 
2
15
19
6
5
4
12
18
13
14
11
16
7
9
17
10
1
8
3

>  <PUBCHEM_MMFF94_PARTIAL_CHARGES>  (1) 
29
1 -0.11
11 -0.15
12 -0.15
13 -0.15
14 -0.15
15 0.12
16 -0.15
17 -0.15
18 -0.15
19 -0.15
2 -0.68
20 -0.15
21 0.11
29 0.15
3 -0.57
30 0.15
31 0.4
32 0.37
33 0.15
34 0.15
35 0.15
36 0.15
37 0.15
38 0.15
39 0.15
4 -0.55
5 0.48
7 -0.14
9 0.57

>  <PUBCHEM_EFFECTIVE_ROTOR_COUNT>  (1) 
6

>  <PUBCHEM_PHARMACOPHORE_FEATURES>  (1) 
8
1 1 hydrophobe
1 10 hydrophobe
1 2 acceptor
1 2 donor
1 3 acceptor
1 4 donor
6 15 17 18 19 20 21 rings
6 7 11 12 13 14 16 rings

>  <PUBCHEM_HEAVY_ATOM_COUNT>  (1) 
21

>  <PUBCHEM_ATOM_DEF_STEREO_COUNT>  (1) 
0

>  <PUBCHEM_ATOM_UDEF_STEREO_COUNT>  (1) 
1

>  <PUBCHEM_BOND_DEF_STEREO_COUNT>  (1) 
0

>  <PUBCHEM_BOND_UDEF_STEREO_COUNT>  (1) 
0

>  <PUBCHEM_ISOTOPIC_ATOM_COUNT>  (1) 
0

>  <PUBCHEM_COMPONENT_COUNT>  (1) 
1

>  <PUBCHEM_CACTVS_TAUTO_COUNT>  (1) 
2

>  <PUBCHEM_CONFORMER_ID>  (1) 
0000955100000002

>  <PUBCHEM_MMFF94_ENERGY>  (1) 
56.6324

>  <PUBCHEM_FEATURE_SELFOVERLAP>  (1) 
40.6

>  <PUBCHEM_SHAPE_FINGERPRINT>  (1) 
10366900 7 17458913634971593427
10498660 4 17915183635764163553
11405975 8 18411704287975136227
11545043 162 17822015276928458379
11595378 159 16008738118055330421
12035758 1 18264749053059293018
12166972 35 18201436939357841523
12403259 415 17967526853509237181
12516196 113 18339638920205002130
12616971 3 17917706895143986231
12730499 353 18268722769185345715
13134695 92 18201427044270116764
13533116 47 18410858763680699033
13878862 14 18338497695896876989
13955234 65 18410294748095503144
13965767 371 17971455549894302932
14170010 4 18341889688972594832
14341114 176 18408887308813670963
14955137 171 18201160953840439022
15880784 105 18411706508937491035
17844677 252 18412269403035108161
17980427 23 17130963461411970054
1813 80 17844258337029136854
18186145 218 18187358818672810311
18785283 64 18261951964108302484
192875 21 17988927730008867379
21033648 29 17821998797255261373
21033650 10 14907360627478797011
21041028 32 18199181802718829956
21065198 57 18408323285361350011
21065201 7 17313103051558074651
21452121 103 18409442613535654793
22149856 69 18042144162852619803
23175994 123 18267587914240386622
23419403 2 17912050930005866928
23557571 272 17242468337029858987
23559900 14 17967537882742724807
283562 15 17904204720588659034
3286 77 18336267851232919383
350125 39 18335706009634280781
474 4 18269555112409864945
49207404 50 18188211030262618641
495365 180 18201154442141938787
5104073 3 18409456907983349515
5385378 56 18341608270100030352
5895379 119 16557366846230076888
6442390 28 17978800339048925130
7364860 26 18412262861377604814
7471813 234 17988634156119956456
7495541 125 18334862696826618734
7808743 9 17830176070894134804
960060 61 11167950194679951609
9971528 1 17560804265026425302
9981440 41 17908409604807381520
9999458 23 18259984872785797838

>  <PUBCHEM_SHAPE_MULTIPOLES>  (1) 
421.39
11.65
3.03
1.22
18.31
1.07
0
-1.61
-1.09
-6.01
-0.48
-0.45
0.39
0.79

>  <PUBCHEM_SHAPE_SELFOVERLAP>  (1) 
876.784

>  <PUBCHEM_SHAPE_VOLUME>  (1) 
245.6

>  <PUBCHEM_COORDINATE_TYPE>  (1) 
2
5
10

$$$$
