38226
     RDKit          3D

 21 22  0  0  1  0  0  0  0  0999 V2000
   -6.6293    0.1457    0.3686 Cl  0  0  0  0  0  0  0  0  0  0  0  0
    1.5105   -1.0063   -1.8058 O   0  0  0  0  0  0  0  0  0  0  0  0
   -0.1552   -1.9433    0.8899 O   0  0  0  0  0  0  0  0  0  0  0  0
   -0.7945   -0.1611   -0.4908 N   0  0  0  0  0  0  0  0  0  0  0  0
    1.5569   -0.8019   -0.3908 C   0  0  0  0  0  0  0  0  0  0  0  0
    2.5206   -1.8599    0.2050 C   0  0  0  0  0  0  0  0  0  0  0  0
    2.0007    0.6183   -0.0428 C   0  0  0  0  0  0  0  0  0  0  0  0
    3.9681   -1.7359   -0.2907 C   0  0  0  0  0  0  0  0  0  0  0  0
    0.1097   -1.0442    0.0955 C   0  0  0  0  0  0  0  0  0  0  0  0
    4.8545   -2.8125    0.3179 C   0  0  0  0  0  0  0  0  0  0  0  0
    2.0205    0.9988    1.2804 C   0  0  0  0  0  0  0  0  0  0  0  0
    2.3652    1.4661   -1.0648 C   0  0  0  0  0  0  0  0  0  0  0  0
    2.4258    2.2950    1.5984 C   0  0  0  0  0  0  0  0  0  0  0  0
    2.7706    2.7623   -0.7468 C   0  0  0  0  0  0  0  0  0  0  0  0
   -2.1920   -0.0879   -0.2854 C   0  0  0  0  0  0  0  0  0  0  0  0
    2.8010    3.1767    0.5849 C   0  0  0  0  0  0  0  0  0  0  0  0
   -2.9283    0.8677   -0.9662 C   0  0  0  0  0  0  0  0  0  0  0  0
   -2.7955   -0.9731    0.5929 C   0  0  0  0  0  0  0  0  0  0  0  0
   -4.3064    0.9402   -0.7632 C   0  0  0  0  0  0  0  0  0  0  0  0
   -4.1736   -0.9008    0.7960 C   0  0  0  0  0  0  0  0  0  0  0  0
   -4.9292    0.0559    0.1178 C   0  0  0  0  0  0  0  0  0  0  0  0
  1 21  1  0
  2  5  1  0
  3  9  2  0
  4  9  1  0
  4 15  1  0
  5  6  1  0
  5  7  1  0
  5  9  1  0
  6  8  1  0
  7 11  2  0
  7 12  1  0
  8 10  1  0
 11 13  1  0
 12 14  2  0
 13 16  2  0
 14 16  1  0
 15 17  2  0
 15 18  1  0
 17 19  1  0
 18 20  2  0
 19 21  2  0
 20 21  1  0
M  END
>  <PUBCHEM_COMPOUND_CID>  (1) 
38226

>  <PUBCHEM_CONFORMER_RMSD>  (1) 
0.8

>  <PUBCHEM_CONFORMER_DIVERSEORDER>  (1) 
2
15
19
6
5
4
13
18
11
16
14
7
12
9
17
10
1
8
3

>  <PUBCHEM_MMFF94_PARTIAL_CHARGES>  (1) 
29
1 -0.18
11 -0.15
12 -0.15
13 -0.15
14 -0.15
15 0.12
16 -0.15
17 -0.15
18 -0.15
19 -0.15
2 -0.68
20 -0.15
21 0.18
29 0.15
3 -0.57
30 0.15
31 0.4
32 0.37
33 0.15
34 0.15
35 0.15
36 0.15
37 0.15
38 0.15
39 0.15
4 -0.55
5 0.48
7 -0.14
9 0.57

>  <PUBCHEM_EFFECTIVE_ROTOR_COUNT>  (1) 
6

>  <PUBCHEM_PHARMACOPHORE_FEATURES>  (1) 
7
1 10 hydrophobe
1 2 acceptor
1 2 donor
1 3 acceptor
1 4 donor
6 15 17 18 19 20 21 rings
6 7 11 12 13 14 16 rings

>  <PUBCHEM_HEAVY_ATOM_COUNT>  (1) 
21

>  <PUBCHEM_ATOM_DEF_STEREO_COUNT>  (1) 
0

>  <PUBCHEM_ATOM_UDEF_STEREO_COUNT>  (1) 
1

>  <PUBCHEM_BOND_DEF_STEREO_COUNT>  (1) 
0

>  <PUBCHEM_BOND_UDEF_STEREO_COUNT>  (1) 
0

>  <PUBCHEM_ISOTOPIC_ATOM_COUNT>  (1) 
0

>  <PUBCHEM_COMPONENT_COUNT>  (1) 
1

>  <PUBCHEM_CACTVS_TAUTO_COUNT>  (1) 
2

>  <PUBCHEM_CONFORMER_ID>  (1) 
0000955200000002

>  <PUBCHEM_MMFF94_ENERGY>  (1) 
56.4356

>  <PUBCHEM_FEATURE_SELFOVERLAP>  (1) 
35.525

>  <PUBCHEM_SHAPE_FINGERPRINT>  (1) 
10366900 7 17458913634966325163
10498660 4 17915183635764170049
11405975 8 18411704287980391483
11545043 162 17822016376440092683
11595378 159 16008738118044780917
12035758 1 18264749053059286522
12166972 35 18201717314807113155
12403259 415 17967526853498694173
12516196 113 18339640019721904658
12616971 3 17917706895143973231
12730499 353 18268722773459214011
13134695 92 18201427044264842004
13533116 47 18410858763685954305
13955234 65 18410294748111327408
13965767 371 17899116480884932652
14170010 4 18341889688972594832
14955137 171 18201160953829889566
15238133 3 17131562643793675803
17844677 252 18412270502536173441
17980427 23 17130963461417244814
18006028 8 18267583516763964342
1813 80 17844539812000566262
18186145 218 18187358818672836295
18785283 64 18261951964108308972
192875 21 17988646255032156731
21033648 29 17822280276500552581
21041028 32 18199181802713555204
21065198 57 18408323285366618267
21065201 7 17313103051563349411
21452121 103 18409442613525105289
22149856 69 18042144162847384043
23175994 123 18267587914229837110
23419403 2 17912050930005866928
23557571 272 17242468332740153459
23559900 14 17967537878442476263
283562 15 17904204720583384266
3060560 45 17203620314750988596
3286 77 18336549330530925607
350125 39 18335987480305520117
3886686 26 16171973483032762642
474 4 18269556216221741249
49207404 50 18188212129779521169
495365 180 18201154446421081827
5104073 3 18409738382954772427
5385378 56 18341889740781754232
5895379 119 16557366846224802136
6442390 28 17906742745016258970
7364860 26 18412262861372330062
7471813 234 17988634156114675208
7495541 125 18334863796343521254
7808743 9 17830176070894134804
960060 61 11167950194669402113
9971528 1 17560523889545511670
9981440 41 17908409604807381520
9999458 23 18259984872796340846

>  <PUBCHEM_SHAPE_MULTIPOLES>  (1) 
417.32
11.19
3.05
1.22
16.65
1.07
0
-1.65
-0.96
-5.94
-0.47
-0.45
0.39
0.81

>  <PUBCHEM_SHAPE_SELFOVERLAP>  (1) 
874.219

>  <PUBCHEM_SHAPE_VOLUME>  (1) 
235.9

>  <PUBCHEM_COORDINATE_TYPE>  (1) 
2
5
10

$$$$
