38227
     RDKit          3D

 21 22  0  0  1  0  0  0  0  0999 V2000
   -5.5252    1.6957   -1.0651 Cl  0  0  0  0  0  0  0  0  0  0  0  0
    1.4124   -0.8766   -1.8607 O   0  0  0  0  0  0  0  0  0  0  0  0
   -0.0100   -2.1044    0.8575 O   0  0  0  0  0  0  0  0  0  0  0  0
   -0.8624   -0.2947   -0.3629 N   0  0  0  0  0  0  0  0  0  0  0  0
    1.5312   -0.7573   -0.4402 C   0  0  0  0  0  0  0  0  0  0  0  0
    2.6049   -1.7727    0.0280 C   0  0  0  0  0  0  0  0  0  0  0  0
    1.8905    0.6686   -0.0246 C   0  0  0  0  0  0  0  0  0  0  0  0
    4.0059   -1.5070   -0.5402 C   0  0  0  0  0  0  0  0  0  0  0  0
    0.1386   -1.1401    0.1108 C   0  0  0  0  0  0  0  0  0  0  0  0
    5.0048   -2.5477   -0.0561 C   0  0  0  0  0  0  0  0  0  0  0  0
    1.9643    0.9668    1.3177 C   0  0  0  0  0  0  0  0  0  0  0  0
    2.1279    1.6036   -1.0071 C   0  0  0  0  0  0  0  0  0  0  0  0
    2.2925    2.2682    1.6974 C   0  0  0  0  0  0  0  0  0  0  0  0
    2.4562    2.9050   -0.6273 C   0  0  0  0  0  0  0  0  0  0  0  0
   -2.2462   -0.3423   -0.0736 C   0  0  0  0  0  0  0  0  0  0  0  0
    2.5386    3.2373    0.7250 C   0  0  0  0  0  0  0  0  0  0  0  0
   -3.0926    0.5926   -0.6469 C   0  0  0  0  0  0  0  0  0  0  0  0
   -2.7266   -1.3249    0.7767 C   0  0  0  0  0  0  0  0  0  0  0  0
   -4.4572    0.5436   -0.3620 C   0  0  0  0  0  0  0  0  0  0  0  0
   -4.0911   -1.3739    1.0616 C   0  0  0  0  0  0  0  0  0  0  0  0
   -4.9564   -0.4398    0.4922 C   0  0  0  0  0  0  0  0  0  0  0  0
  1 19  1  0
  2  5  1  0
  3  9  2  0
  4  9  1  0
  4 15  1  0
  5  6  1  0
  5  7  1  0
  5  9  1  0
  6  8  1  0
  7 11  2  0
  7 12  1  0
  8 10  1  0
 11 13  1  0
 12 14  2  0
 13 16  2  0
 14 16  1  0
 15 17  2  0
 15 18  1  0
 17 19  1  0
 18 20  2  0
 19 21  2  0
 20 21  1  0
M  END
>  <PUBCHEM_COMPOUND_CID>  (1) 
38227

>  <PUBCHEM_CONFORMER_RMSD>  (1) 
0.8

>  <PUBCHEM_CONFORMER_DIVERSEORDER>  (1) 
3
54
62
47
58
48
39
60
41
2
56
28
29
40
45
43
63
4
50
31
46
55
33
52
11
32
37
13
49
19
42
12
25
7
26
64
22
61
14
23
44
59
27
8
9
35
18
38
20
15
36
1
24
57
10
34
51
30
16
53
6
21
17
5

>  <PUBCHEM_MMFF94_PARTIAL_CHARGES>  (1) 
29
1 -0.18
11 -0.15
12 -0.15
13 -0.15
14 -0.15
15 0.12
16 -0.15
17 -0.15
18 -0.15
19 0.18
2 -0.68
20 -0.15
21 -0.15
29 0.15
3 -0.57
30 0.15
31 0.4
32 0.37
33 0.15
34 0.15
35 0.15
36 0.15
37 0.15
38 0.15
39 0.15
4 -0.55
5 0.48
7 -0.14
9 0.57

>  <PUBCHEM_EFFECTIVE_ROTOR_COUNT>  (1) 
6

>  <PUBCHEM_PHARMACOPHORE_FEATURES>  (1) 
7
1 10 hydrophobe
1 2 acceptor
1 2 donor
1 3 acceptor
1 4 donor
6 15 17 18 19 20 21 rings
6 7 11 12 13 14 16 rings

>  <PUBCHEM_HEAVY_ATOM_COUNT>  (1) 
21

>  <PUBCHEM_ATOM_DEF_STEREO_COUNT>  (1) 
0

>  <PUBCHEM_ATOM_UDEF_STEREO_COUNT>  (1) 
1

>  <PUBCHEM_BOND_DEF_STEREO_COUNT>  (1) 
0

>  <PUBCHEM_BOND_UDEF_STEREO_COUNT>  (1) 
0

>  <PUBCHEM_ISOTOPIC_ATOM_COUNT>  (1) 
0

>  <PUBCHEM_COMPONENT_COUNT>  (1) 
1

>  <PUBCHEM_CACTVS_TAUTO_COUNT>  (1) 
2

>  <PUBCHEM_CONFORMER_ID>  (1) 
0000955300000003

>  <PUBCHEM_MMFF94_ENERGY>  (1) 
56.459

>  <PUBCHEM_FEATURE_SELFOVERLAP>  (1) 
35.524

>  <PUBCHEM_SHAPE_FINGERPRINT>  (1) 
10498660 4 17986673881891901257
11089746 13 18339355259247492005
11405975 8 18410578379557259435
11421498 54 12613039331692598758
11545043 162 17967259689210738315
11595378 159 15285632158655475493
12403259 415 18259705601675448933
12549972 3 18041572415555852275
12616971 3 17561368383622147635
12788726 201 18120378649553597962
13134695 92 18130499761007147380
13224815 77 18337388361541159853
14170010 4 18271801324433720136
14347329 18 16517921811134017309
14466204 15 18192708947279108378
14848178 96 18409163303950870549
14866123 147 16681195808476923843
17868525 174 18335977554356368489
17980427 23 17560528296144644648
18006028 8 18269552742057558878
1813 80 17773611433626399046
18186145 218 18340217344724578731
18222031 100 17845656945995293166
18785283 64 18262798609525996456
192875 21 17989207010325744529
20681677 76 18410289255196198103
20832881 197 18262236604096323394
21041028 32 18272369711884667096
21065198 57 18335422378789845755
21065201 7 17603867823497280651
21452121 103 18410004472488313593
21709351 56 18412820266528695767
22149856 69 18115889533014606755
23175994 123 18340774723852436926
23419403 2 17985239934356761544
23559900 14 18260828181282492919
283562 15 17977671901407689594
3286 77 18409455773278552439
49207404 50 18189056567636701113
495365 180 18341883091966177061
5104073 3 18335427889549171107
5281201 14 18410016550336977605
5895379 119 16413537539751475216
633830 44 18261101994201175335
7364860 26 18341334482934917770
7471813 234 17774714273241866929
7495541 125 18335428966926968334
7808743 9 17687187903616646652
81228 2 17765737736560446626
9709674 26 18188776175102843547
9971528 1 18059569149160490882
9981440 41 17837759394227097712

>  <PUBCHEM_SHAPE_MULTIPOLES>  (1) 
417.32
10.39
3.23
1.29
11.09
1.72
-0.08
-1.14
0.91
-4.26
-0.43
-0.19
0.39
1.89

>  <PUBCHEM_SHAPE_SELFOVERLAP>  (1) 
874.218

>  <PUBCHEM_SHAPE_VOLUME>  (1) 
235.7

>  <PUBCHEM_COORDINATE_TYPE>  (1) 
2
5
10

$$$$
