38230
     RDKit          3D

 16 15  0  0  0  0  0  0  0  0999 V2000
   -1.3471    1.9584    0.2095 S   0  0  0  0  0  0  0  0  0  0  0  0
   -2.5572    1.6058    0.9339 O   0  0  0  0  0  0  0  0  0  0  0  0
   -0.1059    2.2082    0.9236 O   0  0  0  0  0  0  0  0  0  0  0  0
    1.4287    0.0257   -0.3443 O   0  0  0  0  0  0  0  0  0  0  0  0
    2.9193   -1.4904    0.5406 O   0  0  0  0  0  0  0  0  0  0  0  0
    0.4946   -0.9679   -0.0329 N   0  0  0  0  0  0  0  0  0  0  0  0
    3.6036    0.5678   -0.2787 N   0  0  0  0  0  0  0  0  0  0  0  0
   -1.8728   -1.6035   -0.0444 C   0  0  0  0  0  0  0  0  0  0  0  0
   -0.7161   -0.6194   -0.3595 C   0  0  0  0  0  0  0  0  0  0  0  0
   -1.0468    0.7157   -1.0051 C   0  0  0  0  0  0  0  0  0  0  0  0
   -3.0221   -1.4318   -1.0466 C   0  0  0  0  0  0  0  0  0  0  0  0
   -1.3913   -3.0662   -0.1216 C   0  0  0  0  0  0  0  0  0  0  0  0
   -2.3716   -1.3340    1.3832 C   0  0  0  0  0  0  0  0  0  0  0  0
   -1.7068    3.4052   -0.7607 C   0  0  0  0  0  0  0  0  0  0  0  0
    2.6733   -0.4049    0.0237 C   0  0  0  0  0  0  0  0  0  0  0  0
    5.0185    0.4314   -0.0207 C   0  0  0  0  0  0  0  0  0  0  0  0
  1  2  2  0
  1  3  2  0
  1 10  1  0
  1 14  1  0
  4  6  1  0
  4 15  1  0
  5 15  2  0
  6  9  2  0
  7 15  1  0
  7 16  1  0
  8  9  1  0
  8 11  1  0
  8 12  1  0
  8 13  1  0
  9 10  1  0
M  END
>  <PUBCHEM_COMPOUND_CID>  (1) 
38230

>  <PUBCHEM_CONFORMER_RMSD>  (1) 
0.8

>  <PUBCHEM_CONFORMER_DIVERSEORDER>  (1) 
1
16
10
18
11
20
14
15
23
22
6
17
19
13
25
4
24
3
8
5
7
21
2
12
9

>  <PUBCHEM_MMFF94_PARTIAL_CHARGES>  (1) 
14
1 1.09
10 0.17
14 0.11
15 0.78
16 0.3
2 -0.65
3 -0.65
31 0.37
4 -0.09
5 -0.57
6 -0.51
7 -0.73
8 0.06
9 0.33

>  <PUBCHEM_EFFECTIVE_ROTOR_COUNT>  (1) 
6

>  <PUBCHEM_PHARMACOPHORE_FEATURES>  (1) 
6
1 2 acceptor
1 3 acceptor
1 5 acceptor
1 6 acceptor
1 7 donor
4 8 11 12 13 hydrophobe

>  <PUBCHEM_HEAVY_ATOM_COUNT>  (1) 
16

>  <PUBCHEM_ATOM_DEF_STEREO_COUNT>  (1) 
0

>  <PUBCHEM_ATOM_UDEF_STEREO_COUNT>  (1) 
0

>  <PUBCHEM_BOND_DEF_STEREO_COUNT>  (1) 
0

>  <PUBCHEM_BOND_UDEF_STEREO_COUNT>  (1) 
1

>  <PUBCHEM_ISOTOPIC_ATOM_COUNT>  (1) 
0

>  <PUBCHEM_COMPONENT_COUNT>  (1) 
1

>  <PUBCHEM_CACTVS_TAUTO_COUNT>  (1) 
2

>  <PUBCHEM_CONFORMER_ID>  (1) 
0000955600000001

>  <PUBCHEM_MMFF94_ENERGY>  (1) 
31.9322

>  <PUBCHEM_FEATURE_SELFOVERLAP>  (1) 
30.48

>  <PUBCHEM_SHAPE_FINGERPRINT>  (1) 
11357001 24 18334017189553860464
12173636 292 18337952273134914580
13027679 85 18193839468955740223
13764800 53 18271813371706332616
15490181 7 17906742401545346119
16945 1 18340779250621340359
19868273 325 18341614866436079862
200 152 18335974380666031398
20510252 161 18413107238493572810
21061003 4 18194405725749357227
21501502 16 18339356362563892142
21524375 3 17905321832343028141
220403 375 17830739755539404649
2306618 200 18131354098463303650
23402539 116 18272082838234377039
23526114 1 17762334017152475854
23557571 272 18131081450066398820
23558518 356 18187653444660494578
23598291 2 17896592895888539434
23598294 1 18410573968161739866
2748010 2 17689735060041348117
68521 5 18410572915762740453
7364860 26 17404019717864534631
81228 2 18412554210157113851

>  <PUBCHEM_SHAPE_MULTIPOLES>  (1) 
299.68
6.17
3.4
1.02
10.67
1.75
0.11
-0.96
-0.01
-3.23
-0.12
-0.73
0.07
-0.16

>  <PUBCHEM_SHAPE_SELFOVERLAP>  (1) 
565.465

>  <PUBCHEM_SHAPE_VOLUME>  (1) 
188.8

>  <PUBCHEM_COORDINATE_TYPE>  (1) 
2
5
10

$$$$
