38232
     RDKit          3D

 10  9  0  0  0  0  0  0  0  0999 V2000
   -2.1500   -0.4827   -0.7272 S   0  0  0  0  0  0  0  0  0  0  0  0
   -0.6726    2.5156    0.0378 O   0  0  0  0  0  0  0  0  0  0  0  0
    0.4592    1.7208   -0.1441 N   0  0  0  0  0  0  0  0  0  0  0  0
    1.4045   -0.5380   -0.0121 C   0  0  0  0  0  0  0  0  0  0  0  0
    0.2429    0.4773    0.1755 C   0  0  0  0  0  0  0  0  0  0  0  0
    1.0297   -1.6294   -1.0248 C   0  0  0  0  0  0  0  0  0  0  0  0
    1.7515   -1.2315    1.3209 C   0  0  0  0  0  0  0  0  0  0  0  0
    2.6452    0.2266   -0.4975 C   0  0  0  0  0  0  0  0  0  0  0  0
   -1.1010   -0.0327    0.6798 C   0  0  0  0  0  0  0  0  0  0  0  0
   -3.6093   -1.0259    0.1916 C   0  0  0  0  0  0  0  0  0  0  0  0
  1  9  1  0
  1 10  1  0
  2  3  1  0
  3  5  2  0
  4  5  1  0
  4  6  1  0
  4  7  1  0
  4  8  1  0
  5  9  1  0
M  END
>  <PUBCHEM_COMPOUND_CID>  (1) 
38232

>  <PUBCHEM_CONFORMER_RMSD>  (1) 
0.6

>  <PUBCHEM_CONFORMER_DIVERSEORDER>  (1) 
1
11
10
5
7
3
8
6
9
4
2

>  <PUBCHEM_MMFF94_PARTIAL_CHARGES>  (1) 
8
1 -0.46
10 0.23
2 -0.34
25 0.4
3 -0.51
4 0.06
5 0.33
9 0.29

>  <PUBCHEM_EFFECTIVE_ROTOR_COUNT>  (1) 
3

>  <PUBCHEM_PHARMACOPHORE_FEATURES>  (1) 
4
1 10 hydrophobe
1 2 anion
1 3 acceptor
4 4 6 7 8 hydrophobe

>  <PUBCHEM_HEAVY_ATOM_COUNT>  (1) 
10

>  <PUBCHEM_ATOM_DEF_STEREO_COUNT>  (1) 
0

>  <PUBCHEM_ATOM_UDEF_STEREO_COUNT>  (1) 
0

>  <PUBCHEM_BOND_DEF_STEREO_COUNT>  (1) 
0

>  <PUBCHEM_BOND_UDEF_STEREO_COUNT>  (1) 
1

>  <PUBCHEM_ISOTOPIC_ATOM_COUNT>  (1) 
0

>  <PUBCHEM_COMPONENT_COUNT>  (1) 
1

>  <PUBCHEM_CACTVS_TAUTO_COUNT>  (1) 
2

>  <PUBCHEM_CONFORMER_ID>  (1) 
0000955800000001

>  <PUBCHEM_MMFF94_ENERGY>  (1) 
27.0651

>  <PUBCHEM_FEATURE_SELFOVERLAP>  (1) 
20.297

>  <PUBCHEM_SHAPE_FINGERPRINT>  (1) 
10219947 1 18271807964173753703
12897270 3 18341336612885301462
15310529 11 17749381577194071975
16945 1 18041831930243438732
20201158 50 18335703879483814019
20645477 70 18195806500054504559
20653091 64 18338519763005722777
20711978 78 15768927931482208014
20711985 344 18122635950486451519
21040471 1 17402892224455974008
23380061 451 18040433304556810363
23552423 10 18044661901469821706
29004967 10 18412261744248446387
5084963 1 17916584228904723774
528862 383 18123743416499128783

>  <PUBCHEM_SHAPE_MULTIPOLES>  (1) 
198.79
4.06
1.92
1.04
3.18
1.18
-0.1
-1.6
0.04
-0.09
0.09
-0.29
-0.41
-0.16

>  <PUBCHEM_SHAPE_SELFOVERLAP>  (1) 
355.052

>  <PUBCHEM_SHAPE_VOLUME>  (1) 
132.7

>  <PUBCHEM_COORDINATE_TYPE>  (1) 
2
5
10

$$$$
