38246
     RDKit          3D

 15 16  0  0  0  0  0  0  0  0999 V2000
   -4.3683   -1.6863   -0.0001 Br  0  0  0  0  0  0  0  0  0  0  0  0
   -4.2220    1.6476    0.0015 Cl  0  0  0  0  0  0  0  0  0  0  0  0
    3.7810   -1.2380    0.0014 F   0  0  0  0  0  0  0  0  0  0  0  0
    3.7109    0.6385   -1.0841 F   0  0  0  0  0  0  0  0  0  0  0  0
    3.6883    0.6420    1.0903 F   0  0  0  0  0  0  0  0  0  0  0  0
    0.9442    1.0781   -0.0024 N   0  0  0  0  0  0  0  0  0  0  0  0
    0.9502   -1.1445    0.0001 N   0  0  0  0  0  0  0  0  0  0  0  0
   -0.3765    0.7086   -0.0018 C   0  0  0  0  0  0  0  0  0  0  0  0
   -0.3462   -0.6833   -0.0003 C   0  0  0  0  0  0  0  0  0  0  0  0
    1.6970   -0.0630   -0.0010 C   0  0  0  0  0  0  0  0  0  0  0  0
   -1.5588    1.4495   -0.0024 C   0  0  0  0  0  0  0  0  0  0  0  0
   -1.5580   -1.3947    0.0005 C   0  0  0  0  0  0  0  0  0  0  0  0
    3.1707   -0.0083   -0.0005 C   0  0  0  0  0  0  0  0  0  0  0  0
   -2.7554    0.7253   -0.0013 C   0  0  0  0  0  0  0  0  0  0  0  0
   -2.7572   -0.6715    0.0000 C   0  0  0  0  0  0  0  0  0  0  0  0
  1 15  1  0
  2 14  1  0
  3 13  1  0
  4 13  1  0
  5 13  1  0
  6  8  1  0
  6 10  1  0
  7  9  1  0
  7 10  2  0
  8  9  2  0
  8 11  1  0
  9 12  1  0
 10 13  1  0
 11 14  2  0
 12 15  2  0
 14 15  1  0
M  END
>  <PUBCHEM_COMPOUND_CID>  (1) 
38246

>  <PUBCHEM_CONFORMER_RMSD>  (1) 
0.4

>  <PUBCHEM_CONFORMER_DIVERSEORDER>  (1) 
1

>  <PUBCHEM_MMFF94_PARTIAL_CHARGES>  (1) 
18
1 -0.11
10 0.01
11 -0.15
12 -0.15
13 1.2
14 0.18
15 0.11
16 0.27
17 0.15
18 0.15
2 -0.18
3 -0.34
4 -0.34
5 -0.34
6 0.03
7 -0.57
8 -0.15
9 0.23

>  <PUBCHEM_EFFECTIVE_ROTOR_COUNT>  (1) 
1

>  <PUBCHEM_PHARMACOPHORE_FEATURES>  (1) 
5
1 1 hydrophobe
1 6 donor
3 6 7 10 cation
5 6 7 8 9 10 rings
6 8 9 11 12 14 15 rings

>  <PUBCHEM_HEAVY_ATOM_COUNT>  (1) 
15

>  <PUBCHEM_ATOM_DEF_STEREO_COUNT>  (1) 
0

>  <PUBCHEM_ATOM_UDEF_STEREO_COUNT>  (1) 
0

>  <PUBCHEM_BOND_DEF_STEREO_COUNT>  (1) 
0

>  <PUBCHEM_BOND_UDEF_STEREO_COUNT>  (1) 
0

>  <PUBCHEM_ISOTOPIC_ATOM_COUNT>  (1) 
0

>  <PUBCHEM_COMPONENT_COUNT>  (1) 
1

>  <PUBCHEM_CACTVS_TAUTO_COUNT>  (1) 
2

>  <PUBCHEM_CONFORMER_ID>  (1) 
0000956600000001

>  <PUBCHEM_MMFF94_ENERGY>  (1) 
19.1275

>  <PUBCHEM_FEATURE_SELFOVERLAP>  (1) 
25.478

>  <PUBCHEM_SHAPE_FINGERPRINT>  (1) 
10062212 137 18337100198973763427
10608611 8 18342452651384046336
11132069 177 18409726240275136817
11543360 7 15502657177933802019
11806522 49 18337106894933104031
12032990 46 18411984693209421835
12932764 1 17704066321983081758
13214271 11 18343014493678666205
13296908 3 18343864424308510986
13380535 76 18340486656259013527
13760787 19 18187650175905162355
13760787 5 17095243613895486318
14144814 61 18410291410731788602
14325111 11 18410855451659630944
14897335 6 18339075982866716749
15196674 1 18410575080368144102
15219456 202 18131358462181913151
16945 1 18410856602784745283
18186145 218 16515688848904102534
18522853 276 18412261774677026027
19026448 4 17489588969461073812
19026448 5 17458344147534563216
19422 9 18260551121178864498
1986462 14 18411702080118976063
200 152 17988635333711057479
20279233 1 17704071781065694278
20281475 54 18334011687711388059
20510252 161 18272933834279452849
20645477 70 16988001578996476884
20871998 184 18202002144643905223
21267235 1 18409176531706129363
21501502 16 18336544915415594235
21501925 9 18337666528812816899
23402539 116 18412537704460632575
23402655 69 18198047094456633885
23463225 33 18334856070034777394
23557571 272 18272384086802200831
23559900 14 18343299228688548114
2748010 2 18340495448046610047
3312278 4 18412546488101321401
43471831 8 18334289838595025683
474 4 16734684197926704980
5104073 3 18411697673192419754
53812653 166 18342451517581089705
57096353 35 18261959647050402094
6333449 129 18413668002799049413
633830 44 17168433679055823674
69090 78 18272644619792734527
7364860 26 18124598844977860596
8809292 202 18043252538512627203
9709674 26 18411425002878209166

>  <PUBCHEM_SHAPE_MULTIPOLES>  (1) 
284.72
8.04
1.75
0.71
2.08
0.01
0
0.5
0
-1.83
0
0.3
-0.06
0

>  <PUBCHEM_SHAPE_SELFOVERLAP>  (1) 
599.933

>  <PUBCHEM_SHAPE_VOLUME>  (1) 
166.7

>  <PUBCHEM_COORDINATE_TYPE>  (1) 
2
5
10

$$$$
