38245
     RDKit          3D

 16 16  0  0  0  0  0  0  0  0999 V2000
   -3.5759   -2.2228    0.0053 Cl  0  0  0  0  0  0  0  0  0  0  0  0
    5.3031   -0.2984   -0.3136 O   0  0  0  0  0  0  0  0  0  0  0  0
    4.7109    1.7618    0.1792 O   0  0  0  0  0  0  0  0  0  0  0  0
   -0.9652   -1.0133    0.0536 N   0  0  0  0  0  0  0  0  0  0  0  0
   -1.9405   -0.1248    0.3175 N   0  0  0  0  0  0  0  0  0  0  0  0
    4.4283    0.5625   -0.0555 N   0  0  0  0  0  0  0  0  0  0  0  0
   -4.8445    0.9953   -0.6783 C   0  0  0  0  0  0  0  0  0  0  0  0
   -4.3106    0.3447    0.5962 C   0  0  0  0  0  0  0  0  0  0  0  0
   -6.0076    1.9419   -0.4188 C   0  0  0  0  0  0  0  0  0  0  0  0
    0.3806   -0.6203    0.0269 C   0  0  0  0  0  0  0  0  0  0  0  0
   -3.1525   -0.5843    0.3196 C   0  0  0  0  0  0  0  0  0  0  0  0
    1.3827   -1.5536   -0.2586 C   0  0  0  0  0  0  0  0  0  0  0  0
    0.7328    0.7089    0.2844 C   0  0  0  0  0  0  0  0  0  0  0  0
    3.0657    0.1645   -0.0284 C   0  0  0  0  0  0  0  0  0  0  0  0
    2.7214   -1.1625   -0.2863 C   0  0  0  0  0  0  0  0  0  0  0  0
    2.0713    1.1002    0.2568 C   0  0  0  0  0  0  0  0  0  0  0  0
  1 11  1  0
  2  6  1  0
  3  6  2  0
  4  5  1  0
  4 10  1  0
  5 11  2  0
  6 14  1  0
  7  8  1  0
  7  9  1  0
  8 11  1  0
 10 12  2  0
 10 13  1  0
 12 15  1  0
 13 16  2  0
 14 15  2  0
 14 16  1  0
M  CHG  2   2  -1   6   1
M  END
>  <PUBCHEM_COMPOUND_CID>  (1) 
38245

>  <PUBCHEM_CONFORMER_RMSD>  (1) 
0.6

>  <PUBCHEM_CONFORMER_DIVERSEORDER>  (1) 
2
11
12
7
8
4
6
9
3
10
5
1

>  <PUBCHEM_MMFF94_PARTIAL_CHARGES>  (1) 
19
1 -0.21
10 0.1
11 0.6
12 -0.15
13 -0.15
14 0.13
15 -0.15
16 -0.15
2 -0.52
24 0.15
25 0.15
26 0.15
27 0.15
28 0.4
3 -0.52
4 -0.46
5 -0.49
6 0.91
8 0.06

>  <PUBCHEM_EFFECTIVE_ROTOR_COUNT>  (1) 
5

>  <PUBCHEM_PHARMACOPHORE_FEATURES>  (1) 
7
1 2 acceptor
1 2 anion
1 3 acceptor
1 4 donor
1 5 acceptor
1 9 hydrophobe
6 10 12 13 14 15 16 rings

>  <PUBCHEM_HEAVY_ATOM_COUNT>  (1) 
16

>  <PUBCHEM_ATOM_DEF_STEREO_COUNT>  (1) 
0

>  <PUBCHEM_ATOM_UDEF_STEREO_COUNT>  (1) 
0

>  <PUBCHEM_BOND_DEF_STEREO_COUNT>  (1) 
0

>  <PUBCHEM_BOND_UDEF_STEREO_COUNT>  (1) 
1

>  <PUBCHEM_ISOTOPIC_ATOM_COUNT>  (1) 
0

>  <PUBCHEM_COMPONENT_COUNT>  (1) 
1

>  <PUBCHEM_CACTVS_TAUTO_COUNT>  (1) 
1

>  <PUBCHEM_CONFORMER_ID>  (1) 
0000956500000002

>  <PUBCHEM_MMFF94_ENERGY>  (1) 
43.8726

>  <PUBCHEM_FEATURE_SELFOVERLAP>  (1) 
35.6

>  <PUBCHEM_SHAPE_FINGERPRINT>  (1) 
10014705 185 18408885140303553283
100836 57 18259989253973998237
11089746 13 17418086611873883688
11401426 45 18273495688952883786
11471102 20 18343584018963286358
12403259 415 18200592630349686945
12500047 106 18411134753868485363
14123255 352 18408040706541062485
15048467 5 18260268538084903900
15196674 1 18340488958203163602
15375358 24 18409732854719951507
15501527 16 18409169896804291137
17834072 33 18060414746474062135
17834072 8 18271813401881704692
200 152 17275385400283574747
20281389 69 18040713641504402605
20645477 56 18334575729430352445
20645477 70 17988366966194312927
21421861 104 17532641343979990346
21426921 1 18337672031568496699
21709351 56 18339921618597857493
22289505 5 18271804584161254644
231179 274 18407760330611593571
23402539 116 18187361055876024430
23402655 69 18272649030776823487
23557571 272 18411986896907375031
23559900 14 18343304721772936746
2916195 48 18260266356753148905
29717793 49 17132120095830469548
300161 21 18411976957962700867
34934 24 18408881815719538243
3545911 37 18413110563404765499
4072396 5 18340757157847549242
4214541 1 18410857681211913771
4990 188 17917724521436717270
5104073 3 18410575110507126466
542803 24 17022625281690975255
633830 44 17822010951469292130

>  <PUBCHEM_SHAPE_MULTIPOLES>  (1) 
304.46
12.71
1.93
0.7
4.62
0.27
-0.01
-6.2
-1.4
1.44
-0.12
0.33
-0.04
0.74

>  <PUBCHEM_SHAPE_SELFOVERLAP>  (1) 
609.436

>  <PUBCHEM_SHAPE_VOLUME>  (1) 
179.8

>  <PUBCHEM_COORDINATE_TYPE>  (1) 
2
5
10

$$$$
