38259
     RDKit          3D

 14 14  0  0  0  0  0  0  0  0999 V2000
   -1.1208    2.2837   -0.0965 O   0  0  0  0  0  0  0  0  0  0  0  0
    2.8222   -0.0435   -0.6136 C   0  0  0  0  0  0  0  0  0  0  0  0
    1.4072   -0.1381   -0.0396 C   0  0  0  0  0  0  0  0  0  0  0  0
    3.8783   -0.2121    0.4798 C   0  0  0  0  0  0  0  0  0  0  0  0
    0.3518    0.0645   -1.1290 C   0  0  0  0  0  0  0  0  0  0  0  0
    5.2918   -0.0842   -0.0876 C   0  0  0  0  0  0  0  0  0  0  0  0
   -1.0463   -0.0623   -0.5803 C   0  0  0  0  0  0  0  0  0  0  0  0
   -1.7091    1.0548   -0.0921 C   0  0  0  0  0  0  0  0  0  0  0  0
   -1.6503   -1.3119   -0.5740 C   0  0  0  0  0  0  0  0  0  0  0  0
    6.3434   -0.2174    1.0021 C   0  0  0  0  0  0  0  0  0  0  0  0
   -3.6196   -0.3310    0.4241 C   0  0  0  0  0  0  0  0  0  0  0  0
   -3.0024    0.9199    0.4125 C   0  0  0  0  0  0  0  0  0  0  0  0
   -2.9436   -1.4469   -0.0692 C   0  0  0  0  0  0  0  0  0  0  0  0
   -5.0024   -0.4754    0.9634 C   0  0  0  0  0  0  0  0  0  0  0  0
  1  8  1  0
  2  3  1  0
  2  4  1  0
  3  5  1  0
  4  6  1  0
  5  7  1  0
  6 10  1  0
  7  8  2  0
  7  9  1  0
  8 12  1  0
  9 13  2  0
 11 12  2  0
 11 13  1  0
 11 14  1  0
M  END
>  <PUBCHEM_COMPOUND_CID>  (1) 
38259

>  <PUBCHEM_CONFORMER_RMSD>  (1) 
0.6

>  <PUBCHEM_CONFORMER_DIVERSEORDER>  (1) 
2
25
55
54
7
26
41
48
47
39
9
50
22
43
56
30
42
46
1
20
51
36
21
53
24
44
5
10
14
49
35
27
11
29
38
31
12
37
23
33
45
28
16
8
19
3
6
32
34
52
18
40
13
17
4
15

>  <PUBCHEM_MMFF94_PARTIAL_CHARGES>  (1) 
13
1 -0.53
11 -0.14
12 -0.15
13 -0.15
14 0.14
25 0.15
29 0.15
30 0.15
34 0.45
5 0.14
7 -0.14
8 0.08
9 -0.15

>  <PUBCHEM_EFFECTIVE_ROTOR_COUNT>  (1) 
5

>  <PUBCHEM_PHARMACOPHORE_FEATURES>  (1) 
4
1 1 donor
1 10 hydrophobe
5 2 3 4 5 6 hydrophobe
6 7 8 9 11 12 13 rings

>  <PUBCHEM_HEAVY_ATOM_COUNT>  (1) 
14

>  <PUBCHEM_ATOM_DEF_STEREO_COUNT>  (1) 
0

>  <PUBCHEM_ATOM_UDEF_STEREO_COUNT>  (1) 
0

>  <PUBCHEM_BOND_DEF_STEREO_COUNT>  (1) 
0

>  <PUBCHEM_BOND_UDEF_STEREO_COUNT>  (1) 
0

>  <PUBCHEM_ISOTOPIC_ATOM_COUNT>  (1) 
0

>  <PUBCHEM_COMPONENT_COUNT>  (1) 
1

>  <PUBCHEM_CACTVS_TAUTO_COUNT>  (1) 
9

>  <PUBCHEM_CONFORMER_ID>  (1) 
0000957300000002

>  <PUBCHEM_MMFF94_ENERGY>  (1) 
21.9157

>  <PUBCHEM_FEATURE_SELFOVERLAP>  (1) 
20.297

>  <PUBCHEM_SHAPE_FINGERPRINT>  (1) 
10014705 185 11815887968753599938
10726558 24 9079125448934867341
11132069 177 18202292398370030615
12236239 1 17749112200881400982
12251169 10 18272937136903509813
12507560 40 18129666292369789310
13214271 11 18131349704859439797
13288520 33 15936411147915993915
13897977 58 18341336660325373772
14341114 176 18342459232059518000
15048467 5 16486981674224167099
15242439 84 11025799799607237998
17834072 33 18040720294687916396
17834076 25 13902189288162950762
1813 80 17313112908576805822
187816 3 11097853003940676127
19050596 39 18409731794126526732
19784866 240 16298393465270919715
200 152 15864068775833932990
20645477 56 17632572747762033452
20645477 70 14273724128691803880
20767249 213 14620796006852610691
21119208 17 10015863176216479822
21637258 2 16878226475988006475
21650355 55 18411701027915207511
22224240 67 17418095429848190415
2297311 6 18270976678065447764
23402539 116 18343295981482347623
23402655 69 11455894659216733682
23403322 49 13551469254941006696
23557571 272 18058468542363677108
23559900 14 11098149893750444614
26918003 58 17748829630878076859
42 15 18408322181670624110
449060 50 17775568632942732670
5104073 3 18269281333745010795
69474 34 18059857294037049625

>  <PUBCHEM_SHAPE_MULTIPOLES>  (1) 
282.24
12.04
1.33
0.96
17.44
0.44
0.01
-1.98
5.13
-1.34
-0.07
0.16
-0.07
-0.1

>  <PUBCHEM_SHAPE_SELFOVERLAP>  (1) 
561.401

>  <PUBCHEM_SHAPE_VOLUME>  (1) 
169.2

>  <PUBCHEM_COORDINATE_TYPE>  (1) 
2
5
10

$$$$
