38255
     RDKit          3D

 20 22  0  0  0  0  0  0  0  0999 V2000
    2.7950    2.7383   -0.0005 Cl  0  0  0  0  0  0  0  0  0  0  0  0
   -2.7950   -2.7382   -0.0004 Cl  0  0  0  0  0  0  0  0  0  0  0  0
    1.8992   -3.4557    0.0013 Cl  0  0  0  0  0  0  0  0  0  0  0  0
   -1.8997    3.4556    0.0007 Cl  0  0  0  0  0  0  0  0  0  0  0  0
    5.2768    0.6981    0.0010 Cl  0  0  0  0  0  0  0  0  0  0  0  0
   -5.2768   -0.6977    0.0002 Cl  0  0  0  0  0  0  0  0  0  0  0  0
    0.2184    1.4101   -0.0002 O   0  0  0  0  0  0  0  0  0  0  0  0
   -0.2185   -1.4101   -0.0005 O   0  0  0  0  0  0  0  0  0  0  0  0
    1.2547    0.5110   -0.0003 C   0  0  0  0  0  0  0  0  0  0  0  0
   -1.2546   -0.5110   -0.0002 C   0  0  0  0  0  0  0  0  0  0  0  0
   -1.0413    0.8666   -0.0001 C   0  0  0  0  0  0  0  0  0  0  0  0
    1.0413   -0.8667   -0.0003 C   0  0  0  0  0  0  0  0  0  0  0  0
    2.5531    1.0196   -0.0003 C   0  0  0  0  0  0  0  0  0  0  0  0
   -2.5530   -1.0197   -0.0002 C   0  0  0  0  0  0  0  0  0  0  0  0
    2.1249   -1.7443   -0.0003 C   0  0  0  0  0  0  0  0  0  0  0  0
   -2.1247    1.7442    0.0003 C   0  0  0  0  0  0  0  0  0  0  0  0
    3.6382    0.1427   -0.0003 C   0  0  0  0  0  0  0  0  0  0  0  0
   -3.6381   -0.1428    0.0001 C   0  0  0  0  0  0  0  0  0  0  0  0
    3.4245   -1.2368   -0.0002 C   0  0  0  0  0  0  0  0  0  0  0  0
   -3.4244    1.2368    0.0003 C   0  0  0  0  0  0  0  0  0  0  0  0
  1 13  1  0
  2 14  1  0
  3 15  1  0
  4 16  1  0
  5 17  1  0
  6 18  1  0
  7  9  1  0
  7 11  1  0
  8 10  1  0
  8 12  1  0
  9 12  2  0
  9 13  1  0
 10 11  2  0
 10 14  1  0
 11 16  1  0
 12 15  1  0
 13 17  2  0
 14 18  2  0
 15 19  2  0
 16 20  2  0
 17 19  1  0
 18 20  1  0
M  END
>  <PUBCHEM_COMPOUND_CID>  (1) 
38255

>  <PUBCHEM_CONFORMER_RMSD>  (1) 
0.6

>  <PUBCHEM_CONFORMER_DIVERSEORDER>  (1) 
1

>  <PUBCHEM_MMFF94_PARTIAL_CHARGES>  (1) 
22
1 -0.18
10 0.08
11 0.08
12 0.08
13 0.18
14 0.18
15 0.18
16 0.18
17 0.18
18 0.18
19 -0.15
2 -0.18
20 -0.15
21 0.15
22 0.15
3 -0.18
4 -0.18
5 -0.18
6 -0.18
7 -0.17
8 -0.17
9 0.08

>  <PUBCHEM_EFFECTIVE_ROTOR_COUNT>  (1) 
0.4

>  <PUBCHEM_PHARMACOPHORE_FEATURES>  (1) 
5
1 7 acceptor
1 8 acceptor
6 10 11 14 16 18 20 rings
6 7 8 9 10 11 12 rings
6 9 12 13 15 17 19 rings

>  <PUBCHEM_HEAVY_ATOM_COUNT>  (1) 
20

>  <PUBCHEM_ATOM_DEF_STEREO_COUNT>  (1) 
0

>  <PUBCHEM_ATOM_UDEF_STEREO_COUNT>  (1) 
0

>  <PUBCHEM_BOND_DEF_STEREO_COUNT>  (1) 
0

>  <PUBCHEM_BOND_UDEF_STEREO_COUNT>  (1) 
0

>  <PUBCHEM_ISOTOPIC_ATOM_COUNT>  (1) 
0

>  <PUBCHEM_COMPONENT_COUNT>  (1) 
1

>  <PUBCHEM_CACTVS_TAUTO_COUNT>  (1) 
1

>  <PUBCHEM_CONFORMER_ID>  (1) 
0000956F00000001

>  <PUBCHEM_MMFF94_ENERGY>  (1) 
54.0024

>  <PUBCHEM_FEATURE_SELFOVERLAP>  (1) 
25.449

>  <PUBCHEM_SHAPE_FINGERPRINT>  (1) 
10366900 7 18261402151837094416
10411042 1 16104732441503007814
10608611 8 18338514144919785748
10616163 171 18411420643486189311
10967382 1 18410574015437807271
1100329 8 17041761465465307145
11471102 20 18410571777865484126
11578080 2 17024857174510878190
12173636 292 18194118521592222653
12403259 226 18338230466619843852
12553582 1 18339631335007349043
12839892 36 18337654361782897666
13140716 1 18266741470348181809
138480 1 17978228253900940930
14178342 30 18338220567173290538
14223421 5 18410575063193523701
14466204 15 18411128114128699088
14790565 3 17688883350968715869
15196674 1 18338798914062254085
15375462 6 18410575084747533565
15442244 35 18122624942406254578
15536298 74 18342176618521049334
15927050 60 14450215118930132212
16945 1 18410575054598307846
17492 89 18266740182270293899
19591789 44 18051413160509429210
200 152 18202560687797187741
20510252 161 18270681957304224585
20645477 70 18410571747574288575
21267235 1 18410583902352516759
21421861 104 18188206485871131082
21501502 16 18266459810693158408
221490 88 18265621991655297522
2334 1 18050287264797294599
23366157 5 17970073253704274170
23402539 116 18340762757804356199
23557571 272 18201728344288514140
23558518 356 18190188879961494913
23559900 14 18339918230090174176
2748010 2 18122343750733660203
2871803 45 18409728460767954151
335352 9 18410856576819659190
34934 24 18410569600401772807
350125 39 18338236076374607588
3545911 37 18410575106148490918
4214541 1 18410575063230732773
474 4 17676494994433198676
5104073 3 18338797801665725370
58051976 378 18412544323152987198
59755656 215 18409449184941106318
7364860 26 18340487755823557654
7832392 63 18195245508046494032
9709674 26 18411704248872206343

>  <PUBCHEM_SHAPE_MULTIPOLES>  (1) 
411.07
8.78
3.6
0.62
0
0
0
0
0
0
0
0
0
0

>  <PUBCHEM_SHAPE_SELFOVERLAP>  (1) 
860.759

>  <PUBCHEM_SHAPE_VOLUME>  (1) 
237.1

>  <PUBCHEM_COORDINATE_TYPE>  (1) 
2
5
10

$$$$
