38257
     RDKit          3D

 15 17  0  0  0  0  0  0  0  0999 V2000
   -1.0981   -0.8387   -0.1514 N   0  0  0  0  0  0  0  0  0  0  0  0
    0.5655    1.0314   -0.2269 C   0  0  0  0  0  0  0  0  0  0  0  0
    1.3252   -1.3649   -0.4321 C   0  0  0  0  0  0  0  0  0  0  0  0
    2.9832    0.5151   -0.7475 C   0  0  0  0  0  0  0  0  0  0  0  0
    2.0586    0.0257    1.5452 C   0  0  0  0  0  0  0  0  0  0  0  0
    0.1680   -0.3793   -0.7247 C   0  0  0  0  0  0  0  0  0  0  0  0
    1.8187    1.4888   -1.0003 C   0  0  0  0  0  0  0  0  0  0  0  0
    0.9010    1.0036    1.2788 C   0  0  0  0  0  0  0  0  0  0  0  0
    2.5749   -0.8965   -1.2047 C   0  0  0  0  0  0  0  0  0  0  0  0
    1.6575   -1.3833    1.0744 C   0  0  0  0  0  0  0  0  0  0  0  0
    3.2977    0.4858    0.7578 C   0  0  0  0  0  0  0  0  0  0  0  0
   -2.1785    0.0710   -0.4972 C   0  0  0  0  0  0  0  0  0  0  0  0
   -3.4887   -0.3972    0.1338 C   0  0  0  0  0  0  0  0  0  0  0  0
   -4.6351    0.5582   -0.2001 C   0  0  0  0  0  0  0  0  0  0  0  0
   -5.9501    0.0803    0.3949 C   0  0  0  0  0  0  0  0  0  0  0  0
  1  6  1  0
  1 12  1  0
  2  6  1  0
  2  7  1  0
  2  8  1  0
  3  6  1  0
  3  9  1  0
  3 10  1  0
  4  7  1  0
  4  9  1  0
  4 11  1  0
  5  8  1  0
  5 10  1  0
  5 11  1  0
 12 13  1  0
 13 14  1  0
 14 15  1  0
M  END
>  <PUBCHEM_COMPOUND_CID>  (1) 
38257

>  <PUBCHEM_CONFORMER_RMSD>  (1) 
0.6

>  <PUBCHEM_CONFORMER_DIVERSEORDER>  (1) 
1
7
6
9
10
3
5
4
8
2

>  <PUBCHEM_MMFF94_PARTIAL_CHARGES>  (1) 
4
1 -0.9
12 0.27
31 0.36
6 0.27

>  <PUBCHEM_EFFECTIVE_ROTOR_COUNT>  (1) 
5.2

>  <PUBCHEM_PHARMACOPHORE_FEATURES>  (1) 
7
1 1 cation
1 1 donor
1 15 hydrophobe
6 2 3 4 6 7 9 rings
6 2 3 5 6 8 10 rings
6 2 4 5 7 8 11 rings
6 3 4 5 9 10 11 rings

>  <PUBCHEM_HEAVY_ATOM_COUNT>  (1) 
15

>  <PUBCHEM_ATOM_DEF_STEREO_COUNT>  (1) 
0

>  <PUBCHEM_ATOM_UDEF_STEREO_COUNT>  (1) 
0

>  <PUBCHEM_BOND_DEF_STEREO_COUNT>  (1) 
0

>  <PUBCHEM_BOND_UDEF_STEREO_COUNT>  (1) 
0

>  <PUBCHEM_ISOTOPIC_ATOM_COUNT>  (1) 
0

>  <PUBCHEM_COMPONENT_COUNT>  (1) 
1

>  <PUBCHEM_CACTVS_TAUTO_COUNT>  (1) 
1

>  <PUBCHEM_CONFORMER_ID>  (1) 
0000957100000001

>  <PUBCHEM_MMFF94_ENERGY>  (1) 
18.3715

>  <PUBCHEM_FEATURE_SELFOVERLAP>  (1) 
48.012

>  <PUBCHEM_SHAPE_FINGERPRINT>  (1) 
11471102 20 17632578244898114053
12423570 1 10538960094250127022
12654215 9 17704071810993373704
13134695 92 15267341808048702400
14252887 29 13262396648587399269
14344429 50 17603584136227212708
16945 1 16154527892673812210
18186145 218 16558747910744828141
20233049 118 18201999927902872561
20559304 39 17967527943708301941
20645477 70 18340772542230778807
212847 35 17917434198811448425
22892500 29 16271919437076541464
23402655 69 15626223537416052121
23557571 272 8862674486232189795
3060560 45 18186526509529182486
4047638 21 17385730217882572684
42 15 16298100974193419385
522135 26 17346883329902089759
5374978 207 17313101939304034821
54040823 5 17967255290731437464

>  <PUBCHEM_SHAPE_MULTIPOLES>  (1) 
303.71
8.36
1.32
1.29
18.16
0.04
0.26
-0.73
0.61
-0.82
-0.08
-1.08
-0.01
-0.01

>  <PUBCHEM_SHAPE_SELFOVERLAP>  (1) 
630.237

>  <PUBCHEM_SHAPE_VOLUME>  (1) 
166.8

>  <PUBCHEM_COORDINATE_TYPE>  (1) 
2
5
10

$$$$
