38261
     RDKit          3D

 41 46  0  0  1  0  0  0  0  0999 V2000
   -2.8843    0.1483   -0.2777 O   0  0  0  0  0  0  0  0  0  0  0  0
   -2.2240    2.3941   -0.6317 O   0  0  0  0  0  0  0  0  0  0  0  0
   -5.8442   -1.2662    1.3810 O   0  0  0  0  0  0  0  0  0  0  0  0
   -6.7546    1.3853    0.5383 O   0  0  0  0  0  0  0  0  0  0  0  0
   -4.8233    1.8359   -1.4137 O   0  0  0  0  0  0  0  0  0  0  0  0
   -2.0206   -2.5156    0.0775 O   0  0  0  0  0  0  0  0  0  0  0  0
    1.7041    1.5675    2.0444 O   0  0  0  0  0  0  0  0  0  0  0  0
    1.7662    4.6355   -1.7029 O   0  0  0  0  0  0  0  0  0  0  0  0
    3.8376    4.2473   -0.1970 O   0  0  0  0  0  0  0  0  0  0  0  0
   -2.4244   -4.6265   -0.7613 O   0  0  0  0  0  0  0  0  0  0  0  0
    0.2134   -1.5862   -0.3012 O   0  0  0  0  0  0  0  0  0  0  0  0
    4.4332   -2.7865   -1.6757 O   0  0  0  0  0  0  0  0  0  0  0  0
   -5.1541   -0.4364    0.4493 C   0  0  0  0  0  0  0  0  0  0  0  0
   -5.3985    1.0330    0.7971 C   0  0  0  0  0  0  0  0  0  0  0  0
   -3.6549   -0.7771    0.5005 C   0  0  0  0  0  0  0  0  0  0  0  0
   -4.4885    1.9406   -0.0266 C   0  0  0  0  0  0  0  0  0  0  0  0
   -3.0301    1.5068    0.1535 C   0  0  0  0  0  0  0  0  0  0  0  0
   -3.4123   -2.1809   -0.0666 C   0  0  0  0  0  0  0  0  0  0  0  0
   -0.9052    2.5535   -0.3041 C   0  0  0  0  0  0  0  0  0  0  0  0
    3.1379    1.4312    1.9401 C   0  0  0  0  0  0  0  0  0  0  0  0
    1.1185    2.2102    0.9820 C   0  0  0  0  0  0  0  0  0  0  0  0
    1.7956    3.1237    0.1738 C   0  0  0  0  0  0  0  0  0  0  0  0
   -0.2094    3.4555   -1.1200 C   0  0  0  0  0  0  0  0  0  0  0  0
    3.7647    2.8116    1.7256 C   0  0  0  0  0  0  0  0  0  0  0  0
   -0.2311    1.9239    0.7447 C   0  0  0  0  0  0  0  0  0  0  0  0
    1.1368    3.7424   -0.8869 C   0  0  0  0  0  0  0  0  0  0  0  0
    3.1999    3.4538    0.4843 C   0  0  0  0  0  0  0  0  0  0  0  0
    3.5141    0.3113    0.9753 C   0  0  0  0  0  0  0  0  0  0  0  0
   -0.9146    4.1333   -2.2565 C   0  0  0  0  0  0  0  0  0  0  0  0
   -1.6728   -3.7610   -0.3408 C   0  0  0  0  0  0  0  0  0  0  0  0
    2.7102   -0.8439    0.9234 C   0  0  0  0  0  0  0  0  0  0  0  0
    2.9766   -1.9097    0.0438 C   0  0  0  0  0  0  0  0  0  0  0  0
    4.6487    0.3571    0.1589 C   0  0  0  0  0  0  0  0  0  0  0  0
   -0.2107   -3.9538   -0.2074 C   0  0  0  0  0  0  0  0  0  0  0  0
    2.0631   -3.0642   -0.0328 C   0  0  0  0  0  0  0  0  0  0  0  0
    0.6717   -2.8677   -0.1360 C   0  0  0  0  0  0  0  0  0  0  0  0
    4.1166   -1.8189   -0.7656 C   0  0  0  0  0  0  0  0  0  0  0  0
    4.9471   -0.6994   -0.7034 C   0  0  0  0  0  0  0  0  0  0  0  0
    0.2922   -5.2566   -0.1880 C   0  0  0  0  0  0  0  0  0  0  0  0
    2.5433   -4.3834   -0.0106 C   0  0  0  0  0  0  0  0  0  0  0  0
    1.6662   -5.4679   -0.0873 C   0  0  0  0  0  0  0  0  0  0  0  0
  1 15  1  0
  1 17  1  0
  2 17  1  0
  2 19  1  0
  3 13  1  0
  4 14  1  0
  5 16  1  0
  6 18  1  0
  6 30  1  0
  7 20  1  0
  7 21  1  0
  8 26  1  0
  9 27  2  0
 10 30  2  0
 11 36  1  0
 12 37  1  0
 13 14  1  0
 13 15  1  0
 14 16  1  0
 15 18  1  0
 16 17  1  0
 19 23  2  0
 19 25  1  0
 20 24  1  0
 20 28  1  0
 21 22  1  0
 21 25  2  0
 22 26  2  0
 22 27  1  0
 23 26  1  0
 23 29  1  0
 24 27  1  0
 28 31  2  0
 28 33  1  0
 30 34  1  0
 31 32  1  0
 32 35  1  0
 32 37  2  0
 33 38  2  0
 34 36  1  0
 34 39  2  0
 35 36  2  0
 35 40  1  0
 37 38  1  0
 39 41  1  0
 40 41  2  0
M  END
>  <PUBCHEM_COMPOUND_CID>  (1) 
38261

>  <PUBCHEM_CONFORMER_RMSD>  (1) 
0.8

>  <PUBCHEM_CONFORMER_DIVERSEORDER>  (1) 
3
20
7
23
18
5
22
19
9
10
13
15
16
6
11
14
8
4
21
1
12
2
17

>  <PUBCHEM_MMFF94_PARTIAL_CHARGES>  (1) 
52
1 -0.56
10 -0.57
11 -0.53
12 -0.53
13 0.28
14 0.28
15 0.28
16 0.28
17 0.56
18 0.28
19 0.08
2 -0.36
20 0.42
21 0.08
22 0.09
23 -0.14
24 0.06
25 -0.15
26 0.08
27 0.42
28 -0.14
29 0.14
3 -0.68
30 0.63
31 -0.15
33 -0.15
34 0.09
36 0.08
37 0.08
38 -0.15
39 -0.15
4 -0.68
40 -0.15
41 -0.15
49 0.4
5 -0.68
50 0.4
51 0.4
55 0.15
59 0.15
6 -0.43
60 0.15
61 0.15
62 0.45
63 0.15
64 0.15
65 0.15
66 0.45
67 0.45
7 -0.36
8 -0.53
9 -0.57

>  <PUBCHEM_EFFECTIVE_ROTOR_COUNT>  (1) 
1.8

>  <PUBCHEM_PHARMACOPHORE_FEATURES>  (1) 
19
1 1 acceptor
1 10 acceptor
1 11 donor
1 12 donor
1 2 acceptor
1 3 acceptor
1 3 donor
1 4 acceptor
1 4 donor
1 5 acceptor
1 5 donor
1 7 acceptor
1 8 donor
1 9 acceptor
6 1 13 14 15 16 17 rings
6 19 21 22 23 25 26 rings
6 28 31 32 33 37 38 rings
6 34 35 36 39 40 41 rings
6 7 20 21 22 24 27 rings

>  <PUBCHEM_HEAVY_ATOM_COUNT>  (1) 
41

>  <PUBCHEM_ATOM_DEF_STEREO_COUNT>  (1) 
2

>  <PUBCHEM_ATOM_UDEF_STEREO_COUNT>  (1) 
4

>  <PUBCHEM_BOND_DEF_STEREO_COUNT>  (1) 
0

>  <PUBCHEM_BOND_UDEF_STEREO_COUNT>  (1) 
0

>  <PUBCHEM_ISOTOPIC_ATOM_COUNT>  (1) 
0

>  <PUBCHEM_COMPONENT_COUNT>  (1) 
1

>  <PUBCHEM_CACTVS_TAUTO_COUNT>  (1) 
99

>  <PUBCHEM_CONFORMER_ID>  (1) 
0000957500000003

>  <PUBCHEM_MMFF94_ENERGY>  (1) 
154.4503

>  <PUBCHEM_FEATURE_SELFOVERLAP>  (1) 
96.519

>  <PUBCHEM_SHAPE_FINGERPRINT>  (1) 
10581848 127 17908161098168784779
10864689 126 18196373610965539782
11513181 2 17986396813361667942
12218070 45 17617914260747159232
12422481 6 18124571306285655296
13402501 40 18339644434277845819
13560911 43 17469329136427918947
1361 2 18410852170589453713
14725015 67 17758386379989203907
15001296 14 17974567210697334169
15297060 5 17912937372178959224
15320467 1 18339361864174210299
15400415 2 18267864059258317337
15444296 121 18045486768031674210
15721738 15 17108725584804828732
15968369 26 17542189417177862124
16664035 7 17688011030083545731
17977149 70 18411141299419626578
19311894 1 15960068601039999252
20580484 21 18195811757369372705
20764821 26 18265318663810846206
21133410 38 18057884830812815367
325973 47 17546160801268315007
338550 245 18265334095486123585
42626532 9 17896341249238570138
437795 96 18262509304792159461
5047190 48 18194115450374107528
550186 83 18041544893643029968
5776283 40 18338534031388188062
581034 39 17979921827881806857
6287921 2 18339643472168098840
653340 110 17333077028617399448
66674814 147 17762289916465113381
86090 222 18341328916277513994

>  <PUBCHEM_SHAPE_MULTIPOLES>  (1) 
773.33
10.68
8.6
1.41
12.7
4.98
-0.04
-0.98
1.7
-4.73
-2.71
-0.51
-1.44
1.84

>  <PUBCHEM_SHAPE_SELFOVERLAP>  (1) 
1728.293

>  <PUBCHEM_SHAPE_VOLUME>  (1) 
403.5

>  <PUBCHEM_COORDINATE_TYPE>  (1) 
2
5
10

$$$$
