38276
     RDKit          3D

 37 41  0  0  1  0  0  0  0  0999 V2000
   -2.3867   -0.2340    0.3506 O   0  0  0  0  0  0  0  0  0  0  0  0
   -3.0884    1.7437   -0.6859 O   0  0  0  0  0  0  0  0  0  0  0  0
   -2.7054   -4.3569   -1.0745 O   0  0  0  0  0  0  0  0  0  0  0  0
   -3.8395    4.0276    0.9661 O   0  0  0  0  0  0  0  0  0  0  0  0
   -0.1032    1.4924   -0.6734 O   0  0  0  0  0  0  0  0  0  0  0  0
    2.1838   -3.4945   -0.0757 O   0  0  0  0  0  0  0  0  0  0  0  0
   -1.8356   -3.2622    1.8627 O   0  0  0  0  0  0  0  0  0  0  0  0
    2.1869    2.4863   -0.3189 O   0  0  0  0  0  0  0  0  0  0  0  0
    4.3960   -2.3422    0.2746 O   0  0  0  0  0  0  0  0  0  0  0  0
    4.4398    3.6562    0.0340 O   0  0  0  0  0  0  0  0  0  0  0  0
   -6.4000    1.4012    0.7660 N   0  0  0  0  0  0  0  0  0  0  0  0
   -1.7955   -0.7031   -0.8596 C   0  0  0  0  0  0  0  0  0  0  0  0
   -2.0602   -3.2128   -0.5160 C   0  0  0  0  0  0  0  0  0  0  0  0
   -2.4915   -1.9865   -1.3203 C   0  0  0  0  0  0  0  0  0  0  0  0
   -0.5436   -3.4133   -0.5668 C   0  0  0  0  0  0  0  0  0  0  0  0
   -0.3170   -0.8744   -0.6166 C   0  0  0  0  0  0  0  0  0  0  0  0
    0.2623   -2.1430   -0.4469 C   0  0  0  0  0  0  0  0  0  0  0  0
   -3.4987    0.6175    0.0885 C   0  0  0  0  0  0  0  0  0  0  0  0
   -4.0584    1.0821    1.4332 C   0  0  0  0  0  0  0  0  0  0  0  0
   -5.2049    2.0861    1.2625 C   0  0  0  0  0  0  0  0  0  0  0  0
   -4.7886    3.2000    0.2892 C   0  0  0  0  0  0  0  0  0  0  0  0
   -4.1734    2.6258   -0.9999 C   0  0  0  0  0  0  0  0  0  0  0  0
    0.4927    0.2707   -0.5212 C   0  0  0  0  0  0  0  0  0  0  0  0
   -2.5834   -3.1563    0.8918 C   0  0  0  0  0  0  0  0  0  0  0  0
    1.6431   -2.2452   -0.2079 C   0  0  0  0  0  0  0  0  0  0  0  0
    1.8657    0.1593   -0.2739 C   0  0  0  0  0  0  0  0  0  0  0  0
    2.4412   -1.0991   -0.1182 C   0  0  0  0  0  0  0  0  0  0  0  0
   -3.6252    3.7051   -1.9266 C   0  0  0  0  0  0  0  0  0  0  0  0
   -4.0665   -2.9611    1.0552 C   0  0  0  0  0  0  0  0  0  0  0  0
    2.6932    1.3796   -0.1808 C   0  0  0  0  0  0  0  0  0  0  0  0
    3.8896   -1.2352    0.1399 C   0  0  0  0  0  0  0  0  0  0  0  0
    4.1407    1.2458    0.0808 C   0  0  0  0  0  0  0  0  0  0  0  0
    4.7181   -0.0161    0.2353 C   0  0  0  0  0  0  0  0  0  0  0  0
    4.9363    2.3940    0.1736 C   0  0  0  0  0  0  0  0  0  0  0  0
    6.0913   -0.1301    0.4831 C   0  0  0  0  0  0  0  0  0  0  0  0
    6.3043    2.2760    0.4209 C   0  0  0  0  0  0  0  0  0  0  0  0
    6.8806    1.0167    0.5753 C   0  0  0  0  0  0  0  0  0  0  0  0
  1 12  1  0
  1 18  1  0
  2 18  1  0
  2 22  1  0
  3 13  1  0
  4 21  1  0
  5 23  1  0
  6 25  1  0
  7 24  2  0
  8 30  2  0
  9 31  2  0
 10 34  1  0
 11 20  1  0
 12 14  1  0
 12 16  1  0
 13 14  1  0
 13 15  1  0
 13 24  1  0
 15 17  1  0
 16 17  2  0
 16 23  1  0
 17 25  1  0
 18 19  1  0
 19 20  1  0
 20 21  1  0
 21 22  1  0
 22 28  1  0
 23 26  2  0
 24 29  1  0
 25 27  2  0
 26 27  1  0
 26 30  1  0
 27 31  1  0
 30 32  1  0
 31 33  1  0
 32 33  2  0
 32 34  1  0
 33 35  1  0
 34 36  2  0
 35 37  2  0
 36 37  1  0
M  END
>  <PUBCHEM_COMPOUND_CID>  (1) 
38276

>  <PUBCHEM_CONFORMER_RMSD>  (1) 
0.8

>  <PUBCHEM_CONFORMER_DIVERSEORDER>  (1) 
2
123
22
75
115
78
73
7
31
87
111
100
69
96
110
72
14
85
102
121
36
120
12
114
27
106
89
24
108
57
66
59
81
122
28
76
10
32
107
58
104
93
37
39
15
77
25
82
6
9
88
97
54
53
60
62
84
68
44
80
52
67
16
94
61
99
26
35
46
48
98
117
38
42
118
19
51
34
113
20
105
71
92
43
70
124
65
116
50
13
45
119
56
63
3
33
23
109
49
101
86
112
30
4
103
74
55
21
64
5
41
91
29
79
47
17
83
40
95
90
11
1
8
18

>  <PUBCHEM_MMFF94_PARTIAL_CHARGES>  (1) 
44
1 -0.56
10 -0.53
11 -0.99
12 0.42
13 0.34
15 0.14
16 -0.14
17 -0.14
18 0.56
2 -0.56
20 0.27
21 0.28
22 0.28
23 0.08
24 0.45
25 0.08
26 0.09
27 0.09
29 0.06
3 -0.68
30 0.4
31 0.4
32 0.09
33 0.09
34 0.08
35 -0.15
36 -0.15
37 -0.15
4 -0.68
49 0.4
5 -0.53
53 0.36
54 0.36
58 0.4
59 0.45
6 -0.53
60 0.45
61 0.15
62 0.15
63 0.15
64 0.45
7 -0.57
8 -0.57
9 -0.57

>  <PUBCHEM_EFFECTIVE_ROTOR_COUNT>  (1) 
5

>  <PUBCHEM_PHARMACOPHORE_FEATURES>  (1) 
19
1 1 acceptor
1 10 donor
1 11 cation
1 11 donor
1 2 acceptor
1 3 acceptor
1 3 donor
1 4 acceptor
1 4 donor
1 5 donor
1 6 donor
1 7 acceptor
1 8 acceptor
1 9 acceptor
6 12 13 14 15 16 17 rings
6 16 17 23 25 26 27 rings
6 2 18 19 20 21 22 rings
6 26 27 30 31 32 33 rings
6 32 33 34 35 36 37 rings

>  <PUBCHEM_HEAVY_ATOM_COUNT>  (1) 
37

>  <PUBCHEM_ATOM_DEF_STEREO_COUNT>  (1) 
1

>  <PUBCHEM_ATOM_UDEF_STEREO_COUNT>  (1) 
5

>  <PUBCHEM_BOND_DEF_STEREO_COUNT>  (1) 
0

>  <PUBCHEM_BOND_UDEF_STEREO_COUNT>  (1) 
0

>  <PUBCHEM_ISOTOPIC_ATOM_COUNT>  (1) 
0

>  <PUBCHEM_COMPONENT_COUNT>  (1) 
1

>  <PUBCHEM_CACTVS_TAUTO_COUNT>  (1) 
372

>  <PUBCHEM_CONFORMER_ID>  (1) 
0000958400000002

>  <PUBCHEM_MMFF94_ENERGY>  (1) 
110.5767

>  <PUBCHEM_FEATURE_SELFOVERLAP>  (1) 
96.536

>  <PUBCHEM_SHAPE_FINGERPRINT>  (1) 
10050765 1 18413108359902796870
10675989 125 17763739893103680717
1100329 8 18267017267916554342
11115154 58 17840279436936106823
12107183 9 18338227151659322930
12422481 6 17749669593622447716
12788726 201 18264473157029360923
12925494 130 18341044194274424624
131258 38 14497849909915689121
13140716 1 18409451375480246782
14020679 6 17967259680388760474
14028597 1 17604137251107129299
14790565 3 18196934370591492244
15081414 286 17838338475687558607
15320467 1 18412263926103317832
15338160 23 18337393849908048895
16112460 7 18270121184767548464
18393751 57 18336838502980600289
19246450 95 17465908620710686816
19301679 30 18120665883264086731
21033648 144 18408600336463464165
21033648 29 17969504801744798893
21236236 1 18339921631599011406
22889206 1 17607236567773680051
25019877 29 18202010932579354263
283562 15 18194111048149089511
350125 39 18195245739995905030
4073 2 18261674878704011898
4144715 1 18336553802352231050
469060 322 17903655303701978803
5104073 3 18263351629688765680
5171179 24 17486479688191069121
6086070 43 16988551434201215394
653340 110 18268424818635031162

>  <PUBCHEM_SHAPE_MULTIPOLES>  (1) 
697.77
14.28
5.76
1.2
11.69
1.04
-0.02
-12.47
-4.11
-5.77
0.34
-1.67
-0.1
0.37

>  <PUBCHEM_SHAPE_SELFOVERLAP>  (1) 
1553.274

>  <PUBCHEM_SHAPE_VOLUME>  (1) 
364.4

>  <PUBCHEM_COORDINATE_TYPE>  (1) 
2
5
10

$$$$
