3827
     RDKit          3D

 22 25  0  0  0  0  0  0  0  0999 V2000
    2.3054   -3.2801   -0.1027 S   0  0  0  0  0  0  0  0  0  0  0  0
    3.5671   -1.1778    1.6277 O   0  0  0  0  0  0  0  0  0  0  0  0
   -4.1344    0.0568    0.4175 N   0  0  0  0  0  0  0  0  0  0  0  0
   -1.4209   -0.0426   -0.5625 C   0  0  0  0  0  0  0  0  0  0  0  0
   -2.3139   -1.2498   -0.6532 C   0  0  0  0  0  0  0  0  0  0  0  0
   -2.1617    1.2645   -0.4868 C   0  0  0  0  0  0  0  0  0  0  0  0
   -3.3824   -1.2093    0.4453 C   0  0  0  0  0  0  0  0  0  0  0  0
   -3.2362    1.2088    0.6050 C   0  0  0  0  0  0  0  0  0  0  0  0
   -0.0842   -0.1266   -0.5200 C   0  0  0  0  0  0  0  0  0  0  0  0
    0.6527    1.1643   -0.4306 C   0  0  0  0  0  0  0  0  0  0  0  0
    0.5948   -1.4052   -0.5300 C   0  0  0  0  0  0  0  0  0  0  0  0
    1.5559    1.3988    0.6250 C   0  0  0  0  0  0  0  0  0  0  0  0
   -5.1803    0.0527    1.4401 C   0  0  0  0  0  0  0  0  0  0  0  0
    1.7294   -1.6921    0.2154 C   0  0  0  0  0  0  0  0  0  0  0  0
    1.7701    0.3701    1.7042 C   0  0  0  0  0  0  0  0  0  0  0  0
    2.4544   -0.8809    1.1881 C   0  0  0  0  0  0  0  0  0  0  0  0
    0.4905    2.1436   -1.4262 C   0  0  0  0  0  0  0  0  0  0  0  0
    0.1990   -2.5209   -1.3394 C   0  0  0  0  0  0  0  0  0  0  0  0
    2.2662    2.6086    0.6687 C   0  0  0  0  0  0  0  0  0  0  0  0
    1.0396   -3.5999   -1.1978 C   0  0  0  0  0  0  0  0  0  0  0  0
    1.2013    3.3423   -1.3673 C   0  0  0  0  0  0  0  0  0  0  0  0
    2.0874    3.5749   -0.3204 C   0  0  0  0  0  0  0  0  0  0  0  0
  1 14  1  0
  1 20  1  0
  2 16  2  0
  3  7  1  0
  3  8  1  0
  3 13  1  0
  4  5  1  0
  4  6  1  0
  4  9  2  3
  5  7  1  0
  6  8  1  0
  9 10  1  0
  9 11  1  0
 10 12  2  0
 10 17  1  0
 11 14  2  0
 11 18  1  0
 12 15  1  0
 12 19  1  0
 14 16  1  0
 15 16  1  0
 17 21  2  0
 18 20  2  0
 19 22  2  0
 21 22  1  0
M  END
>  <PUBCHEM_COMPOUND_CID>  (1) 
3827

>  <PUBCHEM_CONFORMER_RMSD>  (1) 
0.6

>  <PUBCHEM_CONFORMER_DIVERSEORDER>  (1) 
2
3
1
4

>  <PUBCHEM_MMFF94_PARTIAL_CHARGES>  (1) 
28
1 -0.08
10 0.03
11 -0.05
12 -0.14
13 0.27
14 -0.05
15 0.2
16 0.59
17 -0.15
18 -0.15
19 -0.15
2 -0.57
20 -0.11
21 -0.15
22 -0.15
3 -0.81
36 0.15
37 0.15
38 0.15
39 0.15
4 -0.28
40 0.15
41 0.15
5 0.14
6 0.14
7 0.27
8 0.27
9 0.02

>  <PUBCHEM_EFFECTIVE_ROTOR_COUNT>  (1) 
1.2

>  <PUBCHEM_PHARMACOPHORE_FEATURES>  (1) 
6
1 2 acceptor
1 3 cation
5 1 11 14 18 20 rings
6 10 12 17 19 21 22 rings
6 3 4 5 6 7 8 rings
7 9 10 11 12 14 15 16 rings

>  <PUBCHEM_HEAVY_ATOM_COUNT>  (1) 
22

>  <PUBCHEM_ATOM_DEF_STEREO_COUNT>  (1) 
0

>  <PUBCHEM_ATOM_UDEF_STEREO_COUNT>  (1) 
0

>  <PUBCHEM_BOND_DEF_STEREO_COUNT>  (1) 
0

>  <PUBCHEM_BOND_UDEF_STEREO_COUNT>  (1) 
0

>  <PUBCHEM_ISOTOPIC_ATOM_COUNT>  (1) 
0

>  <PUBCHEM_COMPONENT_COUNT>  (1) 
1

>  <PUBCHEM_CACTVS_TAUTO_COUNT>  (1) 
2

>  <PUBCHEM_CONFORMER_ID>  (1) 
00000EF300000002

>  <PUBCHEM_MMFF94_ENERGY>  (1) 
73.0091

>  <PUBCHEM_FEATURE_SELFOVERLAP>  (1) 
30.475

>  <PUBCHEM_SHAPE_FINGERPRINT>  (1) 
10382601 240 18188775070853214600
10906281 52 17903892497408177116
12035758 1 17902216828929222729
12422481 6 18121466203854895832
12553582 1 18337388232085824022
12633257 1 18334289868838735979
12644460 14 18263384575903065745
12716301 132 16895657780736044082
12788726 201 17613453142108595314
13140716 1 18339361993202648771
13681431 1 18193019052534025284
14022347 108 17684935700249231853
14223421 5 18334297604238099261
14363568 33 18411139113260128456
14790565 3 18412266160039803352
14955137 171 18412271627326734834
15279307 12 17832133201617189756
15420108 30 18341604983711284452
1601671 61 18412549777909106934
16945 1 18200300027101935094
17357779 13 17691386534853707029
1813 80 18189906317962387018
19591789 44 18338516460402725420
20510252 161 17043449739815979334
20600515 1 17535176753247819212
20739085 24 18409165506857253752
21330990 113 16756926888137637385
21524375 3 17903363941352187493
22182313 1 17123365608737511802
2255824 54 18338245950060848509
23419403 2 16907742590161666784
23558518 356 16894274084039478812
23559900 14 18338529564553810015
2748010 2 17694471803568416262
3380486 145 18052230952342201303
3610482 184 16452092250568054908
394222 165 18045788041800186817
4409770 3 17326329922557199199
5104073 3 18262821631056930961
6287921 2 18342457079505864843
6786 2 16965831219686781492
7097593 13 18343019948292621195
7364860 26 18412273834681579101
81228 2 17544195973941922132
9841814 1 18041574546170892835

>  <PUBCHEM_SHAPE_MULTIPOLES>  (1) 
445.75
6.01
4.47
1.48
9.19
0.19
-0.2
-0.3
-3.5
-4.61
1.88
-0.43
0.05
-0.32

>  <PUBCHEM_SHAPE_SELFOVERLAP>  (1) 
971.026

>  <PUBCHEM_SHAPE_VOLUME>  (1) 
243.5

>  <PUBCHEM_COORDINATE_TYPE>  (1) 
2
5
10

$$$$
