38274
     RDKit          3D

 19 18  0  0  1  0  0  0  0  0999 V2000
    0.1684   -0.1782   -1.9867 O   0  0  0  0  0  0  0  0  0  0  0  0
    2.1715   -2.3661    1.1189 O   0  0  0  0  0  0  0  0  0  0  0  0
    1.1737   -2.0528    0.1972 N   0  0  0  0  0  0  0  0  0  0  0  0
   -1.6390   -0.8707   -0.4780 C   0  0  0  0  0  0  0  0  0  0  0  0
   -0.2606   -0.1745   -0.6376 C   0  0  0  0  0  0  0  0  0  0  0  0
    1.4815    0.0676    1.3464 C   0  0  0  0  0  0  0  0  0  0  0  0
   -2.8111    0.0277   -0.9391 C   0  0  0  0  0  0  0  0  0  0  0  0
    0.7959   -0.8113    0.2863 C   0  0  0  0  0  0  0  0  0  0  0  0
   -1.6344   -2.2583   -1.1666 C   0  0  0  0  0  0  0  0  0  0  0  0
    2.3270    1.1752    0.6777 C   0  0  0  0  0  0  0  0  0  0  0  0
    0.4729    0.6179    2.3683 C   0  0  0  0  0  0  0  0  0  0  0  0
   -3.1179    1.1741    0.0306 C   0  0  0  0  0  0  0  0  0  0  0  0
    3.4369    0.7026   -0.2691 C   0  0  0  0  0  0  0  0  0  0  0  0
   -2.8761   -3.1076   -0.9339 C   0  0  0  0  0  0  0  0  0  0  0  0
   -4.2632    2.0454   -0.4882 C   0  0  0  0  0  0  0  0  0  0  0  0
    4.1752    1.8929   -0.8866 C   0  0  0  0  0  0  0  0  0  0  0  0
   -0.2599   -0.4829    3.1246 C   0  0  0  0  0  0  0  0  0  0  0  0
   -4.5988    3.1625    0.4872 C   0  0  0  0  0  0  0  0  0  0  0  0
    5.2579    1.4366   -1.8515 C   0  0  0  0  0  0  0  0  0  0  0  0
  1  5  1  0
  2  3  1  0
  3  8  2  0
  4  5  1  0
  4  7  1  0
  4  9  1  0
  5  8  1  0
  6  8  1  0
  6 10  1  0
  6 11  1  0
  7 12  1  0
  9 14  1  0
 10 13  1  0
 11 17  1  0
 12 15  1  0
 13 16  1  0
 15 18  1  0
 16 19  1  0
M  END
>  <PUBCHEM_COMPOUND_CID>  (1) 
38274

>  <PUBCHEM_CONFORMER_RMSD>  (1) 
1.2

>  <PUBCHEM_CONFORMER_DIVERSEORDER>  (1) 
1
78
54
101
44
61
57
49
64
119
102
77
66
107
105
139
106
123
111
26
37
3
116
104
91
141
127
98
96
32
89
15
128
121
28
16
62
6
148
114
14
84
70
136
117
147
97
38
115
33
46
47
118
69
45
13
85
113
145
131
138
80
129
48
76
95
8
137
132
133
59
39
40
23
56
126
110
142
36
143
124
134
24
11
21
146
20
125
72
9
34
30
74
93
79
94
68
140
31
112
52
41
87
135
18
19
42
144
109
88
35
71
43
73
100
12
86
17
82
50
92
65
10
122
58
108
2
27
81
60
5
4
25
130
53
90
99
22
67
75
7
83
63
51
55
120
103
29
149

>  <PUBCHEM_MMFF94_PARTIAL_CHARGES>  (1) 
8
1 -0.68
2 -0.34
3 -0.51
42 0.4
5 0.34
52 0.4
6 0.06
8 0.33

>  <PUBCHEM_EFFECTIVE_ROTOR_COUNT>  (1) 
11

>  <PUBCHEM_PHARMACOPHORE_FEATURES>  (1) 
10
1 1 acceptor
1 1 donor
1 14 hydrophobe
1 17 hydrophobe
1 18 hydrophobe
1 19 hydrophobe
1 2 anion
1 3 acceptor
5 4 7 9 12 15 hydrophobe
5 6 10 11 13 16 hydrophobe

>  <PUBCHEM_HEAVY_ATOM_COUNT>  (1) 
19

>  <PUBCHEM_ATOM_DEF_STEREO_COUNT>  (1) 
0

>  <PUBCHEM_ATOM_UDEF_STEREO_COUNT>  (1) 
3

>  <PUBCHEM_BOND_DEF_STEREO_COUNT>  (1) 
0

>  <PUBCHEM_BOND_UDEF_STEREO_COUNT>  (1) 
1

>  <PUBCHEM_ISOTOPIC_ATOM_COUNT>  (1) 
0

>  <PUBCHEM_COMPONENT_COUNT>  (1) 
1

>  <PUBCHEM_CACTVS_TAUTO_COUNT>  (1) 
2

>  <PUBCHEM_CONFORMER_ID>  (1) 
0000958200000001

>  <PUBCHEM_MMFF94_ENERGY>  (1) 
24.8663

>  <PUBCHEM_FEATURE_SELFOVERLAP>  (1) 
50.75

>  <PUBCHEM_SHAPE_FINGERPRINT>  (1) 
11578080 2 16953417579438850802
12186901 62 18058733635944431735
12491281 212 18261668272216089882
12788726 201 18190725613862283699
14251751 93 18269557293899654780
14251757 17 17560235954890625552
14957384 54 17537423038735446525
15163728 17 18115611317010575756
15842332 3 18115845503875111218
17980427 26 17386563553122848339
204376 136 15213844052113505690
20600515 1 17840565030142848818
21501502 16 18336245908256027530
21618674 53 18040991847768050477
21756936 100 17604155929851157940
23419403 2 17389136410912255378
23493267 7 18059860579454467439
23526113 38 16701167745952718232
427121 178 16443357424831472728
474 4 17749111118734681260
5283173 99 18129099103801228504
6049 1 17201347718657968579
621550 5 17341538805785456411
633830 44 17458339745715272392
76465 3 10807933747753471460
7808743 9 18412263947735935733
9999458 23 17972316214248222671

>  <PUBCHEM_SHAPE_MULTIPOLES>  (1) 
374.29
8.33
3.19
2.25
3.1
0.58
-1.72
-7.84
4.72
-3.84
0.59
1.17
0.1
-1.82

>  <PUBCHEM_SHAPE_SELFOVERLAP>  (1) 
692.309

>  <PUBCHEM_SHAPE_VOLUME>  (1) 
234.8

>  <PUBCHEM_COORDINATE_TYPE>  (1) 
2
5
10

$$$$
