38277
     RDKit          3D

 17 18  0  0  0  0  0  0  0  0999 V2000
    0.5875    2.7401   -0.1306 Cl  0  0  0  0  0  0  0  0  0  0  0  0
    0.5887   -2.7399   -0.1382 Cl  0  0  0  0  0  0  0  0  0  0  0  0
   -0.7449   -0.0065    2.5946 Cl  0  0  0  0  0  0  0  0  0  0  0  0
    5.2070    0.0003   -0.1031 Cl  0  0  0  0  0  0  0  0  0  0  0  0
   -5.2664    0.0000   -0.3109 Cl  0  0  0  0  0  0  0  0  0  0  0  0
    0.6919    0.0001   -0.1338 C   0  0  0  0  0  0  0  0  0  0  0  0
   -0.7587    0.0003   -0.1422 C   0  0  0  0  0  0  0  0  0  0  0  0
    1.3937    1.2083   -0.1271 C   0  0  0  0  0  0  0  0  0  0  0  0
    1.3940   -1.2076   -0.1310 C   0  0  0  0  0  0  0  0  0  0  0  0
   -1.5007   -0.0021    1.0389 C   0  0  0  0  0  0  0  0  0  0  0  0
   -1.4104    0.0032   -1.3754 C   0  0  0  0  0  0  0  0  0  0  0  0
    2.7885    1.2084   -0.1175 C   0  0  0  0  0  0  0  0  0  0  0  0
    2.7888   -1.2075   -0.1216 C   0  0  0  0  0  0  0  0  0  0  0  0
   -2.8945   -0.0018    0.9868 C   0  0  0  0  0  0  0  0  0  0  0  0
   -2.8043    0.0033   -1.4275 C   0  0  0  0  0  0  0  0  0  0  0  0
    3.4862    0.0006   -0.1148 C   0  0  0  0  0  0  0  0  0  0  0  0
   -3.5464    0.0008   -0.2464 C   0  0  0  0  0  0  0  0  0  0  0  0
  1  8  1  0
  2  9  1  0
  3 10  1  0
  4 16  1  0
  5 17  1  0
  6  7  1  0
  6  8  2  0
  6  9  1  0
  7 10  2  0
  7 11  1  0
  8 12  1  0
  9 13  2  0
 10 14  1  0
 11 15  2  0
 12 16  2  0
 13 16  1  0
 14 17  2  0
 15 17  1  0
M  END
>  <PUBCHEM_COMPOUND_CID>  (1) 
38277

>  <PUBCHEM_CONFORMER_RMSD>  (1) 
0.6

>  <PUBCHEM_CONFORMER_DIVERSEORDER>  (1) 
1

>  <PUBCHEM_MMFF94_PARTIAL_CHARGES>  (1) 
20
1 -0.18
10 0.18
11 -0.15
12 -0.15
13 -0.15
14 -0.15
15 -0.15
16 0.18
17 0.18
18 0.15
19 0.15
2 -0.18
20 0.15
21 0.15
22 0.15
3 -0.18
4 -0.18
5 -0.18
8 0.18
9 0.18

>  <PUBCHEM_EFFECTIVE_ROTOR_COUNT>  (1) 
1

>  <PUBCHEM_PHARMACOPHORE_FEATURES>  (1) 
2
6 6 8 9 12 13 16 rings
6 7 10 11 14 15 17 rings

>  <PUBCHEM_HEAVY_ATOM_COUNT>  (1) 
17

>  <PUBCHEM_ATOM_DEF_STEREO_COUNT>  (1) 
0

>  <PUBCHEM_ATOM_UDEF_STEREO_COUNT>  (1) 
0

>  <PUBCHEM_BOND_DEF_STEREO_COUNT>  (1) 
0

>  <PUBCHEM_BOND_UDEF_STEREO_COUNT>  (1) 
0

>  <PUBCHEM_ISOTOPIC_ATOM_COUNT>  (1) 
0

>  <PUBCHEM_COMPONENT_COUNT>  (1) 
1

>  <PUBCHEM_CACTVS_TAUTO_COUNT>  (1) 
1

>  <PUBCHEM_CONFORMER_ID>  (1) 
0000958500000001

>  <PUBCHEM_MMFF94_ENERGY>  (1) 
46.0786

>  <PUBCHEM_FEATURE_SELFOVERLAP>  (1) 
10.149

>  <PUBCHEM_SHAPE_FINGERPRINT>  (1) 
11471102 20 18409165515083003044
12119455 92 18187363242209725754
12236239 1 17703791413942606551
124424 183 17749391477125077928
12500047 106 16225765242046649314
12592029 89 18334852796906045546
13140716 1 18266453399208981328
13538477 17 17417805184358058671
13581323 91 15285354028856673637
13760787 19 18131346411062791327
13965767 371 16768211343413748897
14115302 16 17704068547081888487
14251717 144 18411700980301575007
14993402 34 18342741827569077302
15207287 21 17821451252669087619
15219456 202 17895197743906611581
15309172 13 18409455799322630114
15848702 151 17632025130847289934
16945 1 18410568487630235604
18175812 5 17676211311442397119
18186145 218 18271796960435724124
200 152 18272649043593140519
20201158 50 18041001721639310322
20279233 1 17748832903384758427
20344682 1 17821727230124465887
20645476 183 17989481944621346415
20645477 70 18263359213768196670
23175994 123 18186807967463225844
23402539 116 18201995534646830702
23419403 2 17679608858202012705
23493267 7 17240479187515008904
23526113 38 17822010861142850683
23557571 272 16805601430359026982
23559900 14 16660649531774016474
23728640 28 15166010417170680595
25 1 18261386728577989759
2748010 2 18123757723499298566
3060560 45 18412259549414741462
3286 77 18189340228699043645
350125 39 17688881156144864924
4340502 62 18341901809676772387
474 4 17845080964942362376
528886 8 18411693305221228338
568465 68 18041863777589527706
69090 78 18040713697344148323
77492 1 17703793612897290239
81228 2 17826526469826471204
8272917 22 18270124505056648111

>  <PUBCHEM_SHAPE_MULTIPOLES>  (1) 
359.2
7.9
1.9
1.41
0.69
0
-0.88
0
1.29
-1.25
0.18
1.08
0
0

>  <PUBCHEM_SHAPE_SELFOVERLAP>  (1) 
734.9

>  <PUBCHEM_SHAPE_VOLUME>  (1) 
199.9

>  <PUBCHEM_COORDINATE_TYPE>  (1) 
2
5
10

$$$$
