38281
     RDKit          3D

 15 14  0  0  0  0  0  0  0  0999 V2000
   -5.6923   -0.9914   -0.4413 Cl  0  0  0  0  0  0  0  0  0  0  0  0
    5.2147   -1.3888   -0.3119 Cl  0  0  0  0  0  0  0  0  0  0  0  0
   -3.5170   -0.2070    1.2767 O   0  0  0  0  0  0  0  0  0  0  0  0
    3.1475   -0.0980    1.2188 O   0  0  0  0  0  0  0  0  0  0  0  0
    1.8492    1.7249   -0.9386 O   0  0  0  0  0  0  0  0  0  0  0  0
   -0.0628    2.5689   -0.2460 O   0  0  0  0  0  0  0  0  0  0  0  0
    0.5651    0.5374    0.4843 N   0  0  0  0  0  0  0  0  0  0  0  0
    0.7940    1.6781   -0.2951 N   0  0  0  0  0  0  0  0  0  0  0  0
   -0.8106    0.3178    0.9129 C   0  0  0  0  0  0  0  0  0  0  0  0
   -1.6648   -0.1429   -0.2636 C   0  0  0  0  0  0  0  0  0  0  0  0
    1.1674   -0.7030   -0.0206 C   0  0  0  0  0  0  0  0  0  0  0  0
   -3.1208   -0.3626    0.1228 C   0  0  0  0  0  0  0  0  0  0  0  0
    2.6604   -0.6905    0.2567 C   0  0  0  0  0  0  0  0  0  0  0  0
   -4.0296   -0.7850   -1.0117 C   0  0  0  0  0  0  0  0  0  0  0  0
    3.4995   -1.4580   -0.7435 C   0  0  0  0  0  0  0  0  0  0  0  0
  1 14  1  0
  2 15  1  0
  3 12  2  0
  4 13  2  0
  5  8  1  0
  6  8  2  0
  7  8  1  0
  7  9  1  0
  7 11  1  0
  9 10  1  0
 10 12  1  0
 11 13  1  0
 12 14  1  0
 13 15  1  0
M  CHG  2   5  -1   8   1
M  END
>  <PUBCHEM_COMPOUND_CID>  (1) 
38281

>  <PUBCHEM_CONFORMER_RMSD>  (1) 
0.8

>  <PUBCHEM_CONFORMER_DIVERSEORDER>  (1) 
1
33
132
286
301
95
22
170
48
63
227
218
307
158
25
292
45
244
41
222
106
310
196
60
104
314
226
280
275
232
162
270
59
208
10
221
229
224
6
185
47
34
138
319
98
274
40
320
166
242
217
164
43
303
304
199
157
160
267
23
203
83
69
289
322
30
114
243
323
178
151
201
31
3
62
56
155
193
140
176
36
220
239
15
191
281
21
174
248
175
251
309
53
49
37
179
136
254
294
321
8
311
68
26
27
147
288
276
204
182
261
271
125
306
58
107
146
44
112
197
5
169
318
300
111
123
317
116
298
241
279
71
308
195
190
302
209
183
173
200
109
210
100
144
18
50
137
14
115
9
284
245
177
188
145
77
91
134
2
272
161
168
149
101
93
78
28
187
86
89
120
54
84
278
299
122
142
128
291
127
316
102
46
198
39
55
259
143
24
108
189
172
12
11
312
133
287
192
213
283
250
42
121
57
139
202
295
129
19
87
52
256
234
117
61
130
103
181
4
75
72
159
110
237
255
73
235
16
20
223
148
260
184
273
219
17
296
124
51
70
165
240
79
99
97
135
153
228
90
285
212
29
76
263
211
262
131
126
167
214
32
315
66
297
7
252
171
65
150
186
282
74
163
313
85
141
233
35
246
236
247
249
13
264
64
194
238
67
206
118
38
269
277
94
82
113
81
253
215
257
225
154
266
152
180
205
207
268
156
265
105
92
88
80
231
216
96
305
230
258
293
290
119

>  <PUBCHEM_MMFF94_PARTIAL_CHARGES>  (1) 
15
1 -0.29
10 0.06
11 0.33
12 0.45
13 0.45
14 0.35
15 0.35
2 -0.29
3 -0.57
4 -0.57
5 -0.52
6 -0.52
7 -0.53
8 1.03
9 0.27

>  <PUBCHEM_EFFECTIVE_ROTOR_COUNT>  (1) 
8

>  <PUBCHEM_PHARMACOPHORE_FEATURES>  (1) 
4
1 3 acceptor
1 4 acceptor
1 5 acceptor
1 6 acceptor

>  <PUBCHEM_HEAVY_ATOM_COUNT>  (1) 
15

>  <PUBCHEM_ATOM_DEF_STEREO_COUNT>  (1) 
0

>  <PUBCHEM_ATOM_UDEF_STEREO_COUNT>  (1) 
0

>  <PUBCHEM_BOND_DEF_STEREO_COUNT>  (1) 
0

>  <PUBCHEM_BOND_UDEF_STEREO_COUNT>  (1) 
0

>  <PUBCHEM_ISOTOPIC_ATOM_COUNT>  (1) 
0

>  <PUBCHEM_COMPONENT_COUNT>  (1) 
1

>  <PUBCHEM_CACTVS_TAUTO_COUNT>  (1) 
9

>  <PUBCHEM_CONFORMER_ID>  (1) 
0000958900000001

>  <PUBCHEM_MMFF94_ENERGY>  (1) 
28.2913

>  <PUBCHEM_FEATURE_SELFOVERLAP>  (1) 
20.379

>  <PUBCHEM_SHAPE_FINGERPRINT>  (1) 
11543360 7 14851616491445736779
122479 349 7997384132476902398
12251169 10 14333401250974421722
13690532 89 18343300370928614623
14178000 29 18342177760834566350
14251717 144 18410008875019624439
14252887 29 18341609326186932522
14911166 2 18040154015417753603
15477762 27 18411134766262594967
15848700 24 18408880724607746094
17834072 8 18338791222593628309
1813 80 18272101460985232100
18186145 218 17385447634957325953
18222031 100 18410851053782119930
187816 3 17822015280959915490
193927 3 18201732759757812287
19784866 240 18273498979204067047
200 152 17895198753688286170
20339313 130 18408610283265024809
20388580 30 18335424573280575636
20645477 70 18262234529663743591
20671657 53 18334575728612817965
20711985 327 18273218594589737297
20871999 31 18041279855141942892
23402539 116 18262801753178300086
23402655 69 13912322369480390739
23532345 12 18272660025898629497
23532345 42 18410283701766600306
23598291 2 18342188769025753665
2916195 48 11530779118803108086
3286 77 17561079177466986226
42 15 17418375796543899539
9971528 1 18413384354073183825

>  <PUBCHEM_SHAPE_MULTIPOLES>  (1) 
278.99
10.48
1.78
1.02
4.59
1.1
-0.12
-7.3
1.24
-0.99
0.55
0.16
0.06
-0.23

>  <PUBCHEM_SHAPE_SELFOVERLAP>  (1) 
519.59

>  <PUBCHEM_SHAPE_VOLUME>  (1) 
175.9

>  <PUBCHEM_COORDINATE_TYPE>  (1) 
2
5
10

$$$$
