3828
     RDKit          3D

 19 21  0  0  0  0  0  0  0  0999 V2000
    1.7802    1.4914    0.1760 O   0  0  0  0  0  0  0  0  0  0  0  0
   -3.0088    1.1406    0.1688 O   0  0  0  0  0  0  0  0  0  0  0  0
   -0.5196   -2.7525   -0.3734 O   0  0  0  0  0  0  0  0  0  0  0  0
   -0.6163    2.7786    0.3686 O   0  0  0  0  0  0  0  0  0  0  0  0
    2.0927   -2.5335   -0.3644 O   0  0  0  0  0  0  0  0  0  0  0  0
    0.6625   -0.6509   -0.1015 C   0  0  0  0  0  0  0  0  0  0  0  0
   -1.7499   -0.7172   -0.0902 C   0  0  0  0  0  0  0  0  0  0  0  0
    0.6363    0.7335    0.0843 C   0  0  0  0  0  0  0  0  0  0  0  0
   -0.5232   -1.3985   -0.1916 C   0  0  0  0  0  0  0  0  0  0  0  0
   -1.7352    0.6613    0.0943 C   0  0  0  0  0  0  0  0  0  0  0  0
   -0.5742    1.4274    0.1874 C   0  0  0  0  0  0  0  0  0  0  0  0
    1.9667   -1.3272   -0.2037 C   0  0  0  0  0  0  0  0  0  0  0  0
   -3.1207   -1.0864   -0.1286 C   0  0  0  0  0  0  0  0  0  0  0  0
    3.0059    0.8543    0.0795 C   0  0  0  0  0  0  0  0  0  0  0  0
    3.1590   -0.4653   -0.0989 C   0  0  0  0  0  0  0  0  0  0  0  0
   -3.8401    0.0748    0.0327 C   0  0  0  0  0  0  0  0  0  0  0  0
    4.1722    1.7846    0.1942 C   0  0  0  0  0  0  0  0  0  0  0  0
   -0.5075   -3.5600    0.8001 C   0  0  0  0  0  0  0  0  0  0  0  0
   -1.2800    3.5449   -0.6335 C   0  0  0  0  0  0  0  0  0  0  0  0
  1  8  1  0
  1 14  1  0
  2 10  1  0
  2 16  1  0
  3  9  1  0
  3 18  1  0
  4 11  1  0
  4 19  1  0
  5 12  2  0
  6  8  2  0
  6  9  1  0
  6 12  1  0
  7  9  2  0
  7 10  1  0
  7 13  1  0
  8 11  1  0
 10 11  2  0
 12 15  1  0
 13 16  2  0
 14 15  2  0
 14 17  1  0
M  END
>  <PUBCHEM_COMPOUND_CID>  (1) 
3828

>  <PUBCHEM_CONFORMER_RMSD>  (1) 
0.6

>  <PUBCHEM_CONFORMER_DIVERSEORDER>  (1) 
1
2

>  <PUBCHEM_MMFF94_PARTIAL_CHARGES>  (1) 
21
1 -0.16
10 0.14
11 0.08
12 0.47
13 -0.15
14 -0.06
15 -0.14
16 -0.01
17 0.14
18 0.28
19 0.28
2 -0.28
20 0.15
21 0.15
22 0.15
3 -0.36
4 -0.36
5 -0.57
6 0.09
8 0.08
9 0.08

>  <PUBCHEM_EFFECTIVE_ROTOR_COUNT>  (1) 
2

>  <PUBCHEM_PHARMACOPHORE_FEATURES>  (1) 
8
1 1 acceptor
1 2 acceptor
1 3 acceptor
1 4 acceptor
1 5 acceptor
5 2 7 10 13 16 rings
6 1 6 8 12 14 15 rings
6 6 7 8 9 10 11 rings

>  <PUBCHEM_HEAVY_ATOM_COUNT>  (1) 
19

>  <PUBCHEM_ATOM_DEF_STEREO_COUNT>  (1) 
0

>  <PUBCHEM_ATOM_UDEF_STEREO_COUNT>  (1) 
0

>  <PUBCHEM_BOND_DEF_STEREO_COUNT>  (1) 
0

>  <PUBCHEM_BOND_UDEF_STEREO_COUNT>  (1) 
0

>  <PUBCHEM_ISOTOPIC_ATOM_COUNT>  (1) 
0

>  <PUBCHEM_COMPONENT_COUNT>  (1) 
1

>  <PUBCHEM_CACTVS_TAUTO_COUNT>  (1) 
3

>  <PUBCHEM_CONFORMER_ID>  (1) 
00000EF400000001

>  <PUBCHEM_MMFF94_ENERGY>  (1) 
61.711

>  <PUBCHEM_FEATURE_SELFOVERLAP>  (1) 
40.748

>  <PUBCHEM_SHAPE_FINGERPRINT>  (1) 
10411042 1 17042327139235836703
10608611 8 18339078168678393116
10693767 8 15681125795302861766
10967382 1 18411701027530182990
11132069 177 18272082829364529520
12382932 28 18339643459483754546
13132413 78 18196373851494524148
13140716 1 18339086982199009795
13380535 76 18340203093796516518
14223421 5 18266742389481738868
14790565 3 18338814419190663657
15042514 8 18265049313927803714
15196674 1 18412545426679929199
15536298 74 18273216383013811342
16945 1 18338523044160289548
193761 8 17906452121769490881
19591789 44 18410858797349977483
20510252 161 18342738498669242944
20588541 1 18340770454496338264
20739085 24 18120687714940964025
21029758 27 18117846714159612109
21267235 1 18412835689223414326
21421861 104 17900544476174700939
21501502 16 18196937677658157920
2334 1 18411701014977661927
23402539 116 18270952561285893535
23419403 2 15810223324984517355
23463225 33 18410293622587243829
23558518 356 18118692019230953289
23559900 14 18271525313151567926
238 59 16528038279866141869
2748010 2 18411422817076841951
335352 9 17907581328769535837
34934 24 18339634645999710463
350125 39 18266745684154535336
43471831 8 18335981952524536659
5104073 3 18411982459546711131
589210 1 17905886977019320013
7364860 26 18271808969734268654
8809292 202 18337394941215214738
9709674 26 18270687583674627918

>  <PUBCHEM_SHAPE_MULTIPOLES>  (1) 
361.66
5.52
3.79
0.68
1.92
0.21
-0.01
-1.4
-0.12
-0.58
-0.02
-0.02
0.06
0.34

>  <PUBCHEM_SHAPE_SELFOVERLAP>  (1) 
804.533

>  <PUBCHEM_SHAPE_VOLUME>  (1) 
195.3

>  <PUBCHEM_COORDINATE_TYPE>  (1) 
2
5
10

$$$$
