38288
     RDKit          3D

 22 23  0  0  1  0  0  0  0  0999 V2000
   -0.5292    1.8737   -0.2810 O   0  0  0  0  0  0  0  0  0  0  0  0
   -3.0151    3.1719   -0.0982 O   0  0  0  0  0  0  0  0  0  0  0  0
    3.4341   -0.5958    0.0402 O   0  0  0  0  0  0  0  0  0  0  0  0
    3.7891   -3.3484    0.1993 O   0  0  0  0  0  0  0  0  0  0  0  0
   -3.0419   -0.4543    0.6311 N   0  0  0  0  0  0  0  0  0  0  0  0
   -3.5328   -1.5982   -0.1444 C   0  0  0  0  0  0  0  0  0  0  0  0
   -3.2346    0.7831   -0.1060 C   0  0  0  0  0  0  0  0  0  0  0  0
   -2.7295    2.0007    0.6717 C   0  0  0  0  0  0  0  0  0  0  0  0
   -3.3179   -2.8737    0.6770 C   0  0  0  0  0  0  0  0  0  0  0  0
   -5.0265   -1.3958   -0.4203 C   0  0  0  0  0  0  0  0  0  0  0  0
   -2.7600   -1.6860   -1.4658 C   0  0  0  0  0  0  0  0  0  0  0  0
   -1.2298    1.9559    0.9563 C   0  0  0  0  0  0  0  0  0  0  0  0
    0.8381    1.8395   -0.2126 C   0  0  0  0  0  0  0  0  0  0  0  0
    1.5404    0.6262   -0.1152 C   0  0  0  0  0  0  0  0  0  0  0  0
    2.9294    0.6669   -0.0498 C   0  0  0  0  0  0  0  0  0  0  0  0
    1.1917   -0.7489   -0.0607 C   0  0  0  0  0  0  0  0  0  0  0  0
    1.5636    3.0378   -0.2398 C   0  0  0  0  0  0  0  0  0  0  0  0
    2.3742   -1.4456    0.0328 C   0  0  0  0  0  0  0  0  0  0  0  0
    3.6789    1.8417   -0.0746 C   0  0  0  0  0  0  0  0  0  0  0  0
    2.9590    3.0362   -0.1718 C   0  0  0  0  0  0  0  0  0  0  0  0
    2.6395   -2.8412    0.1180 C   0  0  0  0  0  0  0  0  0  0  0  0
    1.4793   -3.8456    0.1138 C   0  0  0  0  0  0  0  0  0  0  0  0
  1 12  1  0
  1 13  1  0
  2  8  1  0
  3 15  1  0
  3 18  1  0
  4 21  2  0
  5  6  1  0
  5  7  1  0
  6  9  1  0
  6 10  1  0
  6 11  1  0
  7  8  1  0
  8 12  1  0
 13 14  1  0
 13 17  2  0
 14 15  2  0
 14 16  1  0
 15 19  1  0
 16 18  2  0
 17 20  1  0
 18 21  1  0
 19 20  2  0
 21 22  1  0
M  END
>  <PUBCHEM_COMPOUND_CID>  (1) 
38288

>  <PUBCHEM_CONFORMER_RMSD>  (1) 
0.8

>  <PUBCHEM_CONFORMER_DIVERSEORDER>  (1) 
1
222
223
72
179
201
155
30
200
199
97
90
183
84
117
192
220
227
173
102
129
60
182
204
68
185
56
146
130
29
216
128
15
140
206
160
123
217
163
138
197
213
42
65
158
24
168
133
58
103
221
76
186
189
164
63
83
176
23
225
85
75
37
137
119
131
144
124
50
112
165
57
93
180
215
74
125
113
178
142
153
89
81
219
22
8
175
34
162
194
126
132
184
67
116
121
171
151
143
55
166
46
48
154
71
195
127
209
148
77
202
69
98
16
3
210
88
25
159
20
208
7
92
105
49
104
134
19
190
150
12
205
14
9
91
21
52
13
157
80
28
196
4
36
193
141
86
111
70
17
211
147
110
167
115
54
120
64
45
191
106
122
212
177
66
172
224
228
99
95
145
181
174
41
100
26
187
47
135
203
101
18
198
27
214
35
11
96
2
6
136
188
226
44
170
152
156
51
5
79
82
33
38
161
109
114
40
139
61
62
73
118
207
107
87
43
108
32
169
53
39
59
218
78
31
10
149
94

>  <PUBCHEM_MMFF94_PARTIAL_CHARGES>  (1) 
24
1 -0.36
12 0.28
13 0.08
15 0.14
16 -0.15
17 -0.15
18 0.05
19 -0.15
2 -0.68
20 -0.15
21 0.59
22 0.06
23 0.36
3 -0.28
38 0.4
39 0.15
4 -0.57
40 0.15
41 0.15
42 0.15
5 -0.9
6 0.27
7 0.27
8 0.28

>  <PUBCHEM_EFFECTIVE_ROTOR_COUNT>  (1) 
7

>  <PUBCHEM_PHARMACOPHORE_FEATURES>  (1) 
10
1 1 acceptor
1 2 acceptor
1 2 donor
1 3 acceptor
1 4 acceptor
1 5 cation
1 5 donor
4 6 9 10 11 hydrophobe
5 3 14 15 16 18 rings
6 13 14 15 17 19 20 rings

>  <PUBCHEM_HEAVY_ATOM_COUNT>  (1) 
22

>  <PUBCHEM_ATOM_DEF_STEREO_COUNT>  (1) 
0

>  <PUBCHEM_ATOM_UDEF_STEREO_COUNT>  (1) 
1

>  <PUBCHEM_BOND_DEF_STEREO_COUNT>  (1) 
0

>  <PUBCHEM_BOND_UDEF_STEREO_COUNT>  (1) 
0

>  <PUBCHEM_ISOTOPIC_ATOM_COUNT>  (1) 
0

>  <PUBCHEM_COMPONENT_COUNT>  (1) 
1

>  <PUBCHEM_CACTVS_TAUTO_COUNT>  (1) 
2

>  <PUBCHEM_CONFORMER_ID>  (1) 
0000959000000001

>  <PUBCHEM_MMFF94_ENERGY>  (1) 
46.5701

>  <PUBCHEM_FEATURE_SELFOVERLAP>  (1) 
50.855

>  <PUBCHEM_SHAPE_FINGERPRINT>  (1) 
10616163 171 18413111679753325573
1100329 8 18122345675243025353
11069576 57 18269539680413042655
12038231 1 18050006588917291779
12553582 1 17977383828812131246
12633257 1 18126575513707683193
12788726 201 17561096774217387521
12839892 36 18266723831498246352
13122387 1 16680911035144372371
13140716 1 18268139856413927554
13402501 40 17612878505928957171
138480 1 18337953385637114190
14178342 30 18340193112334784040
14251757 5 17619370713842267062
14787075 74 17484802958834561400
14844126 61 17107898731129048178
15442244 35 18339361855431022058
17492 89 18410575076443065683
19591789 44 17906455785308022606
19930381 70 18193276514934867707
20028762 73 18128253587748586270
20600515 1 17769095640307364784
20681651 13 18059863856921112545
21421861 104 18408604773006405899
21634736 98 18411985736870663566
21857420 4 14150096934960666053
22113638 7 17907011777551652455
221490 88 18408892827925748098
22393880 68 18340779177907771932
23559900 14 18339914939918723041
2871803 45 18268148832642641413
46194498 28 17244971981378969557
474229 33 18122062280474598632
5309563 4 17978516665508213299
5486654 2 17906456876209338076
6433294 58 18411138039106834771
7097593 13 18340210674234231517
9709674 26 18408889529380386795

>  <PUBCHEM_SHAPE_MULTIPOLES>  (1) 
424.29
8.43
5.11
0.83
5.88
2.2
-0.08
2.04
-0.45
-2.52
0.4
0.55
0.06
-0.69

>  <PUBCHEM_SHAPE_SELFOVERLAP>  (1) 
886.077

>  <PUBCHEM_SHAPE_VOLUME>  (1) 
245

>  <PUBCHEM_COORDINATE_TYPE>  (1) 
2
5
10

$$$$
