38283
     RDKit          3D

 28 30  0  0  1  0  0  0  0  0999 V2000
    0.0741    1.7071   -0.5556 O   0  0  0  0  0  0  0  0  0  0  0  0
    1.4591    3.5578   -0.6242 O   0  0  0  0  0  0  0  0  0  0  0  0
   -3.3374   -1.6308    0.7890 O   0  0  0  0  0  0  0  0  0  0  0  0
   -0.7039    3.9066    1.9170 N   0  0  0  0  0  0  0  0  0  0  0  0
    3.5715    1.3882   -0.0485 C   0  0  0  0  0  0  0  0  0  0  0  0
    2.5685    0.2881    0.0239 C   0  0  0  0  0  0  0  0  0  0  0  0
    2.3662    1.4056   -0.9423 C   0  0  0  0  0  0  0  0  0  0  0  0
    4.9032    1.0494   -0.6293 C   0  0  0  0  0  0  0  0  0  0  0  0
    3.6448    2.4194    1.0281 C   0  0  0  0  0  0  0  0  0  0  0  0
    2.9011   -1.0425   -0.5199 C   0  0  0  0  0  0  0  0  0  0  0  0
    1.2646    2.3526   -0.6915 C   0  0  0  0  0  0  0  0  0  0  0  0
    3.5338   -2.0536    0.1057 C   0  0  0  0  0  0  0  0  0  0  0  0
    4.0238   -1.9823    1.5243 C   0  0  0  0  0  0  0  0  0  0  0  0
    3.7984   -3.3574   -0.5944 C   0  0  0  0  0  0  0  0  0  0  0  0
   -1.0563    2.5493   -0.3082 C   0  0  0  0  0  0  0  0  0  0  0  0
   -2.3065    1.7023   -0.2618 C   0  0  0  0  0  0  0  0  0  0  0  0
   -0.8605    3.3065    0.9361 C   0  0  0  0  0  0  0  0  0  0  0  0
   -2.2358    0.4166    0.2486 C   0  0  0  0  0  0  0  0  0  0  0  0
   -3.4989    2.2282   -0.7311 C   0  0  0  0  0  0  0  0  0  0  0  0
   -3.3902   -0.3653    0.2910 C   0  0  0  0  0  0  0  0  0  0  0  0
   -4.6533    1.4464   -0.6886 C   0  0  0  0  0  0  0  0  0  0  0  0
   -4.5989    0.1496   -0.1775 C   0  0  0  0  0  0  0  0  0  0  0  0
   -2.2869   -2.4381    0.3856 C   0  0  0  0  0  0  0  0  0  0  0  0
   -1.9403   -2.4738   -0.9529 C   0  0  0  0  0  0  0  0  0  0  0  0
   -1.6123   -3.1884    1.3315 C   0  0  0  0  0  0  0  0  0  0  0  0
   -0.8829   -3.2877   -1.3595 C   0  0  0  0  0  0  0  0  0  0  0  0
   -0.5548   -4.0022    0.9250 C   0  0  0  0  0  0  0  0  0  0  0  0
   -0.1902   -4.0518   -0.4205 C   0  0  0  0  0  0  0  0  0  0  0  0
  1 11  1  0
  1 15  1  0
  2 11  2  0
  3 20  1  0
  3 23  1  0
  4 17  3  0
  5  6  1  0
  5  7  1  0
  5  8  1  0
  5  9  1  0
  6  7  1  0
  6 10  1  0
  7 11  1  0
 10 12  2  3
 12 13  1  0
 12 14  1  0
 15 16  1  0
 15 17  1  0
 16 18  2  0
 16 19  1  0
 18 20  1  0
 19 21  2  0
 20 22  2  0
 21 22  1  0
 23 24  2  0
 23 25  1  0
 24 26  1  0
 25 27  2  0
 26 28  2  0
 27 28  1  0
M  END
>  <PUBCHEM_COMPOUND_CID>  (1) 
38283

>  <PUBCHEM_CONFORMER_RMSD>  (1) 
1.4

>  <PUBCHEM_CONFORMER_DIVERSEORDER>  (1) 
1
91
90
42
48
52
94
146
51
71
128
45
145
15
4
127
124
53
77
137
156
20
12
7
153
63
68
5
131
172
98
107
41
24
73
133
75
28
64
21
86
134
164
9
139
142
31
46
176
147
99
190
103
13
27
187
121
22
16
129
19
154
79
58
149
194
170
109
113
100
10
159
152
89
66
65
111
193
26
67
148
50
118
3
93
130
114
184
88
56
87
95
92
104
23
108
70
116
186
120
69
168
54
44
11
57
165
188
183
105
167
151
171
39
135
32
182
192
55
8
189
158
6
119
144
143
72
78
106
61
162
25
14
96
197
74
101
115
122
62
117
85
40
157
174
80
33
178
43
2
36
191
177
160
175
112
49
29
30
60
141
83
150
17
59
34
123
18
181
47
84
110
126
38
102
180
82
125
155
169
35
161
138
81
140
76
37
166
163
195
136
132
173
179
97
196
185

>  <PUBCHEM_MMFF94_PARTIAL_CHARGES>  (1) 
40
1 -0.43
10 -0.19
11 0.72
12 -0.28
13 0.14
14 0.14
15 0.62
16 -0.14
17 0.36
18 -0.15
19 -0.15
2 -0.57
20 0.08
21 -0.15
22 -0.15
23 0.08
24 -0.15
25 -0.15
26 -0.15
27 -0.15
28 -0.15
29 0.1
3 -0.17
30 0.1
37 0.15
4 -0.56
45 0.15
46 0.15
47 0.15
48 0.15
49 0.15
5 -0.19
50 0.15
51 0.15
52 0.15
53 0.15
6 -0.06
7 -0.1
8 0.09
9 0.09

>  <PUBCHEM_EFFECTIVE_ROTOR_COUNT>  (1) 
7.6

>  <PUBCHEM_PHARMACOPHORE_FEATURES>  (1) 
7
1 2 acceptor
1 3 acceptor
1 4 acceptor
3 12 13 14 hydrophobe
3 5 8 9 hydrophobe
6 16 18 19 20 21 22 rings
6 23 24 25 26 27 28 rings

>  <PUBCHEM_HEAVY_ATOM_COUNT>  (1) 
28

>  <PUBCHEM_ATOM_DEF_STEREO_COUNT>  (1) 
0

>  <PUBCHEM_ATOM_UDEF_STEREO_COUNT>  (1) 
3

>  <PUBCHEM_BOND_DEF_STEREO_COUNT>  (1) 
0

>  <PUBCHEM_BOND_UDEF_STEREO_COUNT>  (1) 
0

>  <PUBCHEM_ISOTOPIC_ATOM_COUNT>  (1) 
0

>  <PUBCHEM_COMPONENT_COUNT>  (1) 
1

>  <PUBCHEM_CACTVS_TAUTO_COUNT>  (1) 
1

>  <PUBCHEM_CONFORMER_ID>  (1) 
0000958B00000001

>  <PUBCHEM_MMFF94_ENERGY>  (1) 
77.2171

>  <PUBCHEM_FEATURE_SELFOVERLAP>  (1) 
35.522

>  <PUBCHEM_SHAPE_FINGERPRINT>  (1) 
10074138 170 14529008080561413745
10616163 171 18192436483301949182
10675989 125 18194958552808383373
107951 10 17240481408340051625
1100329 8 18336821992261391151
11513181 2 18344146998966428550
12038231 1 18264773151440723998
12156800 1 16339995717186320535
12539773 59 16043130029707411251
12553582 1 17832995214401547119
12788726 201 18201727197506288096
12838863 1 18048292497697980399
13122387 1 18194406593459409898
13140716 1 18339933619110989609
13402501 40 18122626054871797990
14081887 123 18342166821732471424
14251757 5 18192736615869645980
14725015 67 18191015708226083435
15403338 16 16736346362986418779
16112460 7 18198636432039957144
19930381 70 18192711138129134527
20764821 26 18410860940585975399
20775438 99 17335579453079708343
21857420 4 16547987119030060879
22113638 7 18337945701750685447
23559900 14 18410852179312062408
238918 7 17694203488293152422
3298306 158 18046053870701135357
463206 1 18194405725759556136
5309563 4 17325777375126072739
6287921 2 17335332737009150475
6433294 58 18193842775822309557

>  <PUBCHEM_SHAPE_MULTIPOLES>  (1) 
553.64
8.66
6.35
1.25
2.22
2.52
-0.31
-0.92
0.38
0.26
-0.86
0.16
0.06
0.15

>  <PUBCHEM_SHAPE_SELFOVERLAP>  (1) 
1181.151

>  <PUBCHEM_SHAPE_VOLUME>  (1) 
307.1

>  <PUBCHEM_COORDINATE_TYPE>  (1) 
2
5
10

$$$$
