38287
     RDKit          3D

 22 23  0  0  1  0  0  0  0  0999 V2000
    0.5319   -1.5118   -1.1155 O   0  0  0  0  0  0  0  0  0  0  0  0
    2.7950   -1.2195   -2.7561 O   0  0  0  0  0  0  0  0  0  0  0  0
   -1.5986    0.4355   -0.6654 O   0  0  0  0  0  0  0  0  0  0  0  0
   -4.0439    3.0069   -0.3331 O   0  0  0  0  0  0  0  0  0  0  0  0
    3.1060    0.1525    0.6648 N   0  0  0  0  0  0  0  0  0  0  0  0
    3.1087    1.5321    1.1623 C   0  0  0  0  0  0  0  0  0  0  0  0
    2.9256    0.1297   -0.7769 C   0  0  0  0  0  0  0  0  0  0  0  0
    2.9134   -1.2963   -1.3327 C   0  0  0  0  0  0  0  0  0  0  0  0
    3.3118    1.5036    2.6808 C   0  0  0  0  0  0  0  0  0  0  0  0
    4.2595    2.2902    0.4921 C   0  0  0  0  0  0  0  0  0  0  0  0
    1.7702    2.1982    0.8221 C   0  0  0  0  0  0  0  0  0  0  0  0
    1.7655   -2.1456   -0.7913 C   0  0  0  0  0  0  0  0  0  0  0  0
   -0.5134   -1.7247   -0.2570 C   0  0  0  0  0  0  0  0  0  0  0  0
   -1.5165   -0.7821   -0.0591 C   0  0  0  0  0  0  0  0  0  0  0  0
   -2.5923   -0.9632    0.8042 C   0  0  0  0  0  0  0  0  0  0  0  0
   -0.6162   -2.9137    0.4656 C   0  0  0  0  0  0  0  0  0  0  0  0
   -3.3678    0.2221    0.7081 C   0  0  0  0  0  0  0  0  0  0  0  0
   -2.6800   -2.1674    1.5243 C   0  0  0  0  0  0  0  0  0  0  0  0
   -2.7227    1.0358   -0.1943 C   0  0  0  0  0  0  0  0  0  0  0  0
   -1.6812   -3.1339    1.3425 C   0  0  0  0  0  0  0  0  0  0  0  0
   -3.0369    2.3357   -0.6808 C   0  0  0  0  0  0  0  0  0  0  0  0
   -2.1182    3.0160   -1.7046 C   0  0  0  0  0  0  0  0  0  0  0  0
  1 12  1  0
  1 13  1  0
  2  8  1  0
  3 14  1  0
  3 19  1  0
  4 21  2  0
  5  6  1  0
  5  7  1  0
  6  9  1  0
  6 10  1  0
  6 11  1  0
  7  8  1  0
  8 12  1  0
 13 14  2  0
 13 16  1  0
 14 15  1  0
 15 17  1  0
 15 18  2  0
 16 20  2  0
 17 19  2  0
 18 20  1  0
 19 21  1  0
 21 22  1  0
M  END
>  <PUBCHEM_COMPOUND_CID>  (1) 
38287

>  <PUBCHEM_CONFORMER_RMSD>  (1) 
0.8

>  <PUBCHEM_CONFORMER_DIVERSEORDER>  (1) 
1
164
263
66
120
188
156
136
262
264
242
177
79
168
190
129
169
210
100
145
205
201
165
200
206
24
159
238
74
174
216
249
133
82
35
83
137
228
237
214
80
246
247
254
198
229
124
139
218
87
5
202
142
126
143
187
90
112
132
250
73
50
172
230
227
45
103
226
207
203
30
64
92
158
239
222
149
157
17
183
209
58
128
89
252
31
217
110
182
170
257
184
117
107
118
53
261
102
232
167
101
236
155
40
181
196
204
85
178
94
166
194
84
260
241
39
211
69
193
42
151
138
245
147
71
7
55
192
208
76
108
11
72
215
234
173
144
121
235
98
146
148
75
223
70
60
51
48
189
20
256
153
176
130
44
244
219
191
14
23
140
141
197
43
195
96
22
52
41
213
25
186
243
179
46
240
28
47
36
13
123
134
225
180
212
77
162
97
2
258
248
65
127
61
34
81
113
54
93
29
12
259
125
59
109
220
175
255
91
185
161
224
67
32
10
56
8
4
150
171
131
78
231
16
253
26
116
37
15
163
154
27
104
99
114
135
95
38
9
115
221
68
6
106
63
21
119
3
105
111
62
122
152
88
199
86
49
251
19
33
160
18
233
57

>  <PUBCHEM_MMFF94_PARTIAL_CHARGES>  (1) 
24
1 -0.36
12 0.28
13 0.08
14 0.14
16 -0.15
17 -0.15
18 -0.15
19 0.05
2 -0.68
20 -0.15
21 0.59
22 0.06
23 0.36
3 -0.28
38 0.4
39 0.15
4 -0.57
40 0.15
41 0.15
42 0.15
5 -0.9
6 0.27
7 0.27
8 0.28

>  <PUBCHEM_EFFECTIVE_ROTOR_COUNT>  (1) 
7

>  <PUBCHEM_PHARMACOPHORE_FEATURES>  (1) 
10
1 1 acceptor
1 2 acceptor
1 2 donor
1 3 acceptor
1 4 acceptor
1 5 cation
1 5 donor
4 6 9 10 11 hydrophobe
5 3 14 15 17 19 rings
6 13 14 15 16 18 20 rings

>  <PUBCHEM_HEAVY_ATOM_COUNT>  (1) 
22

>  <PUBCHEM_ATOM_DEF_STEREO_COUNT>  (1) 
0

>  <PUBCHEM_ATOM_UDEF_STEREO_COUNT>  (1) 
1

>  <PUBCHEM_BOND_DEF_STEREO_COUNT>  (1) 
0

>  <PUBCHEM_BOND_UDEF_STEREO_COUNT>  (1) 
0

>  <PUBCHEM_ISOTOPIC_ATOM_COUNT>  (1) 
0

>  <PUBCHEM_COMPONENT_COUNT>  (1) 
1

>  <PUBCHEM_CACTVS_TAUTO_COUNT>  (1) 
2

>  <PUBCHEM_CONFORMER_ID>  (1) 
0000958F00000001

>  <PUBCHEM_MMFF94_ENERGY>  (1) 
45.6638

>  <PUBCHEM_FEATURE_SELFOVERLAP>  (1) 
50.853

>  <PUBCHEM_SHAPE_FINGERPRINT>  (1) 
10165383 225 17828791459463233973
1100329 8 16249410960929884032
11221954 11 18342448240536697936
11595378 159 17676770975803781258
11725454 13 18199450130389041670
12596602 18 15576155063542454301
12769317 202 17541093169761855829
12788726 201 17606135114973062163
13134695 92 17416697851885091166
13294875 104 18046619010787677490
13402501 40 18341894073907863700
13726171 33 18192451842549215560
14468879 13 18270387395224461945
15295992 7 18266180539093004707
17974551 9 18044904988382165890
18219364 16 17988650764979977890
19049666 15 18340214011476619974
21315764 371 13698451999227785177
21421861 104 16387924807531146347
21475661 188 18268138756433132557
21524375 3 18046913667351244703
23559900 14 18261972798314635086
238 59 17346305003876188240
2803657 2 16466990035579514884
3187 122 17974283523849136195
3524813 1 18340497693955478326
508706 21 18410292531765628302
54672768 99 18340486669202418276
59025328 239 16124434018550124118
6049 1 18199208298176874238
621550 5 17477544945093016918
7226269 152 17978516334843282230
7808743 9 18115046154985239420
81228 2 18189347921138847891
84936 182 17614282165554204125
90316 7 18043812211147097027
9862522 239 17842541114730712936

>  <PUBCHEM_SHAPE_MULTIPOLES>  (1) 
424.29
7.44
4.15
1.97
3.65
0.75
-0.06
4.61
1.65
-2.85
-0.32
1.79
-0.1
3.59

>  <PUBCHEM_SHAPE_SELFOVERLAP>  (1) 
886.969

>  <PUBCHEM_SHAPE_VOLUME>  (1) 
244.5

>  <PUBCHEM_COORDINATE_TYPE>  (1) 
2
5
10

$$$$
