38294
     RDKit          3D

 12 12  0  0  0  0  0  0  0  0999 V2000
    3.1854   -0.9322    0.0019 Br  0  0  0  0  0  0  0  0  0  0  0  0
    2.3383    2.3204    0.0008 Br  0  0  0  0  0  0  0  0  0  0  0  0
   -3.2205    0.7693    0.0018 Br  0  0  0  0  0  0  0  0  0  0  0  0
   -0.8901    3.1659    0.0010 Br  0  0  0  0  0  0  0  0  0  0  0  0
   -2.1640   -2.3031    0.0007 Cl  0  0  0  0  0  0  0  0  0  0  0  0
    0.3698   -1.3768   -0.0009 C   0  0  0  0  0  0  0  0  0  0  0  0
    1.3487   -0.3830   -0.0012 C   0  0  0  0  0  0  0  0  0  0  0  0
   -0.9802   -1.0262   -0.0008 C   0  0  0  0  0  0  0  0  0  0  0  0
    0.9775    0.9616   -0.0014 C   0  0  0  0  0  0  0  0  0  0  0  0
   -1.3514    0.3184   -0.0012 C   0  0  0  0  0  0  0  0  0  0  0  0
   -0.3727    1.3123   -0.0014 C   0  0  0  0  0  0  0  0  0  0  0  0
    0.7591   -2.8268    0.0007 C   0  0  0  0  0  0  0  0  0  0  0  0
  1  7  1  0
  2  9  1  0
  3 10  1  0
  4 11  1  0
  5  8  1  0
  6  7  2  0
  6  8  1  0
  6 12  1  0
  7  9  1  0
  8 10  2  0
  9 11  2  0
 10 11  1  0
M  END
>  <PUBCHEM_COMPOUND_CID>  (1) 
38294

>  <PUBCHEM_CONFORMER_RMSD>  (1) 
0.4

>  <PUBCHEM_CONFORMER_DIVERSEORDER>  (1) 
1

>  <PUBCHEM_MMFF94_PARTIAL_CHARGES>  (1) 
12
1 -0.11
10 0.11
11 0.11
12 0.14
2 -0.11
3 -0.11
4 -0.11
5 -0.18
6 -0.14
7 0.11
8 0.18
9 0.11

>  <PUBCHEM_EFFECTIVE_ROTOR_COUNT>  (1) 
0

>  <PUBCHEM_PHARMACOPHORE_FEATURES>  (1) 
5
1 1 hydrophobe
1 2 hydrophobe
1 3 hydrophobe
1 4 hydrophobe
6 6 7 8 9 10 11 rings

>  <PUBCHEM_HEAVY_ATOM_COUNT>  (1) 
12

>  <PUBCHEM_ATOM_DEF_STEREO_COUNT>  (1) 
0

>  <PUBCHEM_ATOM_UDEF_STEREO_COUNT>  (1) 
0

>  <PUBCHEM_BOND_DEF_STEREO_COUNT>  (1) 
0

>  <PUBCHEM_BOND_UDEF_STEREO_COUNT>  (1) 
0

>  <PUBCHEM_ISOTOPIC_ATOM_COUNT>  (1) 
0

>  <PUBCHEM_COMPONENT_COUNT>  (1) 
1

>  <PUBCHEM_CACTVS_TAUTO_COUNT>  (1) 
1

>  <PUBCHEM_CONFORMER_ID>  (1) 
0000959600000001

>  <PUBCHEM_MMFF94_ENERGY>  (1) 
41.2174

>  <PUBCHEM_FEATURE_SELFOVERLAP>  (1) 
25.374

>  <PUBCHEM_SHAPE_FINGERPRINT>  (1) 
10967382 1 18410575041734615397
11206711 2 18193841439955651141
12423570 1 16537072910928555051
13140716 1 18410293639751159250
16945 1 18338517421910968486
193761 8 18338516472728457828
20588541 1 18339082570951176239
21501502 16 18338797943410220686
2334 1 18266741478938122596
23402539 116 18125424337596738894
23526114 1 18338797943404926501
23552423 10 18262517116905043582
23559900 14 18342745105383433454
241688 4 17474107600928800217
2748010 2 18338799042911273038
53812653 166 17982162323531622392

>  <PUBCHEM_SHAPE_MULTIPOLES>  (1) 
272.59
4.14
3.77
0.66
0.12
0.69
0
0.04
0
-0.14
0
0
0.05
0

>  <PUBCHEM_SHAPE_SELFOVERLAP>  (1) 
502.044

>  <PUBCHEM_SHAPE_VOLUME>  (1) 
175.9

>  <PUBCHEM_COORDINATE_TYPE>  (1) 
2
5
10

$$$$
