38293
     RDKit          3D

 11 11  0  0  0  0  0  0  0  0999 V2000
    0.0447    1.0440    0.0007 S   0  0  0  0  0  0  0  0  0  0  0  0
   -2.8891    1.5126    0.0016 O   0  0  0  0  0  0  0  0  0  0  0  0
    3.5120   -0.6589    0.0011 O   0  0  0  0  0  0  0  0  0  0  0  0
    2.9075    1.4514   -0.0020 O   0  0  0  0  0  0  0  0  0  0  0  0
    2.6083    0.2239   -0.0006 N   0  0  0  0  0  0  0  0  0  0  0  0
   -1.1991   -0.1329    0.0025 C   0  0  0  0  0  0  0  0  0  0  0  0
   -0.6971   -1.4156    0.0018 C   0  0  0  0  0  0  0  0  0  0  0  0
    1.2602   -0.1623   -0.0011 C   0  0  0  0  0  0  0  0  0  0  0  0
    0.7276   -1.4328   -0.0002 C   0  0  0  0  0  0  0  0  0  0  0  0
   -2.5607    0.2944    0.0001 C   0  0  0  0  0  0  0  0  0  0  0  0
   -3.7144   -0.7238   -0.0039 C   0  0  0  0  0  0  0  0  0  0  0  0
  1  6  1  0
  1  8  1  0
  2 10  2  0
  3  5  1  0
  4  5  2  0
  5  8  1  0
  6  7  2  0
  6 10  1  0
  7  9  1  0
  8  9  2  0
 10 11  1  0
M  CHG  2   3  -1   5   1
M  END
>  <PUBCHEM_COMPOUND_CID>  (1) 
38293

>  <PUBCHEM_CONFORMER_RMSD>  (1) 
0.4

>  <PUBCHEM_CONFORMER_DIVERSEORDER>  (1) 
1
3
2
4

>  <PUBCHEM_MMFF94_PARTIAL_CHARGES>  (1) 
13
1 -0.08
10 0.59
11 0.06
12 0.15
13 0.15
2 -0.57
3 -0.52
4 -0.52
5 0.96
6 -0.05
7 -0.15
8 0.12
9 -0.15

>  <PUBCHEM_EFFECTIVE_ROTOR_COUNT>  (1) 
2

>  <PUBCHEM_PHARMACOPHORE_FEATURES>  (1) 
5
1 2 acceptor
1 3 acceptor
1 3 anion
1 4 acceptor
5 1 6 7 8 9 rings

>  <PUBCHEM_HEAVY_ATOM_COUNT>  (1) 
11

>  <PUBCHEM_ATOM_DEF_STEREO_COUNT>  (1) 
0

>  <PUBCHEM_ATOM_UDEF_STEREO_COUNT>  (1) 
0

>  <PUBCHEM_BOND_DEF_STEREO_COUNT>  (1) 
0

>  <PUBCHEM_BOND_UDEF_STEREO_COUNT>  (1) 
0

>  <PUBCHEM_ISOTOPIC_ATOM_COUNT>  (1) 
0

>  <PUBCHEM_COMPONENT_COUNT>  (1) 
1

>  <PUBCHEM_CACTVS_TAUTO_COUNT>  (1) 
2

>  <PUBCHEM_CONFORMER_ID>  (1) 
0000959500000001

>  <PUBCHEM_MMFF94_ENERGY>  (1) 
19.3029

>  <PUBCHEM_FEATURE_SELFOVERLAP>  (1) 
25.453

>  <PUBCHEM_SHAPE_FINGERPRINT>  (1) 
10219947 1 18333452057862482749
10608611 8 18410571777644087349
12032990 46 18410863156746804319
12932764 1 17131822171192162511
13380535 76 18410572898530617138
14325111 11 18410856563977058817
14390081 3 18411699872416147417
14993402 34 18187649132201541095
16945 1 18410575123550049059
18186145 218 18272658921780817300
193761 8 17545882624889446692
20281407 28 9079116669699681710
21028194 46 18411140242229703370
21040471 1 18410574002347313474
23235685 24 18410851066397716993
23402539 116 18201428181914100631
23402655 69 18196918995500097093
23463225 33 18335417933255919354
23552423 10 18265333893965532475
2748010 2 18194966472368452022
5084963 1 18273215330720326721

>  <PUBCHEM_SHAPE_MULTIPOLES>  (1) 
207.64
5.56
1.53
0.59
0.01
0.07
0
0.57
0
0.03
0
0.06
-0.01
0

>  <PUBCHEM_SHAPE_SELFOVERLAP>  (1) 
417.136

>  <PUBCHEM_SHAPE_VOLUME>  (1) 
123.2

>  <PUBCHEM_COORDINATE_TYPE>  (1) 
2
5
10

$$$$
