38305
     RDKit          3D

 24 26  0  0  1  0  0  0  0  0999 V2000
   -5.0367   -1.4803   -1.0520 O   0  0  0  0  0  0  0  0  0  0  0  0
   -1.8873    2.2554   -0.4016 O   0  0  0  0  0  0  0  0  0  0  0  0
    1.5746    3.0580    1.1892 O   0  0  0  0  0  0  0  0  0  0  0  0
    2.4167   -2.1251    1.4658 O   0  0  0  0  0  0  0  0  0  0  0  0
    0.9415   -2.5407   -0.2518 O   0  0  0  0  0  0  0  0  0  0  0  0
    1.0487    0.8530    0.4531 N   0  0  0  0  0  0  0  0  0  0  0  0
   -3.2138    0.3927    0.0008 N   0  0  0  0  0  0  0  0  0  0  0  0
   -1.1461    0.7720    1.2927 C   0  0  0  0  0  0  0  0  0  0  0  0
   -0.0258   -0.0826    0.7300 C   0  0  0  0  0  0  0  0  0  0  0  0
   -0.4350    1.9635    1.9110 C   0  0  0  0  0  0  0  0  0  0  0  0
   -2.1105    1.2143    0.2215 C   0  0  0  0  0  0  0  0  0  0  0  0
    0.8583    2.0684    1.1334 C   0  0  0  0  0  0  0  0  0  0  0  0
   -3.5079   -0.8494    0.7230 C   0  0  0  0  0  0  0  0  0  0  0  0
   -4.2649    0.8116   -0.9265 C   0  0  0  0  0  0  0  0  0  0  0  0
    2.1740    0.4977   -0.3506 C   0  0  0  0  0  0  0  0  0  0  0  0
   -3.9424   -1.9362   -0.2524 C   0  0  0  0  0  0  0  0  0  0  0  0
   -4.6623   -0.3435   -1.8344 C   0  0  0  0  0  0  0  0  0  0  0  0
    2.5904   -0.8324   -0.4705 C   0  0  0  0  0  0  0  0  0  0  0  0
    2.8727    1.5006   -1.0309 C   0  0  0  0  0  0  0  0  0  0  0  0
    3.6928   -1.1558   -1.2616 C   0  0  0  0  0  0  0  0  0  0  0  0
    3.9751    1.1772   -1.8221 C   0  0  0  0  0  0  0  0  0  0  0  0
    4.3851   -0.1510   -1.9374 C   0  0  0  0  0  0  0  0  0  0  0  0
    1.8904   -1.9065    0.2233 C   0  0  0  0  0  0  0  0  0  0  0  0
    1.8125   -3.1608    2.2481 C   0  0  0  0  0  0  0  0  0  0  0  0
  1 16  1  0
  1 17  1  0
  2 11  2  0
  3 12  2  0
  4 23  1  0
  4 24  1  0
  5 23  2  0
  6  9  1  0
  6 12  1  0
  6 15  1  0
  7 11  1  0
  7 13  1  0
  7 14  1  0
  8  9  1  0
  8 10  1  0
  8 11  1  0
 10 12  1  0
 13 16  1  0
 14 17  1  0
 15 18  2  0
 15 19  1  0
 18 20  1  0
 18 23  1  0
 19 21  2  0
 20 22  2  0
 21 22  1  0
M  END
>  <PUBCHEM_COMPOUND_CID>  (1) 
38305

>  <PUBCHEM_CONFORMER_RMSD>  (1) 
0.8

>  <PUBCHEM_CONFORMER_DIVERSEORDER>  (1) 
2
74
100
16
134
54
114
127
84
132
123
18
99
17
133
110
21
81
45
121
111
89
105
61
26
94
48
11
98
50
135
83
118
115
44
6
108
119
79
4
43
88
71
92
52
80
112
128
103
68
69
95
124
12
73
75
97
107
30
33
113
109
77
60
42
37
87
28
63
82
34
65
126
102
129
106
39
24
5
93
47
90
78
64
31
67
70
36
40
117
91
116
25
85
122
86
15
20
101
49
1
56
10
104
96
41
32
51
131
9
29
62
57
8
19
38
72
59
76
53
22
23
14
125
66
46
13
120
27
3
55
58
7
35
130

>  <PUBCHEM_MMFF94_PARTIAL_CHARGES>  (1) 
28
1 -0.56
10 0.06
11 0.57
12 0.57
13 0.3
14 0.3
15 0.12
16 0.28
17 0.28
18 0.09
19 -0.15
2 -0.57
20 -0.15
21 -0.15
22 -0.15
23 0.63
24 0.28
3 -0.57
38 0.15
39 0.15
4 -0.43
40 0.15
41 0.15
5 -0.57
6 -0.48
7 -0.66
8 0.06
9 0.3

>  <PUBCHEM_EFFECTIVE_ROTOR_COUNT>  (1) 
7

>  <PUBCHEM_PHARMACOPHORE_FEATURES>  (1) 
7
1 1 acceptor
1 2 acceptor
1 3 acceptor
1 5 acceptor
5 6 8 9 10 12 rings
6 1 7 13 14 16 17 rings
6 15 18 19 20 21 22 rings

>  <PUBCHEM_HEAVY_ATOM_COUNT>  (1) 
24

>  <PUBCHEM_ATOM_DEF_STEREO_COUNT>  (1) 
0

>  <PUBCHEM_ATOM_UDEF_STEREO_COUNT>  (1) 
1

>  <PUBCHEM_BOND_DEF_STEREO_COUNT>  (1) 
0

>  <PUBCHEM_BOND_UDEF_STEREO_COUNT>  (1) 
0

>  <PUBCHEM_ISOTOPIC_ATOM_COUNT>  (1) 
0

>  <PUBCHEM_COMPONENT_COUNT>  (1) 
1

>  <PUBCHEM_CACTVS_TAUTO_COUNT>  (1) 
2

>  <PUBCHEM_CONFORMER_ID>  (1) 
000095A100000002

>  <PUBCHEM_MMFF94_ENERGY>  (1) 
83.8636

>  <PUBCHEM_FEATURE_SELFOVERLAP>  (1) 
35.524

>  <PUBCHEM_SHAPE_FINGERPRINT>  (1) 
10759866 29 18187082845080350703
11069576 57 18264190436043181759
11370993 70 17749395909283706198
11578080 2 18122322611559738128
11582403 64 16009590342561564868
11725454 13 15647339701008228332
12553582 1 18201722812861033011
12707595 3 17989483026578395605
12788726 201 17986119496145414689
12892183 10 10447923958326928965
13004483 165 16307374001664398922
13009979 54 17980199682565512722
14787075 74 18271252724325075056
15848702 105 18337120054786888502
16752209 62 17774157886399140621
17492 54 18339935929560750086
20626108 58 17972579022948866746
20645477 70 17916574479555659541
20739085 24 9943532907922159638
20775438 99 17342349107105970751
21033648 29 12829777383226675636
22182313 1 17977953710689515161
22393880 68 18410012121877562221
235170 7 17240202149202598591
23557571 272 17558537015872088850
23559900 14 18042668551497776939
23596394 208 18337380626136475749
238 59 18334863856604574962
2838139 119 16733275663370190644
2871803 45 18410859892655750333
312425 83 17168693121225021935
3323516 105 18341898557890221745
3472631 163 15357977901933221431
404807 78 17171245324232658347
5895379 119 16807824595663264253
6669772 16 17914609703927454264
6786 2 14760372583308032994
7471813 234 17972030341330587010
7970288 3 17489593354865868527
960060 61 18411129256347029965

>  <PUBCHEM_SHAPE_MULTIPOLES>  (1) 
454.6
8.99
3.1
1.98
7.07
0.83
0.19
2.27
-6.8
-1.27
1.73
-0.78
0.15
-1.18

>  <PUBCHEM_SHAPE_SELFOVERLAP>  (1) 
969.871

>  <PUBCHEM_SHAPE_VOLUME>  (1) 
250.4

>  <PUBCHEM_COORDINATE_TYPE>  (1) 
2
5
10

$$$$
