38300
     RDKit          3D

 16 16  0  0  0  0  0  0  0  0999 V2000
    1.3346    0.0929   -2.3969 S   0  0  0  0  0  0  0  0  0  0  0  0
    1.4782    0.0118   -0.4535 P   0  0  0  0  0  0  0  0  0  0  0  0
   -5.0504    0.1994   -0.0659 F   0  0  0  0  0  0  0  0  0  0  0  0
    2.7784   -0.7754    0.1312 O   0  0  0  0  0  0  0  0  0  0  0  0
    1.5871    1.4245    0.3464 O   0  0  0  0  0  0  0  0  0  0  0  0
    0.2791   -0.7356    0.3415 O   0  0  0  0  0  0  0  0  0  0  0  0
   -3.3257   -1.2729    0.3316 N   0  0  0  0  0  0  0  0  0  0  0  0
    2.8967   -2.1762   -0.0524 C   0  0  0  0  0  0  0  0  0  0  0  0
    2.5469    2.3879   -0.0531 C   0  0  0  0  0  0  0  0  0  0  0  0
   -1.0592   -0.4698    0.2325 C   0  0  0  0  0  0  0  0  0  0  0  0
    4.1868   -2.6495    0.5827 C   0  0  0  0  0  0  0  0  0  0  0  0
    2.4363    3.5979    0.8497 C   0  0  0  0  0  0  0  0  0  0  0  0
   -1.5010    0.8056   -0.0730 C   0  0  0  0  0  0  0  0  0  0  0  0
   -1.9912   -1.4678    0.4249 C   0  0  0  0  0  0  0  0  0  0  0  0
   -2.8666    1.0455   -0.1776 C   0  0  0  0  0  0  0  0  0  0  0  0
   -3.7298   -0.0180    0.0321 C   0  0  0  0  0  0  0  0  0  0  0  0
  1  2  2  0
  2  4  1  0
  2  5  1  0
  2  6  1  0
  3 16  1  0
  4  8  1  0
  5  9  1  0
  6 10  1  0
  7 14  2  0
  7 16  1  0
  8 11  1  0
  9 12  1  0
 10 13  2  0
 10 14  1  0
 13 15  1  0
 15 16  2  0
M  END
>  <PUBCHEM_COMPOUND_CID>  (1) 
38300

>  <PUBCHEM_CONFORMER_RMSD>  (1) 
0.8

>  <PUBCHEM_CONFORMER_DIVERSEORDER>  (1) 
2
24
18
25
8
19
12
30
43
35
40
21
41
22
34
15
10
17
4
1
23
9
3
36
46
31
11
14
7
39
28
33
42
44
26
20
13
16
5
32
6
27
45
29
37
38

>  <PUBCHEM_MMFF94_PARTIAL_CHARGES>  (1) 
17
1 -0.68
10 0.08
13 -0.15
14 0.16
15 -0.15
16 0.5
2 1.49
27 0.15
28 0.15
29 0.15
3 -0.19
4 -0.55
5 -0.55
6 -0.35
7 -0.62
8 0.28
9 0.28

>  <PUBCHEM_EFFECTIVE_ROTOR_COUNT>  (1) 
6

>  <PUBCHEM_PHARMACOPHORE_FEATURES>  (1) 
2
1 7 acceptor
6 7 10 13 14 15 16 rings

>  <PUBCHEM_HEAVY_ATOM_COUNT>  (1) 
16

>  <PUBCHEM_ATOM_DEF_STEREO_COUNT>  (1) 
0

>  <PUBCHEM_ATOM_UDEF_STEREO_COUNT>  (1) 
0

>  <PUBCHEM_BOND_DEF_STEREO_COUNT>  (1) 
0

>  <PUBCHEM_BOND_UDEF_STEREO_COUNT>  (1) 
0

>  <PUBCHEM_ISOTOPIC_ATOM_COUNT>  (1) 
0

>  <PUBCHEM_COMPONENT_COUNT>  (1) 
1

>  <PUBCHEM_CACTVS_TAUTO_COUNT>  (1) 
1

>  <PUBCHEM_CONFORMER_ID>  (1) 
0000959C00000002

>  <PUBCHEM_MMFF94_ENERGY>  (1) 
21.9837

>  <PUBCHEM_FEATURE_SELFOVERLAP>  (1) 
10.148

>  <PUBCHEM_SHAPE_FINGERPRINT>  (1) 
10465860 250 18265609880090115994
10608611 8 18409445920929653729
12403259 226 18334852767168023197
12507560 14 18271240513152628510
12932764 1 18266761218935135567
13134695 92 18339635651428272484
14866123 147 16754374913154742690
15295992 7 18262253144210137249
15442244 35 18339364050301975704
17041 49 18270690744348376184
17804303 29 18261395477415984559
17841504 4 18410855443291184018
17980427 23 17489021540115661528
19591789 44 15963161891978099264
19786989 88 17703241731317333541
20369508 70 18411139112753778334
20645477 70 18202289134110548239
20671657 1 18412829113781283024
20671657 53 18269840822144818386
21524375 3 17626952228925737024
23419403 2 18043506383959006516
23557571 272 15984550996594909129
23559900 14 18411693288046816026
3248919 1 17203343207929967235
3286 77 18336265652399509517
5104073 3 18410019857910208787
7364860 26 18411138060824128032
77188 2 18267302033122875008
81228 2 17482007635425320480
81539 233 18126571343279088956
9709674 26 18335421317637836619
9981440 41 17905321076502683384

>  <PUBCHEM_SHAPE_MULTIPOLES>  (1) 
307.11
7.61
3.15
1.18
5.41
2.01
1
-2.48
-1.13
-5.02
-1.25
-0.8
0.14
0.24

>  <PUBCHEM_SHAPE_SELFOVERLAP>  (1) 
587.186

>  <PUBCHEM_SHAPE_VOLUME>  (1) 
190.5

>  <PUBCHEM_COORDINATE_TYPE>  (1) 
2
5
10

$$$$
