38307
     RDKit          3D

  9  8  0  0  0  0  0  0  0  0999 V2000
    1.5945    1.4478   -0.8137 Cl  0  0  0  0  0  0  0  0  0  0  0  0
   -1.5945   -1.4476   -0.8137 Cl  0  0  0  0  0  0  0  0  0  0  0  0
    0.0000    0.0001    0.7422 O   0  0  0  0  0  0  0  0  0  0  0  0
    1.2621   -0.0730    0.0768 C   0  0  0  0  0  0  0  0  0  0  0  0
   -1.2621    0.0730    0.0768 C   0  0  0  0  0  0  0  0  0  0  0  0
    1.4698   -1.2747   -0.8438 C   0  0  0  0  0  0  0  0  0  0  0  0
    2.2956   -0.1494    1.2096 C   0  0  0  0  0  0  0  0  0  0  0  0
   -1.4697    1.2747   -0.8437 C   0  0  0  0  0  0  0  0  0  0  0  0
   -2.2957    0.1492    1.2095 C   0  0  0  0  0  0  0  0  0  0  0  0
  1  4  1  0
  2  5  1  0
  3  4  1  0
  3  5  1  0
  4  6  1  0
  4  7  1  0
  5  8  1  0
  5  9  1  0
M  END
>  <PUBCHEM_COMPOUND_CID>  (1) 
38307

>  <PUBCHEM_CONFORMER_RMSD>  (1) 
0.4

>  <PUBCHEM_CONFORMER_DIVERSEORDER>  (1) 
1
2

>  <PUBCHEM_MMFF94_PARTIAL_CHARGES>  (1) 
5
1 -0.29
2 -0.29
3 -0.56
4 0.57
5 0.57

>  <PUBCHEM_EFFECTIVE_ROTOR_COUNT>  (1) 
2

>  <PUBCHEM_PHARMACOPHORE_FEATURES>  (1) 
3
1 3 acceptor
3 4 6 7 hydrophobe
3 5 8 9 hydrophobe

>  <PUBCHEM_HEAVY_ATOM_COUNT>  (1) 
9

>  <PUBCHEM_ATOM_DEF_STEREO_COUNT>  (1) 
0

>  <PUBCHEM_ATOM_UDEF_STEREO_COUNT>  (1) 
0

>  <PUBCHEM_BOND_DEF_STEREO_COUNT>  (1) 
0

>  <PUBCHEM_BOND_UDEF_STEREO_COUNT>  (1) 
0

>  <PUBCHEM_ISOTOPIC_ATOM_COUNT>  (1) 
0

>  <PUBCHEM_COMPONENT_COUNT>  (1) 
1

>  <PUBCHEM_CACTVS_TAUTO_COUNT>  (1) 
1

>  <PUBCHEM_CONFORMER_ID>  (1) 
000095A300000001

>  <PUBCHEM_MMFF94_ENERGY>  (1) 
31.0482

>  <PUBCHEM_FEATURE_SELFOVERLAP>  (1) 
15.223

>  <PUBCHEM_SHAPE_FINGERPRINT>  (1) 
12932764 1 18409160005061851554
15310529 11 17896622616555663102
20082192 1 18412262830716747789
20653091 64 16298390149814623720
21040471 1 17846790580562884795
21922407 69 17896027905197631994
23235687 12 18410575106143196649
23552423 10 18342181071990951695
24536 1 18131631179435164996
29004967 10 18335989657790453874
369184 2 17458620133764654785
5084963 1 18341037618747630642

>  <PUBCHEM_SHAPE_MULTIPOLES>  (1) 
183.09
3.27
1.5
1.31
0
0
-0.2
0
-0.62
0
0.69
0
0
-0.23

>  <PUBCHEM_SHAPE_SELFOVERLAP>  (1) 
320.889

>  <PUBCHEM_SHAPE_VOLUME>  (1) 
122.9

>  <PUBCHEM_COORDINATE_TYPE>  (1) 
2
5
10

$$$$
