38315
     RDKit          3D

 13 13  0  0  0  0  0  0  0  0999 V2000
    3.7407    1.0850    0.4157 O   0  0  0  0  0  0  0  0  0  0  0  0
    3.7294   -1.1103    0.4149 O   0  0  0  0  0  0  0  0  0  0  0  0
    3.1419   -0.0096    0.2811 N   0  0  0  0  0  0  0  0  0  0  0  0
   -3.6785   -1.1934    0.7760 N   0  0  0  0  0  0  0  0  0  0  0  0
   -3.6018    1.1560    0.8355 N   0  0  0  0  0  0  0  0  0  0  0  0
   -0.9646    0.0121   -0.6450 C   0  0  0  0  0  0  0  0  0  0  0  0
   -2.4196    0.0195   -0.9720 C   0  0  0  0  0  0  0  0  0  0  0  0
   -0.2780    1.2164   -0.4914 C   0  0  0  0  0  0  0  0  0  0  0  0
   -0.2906   -1.1996   -0.4921 C   0  0  0  0  0  0  0  0  0  0  0  0
    1.7570   -0.0024   -0.0320 C   0  0  0  0  0  0  0  0  0  0  0  0
    1.0827    1.2092   -0.1850 C   0  0  0  0  0  0  0  0  0  0  0  0
    1.0703   -1.2069   -0.1855 C   0  0  0  0  0  0  0  0  0  0  0  0
   -3.2890    0.0240    0.2798 C   0  0  0  0  0  0  0  0  0  0  0  0
  1  3  1  0
  2  3  2  0
  3 10  1  0
  4 13  1  0
  5 13  2  0
  6  7  1  0
  6  8  2  0
  6  9  1  0
  7 13  1  0
  8 11  1  0
  9 12  2  0
 10 11  2  0
 10 12  1  0
M  CHG  2   1  -1   3   1
M  END
>  <PUBCHEM_COMPOUND_CID>  (1) 
38315

>  <PUBCHEM_CONFORMER_RMSD>  (1) 
0.6

>  <PUBCHEM_CONFORMER_DIVERSEORDER>  (1) 
1
3
2

>  <PUBCHEM_MMFF94_PARTIAL_CHARGES>  (1) 
20
1 -0.52
10 0.13
11 -0.15
12 -0.15
13 0.44
16 0.15
17 0.15
18 0.15
19 0.15
2 -0.52
20 0.4
21 0.4
22 0.4
3 0.91
4 -0.85
5 -0.85
6 -0.14
7 0.2
8 -0.15
9 -0.15

>  <PUBCHEM_EFFECTIVE_ROTOR_COUNT>  (1) 
3

>  <PUBCHEM_PHARMACOPHORE_FEATURES>  (1) 
7
1 1 acceptor
1 1 anion
1 2 acceptor
1 4 donor
1 5 donor
3 4 5 13 cation
6 6 8 9 10 11 12 rings

>  <PUBCHEM_HEAVY_ATOM_COUNT>  (1) 
13

>  <PUBCHEM_ATOM_DEF_STEREO_COUNT>  (1) 
0

>  <PUBCHEM_ATOM_UDEF_STEREO_COUNT>  (1) 
0

>  <PUBCHEM_BOND_DEF_STEREO_COUNT>  (1) 
0

>  <PUBCHEM_BOND_UDEF_STEREO_COUNT>  (1) 
0

>  <PUBCHEM_ISOTOPIC_ATOM_COUNT>  (1) 
0

>  <PUBCHEM_COMPONENT_COUNT>  (1) 
1

>  <PUBCHEM_CACTVS_TAUTO_COUNT>  (1) 
1

>  <PUBCHEM_CONFORMER_ID>  (1) 
000095AB00000001

>  <PUBCHEM_MMFF94_ENERGY>  (1) 
36.1947

>  <PUBCHEM_FEATURE_SELFOVERLAP>  (1) 
35.642

>  <PUBCHEM_SHAPE_FINGERPRINT>  (1) 
10219947 1 18410007736737019244
11132069 177 18259981587061612475
11471102 22 18335433390932752227
11769659 78 16009016264068155714
12032990 46 18334295340537256726
12251169 10 18409173237956433995
12382932 28 18411985724149051673
13705890 14 11818998486831911200
14325111 11 18412541020133232372
15309172 13 18341889692925034583
15775835 57 17418377974139505737
16945 1 18410284813688298460
17844478 74 17967527952319361836
18186145 218 18131346423520405612
19026448 4 16370997486644121524
19026448 5 16415189100932086236
19422 9 18259991491219208893
200 152 18271795874684847695
20279233 1 17967529048084583407
20281407 28 17385439908221372599
20645477 70 18265878199149560726
20671657 53 12540699219027234935
20871999 31 7925625571547784257
21061003 4 18187081741531841861
21119208 17 11097848610336760395
21256008 23 18412830204507764904
21501925 9 18261113023497771799
22485316 2 17530677710622616067
23463225 33 18407758140389301860
25 1 11239736157832156047
2748010 2 18051119307647936124

>  <PUBCHEM_SHAPE_MULTIPOLES>  (1) 
240.85
6.61
1.41
0.86
0.15
0.01
0.05
0.07
-2.28
0.14
-0.06
-0.49
-0.01
0

>  <PUBCHEM_SHAPE_SELFOVERLAP>  (1) 
500.565

>  <PUBCHEM_SHAPE_VOLUME>  (1) 
137.8

>  <PUBCHEM_COORDINATE_TYPE>  (1) 
2
5
10

$$$$
