38311
     RDKit          3D

 23 24  0  0  0  0  0  0  0  0999 V2000
   -5.2520    4.7521    0.6127 Br  0  0  0  0  0  0  0  0  0  0  0  0
   -4.4045   -5.1056   -0.9303 Br  0  0  0  0  0  0  0  0  0  0  0  0
   -3.1245   -0.0636   -0.0025 N   0  0  0  0  0  0  0  0  0  0  0  0
    2.4300    0.3794    0.5429 N   0  0  0  0  0  0  0  0  0  0  0  0
    3.0019   -0.2105   -0.4037 N   0  0  0  0  0  0  0  0  0  0  0  0
   -3.8702    0.9575   -0.7409 C   0  0  0  0  0  0  0  0  0  0  0  0
   -3.8536   -1.1628    0.5831 C   0  0  0  0  0  0  0  0  0  0  0  0
   -4.1625    2.1622    0.1492 C   0  0  0  0  0  0  0  0  0  0  0  0
   -3.7910   -2.3932   -0.3174 C   0  0  0  0  0  0  0  0  0  0  0  0
   -1.7335    0.0471    0.1342 C   0  0  0  0  0  0  0  0  0  0  0  0
   -1.0154   -0.9175    0.8495 C   0  0  0  0  0  0  0  0  0  0  0  0
   -1.0509    1.1231   -0.4438 C   0  0  0  0  0  0  0  0  0  0  0  0
   -4.9767    3.2280   -0.5692 C   0  0  0  0  0  0  0  0  0  0  0  0
   -4.5868   -3.5620    0.2441 C   0  0  0  0  0  0  0  0  0  0  0  0
    0.3685   -0.8071    0.9856 C   0  0  0  0  0  0  0  0  0  0  0  0
    0.3330    1.2332   -0.3078 C   0  0  0  0  0  0  0  0  0  0  0  0
    1.0426    0.2681    0.4068 C   0  0  0  0  0  0  0  0  0  0  0  0
    4.3962   -0.0987   -0.2674 C   0  0  0  0  0  0  0  0  0  0  0  0
    5.0997   -1.0638    0.4464 C   0  0  0  0  0  0  0  0  0  0  0  0
    5.0629    0.9765   -0.8470 C   0  0  0  0  0  0  0  0  0  0  0  0
    6.4834   -0.9527    0.5825 C   0  0  0  0  0  0  0  0  0  0  0  0
    6.4467    1.0875   -0.7110 C   0  0  0  0  0  0  0  0  0  0  0  0
    7.1569    0.1228    0.0039 C   0  0  0  0  0  0  0  0  0  0  0  0
  1 13  1  0
  2 14  1  0
  3  6  1  0
  3  7  1  0
  3 10  1  0
  4  5  2  0
  4 17  1  0
  5 18  1  0
  6  8  1  0
  7  9  1  0
  8 13  1  0
  9 14  1  0
 10 11  2  0
 10 12  1  0
 11 15  1  0
 12 16  2  0
 15 17  2  0
 16 17  1  0
 18 19  2  0
 18 20  1  0
 19 21  1  0
 20 22  2  0
 21 23  2  0
 22 23  1  0
M  END
>  <PUBCHEM_COMPOUND_CID>  (1) 
38311

>  <PUBCHEM_CONFORMER_RMSD>  (1) 
1

>  <PUBCHEM_CONFORMER_DIVERSEORDER>  (1) 
1
6
20
23
17
18
2
12
9
13
15
11
10
7
22
5
19
14
16
3
4
21
8

>  <PUBCHEM_MMFF94_PARTIAL_CHARGES>  (1) 
30
1 -0.23
10 0.1
11 -0.15
12 -0.15
13 0.23
14 0.23
15 -0.15
16 -0.15
17 0.18
18 0.18
19 -0.15
2 -0.23
20 -0.15
21 -0.15
22 -0.15
23 -0.15
3 -0.84
32 0.15
33 0.15
38 0.15
39 0.15
4 -0.18
40 0.15
41 0.15
42 0.15
43 0.15
44 0.15
5 -0.18
6 0.37
7 0.37

>  <PUBCHEM_EFFECTIVE_ROTOR_COUNT>  (1) 
9

>  <PUBCHEM_PHARMACOPHORE_FEATURES>  (1) 
5
1 1 hydrophobe
1 2 hydrophobe
1 3 cation
6 10 11 12 15 16 17 rings
6 18 19 20 21 22 23 rings

>  <PUBCHEM_HEAVY_ATOM_COUNT>  (1) 
23

>  <PUBCHEM_ATOM_DEF_STEREO_COUNT>  (1) 
0

>  <PUBCHEM_ATOM_UDEF_STEREO_COUNT>  (1) 
0

>  <PUBCHEM_BOND_DEF_STEREO_COUNT>  (1) 
0

>  <PUBCHEM_BOND_UDEF_STEREO_COUNT>  (1) 
0

>  <PUBCHEM_ISOTOPIC_ATOM_COUNT>  (1) 
0

>  <PUBCHEM_COMPONENT_COUNT>  (1) 
1

>  <PUBCHEM_CACTVS_TAUTO_COUNT>  (1) 
1

>  <PUBCHEM_CONFORMER_ID>  (1) 
000095A700000001

>  <PUBCHEM_MMFF94_ENERGY>  (1) 
64.2206

>  <PUBCHEM_FEATURE_SELFOVERLAP>  (1) 
25.371

>  <PUBCHEM_SHAPE_FINGERPRINT>  (1) 
10319688 45 18197780114651915431
10411042 1 18122344846926864331
10595046 47 18261394503070052270
11056379 131 18410854408473506819
11524674 6 16845299388249590175
11796584 16 18341049615050542570
11809386 21 18334850658297376627
12236239 1 18113336406346765040
12616971 3 16443358558850298188
12788726 201 18334846243904219059
12954195 1 18410287030587943487
13167372 99 18261957332807256244
13248334 5 17042323312767356083
13540713 5 17896017894019639227
13690498 29 18338794641145314335
14347332 77 18266179611670186807
14790565 3 17905046950389309569
15183329 4 17967810523140454132
15250474 111 18188474814269803946
15778101 99 18336830792707519897
15876981 60 18333735753664808181
16087824 20 18409446983078487431
17844677 252 18410861005284882128
19427546 20 18408886256784118829
20505436 4 17968373421712381249
21130935 74 18408316680345422458
21236236 1 18260831505407760539
21426921 1 18410293640473884307
220451 1 17894915084172866576
23081809 10 17821450175475860070
23402539 116 18260264153392429278
23522609 53 18050321280997054977
23559900 14 18339915030155507177
25147074 1 17895177875609622451
4015057 19 17532378754032586044
531348 171 18409167688331686819
57634706 229 17986409797612552913
6327066 14 18116991079940292765
6700243 42 17840907171241914205
7495541 125 18271243928358367840
77188 2 17907295808788115895

>  <PUBCHEM_SHAPE_MULTIPOLES>  (1) 
470.27
18.05
5.31
0.94
29.23
2.19
0.01
-2.6
1.45
-18.59
0.7
-0.04
0.1
-1.6

>  <PUBCHEM_SHAPE_SELFOVERLAP>  (1) 
940.909

>  <PUBCHEM_SHAPE_VOLUME>  (1) 
285

>  <PUBCHEM_COORDINATE_TYPE>  (1) 
2
5
10

$$$$
