38316
     RDKit          3D

 14 14  0  0  0  0  0  0  0  0999 V2000
   -5.1366   -0.5312   -0.0583 O   0  0  0  0  0  0  0  0  0  0  0  0
   -3.2904   -1.0838   -1.2585 O   0  0  0  0  0  0  0  0  0  0  0  0
    2.5649    0.5078   -0.1874 N   0  0  0  0  0  0  0  0  0  0  0  0
   -1.5864    0.4171    0.4458 C   0  0  0  0  0  0  0  0  0  0  0  0
    1.1709    0.4770    0.0253 C   0  0  0  0  0  0  0  0  0  0  0  0
   -3.0602    0.3850    0.6703 C   0  0  0  0  0  0  0  0  0  0  0  0
   -0.7645   -0.5185    1.0742 C   0  0  0  0  0  0  0  0  0  0  0  0
   -1.0295    1.3825   -0.3930 C   0  0  0  0  0  0  0  0  0  0  0  0
    0.6142   -0.4886    0.8639 C   0  0  0  0  0  0  0  0  0  0  0  0
    0.3491    1.4124   -0.6033 C   0  0  0  0  0  0  0  0  0  0  0  0
    3.4647   -0.4201    0.4248 C   0  0  0  0  0  0  0  0  0  0  0  0
   -3.8043   -0.4857   -0.3232 C   0  0  0  0  0  0  0  0  0  0  0  0
    4.8584   -0.0999   -0.0106 C   0  0  0  0  0  0  0  0  0  0  0  0
    5.6496   -0.9538   -0.6699 C   0  0  0  0  0  0  0  0  0  0  0  0
  1 12  1  0
  2 12  2  0
  3  5  1  0
  3 11  1  0
  4  6  1  0
  4  7  2  0
  4  8  1  0
  5  9  2  0
  5 10  1  0
  6 12  1  0
  7  9  1  0
  8 10  2  0
 11 13  1  0
 13 14  2  0
M  END
>  <PUBCHEM_COMPOUND_CID>  (1) 
38316

>  <PUBCHEM_CONFORMER_RMSD>  (1) 
0.6

>  <PUBCHEM_CONFORMER_DIVERSEORDER>  (1) 
1
10
42
31
29
3
45
7
16
14
13
32
22
11
9
21
2
27
44
28
24
43
4
35
20
30
8
40
37
6
46
12
15
39
5
34
36
38
41
25
23
26
18
33
19
17

>  <PUBCHEM_MMFF94_PARTIAL_CHARGES>  (1) 
23
1 -0.65
10 -0.15
11 0.51
12 0.66
13 -0.29
14 -0.3
17 0.15
18 0.15
19 0.15
2 -0.57
20 0.15
21 0.4
24 0.15
25 0.15
26 0.15
27 0.5
3 -0.87
4 -0.14
5 0.1
6 0.2
7 -0.15
8 -0.15
9 -0.15

>  <PUBCHEM_EFFECTIVE_ROTOR_COUNT>  (1) 
5

>  <PUBCHEM_PHARMACOPHORE_FEATURES>  (1) 
7
1 1 acceptor
1 14 hydrophobe
1 2 acceptor
1 3 cation
1 3 donor
3 1 2 12 anion
6 4 5 7 8 9 10 rings

>  <PUBCHEM_HEAVY_ATOM_COUNT>  (1) 
14

>  <PUBCHEM_ATOM_DEF_STEREO_COUNT>  (1) 
0

>  <PUBCHEM_ATOM_UDEF_STEREO_COUNT>  (1) 
0

>  <PUBCHEM_BOND_DEF_STEREO_COUNT>  (1) 
0

>  <PUBCHEM_BOND_UDEF_STEREO_COUNT>  (1) 
0

>  <PUBCHEM_ISOTOPIC_ATOM_COUNT>  (1) 
0

>  <PUBCHEM_COMPONENT_COUNT>  (1) 
1

>  <PUBCHEM_CACTVS_TAUTO_COUNT>  (1) 
1

>  <PUBCHEM_CONFORMER_ID>  (1) 
000095AC00000001

>  <PUBCHEM_MMFF94_ENERGY>  (1) 
34.9221

>  <PUBCHEM_FEATURE_SELFOVERLAP>  (1) 
35.578

>  <PUBCHEM_SHAPE_FINGERPRINT>  (1) 
10465860 250 16272209690992772459
106641 1 12319442321069282711
11401426 45 18186796993589435457
12251169 10 12823293511306621488
12670543 26 17676762080910771527
13288520 33 18202284697182471271
13690532 89 18187365441079766736
13760787 5 17967828157659200900
13862211 1 18186516605482226026
14350574 20 17676774266297414755
14911166 2 17603867818590247113
14943859 89 11963389639325463856
14993402 34 17240485810196096400
17834072 33 18131634517352949080
18186145 218 17386278895786393277
187816 3 17530966881975083888
200 152 18411417306517724152
20645476 183 15140967287357909690
20645477 70 16443336521689691762
20871999 31 17313385591533908588
21029758 11 18259985989551303700
21637258 2 17632283580050697807
22224240 67 11672060852972031205
22713019 99 18333449854560246746
23402539 116 18334856087019448380
23402655 69 17895464830975047901
23557571 272 18200880578011073228
23559900 14 17988635358995499888
26918003 58 16128375973519635718
2748010 2 17461735170291324265
2916195 48 7997963553445261862
3286 77 17989485242887437952
3759504 43 15213306351866675482
42 15 16415763011868880436
449060 50 8935003676420698904
5104073 3 12031202015475617166

>  <PUBCHEM_SHAPE_MULTIPOLES>  (1) 
271.39
10.36
1.17
0.97
7.05
0.33
-0.07
-3.81
-2.72
-0.13
-0.14
-0.33
-0.2
-0.17

>  <PUBCHEM_SHAPE_SELFOVERLAP>  (1) 
552.806

>  <PUBCHEM_SHAPE_VOLUME>  (1) 
156.4

>  <PUBCHEM_COORDINATE_TYPE>  (1) 
2
5
10

$$$$
