38310
     RDKit          3D

 25 26  0  0  0  0  0  0  0  0999 V2000
   -0.0028    0.9188    2.6228 O   0  0  0  0  0  0  0  0  0  0  0  0
   -2.2309    0.5951   -0.3969 N   0  0  0  0  0  0  0  0  0  0  0  0
    1.1526    2.6128    1.6246 N   0  0  0  0  0  0  0  0  0  0  0  0
    0.7476    0.5499    0.3000 C   0  0  0  0  0  0  0  0  0  0  0  0
    0.0330    1.4794   -0.7624 C   0  0  0  0  0  0  0  0  0  0  0  0
   -1.4371    1.8200   -0.4563 C   0  0  0  0  0  0  0  0  0  0  0  0
   -3.6188    0.9001   -0.0482 C   0  0  0  0  0  0  0  0  0  0  0  0
   -2.1708   -0.1175   -1.6731 C   0  0  0  0  0  0  0  0  0  0  0  0
    2.2461    0.3384   -0.0708 C   0  0  0  0  0  0  0  0  0  0  0  0
    0.1082   -0.8637    0.4070 C   0  0  0  0  0  0  0  0  0  0  0  0
    0.6068    1.3434    1.6409 C   0  0  0  0  0  0  0  0  0  0  0  0
   -4.4380   -0.3866   -0.0525 C   0  0  0  0  0  0  0  0  0  0  0  0
   -3.6836    1.5867    1.3133 C   0  0  0  0  0  0  0  0  0  0  0  0
   -2.7766    0.7528   -2.7697 C   0  0  0  0  0  0  0  0  0  0  0  0
   -0.7282   -0.4903   -2.0034 C   0  0  0  0  0  0  0  0  0  0  0  0
    3.0150   -0.3800    0.7955 C   0  0  0  0  0  0  0  0  0  0  0  0
    0.6266   -1.8545   -0.3743 C   0  0  0  0  0  0  0  0  0  0  0  0
    2.6908    0.8848   -1.2374 C   0  0  0  0  0  0  0  0  0  0  0  0
   -0.9310   -1.0252    1.2760 C   0  0  0  0  0  0  0  0  0  0  0  0
    4.3564   -0.5696    0.4637 C   0  0  0  0  0  0  0  0  0  0  0  0
    0.0534   -3.1225   -0.2783 C   0  0  0  0  0  0  0  0  0  0  0  0
    4.0323    0.6951   -1.5691 C   0  0  0  0  0  0  0  0  0  0  0  0
   -1.5041   -2.2933    1.3720 C   0  0  0  0  0  0  0  0  0  0  0  0
    4.8650   -0.0322   -0.7186 C   0  0  0  0  0  0  0  0  0  0  0  0
   -1.0119   -3.3419    0.5950 C   0  0  0  0  0  0  0  0  0  0  0  0
  1 11  2  0
  2  6  1  0
  2  7  1  0
  2  8  1  0
  3 11  1  0
  4  5  1  0
  4  9  1  0
  4 10  1  0
  4 11  1  0
  5  6  1  0
  7 12  1  0
  7 13  1  0
  8 14  1  0
  8 15  1  0
  9 16  2  0
  9 18  1  0
 10 17  2  0
 10 19  1  0
 16 20  1  0
 17 21  1  0
 18 22  2  0
 19 23  2  0
 20 24  2  0
 21 25  2  0
 22 24  1  0
 23 25  1  0
M  END
>  <PUBCHEM_COMPOUND_CID>  (1) 
38310

>  <PUBCHEM_CONFORMER_RMSD>  (1) 
0.8

>  <PUBCHEM_CONFORMER_DIVERSEORDER>  (1) 
1
2

>  <PUBCHEM_MMFF94_PARTIAL_CHARGES>  (1) 
32
1 -0.57
10 -0.14
11 0.57
16 -0.15
17 -0.15
18 -0.15
19 -0.15
2 -0.81
20 -0.15
21 -0.15
22 -0.15
23 -0.15
24 -0.15
25 -0.15
3 -0.8
4 0.35
44 0.15
45 0.15
46 0.15
47 0.15
48 0.37
49 0.37
50 0.15
51 0.15
52 0.15
53 0.15
54 0.15
55 0.15
6 0.27
7 0.27
8 0.27
9 -0.14

>  <PUBCHEM_EFFECTIVE_ROTOR_COUNT>  (1) 
8

>  <PUBCHEM_PHARMACOPHORE_FEATURES>  (1) 
7
1 1 acceptor
1 2 cation
1 3 donor
3 7 12 13 hydrophobe
3 8 14 15 hydrophobe
6 10 17 19 21 23 25 rings
6 9 16 18 20 22 24 rings

>  <PUBCHEM_HEAVY_ATOM_COUNT>  (1) 
25

>  <PUBCHEM_ATOM_DEF_STEREO_COUNT>  (1) 
0

>  <PUBCHEM_ATOM_UDEF_STEREO_COUNT>  (1) 
0

>  <PUBCHEM_BOND_DEF_STEREO_COUNT>  (1) 
0

>  <PUBCHEM_BOND_UDEF_STEREO_COUNT>  (1) 
0

>  <PUBCHEM_ISOTOPIC_ATOM_COUNT>  (1) 
0

>  <PUBCHEM_COMPONENT_COUNT>  (1) 
1

>  <PUBCHEM_CACTVS_TAUTO_COUNT>  (1) 
2

>  <PUBCHEM_CONFORMER_ID>  (1) 
000095A600000001

>  <PUBCHEM_MMFF94_ENERGY>  (1) 
198.422

>  <PUBCHEM_FEATURE_SELFOVERLAP>  (1) 
35.52

>  <PUBCHEM_SHAPE_FINGERPRINT>  (1) 
10165383 225 18334022670417511181
10863032 1 18042133200872096710
10948715 1 16588297246416760997
11578080 2 18050575332876541168
12011746 2 18334013921669466519
12035758 1 18340205301124572091
12293681 4 17988937677469558041
12403814 3 17095244739224377877
12592029 89 17895198736360685426
12633257 1 17842309070358877107
12714826 92 18191035697246673370
12715332 25 18335135393053648138
12788726 201 17916878911233145200
13140716 1 18261669398009204936
13149001 5 18199739409548020072
133893 2 17612563671798255047
14251751 93 17022891350672801198
14787075 74 18412547591675820791
15209289 33 18343018891582674497
16752209 62 18338238283824397474
16945 1 18129360666628449277
17349148 13 18267866091125312462
17492 54 17749387126423518783
17980427 23 11747516985632284383
18981168 100 17825648196116271436
20600515 1 18271792550190380192
20691752 17 18195498528659426253
21330990 113 18261127261114118795
22907989 373 18115590503129574094
23227448 37 15865216739177829188
23402539 116 17846775179390423052
23419403 2 17913776294907493602
23559900 14 18412824712426118344
238 59 17826759656590835943
2748010 2 17978777227766315942
298252 57 17603853465205241196
4340502 62 18265635203422761985
5845 1 11403919408599764159
69090 78 17676490553236476348
70251023 43 16986843926913366709
81228 2 17682947053124315019

>  <PUBCHEM_SHAPE_MULTIPOLES>  (1) 
498.66
6.88
2.73
2.1
3.54
2.34
0.1
-1.86
1.38
-1.01
-0.5
-0.77
-0.89
0.09

>  <PUBCHEM_SHAPE_SELFOVERLAP>  (1) 
1066.865

>  <PUBCHEM_SHAPE_VOLUME>  (1) 
274.9

>  <PUBCHEM_COORDINATE_TYPE>  (1) 
2
5
10

$$$$
