38318
     RDKit          3D

 14 14  0  0  0  0  0  0  0  0999 V2000
   -5.1644   -0.5643   -0.0517 O   0  0  0  0  0  0  0  0  0  0  0  0
   -3.3880   -0.6469   -1.4629 O   0  0  0  0  0  0  0  0  0  0  0  0
    2.5129    0.6333   -0.2358 N   0  0  0  0  0  0  0  0  0  0  0  0
    3.4740   -0.4212   -0.0191 C   0  0  0  0  0  0  0  0  0  0  0  0
    1.1573    0.5045    0.0234 C   0  0  0  0  0  0  0  0  0  0  0  0
    4.8847    0.0592   -0.3432 C   0  0  0  0  0  0  0  0  0  0  0  0
   -1.5948    0.2442    0.5498 C   0  0  0  0  0  0  0  0  0  0  0  0
    0.6295   -0.6986    0.5274 C   0  0  0  0  0  0  0  0  0  0  0  0
    0.2734    1.5740   -0.2108 C   0  0  0  0  0  0  0  0  0  0  0  0
   -0.7346   -0.8276    0.7883 C   0  0  0  0  0  0  0  0  0  0  0  0
   -1.0908    1.4450    0.0502 C   0  0  0  0  0  0  0  0  0  0  0  0
   -3.0532    0.1062    0.8286 C   0  0  0  0  0  0  0  0  0  0  0  0
    5.9438   -1.0043   -0.0877 C   0  0  0  0  0  0  0  0  0  0  0  0
   -3.8496   -0.4035   -0.3565 C   0  0  0  0  0  0  0  0  0  0  0  0
  1 14  1  0
  2 14  2  0
  3  4  1  0
  3  5  1  0
  4  6  1  0
  5  8  2  0
  5  9  1  0
  6 13  1  0
  7 10  2  0
  7 11  1  0
  7 12  1  0
  8 10  1  0
  9 11  2  0
 12 14  1  0
M  END
>  <PUBCHEM_COMPOUND_CID>  (1) 
38318

>  <PUBCHEM_CONFORMER_RMSD>  (1) 
0.6

>  <PUBCHEM_CONFORMER_DIVERSEORDER>  (1) 
1
40
41
25
31
27
47
44
9
2
16
29
5
26
15
23
18
43
32
6
13
46
7
30
8
42
45
11
36
20
33
38
21
14
12
17
10
3
22
39
37
24
35
28
4
34
19

>  <PUBCHEM_MMFF94_PARTIAL_CHARGES>  (1) 
18
1 -0.65
10 -0.15
11 -0.15
12 0.2
14 0.66
19 0.4
2 -0.57
20 0.15
21 0.15
22 0.15
23 0.15
29 0.5
3 -0.87
4 0.37
5 0.1
7 -0.14
8 -0.15
9 -0.15

>  <PUBCHEM_EFFECTIVE_ROTOR_COUNT>  (1) 
5

>  <PUBCHEM_PHARMACOPHORE_FEATURES>  (1) 
7
1 1 acceptor
1 13 hydrophobe
1 2 acceptor
1 3 cation
1 3 donor
3 1 2 14 anion
6 5 7 8 9 10 11 rings

>  <PUBCHEM_HEAVY_ATOM_COUNT>  (1) 
14

>  <PUBCHEM_ATOM_DEF_STEREO_COUNT>  (1) 
0

>  <PUBCHEM_ATOM_UDEF_STEREO_COUNT>  (1) 
0

>  <PUBCHEM_BOND_DEF_STEREO_COUNT>  (1) 
0

>  <PUBCHEM_BOND_UDEF_STEREO_COUNT>  (1) 
0

>  <PUBCHEM_ISOTOPIC_ATOM_COUNT>  (1) 
0

>  <PUBCHEM_COMPONENT_COUNT>  (1) 
1

>  <PUBCHEM_CACTVS_TAUTO_COUNT>  (1) 
1

>  <PUBCHEM_CONFORMER_ID>  (1) 
000095AE00000001

>  <PUBCHEM_MMFF94_ENERGY>  (1) 
31.4863

>  <PUBCHEM_FEATURE_SELFOVERLAP>  (1) 
35.578

>  <PUBCHEM_SHAPE_FINGERPRINT>  (1) 
10465860 250 15626507198351768635
106641 1 11383820593789283039
11401426 45 18409728465115564993
12251169 10 11887952163960875113
124424 183 17822016427489031434
12555020 224 18186801374746676050
12670543 26 17968089781328419351
13288520 33 18131634478038646119
13690532 89 18334859420077405448
13760787 5 18187378639540959280
13862211 1 18407758127726264402
14350574 20 18113903805617487611
14911166 2 18040998461764303441
14943859 89 12901545745270922385
14993402 34 18333730234188304611
17834072 33 17775284997766497880
17834072 8 17240485806159721934
17834076 25 11602540927354580322
17862501 102 17988925565540411688
18186145 218 17749382719618345289
187816 3 17894914026877727904
200 152 18413387627096648144
20645477 56 13767929018100362353
20645477 70 17313659348660344314
21029758 11 18409449202184655552
21267235 1 18408895039617946099
21637258 2 17346586496154009959
22224240 67 11095881575608434069
22713019 99 18408885152529286754
23380061 127 17418097576862151904
23402539 116 18411981334413134140
23402655 69 18260822653723055541
23559900 14 18187932837210848480
26918003 58 15482671281723462135
2748010 2 17827931933227544673
293599 30 8502658103550488034
3286 77 17632293497394129840
69090 78 18343302578657732290

>  <PUBCHEM_SHAPE_MULTIPOLES>  (1) 
271.39
10.71
1.22
0.88
8.67
0.36
-0.11
-4.01
-2.06
0.09
0
-0.65
-0.12
-0.26

>  <PUBCHEM_SHAPE_SELFOVERLAP>  (1) 
547.086

>  <PUBCHEM_SHAPE_VOLUME>  (1) 
159

>  <PUBCHEM_COORDINATE_TYPE>  (1) 
2
5
10

$$$$
