38319
     RDKit          3D

 15 15  0  0  0  0  0  0  0  0999 V2000
   -5.6270   -0.6833   -0.1046 O   0  0  0  0  0  0  0  0  0  0  0  0
   -3.7971   -0.8819   -1.4334 O   0  0  0  0  0  0  0  0  0  0  0  0
    2.0162    0.7227   -0.1757 N   0  0  0  0  0  0  0  0  0  0  0  0
    4.3931    0.1572   -0.2434 C   0  0  0  0  0  0  0  0  0  0  0  0
    2.9962   -0.2670    0.2017 C   0  0  0  0  0  0  0  0  0  0  0  0
    5.4621   -0.8852    0.0944 C   0  0  0  0  0  0  0  0  0  0  0  0
    0.6558    0.5848    0.0517 C   0  0  0  0  0  0  0  0  0  0  0  0
   -2.1059    0.3050    0.5138 C   0  0  0  0  0  0  0  0  0  0  0  0
    6.8303   -0.4641   -0.4195 C   0  0  0  0  0  0  0  0  0  0  0  0
    0.1422   -0.5635    0.6824 C   0  0  0  0  0  0  0  0  0  0  0  0
   -0.2472    1.5898   -0.3418 C   0  0  0  0  0  0  0  0  0  0  0  0
   -1.2267   -0.7022    0.9113 C   0  0  0  0  0  0  0  0  0  0  0  0
   -1.6161    1.4511   -0.1127 C   0  0  0  0  0  0  0  0  0  0  0  0
   -3.5696    0.1563    0.7577 C   0  0  0  0  0  0  0  0  0  0  0  0
   -4.3065   -0.5196   -0.3819 C   0  0  0  0  0  0  0  0  0  0  0  0
  1 15  1  0
  2 15  2  0
  3  5  1  0
  3  7  1  0
  4  5  1  0
  4  6  1  0
  6  9  1  0
  7 10  2  0
  7 11  1  0
  8 12  2  0
  8 13  1  0
  8 14  1  0
 10 12  1  0
 11 13  2  0
 14 15  1  0
M  END
>  <PUBCHEM_COMPOUND_CID>  (1) 
38319

>  <PUBCHEM_CONFORMER_RMSD>  (1) 
0.8

>  <PUBCHEM_CONFORMER_DIVERSEORDER>  (1) 
1
29
14
13
23
7
25
20
31
3
24
30
26
22
4
6
18
32
17
10
9
21
8
19
2
27
28
11
15
5
16
33
12

>  <PUBCHEM_MMFF94_PARTIAL_CHARGES>  (1) 
18
1 -0.65
10 -0.15
11 -0.15
12 -0.15
13 -0.15
14 0.2
15 0.66
2 -0.57
22 0.4
26 0.15
27 0.15
28 0.15
29 0.15
3 -0.87
32 0.5
5 0.37
7 0.1
8 -0.14

>  <PUBCHEM_EFFECTIVE_ROTOR_COUNT>  (1) 
6

>  <PUBCHEM_PHARMACOPHORE_FEATURES>  (1) 
7
1 1 acceptor
1 2 acceptor
1 3 cation
1 3 donor
1 9 hydrophobe
3 1 2 15 anion
6 7 8 10 11 12 13 rings

>  <PUBCHEM_HEAVY_ATOM_COUNT>  (1) 
15

>  <PUBCHEM_ATOM_DEF_STEREO_COUNT>  (1) 
0

>  <PUBCHEM_ATOM_UDEF_STEREO_COUNT>  (1) 
0

>  <PUBCHEM_BOND_DEF_STEREO_COUNT>  (1) 
0

>  <PUBCHEM_BOND_UDEF_STEREO_COUNT>  (1) 
0

>  <PUBCHEM_ISOTOPIC_ATOM_COUNT>  (1) 
0

>  <PUBCHEM_COMPONENT_COUNT>  (1) 
1

>  <PUBCHEM_CACTVS_TAUTO_COUNT>  (1) 
1

>  <PUBCHEM_CONFORMER_ID>  (1) 
000095AF00000001

>  <PUBCHEM_MMFF94_ENERGY>  (1) 
31.3026

>  <PUBCHEM_FEATURE_SELFOVERLAP>  (1) 
35.578

>  <PUBCHEM_SHAPE_FINGERPRINT>  (1) 
106641 1 11599715203977720407
10968037 39 18113343020316864906
11401426 45 18335416881120774713
117890 112 11458424635503907870
12555020 224 18186800296377471426
12670543 26 17822283553148837127
12714333 28 14562531786786259350
13288520 33 18202283606608872685
13690532 89 18333732424658594208
13760787 5 18041573506335470461
13862211 1 18334293158804685778
14123238 8 18412266121431855866
1420 363 15195571199915731334
14350574 20 18333449858749634405
14911166 2 17894347800101655961
15716309 27 17561081402375998934
17834072 33 17989207075235751640
17834072 8 17167863075739784198
17834076 25 11097856293964655058
187816 3 17749108893761922873
200 152 18411698781367866728
20281389 69 10015865362734966510
20645477 70 15285907028014442746
20871999 31 17530962449922600172
21150785 3 16588027939377967742
21267235 1 18335708264755874899
21637258 2 17417518198954131567
22224240 67 11383831580616390973
23198884 109 13695585546633501450
23402539 116 18410011013755121317
23559900 14 18114184202679005568
26918003 58 15841833356380308803
293599 30 8646774391174823483
3286 77 17775001323176019656
542803 24 11314030180148836506

>  <PUBCHEM_SHAPE_MULTIPOLES>  (1) 
291.97
13.35
1.2
0.89
15.13
0.37
-0.1
-4.87
-2.87
-0.34
-0.06
-0.67
-0.16
-0.32

>  <PUBCHEM_SHAPE_SELFOVERLAP>  (1) 
584.99

>  <PUBCHEM_SHAPE_VOLUME>  (1) 
172

>  <PUBCHEM_COORDINATE_TYPE>  (1) 
2
5
10

$$$$
