38321
     RDKit          3D

 15 15  0  0  0  0  0  0  0  0999 V2000
   -5.5259    0.3872   -0.0273 O   0  0  0  0  0  0  0  0  0  0  0  0
   -3.7225    1.1298    1.1348 O   0  0  0  0  0  0  0  0  0  0  0  0
    2.2099   -0.2989    0.2801 N   0  0  0  0  0  0  0  0  0  0  0  0
    0.8428   -0.3481    0.0548 C   0  0  0  0  0  0  0  0  0  0  0  0
   -1.9318   -0.4488   -0.4023 C   0  0  0  0  0  0  0  0  0  0  0  0
    3.1028    0.6054   -0.4022 C   0  0  0  0  0  0  0  0  0  0  0  0
    0.2342    0.5085   -0.8809 C   0  0  0  0  0  0  0  0  0  0  0  0
    0.0286   -1.2561    0.7562 C   0  0  0  0  0  0  0  0  0  0  0  0
   -1.1412    0.4585   -1.1075 C   0  0  0  0  0  0  0  0  0  0  0  0
   -1.3468   -1.3061    0.5296 C   0  0  0  0  0  0  0  0  0  0  0  0
   -3.4023   -0.5021   -0.6443 C   0  0  0  0  0  0  0  0  0  0  0  0
    4.5162    0.3509    0.0463 C   0  0  0  0  0  0  0  0  0  0  0  0
    5.0803   -1.0163   -0.2185 C   0  0  0  0  0  0  0  0  0  0  0  0
   -4.1969    0.4248    0.2547 C   0  0  0  0  0  0  0  0  0  0  0  0
    5.2524    1.3113    0.6266 C   0  0  0  0  0  0  0  0  0  0  0  0
  1 14  1  0
  2 14  2  0
  3  4  1  0
  3  6  1  0
  4  7  2  0
  4  8  1  0
  5  9  2  0
  5 10  1  0
  5 11  1  0
  6 12  1  0
  7  9  1  0
  8 10  2  0
 11 14  1  0
 12 13  1  0
 12 15  2  0
M  END
>  <PUBCHEM_COMPOUND_CID>  (1) 
38321

>  <PUBCHEM_CONFORMER_RMSD>  (1) 
0.6

>  <PUBCHEM_CONFORMER_DIVERSEORDER>  (1) 
1
36
20
9
5
44
31
41
13
45
34
24
25
43
42
2
11
37
23
14
35
3
17
6
15
48
8
30
46
40
18
21
16
39
22
12
27
28
29
19
47
26
10
4
38
33
32
7

>  <PUBCHEM_MMFF94_PARTIAL_CHARGES>  (1) 
23
1 -0.65
10 -0.15
11 0.2
12 -0.28
13 0.14
14 0.66
15 -0.3
18 0.4
19 0.15
2 -0.57
20 0.15
21 0.15
22 0.15
28 0.15
29 0.15
3 -0.87
30 0.5
4 0.1
5 -0.14
6 0.51
7 -0.15
8 -0.15
9 -0.15

>  <PUBCHEM_EFFECTIVE_ROTOR_COUNT>  (1) 
5

>  <PUBCHEM_PHARMACOPHORE_FEATURES>  (1) 
6
1 1 acceptor
1 2 acceptor
1 3 cation
1 3 donor
3 1 2 14 anion
6 4 5 7 8 9 10 rings

>  <PUBCHEM_HEAVY_ATOM_COUNT>  (1) 
15

>  <PUBCHEM_ATOM_DEF_STEREO_COUNT>  (1) 
0

>  <PUBCHEM_ATOM_UDEF_STEREO_COUNT>  (1) 
0

>  <PUBCHEM_BOND_DEF_STEREO_COUNT>  (1) 
0

>  <PUBCHEM_BOND_UDEF_STEREO_COUNT>  (1) 
0

>  <PUBCHEM_ISOTOPIC_ATOM_COUNT>  (1) 
0

>  <PUBCHEM_COMPONENT_COUNT>  (1) 
1

>  <PUBCHEM_CACTVS_TAUTO_COUNT>  (1) 
1

>  <PUBCHEM_CONFORMER_ID>  (1) 
000095B100000001

>  <PUBCHEM_MMFF94_ENERGY>  (1) 
36.2801

>  <PUBCHEM_FEATURE_SELFOVERLAP>  (1) 
30.504

>  <PUBCHEM_SHAPE_FINGERPRINT>  (1) 
106641 1 17677056849280846353
11132069 177 17967528004185932366
117890 112 18060701693260414744
12119455 92 18131068229603225798
12236239 1 18342737412500913543
12670543 26 12966861104274859913
12815109 37 10879991354464888755
13533116 47 18342456994324015274
13675066 3 16805600378345272374
13760787 19 17203604895612661175
14943859 89 18202283610534743763
15048467 5 18272932725967075409
15209294 21 18409451345431085641
17834072 33 17989483043436609071
187816 3 13542747945783829183
20300324 65 17775847926039257065
20645477 56 18040428928206337676
20645477 70 17632584808267818334
21029758 27 16226051097578707436
21637258 2 12540695976627567921
22224240 67 17967253109631927923
23402539 116 18060413629998765189
23503953 91 18041559256187720900
23536379 177 17775567524503728878
23559900 14 18335421296980157654
26918003 58 14851603284621728909
300161 21 16702014310383114260
366044 4 18259702311097926331
3759504 43 16343697759677489285
42788 4 18202001031788218468
5104073 3 17968655059829524248
542803 24 18131068247162766276

>  <PUBCHEM_SHAPE_MULTIPOLES>  (1) 
291.97
11.55
1.22
0.95
4.23
0.17
0
-2.82
-1.6
0.42
-0.19
-0.29
-0.13
0.09

>  <PUBCHEM_SHAPE_SELFOVERLAP>  (1) 
593.78

>  <PUBCHEM_SHAPE_VOLUME>  (1) 
169.6

>  <PUBCHEM_COORDINATE_TYPE>  (1) 
2
5
10

$$$$
