38329
     RDKit          3D

  6  5  0  0  0  0  0  0  0  0999 V2000
    2.6111    0.0226    0.0003 I   0  0  0  0  0  0  0  0  0  0  0  0
   -0.5226   -0.0045   -0.0276 N   0  0  0  0  0  0  0  0  0  0  0  0
    0.7209   -0.7672   -0.5447 C   0  0  0  0  0  0  0  0  0  0  0  0
   -0.5193    1.4537   -0.4740 C   0  0  0  0  0  0  0  0  0  0  0  0
   -1.8209   -0.6776   -0.4601 C   0  0  0  0  0  0  0  0  0  0  0  0
   -0.4691   -0.0270    1.5062 C   0  0  0  0  0  0  0  0  0  0  0  0
  1  3  1  0
  2  3  1  0
  2  4  1  0
  2  5  1  0
  2  6  1  0
M  CHG  1   2   1
M  END
>  <PUBCHEM_COMPOUND_CID>  (1) 
38329

>  <PUBCHEM_CONFORMER_RMSD>  (1) 
0.4

>  <PUBCHEM_CONFORMER_DIVERSEORDER>  (1) 
1

>  <PUBCHEM_MMFF94_PARTIAL_CHARGES>  (1) 
6
1 -0.19
2 -1.01
3 0.69
4 0.5
5 0.5
6 0.5

>  <PUBCHEM_EFFECTIVE_ROTOR_COUNT>  (1) 
1

>  <PUBCHEM_PHARMACOPHORE_FEATURES>  (1) 
2
1 1 hydrophobe
1 2 cation

>  <PUBCHEM_HEAVY_ATOM_COUNT>  (1) 
6

>  <PUBCHEM_ATOM_DEF_STEREO_COUNT>  (1) 
0

>  <PUBCHEM_ATOM_UDEF_STEREO_COUNT>  (1) 
0

>  <PUBCHEM_BOND_DEF_STEREO_COUNT>  (1) 
0

>  <PUBCHEM_BOND_UDEF_STEREO_COUNT>  (1) 
0

>  <PUBCHEM_ISOTOPIC_ATOM_COUNT>  (1) 
0

>  <PUBCHEM_COMPONENT_COUNT>  (1) 
1

>  <PUBCHEM_CACTVS_TAUTO_COUNT>  (1) 
1

>  <PUBCHEM_CONFORMER_ID>  (1) 
000095B900000001

>  <PUBCHEM_MMFF94_ENERGY>  (1) 
22.9643

>  <PUBCHEM_FEATURE_SELFOVERLAP>  (1) 
10.148

>  <PUBCHEM_SHAPE_FINGERPRINT>  (1) 
137420 1 12112520627722382205
16714656 1 18342451573478857542
20096714 4 17756706330294921628
24536 1 17241912929044387494
29004967 10 18335989765006549499
5084963 1 18201721743451125334
5943 1 14246709861751010729

>  <PUBCHEM_SHAPE_MULTIPOLES>  (1) 
130.43
3.01
1.16
1.13
2.06
0.37
0.48
-0.33
-0.25
-0.23
-0.24
-0.2
-0.02
0.02

>  <PUBCHEM_SHAPE_SELFOVERLAP>  (1) 
204.139

>  <PUBCHEM_SHAPE_VOLUME>  (1) 
98.5

>  <PUBCHEM_COORDINATE_TYPE>  (1) 
2
5
10

$$$$
