38335
     RDKit          3D

 15 15  0  0  1  0  0  0  0  0999 V2000
   -0.1372    0.1987   -0.6850 P   0  0  0  0  0  0  0  0  0  0  0  0
    0.9731   -0.9957   -0.7803 O   0  0  0  0  0  0  0  0  0  0  0  0
    0.3970    1.0548    1.7130 O   0  0  0  0  0  0  0  0  0  0  0  0
   -0.4140    0.8074   -2.0327 O   0  0  0  0  0  0  0  0  0  0  0  0
   -1.4167   -0.3870    0.1736 N   0  0  0  0  0  0  0  0  0  0  0  0
    0.8387    1.2901    0.3825 C   0  0  0  0  0  0  0  0  0  0  0  0
    2.1677   -0.7619   -0.0119 C   0  0  0  0  0  0  0  0  0  0  0  0
    2.2682    0.7661    0.1981 C   0  0  0  0  0  0  0  0  0  0  0  0
    0.7059    2.7715    0.0798 C   0  0  0  0  0  0  0  0  0  0  0  0
    2.0615   -1.5478    1.2954 C   0  0  0  0  0  0  0  0  0  0  0  0
    3.3571   -1.2722   -0.8251 C   0  0  0  0  0  0  0  0  0  0  0  0
   -2.3529    0.5994    0.7081 C   0  0  0  0  0  0  0  0  0  0  0  0
   -2.1552   -1.4961   -0.4268 C   0  0  0  0  0  0  0  0  0  0  0  0
   -3.2498    1.1581   -0.3772 C   0  0  0  0  0  0  0  0  0  0  0  0
   -3.0434   -2.1853    0.5884 C   0  0  0  0  0  0  0  0  0  0  0  0
  1  2  1  0
  1  4  2  0
  1  5  1  0
  1  6  1  0
  2  7  1  0
  3  6  1  0
  5 12  1  0
  5 13  1  0
  6  8  1  0
  6  9  1  0
  7  8  1  0
  7 10  1  0
  7 11  1  0
 12 14  1  0
 13 15  1  0
M  END
>  <PUBCHEM_COMPOUND_CID>  (1) 
38335

>  <PUBCHEM_CONFORMER_RMSD>  (1) 
0.6

>  <PUBCHEM_CONFORMER_DIVERSEORDER>  (1) 
4
1
17
15
12
6
11
14
16
8
9
7
3
2
13
5
10

>  <PUBCHEM_MMFF94_PARTIAL_CHARGES>  (1) 
10
1 1.24
12 0.27
13 0.27
2 -0.55
3 -0.68
31 0.4
4 -0.7
5 -0.81
6 0.28
7 0.28

>  <PUBCHEM_EFFECTIVE_ROTOR_COUNT>  (1) 
3.8

>  <PUBCHEM_PHARMACOPHORE_FEATURES>  (1) 
4
1 3 acceptor
1 3 donor
3 7 10 11 hydrophobe
5 1 2 6 7 8 rings

>  <PUBCHEM_HEAVY_ATOM_COUNT>  (1) 
15

>  <PUBCHEM_ATOM_DEF_STEREO_COUNT>  (1) 
0

>  <PUBCHEM_ATOM_UDEF_STEREO_COUNT>  (1) 
2

>  <PUBCHEM_BOND_DEF_STEREO_COUNT>  (1) 
0

>  <PUBCHEM_BOND_UDEF_STEREO_COUNT>  (1) 
0

>  <PUBCHEM_ISOTOPIC_ATOM_COUNT>  (1) 
0

>  <PUBCHEM_COMPONENT_COUNT>  (1) 
1

>  <PUBCHEM_CACTVS_TAUTO_COUNT>  (1) 
1

>  <PUBCHEM_CONFORMER_ID>  (1) 
000095BF00000004

>  <PUBCHEM_MMFF94_ENERGY>  (1) 
29.0135

>  <PUBCHEM_FEATURE_SELFOVERLAP>  (1) 
20.297

>  <PUBCHEM_SHAPE_FINGERPRINT>  (1) 
12382932 28 18341603789905444690
12423570 1 17531816722869454332
12932764 1 18040434365102210223
13214271 11 18201708562164695872
14115302 16 18190471471423857574
14648413 74 18338793524174210033
14817 1 14136991958584284684
15375462 189 18114467760182027218
15375462 6 18122343751171711557
15775835 57 18113902606820620963
15881359 60 17484492587164265508
16945 1 18267023851589410880
17841504 4 18342458196223423883
17990270 104 18341612663207670674
18511873 20 18340771421001156025
20511035 2 17917703639015800849
20645477 70 18124027086484384847
20653091 64 18340490079025980880
20711983 138 17987519195642698026
21130352 189 18341609265962671885
21501502 16 18340771550061197293
21524375 3 17620753225112404216
23402539 116 18058723577732735701
23419403 2 13028398545056438340
23552423 10 18265050413212363641
2748010 2 18343858931208804894
31174 14 17985552401627244931
5084963 1 17700700832875733929
528862 383 18126276682557152328
7364860 26 18198347461976094712
74978 22 18409445886617024369
81228 2 17912932677626593464

>  <PUBCHEM_SHAPE_MULTIPOLES>  (1) 
289.95
4.79
2.4
1.29
1.31
0.46
0.08
-2.16
0.04
0.29
-0.31
-0.21
0.05
0.33

>  <PUBCHEM_SHAPE_SELFOVERLAP>  (1) 
553.968

>  <PUBCHEM_SHAPE_VOLUME>  (1) 
182

>  <PUBCHEM_COORDINATE_TYPE>  (1) 
2
5
10

$$$$
