38334
     RDKit          3D

 12 12  0  0  1  0  0  0  0  0999 V2000
    0.9337    0.0779   -0.4458 P   0  0  0  0  0  0  0  0  0  0  0  0
   -0.2382   -1.0271   -0.6695 O   0  0  0  0  0  0  0  0  0  0  0  0
   -0.6223    2.0787   -0.7247 O   0  0  0  0  0  0  0  0  0  0  0  0
    1.6434    0.5025   -1.6951 O   0  0  0  0  0  0  0  0  0  0  0  0
   -0.0928    1.3075    0.3467 C   0  0  0  0  0  0  0  0  0  0  0  0
   -1.4597   -0.7453    0.0450 C   0  0  0  0  0  0  0  0  0  0  0  0
   -1.1993    0.4603    0.9874 C   0  0  0  0  0  0  0  0  0  0  0  0
    1.9698   -0.6840    0.7815 C   0  0  0  0  0  0  0  0  0  0  0  0
    0.5972    2.2391    1.3221 C   0  0  0  0  0  0  0  0  0  0  0  0
   -1.8373   -1.9914    0.8445 C   0  0  0  0  0  0  0  0  0  0  0  0
   -2.5427   -0.4461   -0.9928 C   0  0  0  0  0  0  0  0  0  0  0  0
    2.8481   -1.7721    0.2008 C   0  0  0  0  0  0  0  0  0  0  0  0
  1  2  1  0
  1  4  2  0
  1  5  1  0
  1  8  1  0
  2  6  1  0
  3  5  1  0
  5  7  1  0
  5  9  1  0
  6  7  1  0
  6 10  1  0
  6 11  1  0
  8 12  1  0
M  END
>  <PUBCHEM_COMPOUND_CID>  (1) 
38334

>  <PUBCHEM_CONFORMER_RMSD>  (1) 
0.4

>  <PUBCHEM_CONFORMER_DIVERSEORDER>  (1) 
1
3
4
5
2

>  <PUBCHEM_MMFF94_PARTIAL_CHARGES>  (1) 
7
1 0.97
2 -0.55
26 0.4
3 -0.68
4 -0.7
5 0.28
6 0.28

>  <PUBCHEM_EFFECTIVE_ROTOR_COUNT>  (1) 
1.8

>  <PUBCHEM_PHARMACOPHORE_FEATURES>  (1) 
4
1 3 acceptor
1 3 donor
3 6 10 11 hydrophobe
5 1 2 5 6 7 rings

>  <PUBCHEM_HEAVY_ATOM_COUNT>  (1) 
12

>  <PUBCHEM_ATOM_DEF_STEREO_COUNT>  (1) 
0

>  <PUBCHEM_ATOM_UDEF_STEREO_COUNT>  (1) 
2

>  <PUBCHEM_BOND_DEF_STEREO_COUNT>  (1) 
0

>  <PUBCHEM_BOND_UDEF_STEREO_COUNT>  (1) 
0

>  <PUBCHEM_ISOTOPIC_ATOM_COUNT>  (1) 
0

>  <PUBCHEM_COMPONENT_COUNT>  (1) 
1

>  <PUBCHEM_CACTVS_TAUTO_COUNT>  (1) 
1

>  <PUBCHEM_CONFORMER_ID>  (1) 
000095BE00000001

>  <PUBCHEM_MMFF94_ENERGY>  (1) 
24.849

>  <PUBCHEM_FEATURE_SELFOVERLAP>  (1) 
20.297

>  <PUBCHEM_SHAPE_FINGERPRINT>  (1) 
12326174 3 17842283854151772012
12423570 1 9425023444346684945
13024252 1 13119434762193741810
137420 1 16397943179256351021
14128692 85 18113344128139222726
14817 1 15387821211068467109
15001771 113 18261122854519890682
16945 1 18041833996112282106
20653085 51 16226054344695354271
20653091 64 18052835924329421587
20711985 344 17985573085709739780
23419403 2 17327111907437424004
23552423 10 17905619044232749195
2748010 2 18192140714632041675
369184 2 17630872816538174546
5084963 1 17330585062594978893
54338 74 18188766115872464418
81228 2 18126287445713599880

>  <PUBCHEM_SHAPE_MULTIPOLES>  (1) 
233.2
3.17
2.3
1.31
0.62
0.68
-0.19
-2.14
-0.15
0.26
0.65
0.06
0.26
0.12

>  <PUBCHEM_SHAPE_SELFOVERLAP>  (1) 
442.931

>  <PUBCHEM_SHAPE_VOLUME>  (1) 
147.1

>  <PUBCHEM_COORDINATE_TYPE>  (1) 
2
5
10

$$$$
