38340
     RDKit          3D

 19 21  0  0  0  0  0  0  0  0999 V2000
    0.5164   -3.2814   -0.2172 Cl  0  0  0  0  0  0  0  0  0  0  0  0
    2.5740   -1.2414    0.0364 S   0  0  0  0  0  0  0  0  0  0  0  0
    3.2848   -1.5106   -1.1958 O   0  0  0  0  0  0  0  0  0  0  0  0
    3.0777   -1.6182    1.3402 O   0  0  0  0  0  0  0  0  0  0  0  0
   -1.2728   -0.5581   -0.2473 N   0  0  0  0  0  0  0  0  0  0  0  0
   -4.0475    0.0562   -0.0316 N   0  0  0  0  0  0  0  0  0  0  0  0
   -1.9580    0.1152   -1.3499 C   0  0  0  0  0  0  0  0  0  0  0  0
   -2.1342   -1.3694    0.6118 C   0  0  0  0  0  0  0  0  0  0  0  0
   -3.1501    0.9139   -0.8192 C   0  0  0  0  0  0  0  0  0  0  0  0
   -3.3224   -0.5384    1.1003 C   0  0  0  0  0  0  0  0  0  0  0  0
    0.0873   -0.5750   -0.1380 C   0  0  0  0  0  0  0  0  0  0  0  0
    0.8514    0.6819   -0.0225 C   0  0  0  0  0  0  0  0  0  0  0  0
    2.2272    0.4657    0.0805 C   0  0  0  0  0  0  0  0  0  0  0  0
    0.9037   -1.6381   -0.1167 C   0  0  0  0  0  0  0  0  0  0  0  0
   -5.2026    0.8181    0.4409 C   0  0  0  0  0  0  0  0  0  0  0  0
    0.3904    1.9921   -0.0043 C   0  0  0  0  0  0  0  0  0  0  0  0
    3.1669    1.4702    0.2001 C   0  0  0  0  0  0  0  0  0  0  0  0
    1.3154    3.0386    0.1156 C   0  0  0  0  0  0  0  0  0  0  0  0
    2.6922    2.7788    0.2169 C   0  0  0  0  0  0  0  0  0  0  0  0
  1 14  1  0
  2  3  2  0
  2  4  2  0
  2 13  1  0
  2 14  1  0
  5  7  1  0
  5  8  1  0
  5 11  1  0
  6  9  1  0
  6 10  1  0
  6 15  1  0
  7  9  1  0
  8 10  1  0
 11 12  1  0
 11 14  2  0
 12 13  2  0
 12 16  1  0
 13 17  1  0
 16 18  2  0
 17 19  2  0
 18 19  1  0
M  END
>  <PUBCHEM_COMPOUND_CID>  (1) 
38340

>  <PUBCHEM_CONFORMER_RMSD>  (1) 
0.6

>  <PUBCHEM_CONFORMER_DIVERSEORDER>  (1) 
2
3
1
4

>  <PUBCHEM_MMFF94_PARTIAL_CHARGES>  (1) 
23
1 -0.14
10 0.27
11 0.07
12 0.03
13 -0.01
14 0.12
15 0.27
16 -0.15
17 -0.15
18 -0.15
19 -0.15
2 1.33
3 -0.65
31 0.15
32 0.15
33 0.15
34 0.15
4 -0.65
5 -0.84
6 -0.81
7 0.37
8 0.37
9 0.27

>  <PUBCHEM_EFFECTIVE_ROTOR_COUNT>  (1) 
2.2

>  <PUBCHEM_PHARMACOPHORE_FEATURES>  (1) 
7
1 3 acceptor
1 4 acceptor
1 5 cation
1 6 cation
5 2 11 12 13 14 rings
6 12 13 16 17 18 19 rings
6 5 6 7 8 9 10 rings

>  <PUBCHEM_HEAVY_ATOM_COUNT>  (1) 
19

>  <PUBCHEM_ATOM_DEF_STEREO_COUNT>  (1) 
0

>  <PUBCHEM_ATOM_UDEF_STEREO_COUNT>  (1) 
0

>  <PUBCHEM_BOND_DEF_STEREO_COUNT>  (1) 
0

>  <PUBCHEM_BOND_UDEF_STEREO_COUNT>  (1) 
0

>  <PUBCHEM_ISOTOPIC_ATOM_COUNT>  (1) 
0

>  <PUBCHEM_COMPONENT_COUNT>  (1) 
1

>  <PUBCHEM_CACTVS_TAUTO_COUNT>  (1) 
1

>  <PUBCHEM_CONFORMER_ID>  (1) 
000095C400000002

>  <PUBCHEM_MMFF94_ENERGY>  (1) 
44.8942

>  <PUBCHEM_FEATURE_SELFOVERLAP>  (1) 
35.603

>  <PUBCHEM_SHAPE_FINGERPRINT>  (1) 
10366900 7 18114189601305034543
10411042 1 17835242242591754919
104564 63 17982455901615240732
10465860 228 18341336677204672969
10608611 8 18334853931220165885
10967382 1 18410853274243178172
10980938 120 18339923826242832116
11471102 20 18411417302254431413
11640471 11 17560806554248982857
12173636 292 17475796931862948228
12553582 1 18267576901796618198
12633257 1 18334578997578939267
12654215 9 18408882927978859476
13140716 1 18409725187981912155
13583140 156 16590522774200742240
14178342 30 17835506499186260488
14223421 5 18120662580491615275
14790565 3 18337681918293529548
15219456 202 18334013921426528977
15309172 13 18266177412562281657
15442244 35 18340770330005986609
16945 1 18267298742539785270
1813 80 17558288539477656638
18186145 218 18341895207562529927
18219364 16 18334564772473155325
18785283 64 18334583472644808197
19049666 15 18114733842101326781
19591789 44 18120659290762606398
20157964 124 18411978053986495933
20233049 118 18261118426577407358
20645477 70 18411978061864150759
20681677 76 18262519307681347043
20739085 24 18336837398430648128
21041028 32 18340767018570526401
21501502 16 18338789147634053983
21503847 285 18272098153797272625
21524375 3 17835800073054058632
22182313 1 18267288864668957460
2255824 54 18412260636073102550
22854114 111 18410572924500504237
23175994 123 18266747882813794263
23184049 59 18413103952854043346
2334 1 18337949103480613814
23526113 38 17684061623086519375
23559900 14 18411136926889653355
23598291 2 17988912380196509405
238 59 17831815296664740701
25 1 18339923847918362628
2748010 2 18337380578844356172
3060560 45 18272092669124393286
350125 39 17546449337371720264
474 4 18341611542516443257
49207404 50 18189627218471726531
495365 180 18341320159108267969
5104073 3 18408045130642059019
54173680 148 17114098868360163262
5939293 188 18412260644900225496
6049 1 17967807232894955373
633830 44 18272937124329779663
7364860 26 18412547621445264260
77492 1 17489869353874748543
7832392 63 18270960270894627492
81228 2 17764022472229189464
8272917 22 18342746199998719911
84936 182 17988075728772730337
9709674 26 18336550537828510571

>  <PUBCHEM_SHAPE_MULTIPOLES>  (1) 
375.03
7.1
3.22
0.98
7.83
0.03
0.05
1.76
-0.93
-2.94
-0.08
0.22
-0.21
0.38

>  <PUBCHEM_SHAPE_SELFOVERLAP>  (1) 
787.902

>  <PUBCHEM_SHAPE_VOLUME>  (1) 
215.2

>  <PUBCHEM_COORDINATE_TYPE>  (1) 
2
5
10

$$$$
