38348
     RDKit          3D

 15 16  0  0  0  0  0  0  0  0999 V2000
   -2.1705    0.0012   -1.2435 S   0  0  0  0  0  0  0  0  0  0  0  0
   -0.1695   -2.3220   -0.5817 O   0  0  0  0  0  0  0  0  0  0  0  0
   -0.1686    2.3230   -0.5796 O   0  0  0  0  0  0  0  0  0  0  0  0
   -0.5755    0.0007   -0.7158 N   0  0  0  0  0  0  0  0  0  0  0  0
    1.4642   -0.6944   -0.0411 C   0  0  0  0  0  0  0  0  0  0  0  0
    1.4645    0.6942   -0.0407 C   0  0  0  0  0  0  0  0  0  0  0  0
    0.1434   -1.1505   -0.4782 C   0  0  0  0  0  0  0  0  0  0  0  0
    0.1440    1.1512   -0.4774 C   0  0  0  0  0  0  0  0  0  0  0  0
   -2.9919    0.0009    0.3645 C   0  0  0  0  0  0  0  0  0  0  0  0
   -4.5066    0.0013    0.1907 C   0  0  0  0  0  0  0  0  0  0  0  0
    2.5757   -1.4244    0.3268 C   0  0  0  0  0  0  0  0  0  0  0  0
    2.5761    1.4236    0.3280 C   0  0  0  0  0  0  0  0  0  0  0  0
    3.7136   -0.7057    0.7041 C   0  0  0  0  0  0  0  0  0  0  0  0
    3.7138    0.7041    0.7051 C   0  0  0  0  0  0  0  0  0  0  0  0
   -5.2127   -0.0031    1.5386 C   0  0  0  0  0  0  0  0  0  0  0  0
  1  4  1  0
  1  9  1  0
  2  7  2  0
  3  8  2  0
  4  7  1  0
  4  8  1  0
  5  6  2  0
  5  7  1  0
  5 11  1  0
  6  8  1  0
  6 12  1  0
  9 10  1  0
 10 15  1  0
 11 13  2  0
 12 14  2  0
 13 14  1  0
M  END
>  <PUBCHEM_COMPOUND_CID>  (1) 
38348

>  <PUBCHEM_CONFORMER_RMSD>  (1) 
0.6

>  <PUBCHEM_CONFORMER_DIVERSEORDER>  (1) 
1
7
5
3
2
6
4

>  <PUBCHEM_MMFF94_PARTIAL_CHARGES>  (1) 
17
1 -0.22
11 -0.15
12 -0.15
13 -0.15
14 -0.15
2 -0.57
20 0.15
21 0.15
22 0.15
23 0.15
3 -0.57
4 -0.13
5 0.09
6 0.09
7 0.54
8 0.54
9 0.23

>  <PUBCHEM_EFFECTIVE_ROTOR_COUNT>  (1) 
3.2

>  <PUBCHEM_PHARMACOPHORE_FEATURES>  (1) 
5
1 15 hydrophobe
1 2 acceptor
1 3 acceptor
5 4 5 6 7 8 rings
6 5 6 11 12 13 14 rings

>  <PUBCHEM_HEAVY_ATOM_COUNT>  (1) 
15

>  <PUBCHEM_ATOM_DEF_STEREO_COUNT>  (1) 
0

>  <PUBCHEM_ATOM_UDEF_STEREO_COUNT>  (1) 
0

>  <PUBCHEM_BOND_DEF_STEREO_COUNT>  (1) 
0

>  <PUBCHEM_BOND_UDEF_STEREO_COUNT>  (1) 
0

>  <PUBCHEM_ISOTOPIC_ATOM_COUNT>  (1) 
0

>  <PUBCHEM_COMPONENT_COUNT>  (1) 
1

>  <PUBCHEM_CACTVS_TAUTO_COUNT>  (1) 
1

>  <PUBCHEM_CONFORMER_ID>  (1) 
000095CC00000001

>  <PUBCHEM_MMFF94_ENERGY>  (1) 
29.7055

>  <PUBCHEM_FEATURE_SELFOVERLAP>  (1) 
25.464

>  <PUBCHEM_SHAPE_FINGERPRINT>  (1) 
10219947 1 18410290311404686189
11132069 177 18200856436025957894
11471102 22 18335424551721232409
11796584 16 16081081559451983131
12032990 46 18260263010604152270
12251169 10 18335423499791952323
12390115 104 17764871686333427240
13140716 1 18266165326877686962
14252887 29 18335988583959179971
15210252 30 12607414264902855979
15309172 13 18340476811756179783
15775835 57 17632860841172531945
16945 1 18338776980339441830
17844478 74 17967802830294858156
18186145 218 18130781265726733100
20261772 1 18412544331764150463
20645477 70 18265592326389966247
20739085 24 18337403659598028916
21637258 2 15647041677443535266
231179 274 13470688131274182843
23184049 59 18411697690451396319
2334 1 17904746032263844412
2748010 2 17979615867807984734
5104073 3 18196635497345597698

>  <PUBCHEM_SHAPE_MULTIPOLES>  (1) 
295.82
8.08
1.74
1.09
8.71
0
-0.09
-0.01
-4.43
-1.02
0.28
0.93
0
0

>  <PUBCHEM_SHAPE_SELFOVERLAP>  (1) 
619.451

>  <PUBCHEM_SHAPE_VOLUME>  (1) 
170.7

>  <PUBCHEM_COORDINATE_TYPE>  (1) 
2
5
10

$$$$
