38343
     RDKit          3D

 22 24  0  0  1  0  0  0  0  0999 V2000
    0.5377   -1.2060    0.3441 O   0  0  0  0  0  0  0  0  0  0  0  0
   -0.6508   -1.5316    2.2884 O   0  0  0  0  0  0  0  0  0  0  0  0
    3.3568   -1.3732   -0.1212 N   0  0  0  0  0  0  0  0  0  0  0  0
    2.6538   -0.0914   -0.1621 C   0  0  0  0  0  0  0  0  0  0  0  0
    1.3817   -0.1126    0.7058 C   0  0  0  0  0  0  0  0  0  0  0  0
    2.2979    0.2623   -1.6091 C   0  0  0  0  0  0  0  0  0  0  0  0
    1.6994    1.6683   -1.6784 C   0  0  0  0  0  0  0  0  0  0  0  0
    0.5553    1.1413    0.5376 C   0  0  0  0  0  0  0  0  0  0  0  0
    0.6767    1.9530   -0.6062 C   0  0  0  0  0  0  0  0  0  0  0  0
   -0.3898    1.4760    1.5210 C   0  0  0  0  0  0  0  0  0  0  0  0
   -0.1310    3.0944   -0.7292 C   0  0  0  0  0  0  0  0  0  0  0  0
    3.7024   -1.7222    1.2561 C   0  0  0  0  0  0  0  0  0  0  0  0
    4.5583   -1.3232   -0.9532 C   0  0  0  0  0  0  0  0  0  0  0  0
   -1.1916    2.6083    1.3818 C   0  0  0  0  0  0  0  0  0  0  0  0
   -1.0615    3.4177    0.2576 C   0  0  0  0  0  0  0  0  0  0  0  0
   -0.5927   -1.3466    1.0826 C   0  0  0  0  0  0  0  0  0  0  0  0
   -1.7936   -1.2462    0.2155 C   0  0  0  0  0  0  0  0  0  0  0  0
   -2.9640   -0.7473    0.7499 C   0  0  0  0  0  0  0  0  0  0  0  0
   -1.7015   -1.6538   -1.0997 C   0  0  0  0  0  0  0  0  0  0  0  0
   -4.0911   -0.6518   -0.0662 C   0  0  0  0  0  0  0  0  0  0  0  0
   -2.8287   -1.5582   -1.9158 C   0  0  0  0  0  0  0  0  0  0  0  0
   -4.0236   -1.0573   -1.3991 C   0  0  0  0  0  0  0  0  0  0  0  0
  1  5  1  0
  1 16  1  0
  2 16  2  0
  3  4  1  0
  3 12  1  0
  3 13  1  0
  4  5  1  0
  4  6  1  0
  5  8  1  0
  6  7  1  0
  7  9  1  0
  8  9  2  0
  8 10  1  0
  9 11  1  0
 10 14  2  0
 11 15  2  0
 14 15  1  0
 16 17  1  0
 17 18  2  0
 17 19  1  0
 18 20  1  0
 19 21  2  0
 20 22  2  0
 21 22  1  0
M  END
>  <PUBCHEM_COMPOUND_CID>  (1) 
38343

>  <PUBCHEM_CONFORMER_RMSD>  (1) 
0.8

>  <PUBCHEM_CONFORMER_DIVERSEORDER>  (1) 
1
4
3
2

>  <PUBCHEM_MMFF94_PARTIAL_CHARGES>  (1) 
30
1 -0.43
10 -0.15
11 -0.15
12 0.27
13 0.27
14 -0.15
15 -0.15
16 0.63
17 0.09
18 -0.15
19 -0.15
2 -0.57
20 -0.15
21 -0.15
22 -0.15
29 0.15
3 -0.81
30 0.15
37 0.15
38 0.15
39 0.15
4 0.27
40 0.15
41 0.15
42 0.15
43 0.15
5 0.42
7 0.14
8 -0.14
9 -0.14

>  <PUBCHEM_EFFECTIVE_ROTOR_COUNT>  (1) 
4.8

>  <PUBCHEM_PHARMACOPHORE_FEATURES>  (1) 
5
1 2 acceptor
1 3 cation
6 17 18 19 20 21 22 rings
6 4 5 6 7 8 9 rings
6 8 9 10 11 14 15 rings

>  <PUBCHEM_HEAVY_ATOM_COUNT>  (1) 
22

>  <PUBCHEM_ATOM_DEF_STEREO_COUNT>  (1) 
2

>  <PUBCHEM_ATOM_UDEF_STEREO_COUNT>  (1) 
0

>  <PUBCHEM_BOND_DEF_STEREO_COUNT>  (1) 
0

>  <PUBCHEM_BOND_UDEF_STEREO_COUNT>  (1) 
0

>  <PUBCHEM_ISOTOPIC_ATOM_COUNT>  (1) 
0

>  <PUBCHEM_COMPONENT_COUNT>  (1) 
1

>  <PUBCHEM_CACTVS_TAUTO_COUNT>  (1) 
1

>  <PUBCHEM_CONFORMER_ID>  (1) 
000095C700000001

>  <PUBCHEM_MMFF94_ENERGY>  (1) 
78.7321

>  <PUBCHEM_FEATURE_SELFOVERLAP>  (1) 
25.392

>  <PUBCHEM_SHAPE_FINGERPRINT>  (1) 
10165383 225 16960728498260317669
104564 63 18267300941504745631
10764073 3 17618166993153962993
11578080 2 17560222657428823488
11582403 64 13753023780560305898
11828532 37 16128365027108948763
12035759 4 17825377492716858120
12403259 327 14042416525138495799
12422481 6 17695658180846262795
12553582 1 18341057388408488006
12633257 1 12676978149008842454
12654903 92 17916869148603084751
12788726 201 18337395941979193140
128993 33 17387962330151644821
13004483 165 18341599404886227550
13134695 92 18268132322582335101
13464514 151 17977103788201854517
13681431 1 18195241341801720348
14181834 199 17558827536044740769
14251757 17 17095513020051103470
15238133 3 17606932072362501333
16752209 62 18339081471724547618
16945 1 18115583901801476835
17138139 8 17403685084399771661
17357779 13 18271792502227970453
17492 54 17974835178540333277
1813 80 18413392033654187270
18981168 100 17172913304650482127
20600515 1 17824235272382794648
20626108 58 17488165183798088231
22112679 90 18268452186130016792
22620623 9 18128830633599731894
229495 10 14998579410664181910
23175994 123 18261399965688528735
23402539 116 18411699855189091266
23419403 2 17833220451440766512
238 59 17332805453534375063
3027735 51 18126001568385621078
3797600 57 13118267214305456933
6438718 38 18126021385221578976
7164475 11 18265045830619772558
81228 2 18336828593879112256
9981440 41 16972499921461241921

>  <PUBCHEM_SHAPE_MULTIPOLES>  (1) 
436.03
6.28
3.33
1.85
1.08
3.27
0.01
-5.38
-1.96
-0.45
0.08
-0.17
-0.27
-1.21

>  <PUBCHEM_SHAPE_SELFOVERLAP>  (1) 
942.495

>  <PUBCHEM_SHAPE_VOLUME>  (1) 
238.6

>  <PUBCHEM_COORDINATE_TYPE>  (1) 
2
5
10

$$$$
