38358
     RDKit          3D

  7  6  0  0  0  0  0  0  0  0999 V2000
    1.5043   -0.0129   -0.4215 O   0  0  0  0  0  0  0  0  0  0  0  0
   -1.9547   -1.3123    0.0849 O   0  0  0  0  0  0  0  0  0  0  0  0
   -0.7701    0.4163    0.3323 N   0  0  0  0  0  0  0  0  0  0  0  0
   -1.4211   -0.3648   -0.5043 N   0  0  0  0  0  0  0  0  0  0  0  0
    0.5910   -0.0413    0.6816 C   0  0  0  0  0  0  0  0  0  0  0  0
   -0.7392    1.8101   -0.1188 C   0  0  0  0  0  0  0  0  0  0  0  0
    2.7899   -0.4951   -0.0542 C   0  0  0  0  0  0  0  0  0  0  0  0
  1  5  1  0
  1  7  1  0
  2  4  2  0
  3  4  1  0
  3  5  1  0
  3  6  1  0
M  END
>  <PUBCHEM_COMPOUND_CID>  (1) 
38358

>  <PUBCHEM_CONFORMER_RMSD>  (1) 
0.4

>  <PUBCHEM_CONFORMER_DIVERSEORDER>  (1) 
1
58
49
51
44
25
31
53
27
22
37
12
36
42
32
63
16
57
23
62
17
50
45
38
5
41
4
18
26
3
52
13
35
20
46
28
60
39
61
24
19
8
6
40
21
2
33
55
11
56
9
7
47
14
15
59
10
30
34
43
29
54
48

>  <PUBCHEM_MMFF94_PARTIAL_CHARGES>  (1) 
7
1 -0.56
2 -0.16
3 -0.36
4 -0.01
5 0.55
6 0.27
7 0.28

>  <PUBCHEM_EFFECTIVE_ROTOR_COUNT>  (1) 
3

>  <PUBCHEM_PHARMACOPHORE_FEATURES>  (1) 
1
1 1 acceptor

>  <PUBCHEM_HEAVY_ATOM_COUNT>  (1) 
7

>  <PUBCHEM_ATOM_DEF_STEREO_COUNT>  (1) 
0

>  <PUBCHEM_ATOM_UDEF_STEREO_COUNT>  (1) 
0

>  <PUBCHEM_BOND_DEF_STEREO_COUNT>  (1) 
0

>  <PUBCHEM_BOND_UDEF_STEREO_COUNT>  (1) 
0

>  <PUBCHEM_ISOTOPIC_ATOM_COUNT>  (1) 
0

>  <PUBCHEM_COMPONENT_COUNT>  (1) 
1

>  <PUBCHEM_CACTVS_TAUTO_COUNT>  (1) 
1

>  <PUBCHEM_CONFORMER_ID>  (1) 
000095D600000001

>  <PUBCHEM_MMFF94_ENERGY>  (1) 
18.0311

>  <PUBCHEM_FEATURE_SELFOVERLAP>  (1) 
5.074

>  <PUBCHEM_SHAPE_FINGERPRINT>  (1) 
139733 1 8358272444251522147
16714656 1 18339082579688790905
20096714 4 17826801326131659776
21040471 1 17906727012324232904
23552449 1 18340765945034294296
29004967 10 18268992166360631099
5943 1 12206630679902332473

>  <PUBCHEM_SHAPE_MULTIPOLES>  (1) 
122.36
3.08
1.38
0.71
2.26
0.41
0.05
-0.93
-0.31
-0.99
-0.05
0.05
0.01
0

>  <PUBCHEM_SHAPE_SELFOVERLAP>  (1) 
216.159

>  <PUBCHEM_SHAPE_VOLUME>  (1) 
80.9

>  <PUBCHEM_COORDINATE_TYPE>  (1) 
2
5
10

$$$$
