38353
     RDKit          3D

 17 17  0  0  1  0  0  0  0  0999 V2000
   -0.8079    1.9980   -1.1406 S   0  0  0  0  0  0  0  0  0  0  0  0
   -0.5879   -0.9621   -0.3949 O   0  0  0  0  0  0  0  0  0  0  0  0
    1.1778   -3.1369   -0.6217 O   0  0  0  0  0  0  0  0  0  0  0  0
    2.6818    0.0370    0.5492 N   0  0  0  0  0  0  0  0  0  0  0  0
    2.3327   -1.0514   -0.3537 C   0  0  0  0  0  0  0  0  0  0  0  0
    1.4160   -2.0800    0.3124 C   0  0  0  0  0  0  0  0  0  0  0  0
    3.5987    0.9709   -0.0903 C   0  0  0  0  0  0  0  0  0  0  0  0
    0.0722   -1.4994    0.7472 C   0  0  0  0  0  0  0  0  0  0  0  0
    4.8881    0.2578   -0.4876 C   0  0  0  0  0  0  0  0  0  0  0  0
    3.8840    2.1317    0.8573 C   0  0  0  0  0  0  0  0  0  0  0  0
   -1.8234   -0.4095   -0.1881 C   0  0  0  0  0  0  0  0  0  0  0  0
   -2.0773    0.9278   -0.4788 C   0  0  0  0  0  0  0  0  0  0  0  0
   -2.8301   -1.2222    0.3261 C   0  0  0  0  0  0  0  0  0  0  0  0
   -3.3480    1.4570   -0.2535 C   0  0  0  0  0  0  0  0  0  0  0  0
   -4.1008   -0.6928    0.5515 C   0  0  0  0  0  0  0  0  0  0  0  0
   -4.3598    0.6468    0.2618 C   0  0  0  0  0  0  0  0  0  0  0  0
   -0.1160    2.6272    0.4036 C   0  0  0  0  0  0  0  0  0  0  0  0
  1 12  1  0
  1 17  1  0
  2  8  1  0
  2 11  1  0
  3  6  1  0
  4  5  1  0
  4  7  1  0
  5  6  1  0
  6  8  1  0
  7  9  1  0
  7 10  1  0
 11 12  2  0
 11 13  1  0
 12 14  1  0
 13 15  2  0
 14 16  2  0
 15 16  1  0
M  END
>  <PUBCHEM_COMPOUND_CID>  (1) 
38353

>  <PUBCHEM_CONFORMER_RMSD>  (1) 
0.8

>  <PUBCHEM_CONFORMER_DIVERSEORDER>  (1) 
1
179
11
268
202
230
103
203
109
302
197
286
301
275
116
201
216
280
143
169
122
242
228
134
145
172
158
49
223
191
295
120
13
149
287
32
142
257
68
210
249
154
55
294
139
170
164
269
150
199
16
71
64
152
24
282
209
178
283
33
45
278
69
212
177
53
208
262
60
189
218
204
195
181
245
173
136
255
205
293
146
70
108
8
165
184
276
114
40
221
91
130
133
155
74
297
272
23
147
80
138
225
193
213
30
87
274
168
240
227
263
233
238
273
63
266
235
59
79
25
264
289
284
183
271
219
270
21
99
131
57
126
95
94
239
115
253
58
125
198
161
187
37
296
121
153
237
163
186
102
62
86
137
247
292
188
36
299
192
6
288
48
215
76
98
211
250
222
124
96
174
277
105
182
66
251
26
29
252
50
185
93
196
112
123
267
52
232
128
217
207
27
46
298
81
127
51
279
113
236
258
206
132
111
5
148
141
38
260
14
89
254
291
180
75
90
200
47
241
44
77
9
65
246
42
194
17
41
73
156
106
78
244
20
151
129
190
226
281
220
67
28
15
83
61
101
300
72
104
82
54
135
88
224
259
19
166
107
100
171
243
84
159
119
35
157
2
234
248
176
118
4
56
34
261
10
97
92
290
117
110
162
7
265
22
140
175
256
39
229
214
18
12
31
231
85
160
43
285
144
3
167

>  <PUBCHEM_MMFF94_PARTIAL_CHARGES>  (1) 
21
1 -0.33
11 0.08
12 0.1
13 -0.15
14 -0.15
15 -0.15
16 -0.15
17 0.23
2 -0.36
22 0.36
3 -0.68
31 0.4
32 0.15
33 0.15
34 0.15
35 0.15
4 -0.9
5 0.27
6 0.28
7 0.27
8 0.28

>  <PUBCHEM_EFFECTIVE_ROTOR_COUNT>  (1) 
7

>  <PUBCHEM_PHARMACOPHORE_FEATURES>  (1) 
8
1 17 hydrophobe
1 2 acceptor
1 3 acceptor
1 3 donor
1 4 cation
1 4 donor
3 7 9 10 hydrophobe
6 11 12 13 14 15 16 rings

>  <PUBCHEM_HEAVY_ATOM_COUNT>  (1) 
17

>  <PUBCHEM_ATOM_DEF_STEREO_COUNT>  (1) 
0

>  <PUBCHEM_ATOM_UDEF_STEREO_COUNT>  (1) 
1

>  <PUBCHEM_BOND_DEF_STEREO_COUNT>  (1) 
0

>  <PUBCHEM_BOND_UDEF_STEREO_COUNT>  (1) 
0

>  <PUBCHEM_ISOTOPIC_ATOM_COUNT>  (1) 
0

>  <PUBCHEM_COMPONENT_COUNT>  (1) 
1

>  <PUBCHEM_CACTVS_TAUTO_COUNT>  (1) 
1

>  <PUBCHEM_CONFORMER_ID>  (1) 
000095D100000001

>  <PUBCHEM_MMFF94_ENERGY>  (1) 
38.5388

>  <PUBCHEM_FEATURE_SELFOVERLAP>  (1) 
40.598

>  <PUBCHEM_SHAPE_FINGERPRINT>  (1) 
10493431 412 18197213857030058408
10498660 4 18408321068799574748
10608611 8 18263641754065114535
11112241 14 16986009474449780248
11132069 177 18261110798483192373
11578080 2 16734657564375189831
11715629 250 18408882906250938887
13140716 1 17903086860622672067
13214271 11 18334575759115581863
13402501 40 18412263973869560824
13544592 271 18334017224182767211
14223421 5 18191022305042428117
14787075 74 18260552272535990107
15196674 1 18409448119926470544
15536298 74 18411422773794794799
18186145 218 18060139873083741930
19784866 170 18333736801435925615
20681677 274 17970343724394576219
21249577 43 18410291436628478632
21524375 3 18408603669490454426
21618674 68 18339359652313447975
21652331 79 18334857216653778500
23402539 116 18342452681991928574
23557571 272 18339654407160421134
23559900 14 18049150077854184963
34934 24 18334852789022557335
3524813 1 18411978087739774192
44154327 71 18261116309195518644
5104073 3 18261959544488041635
537710 114 18335145301443051357
7364860 26 18268147548537266126
7808743 9 18049439546445534888

>  <PUBCHEM_SHAPE_MULTIPOLES>  (1) 
336.98
8.51
2.93
0.9
2.95
0.33
0.04
-2.27
-0.82
1.01
0.08
0.15
-0.19
0.85

>  <PUBCHEM_SHAPE_SELFOVERLAP>  (1) 
655.526

>  <PUBCHEM_SHAPE_VOLUME>  (1) 
205.9

>  <PUBCHEM_COORDINATE_TYPE>  (1) 
2
5
10

$$$$
