38354
     RDKit          3D

 21 25  0  0  1  0  0  0  0  0999 V2000
    1.8103   -2.9586   -0.3155 O   0  0  0  0  0  0  0  0  0  0  0  0
    1.0861   -2.0693    0.4836 C   0  0  0  0  0  0  0  0  0  0  0  0
    2.0688   -1.6946   -0.8540 C   0  0  0  0  0  0  0  0  0  0  0  0
   -0.0421   -1.0893    0.2579 C   0  0  0  0  0  0  0  0  0  0  0  0
    2.7051   -0.4182   -0.3547 C   0  0  0  0  0  0  0  0  0  0  0  0
    0.3340    0.2854    0.1093 C   0  0  0  0  0  0  0  0  0  0  0  0
    1.8017    0.6095    0.0855 C   0  0  0  0  0  0  0  0  0  0  0  0
   -1.3915   -1.4512    0.2464 C   0  0  0  0  0  0  0  0  0  0  0  0
   -0.6722    1.2471   -0.0458 C   0  0  0  0  0  0  0  0  0  0  0  0
   -2.3923   -0.4808    0.0891 C   0  0  0  0  0  0  0  0  0  0  0  0
   -2.0303    0.8805   -0.0569 C   0  0  0  0  0  0  0  0  0  0  0  0
    4.0823   -0.1854   -0.3565 C   0  0  0  0  0  0  0  0  0  0  0  0
    2.3299    1.8358    0.5062 C   0  0  0  0  0  0  0  0  0  0  0  0
   -1.7303   -2.9021    0.4159 C   0  0  0  0  0  0  0  0  0  0  0  0
   -0.3336    2.6821   -0.3358 C   0  0  0  0  0  0  0  0  0  0  0  0
    4.5811    1.0443    0.0700 C   0  0  0  0  0  0  0  0  0  0  0  0
    3.7107    2.0483    0.4965 C   0  0  0  0  0  0  0  0  0  0  0  0
   -3.7512   -0.8354    0.0767 C   0  0  0  0  0  0  0  0  0  0  0  0
   -3.0406    1.8434   -0.2144 C   0  0  0  0  0  0  0  0  0  0  0  0
   -4.7404    0.1357   -0.0787 C   0  0  0  0  0  0  0  0  0  0  0  0
   -4.3856    1.4728   -0.2247 C   0  0  0  0  0  0  0  0  0  0  0  0
  1  2  1  0
  1  3  1  0
  2  3  1  0
  2  4  1  0
  3  5  1  0
  4  6  2  0
  4  8  1  0
  5  7  2  0
  5 12  1  0
  6  7  1  0
  6  9  1  0
  7 13  1  0
  8 10  2  0
  8 14  1  0
  9 11  2  0
  9 15  1  0
 10 11  1  0
 10 18  1  0
 11 19  1  0
 12 16  2  0
 13 17  2  0
 16 17  1  0
 18 20  2  0
 19 21  2  0
 20 21  1  0
M  END
>  <PUBCHEM_COMPOUND_CID>  (1) 
38354

>  <PUBCHEM_CONFORMER_RMSD>  (1) 
0.6

>  <PUBCHEM_CONFORMER_DIVERSEORDER>  (1) 
2
1

>  <PUBCHEM_MMFF94_PARTIAL_CHARGES>  (1) 
27
1 -0.3
12 -0.15
13 -0.15
14 0.14
15 0.14
16 -0.15
17 -0.15
18 -0.15
19 -0.15
2 0.08
20 -0.15
21 -0.15
22 0.1
23 0.1
24 0.15
25 0.15
3 0.08
32 0.15
33 0.15
34 0.15
35 0.15
36 0.15
37 0.15
4 -0.03
5 -0.03
8 -0.14
9 -0.14

>  <PUBCHEM_EFFECTIVE_ROTOR_COUNT>  (1) 
0.2

>  <PUBCHEM_PHARMACOPHORE_FEATURES>  (1) 
5
1 1 acceptor
6 10 11 18 19 20 21 rings
6 4 6 8 9 10 11 rings
6 5 7 12 13 16 17 rings
7 1 2 3 4 5 6 7 rings

>  <PUBCHEM_HEAVY_ATOM_COUNT>  (1) 
21

>  <PUBCHEM_ATOM_DEF_STEREO_COUNT>  (1) 
0

>  <PUBCHEM_ATOM_UDEF_STEREO_COUNT>  (1) 
2

>  <PUBCHEM_BOND_DEF_STEREO_COUNT>  (1) 
0

>  <PUBCHEM_BOND_UDEF_STEREO_COUNT>  (1) 
0

>  <PUBCHEM_ISOTOPIC_ATOM_COUNT>  (1) 
0

>  <PUBCHEM_COMPONENT_COUNT>  (1) 
1

>  <PUBCHEM_CACTVS_TAUTO_COUNT>  (1) 
1

>  <PUBCHEM_CONFORMER_ID>  (1) 
000095D200000002

>  <PUBCHEM_MMFF94_ENERGY>  (1) 
119.8322

>  <PUBCHEM_FEATURE_SELFOVERLAP>  (1) 
25.422

>  <PUBCHEM_SHAPE_FINGERPRINT>  (1) 
10411042 1 17185595711806042211
10498660 4 18334573491272707341
10608611 8 18411138038911493521
10616163 171 18338236092968686978
10646746 165 18409167740192482316
10863032 1 18341050722792986607
10948715 1 18413106186279274374
10967382 1 18410293596806754136
11112241 14 16627974407927685872
11132069 177 18336262452511931520
11370993 70 18410852178788971920
11471102 20 18341612594614658068
12011746 2 18410857659162162124
12236239 1 17313100891263559576
12403259 226 18047187449635014902
12403259 415 18128540551682899600
12730499 353 18411144623513343243
12969540 114 18189034465982968125
13140716 1 18265894846490051696
13380535 76 18410009948713956186
13402501 40 18411418427625799952
13544592 271 18336547230297244547
138480 1 17834394514594187530
14223421 5 18265330616567810701
14787075 74 18272083963336323625
14790565 3 18409457972676977757
15196674 1 18410292505879779685
15219456 202 18412546517606910124
15230672 131 17263266832807053504
15375358 24 18410574006636837121
15536298 74 18341895147527920247
16945 1 18339367370432943178
19591789 44 18409730647017090563
200 152 17632577153881657193
20510252 161 18341896264515277857
20645477 70 18131352964349266487
20739085 24 17975442151692137169
20905425 154 18268148643816710548
21267235 1 18410583885214800119
21279426 13 18267587901397358244
21421861 104 17970061137131612298
221490 88 18338524018996975146
22182313 1 18267042676542436663
23227448 37 18341330101609515687
2334 1 18194967580723163496
23366157 5 17969224443317075562
23402539 116 18411973693581691356
23558518 356 17683241726398109929
23559900 14 18341612569246027702
23566358 2 18196371407879477580
238 59 17759488137557575045
2748010 2 18267313208158326214
2871803 45 18411418380122541172
3323516 105 18412267194424684660
335352 9 18338517439565682686
34934 24 18410569591695520911
350125 39 18119530933934185828
3680242 22 18336263423422149074
474 4 17967820469751864412
495365 180 17632003243588415368
5104073 3 18409168779310824803
59755656 215 18411986819830182990
6138700 20 18339364051220016278
69090 78 18342454871992596279
7364860 26 18268991999247504366
9709674 26 18413112766095637246

>  <PUBCHEM_SHAPE_MULTIPOLES>  (1) 
426.3
8.13
3.05
0.73
0.98
0.96
-0.01
-2.93
-0.28
-0.23
0.07
-0.17
0.05
0.79

>  <PUBCHEM_SHAPE_SELFOVERLAP>  (1) 
970.594

>  <PUBCHEM_SHAPE_VOLUME>  (1) 
224.1

>  <PUBCHEM_COORDINATE_TYPE>  (1) 
2
5
10

$$$$
