38364
     RDKit          3D

 12 11  0  0  1  0  0  0  0  0999 V2000
    0.9569   -1.3663   -0.7192 O   0  0  0  0  0  0  0  0  0  0  0  0
   -2.7664    0.5827   -0.1014 O   0  0  0  0  0  0  0  0  0  0  0  0
   -4.2165   -1.1425    0.4177 O   0  0  0  0  0  0  0  0  0  0  0  0
    0.8998   -0.2715    0.1915 C   0  0  0  0  0  0  0  0  0  0  0  0
    2.1503    0.5942   -0.0079 C   0  0  0  0  0  0  0  0  0  0  0  0
    3.4442   -0.2018    0.1971 C   0  0  0  0  0  0  0  0  0  0  0  0
   -0.3712    0.5465   -0.0587 C   0  0  0  0  0  0  0  0  0  0  0  0
    4.6762    0.6734   -0.0352 C   0  0  0  0  0  0  0  0  0  0  0  0
   -1.6490   -0.2525    0.1737 C   0  0  0  0  0  0  0  0  0  0  0  0
    5.9623   -0.1210    0.1268 C   0  0  0  0  0  0  0  0  0  0  0  0
   -3.9926    0.0058    0.0625 C   0  0  0  0  0  0  0  0  0  0  0  0
   -5.0940    0.9530   -0.2469 C   0  0  0  0  0  0  0  0  0  0  0  0
  1  4  1  0
  2  9  1  0
  2 11  1  0
  3 11  2  0
  4  5  1  0
  4  7  1  0
  5  6  1  0
  6  8  1  0
  7  9  1  0
  8 10  1  0
 11 12  1  0
M  END
>  <PUBCHEM_COMPOUND_CID>  (1) 
38364

>  <PUBCHEM_CONFORMER_RMSD>  (1) 
0.8

>  <PUBCHEM_CONFORMER_DIVERSEORDER>  (1) 
1
16
82
177
98
183
162
64
2
180
121
117
91
72
144
54
168
70
48
175
116
148
133
120
161
9
73
55
5
136
114
4
21
76
57
102
160
74
119
3
47
170
97
8
155
124
172
113
171
100
140
15
56
167
139
141
88
77
78
14
154
173
40
108
10
131
89
146
62
41
157
6
37
13
105
181
51
156
58
18
17
12
145
49
109
28
164
166
182
142
43
96
147
24
45
137
83
71
27
187
95
36
158
75
7
111
126
153
130
19
151
128
178
107
174
186
65
31
134
42
99
115
176
11
90
50
35
112
184
165
179
32
103
52
63
143
30
59
94
118
66
104
20
23
132
138
127
125
159
110
135
67
25
92
46
169
84
61
163
150
86
79
33
26
188
22
80
185
106
123
60
68
39
85
122
53
44
69
87
101
93
38
149
152
29
81
129
34

>  <PUBCHEM_MMFF94_PARTIAL_CHARGES>  (1) 
8
1 -0.68
11 0.66
12 0.06
2 -0.43
27 0.4
3 -0.57
4 0.28
9 0.28

>  <PUBCHEM_EFFECTIVE_ROTOR_COUNT>  (1) 
7

>  <PUBCHEM_PHARMACOPHORE_FEATURES>  (1) 
4
1 1 acceptor
1 1 donor
1 10 hydrophobe
1 3 acceptor

>  <PUBCHEM_HEAVY_ATOM_COUNT>  (1) 
12

>  <PUBCHEM_ATOM_DEF_STEREO_COUNT>  (1) 
0

>  <PUBCHEM_ATOM_UDEF_STEREO_COUNT>  (1) 
1

>  <PUBCHEM_BOND_DEF_STEREO_COUNT>  (1) 
0

>  <PUBCHEM_BOND_UDEF_STEREO_COUNT>  (1) 
0

>  <PUBCHEM_ISOTOPIC_ATOM_COUNT>  (1) 
0

>  <PUBCHEM_COMPONENT_COUNT>  (1) 
1

>  <PUBCHEM_CACTVS_TAUTO_COUNT>  (1) 
1

>  <PUBCHEM_CONFORMER_ID>  (1) 
000095DC00000001

>  <PUBCHEM_MMFF94_ENERGY>  (1) 
8.5605

>  <PUBCHEM_FEATURE_SELFOVERLAP>  (1) 
20.297

>  <PUBCHEM_SHAPE_FINGERPRINT>  (1) 
11062470 55 17967814946476643097
11401426 45 18342455945618388629
14123238 8 11312055452574809648
15501527 16 18409731734145093281
17834072 33 17968381242541845476
17834076 25 16732984219188543136
187816 3 16559033800826742722
20279233 1 18410581673881610183
20645477 56 18261109635333344117
20645477 70 17702949115042801510
20719005 15 18407760343955437896
22485316 2 18187362117007298651
23402539 116 18186515518770811565
23402655 69 18060416876851765301
23557571 272 18040715814388550805
366044 4 18202563990811966646
42788 4 18334857225180448520

>  <PUBCHEM_SHAPE_MULTIPOLES>  (1) 
229.35
12.98
1.01
0.65
3.13
0.12
0.01
-1.45
-0.39
-0.46
0.07
0.03
0.05
0.26

>  <PUBCHEM_SHAPE_SELFOVERLAP>  (1) 
420.034

>  <PUBCHEM_SHAPE_VOLUME>  (1) 
145.9

>  <PUBCHEM_COORDINATE_TYPE>  (1) 
2
5
10

$$$$
