3836
     RDKit          3D

 31 33  0  0  1  0  0  0  0  0999 V2000
    6.6374   -0.6040    1.5331 Cl  0  0  0  0  0  0  0  0  0  0  0  0
   -1.0474   -0.6705    2.4581 S   0  0  0  0  0  0  0  0  0  0  0  0
    0.2469   -0.3603    3.0363 O   0  0  0  0  0  0  0  0  0  0  0  0
   -2.0401   -1.3723    3.2489 O   0  0  0  0  0  0  0  0  0  0  0  0
   -0.0280   -3.8611   -2.3954 O   0  0  0  0  0  0  0  0  0  0  0  0
   -1.3198    2.9603   -0.8938 N   0  0  0  0  0  0  0  0  0  0  0  0
   -1.7254    0.7691    1.8010 N   0  0  0  0  0  0  0  0  0  0  0  0
   -1.4313    1.5053   -0.9886 C   0  0  0  0  0  0  0  0  0  0  0  0
   -2.7352    1.0048   -0.4261 C   0  0  0  0  0  0  0  0  0  0  0  0
   -2.8427    0.6609    0.9152 C   0  0  0  0  0  0  0  0  0  0  0  0
   -0.0199    3.4070   -1.3937 C   0  0  0  0  0  0  0  0  0  0  0  0
   -3.8266    0.8960   -1.2788 C   0  0  0  0  0  0  0  0  0  0  0  0
   -2.4020    3.6055   -1.6362 C   0  0  0  0  0  0  0  0  0  0  0  0
   -4.0617    0.2003    1.4125 C   0  0  0  0  0  0  0  0  0  0  0  0
   -0.7417   -1.6281    1.0012 C   0  0  0  0  0  0  0  0  0  0  0  0
   -5.0457    0.4353   -0.7814 C   0  0  0  0  0  0  0  0  0  0  0  0
   -5.1633    0.0875    0.5642 C   0  0  0  0  0  0  0  0  0  0  0  0
    1.1088    2.7591   -0.6478 C   0  0  0  0  0  0  0  0  0  0  0  0
   -1.7298   -2.4740    0.5314 C   0  0  0  0  0  0  0  0  0  0  0  0
    0.4794   -1.5109    0.3622 C   0  0  0  0  0  0  0  0  0  0  0  0
    2.0412    1.9966   -1.2409 C   0  0  0  0  0  0  0  0  0  0  0  0
   -1.4887   -3.2286   -0.6168 C   0  0  0  0  0  0  0  0  0  0  0  0
    0.7205   -2.2653   -0.7860 C   0  0  0  0  0  0  0  0  0  0  0  0
   -0.2636   -3.1241   -1.2755 C   0  0  0  0  0  0  0  0  0  0  0  0
    3.1754    1.3544   -0.5557 C   0  0  0  0  0  0  0  0  0  0  0  0
    3.5826    1.8332    0.6794 C   0  0  0  0  0  0  0  0  0  0  0  0
    3.8154    0.2833   -1.1592 C   0  0  0  0  0  0  0  0  0  0  0  0
    4.6576    1.2252    1.3280 C   0  0  0  0  0  0  0  0  0  0  0  0
    4.8903   -0.3247   -0.5106 C   0  0  0  0  0  0  0  0  0  0  0  0
    5.3114    0.1463    0.7330 C   0  0  0  0  0  0  0  0  0  0  0  0
    1.2463   -3.7063   -3.0183 C   0  0  0  0  0  0  0  0  0  0  0  0
  1 30  1  0
  2  3  2  0
  2  4  2  0
  2  7  1  0
  2 15  1  0
  5 24  1  0
  5 31  1  0
  6  8  1  0
  6 11  1  0
  6 13  1  0
  7 10  1  0
  8  9  1  0
  9 10  1  0
  9 12  2  0
 10 14  2  0
 11 18  1  0
 12 16  1  0
 14 17  1  0
 15 19  2  0
 15 20  1  0
 16 17  2  0
 18 21  2  0
 19 22  1  0
 20 23  2  0
 21 25  1  0
 22 24  2  0
 23 24  1  0
 25 26  2  0
 25 27  1  0
 26 28  1  0
 27 29  2  0
 28 30  2  0
 29 30  1  0
M  END
>  <PUBCHEM_COMPOUND_CID>  (1) 
3836

>  <PUBCHEM_CONFORMER_RMSD>  (1) 
1

>  <PUBCHEM_CONFORMER_DIVERSEORDER>  (1) 
1
253
176
43
151
336
320
86
113
256
10
75
260
77
209
333
52
250
317
303
221
8
243
16
2
51
294
364
254
17
168
242
368
33
273
377
49
335
382
144
310
122
300
298
378
100
346
355
65
99
274
121
277
161
249
345
4
316
74
66
71
251
35
188
341
70
286
234
329
340
224
288
102
380
180
314
134
339
30
128
141
305
215
106
166
88
45
87
50
246
211
344
58
80
272
196
312
185
302
361
326
289
218
18
245
42
283
139
93
219
297
192
107
350
252
112
171
40
76
238
367
284
334
330
325
138
240
85
338
328
384
200
170
103
237
270
110
64
267
104
279
120
105
276
375
229
174
386
214
101
376
133
190
72
130
124
220
158
285
278
271
291
241
23
123
115
359
147
32
257
172
46
232
157
281
259
183
226
38
324
47
331
261
67
353
255
53
299
290
126
191
205
247
154
282
21
383
231
266
81
136
82
301
318
366
12
59
201
287
327
149
181
295
34
152
164
311
63
204
269
373
182
348
5
236
337
57
227
315
108
116
89
280
135
306
275
29
19
109
319
114
148
362
385
262
14
26
381
258
150
143
323
3
27
73
13
187
68
202
268
343
15
90
210
177
125
95
61
162
199
169
11
145
131
83
372
354
322
28
91
321
356
228
132
118
357
239
117
263
265
225
216
97
7
24
212
119
44
358
56
9
6
369
94
20
197
36
160
244
111
39
165
207
194
163
379
248
365
25
96
69
292
313
54
371
31
156
213
79
203
62
264
153
98
159
230
127
41
48
349
206
167
296
308
222
37
342
363
55
140
347
60
175
374
84
193
173
22
233
352
92
155
195
184
304
351
217
137
208
78
179
309
293
146
223
178
198
332
360
307
189
235
370
142
129
186

>  <PUBCHEM_MMFF94_PARTIAL_CHARGES>  (1) 
46
1 -0.18
10 0.2
11 0.41
12 -0.15
13 0.27
14 -0.15
15 -0.01
16 -0.15
17 -0.15
18 -0.29
19 -0.15
2 1.45
20 -0.15
21 -0.18
22 -0.15
23 -0.15
24 0.08
25 0.03
26 -0.15
27 -0.15
28 -0.15
29 -0.15
3 -0.65
30 0.18
31 0.28
36 0.42
37 0.15
4 -0.65
41 0.15
42 0.15
43 0.15
44 0.15
45 0.15
46 0.15
47 0.15
48 0.15
49 0.15
5 -0.36
50 0.15
51 0.15
52 0.15
53 0.15
6 -0.81
7 -0.76
8 0.41
9 -0.14

>  <PUBCHEM_EFFECTIVE_ROTOR_COUNT>  (1) 
9

>  <PUBCHEM_PHARMACOPHORE_FEATURES>  (1) 
8
1 3 acceptor
1 4 acceptor
1 5 acceptor
1 6 cation
1 7 donor
6 15 19 20 22 23 24 rings
6 25 26 27 28 29 30 rings
6 9 10 12 14 16 17 rings

>  <PUBCHEM_HEAVY_ATOM_COUNT>  (1) 
31

>  <PUBCHEM_ATOM_DEF_STEREO_COUNT>  (1) 
0

>  <PUBCHEM_ATOM_UDEF_STEREO_COUNT>  (1) 
0

>  <PUBCHEM_BOND_DEF_STEREO_COUNT>  (1) 
0

>  <PUBCHEM_BOND_UDEF_STEREO_COUNT>  (1) 
1

>  <PUBCHEM_ISOTOPIC_ATOM_COUNT>  (1) 
0

>  <PUBCHEM_COMPONENT_COUNT>  (1) 
1

>  <PUBCHEM_CACTVS_TAUTO_COUNT>  (1) 
1

>  <PUBCHEM_CONFORMER_ID>  (1) 
00000EFC00000001

>  <PUBCHEM_MMFF94_ENERGY>  (1) 
90.3159

>  <PUBCHEM_FEATURE_SELFOVERLAP>  (1) 
40.615

>  <PUBCHEM_SHAPE_FINGERPRINT>  (1) 
10816530 23 17984695873305738696
11763715 3 16159095400687288539
12156800 1 17402830930835235804
12422481 6 17903106604793190651
12788726 201 18113627776559835140
13165053 137 18338222817347049371
13402501 40 18335988575585529788
13726171 33 17536357783677387220
14114206 34 17168688839374878636
14279260 333 17532076225986041130
14725015 67 18040991834920669601
15403338 16 17096072598281137162
15664445 248 15957205854644783589
16728300 4 17532915122428106002
17492 54 18262216907692470999
20764821 26 18194989510572983422
20771845 140 17628108829876282819
20905425 154 17897719868851475052
238918 7 18340767027497649414
3027735 51 18338521811711150985
3298306 158 17604133875077879445
508706 21 18043264456603332980
5171179 24 17838341774676246166
59755656 215 18188204282996123661
6138700 20 17895187784030751449
6287921 2 18127989507220346095

>  <PUBCHEM_SHAPE_MULTIPOLES>  (1) 
616.11
10.2
4.55
2.68
10.65
1.33
-0.82
-2.84
-3.33
-0.97
4.18
-0.31
1.81
1.26

>  <PUBCHEM_SHAPE_SELFOVERLAP>  (1) 
1290.592

>  <PUBCHEM_SHAPE_VOLUME>  (1) 
350

>  <PUBCHEM_COORDINATE_TYPE>  (1) 
2
5
10

$$$$
