38378
     RDKit          3D

 19 20  0  0  1  0  0  0  0  0999 V2000
   -2.1071    4.1619    0.3474 Cl  0  0  0  0  0  0  0  0  0  0  0  0
    0.0075    0.7173    0.2111 N   0  0  0  0  0  0  0  0  0  0  0  0
   -1.0457    1.6784    0.5364 C   0  0  0  0  0  0  0  0  0  0  0  0
   -0.2989   -0.5912    0.7879 C   0  0  0  0  0  0  0  0  0  0  0  0
    1.3031    1.1967    0.6909 C   0  0  0  0  0  0  0  0  0  0  0  0
   -0.7767    3.0457   -0.0989 C   0  0  0  0  0  0  0  0  0  0  0  0
   -1.6283   -1.1156    0.3142 C   0  0  0  0  0  0  0  0  0  0  0  0
    2.4208    0.2589    0.3195 C   0  0  0  0  0  0  0  0  0  0  0  0
   -0.6679    2.9914   -1.6191 C   0  0  0  0  0  0  0  0  0  0  0  0
   -2.7770   -0.8141    1.0325 C   0  0  0  0  0  0  0  0  0  0  0  0
    2.7670   -0.7686    1.1861 C   0  0  0  0  0  0  0  0  0  0  0  0
   -1.6867   -1.8929   -0.8342 C   0  0  0  0  0  0  0  0  0  0  0  0
    3.0891    0.4347   -0.8842 C   0  0  0  0  0  0  0  0  0  0  0  0
   -4.0088   -1.2996    0.5938 C   0  0  0  0  0  0  0  0  0  0  0  0
    3.8023   -1.6377    0.8420 C   0  0  0  0  0  0  0  0  0  0  0  0
   -2.9186   -2.3783   -1.2730 C   0  0  0  0  0  0  0  0  0  0  0  0
    4.1244   -0.4346   -1.2282 C   0  0  0  0  0  0  0  0  0  0  0  0
   -4.0795   -2.0817   -0.5590 C   0  0  0  0  0  0  0  0  0  0  0  0
    4.4809   -1.4707   -0.3650 C   0  0  0  0  0  0  0  0  0  0  0  0
  1  6  1  0
  2  3  1  0
  2  4  1  0
  2  5  1  0
  3  6  1  0
  4  7  1  0
  5  8  1  0
  6  9  1  0
  7 10  2  0
  7 12  1  0
  8 11  2  0
  8 13  1  0
 10 14  1  0
 11 15  1  0
 12 16  2  0
 13 17  2  0
 14 18  2  0
 15 19  2  0
 16 18  1  0
 17 19  1  0
M  END
>  <PUBCHEM_COMPOUND_CID>  (1) 
38378

>  <PUBCHEM_CONFORMER_RMSD>  (1) 
0.8

>  <PUBCHEM_CONFORMER_DIVERSEORDER>  (1) 
1
5
8
4
7
6
3
2

>  <PUBCHEM_MMFF94_PARTIAL_CHARGES>  (1) 
28
1 -0.29
10 -0.15
11 -0.15
12 -0.15
13 -0.15
14 -0.15
15 -0.15
16 -0.15
17 -0.15
18 -0.15
19 -0.15
2 -0.81
3 0.27
30 0.15
31 0.15
32 0.15
33 0.15
34 0.15
35 0.15
36 0.15
37 0.15
38 0.15
39 0.15
4 0.41
5 0.41
6 0.29
7 -0.14
8 -0.14

>  <PUBCHEM_EFFECTIVE_ROTOR_COUNT>  (1) 
6

>  <PUBCHEM_PHARMACOPHORE_FEATURES>  (1) 
3
1 2 cation
6 7 10 12 14 16 18 rings
6 8 11 13 15 17 19 rings

>  <PUBCHEM_HEAVY_ATOM_COUNT>  (1) 
19

>  <PUBCHEM_ATOM_DEF_STEREO_COUNT>  (1) 
0

>  <PUBCHEM_ATOM_UDEF_STEREO_COUNT>  (1) 
1

>  <PUBCHEM_BOND_DEF_STEREO_COUNT>  (1) 
0

>  <PUBCHEM_BOND_UDEF_STEREO_COUNT>  (1) 
0

>  <PUBCHEM_ISOTOPIC_ATOM_COUNT>  (1) 
0

>  <PUBCHEM_COMPONENT_COUNT>  (1) 
1

>  <PUBCHEM_CACTVS_TAUTO_COUNT>  (1) 
1

>  <PUBCHEM_CONFORMER_ID>  (1) 
000095EA00000001

>  <PUBCHEM_MMFF94_ENERGY>  (1) 
55.5342

>  <PUBCHEM_FEATURE_SELFOVERLAP>  (1) 
15.223

>  <PUBCHEM_SHAPE_FINGERPRINT>  (1) 
10369192 42 16986296447833787064
104564 63 18337111172419649123
11578080 2 18059842978795131568
116883 192 18413387631159552500
12422481 6 17908172917965788041
12553582 1 18337673117393382586
12643181 29 17621604913608317718
12714826 92 18271528606874149144
12788726 201 18408892814893159744
13004483 165 18411693309648077369
13583140 156 14620797067683315090
13681431 1 17974004247658706877
13911987 19 17464276176666626492
13931106 250 18199449009560755062
14178342 30 18119228603118499858
14251751 93 18118127970124360050
14251757 17 15936962054359261399
15885798 251 18341330075976939651
16752209 62 18339070480581224075
17357779 13 18341878715125555421
17539 30 18339916031056823973
1813 80 18340216292156969375
18335252 114 18267848632684459879
20291156 8 18339926020860460994
20361792 2 18339076111283465771
21285901 2 18130518435509191751
21524375 3 17829047606743818193
2255824 54 17690556807333024057
22620623 9 18270410381931621548
22907989 373 18336828589289051428
23419403 2 17416659475745809113
23557571 272 18336813286716116872
23559900 14 16486709068075360682
23598288 3 18190469263699878048
23598291 2 18056209196181357587
25147074 1 17968098552458622850
26353 1 18115017640439151869
3027735 51 18057594383348600575
3091708 16 9279361935101048513
314173 41 18194404621879776815
57262259 84 18335697217820493005
59025328 239 17483071163732545933
603831 33 18333736823338244394
6992083 37 18201170939696898443
7164475 11 18334572400451032846
7364860 26 17691405630478797001
81228 2 18333724723756346321
9862522 239 18124885564462626409

>  <PUBCHEM_SHAPE_MULTIPOLES>  (1) 
387.9
7.93
4.07
1.3
4.8
5
-0.26
-6.51
-0.76
-4.52
-0.81
0.14
-0.04
-0.74

>  <PUBCHEM_SHAPE_SELFOVERLAP>  (1) 
799.511

>  <PUBCHEM_SHAPE_VOLUME>  (1) 
222.8

>  <PUBCHEM_COORDINATE_TYPE>  (1) 
2
5
10

$$$$
