38372
     RDKit          3D

 19 20  0  0  0  0  0  0  0  0999 V2000
    0.6113    2.0333   -1.8660 O   0  0  0  0  0  0  0  0  0  0  0  0
   -1.9114    0.5332   -0.3298 O   0  0  0  0  0  0  0  0  0  0  0  0
   -2.8616   -2.8320   -0.2838 O   0  0  0  0  0  0  0  0  0  0  0  0
   -2.3242   -1.4904   -1.9362 O   0  0  0  0  0  0  0  0  0  0  0  0
    1.7127    1.1059   -0.0439 N   0  0  0  0  0  0  0  0  0  0  0  0
   -2.5005   -1.6908   -0.6980 N   0  0  0  0  0  0  0  0  0  0  0  0
    2.4734    0.1211   -0.7804 C   0  0  0  0  0  0  0  0  0  0  0  0
    3.8295   -0.1375   -0.1152 C   0  0  0  0  0  0  0  0  0  0  0  0
    1.6787   -1.1788   -0.9451 C   0  0  0  0  0  0  0  0  0  0  0  0
    3.7000   -0.9176    1.1930 C   0  0  0  0  0  0  0  0  0  0  0  0
    1.5528   -1.9572    0.3646 C   0  0  0  0  0  0  0  0  0  0  0  0
    2.9154   -2.2120    1.0015 C   0  0  0  0  0  0  0  0  0  0  0  0
    0.8366    1.9874   -0.6597 C   0  0  0  0  0  0  0  0  0  0  0  0
    0.1711    2.9086    0.3475 C   0  0  0  0  0  0  0  0  0  0  0  0
   -1.3511    2.7685    0.3494 C   0  0  0  0  0  0  0  0  0  0  0  0
   -1.7780    1.3693    0.7125 C   0  0  0  0  0  0  0  0  0  0  0  0
   -2.0566    0.7880    1.8987 C   0  0  0  0  0  0  0  0  0  0  0  0
   -2.4008   -0.5471    1.5793 C   0  0  0  0  0  0  0  0  0  0  0  0
   -2.2971   -0.6518    0.2117 C   0  0  0  0  0  0  0  0  0  0  0  0
  1 13  2  0
  2 16  1  0
  2 19  1  0
  3  6  1  0
  4  6  2  0
  5  7  1  0
  5 13  1  0
  6 19  1  0
  7  8  1  0
  7  9  1  0
  8 10  1  0
  9 11  1  0
 10 12  1  0
 11 12  1  0
 13 14  1  0
 14 15  1  0
 15 16  1  0
 16 17  2  0
 17 18  1  0
 18 19  2  0
M  CHG  2   3  -1   6   1
M  END
>  <PUBCHEM_COMPOUND_CID>  (1) 
38372

>  <PUBCHEM_CONFORMER_RMSD>  (1) 
0.8

>  <PUBCHEM_CONFORMER_DIVERSEORDER>  (1) 
1
17
5
116
3
112
28
40
106
60
9
108
54
30
102
7
24
55
41
8
101
85
96
78
66
115
31
51
56
26
91
22
81
20
53
103
63
117
2
113
69
52
11
71
95
83
99
4
86
87
6
74
32
118
39
114
111
98
97
13
61
105
59
42
100
18
73
47
92
89
70
84
33
82
107
50
90
65
109
38
16
77
36
27
64
62
15
94
68
43
76
46
58
29
37
23
49
35
93
44
34
72
104
110
57
75
19
21
79
12
119
80
10
48
67
45
88
14
25

>  <PUBCHEM_MMFF94_PARTIAL_CHARGES>  (1) 
17
1 -0.57
13 0.57
14 0.06
15 0.18
16 -0.04
17 -0.15
18 -0.15
19 0.22
2 -0.28
3 -0.52
31 0.37
36 0.15
37 0.15
4 -0.52
5 -0.73
6 0.96
7 0.3

>  <PUBCHEM_EFFECTIVE_ROTOR_COUNT>  (1) 
7.2

>  <PUBCHEM_PHARMACOPHORE_FEATURES>  (1) 
8
1 1 acceptor
1 2 acceptor
1 3 acceptor
1 3 anion
1 4 acceptor
1 5 donor
5 2 16 17 18 19 rings
6 7 8 9 10 11 12 rings

>  <PUBCHEM_HEAVY_ATOM_COUNT>  (1) 
19

>  <PUBCHEM_ATOM_DEF_STEREO_COUNT>  (1) 
0

>  <PUBCHEM_ATOM_UDEF_STEREO_COUNT>  (1) 
0

>  <PUBCHEM_BOND_DEF_STEREO_COUNT>  (1) 
0

>  <PUBCHEM_BOND_UDEF_STEREO_COUNT>  (1) 
0

>  <PUBCHEM_ISOTOPIC_ATOM_COUNT>  (1) 
0

>  <PUBCHEM_COMPONENT_COUNT>  (1) 
1

>  <PUBCHEM_CACTVS_TAUTO_COUNT>  (1) 
2

>  <PUBCHEM_CONFORMER_ID>  (1) 
000095E400000001

>  <PUBCHEM_MMFF94_ENERGY>  (1) 
17.6916

>  <PUBCHEM_FEATURE_SELFOVERLAP>  (1) 
40.689

>  <PUBCHEM_SHAPE_FINGERPRINT>  (1) 
11321824 6 18268999687107004477
12382932 28 18269562632791825872
12553582 1 18411430521921038882
12633257 1 17845367744071256346
14081887 123 18270668767559853120
14251711 518 18264785275996055763
14787075 74 18055080023858342040
18981168 100 15194694884753173826
19433438 48 18342744009248985514
19777482 4 18266155271947972231
20291156 8 18410579512843108362
20442098 301 18266746775139265856
21731516 1 18338528507237533172
22112679 90 18129958891164083733
23388829 49 18409171034443214252
23419403 2 17052398978771890745
23728640 28 18122340177468725793
257057 1 18338506525663535969
2748010 2 17690863167260772037
2803657 2 18198068185996142678
34934 24 18336557022749125120
85463 6 18338502063540590866

>  <PUBCHEM_SHAPE_MULTIPOLES>  (1) 
357.57
5.72
3.31
1.56
3.64
0.51
-0.08
-2.8
1.37
-1.55
-0.52
-0.51
-0.21
-1.31

>  <PUBCHEM_SHAPE_SELFOVERLAP>  (1) 
738.192

>  <PUBCHEM_SHAPE_VOLUME>  (1) 
203

>  <PUBCHEM_COORDINATE_TYPE>  (1) 
2
5
10

$$$$
