38376
     RDKit          3D

 20 22  0  0  0  0  0  0  0  0999 V2000
   -1.1069   -2.2926    0.3262 O   0  0  0  0  0  0  0  0  0  0  0  0
   -1.1304    2.3039   -0.3217 O   0  0  0  0  0  0  0  0  0  0  0  0
    5.5996   -1.1178   -0.4719 O   0  0  0  0  0  0  0  0  0  0  0  0
    5.7823    0.9691    0.4101 O   0  0  0  0  0  0  0  0  0  0  0  0
   -0.6089    0.0084    0.0032 N   0  0  0  0  0  0  0  0  0  0  0  0
   -2.7904   -0.6649    0.0738 C   0  0  0  0  0  0  0  0  0  0  0  0
   -2.7972    0.6583   -0.0747 C   0  0  0  0  0  0  0  0  0  0  0  0
   -4.0054   -1.5110    0.1876 C   0  0  0  0  0  0  0  0  0  0  0  0
   -4.0209    1.4912   -0.1931 C   0  0  0  0  0  0  0  0  0  0  0  0
   -5.2582   -0.6518    0.4263 C   0  0  0  0  0  0  0  0  0  0  0  0
   -5.2636    0.6185   -0.4361 C   0  0  0  0  0  0  0  0  0  0  0  0
   -1.3965   -1.1219    0.1414 C   0  0  0  0  0  0  0  0  0  0  0  0
   -1.4082    1.1303   -0.1375 C   0  0  0  0  0  0  0  0  0  0  0  0
    0.8235    0.0161    0.0053 C   0  0  0  0  0  0  0  0  0  0  0  0
    1.5185    1.1324    0.4774 C   0  0  0  0  0  0  0  0  0  0  0  0
    1.5325   -1.0928   -0.4635 C   0  0  0  0  0  0  0  0  0  0  0  0
    2.9133    1.1400    0.4804 C   0  0  0  0  0  0  0  0  0  0  0  0
    2.9273   -1.0852   -0.4604 C   0  0  0  0  0  0  0  0  0  0  0  0
    3.6177    0.0312    0.0116 C   0  0  0  0  0  0  0  0  0  0  0  0
    5.0721    0.0384    0.0157 C   0  0  0  0  0  0  0  0  0  0  0  0
  1 12  2  0
  2 13  2  0
  3 20  1  0
  4 20  2  0
  5 12  1  0
  5 13  1  0
  5 14  1  0
  6  7  2  0
  6  8  1  0
  6 12  1  0
  7  9  1  0
  7 13  1  0
  8 10  1  0
  9 11  1  0
 10 11  1  0
 14 15  2  0
 14 16  1  0
 15 17  1  0
 16 18  2  0
 17 19  2  0
 18 19  1  0
 19 20  1  0
M  END
>  <PUBCHEM_COMPOUND_CID>  (1) 
38376

>  <PUBCHEM_CONFORMER_RMSD>  (1) 
0.6

>  <PUBCHEM_CONFORMER_DIVERSEORDER>  (1) 
1
2

>  <PUBCHEM_MMFF94_PARTIAL_CHARGES>  (1) 
23
1 -0.57
12 0.62
13 0.62
14 0.12
15 -0.15
16 -0.15
17 -0.15
18 -0.15
19 0.09
2 -0.57
20 0.63
29 0.15
3 -0.65
30 0.15
31 0.15
32 0.15
33 0.5
4 -0.57
5 -0.24
6 -0.12
7 -0.12
8 0.14
9 0.14

>  <PUBCHEM_EFFECTIVE_ROTOR_COUNT>  (1) 
3

>  <PUBCHEM_PHARMACOPHORE_FEATURES>  (1) 
8
1 1 acceptor
1 2 acceptor
1 3 acceptor
1 4 acceptor
3 3 4 20 anion
5 5 6 7 12 13 rings
6 14 15 16 17 18 19 rings
6 6 7 8 9 10 11 rings

>  <PUBCHEM_HEAVY_ATOM_COUNT>  (1) 
20

>  <PUBCHEM_ATOM_DEF_STEREO_COUNT>  (1) 
0

>  <PUBCHEM_ATOM_UDEF_STEREO_COUNT>  (1) 
0

>  <PUBCHEM_BOND_DEF_STEREO_COUNT>  (1) 
0

>  <PUBCHEM_BOND_UDEF_STEREO_COUNT>  (1) 
0

>  <PUBCHEM_ISOTOPIC_ATOM_COUNT>  (1) 
0

>  <PUBCHEM_COMPONENT_COUNT>  (1) 
1

>  <PUBCHEM_CACTVS_TAUTO_COUNT>  (1) 
1

>  <PUBCHEM_CONFORMER_ID>  (1) 
000095E800000001

>  <PUBCHEM_MMFF94_ENERGY>  (1) 
45.8847

>  <PUBCHEM_FEATURE_SELFOVERLAP>  (1) 
40.728

>  <PUBCHEM_SHAPE_FINGERPRINT>  (1) 
10 15 18338507647520575328
11315181 36 18202005438873206744
11578080 2 13972312785265808297
12011746 2 18411980251949377061
12107183 9 17540806197021128840
12236239 1 17095241419061689936
12403259 415 18342449357112598816
13214271 11 18412542120145942311
13288520 33 18410858754579080999
13402501 40 18412826884482038918
13533116 47 13254529625990563292
13862211 1 18410006650158116699
14341114 176 18411705387349308336
14386348 63 18341897389411249446
15042514 8 18191873529676676475
15196674 1 18411419505546195906
15375358 24 18343022185764802054
17804303 29 18411419531163265744
1813 80 17167582678915851558
19141452 34 18130227155064336007
19489759 90 17530963579646340965
200 152 17489585658283927209
20510252 161 18342176614057465689
20645477 70 17632302220836607678
21267235 1 18409175428194654107
21279426 13 18267586801606265998
21682296 61 17630901404257605550
2297311 6 18411992342667476100
23175994 123 17489873742978209432
23402539 116 18411412929961958463
23402655 69 18202561752727576685
23557571 272 18411424985718984445
23559900 14 18340763827478157088
26918003 58 18273215304903095675
3004659 81 18334297527356254638
335352 9 18410855455864934397
34797466 226 18130240358215914340
34934 24 18410568479188390295
350125 39 18411703205253247040
351380 180 18412261748622489454
3545911 37 18412826880239825653
4214541 1 18410856546929207865
474 4 16444484570695543436
5104073 3 18411699842251137474
542803 24 16515405166155926798
59755656 215 18336547127155167646
59755656 520 17022620879634873259
69090 78 18272929444944474655
9709674 26 18412832394999543550

>  <PUBCHEM_SHAPE_MULTIPOLES>  (1) 
383.13
12.22
1.82
0.69
5.94
0
0
0.08
0.03
-0.78
0
0.01
0
0.84

>  <PUBCHEM_SHAPE_SELFOVERLAP>  (1) 
844.904

>  <PUBCHEM_SHAPE_VOLUME>  (1) 
205.2

>  <PUBCHEM_COORDINATE_TYPE>  (1) 
2
5
10

$$$$
