3837
     RDKit          3D

 34 36  0  0  1  0  0  0  0  0999 V2000
    6.3050   -4.2084   -0.5675 Cl  0  0  0  0  0  0  0  0  0  0  0  0
   -0.9059   -0.3703    0.8387 S   0  0  0  0  0  0  0  0  0  0  0  0
   -1.1999    0.5647    1.9096 O   0  0  0  0  0  0  0  0  0  0  0  0
    0.2074   -1.2900    0.9853 O   0  0  0  0  0  0  0  0  0  0  0  0
    1.6254    0.0423   -2.1304 O   0  0  0  0  0  0  0  0  0  0  0  0
   -5.7695   -3.6523    0.0253 O   0  0  0  0  0  0  0  0  0  0  0  0
   -0.7593    0.4860   -0.6703 N   0  0  0  0  0  0  0  0  0  0  0  0
    0.9210    2.8434    1.3033 N   0  0  0  0  0  0  0  0  0  0  0  0
   -1.4233    1.7493   -0.7582 C   0  0  0  0  0  0  0  0  0  0  0  0
   -0.7361    2.9375   -0.5109 C   0  0  0  0  0  0  0  0  0  0  0  0
    0.7240    2.9290   -0.1432 C   0  0  0  0  0  0  0  0  0  0  0  0
   -0.7316   -0.3509   -1.9095 C   0  0  0  0  0  0  0  0  0  0  0  0
   -2.3610   -1.3530    0.5960 C   0  0  0  0  0  0  0  0  0  0  0  0
   -2.7761    1.7836   -1.0966 C   0  0  0  0  0  0  0  0  0  0  0  0
   -1.4014    4.1601   -0.6018 C   0  0  0  0  0  0  0  0  0  0  0  0
    2.3469    2.7777    1.6220 C   0  0  0  0  0  0  0  0  0  0  0  0
    0.3850    0.1252   -2.8206 C   0  0  0  0  0  0  0  0  0  0  0  0
   -3.4416    3.0062   -1.1878 C   0  0  0  0  0  0  0  0  0  0  0  0
   -2.7542    4.1944   -0.9403 C   0  0  0  0  0  0  0  0  0  0  0  0
    0.3000    3.9860    1.9723 C   0  0  0  0  0  0  0  0  0  0  0  0
   -2.2552   -2.6351    0.0570 C   0  0  0  0  0  0  0  0  0  0  0  0
   -3.6123   -0.8433    0.9430 C   0  0  0  0  0  0  0  0  0  0  0  0
    2.9039    1.4074    1.3734 C   0  0  0  0  0  0  0  0  0  0  0  0
   -3.4006   -3.4076   -0.1350 C   0  0  0  0  0  0  0  0  0  0  0  0
   -4.7577   -1.6158    0.7510 C   0  0  0  0  0  0  0  0  0  0  0  0
   -4.6519   -2.8979    0.2118 C   0  0  0  0  0  0  0  0  0  0  0  0
    3.9042    1.1645    0.5117 C   0  0  0  0  0  0  0  0  0  0  0  0
    4.4953   -0.1579    0.2463 C   0  0  0  0  0  0  0  0  0  0  0  0
    4.3367   -1.1909    1.1701 C   0  0  0  0  0  0  0  0  0  0  0  0
    5.2137   -0.3774   -0.9290 C   0  0  0  0  0  0  0  0  0  0  0  0
   -7.0161   -3.0701    0.4028 C   0  0  0  0  0  0  0  0  0  0  0  0
    4.8965   -2.4434    0.9186 C   0  0  0  0  0  0  0  0  0  0  0  0
    5.7736   -1.6299   -1.1805 C   0  0  0  0  0  0  0  0  0  0  0  0
    5.6150   -2.6629   -0.2566 C   0  0  0  0  0  0  0  0  0  0  0  0
  1 34  1  0
  2  3  2  0
  2  4  2  0
  2  7  1  0
  2 13  1  0
  5 17  1  0
  6 26  1  0
  6 31  1  0
  7  9  1  0
  7 12  1  0
  8 11  1  0
  8 16  1  0
  8 20  1  0
  9 10  1  0
  9 14  2  0
 10 11  1  0
 10 15  2  0
 12 17  1  0
 13 21  2  0
 13 22  1  0
 14 18  1  0
 15 19  1  0
 16 23  1  0
 18 19  2  0
 21 24  1  0
 22 25  2  0
 23 27  2  0
 24 26  2  0
 25 26  1  0
 27 28  1  0
 28 29  2  0
 28 30  1  0
 29 32  1  0
 30 33  2  0
 32 34  2  0
 33 34  1  0
M  END
>  <PUBCHEM_COMPOUND_CID>  (1) 
3837

>  <PUBCHEM_CONFORMER_RMSD>  (1) 
1

>  <PUBCHEM_CONFORMER_DIVERSEORDER>  (1) 
3
189
147
135
151
133
137
80
113
32
167
5
114
188
130
63
94
53
56
193
129
162
159
10
160
156
175
66
173
148
24
115
81
181
155
205
100
178
208
83
132
128
123
13
203
141
89
146
2
39
183
206
31
12
199
111
207
202
48
142
201
68
86
35
174
28
120
27
149
33
109
117
75
65
191
21
127
194
90
134
14
4
110
107
165
52
121
9
95
209
131
182
170
116
101
60
169
177
186
78
139
8
84
145
138
17
91
103
67
25
172
64
180
41
140
34
38
163
74
37
168
61
119
50
30
87
164
195
18
104
97
112
70
122
190
62
58
204
16
136
143
93
88
42
184
154
108
69
125
176
82
179
197
15
124
72
29
99
98
185
210
46
187
96
192
26
126
198
161
73
77
92
158
45
36
166
144
40
150
196
85
59
23
11
76
118
49
102
105
153
71
20
79
200
171
7
152
54
57
157
6
44
106
22
43
47
55
19
51
1

>  <PUBCHEM_MMFF94_PARTIAL_CHARGES>  (1) 
49
1 -0.18
10 -0.14
11 0.41
12 0.36
13 -0.01
14 -0.15
15 -0.15
16 0.41
17 0.28
18 -0.15
19 -0.15
2 1.45
20 0.27
21 -0.15
22 -0.15
23 -0.29
24 -0.15
25 -0.15
26 0.08
27 -0.18
28 0.03
29 -0.15
3 -0.65
30 -0.15
31 0.28
32 -0.15
33 -0.15
34 0.18
39 0.15
4 -0.65
40 0.15
45 0.15
46 0.15
5 -0.68
50 0.15
51 0.15
52 0.15
53 0.15
54 0.15
55 0.4
56 0.15
57 0.15
58 0.15
6 -0.36
62 0.15
63 0.15
7 -0.69
8 -0.81
9 0.2

>  <PUBCHEM_EFFECTIVE_ROTOR_COUNT>  (1) 
11

>  <PUBCHEM_PHARMACOPHORE_FEATURES>  (1) 
9
1 3 acceptor
1 4 acceptor
1 5 acceptor
1 5 donor
1 6 acceptor
1 8 cation
6 13 21 22 24 25 26 rings
6 28 29 30 32 33 34 rings
6 9 10 14 15 18 19 rings

>  <PUBCHEM_HEAVY_ATOM_COUNT>  (1) 
34

>  <PUBCHEM_ATOM_DEF_STEREO_COUNT>  (1) 
0

>  <PUBCHEM_ATOM_UDEF_STEREO_COUNT>  (1) 
0

>  <PUBCHEM_BOND_DEF_STEREO_COUNT>  (1) 
0

>  <PUBCHEM_BOND_UDEF_STEREO_COUNT>  (1) 
1

>  <PUBCHEM_ISOTOPIC_ATOM_COUNT>  (1) 
0

>  <PUBCHEM_COMPONENT_COUNT>  (1) 
1

>  <PUBCHEM_CACTVS_TAUTO_COUNT>  (1) 
1

>  <PUBCHEM_CONFORMER_ID>  (1) 
00000EFD00000003

>  <PUBCHEM_MMFF94_ENERGY>  (1) 
101.9134

>  <PUBCHEM_FEATURE_SELFOVERLAP>  (1) 
45.691

>  <PUBCHEM_SHAPE_FINGERPRINT>  (1) 
10764073 3 18130238073076930561
11409948 41 17912344727444918863
11756154 5 18269264665647139794
11991303 11 17751352885863491981
12422481 6 16773806869835511150
12633046 712 18263635183324178750
12788726 201 18116175374611969790
13165053 137 17045414575743363082
13785724 45 18337396070923248475
14068700 675 18260271862801106286
14114206 34 14851892387982682142
14347332 77 18335701607530764098
15420108 30 16464722408733152177
3383291 50 18052809256946111138
404807 14 18341622485935709363
44062 13 18265612092082526506
484985 159 18126295138184877488
513202 73 18408045095918764851
57527585 103 17843141207218801748
70251023 43 18336549433604866256

>  <PUBCHEM_SHAPE_MULTIPOLES>  (1) 
671.98
13.42
6.41
1.86
8.86
1.53
-0.49
-20.18
-0.15
-4.99
0.49
0.6
1.01
2.89

>  <PUBCHEM_SHAPE_SELFOVERLAP>  (1) 
1395.517

>  <PUBCHEM_SHAPE_VOLUME>  (1) 
385

>  <PUBCHEM_COORDINATE_TYPE>  (1) 
2
5
10

$$$$
