38389
     RDKit          3D

 11 11  0  0  0  0  0  0  0  0999 V2000
   -1.3058    2.0943   -0.0073 Cl  0  0  0  0  0  0  0  0  0  0  0  0
   -4.1743   -1.0200    0.0039 O   0  0  0  0  0  0  0  0  0  0  0  0
    0.5507    0.1303   -0.0004 C   0  0  0  0  0  0  0  0  0  0  0  0
    1.2354   -0.0069   -1.2079 C   0  0  0  0  0  0  0  0  0  0  0  0
    1.2355    0.0021    1.2080 C   0  0  0  0  0  0  0  0  0  0  0  0
   -0.8773    0.4077   -0.0015 C   0  0  0  0  0  0  0  0  0  0  0  0
    2.6049   -0.2723   -1.2070 C   0  0  0  0  0  0  0  0  0  0  0  0
    2.6049   -0.2632    1.2089 C   0  0  0  0  0  0  0  0  0  0  0  0
    3.2895   -0.4004    0.0014 C   0  0  0  0  0  0  0  0  0  0  0  0
   -1.8628   -0.5114    0.0016 C   0  0  0  0  0  0  0  0  0  0  0  0
   -3.3007   -0.1601    0.0003 C   0  0  0  0  0  0  0  0  0  0  0  0
  1  6  1  0
  2 11  2  0
  3  4  2  0
  3  5  1  0
  3  6  1  0
  4  7  1  0
  5  8  2  0
  6 10  2  0
  7  9  2  0
  8  9  1  0
 10 11  1  0
M  END
>  <PUBCHEM_COMPOUND_CID>  (1) 
38389

>  <PUBCHEM_CONFORMER_RMSD>  (1) 
0.4

>  <PUBCHEM_CONFORMER_DIVERSEORDER>  (1) 
1
2

>  <PUBCHEM_MMFF94_PARTIAL_CHARGES>  (1) 
18
1 -0.14
10 -0.14
11 0.5
12 0.15
13 0.15
14 0.15
15 0.15
16 0.15
17 0.15
18 0.06
2 -0.57
3 0.03
4 -0.15
5 -0.15
6 0.11
7 -0.15
8 -0.15
9 -0.15

>  <PUBCHEM_EFFECTIVE_ROTOR_COUNT>  (1) 
2

>  <PUBCHEM_PHARMACOPHORE_FEATURES>  (1) 
2
1 2 acceptor
6 3 4 5 7 8 9 rings

>  <PUBCHEM_HEAVY_ATOM_COUNT>  (1) 
11

>  <PUBCHEM_ATOM_DEF_STEREO_COUNT>  (1) 
0

>  <PUBCHEM_ATOM_UDEF_STEREO_COUNT>  (1) 
0

>  <PUBCHEM_BOND_DEF_STEREO_COUNT>  (1) 
0

>  <PUBCHEM_BOND_UDEF_STEREO_COUNT>  (1) 
1

>  <PUBCHEM_ISOTOPIC_ATOM_COUNT>  (1) 
0

>  <PUBCHEM_COMPONENT_COUNT>  (1) 
1

>  <PUBCHEM_CACTVS_TAUTO_COUNT>  (1) 
1

>  <PUBCHEM_CONFORMER_ID>  (1) 
000095F500000001

>  <PUBCHEM_MMFF94_ENERGY>  (1) 
30.3902

>  <PUBCHEM_FEATURE_SELFOVERLAP>  (1) 
10.148

>  <PUBCHEM_SHAPE_FINGERPRINT>  (1) 
10219947 1 16272208595744424186
10857977 72 18201997729116772705
12932764 1 17489579031064954774
14252887 29 18059300949795933819
14993402 34 17022906735525457546
15219456 202 17346595231795775240
15501101 241 17131834291352560105
17844478 74 17489307460161762609
18186145 218 12685082666765858519
200 152 17095240315218184681
20281407 28 18202289095408466887
20606313 2 14996002163903846270
20645477 70 15574703677991953899
21119208 17 16515399677346276791
228727 97 17895491274772301636
23402539 116 18409441479621882830
23402655 69 15574704799078761495
23557571 272 18272092669398699376
3248919 1 17313111808569058536
77492 1 17604153627257732453
8030462 33 17603595096983829824

>  <PUBCHEM_SHAPE_MULTIPOLES>  (1) 
222.38
5.9
1.19
1.15
3.4
0.73
0
-2.09
-0.01
1.01
0
-1.02
-0.05
0.01

>  <PUBCHEM_SHAPE_SELFOVERLAP>  (1) 
450.713

>  <PUBCHEM_SHAPE_VOLUME>  (1) 
129.5

>  <PUBCHEM_COORDINATE_TYPE>  (1) 
2
5
10

$$$$
