38386
     RDKit          3D

 17 18  0  0  0  0  0  0  0  0999 V2000
   -1.6264   -2.8372   -0.3310 Br  0  0  0  0  0  0  0  0  0  0  0  0
   -4.4307   -1.1470   -1.2089 Br  0  0  0  0  0  0  0  0  0  0  0  0
   -4.5994    2.1665   -0.4401 Br  0  0  0  0  0  0  0  0  0  0  0  0
    5.5731    0.9869   -1.2398 Br  0  0  0  0  0  0  0  0  0  0  0  0
    0.3476   -0.9803    1.0654 O   0  0  0  0  0  0  0  0  0  0  0  0
   -0.8099   -0.3165    0.6948 C   0  0  0  0  0  0  0  0  0  0  0  0
    1.5249   -0.5368    0.5463 C   0  0  0  0  0  0  0  0  0  0  0  0
   -1.8395   -0.9751    0.0456 C   0  0  0  0  0  0  0  0  0  0  0  0
   -0.8926    1.0320    1.0009 C   0  0  0  0  0  0  0  0  0  0  0  0
   -2.9867   -0.2650   -0.3089 C   0  0  0  0  0  0  0  0  0  0  0  0
   -2.0397    1.7420    0.6466 C   0  0  0  0  0  0  0  0  0  0  0  0
    1.6174   -0.2320   -0.8116 C   0  0  0  0  0  0  0  0  0  0  0  0
    2.6394   -0.3882    1.3719 C   0  0  0  0  0  0  0  0  0  0  0  0
   -3.0867    1.0935   -0.0081 C   0  0  0  0  0  0  0  0  0  0  0  0
    2.8241    0.2215   -1.3441 C   0  0  0  0  0  0  0  0  0  0  0  0
    3.8464    0.0653    0.8396 C   0  0  0  0  0  0  0  0  0  0  0  0
    3.9388    0.3703   -0.5185 C   0  0  0  0  0  0  0  0  0  0  0  0
  1  8  1  0
  2 10  1  0
  3 14  1  0
  4 17  1  0
  5  6  1  0
  5  7  1  0
  6  8  2  0
  6  9  1  0
  7 12  2  0
  7 13  1  0
  8 10  1  0
  9 11  2  0
 10 14  2  0
 11 14  1  0
 12 15  1  0
 13 16  2  0
 15 17  2  0
 16 17  1  0
M  END
>  <PUBCHEM_COMPOUND_CID>  (1) 
38386

>  <PUBCHEM_CONFORMER_RMSD>  (1) 
0.6

>  <PUBCHEM_CONFORMER_DIVERSEORDER>  (1) 
1
6
2
7
5
3
4

>  <PUBCHEM_MMFF94_PARTIAL_CHARGES>  (1) 
23
1 -0.11
10 0.11
11 -0.15
12 -0.15
13 -0.15
14 0.11
15 -0.15
16 -0.15
17 0.11
18 0.15
19 0.15
2 -0.11
20 0.15
21 0.15
22 0.15
23 0.15
3 -0.11
4 -0.11
5 -0.17
6 0.08
7 0.08
8 0.11
9 -0.15

>  <PUBCHEM_EFFECTIVE_ROTOR_COUNT>  (1) 
2

>  <PUBCHEM_PHARMACOPHORE_FEATURES>  (1) 
7
1 1 hydrophobe
1 2 hydrophobe
1 3 hydrophobe
1 4 hydrophobe
1 5 acceptor
6 6 8 9 10 11 14 rings
6 7 12 13 15 16 17 rings

>  <PUBCHEM_HEAVY_ATOM_COUNT>  (1) 
17

>  <PUBCHEM_ATOM_DEF_STEREO_COUNT>  (1) 
0

>  <PUBCHEM_ATOM_UDEF_STEREO_COUNT>  (1) 
0

>  <PUBCHEM_BOND_DEF_STEREO_COUNT>  (1) 
0

>  <PUBCHEM_BOND_UDEF_STEREO_COUNT>  (1) 
0

>  <PUBCHEM_ISOTOPIC_ATOM_COUNT>  (1) 
0

>  <PUBCHEM_COMPONENT_COUNT>  (1) 
1

>  <PUBCHEM_CACTVS_TAUTO_COUNT>  (1) 
1

>  <PUBCHEM_CONFORMER_ID>  (1) 
000095F200000001

>  <PUBCHEM_MMFF94_ENERGY>  (1) 
55.1301

>  <PUBCHEM_FEATURE_SELFOVERLAP>  (1) 
35.523

>  <PUBCHEM_SHAPE_FINGERPRINT>  (1) 
10366900 7 17275107206567062500
10498660 4 18343300336252410633
11089746 13 18113336436406683916
11640471 11 17967538973395152220
12173636 292 18268701728299077997
12236239 1 18040712567245302067
12500047 106 18342457041151781214
13675066 3 13117999976644263304
14350574 20 15913335723369771884
14739800 52 18265038306433611400
14790565 3 18056765317491181249
15342168 16 16805901644431023988
15775835 57 18113621153218441956
16752209 62 18340474634777622235
16945 1 18412825815373078427
18186145 218 17632857503740356563
20300324 65 18343306980471638140
20645476 183 18334857216880820215
20645477 56 18412552011038958265
20645477 70 16056884650151614006
20871999 31 18272930535934369381
23402539 116 18271515433893025540
23402655 69 18186802491611583694
23557571 272 18060421347527591985
23559900 14 17988641853154972966
2748010 2 17765697402385595459
2838139 119 18192440882203847556
3268164 11 18343011199386100341
3472631 163 18335144184683132412
4028521 119 18342740693355105501
465052 167 11311471642298229629
474 4 17240488047984924948
5104073 3 16805324431371787104
633830 44 17750234712233373899
77492 1 18040708160593116818

>  <PUBCHEM_SHAPE_MULTIPOLES>  (1) 
367.75
10.36
2.16
1.35
6.75
0.55
0.07
-4.02
4.49
-3.2
0.2
0.89
-0.01
-0.94

>  <PUBCHEM_SHAPE_SELFOVERLAP>  (1) 
733.257

>  <PUBCHEM_SHAPE_VOLUME>  (1) 
227.7

>  <PUBCHEM_COORDINATE_TYPE>  (1) 
2
5
10

$$$$
