38385
     RDKit          3D

 16 17  0  0  0  0  0  0  0  0999 V2000
    1.1731   -2.4154    0.1919 Br  0  0  0  0  0  0  0  0  0  0  0  0
   -3.6309   -0.2008   -2.4238 Br  0  0  0  0  0  0  0  0  0  0  0  0
    4.5267   -1.8000   -0.1237 Br  0  0  0  0  0  0  0  0  0  0  0  0
   -5.0902   -0.2699    0.7152 Br  0  0  0  0  0  0  0  0  0  0  0  0
   -0.4612    0.2734    0.2011 C   0  0  0  0  0  0  0  0  0  0  0  0
    0.9701    0.4432    0.0740 C   0  0  0  0  0  0  0  0  0  0  0  0
   -1.2529    0.1389   -0.9395 C   0  0  0  0  0  0  0  0  0  0  0  0
   -1.0495    0.2453    1.4656 C   0  0  0  0  0  0  0  0  0  0  0  0
    1.8601   -0.6338    0.0470 C   0  0  0  0  0  0  0  0  0  0  0  0
    1.4600    1.7478   -0.0251 C   0  0  0  0  0  0  0  0  0  0  0  0
   -2.6326   -0.0237   -0.8156 C   0  0  0  0  0  0  0  0  0  0  0  0
   -2.4293    0.0828    1.5894 C   0  0  0  0  0  0  0  0  0  0  0  0
    3.2308   -0.4072   -0.0782 C   0  0  0  0  0  0  0  0  0  0  0  0
    2.8306    1.9743   -0.1503 C   0  0  0  0  0  0  0  0  0  0  0  0
   -3.2208   -0.0518    0.4488 C   0  0  0  0  0  0  0  0  0  0  0  0
    3.7161    0.8968   -0.1768 C   0  0  0  0  0  0  0  0  0  0  0  0
  1  9  1  0
  2 11  1  0
  3 13  1  0
  4 15  1  0
  5  6  1  0
  5  7  2  0
  5  8  1  0
  6  9  2  0
  6 10  1  0
  7 11  1  0
  8 12  2  0
  9 13  1  0
 10 14  2  0
 11 15  2  0
 12 15  1  0
 13 16  2  0
 14 16  1  0
M  END
>  <PUBCHEM_COMPOUND_CID>  (1) 
38385

>  <PUBCHEM_CONFORMER_RMSD>  (1) 
0.6

>  <PUBCHEM_CONFORMER_DIVERSEORDER>  (1) 
1
2

>  <PUBCHEM_MMFF94_PARTIAL_CHARGES>  (1) 
20
1 -0.11
10 -0.15
11 0.11
12 -0.15
13 0.11
14 -0.15
15 0.11
16 -0.15
17 0.15
18 0.15
19 0.15
2 -0.11
20 0.15
21 0.15
22 0.15
3 -0.11
4 -0.11
7 -0.15
8 -0.15
9 0.11

>  <PUBCHEM_EFFECTIVE_ROTOR_COUNT>  (1) 
1

>  <PUBCHEM_PHARMACOPHORE_FEATURES>  (1) 
6
1 1 hydrophobe
1 2 hydrophobe
1 3 hydrophobe
1 4 hydrophobe
6 5 7 8 11 12 15 rings
6 6 9 10 13 14 16 rings

>  <PUBCHEM_HEAVY_ATOM_COUNT>  (1) 
16

>  <PUBCHEM_ATOM_DEF_STEREO_COUNT>  (1) 
0

>  <PUBCHEM_ATOM_UDEF_STEREO_COUNT>  (1) 
0

>  <PUBCHEM_BOND_DEF_STEREO_COUNT>  (1) 
0

>  <PUBCHEM_BOND_UDEF_STEREO_COUNT>  (1) 
0

>  <PUBCHEM_ISOTOPIC_ATOM_COUNT>  (1) 
0

>  <PUBCHEM_COMPONENT_COUNT>  (1) 
1

>  <PUBCHEM_CACTVS_TAUTO_COUNT>  (1) 
1

>  <PUBCHEM_CONFORMER_ID>  (1) 
000095F100000001

>  <PUBCHEM_MMFF94_ENERGY>  (1) 
48.7921

>  <PUBCHEM_FEATURE_SELFOVERLAP>  (1) 
30.449

>  <PUBCHEM_SHAPE_FINGERPRINT>  (1) 
10062212 137 17561359591370477447
10498660 4 15647322014438425037
11471102 20 18408326592275008976
12186901 62 16226047764905748071
12236239 1 17847065484123536064
12403259 415 17603865606719110525
12553582 1 18339638919967475878
13134695 92 18408884032091715084
13464514 151 17534044286198752845
13538477 17 17275103950944805421
13581323 91 14923940180414518921
13760787 19 18131354141914116591
13760787 5 18272085006680742693
13862211 1 18337113337938455690
14251717 144 18410860949360402690
15219456 202 17894909637463453125
15375462 189 17917989464789003771
16752209 62 16773793650569680769
16945 1 18409160000371290594
1813 80 18056779649806609966
18175812 5 17677057939695948626
18186145 218 18261106387409270142
19049666 15 17604421878093344825
19422 9 17847059999492568758
200 152 18343299249683323801
20279233 1 17603588551274271016
20510252 161 16515677849809804165
20645477 70 18334013882830092490
20871999 31 15791737373330779615
21065201 7 16515400780936458017
21639500 275 18338795723160321344
22112679 90 17418372488996893785
2255824 54 18341900714348848332
23402539 116 16559028311468414692
23419403 2 14930072036725256882
23526113 38 17680128703884502951
23557571 272 16732988583276398727
23559900 14 16588297238544400586
23598291 2 18131630079976434541
23728640 28 15452268286325423203
2748010 2 18190754218059177082
3286 77 18261399935544292074
4340502 62 18339940293954839755
474 4 17772178980313188784
5281201 14 17749108893746235348
573450 72 16988841670299403175
6049 1 17530972405287514068
633830 44 18271540765705290900
69090 78 17968096481899556835
77492 1 17775007898781154608
8272917 22 18341344288276825803

>  <PUBCHEM_SHAPE_MULTIPOLES>  (1) 
353.04
9.01
1.84
1.51
2.27
0.36
-0.59
1.78
-0.72
-2.68
0
2.44
0.07
-0.14

>  <PUBCHEM_SHAPE_SELFOVERLAP>  (1) 
704.567

>  <PUBCHEM_SHAPE_VOLUME>  (1) 
211.3

>  <PUBCHEM_COORDINATE_TYPE>  (1) 
2
5
10

$$$$
