38390
     RDKit          3D

 21 22  0  0  0  0  0  0  0  0999 V2000
    5.4435    3.6856    0.1485 Br  0  0  0  0  0  0  0  0  0  0  0  0
    4.5997   -4.1495   -0.4772 Br  0  0  0  0  0  0  0  0  0  0  0  0
    3.6544   -0.0934   -0.0563 N   0  0  0  0  0  0  0  0  0  0  0  0
   -1.8920    0.4581    0.4662 N   0  0  0  0  0  0  0  0  0  0  0  0
   -2.4751   -0.2908   -0.3526 N   0  0  0  0  0  0  0  0  0  0  0  0
    4.4766    1.0484   -0.4049 C   0  0  0  0  0  0  0  0  0  0  0  0
    4.2884   -1.3776    0.1672 C   0  0  0  0  0  0  0  0  0  0  0  0
    2.2576    0.0464    0.0768 C   0  0  0  0  0  0  0  0  0  0  0  0
    1.5776    1.0029   -0.6771 C   0  0  0  0  0  0  0  0  0  0  0  0
    1.5555   -0.7727    0.9609 C   0  0  0  0  0  0  0  0  0  0  0  0
    4.3472    2.1476    0.6318 C   0  0  0  0  0  0  0  0  0  0  0  0
    3.7540   -2.4217   -0.7939 C   0  0  0  0  0  0  0  0  0  0  0  0
    0.1956    1.1403   -0.5471 C   0  0  0  0  0  0  0  0  0  0  0  0
    0.1735   -0.6354    1.0910 C   0  0  0  0  0  0  0  0  0  0  0  0
   -0.4994    0.3204    0.3364 C   0  0  0  0  0  0  0  0  0  0  0  0
   -3.8606   -0.1543   -0.2236 C   0  0  0  0  0  0  0  0  0  0  0  0
   -4.5407    0.8012   -0.9788 C   0  0  0  0  0  0  0  0  0  0  0  0
   -4.5628   -0.9736    0.6602 C   0  0  0  0  0  0  0  0  0  0  0  0
   -5.9229    0.9374   -0.8501 C   0  0  0  0  0  0  0  0  0  0  0  0
   -5.9450   -0.8375    0.7889 C   0  0  0  0  0  0  0  0  0  0  0  0
   -6.6251    0.1181    0.0337 C   0  0  0  0  0  0  0  0  0  0  0  0
  1 11  1  0
  2 12  1  0
  3  6  1  0
  3  7  1  0
  3  8  1  0
  4  5  2  0
  4 15  1  0
  5 16  1  0
  6 11  1  0
  7 12  1  0
  8  9  2  0
  8 10  1  0
  9 13  1  0
 10 14  2  0
 13 15  2  0
 14 15  1  0
 16 17  2  0
 16 18  1  0
 17 19  1  0
 18 20  2  0
 19 21  2  0
 20 21  1  0
M  END
>  <PUBCHEM_COMPOUND_CID>  (1) 
38390

>  <PUBCHEM_CONFORMER_RMSD>  (1) 
0.8

>  <PUBCHEM_CONFORMER_DIVERSEORDER>  (1) 
1
21
9
13
11
26
24
2
22
8
12
20
5
28
27
25
16
3
19
15
29
10
23
7
30
4
6
18
17
14

>  <PUBCHEM_MMFF94_PARTIAL_CHARGES>  (1) 
30
1 -0.23
10 -0.15
11 0.23
12 0.23
13 -0.15
14 -0.15
15 0.18
16 0.18
17 -0.15
18 -0.15
19 -0.15
2 -0.23
20 -0.15
21 -0.15
26 0.15
27 0.15
3 -0.84
32 0.15
33 0.15
34 0.15
35 0.15
36 0.15
37 0.15
38 0.15
4 -0.18
5 -0.18
6 0.37
7 0.37
8 0.1
9 -0.15

>  <PUBCHEM_EFFECTIVE_ROTOR_COUNT>  (1) 
7

>  <PUBCHEM_PHARMACOPHORE_FEATURES>  (1) 
5
1 1 hydrophobe
1 2 hydrophobe
1 3 cation
6 16 17 18 19 20 21 rings
6 8 9 10 13 14 15 rings

>  <PUBCHEM_HEAVY_ATOM_COUNT>  (1) 
21

>  <PUBCHEM_ATOM_DEF_STEREO_COUNT>  (1) 
0

>  <PUBCHEM_ATOM_UDEF_STEREO_COUNT>  (1) 
0

>  <PUBCHEM_BOND_DEF_STEREO_COUNT>  (1) 
0

>  <PUBCHEM_BOND_UDEF_STEREO_COUNT>  (1) 
0

>  <PUBCHEM_ISOTOPIC_ATOM_COUNT>  (1) 
0

>  <PUBCHEM_COMPONENT_COUNT>  (1) 
1

>  <PUBCHEM_CACTVS_TAUTO_COUNT>  (1) 
1

>  <PUBCHEM_CONFORMER_ID>  (1) 
000095F600000001

>  <PUBCHEM_MMFF94_ENERGY>  (1) 
66.8948

>  <PUBCHEM_FEATURE_SELFOVERLAP>  (1) 
25.371

>  <PUBCHEM_SHAPE_FINGERPRINT>  (1) 
10411042 1 18123753046554999302
10595046 47 18272369802131545901
10835480 77 18408598176216902277
10912923 1 17561367288009724995
12107183 9 17768261110696877985
12236239 1 18342739616051368441
12730499 353 18339367461033256496
12788726 201 16988294113434866435
13073987 5 18341619209297161641
13533116 47 18343585118485632666
13955234 65 18343016701597922082
14341114 176 18261116262266973377
14461889 52 18189053273043383714
15081414 286 18334013908262858164
17844677 252 18411143493900098865
19427546 62 18265615566964068592
20157964 124 18411981390569618232
20554085 129 17987787657770602288
20645477 70 18408605829684859442
21033650 10 16516819026445547693
21279426 13 18115866309213436917
220451 1 17775004622206333215
22061861 79 18409730621521749583
22393880 68 17895469207509695175
2303208 19 18041010514039018547
23081809 10 17632857517163276377
23402539 116 14707197838856674053
23522609 53 17559977518419249529
23559900 14 18409448051338927802
239999 70 18260547814571121914
2916195 48 18114738351695954097
29717793 49 18271241621470247911
3004659 81 18187366480726109546
34797466 226 18409729569291399181
4073 2 18188212121231979715
4340502 62 18041555936051296920
465052 167 18272091531142949014
495365 180 18342734174465071608
4990 188 18113902632527121147
5104073 3 17967246482202413585
542803 24 17060342942040829881
5718773 13 17976539404458019146
6025842 7 18341896299280847174
621550 34 18335414695299231372
70251023 43 18265900155612916106

>  <PUBCHEM_SHAPE_MULTIPOLES>  (1) 
429.11
16.68
3.5
0.98
20.23
1.53
0.03
-1.69
-0.99
-11.1
-0.46
0.32
0.07
1.67

>  <PUBCHEM_SHAPE_SELFOVERLAP>  (1) 
865.804

>  <PUBCHEM_SHAPE_VOLUME>  (1) 
258.5

>  <PUBCHEM_COORDINATE_TYPE>  (1) 
2
5
10

$$$$
