38394
     RDKit          3D

 32 33  0  0  0  0  0  0  0  0999 V2000
    4.3009    3.9278    0.0518 S   0  0  0  0  0  0  0  0  0  0  0  0
    2.6569   -4.5681    0.0379 S   0  0  0  0  0  0  0  0  0  0  0  0
    4.2587    2.2971   -0.0128 O   0  0  0  0  0  0  0  0  0  0  0  0
    3.2125   -3.0361    0.1320 O   0  0  0  0  0  0  0  0  0  0  0  0
    2.9569    4.4503   -0.0875 O   0  0  0  0  0  0  0  0  0  0  0  0
    5.4016    4.4138   -0.7553 O   0  0  0  0  0  0  0  0  0  0  0  0
    1.2131   -4.5506   -0.0792 O   0  0  0  0  0  0  0  0  0  0  0  0
    3.3383   -5.3889    1.0183 O   0  0  0  0  0  0  0  0  0  0  0  0
   -5.3571    1.0364    2.7000 O   0  0  0  0  0  0  0  0  0  0  0  0
   -3.7380   -0.4745    2.1880 O   0  0  0  0  0  0  0  0  0  0  0  0
    3.0144   -0.2302   -0.0228 N   0  0  0  0  0  0  0  0  0  0  0  0
   -2.4594    0.8304   -0.5305 N   0  0  0  0  0  0  0  0  0  0  0  0
   -3.1062   -0.2421   -0.5021 N   0  0  0  0  0  0  0  0  0  0  0  0
    3.9383    0.1633   -1.0679 C   0  0  0  0  0  0  0  0  0  0  0  0
    3.5272   -0.8890    1.1619 C   0  0  0  0  0  0  0  0  0  0  0  0
    1.6354    0.0369   -0.1510 C   0  0  0  0  0  0  0  0  0  0  0  0
    3.9135    1.6722   -1.2426 C   0  0  0  0  0  0  0  0  0  0  0  0
    2.9136   -2.2725    1.2939 C   0  0  0  0  0  0  0  0  0  0  0  0
    1.0478    0.0802   -1.4155 C   0  0  0  0  0  0  0  0  0  0  0  0
    0.8591    0.2575    0.9867 C   0  0  0  0  0  0  0  0  0  0  0  0
   -0.3160    0.3445   -1.5421 C   0  0  0  0  0  0  0  0  0  0  0  0
   -0.5046    0.5217    0.8600 C   0  0  0  0  0  0  0  0  0  0  0  0
   -1.0854    0.5639   -0.4038 C   0  0  0  0  0  0  0  0  0  0  0  0
    4.7691    4.0541    1.7590 C   0  0  0  0  0  0  0  0  0  0  0  0
    3.3367   -4.9359   -1.5597 C   0  0  0  0  0  0  0  0  0  0  0  0
   -4.4757    0.0240   -0.6283 C   0  0  0  0  0  0  0  0  0  0  0  0
   -5.2689    0.2477    0.4972 C   0  0  0  0  0  0  0  0  0  0  0  0
   -5.0445    0.0639   -1.9014 C   0  0  0  0  0  0  0  0  0  0  0  0
   -6.6307    0.5113    0.3494 C   0  0  0  0  0  0  0  0  0  0  0  0
   -6.4062    0.3276   -2.0490 C   0  0  0  0  0  0  0  0  0  0  0  0
   -7.1993    0.5512   -0.9237 C   0  0  0  0  0  0  0  0  0  0  0  0
   -4.7019    0.2121    1.8389 C   0  0  0  0  0  0  0  0  0  0  0  0
  1  3  1  0
  1  5  2  0
  1  6  2  0
  1 24  1  0
  2  4  1  0
  2  7  2  0
  2  8  2  0
  2 25  1  0
  3 17  1  0
  4 18  1  0
  9 32  1  0
 10 32  2  0
 11 14  1  0
 11 15  1  0
 11 16  1  0
 12 13  2  0
 12 23  1  0
 13 26  1  0
 14 17  1  0
 15 18  1  0
 16 19  2  0
 16 20  1  0
 19 21  1  0
 20 22  2  0
 21 23  2  0
 22 23  1  0
 26 27  2  0
 26 28  1  0
 27 29  1  0
 27 32  1  0
 28 30  2  0
 29 31  2  0
 30 31  1  0
M  END
>  <PUBCHEM_COMPOUND_CID>  (1) 
38394

>  <PUBCHEM_CONFORMER_RMSD>  (1) 
1.2

>  <PUBCHEM_CONFORMER_DIVERSEORDER>  (1) 
1
66
65
15
17
57
76
31
39
41
95
25
77
34
24
83
40
70
73
55
21
87
85
56
36
46
28
64
81
47
32
78
60
94
52
42
90
91
102
96
86
44
74
88
27
79
100
14
35
26
82
12
30
67
23
22
72
50
97
18
37
59
75
43
69
58
8
68
16
9
93
92
71
99
20
11
45
10
53
49
48
89
80
2
13
62
61
33
3
101
5
19
54
84
7
38
6
98
29
4
63
51

>  <PUBCHEM_MMFF94_PARTIAL_CHARGES>  (1) 
41
1 1.38
10 -0.57
11 -0.84
12 -0.18
13 -0.18
14 0.37
15 0.37
16 0.1
17 0.28
18 0.28
19 -0.15
2 1.38
20 -0.15
21 -0.15
22 -0.15
23 0.18
24 0.11
25 0.11
26 0.18
27 0.09
28 -0.15
29 -0.15
3 -0.46
30 -0.15
31 -0.15
32 0.63
4 -0.46
41 0.15
42 0.15
43 0.15
44 0.15
5 -0.65
51 0.15
52 0.15
53 0.15
54 0.15
55 0.5
6 -0.65
7 -0.65
8 -0.65
9 -0.65

>  <PUBCHEM_EFFECTIVE_ROTOR_COUNT>  (1) 
12

>  <PUBCHEM_PHARMACOPHORE_FEATURES>  (1) 
10
1 10 acceptor
1 11 cation
1 5 acceptor
1 6 acceptor
1 7 acceptor
1 8 acceptor
1 9 acceptor
3 9 10 32 anion
6 16 19 20 21 22 23 rings
6 26 27 28 29 30 31 rings

>  <PUBCHEM_HEAVY_ATOM_COUNT>  (1) 
32

>  <PUBCHEM_ATOM_DEF_STEREO_COUNT>  (1) 
0

>  <PUBCHEM_ATOM_UDEF_STEREO_COUNT>  (1) 
0

>  <PUBCHEM_BOND_DEF_STEREO_COUNT>  (1) 
0

>  <PUBCHEM_BOND_UDEF_STEREO_COUNT>  (1) 
0

>  <PUBCHEM_ISOTOPIC_ATOM_COUNT>  (1) 
0

>  <PUBCHEM_COMPONENT_COUNT>  (1) 
1

>  <PUBCHEM_CACTVS_TAUTO_COUNT>  (1) 
1

>  <PUBCHEM_CONFORMER_ID>  (1) 
000095FA00000001

>  <PUBCHEM_MMFF94_ENERGY>  (1) 
84.2135

>  <PUBCHEM_FEATURE_SELFOVERLAP>  (1) 
50.839

>  <PUBCHEM_SHAPE_FINGERPRINT>  (1) 
10554248 39 18198326396042502981
10816530 23 18337392771892811994
11059845 2 16194811537288523107
11181472 205 18270122298029423021
11505856 67 17036144043997004860
11763715 3 17762640403614905758
12422481 6 17168695466150674736
13533116 47 18342171112484024955
13955234 65 18409728439667689946
15183329 4 16701753755486325105
19319366 153 18271516593855922892
1979834 28 18040996271547754444
21033648 29 17530961423815968837
21049683 118 18051108566520505944
23559900 14 17386007256126548004
23845131 108 18193271017317985274
239999 70 17530685385792724314
4093350 32 18333445435418720345
513532 50 15430906248819483670
6695519 79 18122083127828512498

>  <PUBCHEM_SHAPE_MULTIPOLES>  (1) 
604.35
16.25
6.37
1.97
27.44
5.48
0.51
-8.41
-0.79
-19.54
0.31
2.06
-0.14
-0.18

>  <PUBCHEM_SHAPE_SELFOVERLAP>  (1) 
1237.229

>  <PUBCHEM_SHAPE_VOLUME>  (1) 
350.2

>  <PUBCHEM_COORDINATE_TYPE>  (1) 
2
5
10

$$$$
