38397
     RDKit          3D

 24 25  0  0  0  0  0  0  0  0999 V2000
    5.4436   -0.7142    2.6358 Cl  0  0  0  0  0  0  0  0  0  0  0  0
    4.5582    0.7347   -3.0918 Cl  0  0  0  0  0  0  0  0  0  0  0  0
   -4.2590   -2.7464   -0.4615 O   0  0  0  0  0  0  0  0  0  0  0  0
   -2.5540   -1.7129   -1.5530 O   0  0  0  0  0  0  0  0  0  0  0  0
    4.1853    0.0220   -0.0990 N   0  0  0  0  0  0  0  0  0  0  0  0
   -1.3371    0.2099    0.8028 N   0  0  0  0  0  0  0  0  0  0  0  0
   -1.9222    0.6353   -0.2200 N   0  0  0  0  0  0  0  0  0  0  0  0
    4.9038   -1.2323    0.0082 C   0  0  0  0  0  0  0  0  0  0  0  0
    4.9169    1.2288   -0.4289 C   0  0  0  0  0  0  0  0  0  0  0  0
    2.7941    0.0696    0.1282 C   0  0  0  0  0  0  0  0  0  0  0  0
    2.2117    1.2245    0.6505 C   0  0  0  0  0  0  0  0  0  0  0  0
    2.0005   -1.0382   -0.1697 C   0  0  0  0  0  0  0  0  0  0  0  0
    4.7758   -1.8165    1.4062 C   0  0  0  0  0  0  0  0  0  0  0  0
    4.3922    1.8508   -1.7134 C   0  0  0  0  0  0  0  0  0  0  0  0
    0.8358    1.2714    0.8754 C   0  0  0  0  0  0  0  0  0  0  0  0
    0.6247   -0.9912    0.0550 C   0  0  0  0  0  0  0  0  0  0  0  0
    0.0492    0.1634    0.5764 C   0  0  0  0  0  0  0  0  0  0  0  0
   -3.3038    0.6811    0.0059 C   0  0  0  0  0  0  0  0  0  0  0  0
   -4.1144   -0.4162   -0.2852 C   0  0  0  0  0  0  0  0  0  0  0  0
   -3.8672    1.8449    0.5295 C   0  0  0  0  0  0  0  0  0  0  0  0
   -5.4882   -0.3497   -0.0524 C   0  0  0  0  0  0  0  0  0  0  0  0
   -5.2408    1.9113    0.7624 C   0  0  0  0  0  0  0  0  0  0  0  0
   -6.0513    0.8141    0.4714 C   0  0  0  0  0  0  0  0  0  0  0  0
   -3.5535   -1.6443   -0.8328 C   0  0  0  0  0  0  0  0  0  0  0  0
  1 13  1  0
  2 14  1  0
  3 24  1  0
  4 24  2  0
  5  8  1  0
  5  9  1  0
  5 10  1  0
  6  7  2  0
  6 17  1  0
  7 18  1  0
  8 13  1  0
  9 14  1  0
 10 11  2  0
 10 12  1  0
 11 15  1  0
 12 16  2  0
 15 17  2  0
 16 17  1  0
 18 19  2  0
 18 20  1  0
 19 21  1  0
 19 24  1  0
 20 22  2  0
 21 23  2  0
 22 23  1  0
M  END
>  <PUBCHEM_COMPOUND_CID>  (1) 
38397

>  <PUBCHEM_CONFORMER_RMSD>  (1) 
0.8

>  <PUBCHEM_CONFORMER_DIVERSEORDER>  (1) 
1
48
40
10
36
22
59
70
66
16
77
2
8
68
31
15
28
74
78
47
29
21
30
76
50
81
80
19
63
32
38
5
25
52
46
67
57
60
64
17
44
24
9
39
61
73
75
11
13
51
55
71
4
37
54
69
56
33
23
79
53
49
34
72
41
14
20
35
45
58
27
6
65
3
18
7
42
43
62
26
12

>  <PUBCHEM_MMFF94_PARTIAL_CHARGES>  (1) 
33
1 -0.29
10 0.1
11 -0.15
12 -0.15
13 0.29
14 0.29
15 -0.15
16 -0.15
17 0.18
18 0.18
19 0.09
2 -0.29
20 -0.15
21 -0.15
22 -0.15
23 -0.15
24 0.63
29 0.15
3 -0.65
30 0.15
35 0.15
36 0.15
37 0.15
38 0.15
39 0.15
4 -0.57
40 0.15
41 0.5
5 -0.84
6 -0.18
7 -0.18
8 0.37
9 0.37

>  <PUBCHEM_EFFECTIVE_ROTOR_COUNT>  (1) 
8

>  <PUBCHEM_PHARMACOPHORE_FEATURES>  (1) 
6
1 3 acceptor
1 4 acceptor
1 5 cation
3 3 4 24 anion
6 10 11 12 15 16 17 rings
6 18 19 20 21 22 23 rings

>  <PUBCHEM_HEAVY_ATOM_COUNT>  (1) 
24

>  <PUBCHEM_ATOM_DEF_STEREO_COUNT>  (1) 
0

>  <PUBCHEM_ATOM_UDEF_STEREO_COUNT>  (1) 
0

>  <PUBCHEM_BOND_DEF_STEREO_COUNT>  (1) 
0

>  <PUBCHEM_BOND_UDEF_STEREO_COUNT>  (1) 
0

>  <PUBCHEM_ISOTOPIC_ATOM_COUNT>  (1) 
0

>  <PUBCHEM_COMPONENT_COUNT>  (1) 
1

>  <PUBCHEM_CACTVS_TAUTO_COUNT>  (1) 
1

>  <PUBCHEM_CONFORMER_ID>  (1) 
000095FD00000001

>  <PUBCHEM_MMFF94_ENERGY>  (1) 
78.368

>  <PUBCHEM_FEATURE_SELFOVERLAP>  (1) 
30.503

>  <PUBCHEM_SHAPE_FINGERPRINT>  (1) 
10554248 39 18336255739789077151
10595046 47 18336266846173681140
10912923 1 18260828215336243778
11405975 8 18201712981501583649
11796584 16 17917997195635022254
12236239 1 18260268542959944229
12390115 104 17702400468280132473
12403259 415 14634869751519588487
12616971 3 18114177523418940482
12788726 201 17059219125171975641
13167823 11 18409726257486817034
13533116 47 16877941590886208896
15131766 46 17314523719181248645
15183329 4 18272934912358461181
15250474 111 18338222847443118155
15788980 27 18408039593717135339
17349148 13 18187363195270800610
17844677 252 18130229358166391633
22061861 79 15792006732262991826
23081809 10 18334579036128077945
23522609 53 18191895407849932269
23557571 272 17131558228393774120
23559900 14 17274834549390384484
239999 70 17131833184015843168
268830 7 17821727234651482768
2838139 119 17313672667359282276
3004659 81 18409733928904776654
32027 91 15482405157508260950
3298306 158 17489314066048382967
338550 245 18341610387366244670
34797466 226 17346605204799851472
3680242 22 18339641114405731218
4073 2 18262237845299206506
4214541 1 18272650139147606177
4340502 62 13614229361944129204
508706 21 17346598625210408295
5104073 3 18200869677579015315
5364581 5 17629735002186306121
542803 24 18186524302047763321
59755656 520 17385445397949239531
633830 44 17603588517025302480
90127 26 15123516886647365914

>  <PUBCHEM_SHAPE_MULTIPOLES>  (1) 
470.97
15.79
2.15
1.85
5.44
0.26
-0.59
-0.38
0.91
-0.85
-0.4
-2.49
-0.12
-4.11

>  <PUBCHEM_SHAPE_SELFOVERLAP>  (1) 
975.126

>  <PUBCHEM_SHAPE_VOLUME>  (1) 
271.1

>  <PUBCHEM_COORDINATE_TYPE>  (1) 
2
5
10

$$$$
