38398
     RDKit          3D

 25 26  0  0  0  0  0  0  0  0999 V2000
    6.5738    3.3576   -0.2981 I   0  0  0  0  0  0  0  0  0  0  0  0
    5.4468   -4.2281    0.6959 I   0  0  0  0  0  0  0  0  0  0  0  0
   -4.4201   -2.5824   -1.1790 O   0  0  0  0  0  0  0  0  0  0  0  0
   -2.6967   -2.3672    0.2873 O   0  0  0  0  0  0  0  0  0  0  0  0
    4.0362   -0.1652    0.0214 N   0  0  0  0  0  0  0  0  0  0  0  0
   -1.4884    0.5624   -0.5400 N   0  0  0  0  0  0  0  0  0  0  0  0
   -2.0619    0.3196    0.5470 N   0  0  0  0  0  0  0  0  0  0  0  0
    2.6454    0.0231   -0.1189 C   0  0  0  0  0  0  0  0  0  0  0  0
    4.8906    0.9390    0.4104 C   0  0  0  0  0  0  0  0  0  0  0  0
    4.6308   -1.4619   -0.2352 C   0  0  0  0  0  0  0  0  0  0  0  0
    2.0819    1.2747    0.1302 C   0  0  0  0  0  0  0  0  0  0  0  0
    0.7063    1.4603   -0.0088 C   0  0  0  0  0  0  0  0  0  0  0  0
    1.8332   -1.0426   -0.5069 C   0  0  0  0  0  0  0  0  0  0  0  0
   -0.1006    0.3939   -0.3964 C   0  0  0  0  0  0  0  0  0  0  0  0
    5.3474    1.6935   -0.8320 C   0  0  0  0  0  0  0  0  0  0  0  0
    4.6188   -2.2909    1.0432 C   0  0  0  0  0  0  0  0  0  0  0  0
    0.4578   -0.8568   -0.6459 C   0  0  0  0  0  0  0  0  0  0  0  0
    0.1252    2.8090    0.2651 C   0  0  0  0  0  0  0  0  0  0  0  0
   -3.4452    0.4877    0.4043 C   0  0  0  0  0  0  0  0  0  0  0  0
   -4.2603   -0.5765    0.0181 C   0  0  0  0  0  0  0  0  0  0  0  0
   -4.0056    1.7403    0.6545 C   0  0  0  0  0  0  0  0  0  0  0  0
   -5.6357   -0.3878   -0.1178 C   0  0  0  0  0  0  0  0  0  0  0  0
   -5.3810    1.9288    0.5187 C   0  0  0  0  0  0  0  0  0  0  0  0
   -6.1960    0.8649    0.1325 C   0  0  0  0  0  0  0  0  0  0  0  0
   -3.7024   -1.8955   -0.2497 C   0  0  0  0  0  0  0  0  0  0  0  0
  1 15  1  0
  2 16  1  0
  3 25  1  0
  4 25  2  0
  5  8  1  0
  5  9  1  0
  5 10  1  0
  6  7  2  0
  6 14  1  0
  7 19  1  0
  8 11  2  0
  8 13  1  0
  9 15  1  0
 10 16  1  0
 11 12  1  0
 12 14  2  0
 12 18  1  0
 13 17  2  0
 14 17  1  0
 19 20  2  0
 19 21  1  0
 20 22  1  0
 20 25  1  0
 21 23  2  0
 22 24  2  0
 23 24  1  0
M  END
>  <PUBCHEM_COMPOUND_CID>  (1) 
38398

>  <PUBCHEM_CONFORMER_RMSD>  (1) 
0.8

>  <PUBCHEM_CONFORMER_DIVERSEORDER>  (1) 
3
17
45
64
69
46
6
42
105
47
74
119
14
72
101
52
33
38
43
67
51
18
60
122
76
84
70
37
62
75
109
111
79
98
85
106
104
86
99
10
87
94
121
15
54
93
4
59
28
36
78
92
12
77
88
1
107
123
97
31
5
50
73
29
9
83
100
63
30
25
39
35
19
55
7
102
13
23
110
90
40
56
49
27
115
22
44
82
41
8
20
57
66
26
103
96
65
68
11
71
120
116
80
114
95
112
117
2
81
113
24
34
108
58
32
53
21
16
89
118
124
61
91
48

>  <PUBCHEM_MMFF94_PARTIAL_CHARGES>  (1) 
33
1 -0.19
10 0.37
11 -0.15
12 -0.14
13 -0.15
14 0.18
15 0.19
16 0.19
17 -0.15
18 0.14
19 0.18
2 -0.19
20 0.09
21 -0.15
22 -0.15
23 -0.15
24 -0.15
25 0.63
3 -0.65
30 0.15
31 0.15
36 0.15
4 -0.57
40 0.15
41 0.15
42 0.15
43 0.15
44 0.5
5 -0.84
6 -0.18
7 -0.18
8 0.1
9 0.37

>  <PUBCHEM_EFFECTIVE_ROTOR_COUNT>  (1) 
8

>  <PUBCHEM_PHARMACOPHORE_FEATURES>  (1) 
8
1 1 hydrophobe
1 2 hydrophobe
1 3 acceptor
1 4 acceptor
1 5 cation
3 3 4 25 anion
6 19 20 21 22 23 24 rings
6 8 11 12 13 14 17 rings

>  <PUBCHEM_HEAVY_ATOM_COUNT>  (1) 
25

>  <PUBCHEM_ATOM_DEF_STEREO_COUNT>  (1) 
0

>  <PUBCHEM_ATOM_UDEF_STEREO_COUNT>  (1) 
0

>  <PUBCHEM_BOND_DEF_STEREO_COUNT>  (1) 
0

>  <PUBCHEM_BOND_UDEF_STEREO_COUNT>  (1) 
0

>  <PUBCHEM_ISOTOPIC_ATOM_COUNT>  (1) 
0

>  <PUBCHEM_COMPONENT_COUNT>  (1) 
1

>  <PUBCHEM_CACTVS_TAUTO_COUNT>  (1) 
1

>  <PUBCHEM_CONFORMER_ID>  (1) 
000095FE00000003

>  <PUBCHEM_MMFF94_ENERGY>  (1) 
82.0864

>  <PUBCHEM_FEATURE_SELFOVERLAP>  (1) 
40.653

>  <PUBCHEM_SHAPE_FINGERPRINT>  (1) 
10554248 39 18337380552736826069
10595046 47 18411699923718293686
10622 236 18199728380231227991
10906281 52 17773896245840320561
12107183 9 18051697646179314560
12236239 1 18408041797562768163
13073987 5 18408326609476074707
13533116 47 18188776046512008194
13785724 45 17981611464476037958
14341114 176 18412832382293599817
14790565 3 17977671128213187140
15001296 14 18186515484448795994
15196674 1 18412827992578417535
15250474 111 18340757230387837126
16120349 21 17981608169819202234
17492 89 18266740371602061979
1813 80 17313107436144833940
20028762 73 18269269071909935366
20511986 3 18334849537141632965
21033648 29 15338835318372476417
21130935 74 18408327666265058635
21703447 108 17626649854595738963
220451 1 18341338850378743521
23081809 10 18273211980672469373
23522609 53 17975729150002286204
23559900 14 18200587112055501593
3004659 81 18335144146650606622
34797466 226 17489038144396040940
3680242 22 18338522936744273251
4073 2 18261679284818309154
4214541 1 18342177765572742417
4340502 62 17023180561534738104
5104073 3 18343586226455287915
559249 180 18338514115524875835
6328613 192 18412267258950089813
67856867 119 18267024049491047565
9709674 26 18201166524771406399
9981440 41 17326896678211166177

>  <PUBCHEM_SHAPE_MULTIPOLES>  (1) 
511.68
17.44
4.32
0.88
2.9
2.3
-0.01
-1.3
0.96
-9.11
0.48
-0.17
0.19
-2.49

>  <PUBCHEM_SHAPE_SELFOVERLAP>  (1) 
1031.726

>  <PUBCHEM_SHAPE_VOLUME>  (1) 
307.2

>  <PUBCHEM_COORDINATE_TYPE>  (1) 
2
5
10

$$$$
