38392
     RDKit          3D

 25 26  0  0  0  0  0  0  0  0999 V2000
    6.1919   -3.2369   -1.0942 Br  0  0  0  0  0  0  0  0  0  0  0  0
    4.7724    4.1412    1.3642 Br  0  0  0  0  0  0  0  0  0  0  0  0
   -4.3357    2.1791   -1.8108 O   0  0  0  0  0  0  0  0  0  0  0  0
   -2.6305    2.3499   -0.3176 O   0  0  0  0  0  0  0  0  0  0  0  0
    4.1277    0.2315    0.0152 N   0  0  0  0  0  0  0  0  0  0  0  0
   -1.3831   -0.6776   -0.3969 N   0  0  0  0  0  0  0  0  0  0  0  0
   -1.9723   -0.1853    0.5930 N   0  0  0  0  0  0  0  0  0  0  0  0
    2.7404   -0.0018   -0.0857 C   0  0  0  0  0  0  0  0  0  0  0  0
    5.0567   -0.8797    0.0680 C   0  0  0  0  0  0  0  0  0  0  0  0
    4.6413    1.5852    0.0817 C   0  0  0  0  0  0  0  0  0  0  0  0
    2.1866   -1.1624    0.4550 C   0  0  0  0  0  0  0  0  0  0  0  0
    0.8144   -1.3926    0.3548 C   0  0  0  0  0  0  0  0  0  0  0  0
    1.9218    0.9284   -0.7266 C   0  0  0  0  0  0  0  0  0  0  0  0
    0.0011   -0.4614   -0.2855 C   0  0  0  0  0  0  0  0  0  0  0  0
    4.9507   -1.7360   -1.1792 C   0  0  0  0  0  0  0  0  0  0  0  0
    4.0895    2.3168    1.2901 C   0  0  0  0  0  0  0  0  0  0  0  0
    0.5497    0.6982   -0.8265 C   0  0  0  0  0  0  0  0  0  0  0  0
    0.2442   -2.6432    0.9398 C   0  0  0  0  0  0  0  0  0  0  0  0
   -3.3520   -0.4003    0.4821 C   0  0  0  0  0  0  0  0  0  0  0  0
   -4.1727    0.5276   -0.1591 C   0  0  0  0  0  0  0  0  0  0  0  0
   -3.9031   -1.5616    1.0239 C   0  0  0  0  0  0  0  0  0  0  0  0
   -5.5443    0.2941   -0.2587 C   0  0  0  0  0  0  0  0  0  0  0  0
   -5.2747   -1.7951    0.9241 C   0  0  0  0  0  0  0  0  0  0  0  0
   -6.0953   -0.8672    0.2829 C   0  0  0  0  0  0  0  0  0  0  0  0
   -3.6246    1.7491   -0.7339 C   0  0  0  0  0  0  0  0  0  0  0  0
  1 15  1  0
  2 16  1  0
  3 25  1  0
  4 25  2  0
  5  8  1  0
  5  9  1  0
  5 10  1  0
  6  7  2  0
  6 14  1  0
  7 19  1  0
  8 11  2  0
  8 13  1  0
  9 15  1  0
 10 16  1  0
 11 12  1  0
 12 14  2  0
 12 18  1  0
 13 17  2  0
 14 17  1  0
 19 20  2  0
 19 21  1  0
 20 22  1  0
 20 25  1  0
 21 23  2  0
 22 24  2  0
 23 24  1  0
M  END
>  <PUBCHEM_COMPOUND_CID>  (1) 
38392

>  <PUBCHEM_CONFORMER_RMSD>  (1) 
0.8

>  <PUBCHEM_CONFORMER_DIVERSEORDER>  (1) 
1
87
90
95
101
42
82
106
14
66
29
74
102
54
65
85
127
28
123
112
124
105
60
115
118
5
52
40
45
91
92
128
34
61
50
103
41
88
30
104
3
83
19
4
9
48
97
55
53
25
51
38
39
8
32
126
77
73
99
79
122
100
62
6
119
13
86
27
46
76
36
120
49
94
31
84
96
98
7
58
108
93
64
107
125
11
116
16
12
33
56
80
23
75
67
35
17
57
43
114
10
24
113
44
121
37
47
109
2
68
78
69
117
18
63
81
59
110
70
89
111
21
72
22
71
15
26
20

>  <PUBCHEM_MMFF94_PARTIAL_CHARGES>  (1) 
33
1 -0.23
10 0.37
11 -0.15
12 -0.14
13 -0.15
14 0.18
15 0.23
16 0.23
17 -0.15
18 0.14
19 0.18
2 -0.23
20 0.09
21 -0.15
22 -0.15
23 -0.15
24 -0.15
25 0.63
3 -0.65
30 0.15
31 0.15
36 0.15
4 -0.57
40 0.15
41 0.15
42 0.15
43 0.15
44 0.5
5 -0.84
6 -0.18
7 -0.18
8 0.1
9 0.37

>  <PUBCHEM_EFFECTIVE_ROTOR_COUNT>  (1) 
8

>  <PUBCHEM_PHARMACOPHORE_FEATURES>  (1) 
8
1 1 hydrophobe
1 2 hydrophobe
1 3 acceptor
1 4 acceptor
1 5 cation
3 3 4 25 anion
6 19 20 21 22 23 24 rings
6 8 11 12 13 14 17 rings

>  <PUBCHEM_HEAVY_ATOM_COUNT>  (1) 
25

>  <PUBCHEM_ATOM_DEF_STEREO_COUNT>  (1) 
0

>  <PUBCHEM_ATOM_UDEF_STEREO_COUNT>  (1) 
0

>  <PUBCHEM_BOND_DEF_STEREO_COUNT>  (1) 
0

>  <PUBCHEM_BOND_UDEF_STEREO_COUNT>  (1) 
0

>  <PUBCHEM_ISOTOPIC_ATOM_COUNT>  (1) 
0

>  <PUBCHEM_COMPONENT_COUNT>  (1) 
1

>  <PUBCHEM_CACTVS_TAUTO_COUNT>  (1) 
1

>  <PUBCHEM_CONFORMER_ID>  (1) 
000095F800000001

>  <PUBCHEM_MMFF94_ENERGY>  (1) 
82.8022

>  <PUBCHEM_FEATURE_SELFOVERLAP>  (1) 
40.652

>  <PUBCHEM_SHAPE_FINGERPRINT>  (1) 
10 15 18189608526837968592
11545043 162 18335143059612144754
12107183 9 17246658275227302953
12166972 35 18412833477383887304
12236239 1 18202567289346856307
12403259 415 18409165527989250585
12616971 3 16559030480273755829
13533116 47 18343308076321353354
13675066 3 18409167744403027702
13757389 114 16969433392664978764
13782708 43 18410859853917375943
13955234 65 18272932761212855418
14341114 176 18261399957304036627
15021287 119 17845644855609217846
17349148 13 17022907865117381847
17844677 252 18343309145208878400
18222031 100 17022905661604052022
18927931 339 17968105214027161011
20832881 197 18267870489282593418
21033648 29 18339630222220877961
21130935 74 18341904034401494107
21267235 1 18114475500309147723
21279426 13 18263645078617812646
21315764 268 18410570712486936172
21682296 61 18269847419157251590
22393880 68 18260828146580045031
23402539 116 18040714801446051463
23559900 14 18260267439074059069
2838139 119 16916501579558017184
34797466 226 18201441401976528607
3545911 37 18187367584875082887
4214541 1 18186802448730540941
495365 180 17917426584229967738
5104073 3 18334010567110085465
5219985 13 17766274654944667952
59755656 215 18187367593122769199
6697151 62 18126262174706317830
9709674 26 18187370879326619275

>  <PUBCHEM_SHAPE_MULTIPOLES>  (1) 
499.69
15.92
3.78
1.22
4.37
2.16
0.09
-1.86
0.41
-7.53
-0.66
0.07
0.27
4.37

>  <PUBCHEM_SHAPE_SELFOVERLAP>  (1) 
1022.425

>  <PUBCHEM_SHAPE_VOLUME>  (1) 
296.8

>  <PUBCHEM_COORDINATE_TYPE>  (1) 
2
5
10

$$$$
