38393
     RDKit          3D

 29 30  0  0  0  0  0  0  0  0999 V2000
    4.8354    3.7835   -0.1485 S   0  0  0  0  0  0  0  0  0  0  0  0
    3.0164   -4.3622   -0.5388 S   0  0  0  0  0  0  0  0  0  0  0  0
    4.3294    2.2670   -0.4780 O   0  0  0  0  0  0  0  0  0  0  0  0
    3.0213   -2.8757    0.1359 O   0  0  0  0  0  0  0  0  0  0  0  0
    5.5348    3.7930    1.1203 O   0  0  0  0  0  0  0  0  0  0  0  0
    3.7726    4.7218   -0.4469 O   0  0  0  0  0  0  0  0  0  0  0  0
    1.7090   -4.6310   -1.1023 O   0  0  0  0  0  0  0  0  0  0  0  0
    3.6770   -5.2969    0.3495 O   0  0  0  0  0  0  0  0  0  0  0  0
    1.9874   -0.3134    0.6853 N   0  0  0  0  0  0  0  0  0  0  0  0
   -3.4367    0.8409   -0.1327 N   0  0  0  0  0  0  0  0  0  0  0  0
   -4.1393   -0.1410    0.2039 N   0  0  0  0  0  0  0  0  0  0  0  0
    3.0013    0.2918   -0.1549 C   0  0  0  0  0  0  0  0  0  0  0  0
    2.3945   -1.2100    1.7489 C   0  0  0  0  0  0  0  0  0  0  0  0
    0.6225   -0.0231    0.4795 C   0  0  0  0  0  0  0  0  0  0  0  0
    3.3087    1.6976    0.3321 C   0  0  0  0  0  0  0  0  0  0  0  0
    2.2370   -2.6531    1.3011 C   0  0  0  0  0  0  0  0  0  0  0  0
    0.2415    0.8515   -0.5383 C   0  0  0  0  0  0  0  0  0  0  0  0
   -0.3461   -0.6105    1.2934 C   0  0  0  0  0  0  0  0  0  0  0  0
   -1.1083    1.1388   -0.7418 C   0  0  0  0  0  0  0  0  0  0  0  0
   -1.6956   -0.3232    1.0898 C   0  0  0  0  0  0  0  0  0  0  0  0
   -2.0768    0.5514    0.0722 C   0  0  0  0  0  0  0  0  0  0  0  0
    6.0424    3.8842   -1.4458 C   0  0  0  0  0  0  0  0  0  0  0  0
    4.1265   -3.9870   -1.8717 C   0  0  0  0  0  0  0  0  0  0  0  0
   -5.4926    0.1468    0.0003 C   0  0  0  0  0  0  0  0  0  0  0  0
   -5.9495    1.4606    0.1058 C   0  0  0  0  0  0  0  0  0  0  0  0
   -6.3857   -0.8795   -0.3077 C   0  0  0  0  0  0  0  0  0  0  0  0
   -7.2994    1.7479   -0.0963 C   0  0  0  0  0  0  0  0  0  0  0  0
   -7.7355   -0.5920   -0.5100 C   0  0  0  0  0  0  0  0  0  0  0  0
   -8.1924    0.7218   -0.4043 C   0  0  0  0  0  0  0  0  0  0  0  0
  1  3  1  0
  1  5  2  0
  1  6  2  0
  1 22  1  0
  2  4  1  0
  2  7  2  0
  2  8  2  0
  2 23  1  0
  3 15  1  0
  4 16  1  0
  9 12  1  0
  9 13  1  0
  9 14  1  0
 10 11  2  0
 10 21  1  0
 11 24  1  0
 12 15  1  0
 13 16  1  0
 14 17  2  0
 14 18  1  0
 17 19  1  0
 18 20  2  0
 19 21  2  0
 20 21  1  0
 24 25  2  0
 24 26  1  0
 25 27  1  0
 26 28  2  0
 27 29  2  0
 28 29  1  0
M  END
>  <PUBCHEM_COMPOUND_CID>  (1) 
38393

>  <PUBCHEM_CONFORMER_RMSD>  (1) 
1

>  <PUBCHEM_CONFORMER_DIVERSEORDER>  (1) 
1
67
53
39
47
14
64
58
46
40
57
17
65
66
68
69
36
13
37
62
30
72
26
22
9
48
52
59
28
5
29
73
21
27
51
12
11
50
10
55
70
61
45
31
56
16
20
71
24
7
60
23
42
35
33
19
15
38
54
34
44
3
49
63
43
8
25
41
32
6
4
2
18

>  <PUBCHEM_MMFF94_PARTIAL_CHARGES>  (1) 
38
1 1.38
10 -0.18
11 -0.18
12 0.37
13 0.37
14 0.1
15 0.28
16 0.28
17 -0.15
18 -0.15
19 -0.15
2 1.38
20 -0.15
21 0.18
22 0.11
23 0.11
24 0.18
25 -0.15
26 -0.15
27 -0.15
28 -0.15
29 -0.15
3 -0.46
38 0.15
39 0.15
4 -0.46
40 0.15
41 0.15
48 0.15
49 0.15
5 -0.65
50 0.15
51 0.15
52 0.15
6 -0.65
7 -0.65
8 -0.65
9 -0.84

>  <PUBCHEM_EFFECTIVE_ROTOR_COUNT>  (1) 
11

>  <PUBCHEM_PHARMACOPHORE_FEATURES>  (1) 
7
1 5 acceptor
1 6 acceptor
1 7 acceptor
1 8 acceptor
1 9 cation
6 14 17 18 19 20 21 rings
6 24 25 26 27 28 29 rings

>  <PUBCHEM_HEAVY_ATOM_COUNT>  (1) 
29

>  <PUBCHEM_ATOM_DEF_STEREO_COUNT>  (1) 
0

>  <PUBCHEM_ATOM_UDEF_STEREO_COUNT>  (1) 
0

>  <PUBCHEM_BOND_DEF_STEREO_COUNT>  (1) 
0

>  <PUBCHEM_BOND_UDEF_STEREO_COUNT>  (1) 
0

>  <PUBCHEM_ISOTOPIC_ATOM_COUNT>  (1) 
0

>  <PUBCHEM_COMPONENT_COUNT>  (1) 
1

>  <PUBCHEM_CACTVS_TAUTO_COUNT>  (1) 
1

>  <PUBCHEM_CONFORMER_ID>  (1) 
000095F900000001

>  <PUBCHEM_MMFF94_ENERGY>  (1) 
75.1874

>  <PUBCHEM_FEATURE_SELFOVERLAP>  (1) 
35.555

>  <PUBCHEM_SHAPE_FINGERPRINT>  (1) 
10411042 1 17976818688752826594
10554248 39 18270383994449263909
10595046 47 18411697708533624937
10673678 19 18339361980238723392
10721379 63 18340212895201704998
10906281 52 17531815778066819817
11181472 205 18342179909247252625
12236239 1 18335415743793250377
12522641 68 17907869745015433476
12539765 74 18266189494363971044
12977781 61 18042709319465137795
13248334 5 18408883997953509834
13533116 47 18272083856289059347
13540713 4 17968679197018558091
1361 4 18340201986586965519
15324884 4 17533812439564256683
19427546 62 18335982081578991546
20554085 129 18200301260428086560
20578428 11 18341339937031954350
21641784 216 15647904687404162743
23081809 10 17917986154239500601
23522609 53 17845392011301844697
23559900 14 18338234856297810739
239999 70 18262512598404763667
24180151 214 17845384399638068754
24771293 8 17894909689578808349
255183 451 18127695916188821334
27425 322 18126005099186141452
3004659 81 18336544894415738899
3411729 13 18187078481472381232
34797466 226 18343588451918500053
4073 2 18113901606958086515
46194498 28 18336261237036186902
54076057 127 18410583885678861907
6025842 7 18411418406061169258
6695519 79 17983593075874813099
6700243 42 17123128109825249742
70251023 43 18265899042736215090
9831232 110 18196087747318937815

>  <PUBCHEM_SHAPE_MULTIPOLES>  (1) 
554.35
19.4
6.66
1.26
41.62
4.17
0.04
-12.24
-4.6
-20.81
-2.2
-1.56
0.61
0.1

>  <PUBCHEM_SHAPE_SELFOVERLAP>  (1) 
1124.053

>  <PUBCHEM_SHAPE_VOLUME>  (1) 
325

>  <PUBCHEM_COORDINATE_TYPE>  (1) 
2
5
10

$$$$
