38401
     RDKit          3D

 26 27  0  0  0  0  0  0  0  0999 V2000
    6.0161    0.6910    3.3124 Cl  0  0  0  0  0  0  0  0  0  0  0  0
    5.0993   -0.2464   -3.9036 Cl  0  0  0  0  0  0  0  0  0  0  0  0
    2.3261   -1.8844    0.6885 O   0  0  0  0  0  0  0  0  0  0  0  0
   -4.4681   -2.4753    1.1980 O   0  0  0  0  0  0  0  0  0  0  0  0
   -2.7721   -2.1908   -0.2884 O   0  0  0  0  0  0  0  0  0  0  0  0
    3.8825    0.3250   -0.0961 N   0  0  0  0  0  0  0  0  0  0  0  0
   -1.6625    0.7766    0.5430 N   0  0  0  0  0  0  0  0  0  0  0  0
   -2.2384    0.5189   -0.5393 N   0  0  0  0  0  0  0  0  0  0  0  0
    2.4840    0.4280    0.0682 C   0  0  0  0  0  0  0  0  0  0  0  0
    4.7257   -0.0492    1.0209 C   0  0  0  0  0  0  0  0  0  0  0  0
    4.4917    0.6061   -1.3799 C   0  0  0  0  0  0  0  0  0  0  0  0
    1.7312   -0.6798    0.4581 C   0  0  0  0  0  0  0  0  0  0  0  0
    1.8559    1.6518   -0.1631 C   0  0  0  0  0  0  0  0  0  0  0  0
    4.9884    1.1419    1.9290 C   0  0  0  0  0  0  0  0  0  0  0  0
    4.3625   -0.5843   -2.3172 C   0  0  0  0  0  0  0  0  0  0  0  0
    0.3502   -0.5637    0.6164 C   0  0  0  0  0  0  0  0  0  0  0  0
    0.4750    1.7678   -0.0048 C   0  0  0  0  0  0  0  0  0  0  0  0
   -0.2710    0.6594    0.3842 C   0  0  0  0  0  0  0  0  0  0  0  0
    2.4415   -2.7721   -0.4212 C   0  0  0  0  0  0  0  0  0  0  0  0
   -3.6253    0.6354   -0.3805 C   0  0  0  0  0  0  0  0  0  0  0  0
   -4.3966   -0.4597    0.0087 C   0  0  0  0  0  0  0  0  0  0  0  0
   -4.2337    1.8681   -0.6174 C   0  0  0  0  0  0  0  0  0  0  0  0
   -5.7763   -0.3220    0.1613 C   0  0  0  0  0  0  0  0  0  0  0  0
   -5.6134    2.0058   -0.4646 C   0  0  0  0  0  0  0  0  0  0  0  0
   -6.3846    0.9109   -0.0754 C   0  0  0  0  0  0  0  0  0  0  0  0
   -3.7881   -1.7589    0.2628 C   0  0  0  0  0  0  0  0  0  0  0  0
  1 14  1  0
  2 15  1  0
  3 12  1  0
  3 19  1  0
  4 26  1  0
  5 26  2  0
  6  9  1  0
  6 10  1  0
  6 11  1  0
  7  8  2  0
  7 18  1  0
  8 20  1  0
  9 12  2  0
  9 13  1  0
 10 14  1  0
 11 15  1  0
 12 16  1  0
 13 17  2  0
 16 18  2  0
 17 18  1  0
 20 21  2  0
 20 22  1  0
 21 23  1  0
 21 26  1  0
 22 24  2  0
 23 25  2  0
 24 25  1  0
M  END
>  <PUBCHEM_COMPOUND_CID>  (1) 
38401

>  <PUBCHEM_CONFORMER_RMSD>  (1) 
1

>  <PUBCHEM_CONFORMER_DIVERSEORDER>  (1) 
1
22
12
4
34
2
10
35
15
28
26
21
27
30
3
16
24
5
6
11
39
7
14
20
25
17
31
29
38
37
9
33
8
19
36
23
32
13
18

>  <PUBCHEM_MMFF94_PARTIAL_CHARGES>  (1) 
34
1 -0.29
10 0.37
11 0.37
12 0.08
13 -0.15
14 0.29
15 0.29
16 -0.15
17 -0.15
18 0.18
19 0.28
2 -0.29
20 0.18
21 0.09
22 -0.15
23 -0.15
24 -0.15
25 -0.15
26 0.63
3 -0.36
31 0.15
36 0.15
37 0.15
4 -0.65
41 0.15
42 0.15
43 0.15
44 0.15
45 0.5
5 -0.57
6 -0.84
7 -0.18
8 -0.18
9 0.1

>  <PUBCHEM_EFFECTIVE_ROTOR_COUNT>  (1) 
9

>  <PUBCHEM_PHARMACOPHORE_FEATURES>  (1) 
7
1 3 acceptor
1 4 acceptor
1 5 acceptor
1 6 cation
3 4 5 26 anion
6 20 21 22 23 24 25 rings
6 9 12 13 16 17 18 rings

>  <PUBCHEM_HEAVY_ATOM_COUNT>  (1) 
26

>  <PUBCHEM_ATOM_DEF_STEREO_COUNT>  (1) 
0

>  <PUBCHEM_ATOM_UDEF_STEREO_COUNT>  (1) 
0

>  <PUBCHEM_BOND_DEF_STEREO_COUNT>  (1) 
0

>  <PUBCHEM_BOND_UDEF_STEREO_COUNT>  (1) 
0

>  <PUBCHEM_ISOTOPIC_ATOM_COUNT>  (1) 
0

>  <PUBCHEM_COMPONENT_COUNT>  (1) 
1

>  <PUBCHEM_CACTVS_TAUTO_COUNT>  (1) 
1

>  <PUBCHEM_CONFORMER_ID>  (1) 
0000960100000001

>  <PUBCHEM_MMFF94_ENERGY>  (1) 
98.0461

>  <PUBCHEM_FEATURE_SELFOVERLAP>  (1) 
35.578

>  <PUBCHEM_SHAPE_FINGERPRINT>  (1) 
10554248 39 17458613489640581127
12166972 35 13118282538305780894
12236239 1 16877661271287472149
12596602 18 16415478289855092291
12616971 3 16877938334646922128
12788726 201 17915744185115729337
13955234 65 16343982499530912190
14617045 38 18408895031613580279
15131766 46 15792592909420526135
15183329 4 18335422353130766381
15788980 27 16009020675110455169
17349148 13 17530960272537458128
17909252 39 18128827339534473446
22061861 79 17346324769183783829
22393880 68 18410863191095792127
23081809 10 17240483628331792881
23522609 53 17168728344284062677
23559900 14 18263362482523236434
23569914 152 16407609888183656805
239999 70 18059858368226876484
300161 21 18340193125430311953
3004659 81 18115308860939476874
34797466 226 18272940452518561932
3545911 37 18410009923339797833
3680242 22 17968087560798848331
4072396 5 18187915171746473488
4214541 1 18334573543244805369
4340502 62 18059563698989105410
5104073 3 18337668612457492763
5364581 5 18052519252170366481
90127 26 17418098680600279121

>  <PUBCHEM_SHAPE_MULTIPOLES>  (1) 
506.26
16.23
2.42
2.23
8.76
0.93
1.09
-1.5
-2.3
-8.51
-0.41
2.08
0.42
1.19

>  <PUBCHEM_SHAPE_SELFOVERLAP>  (1) 
1044.463

>  <PUBCHEM_SHAPE_VOLUME>  (1) 
293.5

>  <PUBCHEM_COORDINATE_TYPE>  (1) 
2
5
10

$$$$
