38413
     RDKit          3D

  9  8  0  0  0  0  0  0  0  0999 V2000
   -4.0477    0.0510   -0.0160 Cl  0  0  0  0  0  0  0  0  0  0  0  0
    1.0524    0.3780   -0.0011 O   0  0  0  0  0  0  0  0  0  0  0  0
   -1.4532    1.3123    0.0144 O   0  0  0  0  0  0  0  0  0  0  0  0
    2.6456   -1.2952    0.0028 O   0  0  0  0  0  0  0  0  0  0  0  0
    0.0182   -0.5833    0.0063 C   0  0  0  0  0  0  0  0  0  0  0  0
   -1.3426    0.0872    0.0066 C   0  0  0  0  0  0  0  0  0  0  0  0
   -2.5268   -0.8539    0.0001 C   0  0  0  0  0  0  0  0  0  0  0  0
    2.3337   -0.1120   -0.0022 C   0  0  0  0  0  0  0  0  0  0  0  0
    3.3205    1.0159   -0.0109 C   0  0  0  0  0  0  0  0  0  0  0  0
  1  7  1  0
  2  5  1  0
  2  8  1  0
  3  6  2  0
  4  8  2  0
  5  6  1  0
  6  7  1  0
  8  9  1  0
M  END
>  <PUBCHEM_COMPOUND_CID>  (1) 
38413

>  <PUBCHEM_CONFORMER_RMSD>  (1) 
0.6

>  <PUBCHEM_CONFORMER_DIVERSEORDER>  (1) 
1
61
45
81
69
18
16
4
47
25
74
39
53
70
5
79
38
11
73
3
68
50
44
12
43
67
34
76
48
6
9
20
82
75
83
46
62
17
64
10
60
2
71
57
31
66
19
26
56
80
41
49
35
30
37
72
78
7
63
14
65
36
59
15
28
52
54
33
21
27
32
8
58
42
23
22
77
13
55
29
24
40
51

>  <PUBCHEM_MMFF94_PARTIAL_CHARGES>  (1) 
9
1 -0.29
2 -0.43
3 -0.57
4 -0.57
5 0.34
6 0.45
7 0.35
8 0.66
9 0.06

>  <PUBCHEM_EFFECTIVE_ROTOR_COUNT>  (1) 
4

>  <PUBCHEM_PHARMACOPHORE_FEATURES>  (1) 
2
1 3 acceptor
1 4 acceptor

>  <PUBCHEM_HEAVY_ATOM_COUNT>  (1) 
9

>  <PUBCHEM_ATOM_DEF_STEREO_COUNT>  (1) 
0

>  <PUBCHEM_ATOM_UDEF_STEREO_COUNT>  (1) 
0

>  <PUBCHEM_BOND_DEF_STEREO_COUNT>  (1) 
0

>  <PUBCHEM_BOND_UDEF_STEREO_COUNT>  (1) 
0

>  <PUBCHEM_ISOTOPIC_ATOM_COUNT>  (1) 
0

>  <PUBCHEM_COMPONENT_COUNT>  (1) 
1

>  <PUBCHEM_CACTVS_TAUTO_COUNT>  (1) 
3

>  <PUBCHEM_CONFORMER_ID>  (1) 
0000960D00000001

>  <PUBCHEM_MMFF94_ENERGY>  (1) 
7.2023

>  <PUBCHEM_FEATURE_SELFOVERLAP>  (1) 
10.149

>  <PUBCHEM_SHAPE_FINGERPRINT>  (1) 
11062470 55 18113616807043613965
12932764 1 17346307207057046668
14325111 11 18410573976587903299
14390081 3 18412544331864403272
15310529 11 18344143687471957894
20645477 70 18341330002794054615
23552423 10 18262520286522492186
5460574 1 9223235143536262690

>  <PUBCHEM_SHAPE_MULTIPOLES>  (1) 
169.48
6.63
1.15
0.59
1.49
0.01
0
0.43
0.04
-0.38
0
0.05
0
-0.01

>  <PUBCHEM_SHAPE_SELFOVERLAP>  (1) 
308.022

>  <PUBCHEM_SHAPE_VOLUME>  (1) 
108.4

>  <PUBCHEM_COORDINATE_TYPE>  (1) 
2
5
10

$$$$
