38412
     RDKit          3D

 15 15  0  0  0  0  0  0  0  0999 V2000
    1.5744   -2.8902    0.1502 Cl  0  0  0  0  0  0  0  0  0  0  0  0
   -3.5173    0.7080   -0.2211 Cl  0  0  0  0  0  0  0  0  0  0  0  0
    2.2143    0.4112   -0.9225 O   0  0  0  0  0  0  0  0  0  0  0  0
    2.1541    0.3994    1.3787 O   0  0  0  0  0  0  0  0  0  0  0  0
    0.4585    2.2519    0.2503 O   0  0  0  0  0  0  0  0  0  0  0  0
   -1.7159    2.4659    0.0369 O   0  0  0  0  0  0  0  0  0  0  0  0
   -0.6845    1.7614    0.1134 N   0  0  0  0  0  0  0  0  0  0  0  0
    0.3191   -0.4628    0.1240 C   0  0  0  0  0  0  0  0  0  0  0  0
   -0.8170    0.3423    0.0413 C   0  0  0  0  0  0  0  0  0  0  0  0
    0.1973   -1.8505    0.0531 C   0  0  0  0  0  0  0  0  0  0  0  0
   -2.0750   -0.2406   -0.1124 C   0  0  0  0  0  0  0  0  0  0  0  0
   -1.0606   -2.4334   -0.1006 C   0  0  0  0  0  0  0  0  0  0  0  0
   -2.1967   -1.6284   -0.1834 C   0  0  0  0  0  0  0  0  0  0  0  0
    1.6367    0.1516    0.2869 C   0  0  0  0  0  0  0  0  0  0  0  0
    3.5125    1.0140   -0.8950 C   0  0  0  0  0  0  0  0  0  0  0  0
  1 10  1  0
  2 11  1  0
  3 14  1  0
  3 15  1  0
  4 14  2  0
  5  7  1  0
  6  7  2  0
  7  9  1  0
  8  9  2  0
  8 10  1  0
  8 14  1  0
  9 11  1  0
 10 12  2  0
 11 13  2  0
 12 13  1  0
M  CHG  2   5  -1   7   1
M  END
>  <PUBCHEM_COMPOUND_CID>  (1) 
38412

>  <PUBCHEM_CONFORMER_RMSD>  (1) 
0.6

>  <PUBCHEM_CONFORMER_DIVERSEORDER>  (1) 
1
2

>  <PUBCHEM_MMFF94_PARTIAL_CHARGES>  (1) 
17
1 -0.18
10 0.18
11 0.18
12 -0.15
13 -0.15
14 0.63
15 0.28
16 0.15
17 0.15
2 -0.18
3 -0.43
4 -0.57
5 -0.52
6 -0.52
7 0.91
8 0.09
9 0.13

>  <PUBCHEM_EFFECTIVE_ROTOR_COUNT>  (1) 
3

>  <PUBCHEM_PHARMACOPHORE_FEATURES>  (1) 
5
1 4 acceptor
1 5 acceptor
1 5 anion
1 6 acceptor
6 8 9 10 11 12 13 rings

>  <PUBCHEM_HEAVY_ATOM_COUNT>  (1) 
15

>  <PUBCHEM_ATOM_DEF_STEREO_COUNT>  (1) 
0

>  <PUBCHEM_ATOM_UDEF_STEREO_COUNT>  (1) 
0

>  <PUBCHEM_BOND_DEF_STEREO_COUNT>  (1) 
0

>  <PUBCHEM_BOND_UDEF_STEREO_COUNT>  (1) 
0

>  <PUBCHEM_ISOTOPIC_ATOM_COUNT>  (1) 
0

>  <PUBCHEM_COMPONENT_COUNT>  (1) 
1

>  <PUBCHEM_CACTVS_TAUTO_COUNT>  (1) 
1

>  <PUBCHEM_CONFORMER_ID>  (1) 
0000960C00000001

>  <PUBCHEM_MMFF94_ENERGY>  (1) 
63.2593

>  <PUBCHEM_FEATURE_SELFOVERLAP>  (1) 
25.458

>  <PUBCHEM_SHAPE_FINGERPRINT>  (1) 
10967382 1 18411134701985733075
11206711 2 18193548089795241735
12524768 44 17114944950852259351
13140716 1 18195805387151092185
13380535 21 18410864248027349571
14614273 12 18260543403080507469
14790565 3 18266478644705929065
15775835 57 18040715908798449804
16945 1 18411694417860338115
193761 8 18194683657383232363
20511035 2 17981873155978256071
20645476 183 17895478149547397822
20871999 31 18195255648210988406
21501502 16 18124597479288393689
22802520 49 18129122102838889126
2334 1 17906728464307840097
23402539 116 18340766056993263484
23419403 2 15168443924022384347
23493267 7 17894918437867312763
23552423 10 18119811300793392839
23557571 272 17910971454353190500
23559900 14 18271251612329413836
2748010 2 18268429208044414151
350125 39 18050572837363060537
353137 74 18411147913062477636
528886 8 18411701023393490835
53812653 166 18342736342816725603
53812653 8 18408045099828441133
7364860 26 18198617731610126330
77492 1 17604699114316993138

>  <PUBCHEM_SHAPE_MULTIPOLES>  (1) 
283.97
4.33
3
0.81
0.25
0.96
-0.05
-1.43
0.85
-0.02
-0.07
0.48
-0.1
-0.3

>  <PUBCHEM_SHAPE_SELFOVERLAP>  (1) 
586.152

>  <PUBCHEM_SHAPE_VOLUME>  (1) 
164.7

>  <PUBCHEM_COORDINATE_TYPE>  (1) 
2
5
10

$$$$
