38419
     RDKit          3D

 49 55  0  0  1  0  0  0  0  0999 V2000
    6.7122   -1.0414    1.0842 O   0  0  0  0  0  0  0  0  0  0  0  0
    0.3879   -0.5346    2.1570 O   0  0  0  0  0  0  0  0  0  0  0  0
   -1.3146   -0.7430   -0.1193 O   0  0  0  0  0  0  0  0  0  0  0  0
    1.6048    2.6346    1.9574 O   0  0  0  0  0  0  0  0  0  0  0  0
   10.9781    0.5291   -0.1341 O   0  0  0  0  0  0  0  0  0  0  0  0
   -2.7408    0.4812   -1.5806 O   0  0  0  0  0  0  0  0  0  0  0  0
   11.3567   -1.5103    0.8627 O   0  0  0  0  0  0  0  0  0  0  0  0
   -5.5139   -0.6556    1.1291 O   0  0  0  0  0  0  0  0  0  0  0  0
   -5.4826    1.0935   -0.4321 O   0  0  0  0  0  0  0  0  0  0  0  0
    5.7943   -0.5078    0.1179 C   0  0  0  0  0  0  0  0  0  0  0  0
    4.4138   -0.3322    0.8086 C   0  0  0  0  0  0  0  0  0  0  0  0
    6.3644    0.7987   -0.4969 C   0  0  0  0  0  0  0  0  0  0  0  0
    3.3678    0.4140   -0.0654 C   0  0  0  0  0  0  0  0  0  0  0  0
    1.9994    0.6105    0.6887 C   0  0  0  0  0  0  0  0  0  0  0  0
    1.4668   -0.7574    1.2338 C   0  0  0  0  0  0  0  0  0  0  0  0
    7.4931    0.2780   -1.4423 C   0  0  0  0  0  0  0  0  0  0  0  0
    5.2791    1.5014   -1.3555 C   0  0  0  0  0  0  0  0  0  0  0  0
    3.9638    1.7269   -0.6130 C   0  0  0  0  0  0  0  0  0  0  0  0
    5.8022   -1.4927   -1.0658 C   0  0  0  0  0  0  0  0  0  0  0  0
    3.8593   -1.6807    1.3024 C   0  0  0  0  0  0  0  0  0  0  0  0
    2.5357   -1.5212    2.0369 C   0  0  0  0  0  0  0  0  0  0  0  0
    6.9494   -1.0559   -1.9882 C   0  0  0  0  0  0  0  0  0  0  0  0
    0.9143    1.2723   -0.2059 C   0  0  0  0  0  0  0  0  0  0  0  0
    0.9254   -1.6585    0.0908 C   0  0  0  0  0  0  0  0  0  0  0  0
    6.8878    1.7982    0.5541 C   0  0  0  0  0  0  0  0  0  0  0  0
    0.4249    0.3711   -1.3383 C   0  0  0  0  0  0  0  0  0  0  0  0
   -0.0931   -0.9654   -0.8202 C   0  0  0  0  0  0  0  0  0  0  0  0
    2.2118    1.5751    1.8418 C   0  0  0  0  0  0  0  0  0  0  0  0
    8.8397    0.0703   -0.8104 C   0  0  0  0  0  0  0  0  0  0  0  0
    9.8754    1.1232   -0.8270 C   0  0  0  0  0  0  0  0  0  0  0  0
    9.2725   -1.0204   -0.1839 C   0  0  0  0  0  0  0  0  0  0  0  0
   -2.4333   -0.7872   -0.9984 C   0  0  0  0  0  0  0  0  0  0  0  0
   10.6406   -0.7358    0.2519 C   0  0  0  0  0  0  0  0  0  0  0  0
   -3.6515   -1.3257   -0.2614 C   0  0  0  0  0  0  0  0  0  0  0  0
   -4.1587   -0.3352    0.7885 C   0  0  0  0  0  0  0  0  0  0  0  0
   -4.2335    1.0859    0.2686 C   0  0  0  0  0  0  0  0  0  0  0  0
   -3.0570    1.4913   -0.6177 C   0  0  0  0  0  0  0  0  0  0  0  0
   -6.3298    0.2399    0.3538 C   0  0  0  0  0  0  0  0  0  0  0  0
   -3.3320    2.7802   -1.3835 C   0  0  0  0  0  0  0  0  0  0  0  0
   -7.2357   -0.5564   -0.5765 C   0  0  0  0  0  0  0  0  0  0  0  0
   -7.1645    1.0870    1.3128 C   0  0  0  0  0  0  0  0  0  0  0  0
   -7.8114   -1.7858    0.1236 C   0  0  0  0  0  0  0  0  0  0  0  0
   -8.0439    2.0674    0.5615 C   0  0  0  0  0  0  0  0  0  0  0  0
   -8.7463   -2.5637   -0.8039 C   0  0  0  0  0  0  0  0  0  0  0  0
   -9.9038   -1.6891   -1.2888 C   0  0  0  0  0  0  0  0  0  0  0  0
  -10.7213   -1.1465   -0.1143 C   0  0  0  0  0  0  0  0  0  0  0  0
  -11.8586   -0.2454   -0.6004 C   0  0  0  0  0  0  0  0  0  0  0  0
  -12.6901    0.3502    0.5378 C   0  0  0  0  0  0  0  0  0  0  0  0
  -13.8048    1.2678    0.0602 C   0  0  0  0  0  0  0  0  0  0  0  0
  1 10  1  0
  2 15  1  0
  3 27  1  0
  3 32  1  0
  4 28  2  0
  5 30  1  0
  5 33  1  0
  6 32  1  0
  6 37  1  0
  7 33  2  0
  8 35  1  0
  8 38  1  0
  9 36  1  0
  9 38  1  0
 10 11  1  0
 10 12  1  0
 10 19  1  0
 11 13  1  0
 11 20  1  0
 12 16  1  0
 12 17  1  0
 12 25  1  0
 13 14  1  0
 13 18  1  0
 14 15  1  0
 14 23  1  0
 14 28  1  0
 15 21  1  0
 15 24  1  0
 16 22  1  0
 16 29  1  0
 17 18  1  0
 19 22  1  0
 20 21  1  0
 23 26  1  0
 24 27  1  0
 26 27  1  0
 29 30  1  0
 29 31  2  0
 31 33  1  0
 32 34  1  0
 34 35  1  0
 35 36  1  0
 36 37  1  0
 37 39  1  0
 38 40  1  0
 38 41  1  0
 40 42  1  0
 41 43  1  0
 42 44  1  0
 44 45  1  0
 45 46  1  0
 46 47  1  0
 47 48  1  0
 48 49  1  0
M  END
>  <PUBCHEM_COMPOUND_CID>  (1) 
38419

>  <PUBCHEM_CONFORMER_RMSD>  (1) 
1.8

>  <PUBCHEM_CONFORMER_DIVERSEORDER>  (1) 
1
54
88
36
5
38
17
77
96
73
107
25
7
49
76
37
98
32
105
93
81
44
78
116
59
103
39
118
70
65
18
30
34
67
101
11
99
12
4
68
95
82
117
13
55
91
47
86
58
90
41
28
42
52
112
83
113
10
84
72
35
3
61
26
16
46
19
74
121
22
109
97
40
20
106
71
62
79
94
111
104
115
29
45
75
64
24
15
31
80
6
48
92
27
100
63
123
50
9
21
69
108
2
87
119
114
51
23
120
56
8
110
66
60
89
33
102
14
85
57
53
43
122

>  <PUBCHEM_MMFF94_PARTIAL_CHARGES>  (1) 
28
1 -0.68
10 0.28
14 0.06
15 0.28
16 0.14
2 -0.68
27 0.28
28 0.45
29 -0.28
3 -0.56
30 0.42
31 -0.14
32 0.56
33 0.71
35 0.28
36 0.28
37 0.28
38 0.56
4 -0.57
5 -0.43
6 -0.56
7 -0.57
75 0.4
76 0.06
77 0.4
8 -0.56
80 0.15
9 -0.56

>  <PUBCHEM_EFFECTIVE_ROTOR_COUNT>  (1) 
16

>  <PUBCHEM_PHARMACOPHORE_FEATURES>  (1) 
19
1 1 acceptor
1 1 donor
1 2 acceptor
1 2 donor
1 3 acceptor
1 4 acceptor
1 43 hydrophobe
1 49 hydrophobe
1 6 acceptor
1 7 acceptor
1 8 acceptor
1 9 acceptor
5 10 12 16 19 22 rings
5 5 29 30 31 33 rings
5 8 9 35 36 38 rings
6 10 11 12 13 17 18 rings
6 11 13 14 15 20 21 rings
6 14 15 23 24 26 27 rings
6 6 32 34 35 36 37 rings

>  <PUBCHEM_HEAVY_ATOM_COUNT>  (1) 
49

>  <PUBCHEM_ATOM_DEF_STEREO_COUNT>  (1) 
8

>  <PUBCHEM_ATOM_UDEF_STEREO_COUNT>  (1) 
5

>  <PUBCHEM_BOND_DEF_STEREO_COUNT>  (1) 
0

>  <PUBCHEM_BOND_UDEF_STEREO_COUNT>  (1) 
0

>  <PUBCHEM_ISOTOPIC_ATOM_COUNT>  (1) 
0

>  <PUBCHEM_COMPONENT_COUNT>  (1) 
1

>  <PUBCHEM_CACTVS_TAUTO_COUNT>  (1) 
1

>  <PUBCHEM_CONFORMER_ID>  (1) 
0000961300000001

>  <PUBCHEM_MMFF94_ENERGY>  (1) 
146.5023

>  <PUBCHEM_FEATURE_SELFOVERLAP>  (1) 
96.967

>  <PUBCHEM_SHAPE_FINGERPRINT>  (1) 
10076449 9 18202848747391669888
10580692 12 18272936015927861590
11146851 88 9439396926639786692
11476731 38 17458063764445098323
11672396 167 17895745180428546570
12013929 2 18131351909058545847
12144603 126 18260266348959669219
12522641 33 13695863719366126296
12664476 115 18334011701171433052
13811026 1 18413112779291664982
13947947 74 17168141244013676641
14118638 360 17458337507557477544
15183329 4 17918278641047926640
15840311 113 18337954597087281196
15890870 6 18407759240286662171
16067689 302 17346325851547756590
16728433 110 15841548592023113618
18608769 82 17748830731117555278
19315958 150 12396568629726222081
20105231 36 18201718457268562759
3092352 35 18410572889982991018
335507 130 18273214218192305582
4625314 4 13190348989083166030
5028188 123 18413670210839552997
6523845 18 17989202663913955111
9663363 56 15769775754501552082

>  <PUBCHEM_SHAPE_MULTIPOLES>  (1) 
955.57
46.5
2.21
1.58
66.53
0.43
-0.27
-5.05
5.52
1.68
0
-1.22
0.03
-1.53

>  <PUBCHEM_SHAPE_SELFOVERLAP>  (1) 
2030.307

>  <PUBCHEM_SHAPE_VOLUME>  (1) 
527.9

>  <PUBCHEM_COORDINATE_TYPE>  (1) 
2
5
10

$$$$
