38424
     RDKit          3D

 17 17  0  0  0  0  0  0  0  0999 V2000
    3.6931   -2.2633    0.7848 S   0  0  0  0  0  0  0  0  0  0  0  0
   -2.9262   -1.7008   -0.3883 O   0  0  0  0  0  0  0  0  0  0  0  0
   -3.5523    0.4582    1.2457 O   0  0  0  0  0  0  0  0  0  0  0  0
    2.5694    0.8060   -0.0771 N   0  0  0  0  0  0  0  0  0  0  0  0
    4.0593    0.9900    1.8022 N   0  0  0  0  0  0  0  0  0  0  0  0
    1.0668    0.6023   -1.9927 C   0  0  0  0  0  0  0  0  0  0  0  0
   -0.1690    0.5607   -1.1279 C   0  0  0  0  0  0  0  0  0  0  0  0
    2.3034    0.0466   -1.2917 C   0  0  0  0  0  0  0  0  0  0  0  0
   -0.9828   -0.5609   -1.1591 C   0  0  0  0  0  0  0  0  0  0  0  0
   -0.4689    1.6450   -0.3180 C   0  0  0  0  0  0  0  0  0  0  0  0
   -2.1255   -0.5992   -0.3600 C   0  0  0  0  0  0  0  0  0  0  0  0
   -2.4397    0.4846    0.4600 C   0  0  0  0  0  0  0  0  0  0  0  0
   -1.6115    1.6068    0.4809 C   0  0  0  0  0  0  0  0  0  0  0  0
    3.5906    0.4418    0.6291 C   0  0  0  0  0  0  0  0  0  0  0  0
    4.3825   -0.7381    0.0942 C   0  0  0  0  0  0  0  0  0  0  0  0
   -2.6297   -2.7417    0.5407 C   0  0  0  0  0  0  0  0  0  0  0  0
   -4.7595    0.9620    0.6772 C   0  0  0  0  0  0  0  0  0  0  0  0
  1 15  1  0
  2 11  1  0
  2 16  1  0
  3 12  1  0
  3 17  1  0
  4  8  1  0
  4 14  2  0
  5 14  1  0
  6  7  1  0
  6  8  1  0
  7  9  2  0
  7 10  1  0
  9 11  1  0
 10 13  2  0
 11 12  2  0
 12 13  1  0
 14 15  1  0
M  END
>  <PUBCHEM_COMPOUND_CID>  (1) 
38424

>  <PUBCHEM_CONFORMER_RMSD>  (1) 
0.8

>  <PUBCHEM_CONFORMER_DIVERSEORDER>  (1) 
5
28
27
43
38
22
51
40
32
41
11
50
12
18
49
37
23
24
36
35
44
47
13
2
21
25
48
10
6
26
8
20
45
34
42
16
17
15
30
3
29
1
33
19
46
7
14
31
4
9
39

>  <PUBCHEM_MMFF94_PARTIAL_CHARGES>  (1) 
23
1 -0.41
10 -0.15
11 0.08
12 0.08
13 -0.15
14 0.44
15 0.29
16 0.28
17 0.28
2 -0.36
22 0.15
23 0.15
24 0.15
3 -0.36
33 0.4
34 0.4
35 0.18
4 -0.7
5 -0.85
6 0.14
7 -0.14
8 0.25
9 -0.15

>  <PUBCHEM_EFFECTIVE_ROTOR_COUNT>  (1) 
6

>  <PUBCHEM_PHARMACOPHORE_FEATURES>  (1) 
5
1 2 acceptor
1 3 acceptor
1 5 donor
3 4 5 14 cation
6 7 9 10 11 12 13 rings

>  <PUBCHEM_HEAVY_ATOM_COUNT>  (1) 
17

>  <PUBCHEM_ATOM_DEF_STEREO_COUNT>  (1) 
0

>  <PUBCHEM_ATOM_UDEF_STEREO_COUNT>  (1) 
0

>  <PUBCHEM_BOND_DEF_STEREO_COUNT>  (1) 
0

>  <PUBCHEM_BOND_UDEF_STEREO_COUNT>  (1) 
0

>  <PUBCHEM_ISOTOPIC_ATOM_COUNT>  (1) 
0

>  <PUBCHEM_COMPONENT_COUNT>  (1) 
1

>  <PUBCHEM_CACTVS_TAUTO_COUNT>  (1) 
2

>  <PUBCHEM_CONFORMER_ID>  (1) 
0000961800000005

>  <PUBCHEM_MMFF94_ENERGY>  (1) 
73.6847

>  <PUBCHEM_FEATURE_SELFOVERLAP>  (1) 
25.376

>  <PUBCHEM_SHAPE_FINGERPRINT>  (1) 
10366900 7 18131630067434254926
10498660 4 10087654654002035811
11127187 94 13984660356226145557
11578080 2 17824243007445536357
12251169 10 18341616992693058172
12403259 327 18201720630664114696
12553582 1 17313103055742285198
12633257 1 18201715094678467914
12670546 177 11097865085599270730
12824470 246 17824263932604874547
12892183 10 18201151165435313330
13083527 12 17270874288890331183
13533116 47 18270394980115971199
13583140 156 18200295719577129020
13675066 3 18040157305563058285
14178342 30 18340497741459036271
16945 1 18197809685469664765
1813 80 17095528370327509766
19107657 9 13973689485487131842
20281475 54 18259985998304184198
20361792 2 16805042913133692772
20645477 70 16371022822614080484
20671657 53 15213020436368599028
20871999 31 11241969287075021415
21524375 3 13614524047844805116
21650355 55 18411980286509815581
21864079 5 16128079170427294384
22079108 93 13110964279496104791
22169311 14 18202283589386825004
22926399 37 12535341269042676979
23352939 185 11242267233589163039
23402539 116 18271803498225735957
23559900 14 18058471862114706940
2748010 2 17629797606262413493
3323516 105 13695868151202760097
4028521 119 11527941240568215786
4072396 5 18338810996617959353
474 4 12822994436113419426
5281201 14 7853576837747741490
59027123 10 8718552744078133226
7097593 13 18412259519808762928
90316 7 18411986844941077629

>  <PUBCHEM_SHAPE_MULTIPOLES>  (1) 
332
8.74
2.18
1.49
2.63
1.8
0.2
1.7
-4.15
-0.52
-0.33
0.65
-0.4
-0.47

>  <PUBCHEM_SHAPE_SELFOVERLAP>  (1) 
662.176

>  <PUBCHEM_SHAPE_VOLUME>  (1) 
199.3

>  <PUBCHEM_COORDINATE_TYPE>  (1) 
2
5
10

$$$$
