38428
     RDKit          3D

 22 23  0  0  0  0  0  0  0  0999 V2000
   -1.0710   -3.8138    0.2613 S   0  0  0  0  0  0  0  0  0  0  0  0
   -1.5494   -2.2499   -0.9852 S   0  0  0  0  0  0  0  0  0  0  0  0
    1.5186   -1.6561    0.4011 N   0  0  0  0  0  0  0  0  0  0  0  0
   -3.2396    0.6594   -0.6973 N   0  0  0  0  0  0  0  0  0  0  0  0
    2.1952   -3.7848    1.2935 N   0  0  0  0  0  0  0  0  0  0  0  0
   -4.4408   -0.8284   -2.1563 N   0  0  0  0  0  0  0  0  0  0  0  0
    2.9115   -0.0960   -0.8240 C   0  0  0  0  0  0  0  0  0  0  0  0
   -2.0182    2.1469    0.7778 C   0  0  0  0  0  0  0  0  0  0  0  0
    2.5530    1.0840    0.0740 C   0  0  0  0  0  0  0  0  0  0  0  0
    4.3077    0.2784   -1.3111 C   0  0  0  0  0  0  0  0  0  0  0  0
   -1.1050    2.3036    1.9898 C   0  0  0  0  0  0  0  0  0  0  0  0
   -1.2057    2.8102   -0.3296 C   0  0  0  0  0  0  0  0  0  0  0  0
    3.0935    2.2981   -0.6752 C   0  0  0  0  0  0  0  0  0  0  0  0
    4.2150    1.7776   -1.5757 C   0  0  0  0  0  0  0  0  0  0  0  0
   -0.5213    3.7047    1.8359 C   0  0  0  0  0  0  0  0  0  0  0  0
   -0.5971    4.0355    0.3444 C   0  0  0  0  0  0  0  0  0  0  0  0
    2.8671   -1.4320   -0.1034 C   0  0  0  0  0  0  0  0  0  0  0  0
   -2.3715    0.7009    0.4773 C   0  0  0  0  0  0  0  0  0  0  0  0
    1.3065   -2.7658    1.0318 C   0  0  0  0  0  0  0  0  0  0  0  0
   -3.6246   -0.5083   -1.0944 C   0  0  0  0  0  0  0  0  0  0  0  0
   -0.1064   -2.9799    1.5445 C   0  0  0  0  0  0  0  0  0  0  0  0
   -3.1177   -1.6844   -0.2790 C   0  0  0  0  0  0  0  0  0  0  0  0
  1  2  1  0
  1 21  1  0
  2 22  1  0
  3 17  1  0
  3 19  2  0
  4 18  1  0
  4 20  2  0
  5 19  1  0
  6 20  1  0
  7  9  1  0
  7 10  1  0
  7 17  1  0
  8 11  1  0
  8 12  1  0
  8 18  1  0
  9 13  1  0
 10 14  1  0
 11 15  1  0
 12 16  1  0
 13 14  1  0
 15 16  1  0
 19 21  1  0
 20 22  1  0
M  END
>  <PUBCHEM_COMPOUND_CID>  (1) 
38428

>  <PUBCHEM_CONFORMER_RMSD>  (1) 
1.4

>  <PUBCHEM_CONFORMER_DIVERSEORDER>  (1) 
1
23
13
9
12
19
3
5
24
25
21
16
27
20
10
22
7
18
28
2
15
14
26
17
6
4
8
11

>  <PUBCHEM_MMFF94_PARTIAL_CHARGES>  (1) 
16
1 -0.23
17 0.25
18 0.25
19 0.44
2 -0.23
20 0.44
21 0.29
22 0.29
3 -0.7
4 -0.7
49 0.4
5 -0.85
50 0.4
51 0.4
52 0.4
6 -0.85

>  <PUBCHEM_EFFECTIVE_ROTOR_COUNT>  (1) 
11

>  <PUBCHEM_PHARMACOPHORE_FEATURES>  (1) 
7
1 5 donor
1 6 donor
3 3 5 19 cation
3 4 6 20 cation
4 1 2 21 22 hydrophobe
5 7 9 10 13 14 rings
5 8 11 12 15 16 rings

>  <PUBCHEM_HEAVY_ATOM_COUNT>  (1) 
22

>  <PUBCHEM_ATOM_DEF_STEREO_COUNT>  (1) 
0

>  <PUBCHEM_ATOM_UDEF_STEREO_COUNT>  (1) 
0

>  <PUBCHEM_BOND_DEF_STEREO_COUNT>  (1) 
0

>  <PUBCHEM_BOND_UDEF_STEREO_COUNT>  (1) 
0

>  <PUBCHEM_ISOTOPIC_ATOM_COUNT>  (1) 
0

>  <PUBCHEM_COMPONENT_COUNT>  (1) 
1

>  <PUBCHEM_CACTVS_TAUTO_COUNT>  (1) 
3

>  <PUBCHEM_CONFORMER_ID>  (1) 
0000961C00000001

>  <PUBCHEM_MMFF94_ENERGY>  (1) 
44.261

>  <PUBCHEM_FEATURE_SELFOVERLAP>  (1) 
35.52

>  <PUBCHEM_SHAPE_FINGERPRINT>  (1) 
10708813 3 17977101254249764350
12100795 323 15672378424057017994
12553582 1 18270684280670606417
12788726 201 18058167224659293777
13032168 30 18342752831339281712
13122387 1 16897930458216813384
13402501 40 17186158111375018840
13583140 156 16814628215340188969
13965767 371 16395195224826264803
14114211 68 18114760307468440983
14123250 116 18339941336861356226
14251740 79 18338534014055383502
14251751 93 17983311338936459014
14468879 13 17022895727650580239
14725015 67 17543896266866346554
14931854 50 18410854412208929053
15003188 8 16823882752453991314
17859628 37 16539043240366835031
20531524 4 17546722016302946512
20765182 40 18050564342635388168
20775438 99 16833720632881577319
21141583 151 18196660815639632582
21315764 21 17752457911954612269
2132832 1 17975950116914916387
469060 322 17097795709396584659

>  <PUBCHEM_SHAPE_MULTIPOLES>  (1) 
440.52
7.14
6.04
1.77
3.01
0.33
0.11
-0.14
-5.54
-0.74
3.62
-0.51
0.21
-1.13

>  <PUBCHEM_SHAPE_SELFOVERLAP>  (1) 
850.098

>  <PUBCHEM_SHAPE_VOLUME>  (1) 
269.7

>  <PUBCHEM_COORDINATE_TYPE>  (1) 
2
5
10

$$$$
