38421
     RDKit          3D

 21 22  0  0  1  0  0  0  0  0999 V2000
   -0.7637    2.0018   -0.4453 S   0  0  0  0  0  0  0  0  0  0  0  0
   -1.4269    2.4940    0.7467 O   0  0  0  0  0  0  0  0  0  0  0  0
   -0.6938    2.8005   -1.6534 O   0  0  0  0  0  0  0  0  0  0  0  0
   -4.1264   -0.6440    1.2649 O   0  0  0  0  0  0  0  0  0  0  0  0
   -3.9961    0.8202   -0.4628 O   0  0  0  0  0  0  0  0  0  0  0  0
   -1.3811    0.4410   -0.8246 N   0  0  0  0  0  0  0  0  0  0  0  0
   -1.9813   -0.3494    0.2479 C   0  0  0  0  0  0  0  0  0  0  0  0
   -1.7763   -1.8455   -0.0360 C   0  0  0  0  0  0  0  0  0  0  0  0
   -0.3180   -2.2304   -0.1343 C   0  0  0  0  0  0  0  0  0  0  0  0
    0.9545    1.7866    0.0181 C   0  0  0  0  0  0  0  0  0  0  0  0
   -3.4521    0.0276    0.2956 C   0  0  0  0  0  0  0  0  0  0  0  0
    0.3145   -2.1801   -1.3655 C   0  0  0  0  0  0  0  0  0  0  0  0
    0.3572   -2.6252    1.0088 C   0  0  0  0  0  0  0  0  0  0  0  0
    1.9079    1.8580   -0.9661 C   0  0  0  0  0  0  0  0  0  0  0  0
    1.2488    1.5584    1.3388 C   0  0  0  0  0  0  0  0  0  0  0  0
    1.6603   -2.5350   -1.4563 C   0  0  0  0  0  0  0  0  0  0  0  0
    1.7032   -2.9800    0.9179 C   0  0  0  0  0  0  0  0  0  0  0  0
    2.3547   -2.9349   -0.3147 C   0  0  0  0  0  0  0  0  0  0  0  0
    3.2449    1.6899   -0.6057 C   0  0  0  0  0  0  0  0  0  0  0  0
    2.5858    1.3904    1.6992 C   0  0  0  0  0  0  0  0  0  0  0  0
    3.5838    1.4562    0.7269 C   0  0  0  0  0  0  0  0  0  0  0  0
  1  2  2  0
  1  3  2  0
  1  6  1  0
  1 10  1  0
  4 11  1  0
  5 11  2  0
  6  7  1  0
  7  8  1  0
  7 11  1  0
  8  9  1  0
  9 12  2  0
  9 13  1  0
 10 14  2  0
 10 15  1  0
 12 16  1  0
 13 17  2  0
 14 19  1  0
 15 20  2  0
 16 18  2  0
 17 18  1  0
 19 21  2  0
 20 21  1  0
M  END
>  <PUBCHEM_COMPOUND_CID>  (1) 
38421

>  <PUBCHEM_CONFORMER_RMSD>  (1) 
0.8

>  <PUBCHEM_CONFORMER_DIVERSEORDER>  (1) 
1
16
7
40
35
21
32
37
13
22
10
2
27
36
25
31
14
34
30
33
3
19
8
26
24
39
11
23
5
29
20
38
12
6
28
15
18
9
4
17

>  <PUBCHEM_MMFF94_PARTIAL_CHARGES>  (1) 
33
1 1.45
10 -0.01
11 0.66
12 -0.15
13 -0.15
14 -0.15
15 -0.15
16 -0.15
17 -0.15
18 -0.15
19 -0.15
2 -0.65
20 -0.15
21 -0.15
25 0.42
26 0.15
27 0.15
28 0.15
29 0.15
3 -0.65
30 0.15
31 0.15
32 0.15
33 0.15
34 0.15
35 0.15
36 0.5
4 -0.65
5 -0.57
6 -0.91
7 0.42
8 0.14
9 -0.14

>  <PUBCHEM_EFFECTIVE_ROTOR_COUNT>  (1) 
6

>  <PUBCHEM_PHARMACOPHORE_FEATURES>  (1) 
8
1 2 acceptor
1 3 acceptor
1 4 acceptor
1 5 acceptor
1 6 donor
3 4 5 11 anion
6 10 14 15 19 20 21 rings
6 9 12 13 16 17 18 rings

>  <PUBCHEM_HEAVY_ATOM_COUNT>  (1) 
21

>  <PUBCHEM_ATOM_DEF_STEREO_COUNT>  (1) 
0

>  <PUBCHEM_ATOM_UDEF_STEREO_COUNT>  (1) 
1

>  <PUBCHEM_BOND_DEF_STEREO_COUNT>  (1) 
0

>  <PUBCHEM_BOND_UDEF_STEREO_COUNT>  (1) 
0

>  <PUBCHEM_ISOTOPIC_ATOM_COUNT>  (1) 
0

>  <PUBCHEM_COMPONENT_COUNT>  (1) 
1

>  <PUBCHEM_CACTVS_TAUTO_COUNT>  (1) 
1

>  <PUBCHEM_CONFORMER_ID>  (1) 
0000961500000001

>  <PUBCHEM_MMFF94_ENERGY>  (1) 
39.0299

>  <PUBCHEM_FEATURE_SELFOVERLAP>  (1) 
40.672

>  <PUBCHEM_SHAPE_FINGERPRINT>  (1) 
10382601 240 18409741654865179379
11578080 2 17314781902254621327
12156800 1 14207074164139790258
12422481 6 18266437859669353378
12553582 1 15889125919871042958
12592029 89 18336272357059840483
12788726 201 17189536902281204831
13140716 1 18195242449839849568
13149001 5 17615952323463997893
1420 336 17402602447418295434
14251740 79 18125469560167241796
15006816 218 18410292514474989036
16752209 62 17907289210690006455
17093844 170 18409451379801425612
17492 54 18118704144556548606
20028762 73 17552367983058913927
20600515 1 17259345471365369142
20691752 17 17822866264510635377
20715895 44 14941392303402369244
20905425 154 18341900653586459638
21524375 3 18197499742938227327
23419403 2 17825647990000104783
23728640 28 17836079353302715210
238 59 17979598339535085004
2748010 2 18049142398399424836
465052 167 17533787271793951275
5265222 85 18266745860976363852
539174 4 18056229958053156825
5895379 119 15981473360802047361
59755656 215 18338515361255367311
81228 2 17331944531344812387
90525 40 18047187728644313133
9925002 15 17556255653698967262

>  <PUBCHEM_SHAPE_MULTIPOLES>  (1) 
407.56
5.34
4.41
1.46
2.75
2.56
0
-2.31
1.26
-1.87
-0.58
-0.49
-0.07
0.5

>  <PUBCHEM_SHAPE_SELFOVERLAP>  (1) 
849.856

>  <PUBCHEM_SHAPE_VOLUME>  (1) 
230.1

>  <PUBCHEM_COORDINATE_TYPE>  (1) 
2
5
10

$$$$
