38437
     RDKit          3D

 24 27  0  0  1  0  0  0  0  0999 V2000
    3.4027    0.0946    0.1581 O   0  0  0  0  0  0  0  0  0  0  0  0
    3.2821    2.7748    0.2367 O   0  0  0  0  0  0  0  0  0  0  0  0
   -2.7560    0.5900    0.1614 N   0  0  0  0  0  0  0  0  0  0  0  0
   -1.5573   -0.1860   -0.2502 C   0  0  0  0  0  0  0  0  0  0  0  0
   -0.2521    0.6013   -0.0916 C   0  0  0  0  0  0  0  0  0  0  0  0
   -1.4394   -1.5083    0.5413 C   0  0  0  0  0  0  0  0  0  0  0  0
   -2.7521    1.9049   -0.4994 C   0  0  0  0  0  0  0  0  0  0  0  0
   -0.2803    2.0079   -0.0186 C   0  0  0  0  0  0  0  0  0  0  0  0
   -1.5885    2.7476    0.0141 C   0  0  0  0  0  0  0  0  0  0  0  0
    0.9842   -0.0939   -0.0837 C   0  0  0  0  0  0  0  0  0  0  0  0
   -0.1964   -2.2765    0.1507 C   0  0  0  0  0  0  0  0  0  0  0  0
   -4.0062   -0.1046   -0.1646 C   0  0  0  0  0  0  0  0  0  0  0  0
    0.9888   -1.5731   -0.1546 C   0  0  0  0  0  0  0  0  0  0  0  0
    0.9151    2.7241    0.0925 C   0  0  0  0  0  0  0  0  0  0  0  0
    2.1657    0.6613    0.0267 C   0  0  0  0  0  0  0  0  0  0  0  0
   -5.2036    0.6900    0.3506 C   0  0  0  0  0  0  0  0  0  0  0  0
    2.1318    2.0535    0.1118 C   0  0  0  0  0  0  0  0  0  0  0  0
   -0.2212   -3.6796    0.1355 C   0  0  0  0  0  0  0  0  0  0  0  0
    2.1210   -2.3254   -0.5158 C   0  0  0  0  0  0  0  0  0  0  0  0
    0.9170   -4.3991   -0.2142 C   0  0  0  0  0  0  0  0  0  0  0  0
    2.0851   -3.7224   -0.5453 C   0  0  0  0  0  0  0  0  0  0  0  0
   -6.5130   -0.0203    0.0437 C   0  0  0  0  0  0  0  0  0  0  0  0
    3.8574   -0.1573    1.4839 C   0  0  0  0  0  0  0  0  0  0  0  0
    3.9155    3.1964   -0.9690 C   0  0  0  0  0  0  0  0  0  0  0  0
  1 15  1  0
  1 23  1  0
  2 17  1  0
  2 24  1  0
  3  4  1  0
  3  7  1  0
  3 12  1  0
  4  5  1  0
  4  6  1  0
  5  8  2  0
  5 10  1  0
  6 11  1  0
  7  9  1  0
  8  9  1  0
  8 14  1  0
 10 13  1  0
 10 15  2  0
 11 13  2  0
 11 18  1  0
 12 16  1  0
 13 19  1  0
 14 17  2  0
 15 17  1  0
 16 22  1  0
 18 20  2  0
 19 21  2  0
 20 21  1  0
M  END
>  <PUBCHEM_COMPOUND_CID>  (1) 
38437

>  <PUBCHEM_CONFORMER_RMSD>  (1) 
0.8

>  <PUBCHEM_CONFORMER_DIVERSEORDER>  (1) 
1
2
5
4
6
7
3

>  <PUBCHEM_MMFF94_PARTIAL_CHARGES>  (1) 
25
1 -0.36
11 -0.14
12 0.27
14 -0.15
15 0.08
17 0.08
18 -0.15
19 -0.15
2 -0.36
20 -0.15
21 -0.15
23 0.28
24 0.28
3 -0.81
34 0.15
37 0.15
38 0.15
39 0.15
4 0.41
40 0.15
5 -0.14
6 0.14
7 0.27
8 -0.14
9 0.14

>  <PUBCHEM_EFFECTIVE_ROTOR_COUNT>  (1) 
4.8

>  <PUBCHEM_PHARMACOPHORE_FEATURES>  (1) 
8
1 1 acceptor
1 2 acceptor
1 22 hydrophobe
1 3 cation
6 11 13 18 19 20 21 rings
6 3 4 5 7 8 9 rings
6 4 5 6 10 11 13 rings
6 5 8 10 14 15 17 rings

>  <PUBCHEM_HEAVY_ATOM_COUNT>  (1) 
24

>  <PUBCHEM_ATOM_DEF_STEREO_COUNT>  (1) 
0

>  <PUBCHEM_ATOM_UDEF_STEREO_COUNT>  (1) 
1

>  <PUBCHEM_BOND_DEF_STEREO_COUNT>  (1) 
0

>  <PUBCHEM_BOND_UDEF_STEREO_COUNT>  (1) 
0

>  <PUBCHEM_ISOTOPIC_ATOM_COUNT>  (1) 
0

>  <PUBCHEM_COMPONENT_COUNT>  (1) 
1

>  <PUBCHEM_CACTVS_TAUTO_COUNT>  (1) 
1

>  <PUBCHEM_CONFORMER_ID>  (1) 
0000962500000001

>  <PUBCHEM_MMFF94_ENERGY>  (1) 
91.6946

>  <PUBCHEM_FEATURE_SELFOVERLAP>  (1) 
40.69

>  <PUBCHEM_SHAPE_FINGERPRINT>  (1) 
10319926 262 16103578344678283338
10411042 1 17978794502215250271
10693767 8 18059296452712397015
10967382 1 18411136913630055478
1100329 8 18411132576161739402
12553582 1 17258214069109586623
12592029 89 18411418393170843611
12730499 353 18337684091577837427
12788726 201 17694210471466506911
13140716 1 18338790251187084426
13583140 156 16734359729815436768
138480 1 18122627154161236301
14178342 30 18124869054334436656
14223421 5 18050561846499227201
14790565 3 18266468774707396653
14863182 85 18409736122973883622
15042514 8 17905606954142443112
15927050 60 18341054136976151766
16728300 4 17390476668210272010
16945 1 18411421687379143244
19591789 44 18339082699757938726
19930381 70 18338516335621885267
20028762 73 18272362122672421183
20645477 70 18334853901382222049
20739085 24 18334304170885132765
20905425 154 17910391689248948750
21197605 99 18265339598257589123
21421861 104 18263362482696615161
221490 88 18121503458105645783
22182313 1 18119516653384204645
2334 1 18050283970847496434
23557571 272 16327930415228472510
23558518 356 18123479271916482945
23559900 14 18193832635594297853
2748010 2 18194129748462374846
3091708 16 9115003629761068411
335352 9 18410576223520678116
33824 294 18409730668887416505
3421961 26 18268430131842080571
350125 39 18408886226519400732
352729 6 18338513152887757522
42630746 31 18413669098110817823
465052 167 17967530159990470521
474 4 18412544314710849547
59755656 215 18338235964320134999
6443956 14 18121502349529089573
7364860 26 18340205168117891039
9709674 26 18263928748496819731

>  <PUBCHEM_SHAPE_MULTIPOLES>  (1) 
477.19
8.11
5.18
0.81
12.88
3.48
0.09
-3.34
0.56
-4.99
-0.84
-0.5
-0.04
0.04

>  <PUBCHEM_SHAPE_SELFOVERLAP>  (1) 
1037.568

>  <PUBCHEM_SHAPE_VOLUME>  (1) 
260.6

>  <PUBCHEM_COORDINATE_TYPE>  (1) 
2
5
10

$$$$
