38439
     RDKit          3D

 19 21  0  0  0  0  0  0  0  0999 V2000
   -2.3342   -2.8740   -0.0005 Cl  0  0  0  0  0  0  0  0  0  0  0  0
   -5.0171   -1.1786   -0.0006 Cl  0  0  0  0  0  0  0  0  0  0  0  0
   -4.8224    2.0071    0.0007 Cl  0  0  0  0  0  0  0  0  0  0  0  0
    5.0937   -1.6821    0.0009 Cl  0  0  0  0  0  0  0  0  0  0  0  0
    5.2361    1.5496    0.0000 Cl  0  0  0  0  0  0  0  0  0  0  0  0
    0.0688   -1.2699   -0.0001 O   0  0  0  0  0  0  0  0  0  0  0  0
    0.1945    1.5811   -0.0004 O   0  0  0  0  0  0  0  0  0  0  0  0
   -1.0595   -0.4896    0.0000 C   0  0  0  0  0  0  0  0  0  0  0  0
   -0.9982    0.9031   -0.0001 C   0  0  0  0  0  0  0  0  0  0  0  0
    1.2615   -0.5920    0.0000 C   0  0  0  0  0  0  0  0  0  0  0  0
    1.3229    0.8008   -0.0003 C   0  0  0  0  0  0  0  0  0  0  0  0
   -2.2944   -1.1373    0.0002 C   0  0  0  0  0  0  0  0  0  0  0  0
   -2.1712    1.6569    0.0001 C   0  0  0  0  0  0  0  0  0  0  0  0
    2.4347   -1.3457    0.0001 C   0  0  0  0  0  0  0  0  0  0  0  0
    2.5578    1.4484   -0.0005 C   0  0  0  0  0  0  0  0  0  0  0  0
   -3.4689   -0.3844    0.0004 C   0  0  0  0  0  0  0  0  0  0  0  0
   -3.4074    1.0103    0.0003 C   0  0  0  0  0  0  0  0  0  0  0  0
    3.6710   -0.6991    0.0000 C   0  0  0  0  0  0  0  0  0  0  0  0
    3.7324    0.6956   -0.0003 C   0  0  0  0  0  0  0  0  0  0  0  0
  1 12  1  0
  2 16  1  0
  3 17  1  0
  4 18  1  0
  5 19  1  0
  6  8  1  0
  6 10  1  0
  7  9  1  0
  7 11  1  0
  8  9  2  0
  8 12  1  0
  9 13  1  0
 10 11  2  0
 10 14  1  0
 11 15  1  0
 12 16  2  0
 13 17  2  0
 14 18  2  0
 15 19  2  0
 16 17  1  0
 18 19  1  0
M  END
>  <PUBCHEM_COMPOUND_CID>  (1) 
38439

>  <PUBCHEM_CONFORMER_RMSD>  (1) 
0.6

>  <PUBCHEM_CONFORMER_DIVERSEORDER>  (1) 
1

>  <PUBCHEM_MMFF94_PARTIAL_CHARGES>  (1) 
22
1 -0.18
10 0.08
11 0.08
12 0.18
13 -0.15
14 -0.15
15 -0.15
16 0.18
17 0.18
18 0.18
19 0.18
2 -0.18
20 0.15
21 0.15
22 0.15
3 -0.18
4 -0.18
5 -0.18
6 -0.17
7 -0.17
8 0.08
9 0.08

>  <PUBCHEM_EFFECTIVE_ROTOR_COUNT>  (1) 
0.4

>  <PUBCHEM_PHARMACOPHORE_FEATURES>  (1) 
5
1 6 acceptor
1 7 acceptor
6 10 11 14 15 18 19 rings
6 6 7 8 9 10 11 rings
6 8 9 12 13 16 17 rings

>  <PUBCHEM_HEAVY_ATOM_COUNT>  (1) 
19

>  <PUBCHEM_ATOM_DEF_STEREO_COUNT>  (1) 
0

>  <PUBCHEM_ATOM_UDEF_STEREO_COUNT>  (1) 
0

>  <PUBCHEM_BOND_DEF_STEREO_COUNT>  (1) 
0

>  <PUBCHEM_BOND_UDEF_STEREO_COUNT>  (1) 
0

>  <PUBCHEM_ISOTOPIC_ATOM_COUNT>  (1) 
0

>  <PUBCHEM_COMPONENT_COUNT>  (1) 
1

>  <PUBCHEM_CACTVS_TAUTO_COUNT>  (1) 
1

>  <PUBCHEM_CONFORMER_ID>  (1) 
0000962700000001

>  <PUBCHEM_MMFF94_ENERGY>  (1) 
53.0038

>  <PUBCHEM_FEATURE_SELFOVERLAP>  (1) 
25.449

>  <PUBCHEM_SHAPE_FINGERPRINT>  (1) 
10411042 1 17762338411485067139
10608611 8 18411697703278561752
10616163 171 18339927142010650598
10967382 1 18410855473044894087
11132069 177 18409726270450632232
11471102 20 18411134727987665004
11578080 2 16986579013088261579
12107183 9 17977381638215014258
12236239 1 18040715866254867576
12390115 104 18200612314775914361
12403814 3 17748823016865935013
12500047 106 18412258445877151833
12507560 40 18411419526778361324
12788726 201 17488753276200066153
13073987 5 18410293613991937312
13140716 1 18411136935210419802
13167823 11 18408321081774088874
13862211 1 18412260671055612415
14341114 176 18409454703857906946
14790565 3 18124884452051032225
15042514 8 18265057010884257611
15196674 1 18410856551065744196
15375358 24 18271807895427818895
15442244 35 18410292480500411546
15536298 74 18413107256264090688
17492 89 18337392746498015170
17804303 29 18412547591364636364
1813 80 17095242523227079260
18186145 218 17822005398229390294
19141452 34 18409729543057326365
200 152 18131628989265646573
20510252 161 18272091574234513977
20645477 70 18341896269021170174
21065198 57 18411699902533731040
21236236 1 18412825781624951173
21267235 1 18410301306294591187
21279426 13 18339361851136087637
21421861 104 17823406107661363066
221490 88 18336834203264675610
23402539 116 18343013364075848213
23402655 69 18341891883326622524
23557571 272 18272942651551899180
23559900 14 18341891862542648482
245318 6 16593666420148630468
2871803 45 18261386762879868075
3004659 81 18334860481498855990
335352 9 18338797793128537798
34797466 226 17631462314101411324
34934 24 18409443687235020736
350125 39 18411703205975654337
3545911 37 18411702123232257068
4214541 1 18410856551065711713
474 4 17459195238850349692
5104073 3 18410856551113211408
559249 180 18336541608169580458
633830 44 17240488017846242344
69090 78 18410853240041552415
77779 3 18410576188707083308
8809292 202 18335143115225621899
9709674 26 18413112766174810486

>  <PUBCHEM_SHAPE_MULTIPOLES>  (1) 
388.62
11
2.51
0.62
3.46
0.62
0
-0.77
0
-1
0
-0.01
0.01
0

>  <PUBCHEM_SHAPE_SELFOVERLAP>  (1) 
820.18

>  <PUBCHEM_SHAPE_VOLUME>  (1) 
222.6

>  <PUBCHEM_COORDINATE_TYPE>  (1) 
2
5
10

$$$$
