38434
     RDKit          3D

 28 29  0  0  0  0  0  0  0  0999 V2000
   -1.8248   -3.4768   -0.7333 S   0  0  0  0  0  0  0  0  0  0  0  0
   -1.0650   -4.9283    0.5092 S   0  0  0  0  0  0  0  0  0  0  0  0
   -3.3707   -0.4978   -0.3411 N   0  0  0  0  0  0  0  0  0  0  0  0
    1.3359   -2.1690    0.4126 N   0  0  0  0  0  0  0  0  0  0  0  0
   -4.9035   -2.0829   -1.3019 N   0  0  0  0  0  0  0  0  0  0  0  0
    1.8784   -4.3984   -0.3092 N   0  0  0  0  0  0  0  0  0  0  0  0
   -1.8108    1.1103    0.6219 C   0  0  0  0  0  0  0  0  0  0  0  0
    2.2971   -0.0953   -0.3978 C   0  0  0  0  0  0  0  0  0  0  0  0
   -2.9343    1.9328    1.2839 C   0  0  0  0  0  0  0  0  0  0  0  0
   -1.4045    1.5552   -0.7972 C   0  0  0  0  0  0  0  0  0  0  0  0
    3.0909    0.5697   -1.5327 C   0  0  0  0  0  0  0  0  0  0  0  0
    2.6840    0.3056    1.0361 C   0  0  0  0  0  0  0  0  0  0  0  0
   -2.5591    3.3732    1.6373 C   0  0  0  0  0  0  0  0  0  0  0  0
   -0.7132    2.9178   -0.8749 C   0  0  0  0  0  0  0  0  0  0  0  0
    4.5870    0.2756   -1.6200 C   0  0  0  0  0  0  0  0  0  0  0  0
    2.9113    1.8019    1.2599 C   0  0  0  0  0  0  0  0  0  0  0  0
   -3.1030    4.4412    0.6888 C   0  0  0  0  0  0  0  0  0  0  0  0
   -1.5891    4.0671   -1.3725 C   0  0  0  0  0  0  0  0  0  0  0  0
    5.4601    0.7126   -0.4446 C   0  0  0  0  0  0  0  0  0  0  0  0
    4.3827    2.2130    1.3494 C   0  0  0  0  0  0  0  0  0  0  0  0
   -3.0021    4.1706   -0.8085 C   0  0  0  0  0  0  0  0  0  0  0  0
    5.2006    2.1328    0.0589 C   0  0  0  0  0  0  0  0  0  0  0  0
   -2.2430   -0.3634    0.5717 C   0  0  0  0  0  0  0  0  0  0  0  0
    2.3046   -1.6220   -0.5281 C   0  0  0  0  0  0  0  0  0  0  0  0
   -3.8486   -1.6884   -0.5094 C   0  0  0  0  0  0  0  0  0  0  0  0
    1.2113   -3.4567    0.4424 C   0  0  0  0  0  0  0  0  0  0  0  0
   -3.1655   -2.7961    0.2725 C   0  0  0  0  0  0  0  0  0  0  0  0
    0.1932   -4.0042    1.4266 C   0  0  0  0  0  0  0  0  0  0  0  0
  1  2  1  0
  1 27  1  0
  2 28  1  0
  3 23  1  0
  3 25  2  0
  4 24  1  0
  4 26  2  0
  5 25  1  0
  6 26  1  0
  7  9  1  0
  7 10  1  0
  7 23  1  0
  8 11  1  0
  8 12  1  0
  8 24  1  0
  9 13  1  0
 10 14  1  0
 11 15  1  0
 12 16  1  0
 13 17  1  0
 14 18  1  0
 15 19  1  0
 16 20  1  0
 17 21  1  0
 18 21  1  0
 19 22  1  0
 20 22  1  0
 25 27  1  0
 26 28  1  0
M  END
>  <PUBCHEM_COMPOUND_CID>  (1) 
38434

>  <PUBCHEM_CONFORMER_RMSD>  (1) 
1.4

>  <PUBCHEM_CONFORMER_DIVERSEORDER>  (1) 
1
10
105
43
93
66
185
118
73
166
58
170
140
54
149
13
53
21
35
32
165
136
48
86
31
156
148
162
157
16
134
171
186
6
61
147
36
181
29
152
177
96
82
60
141
167
8
150
158
87
22
84
85
83
17
64
11
178
137
121
4
79
111
98
120
146
176
95
24
74
124
57
26
97
175
107
77
12
89
5
91
151
159
62
127
160
173
75
81
103
116
30
143
108
52
123
63
128
33
135
144
132
94
122
114
70
101
187
130
40
182
155
126
28
90
109
20
183
180
72
139
45
115
179
131
168
50
3
44
138
18
102
47
106
145
41
153
129
169
19
125
2
51
42
55
133
34
154
113
15
14
80
27
142
46
164
100
99
67
172
112
25
23
174
49
9
78
161
38
92
119
117
56
37
65
163
7
184
59
76
39
88
104
110
71
69
68

>  <PUBCHEM_MMFF94_PARTIAL_CHARGES>  (1) 
16
1 -0.23
2 -0.23
23 0.25
24 0.25
25 0.44
26 0.44
27 0.29
28 0.29
3 -0.7
4 -0.7
5 -0.85
6 -0.85
67 0.4
68 0.4
69 0.4
70 0.4

>  <PUBCHEM_EFFECTIVE_ROTOR_COUNT>  (1) 
12.2

>  <PUBCHEM_PHARMACOPHORE_FEATURES>  (1) 
5
1 5 donor
1 6 donor
3 3 5 25 cation
3 4 6 26 cation
4 1 2 27 28 hydrophobe

>  <PUBCHEM_HEAVY_ATOM_COUNT>  (1) 
28

>  <PUBCHEM_ATOM_DEF_STEREO_COUNT>  (1) 
0

>  <PUBCHEM_ATOM_UDEF_STEREO_COUNT>  (1) 
0

>  <PUBCHEM_BOND_DEF_STEREO_COUNT>  (1) 
0

>  <PUBCHEM_BOND_UDEF_STEREO_COUNT>  (1) 
0

>  <PUBCHEM_ISOTOPIC_ATOM_COUNT>  (1) 
0

>  <PUBCHEM_COMPONENT_COUNT>  (1) 
1

>  <PUBCHEM_CACTVS_TAUTO_COUNT>  (1) 
3

>  <PUBCHEM_CONFORMER_ID>  (1) 
0000962200000001

>  <PUBCHEM_MMFF94_ENERGY>  (1) 
68.3729

>  <PUBCHEM_FEATURE_SELFOVERLAP>  (1) 
25.372

>  <PUBCHEM_SHAPE_FINGERPRINT>  (1) 
10256941 240 18046310159821680700
10675989 125 18265873831953323175
1100329 8 17905050601079778107
11646440 116 18122916579613665603
12104220 1 18265607879020302924
12788726 201 18337946887203766283
14363568 33 17473286278723095018
150020 26 17324942356136947201
151778 21 17905902374319132649
15322535 138 18410568449239572984
20600515 1 17904466755899043000
21796203 349 17323272623281269491
22113638 7 17905884034840232287
22393880 68 18271531897067283932
23558518 356 18194394499137862387
283562 15 18411415146191521753
463206 1 17904202877598756901
469060 322 18262811764678554225
5252454 2 18194980547066516968
581034 39 18334871489152220700

>  <PUBCHEM_SHAPE_MULTIPOLES>  (1) 
564
9.46
7.94
1.51
9.19
2.33
-0.04
-3.84
1.28
-7.53
-0.82
0.27
-0.72
-0.19

>  <PUBCHEM_SHAPE_SELFOVERLAP>  (1) 
1075.191

>  <PUBCHEM_SHAPE_VOLUME>  (1) 
343.3

>  <PUBCHEM_COORDINATE_TYPE>  (1) 
2
5
10

$$$$
