38436
     RDKit          3D

 36 37  0  0  0  0  0  0  0  0999 V2000
   -5.6377    0.0526    0.0817 S   0  0  0  0  0  0  0  0  0  0  0  0
    5.8589    1.2432    2.0509 S   0  0  0  0  0  0  0  0  0  0  0  0
    0.0481   -2.3508   -3.5969 S   0  0  0  0  0  0  0  0  0  0  0  0
   -1.2367   -0.9750   -2.7694 S   0  0  0  0  0  0  0  0  0  0  0  0
    0.6015   -2.4166   -0.2640 N   0  0  0  0  0  0  0  0  0  0  0  0
   -1.1688    2.3302   -2.1246 N   0  0  0  0  0  0  0  0  0  0  0  0
    1.5520   -4.3790   -1.2795 N   0  0  0  0  0  0  0  0  0  0  0  0
   -2.8046    1.8814   -3.8299 N   0  0  0  0  0  0  0  0  0  0  0  0
   -6.1375    1.0496    1.5137 C   0  0  0  0  0  0  0  0  0  0  0  0
    6.3523   -0.1526    0.9669 C   0  0  0  0  0  0  0  0  0  0  0  0
   -5.0629    2.1092    1.7732 C   0  0  0  0  0  0  0  0  0  0  0  0
   -7.4769    1.7185    1.1922 C   0  0  0  0  0  0  0  0  0  0  0  0
   -6.2820    0.1273    2.7276 C   0  0  0  0  0  0  0  0  0  0  0  0
    6.4505    0.3559   -0.4742 C   0  0  0  0  0  0  0  0  0  0  0  0
    5.2945   -1.2547    1.0732 C   0  0  0  0  0  0  0  0  0  0  0  0
    7.7122   -0.6740    1.4403 C   0  0  0  0  0  0  0  0  0  0  0  0
   -4.0876   -0.6290    0.6379 C   0  0  0  0  0  0  0  0  0  0  0  0
    4.2856    1.6864    1.3317 C   0  0  0  0  0  0  0  0  0  0  0  0
   -1.6612   -1.6941    1.5099 C   0  0  0  0  0  0  0  0  0  0  0  0
    1.8272    2.3794    0.2100 C   0  0  0  0  0  0  0  0  0  0  0  0
   -0.3489   -2.2706    1.9818 C   0  0  0  0  0  0  0  0  0  0  0  0
    0.5131    2.7503   -0.3899 C   0  0  0  0  0  0  0  0  0  0  0  0
   -4.0644   -1.8478    1.3159 C   0  0  0  0  0  0  0  0  0  0  0  0
    4.2277    2.6334    0.3092 C   0  0  0  0  0  0  0  0  0  0  0  0
   -2.8976    0.0573    0.3959 C   0  0  0  0  0  0  0  0  0  0  0  0
    3.1143    1.0858    1.7933 C   0  0  0  0  0  0  0  0  0  0  0  0
   -2.8512   -2.3804    1.7518 C   0  0  0  0  0  0  0  0  0  0  0  0
    2.9985    2.9798   -0.2516 C   0  0  0  0  0  0  0  0  0  0  0  0
   -1.6844   -0.4753    0.8319 C   0  0  0  0  0  0  0  0  0  0  0  0
    1.8851    1.4323    1.2326 C   0  0  0  0  0  0  0  0  0  0  0  0
    0.3112   -3.1756    0.9453 C   0  0  0  0  0  0  0  0  0  0  0  0
    0.1202    1.8818   -1.5907 C   0  0  0  0  0  0  0  0  0  0  0  0
    1.1717   -3.0563   -1.2337 C   0  0  0  0  0  0  0  0  0  0  0  0
   -1.6290    1.6821   -3.1407 C   0  0  0  0  0  0  0  0  0  0  0  0
    1.4689   -2.2447   -2.4820 C   0  0  0  0  0  0  0  0  0  0  0  0
   -0.7619    0.5401   -3.6398 C   0  0  0  0  0  0  0  0  0  0  0  0
  1  9  1  0
  1 17  1  0
  2 10  1  0
  2 18  1  0
  3  4  1  0
  3 35  1  0
  4 36  1  0
  5 31  1  0
  5 33  2  0
  6 32  1  0
  6 34  2  0
  7 33  1  0
  8 34  1  0
  9 11  1  0
  9 12  1  0
  9 13  1  0
 10 14  1  0
 10 15  1  0
 10 16  1  0
 17 23  2  0
 17 25  1  0
 18 24  2  0
 18 26  1  0
 19 21  1  0
 19 27  2  0
 19 29  1  0
 20 22  1  0
 20 28  2  0
 20 30  1  0
 21 31  1  0
 22 32  1  0
 23 27  1  0
 24 28  1  0
 25 29  2  0
 26 30  2  0
 33 35  1  0
 34 36  1  0
M  END
>  <PUBCHEM_COMPOUND_CID>  (1) 
38436

>  <PUBCHEM_CONFORMER_RMSD>  (1) 
2

>  <PUBCHEM_CONFORMER_DIVERSEORDER>  (1) 
2
29
4
48
28
1
26
25
41
31
42
45
32
51
34
49
61
39
47
58
57
11
60
65
36
46
50
55
40
56
63
6
37
21
53
66
3
52
43
38
64
35
5
23
9
13
54
12
17
7
10
33
19
8
44
27
18
24
22
59
16
30
20
62
14
15

>  <PUBCHEM_MMFF94_PARTIAL_CHARGES>  (1) 
42
1 -0.33
10 0.23
17 0.1
18 0.1
19 -0.14
2 -0.33
20 -0.14
21 0.14
22 0.14
23 -0.15
24 -0.15
25 -0.15
26 -0.15
27 -0.15
28 -0.15
29 -0.15
3 -0.23
30 -0.15
31 0.25
32 0.25
33 0.44
34 0.44
35 0.29
36 0.29
4 -0.23
5 -0.7
59 0.15
6 -0.7
60 0.15
61 0.15
62 0.15
63 0.15
64 0.15
65 0.15
66 0.15
7 -0.85
75 0.4
76 0.4
77 0.4
78 0.4
8 -0.85
9 0.23

>  <PUBCHEM_EFFECTIVE_ROTOR_COUNT>  (1) 
15

>  <PUBCHEM_PHARMACOPHORE_FEATURES>  (1) 
9
1 7 donor
1 8 donor
3 5 7 33 cation
3 6 8 34 cation
4 10 14 15 16 hydrophobe
4 3 4 35 36 hydrophobe
4 9 11 12 13 hydrophobe
6 17 19 23 25 27 29 rings
6 18 20 24 26 28 30 rings

>  <PUBCHEM_HEAVY_ATOM_COUNT>  (1) 
36

>  <PUBCHEM_ATOM_DEF_STEREO_COUNT>  (1) 
0

>  <PUBCHEM_ATOM_UDEF_STEREO_COUNT>  (1) 
0

>  <PUBCHEM_BOND_DEF_STEREO_COUNT>  (1) 
0

>  <PUBCHEM_BOND_UDEF_STEREO_COUNT>  (1) 
0

>  <PUBCHEM_ISOTOPIC_ATOM_COUNT>  (1) 
0

>  <PUBCHEM_COMPONENT_COUNT>  (1) 
1

>  <PUBCHEM_CACTVS_TAUTO_COUNT>  (1) 
3

>  <PUBCHEM_CONFORMER_ID>  (1) 
0000962400000002

>  <PUBCHEM_MMFF94_ENERGY>  (1) 
106.9131

>  <PUBCHEM_FEATURE_SELFOVERLAP>  (1) 
45.671

>  <PUBCHEM_SHAPE_FINGERPRINT>  (1) 
10764073 3 18333452044866902223
11399939 17 14565092686722005833
12128747 34 18129672876359995017
12156800 1 16806449098211006943
12422481 6 18261111906526830161
13165053 68 17988917934149113399
13165054 235 17844240722893580193
15064986 96 18340784726889304890
15276724 80 17531245106495469020
15444296 8 13768199472624067047
15444296 9 18187365385366543782
15781502 589 16915391992084664457
18603816 31 17988910203191863538
20587220 17 17917144984388742313
21133410 230 17896042031566705750
27425 322 15697126639960820762
3534868 343 16528647980596640851
513202 73 16878208801617607624
563151 248 17775279452573659824

>  <PUBCHEM_SHAPE_MULTIPOLES>  (1) 
736.34
15.77
4.28
3.86
4.03
2.99
4.04
-10.6
-12.67
1.56
0.92
-2.89
0.98
-0.03

>  <PUBCHEM_SHAPE_SELFOVERLAP>  (1) 
1442.885

>  <PUBCHEM_SHAPE_VOLUME>  (1) 
444

>  <PUBCHEM_COORDINATE_TYPE>  (1) 
2
5
10

$$$$
