38445
     RDKit          3D

 14 15  0  0  0  0  0  0  0  0999 V2000
    1.5914   -2.4822    0.0732 O   0  0  0  0  0  0  0  0  0  0  0  0
   -3.9560    0.5046   -0.0390 O   0  0  0  0  0  0  0  0  0  0  0  0
   -3.2256   -1.5649   -0.0901 O   0  0  0  0  0  0  0  0  0  0  0  0
   -3.0177   -0.3283   -0.0461 N   0  0  0  0  0  0  0  0  0  0  0  0
    2.3727    1.6072    0.1432 C   0  0  0  0  0  0  0  0  0  0  0  0
    3.3551    0.6325   -0.4926 C   0  0  0  0  0  0  0  0  0  0  0  0
    0.9652    1.0794    0.0749 C   0  0  0  0  0  0  0  0  0  0  0  0
    3.2322   -0.7426    0.1424 C   0  0  0  0  0  0  0  0  0  0  0  0
    0.6994   -0.2984    0.0416 C   0  0  0  0  0  0  0  0  0  0  0  0
    1.8185   -1.2756    0.0646 C   0  0  0  0  0  0  0  0  0  0  0  0
   -0.1110    1.9778    0.0890 C   0  0  0  0  0  0  0  0  0  0  0  0
   -0.6201   -0.7645   -0.0029 C   0  0  0  0  0  0  0  0  0  0  0  0
   -1.6788    0.1432   -0.0034 C   0  0  0  0  0  0  0  0  0  0  0  0
   -1.4254    1.5119    0.0453 C   0  0  0  0  0  0  0  0  0  0  0  0
  1 10  2  0
  2  4  1  0
  3  4  2  0
  4 13  1  0
  5  6  1  0
  5  7  1  0
  6  8  1  0
  7  9  2  0
  7 11  1  0
  8 10  1  0
  9 10  1  0
  9 12  1  0
 11 14  2  0
 12 13  2  0
 13 14  1  0
M  CHG  2   2  -1   4   1
M  END
>  <PUBCHEM_COMPOUND_CID>  (1) 
38445

>  <PUBCHEM_CONFORMER_RMSD>  (1) 
0.6

>  <PUBCHEM_CONFORMER_DIVERSEORDER>  (1) 
1

>  <PUBCHEM_MMFF94_PARTIAL_CHARGES>  (1) 
16
1 -0.57
10 0.42
11 -0.15
12 -0.15
13 0.13
14 -0.15
2 -0.52
21 0.15
22 0.15
23 0.15
3 -0.52
4 0.91
5 0.14
7 -0.14
8 0.06
9 0.09

>  <PUBCHEM_EFFECTIVE_ROTOR_COUNT>  (1) 
1.6

>  <PUBCHEM_PHARMACOPHORE_FEATURES>  (1) 
6
1 1 acceptor
1 2 acceptor
1 2 anion
1 3 acceptor
6 5 6 7 8 9 10 rings
6 7 9 11 12 13 14 rings

>  <PUBCHEM_HEAVY_ATOM_COUNT>  (1) 
14

>  <PUBCHEM_ATOM_DEF_STEREO_COUNT>  (1) 
0

>  <PUBCHEM_ATOM_UDEF_STEREO_COUNT>  (1) 
0

>  <PUBCHEM_BOND_DEF_STEREO_COUNT>  (1) 
0

>  <PUBCHEM_BOND_UDEF_STEREO_COUNT>  (1) 
0

>  <PUBCHEM_ISOTOPIC_ATOM_COUNT>  (1) 
0

>  <PUBCHEM_COMPONENT_COUNT>  (1) 
1

>  <PUBCHEM_CACTVS_TAUTO_COUNT>  (1) 
2

>  <PUBCHEM_CONFORMER_ID>  (1) 
0000962D00000001

>  <PUBCHEM_MMFF94_ENERGY>  (1) 
33.7768

>  <PUBCHEM_FEATURE_SELFOVERLAP>  (1) 
30.55

>  <PUBCHEM_SHAPE_FINGERPRINT>  (1) 
10608611 8 18408316679385358557
10967382 1 18410573972277118266
10980938 120 18410574010931817426
11132069 177 18411975879793930464
11471102 20 18410288112202277461
11806522 49 18195804300566680943
12032990 46 18411425041516388886
13221675 6 18413671309544137278
13380535 76 18335139825628631402
14251717 144 18339356469605550911
14325111 11 18410855511773511237
14576447 43 18128240384950585671
15442244 35 18051695442860922369
15536298 74 18344146999203128760
16945 1 18411135805750240592
17990270 104 18266459802493776354
18186145 218 17749103383392806391
19107657 46 18410855494656984663
193761 8 18050568443548148208
20201158 50 18407760326348424299
20559304 39 18338514136767467306
20588541 1 18334860553611187473
20645476 183 17679879377249368412
20645477 70 18412540990501277055
21267235 1 18411428288617490991
21501502 16 18266181634383492248
21501925 9 18336816499351322938
2334 1 17906733957412645664
23402539 116 18341606058069975252
23402655 69 18411696569644546757
23463225 33 18409165498103593708
23552423 10 18262522464102267426
23559900 14 18195519299669811474
2748010 2 17977670036726484704
3312278 4 18411422825629814329
528886 8 18339076094435691768
53812653 166 18342734169489706672
581208 293 18339919415464445384
7364860 26 18343019948324165614
8809292 202 18259990383112735835

>  <PUBCHEM_SHAPE_MULTIPOLES>  (1) 
265.52
5.57
2.1
0.61
2.65
0.27
-0.01
0.75
-0.33
-0.54
0.08
-0.13
-0.04
-0.12

>  <PUBCHEM_SHAPE_SELFOVERLAP>  (1) 
573.08

>  <PUBCHEM_SHAPE_VOLUME>  (1) 
146

>  <PUBCHEM_COORDINATE_TYPE>  (1) 
2
5
10

$$$$
