3844
     RDKit          3D

 40 47  0  0  1  0  0  0  0  0999 V2000
   -1.1889    2.6316    1.4649 O   0  0  0  0  0  0  0  0  0  0  0  0
   -3.5637    3.2580   -0.2052 O   0  0  0  0  0  0  0  0  0  0  0  0
   -2.3349    0.5045   -1.9160 O   0  0  0  0  0  0  0  0  0  0  0  0
   -4.4975    0.9531   -1.2385 O   0  0  0  0  0  0  0  0  0  0  0  0
    4.8547   -1.3830    0.7292 O   0  0  0  0  0  0  0  0  0  0  0  0
   -1.5419    0.3582    1.0352 N   0  0  0  0  0  0  0  0  0  0  0  0
    0.7104    2.1693    0.3050 N   0  0  0  0  0  0  0  0  0  0  0  0
    3.3942   -3.1450    1.2238 N   0  0  0  0  0  0  0  0  0  0  0  0
   -2.1888    1.6730    1.0750 C   0  0  0  0  0  0  0  0  0  0  0  0
   -2.6427    2.1778   -0.3086 C   0  0  0  0  0  0  0  0  0  0  0  0
   -0.4729    2.9820    0.2893 C   0  0  0  0  0  0  0  0  0  0  0  0
   -1.3633    2.7220   -0.9209 C   0  0  0  0  0  0  0  0  0  0  0  0
   -0.2152   -0.0136    0.9531 C   0  0  0  0  0  0  0  0  0  0  0  0
    0.8671    0.8540    0.6266 C   0  0  0  0  0  0  0  0  0  0  0  0
    0.1755   -1.3872    1.1675 C   0  0  0  0  0  0  0  0  0  0  0  0
   -3.2390    1.8011    2.1905 C   0  0  0  0  0  0  0  0  0  0  0  0
    2.1828    0.2502    0.6141 C   0  0  0  0  0  0  0  0  0  0  0  0
   -2.1589   -0.8967    1.1796 C   0  0  0  0  0  0  0  0  0  0  0  0
    2.0130    2.5655    0.0307 C   0  0  0  0  0  0  0  0  0  0  0  0
   -1.1722   -1.9212    1.3233 C   0  0  0  0  0  0  0  0  0  0  0  0
    1.4500   -1.9499    1.1773 C   0  0  0  0  0  0  0  0  0  0  0  0
    2.4922   -1.0773    0.8958 C   0  0  0  0  0  0  0  0  0  0  0  0
    2.9092    1.4660    0.2158 C   0  0  0  0  0  0  0  0  0  0  0  0
   -3.2914    1.1539   -1.1931 C   0  0  0  0  0  0  0  0  0  0  0  0
    1.9683   -3.3322    1.3973 C   0  0  0  0  0  0  0  0  0  0  0  0
   -3.5269   -1.2430    1.1989 C   0  0  0  0  0  0  0  0  0  0  0  0
    3.7423   -1.8314    0.9256 C   0  0  0  0  0  0  0  0  0  0  0  0
    2.4853    3.8297   -0.3746 C   0  0  0  0  0  0  0  0  0  0  0  0
   -1.6092   -3.2530    1.5410 C   0  0  0  0  0  0  0  0  0  0  0  0
    4.2864    1.7082   -0.0201 C   0  0  0  0  0  0  0  0  0  0  0  0
   -3.9135   -2.5694    1.4064 C   0  0  0  0  0  0  0  0  0  0  0  0
   -2.9677   -3.5633    1.5871 C   0  0  0  0  0  0  0  0  0  0  0  0
    3.8502    4.0151   -0.5923 C   0  0  0  0  0  0  0  0  0  0  0  0
    4.7413    2.9692   -0.4164 C   0  0  0  0  0  0  0  0  0  0  0  0
   -2.8178   -0.5060   -2.8069 C   0  0  0  0  0  0  0  0  0  0  0  0
   -1.6330   -1.1297   -3.5327 C   0  0  0  0  0  0  0  0  0  0  0  0
   -0.6565   -1.7813   -2.5548 C   0  0  0  0  0  0  0  0  0  0  0  0
    0.5697   -2.3946   -3.2365 C   0  0  0  0  0  0  0  0  0  0  0  0
    1.5348   -3.0682   -2.2601 C   0  0  0  0  0  0  0  0  0  0  0  0
    2.7686   -3.5966   -2.9762 C   0  0  0  0  0  0  0  0  0  0  0  0
  1  9  1  0
  1 11  1  0
  2 10  1  0
  3 24  1  0
  3 35  1  0
  4 24  2  0
  5 27  2  0
  6  9  1  0
  6 13  1  0
  6 18  1  0
  7 11  1  0
  7 14  1  0
  7 19  1  0
  8 25  1  0
  8 27  1  0
  9 10  1  0
  9 16  1  0
 10 12  1  0
 10 24  1  0
 11 12  1  0
 13 14  2  0
 13 15  1  0
 14 17  1  0
 15 20  1  0
 15 21  2  0
 17 22  2  0
 17 23  1  0
 18 20  2  0
 18 26  1  0
 19 23  2  0
 19 28  1  0
 20 29  1  0
 21 22  1  0
 21 25  1  0
 22 27  1  0
 23 30  1  0
 26 31  2  0
 28 33  2  0
 29 32  2  0
 30 34  2  0
 31 32  1  0
 33 34  1  0
 35 36  1  0
 36 37  1  0
 37 38  1  0
 38 39  1  0
 39 40  1  0
M  END
>  <PUBCHEM_COMPOUND_CID>  (1) 
3844

>  <PUBCHEM_CONFORMER_RMSD>  (1) 
1

>  <PUBCHEM_CONFORMER_DIVERSEORDER>  (1) 
1
15
5
29
23
27
33
10
45
9
17
13
25
20
38
44
47
16
37
30
14
22
36
19
2
11
39
12
46
21
43
32
40
28
7
3
6
35
8
42
24
26
18
34
4
41
31

>  <PUBCHEM_MMFF94_PARTIAL_CHARGES>  (1) 
41
1 -0.56
10 0.34
11 0.54
13 -0.05
14 -0.05
15 -0.01
17 -0.01
18 -0.15
19 -0.15
2 -0.68
21 -0.14
22 0.09
24 0.66
25 0.44
26 -0.15
27 0.54
28 -0.15
29 -0.15
3 -0.43
30 -0.15
31 -0.15
32 -0.15
33 -0.15
34 -0.15
35 0.28
4 -0.57
47 0.4
5 -0.57
50 0.15
51 0.15
52 0.15
53 0.15
54 0.37
55 0.15
56 0.15
57 0.15
58 0.15
6 -0.04
7 -0.04
8 -0.73
9 0.54

>  <PUBCHEM_EFFECTIVE_ROTOR_COUNT>  (1) 
8

>  <PUBCHEM_PHARMACOPHORE_FEATURES>  (1) 
18
1 1 acceptor
1 2 acceptor
1 2 donor
1 4 acceptor
1 40 hydrophobe
1 5 acceptor
1 6 cation
1 7 cation
1 8 donor
4 36 37 38 39 hydrophobe
5 1 9 10 11 12 rings
5 6 13 15 18 20 rings
5 7 14 17 19 23 rings
5 8 21 22 25 27 rings
6 13 14 15 17 21 22 rings
6 18 20 26 29 31 32 rings
6 19 23 28 30 33 34 rings
7 1 6 7 9 11 13 14 rings

>  <PUBCHEM_HEAVY_ATOM_COUNT>  (1) 
40

>  <PUBCHEM_ATOM_DEF_STEREO_COUNT>  (1) 
0

>  <PUBCHEM_ATOM_UDEF_STEREO_COUNT>  (1) 
3

>  <PUBCHEM_BOND_DEF_STEREO_COUNT>  (1) 
0

>  <PUBCHEM_BOND_UDEF_STEREO_COUNT>  (1) 
0

>  <PUBCHEM_ISOTOPIC_ATOM_COUNT>  (1) 
0

>  <PUBCHEM_COMPONENT_COUNT>  (1) 
1

>  <PUBCHEM_CACTVS_TAUTO_COUNT>  (1) 
2

>  <PUBCHEM_CONFORMER_ID>  (1) 
00000F0400000001

>  <PUBCHEM_MMFF94_ENERGY>  (1) 
137.5328

>  <PUBCHEM_FEATURE_SELFOVERLAP>  (1) 
93.147

>  <PUBCHEM_SHAPE_FINGERPRINT>  (1) 
1100329 8 18190180092242234024
11578080 2 17385712604485527126
12156800 1 17532672310820833983
12608794 3 17318968881219974544
12633046 712 18114458947263076622
13140716 1 18262532428236705376
13642711 20 18335138743518562190
13911987 19 17612025280288607772
14790565 3 17686074085473705841
15274700 242 17838328946067543712
15406563 42 17170092983884090399
15439362 3 18188759553363857740
15815584 197 17684397296039936330
18603816 31 16269434588992578868
20600515 1 17979643325407639154
20764821 26 18260263040695277922
20766409 102 16677531772768958076
20775438 99 17904157673268524215
21857420 4 14508681855668971605
23559900 14 18335411362304389584
5080951 261 17410206635972407384

>  <PUBCHEM_SHAPE_MULTIPOLES>  (1) 
778.89
7.62
5.75
2.91
3.75
0.49
3.22
-2.44
-0.94
2.48
0.42
-1.87
2.92
0.59

>  <PUBCHEM_SHAPE_SELFOVERLAP>  (1) 
1771.032

>  <PUBCHEM_SHAPE_VOLUME>  (1) 
407.3

>  <PUBCHEM_COORDINATE_TYPE>  (1) 
2
5
10

$$$$
