38447
     RDKit          3D

 15 15  0  0  0  0  0  0  0  0999 V2000
    3.6562   -0.4187    2.6227 I   0  0  0  0  0  0  0  0  0  0  0  0
   -1.6692   -3.9737   -0.4395 Cl  0  0  0  0  0  0  0  0  0  0  0  0
   -4.7592    2.1149    0.5666 Cl  0  0  0  0  0  0  0  0  0  0  0  0
   -1.3609    0.0091    0.0760 N   0  0  0  0  0  0  0  0  0  0  0  0
   -0.5650    1.0159   -0.6252 C   0  0  0  0  0  0  0  0  0  0  0  0
   -1.1195   -1.3179   -0.4892 C   0  0  0  0  0  0  0  0  0  0  0  0
   -2.7831    0.3430    0.0071 C   0  0  0  0  0  0  0  0  0  0  0  0
    0.9106    0.7355   -0.5227 C   0  0  0  0  0  0  0  0  0  0  0  0
   -1.9716   -2.3524    0.2296 C   0  0  0  0  0  0  0  0  0  0  0  0
   -3.0273    1.7092    0.6290 C   0  0  0  0  0  0  0  0  0  0  0  0
    1.4558    0.3776    0.7025 C   0  0  0  0  0  0  0  0  0  0  0  0
    1.7056    0.8393   -1.6559 C   0  0  0  0  0  0  0  0  0  0  0  0
    2.8232    0.1184    0.7965 C   0  0  0  0  0  0  0  0  0  0  0  0
    3.0728    0.5801   -1.5618 C   0  0  0  0  0  0  0  0  0  0  0  0
    3.6316    0.2196   -0.3357 C   0  0  0  0  0  0  0  0  0  0  0  0
  1 13  1  0
  2  9  1  0
  3 10  1  0
  4  5  1  0
  4  6  1  0
  4  7  1  0
  5  8  1  0
  6  9  1  0
  7 10  1  0
  8 11  2  0
  8 12  1  0
 11 13  1  0
 12 14  2  0
 13 15  2  0
 14 15  1  0
M  END
>  <PUBCHEM_COMPOUND_CID>  (1) 
38447

>  <PUBCHEM_CONFORMER_RMSD>  (1) 
0.6

>  <PUBCHEM_CONFORMER_DIVERSEORDER>  (1) 
1
52
63
42
20
45
48
4
49
2
51
38
8
68
39
71
3
32
47
72
6
40
25
70
31
46
5
7
58
23
43
62
24
67
14
9
69
54
65
11
12
61
57
59
22
64
17
19
18
55
26
56
21
50
37
66
16
60
77
10
41
15
44
78
13
53
29
73
75
30
74
76
27
28
35
33
34
36

>  <PUBCHEM_MMFF94_PARTIAL_CHARGES>  (1) 
19
1 -0.08
10 0.29
11 -0.15
12 -0.15
13 0.08
14 -0.15
15 -0.15
2 -0.29
26 0.15
27 0.15
28 0.15
29 0.15
3 -0.29
4 -0.81
5 0.41
6 0.27
7 0.27
8 -0.14
9 0.29

>  <PUBCHEM_EFFECTIVE_ROTOR_COUNT>  (1) 
6

>  <PUBCHEM_PHARMACOPHORE_FEATURES>  (1) 
3
1 1 hydrophobe
1 4 cation
6 8 11 12 13 14 15 rings

>  <PUBCHEM_HEAVY_ATOM_COUNT>  (1) 
15

>  <PUBCHEM_ATOM_DEF_STEREO_COUNT>  (1) 
0

>  <PUBCHEM_ATOM_UDEF_STEREO_COUNT>  (1) 
0

>  <PUBCHEM_BOND_DEF_STEREO_COUNT>  (1) 
0

>  <PUBCHEM_BOND_UDEF_STEREO_COUNT>  (1) 
0

>  <PUBCHEM_ISOTOPIC_ATOM_COUNT>  (1) 
0

>  <PUBCHEM_COMPONENT_COUNT>  (1) 
1

>  <PUBCHEM_CACTVS_TAUTO_COUNT>  (1) 
1

>  <PUBCHEM_CONFORMER_ID>  (1) 
0000962F00000001

>  <PUBCHEM_MMFF94_ENERGY>  (1) 
34.5347

>  <PUBCHEM_FEATURE_SELFOVERLAP>  (1) 
15.223

>  <PUBCHEM_SHAPE_FINGERPRINT>  (1) 
11725454 13 16986844914107342208
12403259 327 17986646256682898322
124424 183 17274831207742252188
12500047 106 18343025488452026558
12553582 1 16878768406535024858
12633257 1 18196908068607281280
12788726 201 18119818160057099131
12839892 36 18335984182382553923
12932764 1 17821725065745908604
13294875 104 16764521262390434176
13538477 17 18261115213556676469
14178342 30 18339066190230973570
15279307 12 18259989279343024858
15375462 189 17676207970316874632
15842332 3 17968656141707426102
15852999 172 18059307469445220935
15906896 17 18189070835613380795
16752209 62 18339361971970580743
18186145 218 17346043268717058161
18219364 16 15409751765406707730
19422 9 17749396987277994313
20600515 1 18271230677878513840
20645477 70 15864338168983263802
20681677 155 18335431166329583868
20715346 28 17274826912632388372
212916 134 18271797970064476577
21452121 199 17547842410019381111
22096605 113 15123499303120074400
22112679 90 18041267859593684064
23419403 2 10875150355360678485
23526113 38 16844186553484711004
23532345 11 18269823354486594834
23557571 272 17916868044321995896
23559900 14 18130793339486619420
23598288 3 18116447005861234611
23598291 2 17895486937039644126
23598294 1 18336275642519781067
45790113 50 16226334707149213549
495365 180 17274535417349302750
603831 33 17826799436435642702
6049 1 17345769623344018912
633830 44 17169575080169674804
74978 22 18337957895141830637
7615 1 17969211403632477340
77492 1 17967532410669416628
81228 2 18127692841081569887
81539 233 18191592939462611509
88987 49 18341614862267771564

>  <PUBCHEM_SHAPE_MULTIPOLES>  (1) 
319.39
7.67
2.93
1.85
1.78
4.33
0.64
-3.45
3.56
4.54
-0.3
-2.78
-0.25
-1.74

>  <PUBCHEM_SHAPE_SELFOVERLAP>  (1) 
600.267

>  <PUBCHEM_SHAPE_VOLUME>  (1) 
204.4

>  <PUBCHEM_COORDINATE_TYPE>  (1) 
2
5
10

$$$$
