38458
     RDKit          3D

 21 22  0  0  0  0  0  0  0  0999 V2000
   -0.8316   -0.4609   -1.6664 O   0  0  0  0  0  0  0  0  0  0  0  0
    0.3387   -0.7078    0.3235 N   0  0  0  0  0  0  0  0  0  0  0  0
   -3.0567    0.3055   -0.2516 N   0  0  0  0  0  0  0  0  0  0  0  0
    1.4740   -1.4345   -0.2149 C   0  0  0  0  0  0  0  0  0  0  0  0
    2.3774   -1.9378    0.9162 C   0  0  0  0  0  0  0  0  0  0  0  0
    1.0173   -2.7488   -0.8577 C   0  0  0  0  0  0  0  0  0  0  0  0
    1.6648   -3.1755    1.4594 C   0  0  0  0  0  0  0  0  0  0  0  0
    0.7919   -3.6979    0.3183 C   0  0  0  0  0  0  0  0  0  0  0  0
    2.2234   -0.5411   -1.1979 C   0  0  0  0  0  0  0  0  0  0  0  0
    2.6658    0.7451   -0.5545 C   0  0  0  0  0  0  0  0  0  0  0  0
   -0.7229   -0.2813   -0.4555 C   0  0  0  0  0  0  0  0  0  0  0  0
   -1.7478    0.4776    0.3623 C   0  0  0  0  0  0  0  0  0  0  0  0
    1.8248    1.8494   -0.5835 C   0  0  0  0  0  0  0  0  0  0  0  0
    3.9090    0.8106    0.0603 C   0  0  0  0  0  0  0  0  0  0  0  0
   -4.0839    1.0096    0.5043 C   0  0  0  0  0  0  0  0  0  0  0  0
    2.2347    3.0417    0.0131 C   0  0  0  0  0  0  0  0  0  0  0  0
    4.3188    2.0030    0.6570 C   0  0  0  0  0  0  0  0  0  0  0  0
   -5.4923    0.7929   -0.0752 C   0  0  0  0  0  0  0  0  0  0  0  0
    3.4816    3.1185    0.6334 C   0  0  0  0  0  0  0  0  0  0  0  0
   -6.5732    1.5353    0.7148 C   0  0  0  0  0  0  0  0  0  0  0  0
   -5.8138   -0.7038   -0.1054 C   0  0  0  0  0  0  0  0  0  0  0  0
  1 11  2  0
  2  4  1  0
  2 11  1  0
  3 12  1  0
  3 15  1  0
  4  5  1  0
  4  6  1  0
  4  9  1  0
  5  7  1  0
  6  8  1  0
  7  8  1  0
  9 10  1  0
 10 13  2  0
 10 14  1  0
 11 12  1  0
 13 16  1  0
 14 17  2  0
 15 18  1  0
 16 19  2  0
 17 19  1  0
 18 20  1  0
 18 21  1  0
M  END
>  <PUBCHEM_COMPOUND_CID>  (1) 
38458

>  <PUBCHEM_CONFORMER_RMSD>  (1) 
0.8

>  <PUBCHEM_CONFORMER_DIVERSEORDER>  (1) 
1
28
27
34
18
35
10
4
29
11
23
25
36
2
20
33
16
5
31
14
30
24
13
15
32
12
19
7
9
17
26
3
21
22
6
8

>  <PUBCHEM_MMFF94_PARTIAL_CHARGES>  (1) 
21
1 -0.57
10 -0.14
11 0.57
12 0.33
13 -0.15
14 -0.15
15 0.27
16 -0.15
17 -0.15
19 -0.15
2 -0.73
3 -0.9
32 0.37
35 0.15
36 0.15
37 0.36
4 0.3
40 0.15
41 0.15
43 0.15
9 0.14

>  <PUBCHEM_EFFECTIVE_ROTOR_COUNT>  (1) 
9

>  <PUBCHEM_PHARMACOPHORE_FEATURES>  (1) 
7
1 1 acceptor
1 2 donor
1 3 cation
1 3 donor
3 18 20 21 hydrophobe
5 4 5 6 7 8 rings
6 10 13 14 16 17 19 rings

>  <PUBCHEM_HEAVY_ATOM_COUNT>  (1) 
21

>  <PUBCHEM_ATOM_DEF_STEREO_COUNT>  (1) 
0

>  <PUBCHEM_ATOM_UDEF_STEREO_COUNT>  (1) 
0

>  <PUBCHEM_BOND_DEF_STEREO_COUNT>  (1) 
0

>  <PUBCHEM_BOND_UDEF_STEREO_COUNT>  (1) 
0

>  <PUBCHEM_ISOTOPIC_ATOM_COUNT>  (1) 
0

>  <PUBCHEM_COMPONENT_COUNT>  (1) 
1

>  <PUBCHEM_CACTVS_TAUTO_COUNT>  (1) 
2

>  <PUBCHEM_CONFORMER_ID>  (1) 
0000963A00000001

>  <PUBCHEM_MMFF94_ENERGY>  (1) 
44.7241

>  <PUBCHEM_FEATURE_SELFOVERLAP>  (1) 
35.52

>  <PUBCHEM_SHAPE_FINGERPRINT>  (1) 
10090160 65 18410852205070719053
10165383 225 18186812395933055196
10366900 7 18115042813374088369
10411042 1 17834960767615005318
12403259 327 16298666195589117296
12633257 1 16660919005973961040
12730499 353 18335714840313674083
13140716 1 18336261344642191858
13533116 47 18188780423236585755
13878862 14 18118103807113639733
13955234 65 18337112255063105779
14178342 30 17896044406910661955
14461889 52 18114752633305687203
146900 427 18343029895647576881
14955137 171 18266456504223306306
15142526 21 18268425913804537449
16728300 4 17461970234626596304
17349148 13 13623527961765880377
17844677 252 18267874883134422609
19784866 9 18413385453648342729
20157964 124 18410853236274411277
21049683 118 18051948588433822632
21054139 6 18270108158390137647
21344244 78 18125705804078246699
21403212 168 18339911676402922240
21524375 3 18340484594616526932
23419403 2 17316734622548189254
23558518 356 17976254965631049238
23559900 14 17986965046530973487
23845131 108 18261670480072568491
239999 70 18201446843800566783
268830 7 18269837532859525385
3060560 45 18343309132640702510
31174 14 18189331269138989935
33824 294 18408887325787883189
4340502 62 18409171047470476067
474 4 18411419552590765937
495365 180 18334017172600890107
5104073 3 18335148553751016889
58807428 26 18263348330769013392
59755656 520 18337948021391507246
621550 34 18259980453580786365
633830 44 18270961353063070628
67856867 119 18411413978260909339
6913067 236 17676757773754769767
7364860 26 18337954476537708390
81228 2 17394165869229331278
8272917 22 18411985719774989023
8988823 20 18335699378732160207
9777508 108 18118130392206860147
9841814 1 18118407245972657955
9999458 23 18408888447143755916

>  <PUBCHEM_SHAPE_MULTIPOLES>  (1) 
416.34
11.17
4.09
1.1
25.55
1.88
-0.07
-8.32
2.13
-4.95
1.12
-0.39
0.42
-0.4

>  <PUBCHEM_SHAPE_SELFOVERLAP>  (1) 
851.43

>  <PUBCHEM_SHAPE_VOLUME>  (1) 
241.2

>  <PUBCHEM_COORDINATE_TYPE>  (1) 
2
5
10

$$$$
