38452
     RDKit          3D

 19 20  0  0  0  0  0  0  0  0999 V2000
    1.8333    1.6749    0.6372 O   0  0  0  0  0  0  0  0  0  0  0  0
    4.2200    1.4447    0.3967 O   0  0  0  0  0  0  0  0  0  0  0  0
   -0.0370   -0.2814   -0.3719 O   0  0  0  0  0  0  0  0  0  0  0  0
   -2.1810    0.4797   -1.1346 O   0  0  0  0  0  0  0  0  0  0  0  0
    0.1466   -1.4196    1.6278 O   0  0  0  0  0  0  0  0  0  0  0  0
   -1.9721   -0.6785    0.8894 N   0  0  0  0  0  0  0  0  0  0  0  0
   -4.2053    0.1167    0.0906 C   0  0  0  0  0  0  0  0  0  0  0  0
   -4.9048    0.8594   -1.0488 C   0  0  0  0  0  0  0  0  0  0  0  0
    2.1791    0.5337   -0.0185 C   0  0  0  0  0  0  0  0  0  0  0  0
    3.5420    0.4022   -0.1558 C   0  0  0  0  0  0  0  0  0  0  0  0
    1.3479   -0.4186   -0.5139 C   0  0  0  0  0  0  0  0  0  0  0  0
   -2.7024   -0.0008   -0.1242 C   0  0  0  0  0  0  0  0  0  0  0  0
    3.1313    2.2470    0.8977 C   0  0  0  0  0  0  0  0  0  0  0  0
    4.1061   -0.6844   -0.7920 C   0  0  0  0  0  0  0  0  0  0  0  0
   -6.3979    0.9898   -0.7945 C   0  0  0  0  0  0  0  0  0  0  0  0
    1.8505   -1.5247   -1.1583 C   0  0  0  0  0  0  0  0  0  0  0  0
   -0.5605   -0.8491    0.8002 C   0  0  0  0  0  0  0  0  0  0  0  0
    3.2431   -1.6589   -1.2988 C   0  0  0  0  0  0  0  0  0  0  0  0
   -2.6389   -1.2320    2.0717 C   0  0  0  0  0  0  0  0  0  0  0  0
  1  9  1  0
  1 13  1  0
  2 10  1  0
  2 13  1  0
  3 11  1  0
  3 17  1  0
  4 12  2  0
  5 17  2  0
  6 12  1  0
  6 17  1  0
  6 19  1  0
  7  8  1  0
  7 12  1  0
  8 15  1  0
  9 10  2  0
  9 11  1  0
 10 14  1  0
 11 16  2  0
 14 18  2  0
 16 18  1  0
M  END
>  <PUBCHEM_COMPOUND_CID>  (1) 
38452

>  <PUBCHEM_CONFORMER_RMSD>  (1) 
0.8

>  <PUBCHEM_CONFORMER_DIVERSEORDER>  (1) 
2
167
211
38
182
116
220
56
107
33
120
24
25
256
22
98
132
11
221
29
263
253
102
95
174
181
110
105
199
177
97
7
255
159
141
3
78
153
113
4
83
193
185
231
27
76
93
267
187
148
5
260
90
216
103
213
230
233
42
100
118
150
226
156
109
234
21
265
236
136
58
17
166
61
101
173
138
37
30
200
184
264
239
137
115
23
259
124
41
189
155
206
270
225
6
86
186
271
81
171
232
194
223
121
249
8
144
96
203
131
196
261
77
217
242
99
251
47
143
164
243
126
119
26
91
59
145
9
49
254
204
31
140
227
75
88
68
224
257
240
34
53
209
170
172
250
112
89
151
63
190
178
219
241
229
64
67
32
202
247
125
268
54
207
152
158
149
51
18
128
214
212
45
28
117
111
133
40
183
60
147
179
273
80
85
244
235
94
258
162
1
176
246
237
197
20
55
161
106
82
192
70
84
52
205
14
228
74
135
134
114
195
36
163
87
269
129
198
12
108
130
122
127
139
13
16
210
73
92
208
245
46
272
252
44
104
62
15
188
142
169
175
201
35
79
160
39
65
10
266
71
69
218
43
262
19
215
154
50
168
191
165
222
146
248
48
57
157
66
123
180
72
238

>  <PUBCHEM_MMFF94_PARTIAL_CHARGES>  (1) 
20
1 -0.36
10 0.08
11 0.08
12 0.57
13 0.56
14 -0.15
16 -0.15
17 0.78
18 -0.15
19 0.3
2 -0.36
26 0.15
3 -0.23
30 0.15
31 0.15
4 -0.57
5 -0.57
6 -0.42
7 0.06
9 0.08

>  <PUBCHEM_EFFECTIVE_ROTOR_COUNT>  (1) 
6.6

>  <PUBCHEM_PHARMACOPHORE_FEATURES>  (1) 
7
1 1 acceptor
1 15 hydrophobe
1 2 acceptor
1 4 acceptor
1 5 acceptor
5 1 2 9 10 13 rings
6 9 10 11 14 16 18 rings

>  <PUBCHEM_HEAVY_ATOM_COUNT>  (1) 
19

>  <PUBCHEM_ATOM_DEF_STEREO_COUNT>  (1) 
0

>  <PUBCHEM_ATOM_UDEF_STEREO_COUNT>  (1) 
0

>  <PUBCHEM_BOND_DEF_STEREO_COUNT>  (1) 
0

>  <PUBCHEM_BOND_UDEF_STEREO_COUNT>  (1) 
0

>  <PUBCHEM_ISOTOPIC_ATOM_COUNT>  (1) 
0

>  <PUBCHEM_COMPONENT_COUNT>  (1) 
1

>  <PUBCHEM_CACTVS_TAUTO_COUNT>  (1) 
1

>  <PUBCHEM_CONFORMER_ID>  (1) 
0000963400000002

>  <PUBCHEM_MMFF94_ENERGY>  (1) 
51.4555

>  <PUBCHEM_FEATURE_SELFOVERLAP>  (1) 
35.678

>  <PUBCHEM_SHAPE_FINGERPRINT>  (1) 
11287383 113 18272087215016703767
11471102 20 18202285805711353612
11543360 7 17988916791323185191
11796584 16 17676215645945964866
12236239 1 16343707603800624798
12403259 415 18262248810108152091
12596602 18 13695879103902316621
12730499 353 18409172091258487107
12969540 114 18261096462573416479
13134695 92 18272095955222273628
13836976 161 17203324494382835134
14341114 328 14129064694865584373
14863182 85 14836125416508855948
15219456 202 18338806709744563450
15375358 24 18335138713089468909
17834072 33 17917704721774464077
1813 80 16986337984261669686
18186145 218 18334870406408719483
18222031 100 17702954613387112182
19049666 15 18262246525491544706
192875 21 17561085782910305626
200 152 17418096494567134291
20645477 70 18131073701412783422
21065201 7 17676496072174902835
212916 134 17385717002690150737
21639500 275 17917152801070211672
221357 26 18271521992772875477
22289505 5 18342735178675353844
22892500 29 18413389839184069580
23402539 116 18114175358961242871
23402655 69 18060137647831759709
23557571 272 18115878554065081419
23559900 14 17967259676278519454
23598291 2 16772974513779298562
29717793 49 16558755580965900261
3004659 81 16702020833768719447
3060560 45 17917715690999774862
4072396 5 18270949190601690466
474 4 17917428795642486840
495365 180 18410284809551943882
59682541 52 18201432516063591005
633830 44 18187358865600939783
7164475 11 16629696019613392376
7471813 234 16988562364523978384
7615 1 16630260111980713258
77492 1 16486987180208787754

>  <PUBCHEM_SHAPE_MULTIPOLES>  (1) 
356.68
10.89
1.78
1.47
13.42
0.53
-0.56
3.71
3.75
-2.07
-0.24
0.93
-0.54
2.06

>  <PUBCHEM_SHAPE_SELFOVERLAP>  (1) 
752.601

>  <PUBCHEM_SHAPE_VOLUME>  (1) 
197.9

>  <PUBCHEM_COORDINATE_TYPE>  (1) 
2
5
10

$$$$
