38451
     RDKit          3D

 22 23  0  0  0  0  0  0  0  0999 V2000
   -2.2024    0.7394   -1.0487 O   0  0  0  0  0  0  0  0  0  0  0  0
   -4.0988    1.2333    0.3549 O   0  0  0  0  0  0  0  0  0  0  0  0
   -0.4155   -1.4731   -0.5428 O   0  0  0  0  0  0  0  0  0  0  0  0
    4.0877   -1.0125   -1.7201 O   0  0  0  0  0  0  0  0  0  0  0  0
    0.8367   -0.0883    0.8141 O   0  0  0  0  0  0  0  0  0  0  0  0
    1.8557   -1.1604   -1.0287 N   0  0  0  0  0  0  0  0  0  0  0  0
   -3.3343    1.6135   -0.8158 C   0  0  0  0  0  0  0  0  0  0  0  0
   -2.3209   -0.1363   -0.0124 C   0  0  0  0  0  0  0  0  0  0  0  0
   -3.4035    0.1457    0.7889 C   0  0  0  0  0  0  0  0  0  0  0  0
   -2.8114    3.0345   -0.6098 C   0  0  0  0  0  0  0  0  0  0  0  0
   -4.2537    1.5465   -2.0345 C   0  0  0  0  0  0  0  0  0  0  0  0
   -1.5148   -1.1899    0.2748 C   0  0  0  0  0  0  0  0  0  0  0  0
    4.9562    0.7110    0.2418 C   0  0  0  0  0  0  0  0  0  0  0  0
    3.4943    0.2592    0.2192 C   0  0  0  0  0  0  0  0  0  0  0  0
   -3.7063   -0.6191    1.8964 C   0  0  0  0  0  0  0  0  0  0  0  0
    5.2350    1.6320    1.4291 C   0  0  0  0  0  0  0  0  0  0  0  0
   -1.7649   -1.9895    1.3654 C   0  0  0  0  0  0  0  0  0  0  0  0
   -2.8712   -1.7014    2.1841 C   0  0  0  0  0  0  0  0  0  0  0  0
    3.1937   -0.6907   -0.9326 C   0  0  0  0  0  0  0  0  0  0  0  0
    6.6951    2.0528    1.4767 C   0  0  0  0  0  0  0  0  0  0  0  0
    0.7742   -0.8342   -0.1603 C   0  0  0  0  0  0  0  0  0  0  0  0
    1.5692   -2.0723   -2.1398 C   0  0  0  0  0  0  0  0  0  0  0  0
  1  7  1  0
  1  8  1  0
  2  7  1  0
  2  9  1  0
  3 12  1  0
  3 21  1  0
  4 19  2  0
  5 21  2  0
  6 19  1  0
  6 21  1  0
  6 22  1  0
  7 10  1  0
  7 11  1  0
  8  9  2  0
  8 12  1  0
  9 15  1  0
 12 17  2  0
 13 14  1  0
 13 16  1  0
 14 19  1  0
 15 18  2  0
 16 20  1  0
 17 18  1  0
M  END
>  <PUBCHEM_COMPOUND_CID>  (1) 
38451

>  <PUBCHEM_CONFORMER_RMSD>  (1) 
1

>  <PUBCHEM_CONFORMER_DIVERSEORDER>  (1) 
2
178
507
109
508
176
425
132
114
299
374
53
267
43
129
441
275
30
423
498
494
232
360
269
479
210
412
233
25
28
242
208
328
449
37
363
486
86
354
377
96
420
519
32
106
491
139
343
243
46
91
528
373
461
180
358
68
105
506
172
268
23
122
471
274
211
209
182
126
190
309
136
311
113
540
89
301
197
443
90
77
21
238
404
380
499
355
9
143
278
163
344
55
12
213
207
83
18
263
325
318
87
336
65
6
219
98
118
422
303
155
119
45
524
1
159
52
4
123
20
3
62
14
485
17
406
196
49
15
40
144
50
31
99
203
258
24
254

>  <PUBCHEM_MMFF94_PARTIAL_CHARGES>  (1) 
20
1 -0.36
12 0.08
14 0.06
15 -0.15
17 -0.15
18 -0.15
19 0.57
2 -0.36
21 0.78
22 0.3
3 -0.23
33 0.15
36 0.15
37 0.15
4 -0.57
5 -0.57
6 -0.42
7 0.56
8 0.08
9 0.08

>  <PUBCHEM_EFFECTIVE_ROTOR_COUNT>  (1) 
7.6

>  <PUBCHEM_PHARMACOPHORE_FEATURES>  (1) 
8
1 1 acceptor
1 2 acceptor
1 20 hydrophobe
1 4 acceptor
1 5 acceptor
3 7 10 11 hydrophobe
5 1 2 7 8 9 rings
6 8 9 12 15 17 18 rings

>  <PUBCHEM_HEAVY_ATOM_COUNT>  (1) 
22

>  <PUBCHEM_ATOM_DEF_STEREO_COUNT>  (1) 
0

>  <PUBCHEM_ATOM_UDEF_STEREO_COUNT>  (1) 
0

>  <PUBCHEM_BOND_DEF_STEREO_COUNT>  (1) 
0

>  <PUBCHEM_BOND_UDEF_STEREO_COUNT>  (1) 
0

>  <PUBCHEM_ISOTOPIC_ATOM_COUNT>  (1) 
0

>  <PUBCHEM_COMPONENT_COUNT>  (1) 
1

>  <PUBCHEM_CACTVS_TAUTO_COUNT>  (1) 
1

>  <PUBCHEM_CONFORMER_ID>  (1) 
0000963300000002

>  <PUBCHEM_MMFF94_ENERGY>  (1) 
54.9842

>  <PUBCHEM_FEATURE_SELFOVERLAP>  (1) 
40.751

>  <PUBCHEM_SHAPE_FINGERPRINT>  (1) 
10319926 262 18041000631424687474
10928967 22 13551461554460401760
11595378 159 17095813225475215204
12035758 1 18115042861383919209
12403259 415 18342188756209371782
12523318 42 17603866753491157745
12549972 3 18045521732569380018
12596602 18 16660923396021433312
12616971 3 16343433799741240078
12633257 1 17167863058639056468
12892183 10 18040994064330073138
12969540 114 17560801065518070800
13034934 17 18342741857660183088
13103583 49 16226040098805868968
13402501 40 18341040874460156192
13583140 156 18261946440521774018
13965767 371 16446721784599837701
14178342 30 17385728006080423834
15842332 3 15575583351518593886
173720 79 16370729193502297277
1768 210 16199009808086115560
17780758 139 16805591608243762720
19784866 34 17418103139198357738
20510252 161 17968960582396469099
20554085 129 17750214943026736237
20621476 82 18334856095636146636
20645477 56 18342183292826471702
20645477 70 17775013332374077766
21033648 144 17918276476384487878
21033648 29 18410580582743515844
21065201 7 17822876207160030454
212916 134 17821728299539589115
21304303 282 17532069684503220935
21401589 2 18335700490849680369
23557571 272 18116175331651688591
23559900 14 18042980778693950366
268830 7 17560252335874644234
2748736 6 16772659092394321208
312425 54 17023446613537148848
341906 21 18040157297009871844
474 4 17203336611008108098
497634 4 17060342958988389295
543368 44 16128656392213876136
573450 72 16805326612650332682
574716 61 15913329087286941136
633830 44 16558210249443093678
6431902 208 11891870789734179632
7064713 232 17022616486072882578
7399639 24 18342190967991487247
9849439 229 17609201361131009885
9981440 41 17968372352054625339

>  <PUBCHEM_SHAPE_MULTIPOLES>  (1) 
418.42
12.12
2.59
2.08
18.68
1.08
-0.22
8.27
4.42
-1.65
-0.13
0.24
-0.64
4.26

>  <PUBCHEM_SHAPE_SELFOVERLAP>  (1) 
873.735

>  <PUBCHEM_SHAPE_VOLUME>  (1) 
236.6

>  <PUBCHEM_COORDINATE_TYPE>  (1) 
2
5
10

$$$$
