38450
     RDKit          3D

 21 22  0  0  0  0  0  0  0  0999 V2000
   -1.7074   -1.2877   -0.0768 O   0  0  0  0  0  0  0  0  0  0  0  0
   -4.0425   -0.7236    0.1224 O   0  0  0  0  0  0  0  0  0  0  0  0
    0.4070    0.6413    0.3127 O   0  0  0  0  0  0  0  0  0  0  0  0
    2.5330   -0.1238    1.2283 O   0  0  0  0  0  0  0  0  0  0  0  0
    0.2967    1.1748   -1.9289 O   0  0  0  0  0  0  0  0  0  0  0  0
    2.3555    0.4309   -1.0393 N   0  0  0  0  0  0  0  0  0  0  0  0
   -3.0733   -1.7657   -0.1498 C   0  0  0  0  0  0  0  0  0  0  0  0
   -1.8977    0.0242    0.2352 C   0  0  0  0  0  0  0  0  0  0  0  0
   -3.2307    0.3463    0.3490 C   0  0  0  0  0  0  0  0  0  0  0  0
   -3.2523   -2.8734    0.8874 C   0  0  0  0  0  0  0  0  0  0  0  0
   -3.3224   -2.2995   -1.5599 C   0  0  0  0  0  0  0  0  0  0  0  0
   -0.9050    0.9630    0.4254 C   0  0  0  0  0  0  0  0  0  0  0  0
   -3.6451    1.6249    0.6594 C   0  0  0  0  0  0  0  0  0  0  0  0
   -1.2975    2.2661    0.7407 C   0  0  0  0  0  0  0  0  0  0  0  0
   -2.6597    2.5951    0.8571 C   0  0  0  0  0  0  0  0  0  0  0  0
    4.5262   -0.3564   -0.0770 C   0  0  0  0  0  0  0  0  0  0  0  0
    5.1941   -0.8231    1.2173 C   0  0  0  0  0  0  0  0  0  0  0  0
    3.0552   -0.0128    0.1154 C   0  0  0  0  0  0  0  0  0  0  0  0
    0.9762    0.7832   -0.9829 C   0  0  0  0  0  0  0  0  0  0  0  0
    6.6677   -1.1295    1.0041 C   0  0  0  0  0  0  0  0  0  0  0  0
    3.0220    0.5458   -2.3398 C   0  0  0  0  0  0  0  0  0  0  0  0
  1  7  1  0
  1  8  1  0
  2  7  1  0
  2  9  1  0
  3 12  1  0
  3 19  1  0
  4 18  2  0
  5 19  2  0
  6 18  1  0
  6 19  1  0
  6 21  1  0
  7 10  1  0
  7 11  1  0
  8  9  2  0
  8 12  1  0
  9 13  1  0
 12 14  2  0
 13 15  2  0
 14 15  1  0
 16 17  1  0
 16 18  1  0
 17 20  1  0
M  END
>  <PUBCHEM_COMPOUND_CID>  (1) 
38450

>  <PUBCHEM_CONFORMER_RMSD>  (1) 
0.8

>  <PUBCHEM_CONFORMER_DIVERSEORDER>  (1) 
1
39
226
213
62
197
255
224
29
232
105
147
239
132
64
257
256
161
79
266
157
106
181
9
183
53
261
86
234
268
137
154
233
92
88
276
207
236
218
42
212
247
244
179
139
190
174
170
22
160
208
169
254
158
96
251
252
150
113
99
228
241
184
141
177
165
40
243
119
133
202
50
210
14
189
148
180
172
260
143
250
149
265
118
76
231
238
130
203
221
78
11
206
126
20
103
93
145
200
32
34
142
166
258
193
199
55
3
49
68
259
220
151
144
219
211
120
69
153
101
117
225
274
134
192
136
173
104
75
58
187
217
242
84
23
249
176
272
124
146
229
67
214
56
167
273
246
41
51
109
129
72
43
198
162
267
98
17
97
65
127
63
240
275
155
178
83
89
114
112
108
94
116
205
100
223
204
87
74
45
277
33
44
90
57
121
12
245
253
71
235
46
230
102
164
159
186
185
66
91
77
264
52
182
237
262
16
38
80
25
54
140
194
125
216
30
171
271
215
248
10
70
110
227
111
156
18
28
135
60
115
13
107
263
73
122
195
81
6
222
48
163
2
131
152
4
168
128
36
21
209
27
15
26
7
19
196
138
269
188
175
8
123
270
5
37
191
95
82
59
24
35
85
47
201
61
31

>  <PUBCHEM_MMFF94_PARTIAL_CHARGES>  (1) 
20
1 -0.36
12 0.08
13 -0.15
14 -0.15
15 -0.15
16 0.06
18 0.57
19 0.78
2 -0.36
21 0.3
28 0.15
29 0.15
3 -0.23
30 0.15
4 -0.57
5 -0.57
6 -0.42
7 0.56
8 0.08
9 0.08

>  <PUBCHEM_EFFECTIVE_ROTOR_COUNT>  (1) 
6.6

>  <PUBCHEM_PHARMACOPHORE_FEATURES>  (1) 
8
1 1 acceptor
1 2 acceptor
1 20 hydrophobe
1 4 acceptor
1 5 acceptor
3 7 10 11 hydrophobe
5 1 2 7 8 9 rings
6 8 9 12 13 14 15 rings

>  <PUBCHEM_HEAVY_ATOM_COUNT>  (1) 
21

>  <PUBCHEM_ATOM_DEF_STEREO_COUNT>  (1) 
0

>  <PUBCHEM_ATOM_UDEF_STEREO_COUNT>  (1) 
0

>  <PUBCHEM_BOND_DEF_STEREO_COUNT>  (1) 
0

>  <PUBCHEM_BOND_UDEF_STEREO_COUNT>  (1) 
0

>  <PUBCHEM_ISOTOPIC_ATOM_COUNT>  (1) 
0

>  <PUBCHEM_COMPONENT_COUNT>  (1) 
1

>  <PUBCHEM_CACTVS_TAUTO_COUNT>  (1) 
1

>  <PUBCHEM_CONFORMER_ID>  (1) 
0000963200000001

>  <PUBCHEM_MMFF94_ENERGY>  (1) 
57.2547

>  <PUBCHEM_FEATURE_SELFOVERLAP>  (1) 
40.751

>  <PUBCHEM_SHAPE_FINGERPRINT>  (1) 
10062212 137 18333453148910951987
11045977 3 18131059425426729840
11315181 36 18407757028467597416
11370993 144 16127834983807890919
11578080 2 18042383867975606221
12236239 1 18040722454328751737
12346177 29 18412824672885228621
12363563 72 18127976523581943047
12523318 42 18272926124823829418
12553582 1 17983873438697690143
12616971 3 17676214550412143172
12633257 1 17917437531173431216
13009979 54 18259993698937946024
13083527 12 17128721703221162669
13140716 1 18199476622417243249
13583140 156 17489012783083156162
14178342 30 18340212890532178526
14844126 61 18342734135214676291
15042514 8 18411992364585222977
15099037 37 18060700602053741924
15842332 3 18042428918092736852
16752209 62 18412266129953205633
17780758 139 18410284788377515002
1813 80 17241620416386919686
18186145 218 14201115734319227660
18927931 339 18273496784022091766
19784866 240 17894347791448742622
200 152 17095520674031042420
204376 136 15123499312179396956
20600515 1 18201729401104313216
20645477 70 16008755740480095236
21033648 29 16845300401755908384
21065201 7 18129115450129518628
21069387 34 17603589672466463290
21650355 55 18343301466092683705
21728266 224 18412538816888998866
23184049 29 18198910390860984937
23557571 272 17774454797409685440
23559900 14 17772773601428745252
23728640 28 18411705366027706411
312425 54 18338787907026738290
5104073 3 18343025531528697088
5364581 5 18058994207943502656
559249 180 18261106336165191739
573450 72 18409169896229245640
57527293 21 17488743530992564990
5924683 9 18201429285715725998
602551 16 18272373070717715726
67856867 119 18335423530099992252
7615 1 18114195162892258812
77492 1 18041292018521311261
7970288 3 18194963169698026427
81228 2 18129122103192420849
9709674 26 18059585641396973551

>  <PUBCHEM_SHAPE_MULTIPOLES>  (1) 
397.84
11.04
2.57
1.57
17.86
0.54
0.93
5.16
-3.62
-4.3
-0.43
1.25
0.01
-1.61

>  <PUBCHEM_SHAPE_SELFOVERLAP>  (1) 
834.659

>  <PUBCHEM_SHAPE_VOLUME>  (1) 
222.9

>  <PUBCHEM_COORDINATE_TYPE>  (1) 
2
5
10

$$$$
