38462
     RDKit          3D

 31 33  0  0  1  0  0  0  0  0999 V2000
   -2.6652    5.5099    0.2167 Cl  0  0  0  0  0  0  0  0  0  0  0  0
   -0.2383   -0.5957    1.4778 O   0  0  0  0  0  0  0  0  0  0  0  0
   -1.1341    1.4016   -2.2844 O   0  0  0  0  0  0  0  0  0  0  0  0
    4.4784    1.3543    1.1876 N   0  0  0  0  0  0  0  0  0  0  0  0
   -5.0880   -1.8787    0.8437 N   0  0  0  0  0  0  0  0  0  0  0  0
    0.9117   -0.3515   -0.6536 C   0  0  0  0  0  0  0  0  0  0  0  0
   -0.4727   -0.1766    0.1163 C   0  0  0  0  0  0  0  0  0  0  0  0
    1.9556    0.6689   -0.0934 C   0  0  0  0  0  0  0  0  0  0  0  0
    0.7947   -0.0735   -2.1935 C   0  0  0  0  0  0  0  0  0  0  0  0
   -1.5978   -1.0940   -0.4115 C   0  0  0  0  0  0  0  0  0  0  0  0
    1.4660   -1.8027   -0.4286 C   0  0  0  0  0  0  0  0  0  0  0  0
   -0.9816    1.2759    0.1323 C   0  0  0  0  0  0  0  0  0  0  0  0
    3.3002    0.4957   -0.7827 C   0  0  0  0  0  0  0  0  0  0  0  0
    0.2509    1.2888   -2.6119 C   0  0  0  0  0  0  0  0  0  0  0  0
   -2.8126   -1.0342    0.5015 C   0  0  0  0  0  0  0  0  0  0  0  0
   -1.2930    1.9699   -1.0496 C   0  0  0  0  0  0  0  0  0  0  0  0
    4.3059    1.5155   -0.2512 C   0  0  0  0  0  0  0  0  0  0  0  0
    2.2304   -2.0900    0.7024 C   0  0  0  0  0  0  0  0  0  0  0  0
    1.1948   -2.8052   -1.3599 C   0  0  0  0  0  0  0  0  0  0  0  0
   -1.1865    1.9656    1.3441 C   0  0  0  0  0  0  0  0  0  0  0  0
   -3.9312   -1.9208   -0.0431 C   0  0  0  0  0  0  0  0  0  0  0  0
   -1.8279    3.2638   -1.0280 C   0  0  0  0  0  0  0  0  0  0  0  0
   -1.6970    3.2680    1.3698 C   0  0  0  0  0  0  0  0  0  0  0  0
    2.7231   -3.3796    0.9020 C   0  0  0  0  0  0  0  0  0  0  0  0
    1.6875   -4.0947   -1.1602 C   0  0  0  0  0  0  0  0  0  0  0  0
   -2.0240    3.9146    0.1841 C   0  0  0  0  0  0  0  0  0  0  0  0
    2.4517   -4.3819   -0.0294 C   0  0  0  0  0  0  0  0  0  0  0  0
    5.0072    2.5822    1.7841 C   0  0  0  0  0  0  0  0  0  0  0  0
    5.3655    0.2264    1.4774 C   0  0  0  0  0  0  0  0  0  0  0  0
   -6.2997   -2.2858    0.1302 C   0  0  0  0  0  0  0  0  0  0  0  0
   -4.8740   -2.7362    2.0109 C   0  0  0  0  0  0  0  0  0  0  0  0
  1 26  1  0
  2  7  1  0
  3 14  1  0
  3 16  1  0
  4 17  1  0
  4 28  1  0
  4 29  1  0
  5 21  1  0
  5 30  1  0
  5 31  1  0
  6  7  1  0
  6  8  1  0
  6  9  1  0
  6 11  1  0
  7 10  1  0
  7 12  1  0
  8 13  1  0
  9 14  1  0
 10 15  1  0
 11 18  2  0
 11 19  1  0
 12 16  2  0
 12 20  1  0
 13 17  1  0
 15 21  1  0
 16 22  1  0
 18 24  1  0
 19 25  2  0
 20 23  2  0
 22 26  2  0
 23 26  1  0
 24 27  2  0
 25 27  1  0
M  END
>  <PUBCHEM_COMPOUND_CID>  (1) 
38462

>  <PUBCHEM_CONFORMER_RMSD>  (1) 
1

>  <PUBCHEM_CONFORMER_DIVERSEORDER>  (1) 
4
13
44
19
54
5
23
14
85
31
30
60
61
50
62
65
53
78
42
75
16
71
25
39
46
77
81
41
27
7
76
83
29
63
82
51
59
58
80
34
32
73
43
6
26
48
17
1
84
66
11
15
87
28
55
57
37
40
69
33
72
70
52
49
21
3
64
35
86
18
9
24
74
47
38
22
68
12
10
20
36
8
45
67
56
2
79

>  <PUBCHEM_MMFF94_PARTIAL_CHARGES>  (1) 
35
1 -0.18
11 -0.14
12 -0.14
14 0.28
16 0.08
17 0.27
18 -0.15
19 -0.15
2 -0.68
20 -0.15
21 0.27
22 -0.15
23 -0.15
24 -0.15
25 -0.15
26 0.18
27 -0.15
28 0.27
29 0.27
3 -0.36
30 0.27
31 0.27
4 -0.81
44 0.4
47 0.15
48 0.15
49 0.15
5 -0.81
52 0.15
53 0.15
54 0.15
55 0.15
56 0.15
6 0.14
7 0.42

>  <PUBCHEM_EFFECTIVE_ROTOR_COUNT>  (1) 
10

>  <PUBCHEM_PHARMACOPHORE_FEATURES>  (1) 
8
1 2 acceptor
1 2 donor
1 3 acceptor
1 4 cation
1 5 cation
6 11 18 19 24 25 27 rings
6 12 16 20 22 23 26 rings
7 3 6 7 9 12 14 16 rings

>  <PUBCHEM_HEAVY_ATOM_COUNT>  (1) 
31

>  <PUBCHEM_ATOM_DEF_STEREO_COUNT>  (1) 
0

>  <PUBCHEM_ATOM_UDEF_STEREO_COUNT>  (1) 
2

>  <PUBCHEM_BOND_DEF_STEREO_COUNT>  (1) 
0

>  <PUBCHEM_BOND_UDEF_STEREO_COUNT>  (1) 
0

>  <PUBCHEM_ISOTOPIC_ATOM_COUNT>  (1) 
0

>  <PUBCHEM_COMPONENT_COUNT>  (1) 
1

>  <PUBCHEM_CACTVS_TAUTO_COUNT>  (1) 
1

>  <PUBCHEM_CONFORMER_ID>  (1) 
0000963E00000004

>  <PUBCHEM_MMFF94_ENERGY>  (1) 
122.351

>  <PUBCHEM_FEATURE_SELFOVERLAP>  (1) 
40.607

>  <PUBCHEM_SHAPE_FINGERPRINT>  (1) 
102385 1 18267308629380121918
10439779 11 18049161369608601747
10930396 42 17694186231325119440
1100329 8 17764026161395080398
11578080 2 18047772407407211796
12058002 1 17677917736335119217
12633257 1 17756129100113467706
12788726 201 18262811799017472604
12930653 34 18340764862728591140
13140716 1 18049721016747125786
13583140 156 18128816344238529204
13692114 37 17759252791490206025
13835254 42 18411707556782806473
13911987 19 17973465469849325567
140371 6 18187661240078553027
14178342 30 18336265652684664212
14223421 5 18339083687753462654
14863182 85 18191606317510921950
14955137 171 18049173446955696299
15219462 58 18341048506368440028
15775530 1 18266466395025820350
16728300 4 17898539100320828410
20600515 1 17912092951179576093
21703447 108 18339642239555397611
23558518 356 18189623743626944979
23559900 14 17695620758791424334
283562 15 18337686303064177100
3178227 256 17906181998872203955
3380486 145 18340756148540920703
350125 39 18412267216606610670
3886686 26 17830151529756604114
392239 28 18128530659935133154
469060 322 18335995245464473673
6004065 56 18121497114703174595
7399639 24 18412259553999722346
9981440 41 18055320644857772280

>  <PUBCHEM_SHAPE_MULTIPOLES>  (1) 
618.13
9.3
6.52
1.94
2.1
1.94
0.54
-3.14
-5.38
3.5
-0.92
-0.37
0.39
2.28

>  <PUBCHEM_SHAPE_SELFOVERLAP>  (1) 
1282.135

>  <PUBCHEM_SHAPE_VOLUME>  (1) 
353.9

>  <PUBCHEM_COORDINATE_TYPE>  (1) 
2
5
10

$$$$
