38464
     RDKit          3D

 16 15  0  0  1  0  0  0  0  0999 V2000
   -3.2518   -3.6479   -0.3678 Cl  0  0  0  0  0  0  0  0  0  0  0  0
   -4.8526    3.0348    0.1880 Cl  0  0  0  0  0  0  0  0  0  0  0  0
    2.9042   -0.9173    1.6680 O   0  0  0  0  0  0  0  0  0  0  0  0
   -2.0278    0.1623    0.1032 N   0  0  0  0  0  0  0  0  0  0  0  0
    2.7229   -0.8404    0.2542 C   0  0  0  0  0  0  0  0  0  0  0  0
    3.8745   -0.0252   -0.3697 C   0  0  0  0  0  0  0  0  0  0  0  0
    3.9270    1.4386    0.0907 C   0  0  0  0  0  0  0  0  0  0  0  0
   -0.9472    0.9146   -0.5209 C   0  0  0  0  0  0  0  0  0  0  0  0
   -2.0640   -1.2096   -0.4074 C   0  0  0  0  0  0  0  0  0  0  0  0
   -3.3150    0.8221   -0.1248 C   0  0  0  0  0  0  0  0  0  0  0  0
    2.7308   -2.2697   -0.2977 C   0  0  0  0  0  0  0  0  0  0  0  0
    1.4159   -0.2164   -0.0215 C   0  0  0  0  0  0  0  0  0  0  0  0
    5.0303    2.2037   -0.6253 C   0  0  0  0  0  0  0  0  0  0  0  0
    0.3503    0.2912   -0.2461 C   0  0  0  0  0  0  0  0  0  0  0  0
   -3.2126   -1.9731    0.2333 C   0  0  0  0  0  0  0  0  0  0  0  0
   -3.2847    2.2323    0.4439 C   0  0  0  0  0  0  0  0  0  0  0  0
  1 15  1  0
  2 16  1  0
  3  5  1  0
  4  8  1  0
  4  9  1  0
  4 10  1  0
  5  6  1  0
  5 11  1  0
  5 12  1  0
  6  7  1  0
  7 13  1  0
  8 14  1  0
  9 15  1  0
 10 16  1  0
 12 14  3  0
M  END
>  <PUBCHEM_COMPOUND_CID>  (1) 
38464

>  <PUBCHEM_CONFORMER_RMSD>  (1) 
0.8

>  <PUBCHEM_CONFORMER_DIVERSEORDER>  (1) 
4
57
46
12
43
16
64
71
65
23
56
42
10
1
22
58
60
7
27
25
67
29
45
32
5
48
63
40
3
34
14
44
61
73
6
53
24
74
11
15
21
41
33
68
50
2
75
13
37
35
39
38
49
20
54
19
70
17
52
36
59
72
8
55
26
51
28
62
18
69
31
66
9
47
30

>  <PUBCHEM_MMFF94_PARTIAL_CHARGES>  (1) 
13
1 -0.29
10 0.27
12 -0.2
14 -0.2
15 0.29
16 0.29
2 -0.29
3 -0.68
37 0.4
4 -0.81
5 0.48
8 0.47
9 0.27

>  <PUBCHEM_EFFECTIVE_ROTOR_COUNT>  (1) 
7

>  <PUBCHEM_PHARMACOPHORE_FEATURES>  (1) 
4
1 13 hydrophobe
1 3 acceptor
1 3 donor
1 4 cation

>  <PUBCHEM_HEAVY_ATOM_COUNT>  (1) 
16

>  <PUBCHEM_ATOM_DEF_STEREO_COUNT>  (1) 
0

>  <PUBCHEM_ATOM_UDEF_STEREO_COUNT>  (1) 
1

>  <PUBCHEM_BOND_DEF_STEREO_COUNT>  (1) 
0

>  <PUBCHEM_BOND_UDEF_STEREO_COUNT>  (1) 
0

>  <PUBCHEM_ISOTOPIC_ATOM_COUNT>  (1) 
0

>  <PUBCHEM_COMPONENT_COUNT>  (1) 
1

>  <PUBCHEM_CACTVS_TAUTO_COUNT>  (1) 
1

>  <PUBCHEM_CONFORMER_ID>  (1) 
0000964000000004

>  <PUBCHEM_MMFF94_ENERGY>  (1) 
22.3213

>  <PUBCHEM_FEATURE_SELFOVERLAP>  (1) 
20.297

>  <PUBCHEM_SHAPE_FINGERPRINT>  (1) 
10014705 185 18186515501781301341
10366900 7 18059567057411242955
10616163 171 18412263956030516670
11056379 131 18268719470413469031
11265709 11 18123470750970347351
11405975 8 18336826399240507650
11806522 49 18118119410122754774
12500047 106 18341890749613336427
12553582 1 17981877846383802055
12633257 1 18190732051442753642
12788726 201 18336819918325281915
12932764 1 17531524270257099654
14178342 30 18337938061098700954
14445660 50 18408042892241663756
15778101 99 18411987966175364340
15806764 133 17274826921159383688
17834072 32 18340209587797799469
18186145 218 17749953258784032590
19050596 39 18260261928599467304
20286276 3 18411145718624963374
20645477 56 18261678056426306197
21065198 57 18339081493135944078
212916 134 18055052282505594673
21426921 1 18340207504880455709
21618674 54 18410856572873059046
23503953 91 18336536110869456544
23503958 25 17916860347956834168
23557571 272 18200886152757239452
23558518 356 18260834838281679459
23559900 14 18200591372436075670
23598288 3 18271800250565575303
474 4 17822299032543892012
5104073 3 18261107483121959456
53777708 50 18408037412232717794
58051976 378 18267304407802154462
77779 3 18411421709006811196
9709674 26 18271527498546396239

>  <PUBCHEM_SHAPE_MULTIPOLES>  (1) 
322.16
10.6
3.8
0.84
3.59
1.21
-0.19
-5.81
0.13
-5.05
0.22
0.43
0.09
-1.03

>  <PUBCHEM_SHAPE_SELFOVERLAP>  (1) 
587.964

>  <PUBCHEM_SHAPE_VOLUME>  (1) 
208

>  <PUBCHEM_COORDINATE_TYPE>  (1) 
2
5
10

$$$$
