38460
     RDKit          3D

 25 27  0  0  1  0  0  0  0  0999 V2000
    5.0105   -3.0653   -0.5909 Cl  0  0  0  0  0  0  0  0  0  0  0  0
   -0.7568    0.1588   -1.6458 O   0  0  0  0  0  0  0  0  0  0  0  0
    1.0245   -1.3812    2.0108 O   0  0  0  0  0  0  0  0  0  0  0  0
    2.1284    4.1153   -0.1501 N   0  0  0  0  0  0  0  0  0  0  0  0
   -0.3531   -0.1913   -0.3066 C   0  0  0  0  0  0  0  0  0  0  0  0
   -1.5041   -1.0879    0.2723 C   0  0  0  0  0  0  0  0  0  0  0  0
   -0.1416    1.1337    0.4481 C   0  0  0  0  0  0  0  0  0  0  0  0
   -1.3891   -1.4372    1.7743 C   0  0  0  0  0  0  0  0  0  0  0  0
    0.9724   -0.9652   -0.3798 C   0  0  0  0  0  0  0  0  0  0  0  0
   -2.9041   -0.5436   -0.0341 C   0  0  0  0  0  0  0  0  0  0  0  0
    0.9174    1.9862   -0.2379 C   0  0  0  0  0  0  0  0  0  0  0  0
   -0.1287   -2.2155    2.1204 C   0  0  0  0  0  0  0  0  0  0  0  0
    1.5879   -1.4965    0.7675 C   0  0  0  0  0  0  0  0  0  0  0  0
    1.0989    3.3121    0.4990 C   0  0  0  0  0  0  0  0  0  0  0  0
    1.6505   -1.1401   -1.6020 C   0  0  0  0  0  0  0  0  0  0  0  0
   -3.4572   -0.7452   -1.2918 C   0  0  0  0  0  0  0  0  0  0  0  0
   -3.6023    0.1442    0.9499 C   0  0  0  0  0  0  0  0  0  0  0  0
    2.8360   -2.1286    0.7104 C   0  0  0  0  0  0  0  0  0  0  0  0
    2.8861   -1.7933   -1.6675 C   0  0  0  0  0  0  0  0  0  0  0  0
    3.4814   -2.2823   -0.5107 C   0  0  0  0  0  0  0  0  0  0  0  0
   -4.7311   -0.2502   -1.5707 C   0  0  0  0  0  0  0  0  0  0  0  0
   -4.8763    0.6390    0.6709 C   0  0  0  0  0  0  0  0  0  0  0  0
   -5.4405    0.4419   -0.5894 C   0  0  0  0  0  0  0  0  0  0  0  0
    3.4015    3.3935   -0.1819 C   0  0  0  0  0  0  0  0  0  0  0  0
    2.2895    5.3987    0.5357 C   0  0  0  0  0  0  0  0  0  0  0  0
  1 20  1  0
  2  5  1  0
  3 12  1  0
  3 13  1  0
  4 14  1  0
  4 24  1  0
  4 25  1  0
  5  6  1  0
  5  7  1  0
  5  9  1  0
  6  8  1  0
  6 10  1  0
  7 11  1  0
  8 12  1  0
  9 13  2  0
  9 15  1  0
 10 16  2  0
 10 17  1  0
 11 14  1  0
 13 18  1  0
 15 19  2  0
 16 21  1  0
 17 22  2  0
 18 20  2  0
 19 20  1  0
 21 23  2  0
 22 23  1  0
M  END
>  <PUBCHEM_COMPOUND_CID>  (1) 
38460

>  <PUBCHEM_CONFORMER_RMSD>  (1) 
0.8

>  <PUBCHEM_CONFORMER_DIVERSEORDER>  (1) 
1
35
8
13
12
15
19
37
25
18
33
32
9
17
14
3
30
45
42
5
7
31
27
21
16
2
43
40
4
38
26
10
24
36
29
20
44
6
11
23
28
34
22
39
46
41

>  <PUBCHEM_MMFF94_PARTIAL_CHARGES>  (1) 
31
1 -0.18
10 -0.14
12 0.28
13 0.08
14 0.27
15 -0.15
16 -0.15
17 -0.15
18 -0.15
19 -0.15
2 -0.68
20 0.18
21 -0.15
22 -0.15
23 -0.15
24 0.27
25 0.27
3 -0.36
35 0.4
38 0.15
39 0.15
4 -0.81
40 0.15
41 0.15
42 0.15
43 0.15
44 0.15
45 0.15
5 0.42
6 0.14
9 -0.14

>  <PUBCHEM_EFFECTIVE_ROTOR_COUNT>  (1) 
6

>  <PUBCHEM_PHARMACOPHORE_FEATURES>  (1) 
7
1 2 acceptor
1 2 donor
1 3 acceptor
1 4 cation
6 10 16 17 21 22 23 rings
6 9 13 15 18 19 20 rings
7 3 5 6 8 9 12 13 rings

>  <PUBCHEM_HEAVY_ATOM_COUNT>  (1) 
25

>  <PUBCHEM_ATOM_DEF_STEREO_COUNT>  (1) 
0

>  <PUBCHEM_ATOM_UDEF_STEREO_COUNT>  (1) 
2

>  <PUBCHEM_BOND_DEF_STEREO_COUNT>  (1) 
0

>  <PUBCHEM_BOND_UDEF_STEREO_COUNT>  (1) 
0

>  <PUBCHEM_ISOTOPIC_ATOM_COUNT>  (1) 
0

>  <PUBCHEM_COMPONENT_COUNT>  (1) 
1

>  <PUBCHEM_CACTVS_TAUTO_COUNT>  (1) 
1

>  <PUBCHEM_CONFORMER_ID>  (1) 
0000963C00000001

>  <PUBCHEM_MMFF94_ENERGY>  (1) 
89.8325

>  <PUBCHEM_FEATURE_SELFOVERLAP>  (1) 
35.532

>  <PUBCHEM_SHAPE_FINGERPRINT>  (1) 
10006869 2 17182230119265636385
10764073 3 14643235858450168865
10940486 97 17846487141118427807
11578080 2 17751952299656427085
12293681 160 17969512515395195290
12549972 3 17896053160058974929
12633257 1 17751896216100239656
12788726 201 17974013847290467154
13009979 54 17703794695772595451
13134695 92 18410862027228187798
13149001 5 18260842517641188875
133893 2 18200330920865180952
13464514 151 18337113487481154025
13540713 4 18042128816370247667
13590594 115 18268156348856781473
13681431 1 18343021086110690976
14347332 77 17834959668409482158
14556957 393 17976573566652902358
14955137 171 18266477420650338315
15163728 17 17900272093243569605
15230672 131 17829618602448176972
15439362 3 18339075003240419417
15664445 248 18271251504090269734
15775530 1 17826817006857038275
167882 2 18340768268600974140
17980427 26 18116408475730734439
1813 80 18129943360367338230
20600515 1 18130231449715114470
20832881 197 18261962821321208291
21860390 5 18411693309885532220
23402539 116 18198061369909898263
23419403 2 17972067921777306802
23559900 14 18410572894245972186
3298306 158 18193846074832083292
3493558 16 17345471483868243024
376196 1 17975398419902599649
465052 167 13758055412484287503
474 4 18266168616538188665
5171179 24 18339348678614595077
532947 4 18268719483889084492
5895379 119 17558849299145742001
59755656 215 17977392951470374039
7164475 11 17832707868426582394
81228 2 17910696266601452586
9981440 41 17836078245032445521

>  <PUBCHEM_SHAPE_MULTIPOLES>  (1) 
499.64
8.81
5.07
1.7
7.97
10.26
-0.24
-3.12
2.82
-9.27
-0.86
0.41
-1.17
0.59

>  <PUBCHEM_SHAPE_SELFOVERLAP>  (1) 
1050.772

>  <PUBCHEM_SHAPE_VOLUME>  (1) 
281.3

>  <PUBCHEM_COORDINATE_TYPE>  (1) 
2
5
10

$$$$
