38470
     RDKit          3D

 16 15  0  0  0  0  0  0  0  0999 V2000
   -2.2808    3.8081    0.8894 Cl  0  0  0  0  0  0  0  0  0  0  0  0
   -5.2591   -2.2613   -0.4603 Cl  0  0  0  0  0  0  0  0  0  0  0  0
    3.2499    1.0917    0.5820 O   0  0  0  0  0  0  0  0  0  0  0  0
   -1.8894   -0.0881   -0.0606 N   0  0  0  0  0  0  0  0  0  0  0  0
    2.9660   -0.0988   -0.1533 C   0  0  0  0  0  0  0  0  0  0  0  0
    3.2290    0.1646   -1.6535 C   0  0  0  0  0  0  0  0  0  0  0  0
    3.8988   -1.2275    0.3414 C   0  0  0  0  0  0  0  0  0  0  0  0
   -1.0021   -1.1240    0.4527 C   0  0  0  0  0  0  0  0  0  0  0  0
   -1.6398    1.1868    0.6147 C   0  0  0  0  0  0  0  0  0  0  0  0
   -3.2905   -0.4818    0.1014 C   0  0  0  0  0  0  0  0  0  0  0  0
    1.5530   -0.4662    0.0641 C   0  0  0  0  0  0  0  0  0  0  0  0
    2.3954    1.2970   -2.2491 C   0  0  0  0  0  0  0  0  0  0  0  0
    3.8121   -1.5036    1.8407 C   0  0  0  0  0  0  0  0  0  0  0  0
    0.4016   -0.7613    0.2393 C   0  0  0  0  0  0  0  0  0  0  0  0
   -2.5908    2.2499    0.0872 C   0  0  0  0  0  0  0  0  0  0  0  0
   -3.5531   -1.7857   -0.6362 C   0  0  0  0  0  0  0  0  0  0  0  0
  1 15  1  0
  2 16  1  0
  3  5  1  0
  4  8  1  0
  4  9  1  0
  4 10  1  0
  5  6  1  0
  5  7  1  0
  5 11  1  0
  6 12  1  0
  7 13  1  0
  8 14  1  0
  9 15  1  0
 10 16  1  0
 11 14  3  0
M  END
>  <PUBCHEM_COMPOUND_CID>  (1) 
38470

>  <PUBCHEM_CONFORMER_RMSD>  (1) 
0.8

>  <PUBCHEM_CONFORMER_DIVERSEORDER>  (1) 
1
30
31
4
3
12
32
35
5
25
18
27
20
16
33
11
9
2
34
22
29
19
8
17
26
10
13
23
7
6
14
24
28
21
15

>  <PUBCHEM_MMFF94_PARTIAL_CHARGES>  (1) 
13
1 -0.29
10 0.27
11 -0.2
14 -0.2
15 0.29
16 0.29
2 -0.29
3 -0.68
33 0.4
4 -0.81
5 0.48
8 0.47
9 0.27

>  <PUBCHEM_EFFECTIVE_ROTOR_COUNT>  (1) 
7

>  <PUBCHEM_PHARMACOPHORE_FEATURES>  (1) 
5
1 12 hydrophobe
1 13 hydrophobe
1 3 acceptor
1 3 donor
1 4 cation

>  <PUBCHEM_HEAVY_ATOM_COUNT>  (1) 
16

>  <PUBCHEM_ATOM_DEF_STEREO_COUNT>  (1) 
0

>  <PUBCHEM_ATOM_UDEF_STEREO_COUNT>  (1) 
0

>  <PUBCHEM_BOND_DEF_STEREO_COUNT>  (1) 
0

>  <PUBCHEM_BOND_UDEF_STEREO_COUNT>  (1) 
0

>  <PUBCHEM_ISOTOPIC_ATOM_COUNT>  (1) 
0

>  <PUBCHEM_COMPONENT_COUNT>  (1) 
1

>  <PUBCHEM_CACTVS_TAUTO_COUNT>  (1) 
1

>  <PUBCHEM_CONFORMER_ID>  (1) 
0000964600000001

>  <PUBCHEM_MMFF94_ENERGY>  (1) 
22.1761

>  <PUBCHEM_FEATURE_SELFOVERLAP>  (1) 
25.371

>  <PUBCHEM_SHAPE_FINGERPRINT>  (1) 
12173636 292 18054791672554308781
12788726 201 18410303535799147851
13583140 156 17273673413450727234
14178342 30 18194392308324525538
15842332 3 18115039514833917396
1741750 31 17984420729094699313
1813 80 17916029139126303431
18186145 218 17417821578053106858
192875 21 18113896086980858558
200 152 18187919603910395639
20645477 70 16153421749337437338
20671657 53 18199746024346281931
21426921 1 18342174419397391737
21524375 3 17975139738602022553
23402539 116 18410565189459745471
23532345 12 18260546680615301042
23557571 272 17917717850872497397
23558518 356 18192437372777456555
23559900 14 17771907135016749106
23598291 2 18114751430134841686
312423 11 18114755862171813002
3286 77 18409719669275626858
495365 180 14274002390210167160
5374978 207 18341043116095052571
6049 1 17274835614109626860
68521 5 18413108364613605389
7164475 11 18411138008984041559
7615 1 18186806854950411148

>  <PUBCHEM_SHAPE_MULTIPOLES>  (1) 
322.16
9.37
3.15
1.49
2.07
3.22
0.53
-5.13
0.41
4.61
-0.76
-1.97
0.26
-2.42

>  <PUBCHEM_SHAPE_SELFOVERLAP>  (1) 
588.794

>  <PUBCHEM_SHAPE_VOLUME>  (1) 
207.8

>  <PUBCHEM_COORDINATE_TYPE>  (1) 
2
5
10

$$$$
