38473
     RDKit          3D

 24 27  0  0  0  0  0  0  0  0999 V2000
    0.5756   -0.7960    0.5574 O   0  0  0  0  0  0  0  0  0  0  0  0
   -2.5683   -1.3330   -0.5618 N   0  0  0  0  0  0  0  0  0  0  0  0
   -3.6750   -0.5892   -0.0130 C   0  0  0  0  0  0  0  0  0  0  0  0
   -0.4932   -1.3717   -0.2208 C   0  0  0  0  0  0  0  0  0  0  0  0
   -1.4675   -0.3968   -0.8972 C   0  0  0  0  0  0  0  0  0  0  0  0
   -1.7318   -1.8565    0.5458 C   0  0  0  0  0  0  0  0  0  0  0  0
   -4.1881    0.4408   -1.0227 C   0  0  0  0  0  0  0  0  0  0  0  0
   -4.7917   -1.5361    0.4331 C   0  0  0  0  0  0  0  0  0  0  0  0
   -5.3942    1.2049   -0.4825 C   0  0  0  0  0  0  0  0  0  0  0  0
   -5.9979   -0.7699    0.9701 C   0  0  0  0  0  0  0  0  0  0  0  0
   -6.5054    0.2589   -0.0363 C   0  0  0  0  0  0  0  0  0  0  0  0
    1.5302   -0.1741   -0.2811 C   0  0  0  0  0  0  0  0  0  0  0  0
    2.8663   -0.8769   -0.1587 C   0  0  0  0  0  0  0  0  0  0  0  0
    1.6218    1.3169   -0.0204 C   0  0  0  0  0  0  0  0  0  0  0  0
    3.7216   -0.8938   -1.2461 C   0  0  0  0  0  0  0  0  0  0  0  0
    1.9689    2.1612   -1.0589 C   0  0  0  0  0  0  0  0  0  0  0  0
    3.2011   -1.4858    1.0376 C   0  0  0  0  0  0  0  0  0  0  0  0
    1.3558    1.7953    1.2492 C   0  0  0  0  0  0  0  0  0  0  0  0
    4.9523   -1.5406   -1.1333 C   0  0  0  0  0  0  0  0  0  0  0  0
    2.0528    3.5328   -0.8192 C   0  0  0  0  0  0  0  0  0  0  0  0
    4.4316   -2.1327    1.1504 C   0  0  0  0  0  0  0  0  0  0  0  0
    1.4398    3.1669    1.4889 C   0  0  0  0  0  0  0  0  0  0  0  0
    5.3072   -2.1601    0.0649 C   0  0  0  0  0  0  0  0  0  0  0  0
    1.7883    4.0356    0.4546 C   0  0  0  0  0  0  0  0  0  0  0  0
  1  4  1  0
  1 12  1  0
  2  3  1  0
  2  5  1  0
  2  6  1  0
  3  7  1  0
  3  8  1  0
  4  5  1  0
  4  6  1  0
  7  9  1  0
  8 10  1  0
  9 11  1  0
 10 11  1  0
 12 13  1  0
 12 14  1  0
 13 15  2  0
 13 17  1  0
 14 16  2  0
 14 18  1  0
 15 19  1  0
 16 20  1  0
 17 21  2  0
 18 22  2  0
 19 23  2  0
 20 24  2  0
 21 23  1  0
 22 24  1  0
M  END
>  <PUBCHEM_COMPOUND_CID>  (1) 
38473

>  <PUBCHEM_CONFORMER_RMSD>  (1) 
0.8

>  <PUBCHEM_CONFORMER_DIVERSEORDER>  (1) 
1
33
18
32
15
30
17
16
25
14
20
19
29
26
9
21
27
22
34
24
28
11
23
31
3
6
5
4
2
12
13
7
10
8

>  <PUBCHEM_MMFF94_PARTIAL_CHARGES>  (1) 
29
1 -0.54
12 0.57
13 -0.14
14 -0.14
15 -0.15
16 -0.15
17 -0.15
18 -0.15
19 -0.15
2 -0.69
20 -0.15
21 -0.15
22 -0.15
23 -0.15
24 -0.15
3 0.27
4 0.26
42 0.15
43 0.15
44 0.15
45 0.15
46 0.15
47 0.15
48 0.15
49 0.15
5 0.21
50 0.15
51 0.15
6 0.21

>  <PUBCHEM_EFFECTIVE_ROTOR_COUNT>  (1) 
7

>  <PUBCHEM_PHARMACOPHORE_FEATURES>  (1) 
6
1 1 acceptor
1 2 cation
4 2 4 5 6 rings
6 13 15 17 19 21 23 rings
6 14 16 18 20 22 24 rings
6 3 7 8 9 10 11 rings

>  <PUBCHEM_HEAVY_ATOM_COUNT>  (1) 
24

>  <PUBCHEM_ATOM_DEF_STEREO_COUNT>  (1) 
0

>  <PUBCHEM_ATOM_UDEF_STEREO_COUNT>  (1) 
0

>  <PUBCHEM_BOND_DEF_STEREO_COUNT>  (1) 
0

>  <PUBCHEM_BOND_UDEF_STEREO_COUNT>  (1) 
0

>  <PUBCHEM_ISOTOPIC_ATOM_COUNT>  (1) 
0

>  <PUBCHEM_COMPONENT_COUNT>  (1) 
1

>  <PUBCHEM_CACTVS_TAUTO_COUNT>  (1) 
1

>  <PUBCHEM_CONFORMER_ID>  (1) 
0000964900000001

>  <PUBCHEM_MMFF94_ENERGY>  (1) 
56.7314

>  <PUBCHEM_FEATURE_SELFOVERLAP>  (1) 
30.448

>  <PUBCHEM_SHAPE_FINGERPRINT>  (1) 
10721379 63 18115325465741902084
11045977 3 18186522112205227659
11135609 187 18048610497809942700
11265709 11 18341051826974082474
11405975 8 18410572933517940755
11421498 54 13695861485334051860
11545043 162 17894633656483195707
11646440 116 18271807878253478010
12166972 35 18202281399016827547
12516196 113 18412261710347975218
12549972 3 17968949724054546251
12616971 3 18060419145153686431
12617007 42 18343590633524184814
12788726 201 18191587441878417442
13004483 165 18267856204163448650
13134695 92 18202555198866225156
13533116 47 18265613367846270431
13590594 115 18338241461794267681
13878862 14 18265876095438440629
14170010 4 18342173401384829432
14341114 176 18334862727455476419
14347329 18 16517630462117105565
14466204 15 18266456508285379123
146900 427 11674881087027330983
14950920 106 18193302830541830491
14955137 171 18341333309955737078
15042514 8 18050846616090374362
15163728 17 17537733470175893436
15295992 7 18334299794703277003
15420108 30 17628051693719933224
15849732 13 17918273138773204534
1601671 61 18338795602674585246
17349148 13 17417819439212322939
17844677 252 18409454713144316699
17868525 174 18408597046312975169
1813 80 18272378533900344110
18785283 64 18336827605709443325
192875 21 17918279744559200961
20238998 120 18343301445124385904
20286276 3 18194123142729619567
20642791 239 17969810603721800548
20832881 197 18334575711401553826
21033648 29 17604414272402570565
21054139 6 7853274407467331889
21065198 57 18335984280797822027
21133410 127 17751913868886397101
21285901 2 17844252822280553646
21304303 172 18058176025004871248
2132832 1 17917720079971379729
21478907 32 18050568439733495230
21503847 285 18333448763976085537
21709351 56 18341887494534937999
23559900 14 17967534618731071119
3004659 81 17967818189821270390
3178227 256 18336275574122538787
340366 18 18131067160183067855
3411729 13 18268702982730338968
345986 75 17753030731949069314
350125 39 18335704927508432541
5081480 168 18334852831302539028
5104073 3 18339086003500594963
5895379 119 17058958600602973809
6086070 43 18263904598006536375
6823239 73 17603581945963125789
7495541 125 18187367631624201759
7808743 9 17687184605371874781
81228 2 18124886659948129954
8509985 295 18413108355174422966
8863177 126 18115037423549452315
9841814 1 18335409188950412002
9971528 1 17989201538706421914
9981440 41 17691956489914586648

>  <PUBCHEM_SHAPE_MULTIPOLES>  (1) 
483.06
13.26
3.85
1.25
17.74
4.87
-0.09
-7.07
0.22
-4.95
-0.73
-0.7
0.25
0.48

>  <PUBCHEM_SHAPE_SELFOVERLAP>  (1) 
1033.078

>  <PUBCHEM_SHAPE_VOLUME>  (1) 
267.6

>  <PUBCHEM_COORDINATE_TYPE>  (1) 
2
5
10

$$$$
