38478
     RDKit          3D

 12 12  0  0  0  0  0  0  0  0999 V2000
    1.7108    0.0003    0.0468 C   0  0  0  0  0  0  0  0  0  0  0  0
   -1.3431   -0.0002    0.2477 C   0  0  0  0  0  0  0  0  0  0  0  0
    0.9163    1.2638    0.4516 C   0  0  0  0  0  0  0  0  0  0  0  0
    0.9166   -1.2632    0.4525 C   0  0  0  0  0  0  0  0  0  0  0  0
   -0.5062    1.2560   -0.0832 C   0  0  0  0  0  0  0  0  0  0  0  0
   -0.5056   -1.2560   -0.0829 C   0  0  0  0  0  0  0  0  0  0  0  0
    1.9941   -0.0003   -1.4703 C   0  0  0  0  0  0  0  0  0  0  0  0
    3.0624    0.0006    0.7850 C   0  0  0  0  0  0  0  0  0  0  0  0
   -1.6739    0.0000    1.7606 C   0  0  0  0  0  0  0  0  0  0  0  0
   -2.7137   -0.0006   -0.4803 C   0  0  0  0  0  0  0  0  0  0  0  0
   -0.9296    2.3028   -0.8138 C   0  0  0  0  0  0  0  0  0  0  0  0
   -0.9281   -2.3030   -0.8138 C   0  0  0  0  0  0  0  0  0  0  0  0
  1  3  1  0
  1  4  1  0
  1  7  1  0
  1  8  1  0
  2  5  1  0
  2  6  1  0
  2  9  1  0
  2 10  1  0
  3  5  1  0
  4  6  1  0
  5 11  2  0
  6 12  2  0
M  END
>  <PUBCHEM_COMPOUND_CID>  (1) 
38478

>  <PUBCHEM_CONFORMER_RMSD>  (1) 
0.4

>  <PUBCHEM_CONFORMER_DIVERSEORDER>  (1) 
1
2
3

>  <PUBCHEM_MMFF94_PARTIAL_CHARGES>  (1) 
11
11 -0.3
12 -0.3
2 0.28
29 0.15
3 0.14
30 0.15
31 0.15
32 0.15
4 0.14
5 -0.28
6 -0.28

>  <PUBCHEM_EFFECTIVE_ROTOR_COUNT>  (1) 
0.8

>  <PUBCHEM_PHARMACOPHORE_FEATURES>  (1) 
3
3 1 7 8 hydrophobe
3 2 9 10 hydrophobe
6 1 2 3 4 5 6 rings

>  <PUBCHEM_HEAVY_ATOM_COUNT>  (1) 
12

>  <PUBCHEM_ATOM_DEF_STEREO_COUNT>  (1) 
0

>  <PUBCHEM_ATOM_UDEF_STEREO_COUNT>  (1) 
0

>  <PUBCHEM_BOND_DEF_STEREO_COUNT>  (1) 
0

>  <PUBCHEM_BOND_UDEF_STEREO_COUNT>  (1) 
0

>  <PUBCHEM_ISOTOPIC_ATOM_COUNT>  (1) 
0

>  <PUBCHEM_COMPONENT_COUNT>  (1) 
1

>  <PUBCHEM_CACTVS_TAUTO_COUNT>  (1) 
1

>  <PUBCHEM_CONFORMER_ID>  (1) 
0000964E00000001

>  <PUBCHEM_MMFF94_ENERGY>  (1) 
32.9964

>  <PUBCHEM_FEATURE_SELFOVERLAP>  (1) 
15.223

>  <PUBCHEM_SHAPE_FINGERPRINT>  (1) 
12423570 1 12791489622430527227
12524768 44 18269005339173027396
13024252 1 16950275200380222234
13380535 220 18051680333535311711
13380536 237 17684914813586005125
14817 1 18341059565935412460
15557651 10 18196402288562343298
15775835 57 18412259506485946330
16945 1 18410582785560539690
18185500 45 18265329697486890286
20511035 2 17901385589284282754
21040471 1 18338798897098662750
21922407 69 16155147952253623328
23402539 116 18129639981046621679
23419403 2 15596303399130316187
23552423 10 17544472415406755391
241688 4 18194111043668732970
2748010 2 18122905322213569686
369184 2 18341039770568301218
5084963 1 18059290968043719118
528886 8 18339625777388090381
54276843 12 17834162753831682129

>  <PUBCHEM_SHAPE_MULTIPOLES>  (1) 
246.95
3.3
2.03
1.28
1.19
0
-0.15
0
-0.23
-0.71
0.62
-0.05
0
0

>  <PUBCHEM_SHAPE_SELFOVERLAP>  (1) 
492.548

>  <PUBCHEM_SHAPE_VOLUME>  (1) 
148

>  <PUBCHEM_COORDINATE_TYPE>  (1) 
2
5
10

$$$$
