38474
     RDKit          3D

 19 21  0  0  0  0  0  0  0  0999 V2000
   -2.6470   -0.6335    0.0062 N   0  0  0  0  0  0  0  0  0  0  0  0
    3.1442   -0.9260    0.0001 N   0  0  0  0  0  0  0  0  0  0  0  0
   -2.2106    1.5355   -0.0052 N   0  0  0  0  0  0  0  0  0  0  0  0
    0.3923    2.7554   -0.0199 N   0  0  0  0  0  0  0  0  0  0  0  0
    2.4583    1.7871   -0.0155 N   0  0  0  0  0  0  0  0  0  0  0  0
   -4.5011    0.8218    0.0045 N   0  0  0  0  0  0  0  0  0  0  0  0
   -1.2739   -0.5382    0.0038 C   0  0  0  0  0  0  0  0  0  0  0  0
   -1.0326    0.8199   -0.0038 C   0  0  0  0  0  0  0  0  0  0  0  0
   -0.4869   -1.7236    0.0081 C   0  0  0  0  0  0  0  0  0  0  0  0
    1.8191   -0.5396   -0.0007 C   0  0  0  0  0  0  0  0  0  0  0  0
    0.2283    1.4669   -0.0104 C   0  0  0  0  0  0  0  0  0  0  0  0
    1.5170    0.7726   -0.0079 C   0  0  0  0  0  0  0  0  0  0  0  0
    0.8622   -1.6502    0.0059 C   0  0  0  0  0  0  0  0  0  0  0  0
   -3.1599    0.6312    0.0014 C   0  0  0  0  0  0  0  0  0  0  0  0
   -1.0246   -3.1511    0.0137 C   0  0  0  0  0  0  0  0  0  0  0  0
   -3.4986   -1.8072    0.0145 C   0  0  0  0  0  0  0  0  0  0  0  0
    3.8595   -1.1279    1.2442 C   0  0  0  0  0  0  0  0  0  0  0  0
    3.7884   -1.3800   -1.2161 C   0  0  0  0  0  0  0  0  0  0  0  0
    1.7658    2.8869   -0.0227 C   0  0  0  0  0  0  0  0  0  0  0  0
  1  7  1  0
  1 14  1  0
  1 16  1  0
  2 10  1  0
  2 17  1  0
  2 18  1  0
  3  8  1  0
  3 14  2  0
  4 11  2  0
  4 19  1  0
  5 12  1  0
  5 19  2  0
  6 14  1  0
  7  8  2  0
  7  9  1  0
  8 11  1  0
  9 13  2  0
  9 15  1  0
 10 12  2  0
 10 13  1  0
 11 12  1  0
M  END
>  <PUBCHEM_COMPOUND_CID>  (1) 
38474

>  <PUBCHEM_CONFORMER_RMSD>  (1) 
0.6

>  <PUBCHEM_CONFORMER_DIVERSEORDER>  (1) 
1

>  <PUBCHEM_MMFF94_PARTIAL_CHARGES>  (1) 
23
1 0.05
10 0.1
11 0.52
12 0.19
13 -0.15
14 0.27
15 0.14
16 0.26
17 0.37
18 0.37
19 0.6
2 -0.84
20 0.15
3 -0.57
33 0.06
34 0.4
35 0.4
4 -0.66
5 -0.62
6 -0.88
7 -0.2
8 0.14
9 -0.09

>  <PUBCHEM_EFFECTIVE_ROTOR_COUNT>  (1) 
1

>  <PUBCHEM_PHARMACOPHORE_FEATURES>  (1) 
8
1 2 cation
1 4 acceptor
1 6 donor
3 4 5 19 cation
4 1 3 6 14 cation
5 1 3 7 8 14 rings
5 4 5 11 12 19 rings
7 7 8 9 10 11 12 13 rings

>  <PUBCHEM_HEAVY_ATOM_COUNT>  (1) 
19

>  <PUBCHEM_ATOM_DEF_STEREO_COUNT>  (1) 
0

>  <PUBCHEM_ATOM_UDEF_STEREO_COUNT>  (1) 
0

>  <PUBCHEM_BOND_DEF_STEREO_COUNT>  (1) 
0

>  <PUBCHEM_BOND_UDEF_STEREO_COUNT>  (1) 
0

>  <PUBCHEM_ISOTOPIC_ATOM_COUNT>  (1) 
0

>  <PUBCHEM_COMPONENT_COUNT>  (1) 
1

>  <PUBCHEM_CACTVS_TAUTO_COUNT>  (1) 
4

>  <PUBCHEM_CONFORMER_ID>  (1) 
0000964A00000001

>  <PUBCHEM_MMFF94_ENERGY>  (1) 
82.7396

>  <PUBCHEM_FEATURE_SELFOVERLAP>  (1) 
40.67

>  <PUBCHEM_SHAPE_FINGERPRINT>  (1) 
10616163 171 17978512266780700334
10693767 8 17913756233722663231
10967382 1 18338517409147619747
1100329 8 18410572885924894147
11132069 177 18340764845153213043
11680986 33 18266182914230771642
12553582 1 18337955562916183122
13140716 1 18410573994094989417
14022347 108 18264216824706635826
14178342 30 17836640830129937408
14223421 5 18122349248381671243
14790565 3 18123491387803278116
15196674 1 18410574015216228707
15375462 189 17968090868166278506
15442244 35 18410570733903614050
15536298 74 18342738550208486376
16945 1 18338234838843264455
17804303 29 18408891728245477647
18186145 218 18409163316413077949
193761 8 18194402427208971654
19591789 44 18337958990843898035
20028762 73 18201437008811405263
20510252 161 18054783993131243072
20511035 2 18057878237552160662
20645477 70 18339356478680775871
20691752 17 17676197013596372041
20739085 24 18191334639792456777
20905425 154 17980770659490686374
21267235 1 18339370677399667883
21501502 16 18267019642574292807
22094290 62 18410291436438210763
221490 88 18337117881227423083
23184049 29 18265611172569375322
2334 1 18338516459928101381
23366157 5 17969500588323709364
23402539 116 18270950255210754534
23419403 2 16471695253867100514
23463225 33 18408601465676015040
23558518 356 17901103341065707386
23559900 14 18342461392602544230
238 59 17756946135836550589
2748010 2 18410007762475362773
335352 9 18410573942602698743
350125 39 18409737287563914401
43471831 8 17615963748277159680
5104073 3 18410577327342877129
589210 1 18121782991366748486
5902787 121 18335414669191505418
5939293 188 18412260640589648268
7364860 26 18198345250489969392
74978 22 18410294760806396254
7832392 63 18339640143848194550
81228 2 18052833450750155376
8809292 202 18333455339433969763
9709674 26 18267025148733182143

>  <PUBCHEM_SHAPE_MULTIPOLES>  (1) 
361.13
6.37
3.22
0.76
1.25
0.48
-0.01
-1.39
-0.07
-0.45
0.05
-0.66
-0.24
0.05

>  <PUBCHEM_SHAPE_SELFOVERLAP>  (1) 
796.651

>  <PUBCHEM_SHAPE_VOLUME>  (1) 
193.7

>  <PUBCHEM_COORDINATE_TYPE>  (1) 
2
5
10

$$$$
