38481
     RDKit          3D

 26 27  0  0  0  0  0  0  0  0999 V2000
    2.6366   -2.6233    0.7592 S   0  0  0  0  0  0  0  0  0  0  0  0
    2.3416   -4.2355   -0.4826 S   0  0  0  0  0  0  0  0  0  0  0  0
    3.2385    0.6783    0.3652 N   0  0  0  0  0  0  0  0  0  0  0  0
   -0.7656   -2.3049   -0.3974 N   0  0  0  0  0  0  0  0  0  0  0  0
    5.1670   -0.3843    1.3332 N   0  0  0  0  0  0  0  0  0  0  0  0
   -0.6298   -4.5945    0.3270 N   0  0  0  0  0  0  0  0  0  0  0  0
    1.2790    1.7527   -0.6050 C   0  0  0  0  0  0  0  0  0  0  0  0
   -2.2977   -0.6042    0.4034 C   0  0  0  0  0  0  0  0  0  0  0  0
    2.1095    2.8769   -1.2400 C   0  0  0  0  0  0  0  0  0  0  0  0
    0.7457    2.0781    0.8002 C   0  0  0  0  0  0  0  0  0  0  0  0
   -3.2880   -0.2289    1.5166 C   0  0  0  0  0  0  0  0  0  0  0  0
   -2.7784   -0.3493   -1.0329 C   0  0  0  0  0  0  0  0  0  0  0  0
    1.4170    4.2363   -1.3340 C   0  0  0  0  0  0  0  0  0  0  0  0
   -0.3751    3.1146    0.7884 C   0  0  0  0  0  0  0  0  0  0  0  0
   -4.7559   -0.5325    1.2221 C   0  0  0  0  0  0  0  0  0  0  0  0
   -3.5613    0.9461   -1.2334 C   0  0  0  0  0  0  0  0  0  0  0  0
    1.3104    4.9386    0.0152 C   0  0  0  0  0  0  0  0  0  0  0  0
    0.0832    4.5680    0.8411 C   0  0  0  0  0  0  0  0  0  0  0  0
   -5.4565    0.6059    0.4821 C   0  0  0  0  0  0  0  0  0  0  0  0
   -5.0581    0.7747   -0.9800 C   0  0  0  0  0  0  0  0  0  0  0  0
    2.1240    0.4738   -0.5508 C   0  0  0  0  0  0  0  0  0  0  0  0
   -1.8550   -2.0664    0.5393 C   0  0  0  0  0  0  0  0  0  0  0  0
    4.0451   -0.3187    0.5372 C   0  0  0  0  0  0  0  0  0  0  0  0
   -0.2672   -3.4990   -0.4246 C   0  0  0  0  0  0  0  0  0  0  0  0
    3.7208   -1.5793   -0.2443 C   0  0  0  0  0  0  0  0  0  0  0  0
    0.8701   -3.7235   -1.4051 C   0  0  0  0  0  0  0  0  0  0  0  0
  1  2  1  0
  1 25  1  0
  2 26  1  0
  3 21  1  0
  3 23  2  0
  4 22  1  0
  4 24  2  0
  5 23  1  0
  6 24  1  0
  7  9  1  0
  7 10  1  0
  7 21  1  0
  8 11  1  0
  8 12  1  0
  8 22  1  0
  9 13  1  0
 10 14  1  0
 11 15  1  0
 12 16  1  0
 13 17  1  0
 14 18  1  0
 15 19  1  0
 16 20  1  0
 17 18  1  0
 19 20  1  0
 23 25  1  0
 24 26  1  0
M  END
>  <PUBCHEM_COMPOUND_CID>  (1) 
38481

>  <PUBCHEM_CONFORMER_RMSD>  (1) 
1.4

>  <PUBCHEM_CONFORMER_DIVERSEORDER>  (1) 
1
18
59
88
21
36
33
20
63
55
19
69
10
49
56
50
42
71
93
83
66
91
17
4
74
101
6
27
16
67
43
98
77
5
104
23
37
45
109
87
24
62
14
106
89
107
38
92
102
40
48
100
26
8
97
72
9
3
103
34
31
61
51
64
60
54
13
32
86
30
99
29
105
22
7
108
76
2
47
90
11
52
95
57
39
65
79
25
81
75
15
85
96
84
28
94
58
35
78
68
12
44
53
70
41
80
82
46
73

>  <PUBCHEM_MMFF94_PARTIAL_CHARGES>  (1) 
16
1 -0.23
2 -0.23
21 0.25
22 0.25
23 0.44
24 0.44
25 0.29
26 0.29
3 -0.7
4 -0.7
5 -0.85
6 -0.85
61 0.4
62 0.4
63 0.4
64 0.4

>  <PUBCHEM_EFFECTIVE_ROTOR_COUNT>  (1) 
11.8

>  <PUBCHEM_PHARMACOPHORE_FEATURES>  (1) 
7
1 5 donor
1 6 donor
3 3 5 23 cation
3 4 6 24 cation
4 1 2 25 26 hydrophobe
7 7 9 10 13 14 17 18 rings
7 8 11 12 15 16 19 20 rings

>  <PUBCHEM_HEAVY_ATOM_COUNT>  (1) 
26

>  <PUBCHEM_ATOM_DEF_STEREO_COUNT>  (1) 
0

>  <PUBCHEM_ATOM_UDEF_STEREO_COUNT>  (1) 
0

>  <PUBCHEM_BOND_DEF_STEREO_COUNT>  (1) 
0

>  <PUBCHEM_BOND_UDEF_STEREO_COUNT>  (1) 
0

>  <PUBCHEM_ISOTOPIC_ATOM_COUNT>  (1) 
0

>  <PUBCHEM_COMPONENT_COUNT>  (1) 
1

>  <PUBCHEM_CACTVS_TAUTO_COUNT>  (1) 
3

>  <PUBCHEM_CONFORMER_ID>  (1) 
0000965100000001

>  <PUBCHEM_MMFF94_ENERGY>  (1) 
56.1663

>  <PUBCHEM_FEATURE_SELFOVERLAP>  (1) 
35.52

>  <PUBCHEM_SHAPE_FINGERPRINT>  (1) 
1100329 8 18194970871053584832
12422481 6 17625274004904137537
12553582 1 18339935856736475964
12788726 201 18194679268285118408
13004483 165 18262504923967826416
14466204 15 18337950087281877833
14725015 67 17977095765234854330
150020 26 18261681453871959593
15003188 8 18341035377102204762
151778 21 18264782132507405769
15322535 138 17619343651026260233
18785283 64 18336280010902499627
19930381 70 18411141316541499587
20600515 1 18201727301255052408
22113638 7 18412257372024512526
23558518 356 17544471955955888054
3027735 51 18125158229976031472
5171179 24 17697029237613727462
5252454 2 17904217166923659389
6004065 56 18340468033391393301
653340 110 17908128894556440658

>  <PUBCHEM_SHAPE_MULTIPOLES>  (1) 
522.84
8.81
7.45
1.36
6.66
4.12
0.07
-3.37
-1.58
-4.76
1.07
0.39
0.22
0.27

>  <PUBCHEM_SHAPE_SELFOVERLAP>  (1) 
1000.754

>  <PUBCHEM_SHAPE_VOLUME>  (1) 
318.2

>  <PUBCHEM_COORDINATE_TYPE>  (1) 
2
5
10

$$$$
