38497
     RDKit          3D

 16 18  0  0  0  0  0  0  0  0999 V2000
    0.0923    1.4489    0.0001 N   0  0  0  0  0  0  0  0  0  0  0  0
   -3.0725   -2.2513    0.0006 N   0  0  0  0  0  0  0  0  0  0  0  0
    4.8485    0.7747    0.0004 N   0  0  0  0  0  0  0  0  0  0  0  0
   -1.4409   -0.4053   -0.0001 C   0  0  0  0  0  0  0  0  0  0  0  0
    0.9567   -0.7965   -0.0002 C   0  0  0  0  0  0  0  0  0  0  0  0
    1.1359    0.5972   -0.0001 C   0  0  0  0  0  0  0  0  0  0  0  0
   -1.1679    0.9729   -0.0001 C   0  0  0  0  0  0  0  0  0  0  0  0
   -0.3537   -1.2851   -0.0002 C   0  0  0  0  0  0  0  0  0  0  0  0
   -2.7681   -0.8688   -0.0001 C   0  0  0  0  0  0  0  0  0  0  0  0
    2.0679   -1.6575   -0.0002 C   0  0  0  0  0  0  0  0  0  0  0  0
    2.4382    1.0898    0.0000 C   0  0  0  0  0  0  0  0  0  0  0  0
   -2.2461    1.8538    0.0000 C   0  0  0  0  0  0  0  0  0  0  0  0
    3.5447    0.2370    0.0000 C   0  0  0  0  0  0  0  0  0  0  0  0
   -3.8283    0.0328    0.0000 C   0  0  0  0  0  0  0  0  0  0  0  0
    3.3597   -1.1396   -0.0001 C   0  0  0  0  0  0  0  0  0  0  0  0
   -3.5664    1.3969    0.0000 C   0  0  0  0  0  0  0  0  0  0  0  0
  1  6  2  0
  1  7  1  0
  2  9  1  0
  3 13  1  0
  4  7  2  0
  4  8  1  0
  4  9  1  0
  5  6  1  0
  5  8  2  0
  5 10  1  0
  6 11  1  0
  7 12  1  0
  9 14  2  0
 10 15  2  0
 11 13  2  0
 12 16  2  0
 13 15  1  0
 14 16  1  0
M  END
>  <PUBCHEM_COMPOUND_CID>  (1) 
38497

>  <PUBCHEM_CONFORMER_RMSD>  (1) 
0.4

>  <PUBCHEM_CONFORMER_DIVERSEORDER>  (1) 
1

>  <PUBCHEM_MMFF94_PARTIAL_CHARGES>  (1) 
25
1 -0.62
10 -0.15
11 -0.15
12 -0.15
13 0.1
14 -0.15
15 -0.15
16 -0.15
17 0.15
18 0.15
19 0.15
2 -0.9
20 0.15
21 0.15
22 0.15
23 0.15
24 0.4
25 0.4
26 0.4
27 0.4
3 -0.9
6 0.31
7 0.31
8 -0.15
9 0.1

>  <PUBCHEM_EFFECTIVE_ROTOR_COUNT>  (1) 
0

>  <PUBCHEM_PHARMACOPHORE_FEATURES>  (1) 
8
1 1 acceptor
1 2 cation
1 2 donor
1 3 cation
1 3 donor
6 1 4 5 6 7 8 rings
6 4 7 9 12 14 16 rings
6 5 6 10 11 13 15 rings

>  <PUBCHEM_HEAVY_ATOM_COUNT>  (1) 
16

>  <PUBCHEM_ATOM_DEF_STEREO_COUNT>  (1) 
0

>  <PUBCHEM_ATOM_UDEF_STEREO_COUNT>  (1) 
0

>  <PUBCHEM_BOND_DEF_STEREO_COUNT>  (1) 
0

>  <PUBCHEM_BOND_UDEF_STEREO_COUNT>  (1) 
0

>  <PUBCHEM_ISOTOPIC_ATOM_COUNT>  (1) 
0

>  <PUBCHEM_COMPONENT_COUNT>  (1) 
1

>  <PUBCHEM_CACTVS_TAUTO_COUNT>  (1) 
23

>  <PUBCHEM_CONFORMER_ID>  (1) 
0000966100000001

>  <PUBCHEM_MMFF94_ENERGY>  (1) 
73.1437

>  <PUBCHEM_FEATURE_SELFOVERLAP>  (1) 
40.656

>  <PUBCHEM_SHAPE_FINGERPRINT>  (1) 
10062212 137 18409439284872826698
10411042 1 17041481086592376710
10608611 8 18411415085851093336
10616163 171 18411984692967101711
10967382 1 18338797788807235271
11132069 177 18410007723825834416
11471102 20 18411133602468746228
11806522 49 18336825402407259087
13140716 1 18265899051204908315
13214271 11 18341890813800449727
13221675 6 18410855455838508246
13380535 76 18410573959392489207
14144814 61 18410293571042231729
14325111 11 18410575059020051072
15196674 1 18410856525285345446
15219456 202 18341615875785114414
15442244 35 18122343480419986370
15536298 74 18342176627163653502
15775835 57 18410578357481022960
16945 1 18338799047317010055
18186145 218 18041560239397641190
200 152 18060128852218629485
20510252 161 18200032837593035913
20645477 70 18270679753653932750
21267235 1 18410302410116939047
21501502 16 18410009909916617771
221490 88 18409738382522274482
2334 1 18410855468765614627
23402539 116 18337382829132899726
23402655 69 18341888542032067845
23463225 33 18408323259237916972
23557571 272 18201167623375536278
23559900 14 18270116800027802102
2748010 2 18411419488165873343
3312278 4 18413109463386755073
335352 9 18050567343920235966
34934 24 18408878512689039091
3545911 37 18411139121317202612
4214541 1 18410856529712356932
474 4 17241338009275900284
4990 188 18131362882219868292
5104073 3 18410573950876161754
53812653 166 18342734118044973176
57096353 35 18409730702767081502
69090 78 18340483375019816559
7364860 26 18197498429021093702
77779 3 18411139117270070686
8809292 202 18334298686322172139
9709674 26 18412268319748807950

>  <PUBCHEM_SHAPE_MULTIPOLES>  (1) 
314.33
7.47
1.98
0.6
2.74
0.33
0
-0.68
0
-0.84
0
-0.01
0
0

>  <PUBCHEM_SHAPE_SELFOVERLAP>  (1) 
712.569

>  <PUBCHEM_SHAPE_VOLUME>  (1) 
162.6

>  <PUBCHEM_COORDINATE_TYPE>  (1) 
2
5
10

$$$$
