38500
     RDKit          3D

 16 18  0  0  0  0  0  0  0  0999 V2000
   -5.2209    0.9371    0.0001 Cl  0  0  0  0  0  0  0  0  0  0  0  0
   -0.1625    1.3338    0.0000 N   0  0  0  0  0  0  0  0  0  0  0  0
    5.0251   -0.7148   -0.0005 N   0  0  0  0  0  0  0  0  0  0  0  0
    1.3112   -0.5681    0.0000 C   0  0  0  0  0  0  0  0  0  0  0  0
   -1.0976   -0.8830    0.0000 C   0  0  0  0  0  0  0  0  0  0  0  0
    1.0819    0.8182    0.0000 C   0  0  0  0  0  0  0  0  0  0  0  0
   -1.2325    0.5155   -0.0001 C   0  0  0  0  0  0  0  0  0  0  0  0
    0.1967   -1.4129    0.0001 C   0  0  0  0  0  0  0  0  0  0  0  0
    2.6231   -1.0731    0.0002 C   0  0  0  0  0  0  0  0  0  0  0  0
    2.1875    1.6646    0.0000 C   0  0  0  0  0  0  0  0  0  0  0  0
   -2.2355   -1.7086    0.0001 C   0  0  0  0  0  0  0  0  0  0  0  0
    3.7113   -0.2055    0.0002 C   0  0  0  0  0  0  0  0  0  0  0  0
   -2.5186    1.0491   -0.0002 C   0  0  0  0  0  0  0  0  0  0  0  0
    3.4926    1.1661    0.0002 C   0  0  0  0  0  0  0  0  0  0  0  0
   -3.5102   -1.1501    0.0000 C   0  0  0  0  0  0  0  0  0  0  0  0
   -3.6517    0.2317   -0.0001 C   0  0  0  0  0  0  0  0  0  0  0  0
  1 16  1  0
  2  6  2  0
  2  7  1  0
  3 12  1  0
  4  6  1  0
  4  8  2  0
  4  9  1  0
  5  7  2  0
  5  8  1  0
  5 11  1  0
  6 10  1  0
  7 13  1  0
  9 12  2  0
 10 14  2  0
 11 15  2  0
 12 14  1  0
 13 16  2  0
 15 16  1  0
M  END
>  <PUBCHEM_COMPOUND_CID>  (1) 
38500

>  <PUBCHEM_CONFORMER_RMSD>  (1) 
0.4

>  <PUBCHEM_CONFORMER_DIVERSEORDER>  (1) 
1

>  <PUBCHEM_MMFF94_PARTIAL_CHARGES>  (1) 
23
1 -0.18
10 -0.15
11 -0.15
12 0.1
13 -0.15
14 -0.15
15 -0.15
16 0.18
17 0.15
18 0.15
19 0.15
2 -0.62
20 0.15
21 0.15
22 0.15
23 0.15
24 0.4
25 0.4
3 -0.9
6 0.31
7 0.31
8 -0.15
9 -0.15

>  <PUBCHEM_EFFECTIVE_ROTOR_COUNT>  (1) 
0

>  <PUBCHEM_PHARMACOPHORE_FEATURES>  (1) 
6
1 2 acceptor
1 3 cation
1 3 donor
6 2 4 5 6 7 8 rings
6 4 6 9 10 12 14 rings
6 5 7 11 13 15 16 rings

>  <PUBCHEM_HEAVY_ATOM_COUNT>  (1) 
16

>  <PUBCHEM_ATOM_DEF_STEREO_COUNT>  (1) 
0

>  <PUBCHEM_ATOM_UDEF_STEREO_COUNT>  (1) 
0

>  <PUBCHEM_BOND_DEF_STEREO_COUNT>  (1) 
0

>  <PUBCHEM_BOND_UDEF_STEREO_COUNT>  (1) 
0

>  <PUBCHEM_ISOTOPIC_ATOM_COUNT>  (1) 
0

>  <PUBCHEM_COMPONENT_COUNT>  (1) 
1

>  <PUBCHEM_CACTVS_TAUTO_COUNT>  (1) 
1

>  <PUBCHEM_CONFORMER_ID>  (1) 
0000966400000001

>  <PUBCHEM_MMFF94_ENERGY>  (1) 
57.8591

>  <PUBCHEM_FEATURE_SELFOVERLAP>  (1) 
30.507

>  <PUBCHEM_SHAPE_FINGERPRINT>  (1) 
10062212 137 18340479045276505471
10411042 1 15456214133937518952
10608611 8 18411133679604421913
10967382 1 18410575054603634566
11132069 177 18411976983468643680
11401426 45 18342734117744084699
11471102 20 18411697690430336340
12032990 46 18409734001280923730
12251169 10 18410573972271824011
13140716 1 18410291457907766313
13221675 6 18410011035198205259
13288520 33 18412547583428894582
13380535 76 18412546500706979655
13675066 3 18338799017173137419
14115302 16 18113911467517299542
14144814 61 18410574002336608178
14325111 11 18410855503093814913
14911166 2 18411138008851971415
15196674 1 18410574028106398855
15219456 202 18411701027524875755
15442244 35 18267022756610231314
15536298 74 18342175609240586592
16945 1 18338517430495641318
17802600 8 18410569587136802956
17804303 29 18411704304611380860
18186145 218 17822283617351878238
18522853 276 18343018887240409848
200 152 17917988391157676663
20645477 70 18342175544426044647
21267235 1 18410583893709958075
21452121 103 18200864201828346776
21501502 16 18338517567934575367
221490 88 18263651834448329842
23402539 116 18202557376451301333
23402655 69 18341894108024638901
23463225 33 18408885156998171308
23559900 14 18343017822468426008
2748010 2 18338799025731416894
335352 9 18410575054603602518
34934 24 18411130342425291482
3545911 37 18411139121617772503
4214541 1 18410856568699255041
474 4 17169274951891924212
4990 188 18131638876027102820
5104073 3 18410292557440493705
633830 44 17604147124692836752
69090 78 18342453751269960631
7364860 26 18268148665007314286
77779 3 18409731802210084935
8809292 202 18261115213514666939
9709674 26 18412269470863437726
9981440 41 17399233543865299480

>  <PUBCHEM_SHAPE_MULTIPOLES>  (1) 
321.18
8.88
1.73
0.61
1.04
0.05
0
-0.87
0
0.12
0
0.04
0
0

>  <PUBCHEM_SHAPE_SELFOVERLAP>  (1) 
716.755

>  <PUBCHEM_SHAPE_VOLUME>  (1) 
172.2

>  <PUBCHEM_COORDINATE_TYPE>  (1) 
2
5
10

$$$$
