38501
     RDKit          3D

 16 18  0  0  0  0  0  0  0  0999 V2000
    5.0656    1.3780   -0.0002 Cl  0  0  0  0  0  0  0  0  0  0  0  0
   -0.0042    1.1684    0.0003 N   0  0  0  0  0  0  0  0  0  0  0  0
   -4.8060    1.3190   -0.0009 N   0  0  0  0  0  0  0  0  0  0  0  0
   -1.2406   -0.8955    0.0000 C   0  0  0  0  0  0  0  0  0  0  0  0
    1.1885   -0.9211   -0.0001 C   0  0  0  0  0  0  0  0  0  0  0  0
   -1.1783    0.5081    0.0002 C   0  0  0  0  0  0  0  0  0  0  0  0
    1.1557    0.4837    0.0001 C   0  0  0  0  0  0  0  0  0  0  0  0
   -0.0333   -1.6015   -0.0001 C   0  0  0  0  0  0  0  0  0  0  0  0
   -2.4830   -1.5536    0.0001 C   0  0  0  0  0  0  0  0  0  0  0  0
   -2.3770    1.2166    0.0003 C   0  0  0  0  0  0  0  0  0  0  0  0
    2.4168   -1.6049   -0.0002 C   0  0  0  0  0  0  0  0  0  0  0  0
   -3.6134    0.5660    0.0003 C   0  0  0  0  0  0  0  0  0  0  0  0
    2.3690    1.1668    0.0001 C   0  0  0  0  0  0  0  0  0  0  0  0
   -3.6668   -0.8220    0.0002 C   0  0  0  0  0  0  0  0  0  0  0  0
    3.6158   -0.8983   -0.0001 C   0  0  0  0  0  0  0  0  0  0  0  0
    3.5913    0.4904    0.0001 C   0  0  0  0  0  0  0  0  0  0  0  0
  1 16  1  0
  2  6  2  0
  2  7  1  0
  3 12  1  0
  4  6  1  0
  4  8  2  0
  4  9  1  0
  5  7  2  0
  5  8  1  0
  5 11  1  0
  6 10  1  0
  7 13  1  0
  9 14  2  0
 10 12  2  0
 11 15  2  0
 12 14  1  0
 13 16  2  0
 15 16  1  0
M  END
>  <PUBCHEM_COMPOUND_CID>  (1) 
38501

>  <PUBCHEM_CONFORMER_RMSD>  (1) 
0.4

>  <PUBCHEM_CONFORMER_DIVERSEORDER>  (1) 
1

>  <PUBCHEM_MMFF94_PARTIAL_CHARGES>  (1) 
23
1 -0.18
10 -0.15
11 -0.15
12 0.1
13 -0.15
14 -0.15
15 -0.15
16 0.18
17 0.15
18 0.15
19 0.15
2 -0.62
20 0.15
21 0.15
22 0.15
23 0.15
24 0.4
25 0.4
3 -0.9
6 0.31
7 0.31
8 -0.15
9 -0.15

>  <PUBCHEM_EFFECTIVE_ROTOR_COUNT>  (1) 
0

>  <PUBCHEM_PHARMACOPHORE_FEATURES>  (1) 
6
1 2 acceptor
1 3 cation
1 3 donor
6 2 4 5 6 7 8 rings
6 4 6 9 10 12 14 rings
6 5 7 11 13 15 16 rings

>  <PUBCHEM_HEAVY_ATOM_COUNT>  (1) 
16

>  <PUBCHEM_ATOM_DEF_STEREO_COUNT>  (1) 
0

>  <PUBCHEM_ATOM_UDEF_STEREO_COUNT>  (1) 
0

>  <PUBCHEM_BOND_DEF_STEREO_COUNT>  (1) 
0

>  <PUBCHEM_BOND_UDEF_STEREO_COUNT>  (1) 
0

>  <PUBCHEM_ISOTOPIC_ATOM_COUNT>  (1) 
0

>  <PUBCHEM_COMPONENT_COUNT>  (1) 
1

>  <PUBCHEM_CACTVS_TAUTO_COUNT>  (1) 
3

>  <PUBCHEM_CONFORMER_ID>  (1) 
0000966500000001

>  <PUBCHEM_MMFF94_ENERGY>  (1) 
57.9234

>  <PUBCHEM_FEATURE_SELFOVERLAP>  (1) 
30.507

>  <PUBCHEM_SHAPE_FINGERPRINT>  (1) 
10014705 185 18334009484899606557
10411042 1 16969704971789287918
10608611 8 18410571786128435940
10616163 171 18339926038103997646
10967382 1 18338798914078123814
11132069 177 18410008840475029377
11401426 45 18411978078690617732
11471102 20 18411979139779590070
11543360 7 15769765896718151364
13214271 11 18410291453839827551
13380535 76 18410575084679318922
13675066 3 18113344093794912467
14144814 61 18410575076104903402
14325111 11 18410855460133443040
14897335 6 18411417310606989070
15196674 1 18410855460165305926
15219456 202 18411703179298443695
15375358 24 18410292514570155466
15442244 35 18195245507972732106
15536298 74 18341896277463158126
15775835 57 18410858762963300166
16945 1 18194402418513632966
18186145 218 18040713641092829062
200 152 17989200460854058679
20510252 161 18272092681829667697
20645477 70 18271525295127823182
21267235 1 18410583897947000527
21501502 16 18410852165899094086
23402539 116 18271518775520123724
23402655 69 18343862208079045181
23463225 33 18408322172605948798
23557571 272 18130515248137198439
23559900 14 18342175536532305486
2748010 2 18410578387514301543
296302 2 18410857667741358439
3312278 4 18413110584410123139
335352 9 18266458702639335542
34934 24 18410849962570068386
3545911 37 18410858762989810364
474 4 17604435222978902348
4990 188 17988373624062937020
5104073 3 18409167705505814226
53812653 166 18342453768339034120
69090 78 18341608201053167815
7364860 26 18269556048834145638
77779 3 18410857659188496526
9709674 26 18411425028753423518

>  <PUBCHEM_SHAPE_MULTIPOLES>  (1) 
321.18
8.73
1.82
0.61
1.17
0.25
0
-3.12
0
0.05
0
0.04
0.01
0

>  <PUBCHEM_SHAPE_SELFOVERLAP>  (1) 
716.709

>  <PUBCHEM_SHAPE_VOLUME>  (1) 
172.3

>  <PUBCHEM_COORDINATE_TYPE>  (1) 
2
5
10

$$$$
