38504
     RDKit          3D

 13 14  0  0  0  0  0  0  0  0999 V2000
    2.9060   -1.9444   -1.0003 Cl  0  0  0  0  0  0  0  0  0  0  0  0
   -4.3262    0.0997   -0.2349 Cl  0  0  0  0  0  0  0  0  0  0  0  0
    0.5293    1.8521   -0.1484 O   0  0  0  0  0  0  0  0  0  0  0  0
    2.8206    1.6878    0.0658 O   0  0  0  0  0  0  0  0  0  0  0  0
    1.4591   -0.2015    0.2837 N   0  0  0  0  0  0  0  0  0  0  0  0
    0.0953   -0.3818    0.2049 C   0  0  0  0  0  0  0  0  0  0  0  0
   -0.4392    0.8637   -0.0548 C   0  0  0  0  0  0  0  0  0  0  0  0
   -0.6901   -1.5079    0.3373 C   0  0  0  0  0  0  0  0  0  0  0  0
    1.7239    1.1418    0.0717 C   0  0  0  0  0  0  0  0  0  0  0  0
   -1.7975    1.0536   -0.1972 C   0  0  0  0  0  0  0  0  0  0  0  0
    2.4086   -1.2539    0.5437 C   0  0  0  0  0  0  0  0  0  0  0  0
   -2.0702   -1.3396    0.1968 C   0  0  0  0  0  0  0  0  0  0  0  0
   -2.6195   -0.0696   -0.0682 C   0  0  0  0  0  0  0  0  0  0  0  0
  1 11  1  0
  2 13  1  0
  3  7  1  0
  3  9  1  0
  4  9  2  0
  5  6  1  0
  5  9  1  0
  5 11  1  0
  6  7  2  0
  6  8  1  0
  7 10  1  0
  8 12  2  0
 10 13  2  0
 12 13  1  0
M  END
>  <PUBCHEM_COMPOUND_CID>  (1) 
38504

>  <PUBCHEM_CONFORMER_RMSD>  (1) 
0.4

>  <PUBCHEM_CONFORMER_DIVERSEORDER>  (1) 
1
3
2

>  <PUBCHEM_MMFF94_PARTIAL_CHARGES>  (1) 
16
1 -0.29
10 -0.15
11 0.59
12 -0.15
13 0.18
14 0.15
17 0.15
18 0.15
2 -0.18
3 -0.23
4 -0.57
5 -0.48
6 0.12
7 0.08
8 -0.15
9 0.78

>  <PUBCHEM_EFFECTIVE_ROTOR_COUNT>  (1) 
1

>  <PUBCHEM_PHARMACOPHORE_FEATURES>  (1) 
3
1 4 acceptor
5 3 5 6 7 9 rings
6 6 7 8 10 12 13 rings

>  <PUBCHEM_HEAVY_ATOM_COUNT>  (1) 
13

>  <PUBCHEM_ATOM_DEF_STEREO_COUNT>  (1) 
0

>  <PUBCHEM_ATOM_UDEF_STEREO_COUNT>  (1) 
0

>  <PUBCHEM_BOND_DEF_STEREO_COUNT>  (1) 
0

>  <PUBCHEM_BOND_UDEF_STEREO_COUNT>  (1) 
0

>  <PUBCHEM_ISOTOPIC_ATOM_COUNT>  (1) 
0

>  <PUBCHEM_COMPONENT_COUNT>  (1) 
1

>  <PUBCHEM_CACTVS_TAUTO_COUNT>  (1) 
1

>  <PUBCHEM_CONFORMER_ID>  (1) 
0000966800000001

>  <PUBCHEM_MMFF94_ENERGY>  (1) 
32.8881

>  <PUBCHEM_FEATURE_SELFOVERLAP>  (1) 
15.336

>  <PUBCHEM_SHAPE_FINGERPRINT>  (1) 
10465860 71 18196108667798226902
10967382 1 18409164432819712137
11206711 2 18116711799010498317
11471102 20 18408595968603075469
12032990 46 18409453548939173571
12423570 1 13655115147998340460
12524768 44 18409448111062053962
12932764 1 17458617891971158691
13380535 21 18263937685732912451
13380535 76 18264764531425211986
13571099 22 18413388739593346167
14325111 11 18408600383818984105
14911166 2 18335422305485316503
15219456 202 18410016580027390659
15536298 74 18413669114689170459
161256 15 18335137562059404100
16945 1 18263921029881445579
17990270 104 18411419539879781398
18186145 218 18261106345018734037
19591789 44 16612525809963912537
20201158 50 18412262809442774174
20588541 1 18336264664356791857
20645477 70 18411975863025855847
20871998 22 18269553836857111034
20871999 31 18121511158823668030
21501502 16 18338510958080406383
2334 1 18336545005472406619
23402655 69 18339628019804202557
23552423 10 18259986006572488530
23559900 14 18196944486189469092
2748010 2 18335417971678354039
5084963 1 18272645701992591883
528886 8 18336819917987125881
53812653 166 18268705189562852705
63268167 104 18410294739616357729
7364860 26 18343582962686233176

>  <PUBCHEM_SHAPE_MULTIPOLES>  (1) 
254.55
5.53
2.01
0.75
2.87
0.14
0.07
-1.03
0.81
-1.42
0.14
-0.25
-0.21
0.44

>  <PUBCHEM_SHAPE_SELFOVERLAP>  (1) 
534.238

>  <PUBCHEM_SHAPE_VOLUME>  (1) 
148.4

>  <PUBCHEM_COORDINATE_TYPE>  (1) 
2
5
10

$$$$
