38514
     RDKit          3D

 17 17  0  0  1  0  0  0  0  0999 V2000
    3.9601    0.7828    0.3992 F   0  0  0  0  0  0  0  0  0  0  0  0
    3.1417    0.9614   -1.6013 F   0  0  0  0  0  0  0  0  0  0  0  0
    2.2480    2.0743    0.0392 F   0  0  0  0  0  0  0  0  0  0  0  0
   -2.2973    1.3009    1.7627 O   0  0  0  0  0  0  0  0  0  0  0  0
   -2.6048    0.7194   -0.4675 N   0  0  0  0  0  0  0  0  0  0  0  0
   -2.7113   -0.7293   -0.2707 C   0  0  0  0  0  0  0  0  0  0  0  0
   -1.5911   -1.4375   -1.0541 C   0  0  0  0  0  0  0  0  0  0  0  0
   -0.2459   -1.3801   -0.3707 C   0  0  0  0  0  0  0  0  0  0  0  0
   -4.1061   -1.1734   -0.7117 C   0  0  0  0  0  0  0  0  0  0  0  0
    0.6081   -0.3226   -0.6399 C   0  0  0  0  0  0  0  0  0  0  0  0
    0.1095   -2.3860    0.5136 C   0  0  0  0  0  0  0  0  0  0  0  0
    1.8505   -0.2696   -0.0081 C   0  0  0  0  0  0  0  0  0  0  0  0
    1.3521   -2.3330    1.1453 C   0  0  0  0  0  0  0  0  0  0  0  0
    2.2225   -1.2748    0.8844 C   0  0  0  0  0  0  0  0  0  0  0  0
   -2.4077    1.5917    0.5744 C   0  0  0  0  0  0  0  0  0  0  0  0
    2.7818    0.8613   -0.2875 C   0  0  0  0  0  0  0  0  0  0  0  0
   -2.3099    3.0144    0.0926 C   0  0  0  0  0  0  0  0  0  0  0  0
  1 16  1  0
  2 16  1  0
  3 16  1  0
  4 15  2  0
  5  6  1  0
  5 15  1  0
  6  7  1  0
  6  9  1  0
  7  8  1  0
  8 10  2  0
  8 11  1  0
 10 12  1  0
 11 13  2  0
 12 14  2  0
 12 16  1  0
 13 14  1  0
 15 17  1  0
M  END
>  <PUBCHEM_COMPOUND_CID>  (1) 
38514

>  <PUBCHEM_CONFORMER_RMSD>  (1) 
0.6

>  <PUBCHEM_CONFORMER_DIVERSEORDER>  (1) 
1
3
36
25
38
49
11
31
24
26
30
40
51
47
8
32
10
16
50
33
13
48
37
6
20
29
15
22
46
41
43
17
42
4
21
34
19
7
18
2
23
39
44
28
27
5
9
14
12
35
45

>  <PUBCHEM_MMFF94_PARTIAL_CHARGES>  (1) 
21
1 -0.34
10 -0.15
11 -0.15
12 -0.14
13 -0.15
14 -0.15
15 0.57
16 1.16
17 0.06
2 -0.34
24 0.37
25 0.15
26 0.15
27 0.15
28 0.15
3 -0.34
4 -0.57
5 -0.73
6 0.3
7 0.14
8 -0.14

>  <PUBCHEM_EFFECTIVE_ROTOR_COUNT>  (1) 
5

>  <PUBCHEM_PHARMACOPHORE_FEATURES>  (1) 
3
1 4 acceptor
1 5 donor
6 8 10 11 12 13 14 rings

>  <PUBCHEM_HEAVY_ATOM_COUNT>  (1) 
17

>  <PUBCHEM_ATOM_DEF_STEREO_COUNT>  (1) 
0

>  <PUBCHEM_ATOM_UDEF_STEREO_COUNT>  (1) 
1

>  <PUBCHEM_BOND_DEF_STEREO_COUNT>  (1) 
0

>  <PUBCHEM_BOND_UDEF_STEREO_COUNT>  (1) 
0

>  <PUBCHEM_ISOTOPIC_ATOM_COUNT>  (1) 
0

>  <PUBCHEM_COMPONENT_COUNT>  (1) 
1

>  <PUBCHEM_CACTVS_TAUTO_COUNT>  (1) 
2

>  <PUBCHEM_CONFORMER_ID>  (1) 
0000967200000001

>  <PUBCHEM_MMFF94_ENERGY>  (1) 
28.0192

>  <PUBCHEM_FEATURE_SELFOVERLAP>  (1) 
15.223

>  <PUBCHEM_SHAPE_FINGERPRINT>  (1) 
10498660 4 18342174458194866549
11471102 22 16877936118655021374
12403259 327 14201663308226399941
12491281 212 18335709351055566058
13693222 7 18128815253100292081
13764800 53 18043255849320300682
14787075 74 17901669590103177231
15442244 35 18194111924306333690
15775835 57 18339929225085424937
16945 1 18270685392972268470
17357990 137 18127975195888389835
18981168 100 17559965303241621255
192875 21 18052509124858449709
201361 129 18262519191363854034
20510252 161 17612035171730139650
20539926 19 18340208492401303744
20559304 39 18339912753759335186
20715895 44 17688009935436493925
21524375 3 18408322220030236006
21665062 11 17472987198859762313
22094290 62 18050847723680357226
228727 97 18341609365005239735
23402539 116 18129089203057196455
23419403 2 16030664913722595910
23557571 272 17131254887432461067
2748010 2 16609693463620686519
305870 269 18334575694448277842
312423 11 18411142390072619207
353137 74 18341608261066463945
4175511 71 17688312278709573602
526903 126 18052534662296323641
6992083 37 17691957172951770003
7097593 13 17902222317823353419
7832392 63 17979348668807102731

>  <PUBCHEM_SHAPE_MULTIPOLES>  (1) 
317.18
6.09
2.93
1.18
0.44
0.9
-0.12
1.96
0.49
0.76
-0.5
-0.02
-0.01
-1.5

>  <PUBCHEM_SHAPE_SELFOVERLAP>  (1) 
650.762

>  <PUBCHEM_SHAPE_VOLUME>  (1) 
184.1

>  <PUBCHEM_COORDINATE_TYPE>  (1) 
2
5
10

$$$$
