38522
     RDKit          3D

 26 28  0  0  0  0  0  0  0  0999 V2000
   -0.8810   -0.9200   -0.8629 O   0  0  0  0  0  0  0  0  0  0  0  0
    0.8030    3.2419    0.7354 O   0  0  0  0  0  0  0  0  0  0  0  0
   -1.3187   -3.0687   -0.4996 O   0  0  0  0  0  0  0  0  0  0  0  0
   -1.2227   -1.6532    1.3131 O   0  0  0  0  0  0  0  0  0  0  0  0
    0.4498    0.9656   -0.0402 C   0  0  0  0  0  0  0  0  0  0  0  0
    1.8140    0.4409   -0.0260 C   0  0  0  0  0  0  0  0  0  0  0  0
   -0.6919    0.3472   -0.4007 C   0  0  0  0  0  0  0  0  0  0  0  0
   -1.8321    1.2355   -0.2775 C   0  0  0  0  0  0  0  0  0  0  0  0
   -1.3778    2.4676    0.1737 C   0  0  0  0  0  0  0  0  0  0  0  0
    2.6369    0.5595   -1.1567 C   0  0  0  0  0  0  0  0  0  0  0  0
    2.3248   -0.1904    1.1186 C   0  0  0  0  0  0  0  0  0  0  0  0
    0.0679    2.3590    0.3433 C   0  0  0  0  0  0  0  0  0  0  0  0
    4.4338   -0.5660    0.0013 C   0  0  0  0  0  0  0  0  0  0  0  0
    3.9389    0.0590   -1.1432 C   0  0  0  0  0  0  0  0  0  0  0  0
    3.6267   -0.6907    1.1322 C   0  0  0  0  0  0  0  0  0  0  0  0
   -3.1797    1.0438   -0.5273 C   0  0  0  0  0  0  0  0  0  0  0  0
   -2.2119    3.5455    0.3969 C   0  0  0  0  0  0  0  0  0  0  0  0
    2.1434    1.2230   -2.4028 C   0  0  0  0  0  0  0  0  0  0  0  0
    1.4910   -0.3443    2.3506 C   0  0  0  0  0  0  0  0  0  0  0  0
   -4.0519    2.1170   -0.3111 C   0  0  0  0  0  0  0  0  0  0  0  0
   -3.5714    3.3575    0.1472 C   0  0  0  0  0  0  0  0  0  0  0  0
    5.8256   -1.1015    0.0159 C   0  0  0  0  0  0  0  0  0  0  0  0
   -1.1462   -1.8598    0.1086 C   0  0  0  0  0  0  0  0  0  0  0  0
   -2.2143   -3.9715    0.1578 C   0  0  0  0  0  0  0  0  0  0  0  0
   -3.5841   -3.3206    0.2758 C   0  0  0  0  0  0  0  0  0  0  0  0
   -2.2723   -5.2762   -0.6220 C   0  0  0  0  0  0  0  0  0  0  0  0
  1  7  1  0
  1 23  1  0
  2 12  2  0
  3 23  1  0
  3 24  1  0
  4 23  2  0
  5  6  1  0
  5  7  2  0
  5 12  1  0
  6 10  2  0
  6 11  1  0
  7  8  1  0
  8  9  2  0
  8 16  1  0
  9 12  1  0
  9 17  1  0
 10 14  1  0
 10 18  1  0
 11 15  2  0
 11 19  1  0
 13 14  2  0
 13 15  1  0
 13 22  1  0
 16 20  2  0
 17 21  2  0
 20 21  1  0
 24 25  1  0
 24 26  1  0
M  END
>  <PUBCHEM_COMPOUND_CID>  (1) 
38522

>  <PUBCHEM_CONFORMER_RMSD>  (1) 
0.8

>  <PUBCHEM_CONFORMER_DIVERSEORDER>  (1) 
1
5
9
11
8
6
3
10
7
4
2

>  <PUBCHEM_MMFF94_PARTIAL_CHARGES>  (1) 
30
1 -0.23
10 -0.14
11 -0.14
12 0.47
13 -0.14
14 -0.15
15 -0.15
16 -0.15
17 -0.15
18 0.14
19 0.14
2 -0.57
20 -0.15
21 -0.15
22 0.14
23 0.87
24 0.28
27 0.15
28 0.15
29 0.15
3 -0.43
30 0.15
37 0.15
38 0.15
4 -0.57
5 -0.01
6 0.03
7 0.05
8 0.03
9 0.09

>  <PUBCHEM_EFFECTIVE_ROTOR_COUNT>  (1) 
5

>  <PUBCHEM_PHARMACOPHORE_FEATURES>  (1) 
5
1 2 acceptor
3 24 25 26 hydrophobe
5 5 7 8 9 12 rings
6 6 10 11 13 14 15 rings
6 8 9 16 17 20 21 rings

>  <PUBCHEM_HEAVY_ATOM_COUNT>  (1) 
26

>  <PUBCHEM_ATOM_DEF_STEREO_COUNT>  (1) 
0

>  <PUBCHEM_ATOM_UDEF_STEREO_COUNT>  (1) 
0

>  <PUBCHEM_BOND_DEF_STEREO_COUNT>  (1) 
0

>  <PUBCHEM_BOND_UDEF_STEREO_COUNT>  (1) 
0

>  <PUBCHEM_ISOTOPIC_ATOM_COUNT>  (1) 
0

>  <PUBCHEM_COMPONENT_COUNT>  (1) 
1

>  <PUBCHEM_CACTVS_TAUTO_COUNT>  (1) 
1

>  <PUBCHEM_CONFORMER_ID>  (1) 
0000967A00000001

>  <PUBCHEM_MMFF94_ENERGY>  (1) 
85.7222

>  <PUBCHEM_FEATURE_SELFOVERLAP>  (1) 
25.456

>  <PUBCHEM_SHAPE_FINGERPRINT>  (1) 
10411042 1 18050848011438612351
1100329 8 18411133658630745417
11578080 2 17916024744757906720
121448 382 18200315390421986077
12236239 1 17970071045948763140
12553582 1 18049446134113113482
12788726 201 18190476023889166191
13052359 8 18409730630084907471
13140716 1 18269555108109382545
138480 1 16681755460132247247
14790565 3 18267588996372360784
14844126 61 18409442596751821106
14863182 85 18050006597760109025
14866123 147 18410853240021187587
15042514 8 18410296930081443815
15664445 248 17330560255032701797
15927050 60 18196933266801280311
16752209 62 18408594873217752771
18681886 176 18261391092297106008
20600515 1 18343019952603984284
20905425 154 17981044429264776604
21033648 29 18123169235502621784
21033650 10 17343806797937454004
21421861 104 17902221553197368353
21781051 124 18044969820913504467
22033318 11 17474995315980275691
22849339 104 18269014028272143798
23184049 29 18194392518777468041
23366157 5 17183070141853886489
23402539 116 18129089023085619580
23419403 2 17416960801950208744
23557571 272 18270676584468663032
23559900 14 18343017749823214492
23598288 3 18189070796689526058
23728640 28 18409731725006435146
266924 1 17970080030946058892
3091708 16 9272901187870310019
4017518 198 18123471575446287462
43471831 8 17907855102854280985
5385378 56 17691692186634375753
6443956 14 17328301862655246357
70251023 43 18047193234856314170
7164475 11 18263088884584430110
9981440 41 18121225268657792721

>  <PUBCHEM_SHAPE_MULTIPOLES>  (1) 
511.59
7.94
5.53
1.42
7.78
6.83
-0.01
0.15
0.52
-9.27
0.2
1.25
-0.13
-0.68

>  <PUBCHEM_SHAPE_SELFOVERLAP>  (1) 
1115.59

>  <PUBCHEM_SHAPE_VOLUME>  (1) 
282.3

>  <PUBCHEM_COORDINATE_TYPE>  (1) 
2
5
10

$$$$
