38525
     RDKit          3D

 18 20  0  0  0  0  0  0  0  0999 V2000
   -2.6792   -2.4336    0.0001 Cl  0  0  0  0  0  0  0  0  0  0  0  0
    1.9945   -3.2798   -0.0007 Cl  0  0  0  0  0  0  0  0  0  0  0  0
    3.1223    2.8653    0.0006 Cl  0  0  0  0  0  0  0  0  0  0  0  0
   -5.1039   -0.3243    0.0007 Cl  0  0  0  0  0  0  0  0  0  0  0  0
   -0.0668   -1.1769    0.0000 O   0  0  0  0  0  0  0  0  0  0  0  0
    0.4475    1.6302   -0.0004 O   0  0  0  0  0  0  0  0  0  0  0  0
   -1.0778   -0.2496   -0.0001 C   0  0  0  0  0  0  0  0  0  0  0  0
   -0.8266    1.1215   -0.0003 C   0  0  0  0  0  0  0  0  0  0  0  0
    1.2074   -0.6684    0.0001 C   0  0  0  0  0  0  0  0  0  0  0  0
    1.4587    0.7029   -0.0002 C   0  0  0  0  0  0  0  0  0  0  0  0
   -2.3897   -0.7224    0.0000 C   0  0  0  0  0  0  0  0  0  0  0  0
   -1.8855    2.0286   -0.0002 C   0  0  0  0  0  0  0  0  0  0  0  0
    2.2665   -1.5755    0.0004 C   0  0  0  0  0  0  0  0  0  0  0  0
    2.7705    1.1756   -0.0003 C   0  0  0  0  0  0  0  0  0  0  0  0
   -3.4502    0.1840   -0.0001 C   0  0  0  0  0  0  0  0  0  0  0  0
   -3.1986    1.5571   -0.0001 C   0  0  0  0  0  0  0  0  0  0  0  0
    3.5796   -1.1040    0.0005 C   0  0  0  0  0  0  0  0  0  0  0  0
    3.8312    0.2692    0.0001 C   0  0  0  0  0  0  0  0  0  0  0  0
  1 11  1  0
  2 13  1  0
  3 14  1  0
  4 15  1  0
  5  7  1  0
  5  9  1  0
  6  8  1  0
  6 10  1  0
  7  8  2  0
  7 11  1  0
  8 12  1  0
  9 10  2  0
  9 13  1  0
 10 14  1  0
 11 15  2  0
 12 16  2  0
 13 17  2  0
 14 18  2  0
 15 16  1  0
 17 18  1  0
M  END
>  <PUBCHEM_COMPOUND_CID>  (1) 
38525

>  <PUBCHEM_CONFORMER_RMSD>  (1) 
0.6

>  <PUBCHEM_CONFORMER_DIVERSEORDER>  (1) 
1

>  <PUBCHEM_MMFF94_PARTIAL_CHARGES>  (1) 
22
1 -0.18
10 0.08
11 0.18
12 -0.15
13 0.18
14 0.18
15 0.18
16 -0.15
17 -0.15
18 -0.15
19 0.15
2 -0.18
20 0.15
21 0.15
22 0.15
3 -0.18
4 -0.18
5 -0.17
6 -0.17
7 0.08
8 0.08
9 0.08

>  <PUBCHEM_EFFECTIVE_ROTOR_COUNT>  (1) 
0.4

>  <PUBCHEM_PHARMACOPHORE_FEATURES>  (1) 
5
1 5 acceptor
1 6 acceptor
6 5 6 7 8 9 10 rings
6 7 8 11 12 15 16 rings
6 9 10 13 14 17 18 rings

>  <PUBCHEM_HEAVY_ATOM_COUNT>  (1) 
18

>  <PUBCHEM_ATOM_DEF_STEREO_COUNT>  (1) 
0

>  <PUBCHEM_ATOM_UDEF_STEREO_COUNT>  (1) 
0

>  <PUBCHEM_BOND_DEF_STEREO_COUNT>  (1) 
0

>  <PUBCHEM_BOND_UDEF_STEREO_COUNT>  (1) 
0

>  <PUBCHEM_ISOTOPIC_ATOM_COUNT>  (1) 
0

>  <PUBCHEM_COMPONENT_COUNT>  (1) 
1

>  <PUBCHEM_CACTVS_TAUTO_COUNT>  (1) 
1

>  <PUBCHEM_CONFORMER_ID>  (1) 
0000967D00000001

>  <PUBCHEM_MMFF94_ENERGY>  (1) 
49.9473

>  <PUBCHEM_FEATURE_SELFOVERLAP>  (1) 
25.449

>  <PUBCHEM_SHAPE_FINGERPRINT>  (1) 
10411042 1 17906171754779265970
10608611 8 18409445873373803124
10616163 171 18411983593502959663
10967382 1 18410855455843795974
11132069 177 18410287042713157824
11471102 20 18410290307141386844
12251169 10 18411699863599327011
12403259 226 18263076613541566620
12553582 1 17978511932084935790
13140716 1 18338793537027099850
138480 1 18122343476399572354
14144814 61 18338797805997621619
14178342 30 18339347570855073282
14223421 5 18409730668322894548
14790565 3 17760940936305880941
14866123 147 16468400713419779378
15196674 1 18410855460128161793
15375462 6 18410294709219147173
15442244 35 18123470475437845002
15536298 74 18342175570396041764
16945 1 18338517439323050180
17492 89 18339360739209867971
17834074 16 18410576175758994851
19591789 44 15669022388135635197
200 152 18202557372224990045
20510252 161 18126571351557605408
20559304 39 18338516344343675634
20645477 70 18410008827769755007
21267235 1 18411145714076398559
21501502 16 18411136935110173200
221490 88 18409456911851074130
2255824 54 18408325488811324732
2334 1 18194682794221159554
23366157 5 18113620071540518730
23463225 33 18410293566900329604
23559900 14 18339918230058642594
2748010 2 18193001641053170282
2871803 45 18408601457165260255
335352 9 17906452130127310845
33824 294 18409728469574199058
34934 24 18339919432871018511
350125 39 18338236072121708392
474 4 17677056862018256468
5104073 3 18338517443612789169
58051976 378 18413387652855883158
69090 78 18411979148680897335
7364860 26 18412544289020010924
7832392 63 18267866077812908840
8809292 202 18333735740526607043
9709674 26 18411422773964086935

>  <PUBCHEM_SHAPE_MULTIPOLES>  (1) 
366.17
7.84
3.12
0.62
4.1
0.86
0
-0.29
0
-1.81
0
0.01
0.01
0

>  <PUBCHEM_SHAPE_SELFOVERLAP>  (1) 
781.715

>  <PUBCHEM_SHAPE_VOLUME>  (1) 
206

>  <PUBCHEM_COORDINATE_TYPE>  (1) 
2
5
10

$$$$
