38528
     RDKit          3D

 20 20  0  0  0  0  0  0  0  0999 V2000
    0.2460   -3.1235   -1.0962 I   0  0  0  0  0  0  0  0  0  0  0  0
   -3.2305    1.7987   -0.1969 I   0  0  0  0  0  0  0  0  0  0  0  0
    2.8516    2.2802    0.0263 I   0  0  0  0  0  0  0  0  0  0  0  0
   -0.3535    3.3724    1.4561 O   0  0  0  0  0  0  0  0  0  0  0  0
   -2.4562   -1.6884    1.6006 O   0  0  0  0  0  0  0  0  0  0  0  0
   -0.3205    4.0028   -0.7275 O   0  0  0  0  0  0  0  0  0  0  0  0
    2.9335   -1.5389    1.6120 O   0  0  0  0  0  0  0  0  0  0  0  0
    2.4871   -0.8593   -0.5990 N   0  0  0  0  0  0  0  0  0  0  0  0
   -4.0447   -2.7024    0.2850 N   0  0  0  0  0  0  0  0  0  0  0  0
   -1.1882   -0.4551   -0.6008 C   0  0  0  0  0  0  0  0  0  0  0  0
    1.2187   -0.2671   -0.5112 C   0  0  0  0  0  0  0  0  0  0  0  0
    0.0734   -1.0432   -0.6892 C   0  0  0  0  0  0  0  0  0  0  0  0
   -2.4202   -1.2900   -0.7927 C   0  0  0  0  0  0  0  0  0  0  0  0
   -1.3047    0.9091   -0.3340 C   0  0  0  0  0  0  0  0  0  0  0  0
   -0.1595    1.6852   -0.1557 C   0  0  0  0  0  0  0  0  0  0  0  0
    1.1022    1.0971   -0.2444 C   0  0  0  0  0  0  0  0  0  0  0  0
   -2.9462   -1.8956    0.4940 C   0  0  0  0  0  0  0  0  0  0  0  0
   -0.2825    3.1166    0.1246 C   0  0  0  0  0  0  0  0  0  0  0  0
    3.2380   -1.4350    0.4283 C   0  0  0  0  0  0  0  0  0  0  0  0
    4.5561   -1.9637   -0.0793 C   0  0  0  0  0  0  0  0  0  0  0  0
  1 12  1  0
  2 14  1  0
  3 16  1  0
  4 18  1  0
  5 17  2  0
  6 18  2  0
  7 19  2  0
  8 11  1  0
  8 19  1  0
  9 17  1  0
 10 12  2  0
 10 13  1  0
 10 14  1  0
 11 12  1  0
 11 16  2  0
 13 17  1  0
 14 15  2  0
 15 16  1  0
 15 18  1  0
 19 20  1  0
M  END
>  <PUBCHEM_COMPOUND_CID>  (1) 
38528

>  <PUBCHEM_CONFORMER_RMSD>  (1) 
0.8

>  <PUBCHEM_CONFORMER_DIVERSEORDER>  (1) 
1
5
4
3
6
2

>  <PUBCHEM_MMFF94_PARTIAL_CHARGES>  (1) 
24
1 -0.08
10 -0.14
11 0.12
12 0.08
13 0.2
14 0.08
15 0.09
16 0.08
17 0.57
18 0.63
19 0.57
2 -0.08
20 0.06
23 0.37
27 0.37
28 0.37
29 0.5
3 -0.08
4 -0.65
5 -0.57
6 -0.57
7 -0.57
8 -0.55
9 -0.8

>  <PUBCHEM_EFFECTIVE_ROTOR_COUNT>  (1) 
5

>  <PUBCHEM_PHARMACOPHORE_FEATURES>  (1) 
11
1 1 hydrophobe
1 2 hydrophobe
1 3 hydrophobe
1 4 acceptor
1 5 acceptor
1 6 acceptor
1 7 acceptor
1 8 donor
1 9 donor
3 4 6 18 anion
6 10 11 12 14 15 16 rings

>  <PUBCHEM_HEAVY_ATOM_COUNT>  (1) 
20

>  <PUBCHEM_ATOM_DEF_STEREO_COUNT>  (1) 
0

>  <PUBCHEM_ATOM_UDEF_STEREO_COUNT>  (1) 
0

>  <PUBCHEM_BOND_DEF_STEREO_COUNT>  (1) 
0

>  <PUBCHEM_BOND_UDEF_STEREO_COUNT>  (1) 
0

>  <PUBCHEM_ISOTOPIC_ATOM_COUNT>  (1) 
0

>  <PUBCHEM_COMPONENT_COUNT>  (1) 
1

>  <PUBCHEM_CACTVS_TAUTO_COUNT>  (1) 
4

>  <PUBCHEM_CONFORMER_ID>  (1) 
0000968000000001

>  <PUBCHEM_MMFF94_ENERGY>  (1) 
93.8543

>  <PUBCHEM_FEATURE_SELFOVERLAP>  (1) 
55.879

>  <PUBCHEM_SHAPE_FINGERPRINT>  (1) 
10366900 7 17914318096668951890
10411042 1 18410856585436714430
10906281 52 18197508319935124765
10967382 1 18051973919945231284
1100329 8 18338798897215142601
11680986 33 18411129247266913180
12507560 14 18342180024214324543
12553582 1 18265609883978498644
12633257 1 18339378391778052043
12788726 201 18118961399611186363
13140716 1 18413390912498865689
14790565 3 17833565865453733725
15042514 8 18338238137652766319
16945 1 18196657280654824869
19591789 44 18268438000026812900
20510252 161 17838891534447354464
20739085 24 18268169680323829105
20905425 154 18340491165811397676
21041028 32 18412267254570037907
21524375 3 16974752266471691316
23184049 29 18410007707062748588
2334 1 18341048622253500109
23402539 116 18053086346793095029
23419403 2 17971725986931157359
23558518 356 18261679259539128405
23559900 14 18340198575949525854
2748010 2 18341328967659138765
3071541 236 17976248037400245308
3091708 16 9208146549594448436
31174 14 18120094141754696839
352729 6 18268991994567305188
58807428 26 17041754293054546082
81228 2 18124881157383029637
8809292 202 18335983047635325207
9709674 26 17982168924880785646

>  <PUBCHEM_SHAPE_MULTIPOLES>  (1) 
413.96
6.06
4.88
1.14
2.36
2.13
0.29
-3.4
1.26
-1.09
-0.06
-0.05
-0.34
0.35

>  <PUBCHEM_SHAPE_SELFOVERLAP>  (1) 
802.86

>  <PUBCHEM_SHAPE_VOLUME>  (1) 
259.2

>  <PUBCHEM_COORDINATE_TYPE>  (1) 
2
5
10

$$$$
