38531
     RDKit          3D

 18 20  0  0  1  0  0  0  0  0999 V2000
    3.3935   -2.2031    0.7589 F   0  0  0  0  0  0  0  0  0  0  0  0
    3.9476    2.4138   -0.1669 F   0  0  0  0  0  0  0  0  0  0  0  0
   -3.3076    0.6367    0.7455 N   0  0  0  0  0  0  0  0  0  0  0  0
    0.4984   -1.8150    0.1210 N   0  0  0  0  0  0  0  0  0  0  0  0
   -2.9317    0.4664   -0.6610 C   0  0  0  0  0  0  0  0  0  0  0  0
   -1.5200    1.0528   -0.9112 C   0  0  0  0  0  0  0  0  0  0  0  0
   -3.0061   -1.0287   -1.0569 C   0  0  0  0  0  0  0  0  0  0  0  0
   -0.4421    0.1129   -0.4816 C   0  0  0  0  0  0  0  0  0  0  0  0
   -1.9916   -1.9166   -0.3082 C   0  0  0  0  0  0  0  0  0  0  0  0
   -0.6791   -1.2236   -0.2357 C   0  0  0  0  0  0  0  0  0  0  0  0
    0.9467    0.3438   -0.2704 C   0  0  0  0  0  0  0  0  0  0  0  0
    1.5112   -0.8796    0.1070 C   0  0  0  0  0  0  0  0  0  0  0  0
   -4.6400    0.0851    0.9892 C   0  0  0  0  0  0  0  0  0  0  0  0
   -3.2636    2.0502    1.1189 C   0  0  0  0  0  0  0  0  0  0  0  0
    1.7835    1.4741   -0.3648 C   0  0  0  0  0  0  0  0  0  0  0  0
    2.8729   -1.0239    0.3970 C   0  0  0  0  0  0  0  0  0  0  0  0
    3.1469    1.3427   -0.0781 C   0  0  0  0  0  0  0  0  0  0  0  0
    3.6810    0.1120    0.2972 C   0  0  0  0  0  0  0  0  0  0  0  0
  1 16  1  0
  2 17  1  0
  3  5  1  0
  3 13  1  0
  3 14  1  0
  4 10  1  0
  4 12  1  0
  5  6  1  0
  5  7  1  0
  6  8  1  0
  7  9  1  0
  8 10  2  0
  8 11  1  0
  9 10  1  0
 11 12  2  0
 11 15  1  0
 12 16  1  0
 15 17  2  0
 16 18  2  0
 17 18  1  0
M  END
>  <PUBCHEM_COMPOUND_CID>  (1) 
38531

>  <PUBCHEM_CONFORMER_RMSD>  (1) 
0.6

>  <PUBCHEM_CONFORMER_DIVERSEORDER>  (1) 
3
2
1

>  <PUBCHEM_MMFF94_PARTIAL_CHARGES>  (1) 
19
1 -0.19
10 -0.33
12 -0.15
13 0.27
14 0.27
15 -0.15
16 0.19
17 0.19
18 -0.15
2 -0.19
26 0.27
3 -0.81
33 0.15
34 0.15
4 0.03
5 0.27
6 0.18
8 -0.18
9 0.18

>  <PUBCHEM_EFFECTIVE_ROTOR_COUNT>  (1) 
1.8

>  <PUBCHEM_PHARMACOPHORE_FEATURES>  (1) 
6
1 3 cation
1 4 cation
1 4 donor
5 4 8 10 11 12 rings
6 11 12 15 16 17 18 rings
6 5 6 7 8 9 10 rings

>  <PUBCHEM_HEAVY_ATOM_COUNT>  (1) 
18

>  <PUBCHEM_ATOM_DEF_STEREO_COUNT>  (1) 
0

>  <PUBCHEM_ATOM_UDEF_STEREO_COUNT>  (1) 
1

>  <PUBCHEM_BOND_DEF_STEREO_COUNT>  (1) 
0

>  <PUBCHEM_BOND_UDEF_STEREO_COUNT>  (1) 
0

>  <PUBCHEM_ISOTOPIC_ATOM_COUNT>  (1) 
0

>  <PUBCHEM_COMPONENT_COUNT>  (1) 
1

>  <PUBCHEM_CACTVS_TAUTO_COUNT>  (1) 
1

>  <PUBCHEM_CONFORMER_ID>  (1) 
0000968300000003

>  <PUBCHEM_MMFF94_ENERGY>  (1) 
36.2229

>  <PUBCHEM_FEATURE_SELFOVERLAP>  (1) 
30.62

>  <PUBCHEM_SHAPE_FINGERPRINT>  (1) 
10465860 228 18057051211365713777
10608611 8 18261943107337060380
10967382 1 18335412500196058678
10980938 120 18334286596210493948
11132069 177 18337659880203488156
12173636 292 18060413616976706605
12251169 10 18410294696613839479
12346645 44 18340770437205809756
12390115 104 17976555123911221860
12491281 212 18411985788214897483
12553582 1 18046897191899304378
12644460 14 18113334202902039448
13140716 1 18408040706193078490
13296908 3 16805318868750308559
13380535 21 18335142033246953310
13583140 156 16009570486611380948
13675066 3 17822008696737796087
14144814 61 18335412491389820182
14445660 50 18411983597865991997
14739800 52 17774141522853727912
15209294 21 18342739649730904168
15309172 13 18407758127557270807
15375462 189 18042116570954295570
15442244 35 18339356358231728738
15536298 74 18412257363845911318
15775835 57 18412830213219057741
16945 1 18265043648370061662
17844478 74 17603585188420386365
18186145 218 18413105048355475788
19422 9 18343014497499107207
19591789 44 15820444174902636942
200 152 18342161285930875791
20510252 161 18196371643986685979
20645477 70 18188752977488690383
20739085 24 18187658950734578772
21267235 1 18409451388264831062
21501502 16 18412257367613578822
22854114 111 18334013895509168604
22854114 59 18334296461560514233
23184049 59 18335985268101749118
2334 1 18336539529584471534
23402539 116 17846206796477504607
23463225 33 18336257977372124598
23559900 14 18130787872209347364
2748010 2 17402036808694008398
474 4 18116153449046704724
5104073 3 18336539534106078410
633830 44 18272656726957330726
7364860 26 18410567397452548854
76465 3 10953735642390023713
84936 182 18200025287235779944

>  <PUBCHEM_SHAPE_MULTIPOLES>  (1) 
345.92
7.77
2.23
0.97
0.41
0.07
-0.03
2.05
-1.89
-0.8
-0.2
0.73
0.1
-1.16

>  <PUBCHEM_SHAPE_SELFOVERLAP>  (1) 
756.003

>  <PUBCHEM_SHAPE_VOLUME>  (1) 
191.3

>  <PUBCHEM_COORDINATE_TYPE>  (1) 
2
5
10

$$$$
