38532
     RDKit          3D

 22 21  0  0  1  0  0  0  0  0999 V2000
   -5.4870    1.3879   -0.8344 O   0  0  0  0  0  0  0  0  0  0  0  0
    3.9615    1.4439    0.0640 O   0  0  0  0  0  0  0  0  0  0  0  0
    5.2631   -0.4552   -0.0979 O   0  0  0  0  0  0  0  0  0  0  0  0
   -3.2836   -0.4190   -0.0146 C   0  0  0  0  0  0  0  0  0  0  0  0
   -3.7324    0.8358    0.7479 C   0  0  0  0  0  0  0  0  0  0  0  0
   -2.6932   -1.4608    0.9421 C   0  0  0  0  0  0  0  0  0  0  0  0
   -4.3616    1.9297   -0.1397 C   0  0  0  0  0  0  0  0  0  0  0  0
   -2.2018   -2.7423    0.2388 C   0  0  0  0  0  0  0  0  0  0  0  0
   -1.2195   -2.4937   -0.9256 C   0  0  0  0  0  0  0  0  0  0  0  0
   -3.3458    2.3999   -1.1859 C   0  0  0  0  0  0  0  0  0  0  0  0
   -4.8574    3.1271    0.6720 C   0  0  0  0  0  0  0  0  0  0  0  0
   -1.6128   -3.7073    1.2748 C   0  0  0  0  0  0  0  0  0  0  0  0
    0.0712   -1.8146   -0.5559 C   0  0  0  0  0  0  0  0  0  0  0  0
   -6.4772    0.9284    0.0711 C   0  0  0  0  0  0  0  0  0  0  0  0
    1.2755   -2.3989   -0.6571 C   0  0  0  0  0  0  0  0  0  0  0  0
    2.5382   -1.7677   -0.3077 C   0  0  0  0  0  0  0  0  0  0  0  0
    3.4969   -2.7049    0.3821 C   0  0  0  0  0  0  0  0  0  0  0  0
    2.8977   -0.4931   -0.5468 C   0  0  0  0  0  0  0  0  0  0  0  0
    4.1935    0.1250   -0.1789 C   0  0  0  0  0  0  0  0  0  0  0  0
    5.1079    2.2076    0.4532 C   0  0  0  0  0  0  0  0  0  0  0  0
    5.7953    2.7483   -0.7915 C   0  0  0  0  0  0  0  0  0  0  0  0
    4.6716    3.3238    1.3899 C   0  0  0  0  0  0  0  0  0  0  0  0
  1  7  1  0
  1 14  1  0
  2 19  1  0
  2 20  1  0
  3 19  2  0
  4  5  1  0
  4  6  1  0
  5  7  1  0
  6  8  1  0
  7 10  1  0
  7 11  1  0
  8  9  1  0
  8 12  1  0
  9 13  1  0
 13 15  2  0
 15 16  1  0
 16 17  1  0
 16 18  2  0
 18 19  1  0
 20 21  1  0
 20 22  1  0
M  END
>  <PUBCHEM_COMPOUND_CID>  (1) 
38532

>  <PUBCHEM_CONFORMER_RMSD>  (1) 
1.2

>  <PUBCHEM_CONFORMER_DIVERSEORDER>  (1) 
2
69
77
49
87
38
30
59
8
65
25
29
55
34
89
79
61
9
68
45
75
24
31
86
17
20
11
85
44
46
76
22
10
56
53
72
13
64
7
51
73
48
84
5
41
28
16
83
43
35
80
1
50
39
23
67
12
54
19
58
82
47
78
40
62
74
66
4
32
3
27
26
57
15
6
42
36
60
63
71
21
88
52
37
81
18
70
14
33

>  <PUBCHEM_MMFF94_PARTIAL_CHARGES>  (1) 
16
1 -0.56
13 -0.29
14 0.28
15 -0.15
16 -0.14
17 0.14
18 -0.14
19 0.71
2 -0.43
20 0.28
3 -0.57
41 0.15
45 0.15
49 0.15
7 0.28
9 0.14

>  <PUBCHEM_EFFECTIVE_ROTOR_COUNT>  (1) 
11

>  <PUBCHEM_PHARMACOPHORE_FEATURES>  (1) 
8
1 1 acceptor
1 12 hydrophobe
1 17 hydrophobe
1 3 acceptor
3 20 21 22 hydrophobe
3 4 5 6 hydrophobe
3 7 10 11 hydrophobe
3 8 9 13 hydrophobe

>  <PUBCHEM_HEAVY_ATOM_COUNT>  (1) 
22

>  <PUBCHEM_ATOM_DEF_STEREO_COUNT>  (1) 
0

>  <PUBCHEM_ATOM_UDEF_STEREO_COUNT>  (1) 
1

>  <PUBCHEM_BOND_DEF_STEREO_COUNT>  (1) 
0

>  <PUBCHEM_BOND_UDEF_STEREO_COUNT>  (1) 
2

>  <PUBCHEM_ISOTOPIC_ATOM_COUNT>  (1) 
0

>  <PUBCHEM_COMPONENT_COUNT>  (1) 
1

>  <PUBCHEM_CACTVS_TAUTO_COUNT>  (1) 
1

>  <PUBCHEM_CONFORMER_ID>  (1) 
0000968400000002

>  <PUBCHEM_MMFF94_ENERGY>  (1) 
54.3668

>  <PUBCHEM_FEATURE_SELFOVERLAP>  (1) 
40.674

>  <PUBCHEM_SHAPE_FINGERPRINT>  (1) 
12107183 9 18262225626603234690
12596602 18 14780419789442896949
13103583 49 12469220999520069735
133061 13 18115289090899513829
13402501 40 18410575059226045829
14216079 64 8934998162421370345
14251764 38 18269275656040967897
14251764 75 18341342093432811641
14429114 114 18270116799801637713
14739800 52 18187919539380307419
15142526 21 18335422305891673883
1768 210 18199168728785731293
17834072 32 18339927021809387031
17868525 174 18339074892494059354
21302155 148 18263091053464384588
21315764 268 18189332373129999983
21388113 180 18412268306916120815
21401589 2 18408612465630696523
23559900 14 18270685238654587246
2838139 119 18340764858328291447
3246875 12 18409452505757999555
4371632 12 16628250363839317977
437795 96 18335128838776098149
5104073 3 18113891706826906282
7288768 16 18113898299000240755
7808743 9 18337951289518851202

>  <PUBCHEM_SHAPE_MULTIPOLES>  (1) 
435.14
15.59
5.18
1.1
1.99
0.08
-0.11
-17.27
-0.42
0.86
-0.98
-0.09
-0.14
1.35

>  <PUBCHEM_SHAPE_SELFOVERLAP>  (1) 
831.757

>  <PUBCHEM_SHAPE_VOLUME>  (1) 
268.8

>  <PUBCHEM_COORDINATE_TYPE>  (1) 
2
5
10

$$$$
