38543
     RDKit          3D

 15 15  0  0  1  0  0  0  0  0999 V2000
   -5.2280   -1.9797    0.2423 Br  0  0  0  0  0  0  0  0  0  0  0  0
    0.5316   -2.4945   -1.0833 Br  0  0  0  0  0  0  0  0  0  0  0  0
   -0.7866    0.8731   -0.1969 N   0  0  0  0  0  0  0  0  0  0  0  0
   -2.2105    1.0065    0.1089 C   0  0  0  0  0  0  0  0  0  0  0  0
   -0.1312    0.0115    0.7863 C   0  0  0  0  0  0  0  0  0  0  0  0
   -0.1461    2.1873   -0.2324 C   0  0  0  0  0  0  0  0  0  0  0  0
   -2.8946   -0.3585    0.0600 C   0  0  0  0  0  0  0  0  0  0  0  0
    1.3253   -0.1968    0.4673 C   0  0  0  0  0  0  0  0  0  0  0  0
   -0.8147    3.0966   -1.2496 C   0  0  0  0  0  0  0  0  0  0  0  0
   -4.3775   -0.2326    0.3679 C   0  0  0  0  0  0  0  0  0  0  0  0
    1.7500   -1.2489   -0.3344 C   0  0  0  0  0  0  0  0  0  0  0  0
    2.2394    0.7022    1.0038 C   0  0  0  0  0  0  0  0  0  0  0  0
    3.1097   -1.4048   -0.6042 C   0  0  0  0  0  0  0  0  0  0  0  0
    3.5991    0.5460    0.7341 C   0  0  0  0  0  0  0  0  0  0  0  0
    4.0342   -0.5073   -0.0698 C   0  0  0  0  0  0  0  0  0  0  0  0
  1 10  1  0
  2 11  1  0
  3  4  1  0
  3  5  1  0
  3  6  1  0
  4  7  1  0
  5  8  1  0
  6  9  1  0
  7 10  1  0
  8 11  2  0
  8 12  1  0
 11 13  1  0
 12 14  2  0
 13 15  2  0
 14 15  1  0
M  END
>  <PUBCHEM_COMPOUND_CID>  (1) 
38543

>  <PUBCHEM_CONFORMER_RMSD>  (1) 
0.6

>  <PUBCHEM_CONFORMER_DIVERSEORDER>  (1) 
1
130
126
39
112
111
51
69
7
60
63
87
96
131
97
123
81
116
26
53
105
125
8
115
120
59
80
124
54
99
76
16
127
3
132
86
36
83
48
2
28
110
119
122
74
88
22
91
75
121
27
42
46
73
10
84
129
98
67
117
19
128
5
55
68
113
33
114
107
92
38
18
106
9
102
72
25
66
34
62
118
64
41
23
52
100
30
12
17
57
4
56
90
133
70
43
49
24
82
58
35
44
50
37
29
65
101
13
94
103
14
78
109
15
31
45
21
108
104
95
61
32
93
47
85
71
79
89
77
40
6
20
11

>  <PUBCHEM_MMFF94_PARTIAL_CHARGES>  (1) 
17
1 -0.23
10 0.23
11 0.11
12 -0.15
13 -0.15
14 -0.15
15 -0.15
2 -0.11
29 0.15
3 -0.81
30 0.15
31 0.15
32 0.15
4 0.27
5 0.41
6 0.27
8 -0.14

>  <PUBCHEM_EFFECTIVE_ROTOR_COUNT>  (1) 
6

>  <PUBCHEM_PHARMACOPHORE_FEATURES>  (1) 
4
1 1 hydrophobe
1 2 hydrophobe
1 3 cation
6 8 11 12 13 14 15 rings

>  <PUBCHEM_HEAVY_ATOM_COUNT>  (1) 
15

>  <PUBCHEM_ATOM_DEF_STEREO_COUNT>  (1) 
0

>  <PUBCHEM_ATOM_UDEF_STEREO_COUNT>  (1) 
0

>  <PUBCHEM_BOND_DEF_STEREO_COUNT>  (1) 
0

>  <PUBCHEM_BOND_UDEF_STEREO_COUNT>  (1) 
0

>  <PUBCHEM_ISOTOPIC_ATOM_COUNT>  (1) 
0

>  <PUBCHEM_COMPONENT_COUNT>  (1) 
1

>  <PUBCHEM_CACTVS_TAUTO_COUNT>  (1) 
1

>  <PUBCHEM_CONFORMER_ID>  (1) 
0000968F00000001

>  <PUBCHEM_MMFF94_ENERGY>  (1) 
34.4209

>  <PUBCHEM_FEATURE_SELFOVERLAP>  (1) 
20.297

>  <PUBCHEM_SHAPE_FINGERPRINT>  (1) 
11806522 49 18411138082335894337
12032990 46 18410013234442838137
12403259 226 18339078164794687538
12715332 25 17418369173778487990
13464513 79 18340770437406503683
14252887 29 18411985779894098971
16945 1 18040725723273442360
17357779 13 18336808841546285077
17844478 74 18341047419831436008
18380122 1 18340762637650688724
20261772 1 18059292175204368831
20344682 1 18411702088634985976
20388580 30 18262522610474248349
20645477 70 18117835732598084235
20871998 22 18409732854962518537
20871999 31 18113615660593353205
212847 35 9943535114955296163
21673915 165 17916581080905062919
221490 88 18127698127991574494
22802520 49 17907855103017908812
23402539 116 18187641384101774250
23532345 42 18408884061718194355
23557571 272 18261676956845905277
23559900 14 18192706740003424222
2748010 2 18126550250858072424
2871803 45 18410852118965774727
3286 77 17989489602157495384
5104073 3 18201718392923201554
7364860 26 18121785186485732241
81228 2 17971206828401267713

>  <PUBCHEM_SHAPE_MULTIPOLES>  (1) 
315.6
8.32
2.82
1.04
8.14
0.98
0.13
-4.67
-1.7
0.88
1.46
-0.24
0.15
0.89

>  <PUBCHEM_SHAPE_SELFOVERLAP>  (1) 
601.509

>  <PUBCHEM_SHAPE_VOLUME>  (1) 
200

>  <PUBCHEM_COORDINATE_TYPE>  (1) 
2
5
10

$$$$
