38559
     RDKit          3D

 17 17  0  0  1  0  0  0  0  0999 V2000
    6.4141    0.3726   -0.7443 Br  0  0  0  0  0  0  0  0  0  0  0  0
   -0.9623    2.4828    0.9417 Br  0  0  0  0  0  0  0  0  0  0  0  0
   -0.0366   -1.0535    0.2344 N   0  0  0  0  0  0  0  0  0  0  0  0
    1.3603   -1.3612   -0.0487 C   0  0  0  0  0  0  0  0  0  0  0  0
    2.1947   -0.0802   -0.0598 C   0  0  0  0  0  0  0  0  0  0  0  0
    3.6704   -0.3867   -0.3475 C   0  0  0  0  0  0  0  0  0  0  0  0
   -0.5894   -0.1729   -0.7962 C   0  0  0  0  0  0  0  0  0  0  0  0
   -0.8263   -2.2824    0.3290 C   0  0  0  0  0  0  0  0  0  0  0  0
    4.5508    0.8651   -0.3794 C   0  0  0  0  0  0  0  0  0  0  0  0
   -2.0129    0.2159   -0.4972 C   0  0  0  0  0  0  0  0  0  0  0  0
   -0.2696   -3.2122    1.3938 C   0  0  0  0  0  0  0  0  0  0  0  0
    4.5177    1.6087    0.9485 C   0  0  0  0  0  0  0  0  0  0  0  0
   -2.3149    1.3483    0.2485 C   0  0  0  0  0  0  0  0  0  0  0  0
   -3.0233   -0.5990   -0.9936 C   0  0  0  0  0  0  0  0  0  0  0  0
   -3.6478    1.6714    0.5022 C   0  0  0  0  0  0  0  0  0  0  0  0
   -4.3563   -0.2760   -0.7397 C   0  0  0  0  0  0  0  0  0  0  0  0
   -4.6686    0.8592    0.0082 C   0  0  0  0  0  0  0  0  0  0  0  0
  1  9  1  0
  2 13  1  0
  3  4  1  0
  3  7  1  0
  3  8  1  0
  4  5  1  0
  5  6  1  0
  6  9  1  0
  7 10  1  0
  8 11  1  0
  9 12  1  0
 10 13  2  0
 10 14  1  0
 13 15  1  0
 14 16  2  0
 15 17  2  0
 16 17  1  0
M  END
>  <PUBCHEM_COMPOUND_CID>  (1) 
38559

>  <PUBCHEM_CONFORMER_RMSD>  (1) 
0.8

>  <PUBCHEM_CONFORMER_DIVERSEORDER>  (1) 
4
170
84
69
154
124
37
141
162
82
91
73
75
161
45
81
94
25
76
134
24
169
41
167
106
28
36
146
118
35
80
42
22
93
54
68
174
70
133
57
67
53
139
90
77
102
112
40
166
138
14
108
144
173
103
72
128
46
99
101
51
120
43
165
38
87
137
158
148
116
115
111
151
153
104
47
83
164
150
9
100
98
79
125
172
177
6
97
85
117
23
156
34
136
61
175
135
131
147
95
12
63
88
171
157
105
7
62
32
50
123
152
168
39
5
58
71
107
142
19
2
127
16
113
129
18
122
17
159
27
11
48
176
145
59
96
126
66
44
160
74
52
29
86
149
130
114
92
26
65
163
30
10
33
89
3
20
119
1
49
13
60
140
109
21
31
56
55
64
8
121
110
132
15
155
78
143

>  <PUBCHEM_MMFF94_PARTIAL_CHARGES>  (1) 
17
1 -0.23
10 -0.14
13 0.11
14 -0.15
15 -0.15
16 -0.15
17 -0.15
2 -0.11
3 -0.81
35 0.15
36 0.15
37 0.15
38 0.15
4 0.27
7 0.41
8 0.27
9 0.23

>  <PUBCHEM_EFFECTIVE_ROTOR_COUNT>  (1) 
7

>  <PUBCHEM_PHARMACOPHORE_FEATURES>  (1) 
5
1 1 hydrophobe
1 2 hydrophobe
1 3 cation
3 1 9 12 hydrophobe
6 10 13 14 15 16 17 rings

>  <PUBCHEM_HEAVY_ATOM_COUNT>  (1) 
17

>  <PUBCHEM_ATOM_DEF_STEREO_COUNT>  (1) 
0

>  <PUBCHEM_ATOM_UDEF_STEREO_COUNT>  (1) 
1

>  <PUBCHEM_BOND_DEF_STEREO_COUNT>  (1) 
0

>  <PUBCHEM_BOND_UDEF_STEREO_COUNT>  (1) 
0

>  <PUBCHEM_ISOTOPIC_ATOM_COUNT>  (1) 
0

>  <PUBCHEM_COMPONENT_COUNT>  (1) 
1

>  <PUBCHEM_CACTVS_TAUTO_COUNT>  (1) 
1

>  <PUBCHEM_CONFORMER_ID>  (1) 
0000969F00000004

>  <PUBCHEM_MMFF94_ENERGY>  (1) 
37.95

>  <PUBCHEM_FEATURE_SELFOVERLAP>  (1) 
26.316

>  <PUBCHEM_SHAPE_FINGERPRINT>  (1) 
10498660 4 18271239426399711225
10730089 173 18202285788568706516
12346645 44 18337952286204510327
13533116 47 18339074896562290010
13583140 156 16443348714685152024
13897977 58 18201721730381802077
14251764 18 18408600350155454506
14787075 74 18412542132946415369
15183329 4 18341342098545034190
1741750 31 18335419101708855986
20300324 65 17989487424298041069
204376 136 18040998435989595103
20645477 56 18333734637031053326
20645477 70 17131563747996046374
21524375 3 18410854317962637006
21652331 79 18343580724676371792
22079108 93 18408604781633367195
221357 26 17775004574988495256
23402539 116 18343579651065955804
23557571 272 18266754647909661430
23559900 14 18343017835543147424
34934 24 18271240505274895933
351380 180 18131068243094912236
4028521 119 18343580728976432012
474 4 18333455330627698924
5486654 2 18408603678022041943
59755656 520 18187363233820537142
633830 44 18339923693067444687

>  <PUBCHEM_SHAPE_MULTIPOLES>  (1) 
356.76
11.54
2.69
1.08
14.86
1.14
-0.14
-5.18
2.79
-1.01
-1.57
0
0.2
-0.15

>  <PUBCHEM_SHAPE_SELFOVERLAP>  (1) 
679.635

>  <PUBCHEM_SHAPE_VOLUME>  (1) 
225.5

>  <PUBCHEM_COORDINATE_TYPE>  (1) 
2
5
10

$$$$
