38555
     RDKit          3D

 16 16  0  0  1  0  0  0  0  0999 V2000
   -0.8265    2.4601    1.1385 Br  0  0  0  0  0  0  0  0  0  0  0  0
    6.4814    0.9947   -0.3622 Cl  0  0  0  0  0  0  0  0  0  0  0  0
    0.3088   -0.9641    0.2175 N   0  0  0  0  0  0  0  0  0  0  0  0
    1.7259   -1.1753   -0.0535 C   0  0  0  0  0  0  0  0  0  0  0  0
    2.4882    0.1446    0.0496 C   0  0  0  0  0  0  0  0  0  0  0  0
   -0.2726   -0.0469   -0.7642 C   0  0  0  0  0  0  0  0  0  0  0  0
   -0.4127   -2.2380    0.2116 C   0  0  0  0  0  0  0  0  0  0  0  0
    3.9827   -0.0576   -0.2104 C   0  0  0  0  0  0  0  0  0  0  0  0
   -1.7211    0.2425   -0.4723 C   0  0  0  0  0  0  0  0  0  0  0  0
    0.1747   -3.2063    1.2243 C   0  0  0  0  0  0  0  0  0  0  0  0
    4.7456    1.2533   -0.0724 C   0  0  0  0  0  0  0  0  0  0  0  0
   -2.1000    1.3034    0.3403 C   0  0  0  0  0  0  0  0  0  0  0  0
   -2.6746   -0.5907   -1.0451 C   0  0  0  0  0  0  0  0  0  0  0  0
   -3.4536    1.5352    0.5846 C   0  0  0  0  0  0  0  0  0  0  0  0
   -4.0283   -0.3588   -0.8006 C   0  0  0  0  0  0  0  0  0  0  0  0
   -4.4178    0.7041    0.0142 C   0  0  0  0  0  0  0  0  0  0  0  0
  1 12  1  0
  2 11  1  0
  3  4  1  0
  3  6  1  0
  3  7  1  0
  4  5  1  0
  5  8  1  0
  6  9  1  0
  7 10  1  0
  8 11  1  0
  9 12  2  0
  9 13  1  0
 12 14  1  0
 13 15  2  0
 14 16  2  0
 15 16  1  0
M  END
>  <PUBCHEM_COMPOUND_CID>  (1) 
38555

>  <PUBCHEM_CONFORMER_RMSD>  (1) 
0.8

>  <PUBCHEM_CONFORMER_DIVERSEORDER>  (1) 
1
52
64
77
57
96
99
82
72
38
7
100
34
32
60
67
8
10
66
88
90
102
79
97
84
49
94
33
92
40
74
39
55
15
98
29
43
13
21
78
93
95
47
22
16
62
87
101
70
37
59
27
2
61
80
63
31
91
46
89
85
6
54
48
17
86
12
45
14
81
73
23
3
41
25
83
9
53
68
36
26
58
76
71
44
20
51
18
56
35
30
5
42
65
75
50
11
28
4
69
24
19

>  <PUBCHEM_MMFF94_PARTIAL_CHARGES>  (1) 
17
1 -0.11
11 0.29
12 0.11
13 -0.15
14 -0.15
15 -0.15
16 -0.15
2 -0.29
3 -0.81
32 0.15
33 0.15
34 0.15
35 0.15
4 0.27
6 0.41
7 0.27
9 -0.14

>  <PUBCHEM_EFFECTIVE_ROTOR_COUNT>  (1) 
7

>  <PUBCHEM_PHARMACOPHORE_FEATURES>  (1) 
3
1 1 hydrophobe
1 3 cation
6 9 12 13 14 15 16 rings

>  <PUBCHEM_HEAVY_ATOM_COUNT>  (1) 
16

>  <PUBCHEM_ATOM_DEF_STEREO_COUNT>  (1) 
0

>  <PUBCHEM_ATOM_UDEF_STEREO_COUNT>  (1) 
0

>  <PUBCHEM_BOND_DEF_STEREO_COUNT>  (1) 
0

>  <PUBCHEM_BOND_UDEF_STEREO_COUNT>  (1) 
0

>  <PUBCHEM_ISOTOPIC_ATOM_COUNT>  (1) 
0

>  <PUBCHEM_COMPONENT_COUNT>  (1) 
1

>  <PUBCHEM_CACTVS_TAUTO_COUNT>  (1) 
1

>  <PUBCHEM_CONFORMER_ID>  (1) 
0000969B00000001

>  <PUBCHEM_MMFF94_ENERGY>  (1) 
33.9603

>  <PUBCHEM_FEATURE_SELFOVERLAP>  (1) 
15.223

>  <PUBCHEM_SHAPE_FINGERPRINT>  (1) 
10730089 173 18131071532976706796
11045977 3 13695875856954286388
12346645 44 18338796719550477575
13583140 156 16660645202072416376
13897977 58 18202847642999525173
14787075 74 18412543249553503331
187816 3 18341611542284386492
20300324 65 17917712409312509092
204376 136 18113900463700498942
20645477 56 18260548961464293134
21524375 3 18411416189968879350
23175994 123 12967126133705827427
23236772 104 18341894044201379547
23402539 116 18272083916207539932
23419403 2 17461466859927881665
23557571 272 17489874859901782308
23559900 14 18342736360692991800
34934 24 18271805658456914677
474 4 18334299755573706996
474229 33 18334016133345755707
57426455 19 18410577301161687347
59755656 520 18260264166330604750
633830 44 18340206276224806510

>  <PUBCHEM_SHAPE_MULTIPOLES>  (1) 
332.1
10.34
2.66
1.02
15.7
1.3
-0.12
-5.56
2.33
-0.4
-1.47
-0.43
0.14
-0.79

>  <PUBCHEM_SHAPE_SELFOVERLAP>  (1) 
636.446

>  <PUBCHEM_SHAPE_VOLUME>  (1) 
208.4

>  <PUBCHEM_COORDINATE_TYPE>  (1) 
2
5
10

$$$$
