38563
     RDKit          3D

 17 17  0  0  1  0  0  0  0  0999 V2000
    5.9425    2.4923   -0.2773 Br  0  0  0  0  0  0  0  0  0  0  0  0
   -3.2794   -0.2547   -2.5180 Br  0  0  0  0  0  0  0  0  0  0  0  0
    0.0155   -1.3941    0.1749 N   0  0  0  0  0  0  0  0  0  0  0  0
    1.0735   -2.2079   -0.4113 C   0  0  0  0  0  0  0  0  0  0  0  0
    2.2232   -1.3526   -0.9470 C   0  0  0  0  0  0  0  0  0  0  0  0
    2.8647   -0.4663    0.1263 C   0  0  0  0  0  0  0  0  0  0  0  0
   -0.5754   -0.5123   -0.8334 C   0  0  0  0  0  0  0  0  0  0  0  0
   -1.0162   -2.2428    0.7739 C   0  0  0  0  0  0  0  0  0  0  0  0
    3.9612    0.4212   -0.4739 C   0  0  0  0  0  0  0  0  0  0  0  0
   -1.6279    0.3883   -0.2435 C   0  0  0  0  0  0  0  0  0  0  0  0
   -0.4248   -3.1673    1.8245 C   0  0  0  0  0  0  0  0  0  0  0  0
    4.6241    1.3259    0.5534 C   0  0  0  0  0  0  0  0  0  0  0  0
   -2.8493    0.5884   -0.8745 C   0  0  0  0  0  0  0  0  0  0  0  0
   -1.3380    1.0188    0.9607 C   0  0  0  0  0  0  0  0  0  0  0  0
   -3.7958    1.4319   -0.2927 C   0  0  0  0  0  0  0  0  0  0  0  0
   -2.2846    1.8623    1.5423 C   0  0  0  0  0  0  0  0  0  0  0  0
   -3.5133    2.0689    0.9157 C   0  0  0  0  0  0  0  0  0  0  0  0
  1 12  1  0
  2 13  1  0
  3  4  1  0
  3  7  1  0
  3  8  1  0
  4  5  1  0
  5  6  1  0
  6  9  1  0
  7 10  1  0
  8 11  1  0
  9 12  1  0
 10 13  2  0
 10 14  1  0
 13 15  1  0
 14 16  2  0
 15 17  2  0
 16 17  1  0
M  END
>  <PUBCHEM_COMPOUND_CID>  (1) 
38563

>  <PUBCHEM_CONFORMER_RMSD>  (1) 
0.8

>  <PUBCHEM_CONFORMER_DIVERSEORDER>  (1) 
6
167
210
245
134
108
204
98
239
43
150
103
231
68
70
118
54
8
36
209
223
139
105
195
218
29
165
21
77
120
232
67
214
76
127
63
170
163
185
238
91
219
47
142
119
128
173
215
73
19
157
147
158
220
124
25
53
35
213
161
178
133
137
216
187
126
106
236
3
69
206
58
202
227
62
109
228
96
49
72
10
110
81
212
20
14
100
78
208
7
171
15
226
74
199
164
2
90
196
188
138
83
11
38
229
205
243
32
151
30
183
97
201
234
174
95
136
153
24
92
145
197
221
240
31
27
48
162
189
190
66
182
172
141
237
152
115
241
84
71
18
12
166
168
192
101
194
86
113
230
23
33
184
217
51
37
64
114
233
211
135
44
82
111
104
122
59
200
17
207
129
149
93
193
79
5
52
175
169
26
179
225
144
125
39
80
102
41
123
180
94
89
60
65
85
198
99
156
45
148
132
186
87
4
181
42
55
131
34
143
50
155
116
154
16
88
121
61
159
56
140
242
1
191
203
177
107
75
112
130
40
176
160
235
57
146
22
28
46
222
224
117
244
13
9

>  <PUBCHEM_MMFF94_PARTIAL_CHARGES>  (1) 
17
1 -0.23
10 -0.14
12 0.23
13 0.11
14 -0.15
15 -0.15
16 -0.15
17 -0.15
2 -0.11
3 -0.81
35 0.15
36 0.15
37 0.15
38 0.15
4 0.27
7 0.41
8 0.27

>  <PUBCHEM_EFFECTIVE_ROTOR_COUNT>  (1) 
8

>  <PUBCHEM_PHARMACOPHORE_FEATURES>  (1) 
4
1 1 hydrophobe
1 2 hydrophobe
1 3 cation
6 10 13 14 15 16 17 rings

>  <PUBCHEM_HEAVY_ATOM_COUNT>  (1) 
17

>  <PUBCHEM_ATOM_DEF_STEREO_COUNT>  (1) 
0

>  <PUBCHEM_ATOM_UDEF_STEREO_COUNT>  (1) 
0

>  <PUBCHEM_BOND_DEF_STEREO_COUNT>  (1) 
0

>  <PUBCHEM_BOND_UDEF_STEREO_COUNT>  (1) 
0

>  <PUBCHEM_ISOTOPIC_ATOM_COUNT>  (1) 
0

>  <PUBCHEM_COMPONENT_COUNT>  (1) 
1

>  <PUBCHEM_CACTVS_TAUTO_COUNT>  (1) 
1

>  <PUBCHEM_CONFORMER_ID>  (1) 
000096A300000006

>  <PUBCHEM_MMFF94_ENERGY>  (1) 
33.4548

>  <PUBCHEM_FEATURE_SELFOVERLAP>  (1) 
20.297

>  <PUBCHEM_SHAPE_FINGERPRINT>  (1) 
11725454 13 16082186555579085247
122479 349 18411703197069000654
12633257 1 12396575187808557542
12788726 201 18049708905003343282
13994607 96 18270407216635747820
14787075 74 18412825815689505027
15295992 7 18192451687755618330
15342168 16 18337118877485918596
17834072 32 18339646745730218012
18186145 218 18191030010256267078
19765921 60 18339356349557352955
204376 136 18114468872383189203
21033648 29 17530961337657699460
21401589 2 18410299141942077184
21524375 3 18339638932693959730
21618674 53 17916307143600549275
22079108 93 18337404755346984873
22182937 141 18338243777134580728
22956985 138 15520681777381334178
23419403 2 17978503467015352411
23559900 14 16342015339156570126
27216 239 18267309914160971066
283562 15 18117558654945835290
2838139 119 18272647983306508756
4340502 62 18116449050850944409
474 4 18340486669022420644
495365 180 17026276588562125871
526903 126 18342176652558820105
633830 44 18268150863877069582
6913067 236 17167870742752331655
81228 2 17824288070110523483
9981440 41 18271799164387430586

>  <PUBCHEM_SHAPE_MULTIPOLES>  (1) 
356.76
9.68
3.22
1.75
16.21
1.42
0.44
-10
2.07
0.36
-1.65
-2.08
0.38
-0.53

>  <PUBCHEM_SHAPE_SELFOVERLAP>  (1) 
677.074

>  <PUBCHEM_SHAPE_VOLUME>  (1) 
226

>  <PUBCHEM_COORDINATE_TYPE>  (1) 
2
5
10

$$$$
