38566
     RDKit          3D

 12 12  0  0  0  0  0  0  0  0999 V2000
   -1.0740   -0.0921   -0.9232 O   0  0  0  0  0  0  0  0  0  0  0  0
    2.3474   -1.4912   -0.3055 C   0  0  0  0  0  0  0  0  0  0  0  0
    2.8183   -0.4588    0.7069 C   0  0  0  0  0  0  0  0  0  0  0  0
    0.8249   -1.4721   -0.4208 C   0  0  0  0  0  0  0  0  0  0  0  0
    2.3703    0.9451    0.3004 C   0  0  0  0  0  0  0  0  0  0  0  0
    0.2389   -0.0868   -0.5000 C   0  0  0  0  0  0  0  0  0  0  0  0
    0.9402    1.0270   -0.1949 C   0  0  0  0  0  0  0  0  0  0  0  0
   -1.9868   -0.1819    0.1439 C   0  0  0  0  0  0  0  0  0  0  0  0
    0.4250    2.4365   -0.3136 C   0  0  0  0  0  0  0  0  0  0  0  0
   -1.3656    0.4815    1.3723 C   0  0  0  0  0  0  0  0  0  0  0  0
   -3.2594    0.5503   -0.2764 C   0  0  0  0  0  0  0  0  0  0  0  0
   -2.2793   -1.6576    0.4110 C   0  0  0  0  0  0  0  0  0  0  0  0
  1  6  1  0
  1  8  1  0
  2  3  1  0
  2  4  1  0
  3  5  1  0
  4  6  1  0
  5  7  1  0
  6  7  2  0
  7  9  1  0
  8 10  1  0
  8 11  1  0
  8 12  1  0
M  END
>  <PUBCHEM_COMPOUND_CID>  (1) 
38566

>  <PUBCHEM_CONFORMER_RMSD>  (1) 
0.6

>  <PUBCHEM_CONFORMER_DIVERSEORDER>  (1) 
1
2
3

>  <PUBCHEM_MMFF94_PARTIAL_CHARGES>  (1) 
7
1 -0.36
4 0.14
5 0.14
6 -0.06
7 -0.28
8 0.28
9 0.14

>  <PUBCHEM_EFFECTIVE_ROTOR_COUNT>  (1) 
2.8

>  <PUBCHEM_PHARMACOPHORE_FEATURES>  (1) 
3
1 1 acceptor
4 8 10 11 12 hydrophobe
6 2 3 4 5 6 7 rings

>  <PUBCHEM_HEAVY_ATOM_COUNT>  (1) 
12

>  <PUBCHEM_ATOM_DEF_STEREO_COUNT>  (1) 
0

>  <PUBCHEM_ATOM_UDEF_STEREO_COUNT>  (1) 
0

>  <PUBCHEM_BOND_DEF_STEREO_COUNT>  (1) 
0

>  <PUBCHEM_BOND_UDEF_STEREO_COUNT>  (1) 
0

>  <PUBCHEM_ISOTOPIC_ATOM_COUNT>  (1) 
0

>  <PUBCHEM_COMPONENT_COUNT>  (1) 
1

>  <PUBCHEM_CACTVS_TAUTO_COUNT>  (1) 
1

>  <PUBCHEM_CONFORMER_ID>  (1) 
000096A600000001

>  <PUBCHEM_MMFF94_ENERGY>  (1) 
37.2214

>  <PUBCHEM_FEATURE_SELFOVERLAP>  (1) 
15.223

>  <PUBCHEM_SHAPE_FINGERPRINT>  (1) 
10219947 1 18412260631851773812
12382932 28 18410569587294967810
12423570 1 11177427898531694572
12524768 44 18270967821299739671
12696612 119 18338804523363454238
12932764 1 17458339736735129455
14648413 74 18261955270763816877
161256 15 18199188395598663388
16945 1 18340776935480662120
17990270 104 18335704995837421570
18511873 20 17895189957305094193
20201158 50 18335135358503921275
20653091 64 18336837501488186176
20711985 344 17681273261440405364
21130352 189 18336827494135479565
21501502 16 18189619508963212359
23402539 116 18339909434456354469
23552423 10 18265901448007473887
241688 4 18267029362232866504
2748010 2 18412265042772845406
29004967 10 18407760330843650208
369184 2 18409446990328706443
5084963 1 18057053616468356137
528862 383 18119808264288509336
528886 8 18411411813122605866
63268167 104 18342177777887867296
81228 2 17974858267714537632

>  <PUBCHEM_SHAPE_MULTIPOLES>  (1) 
241.09
4.31
1.96
0.95
0.92
0.47
-0.18
-0.77
-0.49
-0.45
0.18
0.14
0.03
0.16

>  <PUBCHEM_SHAPE_SELFOVERLAP>  (1) 
478.046

>  <PUBCHEM_SHAPE_VOLUME>  (1) 
145.5

>  <PUBCHEM_COORDINATE_TYPE>  (1) 
2
5
10

$$$$
