3857
     RDKit          3D

 10  9  0  0  1  0  0  0  0  0999 V2000
   -1.6185   -0.1468   -0.0461 P   0  0  0  0  0  0  0  0  0  0  0  0
   -2.8955    0.4590   -0.8147 O   0  0  0  0  0  0  0  0  0  0  0  0
   -1.9379    0.1132    1.5092 O   0  0  0  0  0  0  0  0  0  0  0  0
   -1.2203   -1.5305   -0.4159 O   0  0  0  0  0  0  0  0  0  0  0  0
    1.7091   -1.3400    1.0153 O   0  0  0  0  0  0  0  0  0  0  0  0
    1.8425   -0.8316   -1.1900 O   0  0  0  0  0  0  0  0  0  0  0  0
    1.9443    1.8610    0.0171 N   0  0  0  0  0  0  0  0  0  0  0  0
   -0.3396    1.0890   -0.3891 C   0  0  0  0  0  0  0  0  0  0  0  0
    0.9634    0.8322    0.3599 C   0  0  0  0  0  0  0  0  0  0  0  0
    1.5527   -0.5055   -0.0457 C   0  0  0  0  0  0  0  0  0  0  0  0
  1  2  1  0
  1  3  1  0
  1  4  2  0
  1  8  1  0
  5 10  1  0
  6 10  2  0
  7  9  1  0
  8  9  1  0
  9 10  1  0
M  END
>  <PUBCHEM_COMPOUND_CID>  (1) 
3857

>  <PUBCHEM_CONFORMER_RMSD>  (1) 
0.6

>  <PUBCHEM_CONFORMER_DIVERSEORDER>  (1) 
1
2
8
9
5
4
6
10
3
7

>  <PUBCHEM_MMFF94_PARTIAL_CHARGES>  (1) 
14
1 1.24
10 0.66
14 0.36
15 0.36
16 0.5
17 0.5
18 0.5
2 -0.77
3 -0.77
4 -0.7
5 -0.65
6 -0.57
7 -0.99
9 0.33

>  <PUBCHEM_EFFECTIVE_ROTOR_COUNT>  (1) 
3

>  <PUBCHEM_PHARMACOPHORE_FEATURES>  (1) 
9
1 2 acceptor
1 3 acceptor
1 4 acceptor
1 5 acceptor
1 6 acceptor
1 7 cation
1 7 donor
3 5 6 10 anion
4 1 2 3 4 anion

>  <PUBCHEM_HEAVY_ATOM_COUNT>  (1) 
10

>  <PUBCHEM_ATOM_DEF_STEREO_COUNT>  (1) 
0

>  <PUBCHEM_ATOM_UDEF_STEREO_COUNT>  (1) 
1

>  <PUBCHEM_BOND_DEF_STEREO_COUNT>  (1) 
0

>  <PUBCHEM_BOND_UDEF_STEREO_COUNT>  (1) 
0

>  <PUBCHEM_ISOTOPIC_ATOM_COUNT>  (1) 
0

>  <PUBCHEM_COMPONENT_COUNT>  (1) 
1

>  <PUBCHEM_CACTVS_TAUTO_COUNT>  (1) 
1

>  <PUBCHEM_CONFORMER_ID>  (1) 
00000F1100000001

>  <PUBCHEM_MMFF94_ENERGY>  (1) 
-22.232

>  <PUBCHEM_FEATURE_SELFOVERLAP>  (1) 
45.767

>  <PUBCHEM_SHAPE_FINGERPRINT>  (1) 
15310529 11 17386020437349413943
18185500 45 18340482395276831483
20653091 64 18341896311464031658
21040471 1 17977098290849080060
21922407 69 16701727371348296421
23552333 60 18271799159495941857
23552423 10 18261951954927284055
23552449 11 18339911658505504512
24536 1 17847063298053799535
29004967 10 17895201029451221528
5084963 1 17489025946735847157

>  <PUBCHEM_SHAPE_MULTIPOLES>  (1) 
175.32
3.35
1.55
1.07
1.23
0.12
-0.18
0.05
0.21
-0.74
0.03
0.18
-0.17
0.02

>  <PUBCHEM_SHAPE_SELFOVERLAP>  (1) 
319.63

>  <PUBCHEM_SHAPE_VOLUME>  (1) 
111.8

>  <PUBCHEM_COORDINATE_TYPE>  (1) 
2
5
10

$$$$
