38587
     RDKit          3D

 33 35  0  0  1  0  0  0  0  0999 V2000
   -0.3372   -0.7488    1.1974 O   0  0  0  0  0  0  0  0  0  0  0  0
   -1.6375    2.7422    1.6690 O   0  0  0  0  0  0  0  0  0  0  0  0
   -4.6433   -2.2397   -0.3936 O   0  0  0  0  0  0  0  0  0  0  0  0
   -3.6397    2.3224   -0.4331 O   0  0  0  0  0  0  0  0  0  0  0  0
   -2.0348   -2.8933    0.7208 O   0  0  0  0  0  0  0  0  0  0  0  0
    5.3417    0.8368    0.1351 O   0  0  0  0  0  0  0  0  0  0  0  0
    2.8599   -2.1294    0.0030 N   0  0  0  0  0  0  0  0  0  0  0  0
   -1.0537    1.9204    0.6492 C   0  0  0  0  0  0  0  0  0  0  0  0
   -1.9854    0.7792    0.3827 C   0  0  0  0  0  0  0  0  0  0  0  0
   -0.7492    2.8115   -0.5755 C   0  0  0  0  0  0  0  0  0  0  0  0
   -1.5799   -0.5258    0.6739 C   0  0  0  0  0  0  0  0  0  0  0  0
   -3.2538    1.0393   -0.1543 C   0  0  0  0  0  0  0  0  0  0  0  0
    0.4939    3.6999   -0.4347 C   0  0  0  0  0  0  0  0  0  0  0  0
   -4.1182   -0.0425   -0.3970 C   0  0  0  0  0  0  0  0  0  0  0  0
   -2.4231   -1.6163    0.4405 C   0  0  0  0  0  0  0  0  0  0  0  0
   -3.6773   -1.3265   -0.0937 C   0  0  0  0  0  0  0  0  0  0  0  0
    1.7638   -1.8631    0.9225 C   0  0  0  0  0  0  0  0  0  0  0  0
    0.7217   -0.9683    0.2706 C   0  0  0  0  0  0  0  0  0  0  0  0
    1.7860    2.9371   -0.2824 C   0  0  0  0  0  0  0  0  0  0  0  0
   -5.4324   -0.1973   -0.9119 C   0  0  0  0  0  0  0  0  0  0  0  0
    4.0584   -2.5499    0.7330 C   0  0  0  0  0  0  0  0  0  0  0  0
    2.4793   -3.1517   -0.9748 C   0  0  0  0  0  0  0  0  0  0  0  0
   -5.7015   -1.5461   -0.8885 C   0  0  0  0  0  0  0  0  0  0  0  0
    2.5220    2.5803   -1.4123 C   0  0  0  0  0  0  0  0  0  0  0  0
    2.2450    2.5881    0.9878 C   0  0  0  0  0  0  0  0  0  0  0  0
    3.8195   -3.8532    1.4763 C   0  0  0  0  0  0  0  0  0  0  0  0
    3.5913   -3.3885   -1.9826 C   0  0  0  0  0  0  0  0  0  0  0  0
    3.7170    1.8747   -1.2720 C   0  0  0  0  0  0  0  0  0  0  0  0
    3.4399    1.8825    1.1281 C   0  0  0  0  0  0  0  0  0  0  0  0
   -4.7910    2.8087    0.2480 C   0  0  0  0  0  0  0  0  0  0  0  0
    4.1760    1.5259   -0.0019 C   0  0  0  0  0  0  0  0  0  0  0  0
   -2.0017   -3.8128   -0.3680 C   0  0  0  0  0  0  0  0  0  0  0  0
    6.0440    0.5042   -1.0615 C   0  0  0  0  0  0  0  0  0  0  0  0
  1 11  1  0
  1 18  1  0
  2  8  1  0
  3 16  1  0
  3 23  1  0
  4 12  1  0
  4 30  1  0
  5 15  1  0
  5 32  1  0
  6 31  1  0
  6 33  1  0
  7 17  1  0
  7 21  1  0
  7 22  1  0
  8  9  1  0
  8 10  1  0
  9 11  1  0
  9 12  2  0
 10 13  1  0
 11 15  2  0
 12 14  1  0
 13 19  1  0
 14 16  2  0
 14 20  1  0
 15 16  1  0
 17 18  1  0
 19 24  2  0
 19 25  1  0
 20 23  2  0
 21 26  1  0
 22 27  1  0
 24 28  1  0
 25 29  2  0
 28 31  2  0
 29 31  1  0
M  END
>  <PUBCHEM_COMPOUND_CID>  (1) 
38587

>  <PUBCHEM_CONFORMER_RMSD>  (1) 
1.2

>  <PUBCHEM_CONFORMER_DIVERSEORDER>  (1) 
1
2
55
47
53
10
8
30
48
28
7
13
62
26
36
58
43
17
21
15
38
24
37
61
46
27
45
52
12
20
4
39
59
18
3
40
42
44
41
54
57
29
50
11
6
60
9
22
16
63
19
33
25
5
35
65
56
34
32
23
31
49
14
64
51

>  <PUBCHEM_MMFF94_PARTIAL_CHARGES>  (1) 
36
1 -0.36
11 0.08
12 0.08
13 0.14
15 0.08
16 0.14
17 0.27
18 0.28
19 -0.14
2 -0.68
20 -0.15
21 0.27
22 0.27
23 -0.01
24 -0.15
25 -0.15
28 -0.15
29 -0.15
3 -0.28
30 0.28
31 0.08
32 0.28
33 0.28
4 -0.36
43 0.15
48 0.4
49 0.15
5 -0.36
50 0.15
51 0.15
58 0.15
59 0.15
6 -0.36
7 -0.81
8 0.42
9 -0.14

>  <PUBCHEM_EFFECTIVE_ROTOR_COUNT>  (1) 
13

>  <PUBCHEM_PHARMACOPHORE_FEATURES>  (1) 
11
1 1 acceptor
1 2 acceptor
1 2 donor
1 3 acceptor
1 4 acceptor
1 5 acceptor
1 6 acceptor
1 7 cation
5 3 14 16 20 23 rings
6 19 24 25 28 29 31 rings
6 9 11 12 14 15 16 rings

>  <PUBCHEM_HEAVY_ATOM_COUNT>  (1) 
33

>  <PUBCHEM_ATOM_DEF_STEREO_COUNT>  (1) 
0

>  <PUBCHEM_ATOM_UDEF_STEREO_COUNT>  (1) 
1

>  <PUBCHEM_BOND_DEF_STEREO_COUNT>  (1) 
0

>  <PUBCHEM_BOND_UDEF_STEREO_COUNT>  (1) 
0

>  <PUBCHEM_ISOTOPIC_ATOM_COUNT>  (1) 
0

>  <PUBCHEM_COMPONENT_COUNT>  (1) 
1

>  <PUBCHEM_CACTVS_TAUTO_COUNT>  (1) 
1

>  <PUBCHEM_CONFORMER_ID>  (1) 
000096BB00000001

>  <PUBCHEM_MMFF94_ENERGY>  (1) 
109.8329

>  <PUBCHEM_FEATURE_SELFOVERLAP>  (1) 
55.934

>  <PUBCHEM_SHAPE_FINGERPRINT>  (1) 
1100329 8 18194681467435383753
11513181 2 18272087162918141919
11578080 2 17314211285863490046
13140716 1 18337955563596853961
13761468 95 16096035725112758334
14790565 3 17835244441804966697
15264996 151 18187361004457755827
16112460 7 18270130015774080385
17909252 39 18272370892641659482
20028762 73 18200593730462422148
20764821 26 17972875865656185300
20775530 9 18266753397952455984
20905425 154 18339648828720473172
23559900 14 18339636836575631779
3298306 158 18194117649545127559
4280585 95 18120082893303784106
460360 51 18334871497631021657
463206 1 18126283283795545623
508706 21 18334303084157446260
57527585 103 17679053553295140154
59755656 215 18335698381898898710

>  <PUBCHEM_SHAPE_MULTIPOLES>  (1) 
638.93
11.83
5.7
1.34
2.14
1.66
-0.11
2.31
-2.93
-2.97
-0.21
-1.12
0.32
-0.87

>  <PUBCHEM_SHAPE_SELFOVERLAP>  (1) 
1345.423

>  <PUBCHEM_SHAPE_VOLUME>  (1) 
363.9

>  <PUBCHEM_COORDINATE_TYPE>  (1) 
2
5
10

$$$$
