38584
     RDKit          3D

 32 35  0  0  1  0  0  0  0  0999 V2000
   -0.5366    0.2715    0.4534 O   0  0  0  0  0  0  0  0  0  0  0  0
   -5.4960    2.5275   -0.1977 O   0  0  0  0  0  0  0  0  0  0  0  0
    1.8855   -1.7074    2.5341 O   0  0  0  0  0  0  0  0  0  0  0  0
    3.0534    2.9770   -1.3131 O   0  0  0  0  0  0  0  0  0  0  0  0
    4.0410   -1.1584    0.6221 O   0  0  0  0  0  0  0  0  0  0  0  0
    0.2075    2.6328   -0.8071 O   0  0  0  0  0  0  0  0  0  0  0  0
   -3.2551    1.0559    0.7582 N   0  0  0  0  0  0  0  0  0  0  0  0
   -2.4998    0.3862    1.8150 C   0  0  0  0  0  0  0  0  0  0  0  0
   -3.4224    2.4841    1.0613 C   0  0  0  0  0  0  0  0  0  0  0  0
   -4.5684    0.4230    0.5741 C   0  0  0  0  0  0  0  0  0  0  0  0
    1.3258   -1.7037    1.2139 C   0  0  0  0  0  0  0  0  0  0  0  0
    1.7481   -0.4384    0.5342 C   0  0  0  0  0  0  0  0  0  0  0  0
    1.7610   -3.0026    0.4997 C   0  0  0  0  0  0  0  0  0  0  0  0
    0.7848    0.5091    0.1785 C   0  0  0  0  0  0  0  0  0  0  0  0
   -1.0204    0.7211    1.7123 C   0  0  0  0  0  0  0  0  0  0  0  0
   -4.2238    3.1588   -0.0484 C   0  0  0  0  0  0  0  0  0  0  0  0
   -5.3418    1.1460   -0.5249 C   0  0  0  0  0  0  0  0  0  0  0  0
    3.1070   -0.2233    0.2666 C   0  0  0  0  0  0  0  0  0  0  0  0
    3.4883    0.9707   -0.3703 C   0  0  0  0  0  0  0  0  0  0  0  0
    1.1757   -3.1940   -0.9057 C   0  0  0  0  0  0  0  0  0  0  0  0
    1.1414    1.7031   -0.4555 C   0  0  0  0  0  0  0  0  0  0  0  0
    2.4994    1.8887   -0.7083 C   0  0  0  0  0  0  0  0  0  0  0  0
   -0.3314   -3.1730   -0.9569 C   0  0  0  0  0  0  0  0  0  0  0  0
    4.7128    1.5464   -0.8007 C   0  0  0  0  0  0  0  0  0  0  0  0
    4.3935    2.7600   -1.3645 C   0  0  0  0  0  0  0  0  0  0  0  0
   -0.9840   -2.7157   -2.1019 C   0  0  0  0  0  0  0  0  0  0  0  0
   -1.0729   -3.6113    0.1404 C   0  0  0  0  0  0  0  0  0  0  0  0
    5.0527   -0.7413    1.5323 C   0  0  0  0  0  0  0  0  0  0  0  0
    0.3387    3.9305   -0.2318 C   0  0  0  0  0  0  0  0  0  0  0  0
   -2.3779   -2.6964   -2.1495 C   0  0  0  0  0  0  0  0  0  0  0  0
   -2.4669   -3.5921    0.0926 C   0  0  0  0  0  0  0  0  0  0  0  0
   -3.1193   -3.1346   -1.0523 C   0  0  0  0  0  0  0  0  0  0  0  0
  1 14  1  0
  1 15  1  0
  2 16  1  0
  2 17  1  0
  3 11  1  0
  4 22  1  0
  4 25  1  0
  5 18  1  0
  5 28  1  0
  6 21  1  0
  6 29  1  0
  7  8  1  0
  7  9  1  0
  7 10  1  0
  8 15  1  0
  9 16  1  0
 10 17  1  0
 11 12  1  0
 11 13  1  0
 12 14  1  0
 12 18  2  0
 13 20  1  0
 14 21  2  0
 18 19  1  0
 19 22  2  0
 19 24  1  0
 20 23  1  0
 21 22  1  0
 23 26  2  0
 23 27  1  0
 24 25  2  0
 26 30  1  0
 27 31  2  0
 30 32  2  0
 31 32  1  0
M  END
>  <PUBCHEM_COMPOUND_CID>  (1) 
38584

>  <PUBCHEM_CONFORMER_RMSD>  (1) 
1

>  <PUBCHEM_CONFORMER_DIVERSEORDER>  (1) 
5
55
122
143
48
121
87
28
44
12
165
18
79
137
133
116
138
88
136
107
25
76
1
146
154
14
91
22
158
65
124
95
114
72
54
111
132
117
41
166
151
29
109
9
73
74
126
60
81
104
98
6
37
157
130
129
57
97
156
128
61
47
24
155
100
92
4
53
75
110
163
70
69
140
27
160
16
167
15
94
162
85
62
99
52
34
115
147
45
113
67
23
32
152
46
144
13
141
35
159
78
68
64
102
153
63
96
11
10
135
148
40
134
3
120
8
112
17
90
142
2
149
139
161
30
84
119
150
77
108
125
31
80
145
19
26
86
118
106
39
101
42
127
20
103
43
164
82
66
7
83
56
105
93
71
51
50
59
131
58
38
21
36
89
33
123
49

>  <PUBCHEM_MMFF94_PARTIAL_CHARGES>  (1) 
38
1 -0.36
10 0.27
11 0.42
12 -0.14
14 0.08
15 0.28
16 0.28
17 0.28
18 0.08
2 -0.56
20 0.14
21 0.08
22 0.14
23 -0.14
24 -0.15
25 -0.01
26 -0.15
27 -0.15
28 0.28
29 0.28
3 -0.68
30 -0.15
31 -0.15
32 -0.15
4 -0.28
5 -0.36
50 0.15
51 0.4
52 0.15
53 0.15
54 0.15
6 -0.36
61 0.15
62 0.15
63 0.15
7 -0.81
8 0.27
9 0.27

>  <PUBCHEM_EFFECTIVE_ROTOR_COUNT>  (1) 
11.2

>  <PUBCHEM_PHARMACOPHORE_FEATURES>  (1) 
12
1 1 acceptor
1 2 acceptor
1 3 acceptor
1 3 donor
1 4 acceptor
1 5 acceptor
1 6 acceptor
1 7 cation
5 4 19 22 24 25 rings
6 12 14 18 19 21 22 rings
6 2 7 9 10 16 17 rings
6 23 26 27 30 31 32 rings

>  <PUBCHEM_HEAVY_ATOM_COUNT>  (1) 
32

>  <PUBCHEM_ATOM_DEF_STEREO_COUNT>  (1) 
0

>  <PUBCHEM_ATOM_UDEF_STEREO_COUNT>  (1) 
1

>  <PUBCHEM_BOND_DEF_STEREO_COUNT>  (1) 
0

>  <PUBCHEM_BOND_UDEF_STEREO_COUNT>  (1) 
0

>  <PUBCHEM_ISOTOPIC_ATOM_COUNT>  (1) 
0

>  <PUBCHEM_COMPONENT_COUNT>  (1) 
1

>  <PUBCHEM_CACTVS_TAUTO_COUNT>  (1) 
1

>  <PUBCHEM_CONFORMER_ID>  (1) 
000096B800000005

>  <PUBCHEM_MMFF94_ENERGY>  (1) 
99.1274

>  <PUBCHEM_FEATURE_SELFOVERLAP>  (1) 
61.01

>  <PUBCHEM_SHAPE_FINGERPRINT>  (1) 
11513181 2 18125167030559531493
12035759 4 17977103788644563286
12422481 6 18126829531191580082
12788726 201 18126849536615864230
13140716 1 18409160043943410602
133893 2 17554634810957100611
1361 2 18266739082979640489
14114206 34 17838603810446203183
14117953 113 18266739069540636780
14251751 93 18269006451574922791
15297060 5 17917994966457662874
15420108 30 18410291411138477296
16752209 62 18057882643883216502
17138139 8 17630296771872754223
17980427 26 17385718110791661616
18681886 176 18340763733162943792
20511986 3 18335126609877352192
20764821 26 16680074307079873911
21860390 5 17969515809181073084
23419403 2 15792554276316506482
23559900 14 17981323391833098113
25147074 1 18261949769564435840
27425 322 17895475813881423275
338550 245 18341045237840525663
35225 105 17917705838328869383
38695281 34 18339091392756122868
4017518 198 17987799597442529726
4066623 53 17481683657526089071
46194498 28 18046909282569631957
563151 97 18047475810241262884
5895379 119 18269829973331813266

>  <PUBCHEM_SHAPE_MULTIPOLES>  (1) 
618.35
9.49
5.74
1.75
2.1
1.42
0.19
-6.92
-0.36
3.22
-1.95
-0.26
0.75
-3.03

>  <PUBCHEM_SHAPE_SELFOVERLAP>  (1) 
1322.619

>  <PUBCHEM_SHAPE_VOLUME>  (1) 
343.9

>  <PUBCHEM_COORDINATE_TYPE>  (1) 
2
5
10

$$$$
