38588
     RDKit          3D

 35 37  0  0  1  0  0  0  0  0999 V2000
   -1.6369   -0.5071    0.4626 O   0  0  0  0  0  0  0  0  0  0  0  0
    0.1893   -0.2371   -2.8101 O   0  0  0  0  0  0  0  0  0  0  0  0
   -0.9749    4.1943    1.3316 O   0  0  0  0  0  0  0  0  0  0  0  0
    1.7399    2.0382   -1.7993 O   0  0  0  0  0  0  0  0  0  0  0  0
   -2.4361    1.7385    1.8861 O   0  0  0  0  0  0  0  0  0  0  0  0
    7.9465   -2.2059    0.6399 O   0  0  0  0  0  0  0  0  0  0  0  0
   -4.9041   -1.9763   -0.3866 N   0  0  0  0  0  0  0  0  0  0  0  0
   -5.5482   -3.2076    0.0776 C   0  0  0  0  0  0  0  0  0  0  0  0
   -5.8526   -0.8609   -0.3391 C   0  0  0  0  0  0  0  0  0  0  0  0
   -3.7224   -1.6816    0.4099 C   0  0  0  0  0  0  0  0  0  0  0  0
   -2.7672   -0.7827   -0.3589 C   0  0  0  0  0  0  0  0  0  0  0  0
    0.0445    0.7651   -0.6640 C   0  0  0  0  0  0  0  0  0  0  0  0
    0.4594   -0.4591   -1.4194 C   0  0  0  0  0  0  0  0  0  0  0  0
   -1.0015    0.6857    0.2589 C   0  0  0  0  0  0  0  0  0  0  0  0
   -5.5267   -3.2735    1.6021 C   0  0  0  0  0  0  0  0  0  0  0  0
   -4.8396   -4.4126   -0.5330 C   0  0  0  0  0  0  0  0  0  0  0  0
   -6.7689   -0.9213   -1.5570 C   0  0  0  0  0  0  0  0  0  0  0  0
   -6.6585   -0.9067    0.9561 C   0  0  0  0  0  0  0  0  0  0  0  0
    1.9497   -0.8405   -1.2778 C   0  0  0  0  0  0  0  0  0  0  0  0
    0.7154    1.9741   -0.8941 C   0  0  0  0  0  0  0  0  0  0  0  0
   -1.4153    1.8070    0.9842 C   0  0  0  0  0  0  0  0  0  0  0  0
    0.3158    3.1146   -0.1756 C   0  0  0  0  0  0  0  0  0  0  0  0
    2.4223   -1.0753    0.1630 C   0  0  0  0  0  0  0  0  0  0  0  0
   -0.7297    2.9944    0.7341 C   0  0  0  0  0  0  0  0  0  0  0  0
    3.8944   -1.3771    0.2903 C   0  0  0  0  0  0  0  0  0  0  0  0
    0.7222    4.4739   -0.1190 C   0  0  0  0  0  0  0  0  0  0  0  0
   -0.0910    5.0833    0.8081 C   0  0  0  0  0  0  0  0  0  0  0  0
    4.8065   -0.3364    0.4654 C   0  0  0  0  0  0  0  0  0  0  0  0
    4.3441   -2.6963    0.2328 C   0  0  0  0  0  0  0  0  0  0  0  0
    1.5758    2.9355   -2.8919 C   0  0  0  0  0  0  0  0  0  0  0  0
    6.1682   -0.6148    0.5831 C   0  0  0  0  0  0  0  0  0  0  0  0
    5.7056   -2.9748    0.3504 C   0  0  0  0  0  0  0  0  0  0  0  0
   -3.5675    2.5719    1.6467 C   0  0  0  0  0  0  0  0  0  0  0  0
    6.6177   -1.9340    0.5257 C   0  0  0  0  0  0  0  0  0  0  0  0
    8.8238   -1.0948    0.8172 C   0  0  0  0  0  0  0  0  0  0  0  0
  1 11  1  0
  1 14  1  0
  2 13  1  0
  3 24  1  0
  3 27  1  0
  4 20  1  0
  4 30  1  0
  5 21  1  0
  5 33  1  0
  6 34  1  0
  6 35  1  0
  7  8  1  0
  7  9  1  0
  7 10  1  0
  8 15  1  0
  8 16  1  0
  9 17  1  0
  9 18  1  0
 10 11  1  0
 12 13  1  0
 12 14  2  0
 12 20  1  0
 13 19  1  0
 14 21  1  0
 19 23  1  0
 20 22  2  0
 21 24  2  0
 22 24  1  0
 22 26  1  0
 23 25  1  0
 25 28  2  0
 25 29  1  0
 26 27  2  0
 28 31  1  0
 29 32  2  0
 31 34  2  0
 32 34  1  0
M  END
>  <PUBCHEM_COMPOUND_CID>  (1) 
38588

>  <PUBCHEM_CONFORMER_RMSD>  (1) 
1.2

>  <PUBCHEM_CONFORMER_DIVERSEORDER>  (1) 
5
65
28
15
55
12
22
59
30
49
63
29
40
7
11
3
20
2
48
35
67
53
54
45
37
50
60
58
27
47
69
36
33
19
57
9
31
24
1
51
66
18
43
39
71
23
61
56
10
44
21
14
41
16
4
26
46
38
13
68
62
32
8
42
52
34
25
70
64
17
6

>  <PUBCHEM_MMFF94_PARTIAL_CHARGES>  (1) 
36
1 -0.36
10 0.27
11 0.28
12 -0.14
13 0.42
14 0.08
2 -0.68
20 0.08
21 0.08
23 0.14
24 0.14
25 -0.14
26 -0.15
27 -0.01
28 -0.15
29 -0.15
3 -0.28
30 0.28
31 -0.15
32 -0.15
33 0.28
34 0.08
35 0.28
4 -0.36
5 -0.36
59 0.15
6 -0.36
60 0.4
61 0.15
62 0.15
63 0.15
67 0.15
68 0.15
7 -0.81
8 0.27
9 0.27

>  <PUBCHEM_EFFECTIVE_ROTOR_COUNT>  (1) 
13

>  <PUBCHEM_PHARMACOPHORE_FEATURES>  (1) 
13
1 1 acceptor
1 2 acceptor
1 2 donor
1 3 acceptor
1 4 acceptor
1 5 acceptor
1 6 acceptor
1 7 cation
3 8 15 16 hydrophobe
3 9 17 18 hydrophobe
5 3 22 24 26 27 rings
6 12 14 20 21 22 24 rings
6 25 28 29 31 32 34 rings

>  <PUBCHEM_HEAVY_ATOM_COUNT>  (1) 
35

>  <PUBCHEM_ATOM_DEF_STEREO_COUNT>  (1) 
0

>  <PUBCHEM_ATOM_UDEF_STEREO_COUNT>  (1) 
1

>  <PUBCHEM_BOND_DEF_STEREO_COUNT>  (1) 
0

>  <PUBCHEM_BOND_UDEF_STEREO_COUNT>  (1) 
0

>  <PUBCHEM_ISOTOPIC_ATOM_COUNT>  (1) 
0

>  <PUBCHEM_COMPONENT_COUNT>  (1) 
1

>  <PUBCHEM_CACTVS_TAUTO_COUNT>  (1) 
1

>  <PUBCHEM_CONFORMER_ID>  (1) 
000096BC00000005

>  <PUBCHEM_MMFF94_ENERGY>  (1) 
133.463

>  <PUBCHEM_FEATURE_SELFOVERLAP>  (1) 
66.083

>  <PUBCHEM_SHAPE_FINGERPRINT>  (1) 
10674148 151 15647048240428097655
11136131 41 17837486715286185729
11456790 92 18336560369820807691
11552529 35 18120652436284868096
11963148 33 17262995266018615879
12166972 35 18040718099221351238
13782708 43 17970352731653333995
14068700 675 18334575741756163150
14150022 121 18201435827641923960
14394314 77 18411418397688104067
14955137 171 18339637940276946159
15911013 46 18410008819422810242
15927050 60 17477486877493260404
16992752 21 18411991265094980118
17686467 74 18412257342808808320
17980427 26 17694212674900696965
18393751 57 17476369296680640456
19319366 153 17689447399926856805
19611394 137 18343298150530561186
21033648 29 16558482889619322231
21120745 212 18265609896926834448
21458453 9 17989479719448381770
21796203 349 18121248572902908291
22956985 138 18195805391098146617
23559900 14 18337663235343450051
2747138 104 18412820284130531890
3552219 110 18261117374626807812
3886686 26 17621326732353927926
469060 322 17968658208071946550
4756261 7 18272085063296110448
5219985 9 18334570244145523638
57527295 17 17978811308949001379
613672 6 18272661138490871111
9896288 288 18127128576878835546

>  <PUBCHEM_SHAPE_MULTIPOLES>  (1) 
680.09
18.22
6.17
1.78
16.32
5.43
-1.04
-26.85
5.03
-2.68
1.28
-0.71
1.13
-2.14

>  <PUBCHEM_SHAPE_SELFOVERLAP>  (1) 
1430.583

>  <PUBCHEM_SHAPE_VOLUME>  (1) 
388.7

>  <PUBCHEM_COORDINATE_TYPE>  (1) 
2
5
10

$$$$
