38589
     RDKit          3D

 33 36  0  0  1  0  0  0  0  0999 V2000
   -0.1549    0.4974    0.9657 O   0  0  0  0  0  0  0  0  0  0  0  0
    0.5420    0.9674   -2.6965 O   0  0  0  0  0  0  0  0  0  0  0  0
    4.5687    0.4327    1.9559 O   0  0  0  0  0  0  0  0  0  0  0  0
    3.1322   -0.3793   -2.4143 O   0  0  0  0  0  0  0  0  0  0  0  0
    1.8317    0.7781    2.8848 O   0  0  0  0  0  0  0  0  0  0  0  0
   -4.5098   -3.0188    1.3393 O   0  0  0  0  0  0  0  0  0  0  0  0
   -2.7863    3.0203    0.4680 N   0  0  0  0  0  0  0  0  0  0  0  0
   -2.1980    3.8402   -0.5907 C   0  0  0  0  0  0  0  0  0  0  0  0
   -4.2135    2.9615    0.1538 C   0  0  0  0  0  0  0  0  0  0  0  0
   -3.2069    4.9682   -0.7495 C   0  0  0  0  0  0  0  0  0  0  0  0
   -4.5307    4.3918   -0.2568 C   0  0  0  0  0  0  0  0  0  0  0  0
   -2.1804    1.6995    0.5493 C   0  0  0  0  0  0  0  0  0  0  0  0
   -0.7003    1.8073    0.8794 C   0  0  0  0  0  0  0  0  0  0  0  0
    1.4866    0.0621   -0.7170 C   0  0  0  0  0  0  0  0  0  0  0  0
    0.3987   -0.0863   -1.7347 C   0  0  0  0  0  0  0  0  0  0  0  0
    1.1601    0.3508    0.6087 C   0  0  0  0  0  0  0  0  0  0  0  0
    0.3951   -1.4303   -2.4963 C   0  0  0  0  0  0  0  0  0  0  0  0
    2.8224   -0.0940   -1.1122 C   0  0  0  0  0  0  0  0  0  0  0  0
    2.1450    0.4949    1.5880 C   0  0  0  0  0  0  0  0  0  0  0  0
    3.8328    0.0462   -0.1446 C   0  0  0  0  0  0  0  0  0  0  0  0
    0.2893   -2.6763   -1.6072 C   0  0  0  0  0  0  0  0  0  0  0  0
    3.4633    0.3341    1.1652 C   0  0  0  0  0  0  0  0  0  0  0  0
   -0.9936   -2.7676   -0.8196 C   0  0  0  0  0  0  0  0  0  0  0  0
    5.2504   -0.0324   -0.1374 C   0  0  0  0  0  0  0  0  0  0  0  0
    5.6455    0.2094    1.1580 C   0  0  0  0  0  0  0  0  0  0  0  0
   -0.9932   -3.4094    0.4093 C   0  0  0  0  0  0  0  0  0  0  0  0
   -2.1515   -2.2083   -1.3379 C   0  0  0  0  0  0  0  0  0  0  0  0
    3.9574    0.5577   -3.0977 C   0  0  0  0  0  0  0  0  0  0  0  0
    2.2399   -0.1678    3.8700 C   0  0  0  0  0  0  0  0  0  0  0  0
   -2.1798   -3.4941    1.1377 C   0  0  0  0  0  0  0  0  0  0  0  0
   -3.3381   -2.2928   -0.6095 C   0  0  0  0  0  0  0  0  0  0  0  0
   -3.3523   -2.9357    0.6284 C   0  0  0  0  0  0  0  0  0  0  0  0
   -5.6716   -2.4266    0.7603 C   0  0  0  0  0  0  0  0  0  0  0  0
  1 13  1  0
  1 16  1  0
  2 15  1  0
  3 22  1  0
  3 25  1  0
  4 18  1  0
  4 28  1  0
  5 19  1  0
  5 29  1  0
  6 32  1  0
  6 33  1  0
  7  8  1  0
  7  9  1  0
  7 12  1  0
  8 10  1  0
  9 11  1  0
 10 11  1  0
 12 13  1  0
 14 15  1  0
 14 16  2  0
 14 18  1  0
 15 17  1  0
 16 19  1  0
 17 21  1  0
 18 20  2  0
 19 22  2  0
 20 22  1  0
 20 24  1  0
 21 23  1  0
 23 26  2  0
 23 27  1  0
 24 25  2  0
 26 30  1  0
 27 31  2  0
 30 32  2  0
 31 32  1  0
M  END
>  <PUBCHEM_COMPOUND_CID>  (1) 
38589

>  <PUBCHEM_CONFORMER_RMSD>  (1) 
1.2

>  <PUBCHEM_CONFORMER_DIVERSEORDER>  (1) 
5
47
1
56
52
24
55
17
64
35
62
57
14
3
42
2
28
31
7
63
41
51
54
65
20
59
58
10
30
43
21
34
6
15
53
32
68
50
60
49
19
16
33
22
29
18
61
48
46
36
9
67
38
13
44
26
40
12
39
66
27
45
11
23
25
4
37
8

>  <PUBCHEM_MMFF94_PARTIAL_CHARGES>  (1) 
36
1 -0.36
12 0.27
13 0.28
14 -0.14
15 0.42
16 0.08
18 0.08
19 0.08
2 -0.68
21 0.14
22 0.14
23 -0.14
24 -0.15
25 -0.01
26 -0.15
27 -0.15
28 0.28
29 0.28
3 -0.28
30 -0.15
31 -0.15
32 0.08
33 0.28
4 -0.36
5 -0.36
51 0.15
52 0.4
53 0.15
54 0.15
55 0.15
6 -0.36
62 0.15
63 0.15
7 -0.81
8 0.27
9 0.27

>  <PUBCHEM_EFFECTIVE_ROTOR_COUNT>  (1) 
12

>  <PUBCHEM_PHARMACOPHORE_FEATURES>  (1) 
12
1 1 acceptor
1 2 acceptor
1 2 donor
1 3 acceptor
1 4 acceptor
1 5 acceptor
1 6 acceptor
1 7 cation
5 3 20 22 24 25 rings
5 7 8 9 10 11 rings
6 14 16 18 19 20 22 rings
6 23 26 27 30 31 32 rings

>  <PUBCHEM_HEAVY_ATOM_COUNT>  (1) 
33

>  <PUBCHEM_ATOM_DEF_STEREO_COUNT>  (1) 
0

>  <PUBCHEM_ATOM_UDEF_STEREO_COUNT>  (1) 
1

>  <PUBCHEM_BOND_DEF_STEREO_COUNT>  (1) 
0

>  <PUBCHEM_BOND_UDEF_STEREO_COUNT>  (1) 
0

>  <PUBCHEM_ISOTOPIC_ATOM_COUNT>  (1) 
0

>  <PUBCHEM_COMPONENT_COUNT>  (1) 
1

>  <PUBCHEM_CACTVS_TAUTO_COUNT>  (1) 
1

>  <PUBCHEM_CONFORMER_ID>  (1) 
000096BD00000005

>  <PUBCHEM_MMFF94_ENERGY>  (1) 
110.0679

>  <PUBCHEM_FEATURE_SELFOVERLAP>  (1) 
61.01

>  <PUBCHEM_SHAPE_FINGERPRINT>  (1) 
10074138 170 18192404455762809496
10305334 12 16258337084218673411
11421498 54 18041847327648902595
12522641 24 16828697514822777297
12597179 24 18128250091006552585
12633257 1 16915668188319681826
12788726 201 18116450304121655471
13165053 103 15690733877646066606
13402501 40 17846504763527485275
15219462 58 18123715817144955794
15406563 190 17681589986016289281
16067690 210 18190462842903105689
16114785 44 17700379685481074620
20600515 1 18053388987426695027
21285901 2 17987539137170592111
22182313 1 17561093496840348356
25223398 141 18412550877225776924
3052486 1 18409169917661845067
35225 105 18127664120054967523
4058900 60 17909833128525913248
469060 322 18266480826870328843
563151 248 17823972334811877186
57124632 79 17689145721946321845
58260988 393 18263922301745880720

>  <PUBCHEM_SHAPE_MULTIPOLES>  (1) 
638.93
10.03
5.58
2.89
2.08
3.18
0.4
2.38
2.31
-13.43
-0.43
3.71
-0.32
1.6

>  <PUBCHEM_SHAPE_SELFOVERLAP>  (1) 
1368.164

>  <PUBCHEM_SHAPE_VOLUME>  (1) 
357.9

>  <PUBCHEM_COORDINATE_TYPE>  (1) 
2
5
10

$$$$
