38594
     RDKit          3D

 30 32  0  0  1  0  0  0  0  0999 V2000
    7.5914   -1.0866    0.7379 F   0  0  0  0  0  0  0  0  0  0  0  0
   -2.1209   -1.0048    0.7024 O   0  0  0  0  0  0  0  0  0  0  0  0
   -0.4153   -0.8255   -2.6409 O   0  0  0  0  0  0  0  0  0  0  0  0
   -2.2348    3.8106    1.0119 O   0  0  0  0  0  0  0  0  0  0  0  0
    0.7517    1.7745   -1.9473 O   0  0  0  0  0  0  0  0  0  0  0  0
   -3.2596    1.2314    1.8901 O   0  0  0  0  0  0  0  0  0  0  0  0
   -4.6205   -3.5414   -0.2315 N   0  0  0  0  0  0  0  0  0  0  0  0
   -0.0908   -0.8362   -1.2441 C   0  0  0  0  0  0  0  0  0  0  0  0
   -0.6914    0.3838   -0.6179 C   0  0  0  0  0  0  0  0  0  0  0  0
    1.4442   -0.9504   -1.1118 C   0  0  0  0  0  0  0  0  0  0  0  0
   -1.6954    0.2435    0.3436 C   0  0  0  0  0  0  0  0  0  0  0  0
   -0.2340    1.6507   -1.0059 C   0  0  0  0  0  0  0  0  0  0  0  0
    1.9712   -0.9348    0.3292 C   0  0  0  0  0  0  0  0  0  0  0  0
   -0.8061    2.7869   -0.4074 C   0  0  0  0  0  0  0  0  0  0  0  0
   -2.2784    1.3594    0.9516 C   0  0  0  0  0  0  0  0  0  0  0  0
   -1.8031    2.6051    0.5456 C   0  0  0  0  0  0  0  0  0  0  0  0
    3.4747   -0.9756    0.4389 C   0  0  0  0  0  0  0  0  0  0  0  0
   -0.6301    4.1914   -0.5186 C   0  0  0  0  0  0  0  0  0  0  0  0
   -3.2023   -1.5552   -0.0433 C   0  0  0  0  0  0  0  0  0  0  0  0
   -3.5070   -2.9453    0.4915 C   0  0  0  0  0  0  0  0  0  0  0  0
   -1.5188    4.7644    0.3613 C   0  0  0  0  0  0  0  0  0  0  0  0
    4.2045    0.2128    0.4640 C   0  0  0  0  0  0  0  0  0  0  0  0
    4.1358   -2.2017    0.5147 C   0  0  0  0  0  0  0  0  0  0  0  0
    0.4242    2.4991   -3.1279 C   0  0  0  0  0  0  0  0  0  0  0  0
    5.5951    0.1754    0.5650 C   0  0  0  0  0  0  0  0  0  0  0  0
    5.5264   -2.2392    0.6157 C   0  0  0  0  0  0  0  0  0  0  0  0
   -2.8445    1.1332    3.2504 C   0  0  0  0  0  0  0  0  0  0  0  0
    6.2561   -1.0506    0.6410 C   0  0  0  0  0  0  0  0  0  0  0  0
   -4.1751   -4.0743   -1.5214 C   0  0  0  0  0  0  0  0  0  0  0  0
   -5.2471   -4.6004    0.5634 C   0  0  0  0  0  0  0  0  0  0  0  0
  1 28  1  0
  2 11  1  0
  2 19  1  0
  3  8  1  0
  4 16  1  0
  4 21  1  0
  5 12  1  0
  5 24  1  0
  6 15  1  0
  6 27  1  0
  7 20  1  0
  7 29  1  0
  7 30  1  0
  8  9  1  0
  8 10  1  0
  9 11  1  0
  9 12  2  0
 10 13  1  0
 11 15  2  0
 12 14  1  0
 13 17  1  0
 14 16  2  0
 14 18  1  0
 15 16  1  0
 17 22  2  0
 17 23  1  0
 18 21  2  0
 19 20  1  0
 22 25  1  0
 23 26  2  0
 25 28  2  0
 26 28  1  0
M  END
>  <PUBCHEM_COMPOUND_CID>  (1) 
38594

>  <PUBCHEM_CONFORMER_RMSD>  (1) 
1

>  <PUBCHEM_CONFORMER_DIVERSEORDER>  (1) 
5
77
47
9
53
62
16
20
32
57
11
13
46
51
70
7
45
34
23
12
1
40
76
41
56
49
48
83
35
10
19
33
17
87
88
18
81
42
50
61
55
25
59
54
66
52
24
22
69
64
68
2
75
15
78
4
58
71
43
73
85
89
79
90
72
30
37
60
28
63
6
3
39
27
36
44
8
14
38
21
82
74
84
26
65
29
80
86
31
67
91

>  <PUBCHEM_MMFF94_PARTIAL_CHARGES>  (1) 
35
1 -0.19
11 0.08
12 0.08
13 0.14
15 0.08
16 0.14
17 -0.14
18 -0.15
19 0.28
2 -0.36
20 0.27
21 -0.01
22 -0.15
23 -0.15
24 0.28
25 -0.15
26 -0.15
27 0.28
28 0.19
29 0.27
3 -0.68
30 0.27
36 0.15
39 0.4
4 -0.28
42 0.15
43 0.15
44 0.15
48 0.15
49 0.15
5 -0.36
6 -0.36
7 -0.81
8 0.42
9 -0.14

>  <PUBCHEM_EFFECTIVE_ROTOR_COUNT>  (1) 
10

>  <PUBCHEM_PHARMACOPHORE_FEATURES>  (1) 
10
1 2 acceptor
1 3 acceptor
1 3 donor
1 4 acceptor
1 5 acceptor
1 6 acceptor
1 7 cation
5 4 14 16 18 21 rings
6 17 22 23 25 26 28 rings
6 9 11 12 14 15 16 rings

>  <PUBCHEM_HEAVY_ATOM_COUNT>  (1) 
30

>  <PUBCHEM_ATOM_DEF_STEREO_COUNT>  (1) 
0

>  <PUBCHEM_ATOM_UDEF_STEREO_COUNT>  (1) 
1

>  <PUBCHEM_BOND_DEF_STEREO_COUNT>  (1) 
0

>  <PUBCHEM_BOND_UDEF_STEREO_COUNT>  (1) 
0

>  <PUBCHEM_ISOTOPIC_ATOM_COUNT>  (1) 
0

>  <PUBCHEM_COMPONENT_COUNT>  (1) 
1

>  <PUBCHEM_CACTVS_TAUTO_COUNT>  (1) 
1

>  <PUBCHEM_CONFORMER_ID>  (1) 
000096C200000005

>  <PUBCHEM_MMFF94_ENERGY>  (1) 
96.9269

>  <PUBCHEM_FEATURE_SELFOVERLAP>  (1) 
50.857

>  <PUBCHEM_SHAPE_FINGERPRINT>  (1) 
10319688 77 18335421326586005849
11370993 144 17831580877935020232
11552529 35 18264201431496030058
11763715 3 18263097616200253812
12633257 1 18200605687335324472
13004483 165 18339913905016610619
131258 43 18122083141515358062
14068700 675 18335699502590457515
14674994 50 18115017511985719933
14784336 7 18047770474740851636
14844126 61 18262242118818150329
15950262 2 14833894391989980523
17980427 26 16901013497569931197
18393751 57 17908995300897806361
21120745 212 18409449189220034666
21796203 349 17903948843000062291
469060 322 18040991835120532098
5104073 3 18192695767237891346
5265222 85 17040676818804727279
7288768 16 17272020761337217721
9981440 41 17760653560028106537

>  <PUBCHEM_SHAPE_MULTIPOLES>  (1) 
575.78
11.79
6.16
2.13
20.89
1.62
-0.48
-16.18
5.2
-10.19
-0.49
-1.48
1.18
-2.34

>  <PUBCHEM_SHAPE_SELFOVERLAP>  (1) 
1223.248

>  <PUBCHEM_SHAPE_VOLUME>  (1) 
325.9

>  <PUBCHEM_COORDINATE_TYPE>  (1) 
2
5
10

$$$$
