38592
     RDKit          3D

 31 33  0  0  1  0  0  0  0  0999 V2000
    4.5545    0.4891    2.3027 Cl  0  0  0  0  0  0  0  0  0  0  0  0
    5.9270   -0.5888   -0.4227 Cl  0  0  0  0  0  0  0  0  0  0  0  0
   -0.1362   -0.9958    1.0630 O   0  0  0  0  0  0  0  0  0  0  0  0
   -0.8141    2.6570    1.6087 O   0  0  0  0  0  0  0  0  0  0  0  0
   -4.7228   -1.7500   -0.2376 O   0  0  0  0  0  0  0  0  0  0  0  0
   -2.9908    2.5868   -0.3562 O   0  0  0  0  0  0  0  0  0  0  0  0
   -2.1893   -2.8301    0.7051 O   0  0  0  0  0  0  0  0  0  0  0  0
    2.7070   -2.8711   -0.3346 N   0  0  0  0  0  0  0  0  0  0  0  0
   -0.4405    1.7589    0.5552 C   0  0  0  0  0  0  0  0  0  0  0  0
   -1.5617    0.7875    0.3537 C   0  0  0  0  0  0  0  0  0  0  0  0
   -0.0747    2.5978   -0.6894 C   0  0  0  0  0  0  0  0  0  0  0  0
   -1.3572   -0.5685    0.6215 C   0  0  0  0  0  0  0  0  0  0  0  0
   -2.8027    1.2557   -0.0995 C   0  0  0  0  0  0  0  0  0  0  0  0
    1.3035    3.2699   -0.6331 C   0  0  0  0  0  0  0  0  0  0  0  0
   -3.8465    0.3317   -0.2819 C   0  0  0  0  0  0  0  0  0  0  0  0
   -2.3808   -1.5046    0.4471 C   0  0  0  0  0  0  0  0  0  0  0  0
   -3.6029   -1.0094   -0.0044 C   0  0  0  0  0  0  0  0  0  0  0  0
    2.4605    2.3049   -0.5637 C   0  0  0  0  0  0  0  0  0  0  0  0
   -5.1990    0.3979   -0.7089 C   0  0  0  0  0  0  0  0  0  0  0  0
    0.8097   -1.3782    0.0694 C   0  0  0  0  0  0  0  0  0  0  0  0
    1.7316   -2.4364    0.6540 C   0  0  0  0  0  0  0  0  0  0  0  0
   -5.6832   -0.8889   -0.6640 C   0  0  0  0  0  0  0  0  0  0  0  0
    2.9379    1.8760    0.6747 C   0  0  0  0  0  0  0  0  0  0  0  0
    3.0526    1.8409   -1.7382 C   0  0  0  0  0  0  0  0  0  0  0  0
   -4.0001    3.2494    0.3976 C   0  0  0  0  0  0  0  0  0  0  0  0
    4.0075    0.9828    0.7387 C   0  0  0  0  0  0  0  0  0  0  0  0
    4.1224    0.9479   -1.6743 C   0  0  0  0  0  0  0  0  0  0  0  0
   -2.3783   -3.7340   -0.3809 C   0  0  0  0  0  0  0  0  0  0  0  0
    4.5998    0.5189   -0.4359 C   0  0  0  0  0  0  0  0  0  0  0  0
    2.1013   -3.8096   -1.2824 C   0  0  0  0  0  0  0  0  0  0  0  0
    3.8656   -3.4876    0.3163 C   0  0  0  0  0  0  0  0  0  0  0  0
  1 26  1  0
  2 29  1  0
  3 12  1  0
  3 20  1  0
  4  9  1  0
  5 17  1  0
  5 22  1  0
  6 13  1  0
  6 25  1  0
  7 16  1  0
  7 28  1  0
  8 21  1  0
  8 30  1  0
  8 31  1  0
  9 10  1  0
  9 11  1  0
 10 12  1  0
 10 13  2  0
 11 14  1  0
 12 16  2  0
 13 15  1  0
 14 18  1  0
 15 17  2  0
 15 19  1  0
 16 17  1  0
 18 23  2  0
 18 24  1  0
 19 22  2  0
 20 21  1  0
 23 26  1  0
 24 27  2  0
 26 29  2  0
 27 29  1  0
M  END
>  <PUBCHEM_COMPOUND_CID>  (1) 
38592

>  <PUBCHEM_CONFORMER_RMSD>  (1) 
1

>  <PUBCHEM_CONFORMER_DIVERSEORDER>  (1) 
3
12
29
28
145
16
118
35
1
146
59
20
182
135
125
132
90
41
109
2
32
49
58
82
89
151
152
53
27
60
62
30
124
98
138
126
162
176
25
9
38
39
114
85
79
76
171
86
157
46
84
63
72
111
102
173
33
158
24
100
165
57
180
23
78
154
148
43
96
129
143
11
155
183
88
113
5
185
97
37
75
110
55
70
93
99
15
168
181
19
122
77
10
73
103
161
7
80
51
8
121
105
128
91
101
66
153
170
4
164
144
116
127
47
147
106
178
83
42
56
14
17
163
94
65
156
112
67
137
119
179
133
52
64
31
172
136
34
142
104
45
177
48
36
141
95
68
120
150
160
184
81
69
166
40
87
108
115
117
6
131
50
174
130
139
44
134
61
22
167
18
175
26
107
186
123
149
21
71
74
169
54
159
140
13
92

>  <PUBCHEM_MMFF94_PARTIAL_CHARGES>  (1) 
35
1 -0.18
10 -0.14
12 0.08
13 0.08
14 0.14
16 0.08
17 0.14
18 -0.14
19 -0.15
2 -0.18
20 0.28
21 0.27
22 -0.01
23 -0.15
24 -0.15
25 0.28
26 0.18
27 -0.15
28 0.28
29 0.18
3 -0.36
30 0.27
31 0.27
37 0.15
4 -0.68
40 0.4
43 0.15
44 0.15
45 0.15
49 0.15
5 -0.28
6 -0.36
7 -0.36
8 -0.81
9 0.42

>  <PUBCHEM_EFFECTIVE_ROTOR_COUNT>  (1) 
10

>  <PUBCHEM_PHARMACOPHORE_FEATURES>  (1) 
10
1 3 acceptor
1 4 acceptor
1 4 donor
1 5 acceptor
1 6 acceptor
1 7 acceptor
1 8 cation
5 5 15 17 19 22 rings
6 10 12 13 15 16 17 rings
6 18 23 24 26 27 29 rings

>  <PUBCHEM_HEAVY_ATOM_COUNT>  (1) 
31

>  <PUBCHEM_ATOM_DEF_STEREO_COUNT>  (1) 
0

>  <PUBCHEM_ATOM_UDEF_STEREO_COUNT>  (1) 
1

>  <PUBCHEM_BOND_DEF_STEREO_COUNT>  (1) 
0

>  <PUBCHEM_BOND_UDEF_STEREO_COUNT>  (1) 
0

>  <PUBCHEM_ISOTOPIC_ATOM_COUNT>  (1) 
0

>  <PUBCHEM_COMPONENT_COUNT>  (1) 
1

>  <PUBCHEM_CACTVS_TAUTO_COUNT>  (1) 
1

>  <PUBCHEM_CONFORMER_ID>  (1) 
000096C000000003

>  <PUBCHEM_MMFF94_ENERGY>  (1) 
99.4264

>  <PUBCHEM_FEATURE_SELFOVERLAP>  (1) 
50.857

>  <PUBCHEM_SHAPE_FINGERPRINT>  (1) 
10675989 125 16034630877680885046
10693767 8 17769079487468479103
11513181 2 18200030621157913487
12422481 6 18120911964010332346
13140716 1 17979357783186504705
13617811 41 18336818780390771029
14117953 113 18409725149643743886
14790565 3 17619354199708987097
15219462 58 16988848297555982139
16112460 7 18198072387397597537
16114785 44 15904855418399063640
16752209 62 18337115660819235776
17349148 13 18335979839279314024
17909252 39 18272937081306740618
18681886 176 18337110176816009072
19591789 44 17834961149977435619
20691752 17 17386295263838193112
20764821 26 18190470350632481142
20775438 99 17471247848705636429
20905425 154 18267873770494819300
21781051 124 17969225706580591643
23559900 14 18411697664692635794
23566358 2 18335693898037502949
3004659 81 18113333150466701228
3298306 158 18338797930805309639
338550 245 18334018250579815020
350125 39 18408885110524300961
3680242 22 18259981569781439113
4280585 95 17975690589717148674
44062 13 18264490770378725927
460360 51 18260840250156516745
463206 1 18199185264145953215
508706 21 18261682488663315358
57527585 103 17679338288331577906
59755656 215 18409729556501748326

>  <PUBCHEM_SHAPE_MULTIPOLES>  (1) 
607.38
11.51
4.87
1.34
1.25
2.46
0.19
1
-1.33
-0.46
-0.59
-1.6
-0.36
-0.38

>  <PUBCHEM_SHAPE_SELFOVERLAP>  (1) 
1272.278

>  <PUBCHEM_SHAPE_VOLUME>  (1) 
348.8

>  <PUBCHEM_COORDINATE_TYPE>  (1) 
2
5
10

$$$$
