38595
     RDKit          3D

 30 32  0  0  1  0  0  0  0  0999 V2000
   -2.1215   -1.0050    0.7025 O   0  0  0  0  0  0  0  0  0  0  0  0
   -0.4163   -0.8255   -2.6410 O   0  0  0  0  0  0  0  0  0  0  0  0
   -2.2355    3.8103    1.0122 O   0  0  0  0  0  0  0  0  0  0  0  0
    0.7506    1.7745   -1.9475 O   0  0  0  0  0  0  0  0  0  0  0  0
   -3.2601    1.2311    1.8905 O   0  0  0  0  0  0  0  0  0  0  0  0
    7.6125   -1.0860    0.7387 O   0  0  0  0  0  0  0  0  0  0  0  0
   -4.6211   -3.5417   -0.2311 N   0  0  0  0  0  0  0  0  0  0  0  0
   -0.0917   -0.8363   -1.2443 C   0  0  0  0  0  0  0  0  0  0  0  0
   -0.6922    0.3837   -0.6179 C   0  0  0  0  0  0  0  0  0  0  0  0
    1.4433   -0.9504   -1.1122 C   0  0  0  0  0  0  0  0  0  0  0  0
   -1.6961    0.2433    0.3437 C   0  0  0  0  0  0  0  0  0  0  0  0
   -0.2349    1.6506   -1.0059 C   0  0  0  0  0  0  0  0  0  0  0  0
    1.9705   -0.9349    0.3287 C   0  0  0  0  0  0  0  0  0  0  0  0
   -0.8070    2.7868   -0.4073 C   0  0  0  0  0  0  0  0  0  0  0  0
   -2.2790    1.3592    0.9518 C   0  0  0  0  0  0  0  0  0  0  0  0
   -1.8038    2.6049    0.5458 C   0  0  0  0  0  0  0  0  0  0  0  0
    3.4741   -0.9756    0.4382 C   0  0  0  0  0  0  0  0  0  0  0  0
   -0.6310    4.1913   -0.5185 C   0  0  0  0  0  0  0  0  0  0  0  0
   -3.2030   -1.5554   -0.0430 C   0  0  0  0  0  0  0  0  0  0  0  0
   -3.5076   -2.9456    0.4918 C   0  0  0  0  0  0  0  0  0  0  0  0
   -1.5196    4.7642    0.3615 C   0  0  0  0  0  0  0  0  0  0  0  0
    4.2035    0.2131    0.4632 C   0  0  0  0  0  0  0  0  0  0  0  0
    4.1356   -2.2014    0.5144 C   0  0  0  0  0  0  0  0  0  0  0  0
    0.4229    2.4991   -3.1280 C   0  0  0  0  0  0  0  0  0  0  0  0
    5.5941    0.1761    0.5643 C   0  0  0  0  0  0  0  0  0  0  0  0
    5.5261   -2.2385    0.6155 C   0  0  0  0  0  0  0  0  0  0  0  0
    6.2554   -1.0497    0.6405 C   0  0  0  0  0  0  0  0  0  0  0  0
   -2.8447    1.1329    3.2507 C   0  0  0  0  0  0  0  0  0  0  0  0
   -5.2476   -4.6007    0.5639 C   0  0  0  0  0  0  0  0  0  0  0  0
   -4.1759   -4.0745   -1.5211 C   0  0  0  0  0  0  0  0  0  0  0  0
  1 11  1  0
  1 19  1  0
  2  8  1  0
  3 16  1  0
  3 21  1  0
  4 12  1  0
  4 24  1  0
  5 15  1  0
  5 28  1  0
  6 27  1  0
  7 20  1  0
  7 29  1  0
  7 30  1  0
  8  9  1  0
  8 10  1  0
  9 11  1  0
  9 12  2  0
 10 13  1  0
 11 15  2  0
 12 14  1  0
 13 17  1  0
 14 16  2  0
 14 18  1  0
 15 16  1  0
 17 22  2  0
 17 23  1  0
 18 21  2  0
 19 20  1  0
 22 25  1  0
 23 26  2  0
 25 27  2  0
 26 27  1  0
M  END
>  <PUBCHEM_COMPOUND_CID>  (1) 
38595

>  <PUBCHEM_CONFORMER_RMSD>  (1) 
1

>  <PUBCHEM_CONFORMER_DIVERSEORDER>  (1) 
4
24
11
61
84
41
18
52
85
34
54
39
69
15
43
71
57
30
22
49
36
62
20
60
59
1
78
74
42
10
64
25
37
48
12
67
53
83
65
82
51
14
35
66
6
7
8
9
55
2
73
77
75
21
19
50
79
13
47
23
40
70
46
44
33
56
38
28
86
26
3
32
63
31
81
68
17
27
76
80
29
58
45
5
16
72

>  <PUBCHEM_MMFF94_PARTIAL_CHARGES>  (1) 
36
1 -0.36
11 0.08
12 0.08
13 0.14
15 0.08
16 0.14
17 -0.14
18 -0.15
19 0.28
2 -0.68
20 0.27
21 -0.01
22 -0.15
23 -0.15
24 0.28
25 -0.15
26 -0.15
27 0.08
28 0.28
29 0.27
3 -0.28
30 0.27
36 0.15
39 0.4
4 -0.36
42 0.15
43 0.15
44 0.15
48 0.15
49 0.15
5 -0.36
59 0.45
6 -0.53
7 -0.81
8 0.42
9 -0.14

>  <PUBCHEM_EFFECTIVE_ROTOR_COUNT>  (1) 
10

>  <PUBCHEM_PHARMACOPHORE_FEATURES>  (1) 
11
1 1 acceptor
1 2 acceptor
1 2 donor
1 3 acceptor
1 4 acceptor
1 5 acceptor
1 6 donor
1 7 cation
5 3 14 16 18 21 rings
6 17 22 23 25 26 27 rings
6 9 11 12 14 15 16 rings

>  <PUBCHEM_HEAVY_ATOM_COUNT>  (1) 
30

>  <PUBCHEM_ATOM_DEF_STEREO_COUNT>  (1) 
0

>  <PUBCHEM_ATOM_UDEF_STEREO_COUNT>  (1) 
1

>  <PUBCHEM_BOND_DEF_STEREO_COUNT>  (1) 
0

>  <PUBCHEM_BOND_UDEF_STEREO_COUNT>  (1) 
0

>  <PUBCHEM_ISOTOPIC_ATOM_COUNT>  (1) 
0

>  <PUBCHEM_COMPONENT_COUNT>  (1) 
1

>  <PUBCHEM_CACTVS_TAUTO_COUNT>  (1) 
2

>  <PUBCHEM_CONFORMER_ID>  (1) 
000096C300000004

>  <PUBCHEM_MMFF94_ENERGY>  (1) 
98.9168

>  <PUBCHEM_FEATURE_SELFOVERLAP>  (1) 
55.932

>  <PUBCHEM_SHAPE_FINGERPRINT>  (1) 
10319688 77 18335702801562710017
11370993 144 17831580873645334176
11552529 35 18336259025533932010
11763715 3 18263097616200253812
12633257 1 18200605687335324464
13004483 165 18340195384288288571
131258 43 18122083141520632798
14068700 675 18335418027582072363
14674994 50 18115017516280687229
14784336 7 18047769375239773356
14844126 61 18262242118823425081
15950262 2 14833894391989980523
18393751 57 17908995300892531601
21120745 212 18409449189209485170
21796203 349 17903948843000055803
469060 322 18040991835125800346
5104073 3 18192414292266442450
5265222 85 17040676823104962839
7288768 16 17272020761331942969
9981440 41 17760653560028106537

>  <PUBCHEM_SHAPE_MULTIPOLES>  (1) 
577.19
11.91
6.15
2.13
21.56
1.54
-0.48
-16.13
5.25
-10.36
-0.5
-1.52
1.18
-2.31

>  <PUBCHEM_SHAPE_SELFOVERLAP>  (1) 
1225.78

>  <PUBCHEM_SHAPE_VOLUME>  (1) 
326.3

>  <PUBCHEM_COORDINATE_TYPE>  (1) 
2
5
10

$$$$
