3859
     RDKit          3D

 15 14  0  0  1  0  0  0  0  0999 V2000
   -1.1989    0.7196   -0.3181 S   0  0  0  0  0  0  0  0  0  0  0  0
   -1.4052    2.0110    0.3204 O   0  0  0  0  0  0  0  0  0  0  0  0
    3.1296   -1.1955   -1.5163 O   0  0  0  0  0  0  0  0  0  0  0  0
    3.2005   -2.0276    0.5818 O   0  0  0  0  0  0  0  0  0  0  0  0
    2.9621    0.3587    1.7661 N   0  0  0  0  0  0  0  0  0  0  0  0
   -1.1920    0.4788   -1.8472 N   0  0  0  0  0  0  0  0  0  0  0  0
    0.3191    0.0697    0.3106 C   0  0  0  0  0  0  0  0  0  0  0  0
    1.5100    0.8940   -0.1702 C   0  0  0  0  0  0  0  0  0  0  0  0
    2.8941    0.3886    0.2976 C   0  0  0  0  0  0  0  0  0  0  0  0
   -2.4133   -0.3871    0.3665 C   0  0  0  0  0  0  0  0  0  0  0  0
   -3.8203    0.0017   -0.0602 C   0  0  0  0  0  0  0  0  0  0  0  0
    4.0513    1.2628   -0.2007 C   0  0  0  0  0  0  0  0  0  0  0  0
   -4.8625   -0.9371    0.5442 C   0  0  0  0  0  0  0  0  0  0  0  0
    3.0933   -1.0611   -0.1644 C   0  0  0  0  0  0  0  0  0  0  0  0
   -6.2678   -0.5763    0.0897 C   0  0  0  0  0  0  0  0  0  0  0  0
  1  2  2  0
  1  6  2  0
  1  7  1  0
  1 10  1  0
  3 14  1  0
  4 14  2  0
  5  9  1  0
  7  8  1  0
  8  9  1  0
  9 12  1  0
  9 14  1  0
 10 11  1  0
 11 13  1  0
 13 15  1  0
M  END
>  <PUBCHEM_COMPOUND_CID>  (1) 
3859

>  <PUBCHEM_CONFORMER_RMSD>  (1) 
0.8

>  <PUBCHEM_CONFORMER_DIVERSEORDER>  (1) 
5
32
49
9
34
47
28
19
37
60
12
22
23
53
30
7
21
59
25
20
10
54
36
48
8
41
56
24
33
29
50
55
57
13
43
16
1
52
15
42
17
2
11
38
44
3
31
58
6
26
35
18
14
45
4
51
27
40
46
39

>  <PUBCHEM_MMFF94_PARTIAL_CHARGES>  (1) 
14
1 1.03
10 0.11
14 0.66
2 -0.65
29 0.36
3 -0.65
30 0.36
31 0.4
35 0.5
4 -0.57
5 -0.99
6 -0.99
7 0.11
9 0.33

>  <PUBCHEM_EFFECTIVE_ROTOR_COUNT>  (1) 
7

>  <PUBCHEM_PHARMACOPHORE_FEATURES>  (1) 
7
1 15 hydrophobe
1 2 acceptor
1 3 acceptor
1 4 acceptor
1 5 cation
1 5 donor
3 3 4 14 anion

>  <PUBCHEM_HEAVY_ATOM_COUNT>  (1) 
15

>  <PUBCHEM_ATOM_DEF_STEREO_COUNT>  (1) 
0

>  <PUBCHEM_ATOM_UDEF_STEREO_COUNT>  (1) 
1

>  <PUBCHEM_BOND_DEF_STEREO_COUNT>  (1) 
0

>  <PUBCHEM_BOND_UDEF_STEREO_COUNT>  (1) 
0

>  <PUBCHEM_ISOTOPIC_ATOM_COUNT>  (1) 
0

>  <PUBCHEM_COMPONENT_COUNT>  (1) 
1

>  <PUBCHEM_CACTVS_TAUTO_COUNT>  (1) 
1

>  <PUBCHEM_CONFORMER_ID>  (1) 
00000F1300000005

>  <PUBCHEM_MMFF94_ENERGY>  (1) 
8.7301

>  <PUBCHEM_FEATURE_SELFOVERLAP>  (1) 
35.582

>  <PUBCHEM_SHAPE_FINGERPRINT>  (1) 
11287383 113 8214139656043304425
11543360 7 14201404914883680291
122479 349 11383824983214158677
12616999 72 18187370939133784350
12932764 1 17346304999760718416
13533116 47 17632865200601773775
14252887 29 18333734636619577288
14366163 111 12901544659250819303
14573314 32 18260261928889624437
15885798 251 18410012135332455217
17834072 33 18341613780289453829
187816 3 13551465973776104421
192875 21 13045935802985463484
20279233 1 17894636971606981306
20645477 70 18412547582954387782
20671657 53 17022899073398766965
212847 35 11383839276686030322
22224240 67 18267294508261103472
22485316 2 18411417341151782027
23402539 116 10809336780735922217
23557571 272 17240193322944598148
23590187 173 9295292716226286015
2871803 45 18040718043312975307
3060560 45 14201407058283747618
31174 14 17846491556365997664
3286 77 18261954033934360094
42 15 18060142029062242363
465052 167 18131641105595482679
522135 26 17418097619859128302
5374978 207 17561081406243581587
621550 34 18187356675394874956
8030462 33 14996285756526215356
94968 8 18408890611828443086

>  <PUBCHEM_SHAPE_MULTIPOLES>  (1) 
284.97
11.07
1.51
1.15
13.65
0.14
-0.2
3.21
0.93
-1.12
0.03
-0.7
0.03
0.41

>  <PUBCHEM_SHAPE_SELFOVERLAP>  (1) 
527.165

>  <PUBCHEM_SHAPE_VOLUME>  (1) 
180.4

>  <PUBCHEM_COORDINATE_TYPE>  (1) 
2
5
10

$$$$
