38603
     RDKit          3D

 31 33  0  0  1  0  0  0  0  0999 V2000
   -0.0706   -1.0267    0.9872 O   0  0  0  0  0  0  0  0  0  0  0  0
   -0.5496    2.6653    1.4765 O   0  0  0  0  0  0  0  0  0  0  0  0
   -4.7430   -1.5870   -0.0860 O   0  0  0  0  0  0  0  0  0  0  0  0
   -2.8159    2.6578   -0.3856 O   0  0  0  0  0  0  0  0  0  0  0  0
   -2.2222   -2.7673    0.7662 O   0  0  0  0  0  0  0  0  0  0  0  0
    4.6432    0.3278    1.6240 O   0  0  0  0  0  0  0  0  0  0  0  0
    2.6132   -3.0664   -0.4929 N   0  0  0  0  0  0  0  0  0  0  0  0
   -0.2679    1.7279    0.4286 C   0  0  0  0  0  0  0  0  0  0  0  0
   -1.4418    0.8075    0.3012 C   0  0  0  0  0  0  0  0  0  0  0  0
    0.0788    2.5212   -0.8507 C   0  0  0  0  0  0  0  0  0  0  0  0
   -1.2892   -0.5507    0.5915 C   0  0  0  0  0  0  0  0  0  0  0  0
    1.4883    3.1272   -0.8729 C   0  0  0  0  0  0  0  0  0  0  0  0
   -2.6791    1.3250   -0.1063 C   0  0  0  0  0  0  0  0  0  0  0  0
   -3.7726    0.4487   -0.2193 C   0  0  0  0  0  0  0  0  0  0  0  0
   -2.3629   -1.4400    0.4859 C   0  0  0  0  0  0  0  0  0  0  0  0
   -3.5798   -0.8963    0.0786 C   0  0  0  0  0  0  0  0  0  0  0  0
    2.6005    2.1093   -0.8331 C   0  0  0  0  0  0  0  0  0  0  0  0
   -5.1388    0.5708   -0.5860 C   0  0  0  0  0  0  0  0  0  0  0  0
    0.8092   -1.4755   -0.0389 C   0  0  0  0  0  0  0  0  0  0  0  0
    1.7063   -2.5641    0.5283 C   0  0  0  0  0  0  0  0  0  0  0  0
   -5.6805   -0.6900   -0.4888 C   0  0  0  0  0  0  0  0  0  0  0  0
    3.1141    1.6846    0.3922 C   0  0  0  0  0  0  0  0  0  0  0  0
    3.1153    1.5925   -2.0220 C   0  0  0  0  0  0  0  0  0  0  0  0
    4.1425    0.7429    0.4287 C   0  0  0  0  0  0  0  0  0  0  0  0
    4.1438    0.6509   -1.9856 C   0  0  0  0  0  0  0  0  0  0  0  0
   -3.7568    3.3843    0.3972 C   0  0  0  0  0  0  0  0  0  0  0  0
    4.6573    0.2262   -0.7602 C   0  0  0  0  0  0  0  0  0  0  0  0
   -2.5038   -3.6842   -0.2883 C   0  0  0  0  0  0  0  0  0  0  0  0
    3.7704   -3.7238    0.1193 C   0  0  0  0  0  0  0  0  0  0  0  0
    1.9206   -3.9949   -1.3897 C   0  0  0  0  0  0  0  0  0  0  0  0
    4.0710    0.8969    2.8009 C   0  0  0  0  0  0  0  0  0  0  0  0
  1 11  1  0
  1 19  1  0
  2  8  1  0
  3 16  1  0
  3 21  1  0
  4 13  1  0
  4 26  1  0
  5 15  1  0
  5 28  1  0
  6 24  1  0
  6 31  1  0
  7 20  1  0
  7 29  1  0
  7 30  1  0
  8  9  1  0
  8 10  1  0
  9 11  1  0
  9 13  2  0
 10 12  1  0
 11 15  2  0
 12 17  1  0
 13 14  1  0
 14 16  2  0
 14 18  1  0
 15 16  1  0
 17 22  2  0
 17 23  1  0
 18 21  2  0
 19 20  1  0
 22 24  1  0
 23 25  2  0
 24 27  2  0
 25 27  1  0
M  END
>  <PUBCHEM_COMPOUND_CID>  (1) 
38603

>  <PUBCHEM_CONFORMER_RMSD>  (1) 
1

>  <PUBCHEM_CONFORMER_DIVERSEORDER>  (1) 
3
159
102
70
1
2
201
20
150
182
66
19
7
185
112
180
13
170
181
200
156
4
195
54
123
34
37
53
73
92
24
86
108
162
10
101
69
190
72
189
148
87
142
63
119
39
89
71
113
76
32
52
100
105
44
114
199
116
147
84
117
51
36
74
67
177
29
136
88
46
58
26
176
124
45
56
85
143
77
41
135
188
31
11
95
192
60
128
15
169
138
30
94
91
110
27
83
152
133
17
33
79
75
16
186
9
107
160
43
68
197
149
183
12
168
99
171
178
82
175
126
28
125
65
14
146
130
35
18
49
109
174
90
48
42
172
118
157
81
141
153
104
166
145
93
144
194
5
154
167
122
132
6
106
134
97
62
38
50
187
163
64
165
115
80
8
22
61
111
98
23
179
137
139
121
131
191
193
47
40
127
57
120
198
173
155
25
161
158
129
78
184
59
140
196
21
151
103
55
96
164

>  <PUBCHEM_MMFF94_PARTIAL_CHARGES>  (1) 
36
1 -0.36
11 0.08
12 0.14
13 0.08
15 0.08
16 0.14
17 -0.14
18 -0.15
19 0.28
2 -0.68
20 0.27
21 -0.01
22 -0.15
23 -0.15
24 0.08
25 -0.15
26 0.28
27 -0.15
28 0.28
29 0.27
3 -0.28
30 0.27
31 0.28
37 0.15
4 -0.36
40 0.4
43 0.15
44 0.15
45 0.15
46 0.15
5 -0.36
50 0.15
6 -0.36
7 -0.81
8 0.42
9 -0.14

>  <PUBCHEM_EFFECTIVE_ROTOR_COUNT>  (1) 
11

>  <PUBCHEM_PHARMACOPHORE_FEATURES>  (1) 
11
1 1 acceptor
1 2 acceptor
1 2 donor
1 3 acceptor
1 4 acceptor
1 5 acceptor
1 6 acceptor
1 7 cation
5 3 14 16 18 21 rings
6 17 22 23 24 25 27 rings
6 9 11 13 14 15 16 rings

>  <PUBCHEM_HEAVY_ATOM_COUNT>  (1) 
31

>  <PUBCHEM_ATOM_DEF_STEREO_COUNT>  (1) 
0

>  <PUBCHEM_ATOM_UDEF_STEREO_COUNT>  (1) 
1

>  <PUBCHEM_BOND_DEF_STEREO_COUNT>  (1) 
0

>  <PUBCHEM_BOND_UDEF_STEREO_COUNT>  (1) 
0

>  <PUBCHEM_ISOTOPIC_ATOM_COUNT>  (1) 
0

>  <PUBCHEM_COMPONENT_COUNT>  (1) 
1

>  <PUBCHEM_CACTVS_TAUTO_COUNT>  (1) 
1

>  <PUBCHEM_CONFORMER_ID>  (1) 
000096CB00000003

>  <PUBCHEM_MMFF94_ENERGY>  (1) 
110.8762

>  <PUBCHEM_FEATURE_SELFOVERLAP>  (1) 
55.934

>  <PUBCHEM_SHAPE_FINGERPRINT>  (1) 
11513181 2 18199750250077475215
12422481 6 18121193438939654674
13140716 1 18051413165274057649
13617811 41 18408878564862045893
14117953 113 18408598141630070630
14790565 3 18195254317594721697
15219462 58 17060342928771391635
15403338 16 17024563677857480538
16112460 7 18197793102870051577
16752209 62 18337117846962844616
17349148 13 18334289894328977101
17909252 39 18200881669059509842
18681886 176 18336269059005439988
19591789 44 17906739455229715103
20511986 3 17823686654915120452
20691752 17 17314239860259920872
20764821 26 18122066678341365911
20775438 99 17470404519055416541
20905425 154 18267874878443446444
21781051 124 17969786470543436755
23559900 14 18338797818993936262
23566358 2 18335414613488812573
3004659 81 18113616828640348020
3298306 158 18339081591936211263
338550 245 18261679164311519148
3680242 22 18187363220576419841
4280585 95 17902509290505967086
460360 51 18189065221974775177
463206 1 18198904893049710199
57527585 103 17606151482824389515
59755656 215 18410294701230956718

>  <PUBCHEM_SHAPE_MULTIPOLES>  (1) 
597.77
10.62
4.94
1.55
3.82
3.37
0.38
0.05
-0.57
-0.94
-0.81
-2.51
-0.54
-0.07

>  <PUBCHEM_SHAPE_SELFOVERLAP>  (1) 
1266.132

>  <PUBCHEM_SHAPE_VOLUME>  (1) 
338.6

>  <PUBCHEM_COORDINATE_TYPE>  (1) 
2
5
10

$$$$
