38600
     RDKit          3D

 34 36  0  0  1  0  0  0  0  0999 V2000
   -0.9355   -0.8494    1.2752 O   0  0  0  0  0  0  0  0  0  0  0  0
   -2.2291    2.6636    1.5678 O   0  0  0  0  0  0  0  0  0  0  0  0
   -5.1497   -2.3515   -0.5363 O   0  0  0  0  0  0  0  0  0  0  0  0
   -4.1022    2.1997   -0.6412 O   0  0  0  0  0  0  0  0  0  0  0  0
   -2.6209   -2.9933    0.7548 O   0  0  0  0  0  0  0  0  0  0  0  0
    4.8127    0.6611    0.5216 O   0  0  0  0  0  0  0  0  0  0  0  0
    2.3157   -2.2883    0.3195 N   0  0  0  0  0  0  0  0  0  0  0  0
   -1.5916    1.8086    0.6094 C   0  0  0  0  0  0  0  0  0  0  0  0
   -2.5159    0.6676    0.3179 C   0  0  0  0  0  0  0  0  0  0  0  0
   -1.2038    2.6621   -0.6185 C   0  0  0  0  0  0  0  0  0  0  0  0
    0.0366    3.5444   -0.4262 C   0  0  0  0  0  0  0  0  0  0  0  0
   -2.1416   -0.6317    0.6699 C   0  0  0  0  0  0  0  0  0  0  0  0
   -3.7464    0.9221   -0.3034 C   0  0  0  0  0  0  0  0  0  0  0  0
   -4.6045   -0.1594   -0.5687 C   0  0  0  0  0  0  0  0  0  0  0  0
   -2.9791   -1.7219    0.4155 C   0  0  0  0  0  0  0  0  0  0  0  0
   -4.1953   -1.4377   -0.2030 C   0  0  0  0  0  0  0  0  0  0  0  0
    1.3096    2.7762   -0.1732 C   0  0  0  0  0  0  0  0  0  0  0  0
   -5.8859   -0.3186   -1.1592 C   0  0  0  0  0  0  0  0  0  0  0  0
    0.1762   -1.1035    0.4220 C   0  0  0  0  0  0  0  0  0  0  0  0
    1.6863    2.4600    1.1322 C   0  0  0  0  0  0  0  0  0  0  0  0
    2.1102    2.3817   -1.2451 C   0  0  0  0  0  0  0  0  0  0  0  0
   -6.1688   -1.6641   -1.1148 C   0  0  0  0  0  0  0  0  0  0  0  0
    1.1677   -1.9874    1.1617 C   0  0  0  0  0  0  0  0  0  0  0  0
    2.8636    1.7494    1.3656 C   0  0  0  0  0  0  0  0  0  0  0  0
    3.2876    1.6711   -1.0117 C   0  0  0  0  0  0  0  0  0  0  0  0
    3.6642    1.3550    0.2936 C   0  0  0  0  0  0  0  0  0  0  0  0
   -5.2885    2.7141   -0.0464 C   0  0  0  0  0  0  0  0  0  0  0  0
    5.5841    0.2891   -0.6197 C   0  0  0  0  0  0  0  0  0  0  0  0
   -2.5298   -3.9437   -0.3038 C   0  0  0  0  0  0  0  0  0  0  0  0
    6.8064   -0.4894   -0.1546 C   0  0  0  0  0  0  0  0  0  0  0  0
    3.4630   -2.6971    1.1335 C   0  0  0  0  0  0  0  0  0  0  0  0
    1.9862   -3.3350   -0.6510 C   0  0  0  0  0  0  0  0  0  0  0  0
    7.6886   -0.9070   -1.3277 C   0  0  0  0  0  0  0  0  0  0  0  0
    8.9300   -1.6466   -0.8557 C   0  0  0  0  0  0  0  0  0  0  0  0
  1 12  1  0
  1 19  1  0
  2  8  1  0
  3 16  1  0
  3 22  1  0
  4 13  1  0
  4 27  1  0
  5 15  1  0
  5 29  1  0
  6 26  1  0
  6 28  1  0
  7 23  1  0
  7 31  1  0
  7 32  1  0
  8  9  1  0
  8 10  1  0
  9 12  1  0
  9 13  2  0
 10 11  1  0
 11 17  1  0
 12 15  2  0
 13 14  1  0
 14 16  2  0
 14 18  1  0
 15 16  1  0
 17 20  2  0
 17 21  1  0
 18 22  2  0
 19 23  1  0
 20 24  1  0
 21 25  2  0
 24 26  2  0
 25 26  1  0
 28 30  1  0
 30 33  1  0
 33 34  1  0
M  END
>  <PUBCHEM_COMPOUND_CID>  (1) 
38600

>  <PUBCHEM_CONFORMER_RMSD>  (1) 
1.2

>  <PUBCHEM_CONFORMER_DIVERSEORDER>  (1) 
4
33
41
18
52
42
17
58
21
79
39
46
71
30
59
43
53
77
1
45
5
23
22
35
49
50
72
31
55
3
10
60
47
62
68
24
14
11
12
38
40
61
56
74
20
2
78
70
26
63
69
65
51
6
16
54
34
57
32
25
37
28
66
9
8
76
19
27
48
29
73
15
13
64
7
36
44
67
75

>  <PUBCHEM_MMFF94_PARTIAL_CHARGES>  (1) 
36
1 -0.36
11 0.14
12 0.08
13 0.08
15 0.08
16 0.14
17 -0.14
18 -0.15
19 0.28
2 -0.68
20 -0.15
21 -0.15
22 -0.01
23 0.27
24 -0.15
25 -0.15
26 0.08
27 0.28
28 0.28
29 0.28
3 -0.28
31 0.27
32 0.27
4 -0.36
40 0.15
41 0.4
44 0.15
45 0.15
48 0.15
49 0.15
5 -0.36
50 0.15
6 -0.36
7 -0.81
8 0.42
9 -0.14

>  <PUBCHEM_EFFECTIVE_ROTOR_COUNT>  (1) 
14

>  <PUBCHEM_PHARMACOPHORE_FEATURES>  (1) 
12
1 1 acceptor
1 2 acceptor
1 2 donor
1 3 acceptor
1 34 hydrophobe
1 4 acceptor
1 5 acceptor
1 6 acceptor
1 7 cation
5 3 14 16 18 22 rings
6 17 20 21 24 25 26 rings
6 9 12 13 14 15 16 rings

>  <PUBCHEM_HEAVY_ATOM_COUNT>  (1) 
34

>  <PUBCHEM_ATOM_DEF_STEREO_COUNT>  (1) 
0

>  <PUBCHEM_ATOM_UDEF_STEREO_COUNT>  (1) 
1

>  <PUBCHEM_BOND_DEF_STEREO_COUNT>  (1) 
0

>  <PUBCHEM_BOND_UDEF_STEREO_COUNT>  (1) 
0

>  <PUBCHEM_ISOTOPIC_ATOM_COUNT>  (1) 
0

>  <PUBCHEM_COMPONENT_COUNT>  (1) 
1

>  <PUBCHEM_CACTVS_TAUTO_COUNT>  (1) 
1

>  <PUBCHEM_CONFORMER_ID>  (1) 
000096C800000004

>  <PUBCHEM_MMFF94_ENERGY>  (1) 
107.8338

>  <PUBCHEM_FEATURE_SELFOVERLAP>  (1) 
61.008

>  <PUBCHEM_SHAPE_FINGERPRINT>  (1) 
10675989 125 15962287410915082359
10693767 8 17552342690318034239
11513181 2 18053669079534888198
11578080 2 17024853884544694039
13811026 1 18340483461098575440
14068700 675 18409450272159254068
14117953 113 18410568500710700063
14394314 77 18338800013933630560
14790565 3 17763182445678702961
14931854 50 18333724715176493366
15001296 14 18190168182477081392
15183329 4 17967531273072671856
15297060 5 18130510721383807875
15510800 12 17988938760133658918
16112460 7 18269844129992576737
20028762 73 18342176666203507502
20775438 99 17471802045890248285
23559900 14 18265891556819760081
23569943 247 18128538357398456935
3004659 81 18040992981871954028
3298306 158 18192986243901635575
463206 1 18125998510690126999
508706 21 18333453157321440879
57527585 103 17679054640069728011
59755656 215 18335415781598798734
6138700 20 18409449185120278772

>  <PUBCHEM_SHAPE_MULTIPOLES>  (1) 
659.51
16.8
4.77
1.25
23.67
0.58
-0.1
7.79
7.43
-1.67
-0.06
0.46
-0.09
-0.14

>  <PUBCHEM_SHAPE_SELFOVERLAP>  (1) 
1380.033

>  <PUBCHEM_SHAPE_VOLUME>  (1) 
377.6

>  <PUBCHEM_COORDINATE_TYPE>  (1) 
2
5
10

$$$$
