38608
     RDKit          3D

 32 35  0  0  1  0  0  0  0  0999 V2000
    0.1763    0.7821    1.1242 O   0  0  0  0  0  0  0  0  0  0  0  0
    1.5939   -2.6613    1.6198 O   0  0  0  0  0  0  0  0  0  0  0  0
    4.4100    2.3789   -0.5653 O   0  0  0  0  0  0  0  0  0  0  0  0
    3.5455   -2.2115   -0.5232 O   0  0  0  0  0  0  0  0  0  0  0  0
    1.8025    2.9694    0.5862 O   0  0  0  0  0  0  0  0  0  0  0  0
   -5.4658   -0.9903    0.1838 O   0  0  0  0  0  0  0  0  0  0  0  0
   -3.0784    2.0473   -0.0347 N   0  0  0  0  0  0  0  0  0  0  0  0
   -4.2812    2.5003    0.6638 C   0  0  0  0  0  0  0  0  0  0  0  0
   -2.8000    3.0873   -1.0246 C   0  0  0  0  0  0  0  0  0  0  0  0
   -5.1537    3.0275   -0.4658 C   0  0  0  0  0  0  0  0  0  0  0  0
   -4.1806    3.4099   -1.5768 C   0  0  0  0  0  0  0  0  0  0  0  0
   -1.9599    1.8278    0.8702 C   0  0  0  0  0  0  0  0  0  0  0  0
   -0.9017    0.9556    0.2139 C   0  0  0  0  0  0  0  0  0  0  0  0
    1.8593   -0.7075    0.3002 C   0  0  0  0  0  0  0  0  0  0  0  0
    0.9677   -1.8724    0.5992 C   0  0  0  0  0  0  0  0  0  0  0  0
    1.4193    0.5887    0.5803 C   0  0  0  0  0  0  0  0  0  0  0  0
    0.6693   -2.7899   -0.6073 C   0  0  0  0  0  0  0  0  0  0  0  0
    3.1255   -0.9369   -0.2555 C   0  0  0  0  0  0  0  0  0  0  0  0
    2.2246    1.7007    0.3168 C   0  0  0  0  0  0  0  0  0  0  0  0
    3.9522    0.1670   -0.5287 C   0  0  0  0  0  0  0  0  0  0  0  0
   -0.5436   -3.7134   -0.4321 C   0  0  0  0  0  0  0  0  0  0  0  0
    3.4777    1.4413   -0.2354 C   0  0  0  0  0  0  0  0  0  0  0  0
   -1.8555   -2.9879   -0.2675 C   0  0  0  0  0  0  0  0  0  0  0  0
    5.2519    0.3540   -1.0689 C   0  0  0  0  0  0  0  0  0  0  0  0
    5.4802    1.7106   -1.0691 C   0  0  0  0  0  0  0  0  0  0  0  0
   -2.3028   -2.6346    1.0057 C   0  0  0  0  0  0  0  0  0  0  0  0
   -2.6215   -2.6700   -1.3890 C   0  0  0  0  0  0  0  0  0  0  0  0
    4.7227   -2.6529    0.1441 C   0  0  0  0  0  0  0  0  0  0  0  0
    2.0993    3.4885    1.8802 C   0  0  0  0  0  0  0  0  0  0  0  0
   -3.5161   -1.9635    1.1572 C   0  0  0  0  0  0  0  0  0  0  0  0
   -3.8348   -1.9989   -1.2375 C   0  0  0  0  0  0  0  0  0  0  0  0
   -4.2822   -1.6457    0.0357 C   0  0  0  0  0  0  0  0  0  0  0  0
  1 13  1  0
  1 16  1  0
  2 15  1  0
  3 22  1  0
  3 25  1  0
  4 18  1  0
  4 28  1  0
  5 19  1  0
  5 29  1  0
  6 32  1  0
  7  8  1  0
  7  9  1  0
  7 12  1  0
  8 10  1  0
  9 11  1  0
 10 11  1  0
 12 13  1  0
 14 15  1  0
 14 16  2  0
 14 18  1  0
 15 17  1  0
 16 19  1  0
 17 21  1  0
 18 20  2  0
 19 22  2  0
 20 22  1  0
 20 24  1  0
 21 23  1  0
 23 26  2  0
 23 27  1  0
 24 25  2  0
 26 30  1  0
 27 31  2  0
 30 32  2  0
 31 32  1  0
M  END
>  <PUBCHEM_COMPOUND_CID>  (1) 
38608

>  <PUBCHEM_CONFORMER_RMSD>  (1) 
1

>  <PUBCHEM_CONFORMER_DIVERSEORDER>  (1) 
2
21
12
34
58
17
35
66
125
111
124
22
5
100
61
85
8
133
90
130
41
29
121
40
81
70
105
89
106
75
140
141
28
119
1
60
43
113
51
57
120
37
24
84
77
139
3
128
156
104
65
146
76
95
158
126
4
117
6
112
42
131
143
138
64
86
52
92
129
149
49
26
73
15
107
25
13
50
72
142
147
62
98
135
48
32
38
103
63
20
137
153
11
39
127
31
54
102
33
144
110
115
47
97
68
134
136
94
80
152
19
59
44
93
148
101
145
122
82
116
14
88
53
108
157
132
150
79
55
91
154
155
9
45
18
83
71
30
87
114
151
69
7
123
16
78
109
99
67
36
27
23
74
96
46
10
56
118

>  <PUBCHEM_MMFF94_PARTIAL_CHARGES>  (1) 
36
1 -0.36
12 0.27
13 0.28
14 -0.14
15 0.42
16 0.08
18 0.08
19 0.08
2 -0.68
21 0.14
22 0.14
23 -0.14
24 -0.15
25 -0.01
26 -0.15
27 -0.15
28 0.28
29 0.28
3 -0.28
30 -0.15
31 -0.15
32 0.08
4 -0.36
5 -0.36
50 0.15
51 0.4
52 0.15
53 0.15
54 0.15
6 -0.53
61 0.15
62 0.15
63 0.45
7 -0.81
8 0.27
9 0.27

>  <PUBCHEM_EFFECTIVE_ROTOR_COUNT>  (1) 
11

>  <PUBCHEM_PHARMACOPHORE_FEATURES>  (1) 
12
1 1 acceptor
1 2 acceptor
1 2 donor
1 3 acceptor
1 4 acceptor
1 5 acceptor
1 6 donor
1 7 cation
5 3 20 22 24 25 rings
5 7 8 9 10 11 rings
6 14 16 18 19 20 22 rings
6 23 26 27 30 31 32 rings

>  <PUBCHEM_HEAVY_ATOM_COUNT>  (1) 
32

>  <PUBCHEM_ATOM_DEF_STEREO_COUNT>  (1) 
0

>  <PUBCHEM_ATOM_UDEF_STEREO_COUNT>  (1) 
1

>  <PUBCHEM_BOND_DEF_STEREO_COUNT>  (1) 
0

>  <PUBCHEM_BOND_UDEF_STEREO_COUNT>  (1) 
0

>  <PUBCHEM_ISOTOPIC_ATOM_COUNT>  (1) 
0

>  <PUBCHEM_COMPONENT_COUNT>  (1) 
1

>  <PUBCHEM_CACTVS_TAUTO_COUNT>  (1) 
2

>  <PUBCHEM_CONFORMER_ID>  (1) 
000096D000000002

>  <PUBCHEM_MMFF94_ENERGY>  (1) 
96.8333

>  <PUBCHEM_FEATURE_SELFOVERLAP>  (1) 
61.008

>  <PUBCHEM_SHAPE_FINGERPRINT>  (1) 
10871710 139 18410857694255305231
1100329 8 18266458698808689090
12522641 33 18116991080504925269
12788726 201 18263074573463301563
13140716 1 18340204069170772554
14117953 113 17834390116642050782
14790565 3 18410016524240502919
15276724 80 18410859893257130447
15575132 122 18409172125602154663
15968369 153 18129641098687521701
16112460 7 18271822172410859809
17980427 26 16950841410889054984
20764821 26 18341045212471239127
21857420 4 14725178865170190781
22393880 68 18411421696164503612
23559900 14 18198615528133492402
23566358 2 18271818921089000286
3298306 158 18120653527106431741
338550 245 18408325466740298518
350125 39 18411986892243272489
460360 51 18262503841329995474
463206 1 18197773310764023572
469060 322 16298386885913629751
508706 21 18335145331454782680

>  <PUBCHEM_SHAPE_MULTIPOLES>  (1) 
618.35
11.42
5.64
1.33
1.18
0.36
0.09
4.62
-3.29
-3.7
-0.21
-0.26
0.35
0.61

>  <PUBCHEM_SHAPE_SELFOVERLAP>  (1) 
1325.995

>  <PUBCHEM_SHAPE_VOLUME>  (1) 
346.1

>  <PUBCHEM_COORDINATE_TYPE>  (1) 
2
5
10

$$$$
