38604
     RDKit          3D

 30 32  0  0  1  0  0  0  0  0999 V2000
    0.8225   -1.0146    0.8905 O   0  0  0  0  0  0  0  0  0  0  0  0
   -0.2221    2.3269    2.2484 O   0  0  0  0  0  0  0  0  0  0  0  0
   -3.7377   -2.0668   -0.2903 O   0  0  0  0  0  0  0  0  0  0  0  0
   -2.5279    2.3863    0.4363 O   0  0  0  0  0  0  0  0  0  0  0  0
   -1.0297   -2.9834    0.2574 O   0  0  0  0  0  0  0  0  0  0  0  0
   -0.1323   -0.0147   -3.0302 O   0  0  0  0  0  0  0  0  0  0  0  0
    3.4533   -0.6063    1.8483 N   0  0  0  0  0  0  0  0  0  0  0  0
    0.1655    1.7229    1.0070 C   0  0  0  0  0  0  0  0  0  0  0  0
   -0.8500    0.6783    0.6619 C   0  0  0  0  0  0  0  0  0  0  0  0
    0.3314    2.8418   -0.0451 C   0  0  0  0  0  0  0  0  0  0  0  0
   -0.4709   -0.6659    0.6190 C   0  0  0  0  0  0  0  0  0  0  0  0
   -2.1688    1.0665    0.3888 C   0  0  0  0  0  0  0  0  0  0  0  0
    0.3497    2.3609   -1.5021 C   0  0  0  0  0  0  0  0  0  0  0  0
   -3.1115    0.0739    0.0684 C   0  0  0  0  0  0  0  0  0  0  0  0
   -1.3916   -1.6693    0.3026 C   0  0  0  0  0  0  0  0  0  0  0  0
   -2.6946   -1.2528    0.0360 C   0  0  0  0  0  0  0  0  0  0  0  0
    1.4187    1.3408   -1.8039 C   0  0  0  0  0  0  0  0  0  0  0  0
   -4.4927    0.0525   -0.2599 C   0  0  0  0  0  0  0  0  0  0  0  0
    1.1404   -1.3002    2.2491 C   0  0  0  0  0  0  0  0  0  0  0  0
    2.6083   -1.6859    2.3367 C   0  0  0  0  0  0  0  0  0  0  0  0
   -4.8215   -1.2670   -0.4677 C   0  0  0  0  0  0  0  0  0  0  0  0
    1.1258    0.2016   -2.5538 C   0  0  0  0  0  0  0  0  0  0  0  0
    2.7122    1.5462   -1.3240 C   0  0  0  0  0  0  0  0  0  0  0  0
    2.1265   -0.7319   -2.8239 C   0  0  0  0  0  0  0  0  0  0  0  0
   -3.5421    2.7423    1.3693 C   0  0  0  0  0  0  0  0  0  0  0  0
    3.7128    0.6125   -1.5939 C   0  0  0  0  0  0  0  0  0  0  0  0
    3.4200   -0.5265   -2.3437 C   0  0  0  0  0  0  0  0  0  0  0  0
   -0.5672   -3.4841   -0.9947 C   0  0  0  0  0  0  0  0  0  0  0  0
    4.7656   -1.1173    1.4448 C   0  0  0  0  0  0  0  0  0  0  0  0
    3.6078    0.4332    2.8688 C   0  0  0  0  0  0  0  0  0  0  0  0
  1 11  1  0
  1 19  1  0
  2  8  1  0
  3 16  1  0
  3 21  1  0
  4 12  1  0
  4 25  1  0
  5 15  1  0
  5 28  1  0
  6 22  1  0
  7 20  1  0
  7 29  1  0
  7 30  1  0
  8  9  1  0
  8 10  1  0
  9 11  1  0
  9 12  2  0
 10 13  1  0
 11 15  2  0
 12 14  1  0
 13 17  1  0
 14 16  2  0
 14 18  1  0
 15 16  1  0
 17 22  2  0
 17 23  1  0
 18 21  2  0
 19 20  1  0
 22 24  1  0
 23 26  2  0
 24 27  2  0
 26 27  1  0
M  END
>  <PUBCHEM_COMPOUND_CID>  (1) 
38604

>  <PUBCHEM_CONFORMER_RMSD>  (1) 
1

>  <PUBCHEM_CONFORMER_DIVERSEORDER>  (1) 
1
28
82
85
45
160
48
124
79
42
2
38
68
90
30
78
76
119
13
147
41
143
151
49
21
19
157
65
33
133
87
12
29
169
47
63
161
80
136
168
92
131
8
16
77
100
55
175
142
120
71
75
39
31
24
145
105
58
32
132
50
17
158
122
103
121
99
109
101
51
61
73
97
5
37
115
34
139
155
74
140
7
148
94
44
154
40
67
165
89
123
25
81
59
118
10
64
117
52
57
156
11
46
69
4
72
174
106
171
150
35
9
83
129
18
3
15
159
27
125
22
95
172
152
114
96
127
6
54
146
137
111
66
93
170
163
26
23
86
56
14
20
112
113
62
149
162
88
167
108
138
144
110
135
70
134
128
173
107
102
98
91
53
130
164
104
126
36
116
166
141
84
176
43
153
60

>  <PUBCHEM_MMFF94_PARTIAL_CHARGES>  (1) 
36
1 -0.36
11 0.08
12 0.08
13 0.14
15 0.08
16 0.14
17 -0.14
18 -0.15
19 0.28
2 -0.68
20 0.27
21 -0.01
22 0.08
23 -0.15
24 -0.15
25 0.28
26 -0.15
27 -0.15
28 0.28
29 0.27
3 -0.28
30 0.27
36 0.15
39 0.4
4 -0.36
42 0.15
43 0.15
44 0.15
48 0.15
49 0.15
5 -0.36
59 0.45
6 -0.53
7 -0.81
8 0.42
9 -0.14

>  <PUBCHEM_EFFECTIVE_ROTOR_COUNT>  (1) 
10

>  <PUBCHEM_PHARMACOPHORE_FEATURES>  (1) 
11
1 1 acceptor
1 2 acceptor
1 2 donor
1 3 acceptor
1 4 acceptor
1 5 acceptor
1 6 donor
1 7 cation
5 3 14 16 18 21 rings
6 17 22 23 24 26 27 rings
6 9 11 12 14 15 16 rings

>  <PUBCHEM_HEAVY_ATOM_COUNT>  (1) 
30

>  <PUBCHEM_ATOM_DEF_STEREO_COUNT>  (1) 
0

>  <PUBCHEM_ATOM_UDEF_STEREO_COUNT>  (1) 
1

>  <PUBCHEM_BOND_DEF_STEREO_COUNT>  (1) 
0

>  <PUBCHEM_BOND_UDEF_STEREO_COUNT>  (1) 
0

>  <PUBCHEM_ISOTOPIC_ATOM_COUNT>  (1) 
0

>  <PUBCHEM_COMPONENT_COUNT>  (1) 
1

>  <PUBCHEM_CACTVS_TAUTO_COUNT>  (1) 
3

>  <PUBCHEM_CONFORMER_ID>  (1) 
000096CC00000001

>  <PUBCHEM_MMFF94_ENERGY>  (1) 
98.9441

>  <PUBCHEM_FEATURE_SELFOVERLAP>  (1) 
55.932

>  <PUBCHEM_SHAPE_FINGERPRINT>  (1) 
10032420 55 16824747574363335701
11578080 2 16271663212550408521
12035759 4 18261120685687831341
12422481 6 17316200220878868085
12592029 89 16733844106480995119
12788726 201 18270694159232602257
133893 2 16878238484210013961
13947920 75 18264226763529698758
14840074 17 16298941083119820904
16945 1 17979669979805859797
1813 80 16951382387315010256
18336668 15 17676753319530844176
20511986 3 18041839631726689924
20600515 1 18272643592942064851
20905425 154 17549535657831093931
23419403 2 17611135599187772960
23557571 272 17989210308749870872
23559900 14 17917162597885995316
35225 105 17912335681773261278
463206 1 17530968029053124810
469060 322 17096628921611652298
5845 1 13780364812380176892

>  <PUBCHEM_SHAPE_MULTIPOLES>  (1) 
577.19
7.38
3.25
3.06
1.84
0.31
-0.34
1.66
0.75
0.61
0.25
-3.08
-0.23
-2.92

>  <PUBCHEM_SHAPE_SELFOVERLAP>  (1) 
1231.173

>  <PUBCHEM_SHAPE_VOLUME>  (1) 
324.1

>  <PUBCHEM_COORDINATE_TYPE>  (1) 
2
5
10

$$$$
