38610
     RDKit          3D

 33 36  0  0  1  0  0  0  0  0999 V2000
   -0.5432    0.2982    0.6826 O   0  0  0  0  0  0  0  0  0  0  0  0
   -5.6597    2.1611   -0.0374 O   0  0  0  0  0  0  0  0  0  0  0  0
    2.0241   -1.3801    2.8514 O   0  0  0  0  0  0  0  0  0  0  0  0
    2.8526    3.0690   -1.3471 O   0  0  0  0  0  0  0  0  0  0  0  0
    4.1127   -0.8497    0.8614 O   0  0  0  0  0  0  0  0  0  0  0  0
    0.0403    2.5996   -0.7600 O   0  0  0  0  0  0  0  0  0  0  0  0
   -3.0685   -3.3702    0.1622 O   0  0  0  0  0  0  0  0  0  0  0  0
   -3.2980    0.9452    0.9849 N   0  0  0  0  0  0  0  0  0  0  0  0
   -2.4877    0.3994    2.0719 C   0  0  0  0  0  0  0  0  0  0  0  0
   -3.5927    2.3661    1.2166 C   0  0  0  0  0  0  0  0  0  0  0  0
   -4.5491    0.1891    0.8363 C   0  0  0  0  0  0  0  0  0  0  0  0
    1.4442   -1.5054    1.5461 C   0  0  0  0  0  0  0  0  0  0  0  0
    1.7802   -0.2711    0.7682 C   0  0  0  0  0  0  0  0  0  0  0  0
    1.9435   -2.8260    0.9189 C   0  0  0  0  0  0  0  0  0  0  0  0
    0.7574    0.5907    0.3646 C   0  0  0  0  0  0  0  0  0  0  0  0
   -1.0324    0.8104    1.9152 C   0  0  0  0  0  0  0  0  0  0  0  0
   -4.4492    2.9102    0.0768 C   0  0  0  0  0  0  0  0  0  0  0  0
   -5.3821    0.7843   -0.2953 C   0  0  0  0  0  0  0  0  0  0  0  0
    3.1197    0.0016    0.4583 C   0  0  0  0  0  0  0  0  0  0  0  0
    1.7534   -2.9321   -0.6000 C   0  0  0  0  0  0  0  0  0  0  0  0
    3.4199    1.1656   -0.2708 C   0  0  0  0  0  0  0  0  0  0  0  0
    1.0328    1.7535   -0.3612 C   0  0  0  0  0  0  0  0  0  0  0  0
    2.3733    1.9980   -0.6541 C   0  0  0  0  0  0  0  0  0  0  0  0
    0.3265   -2.7643   -1.0586 C   0  0  0  0  0  0  0  0  0  0  0  0
    4.6013    1.7777   -0.7664 C   0  0  0  0  0  0  0  0  0  0  0  0
    4.2021    2.9263   -1.4098 C   0  0  0  0  0  0  0  0  0  0  0  0
   -0.7239   -3.1502   -0.2259 C   0  0  0  0  0  0  0  0  0  0  0  0
    0.0574   -2.2229   -2.3155 C   0  0  0  0  0  0  0  0  0  0  0  0
    5.1125   -0.3094    1.7185 C   0  0  0  0  0  0  0  0  0  0  0  0
   -2.0435   -2.9946   -0.6503 C   0  0  0  0  0  0  0  0  0  0  0  0
   -1.2623   -2.0673   -2.7400 C   0  0  0  0  0  0  0  0  0  0  0  0
   -0.5487    2.3504   -2.0340 C   0  0  0  0  0  0  0  0  0  0  0  0
   -2.3126   -2.4531   -1.9073 C   0  0  0  0  0  0  0  0  0  0  0  0
  1 15  1  0
  1 16  1  0
  2 17  1  0
  2 18  1  0
  3 12  1  0
  4 23  1  0
  4 26  1  0
  5 19  1  0
  5 29  1  0
  6 22  1  0
  6 32  1  0
  7 30  1  0
  8  9  1  0
  8 10  1  0
  8 11  1  0
  9 16  1  0
 10 17  1  0
 11 18  1  0
 12 13  1  0
 12 14  1  0
 13 15  1  0
 13 19  2  0
 14 20  1  0
 15 22  2  0
 19 21  1  0
 20 24  1  0
 21 23  2  0
 21 25  1  0
 22 23  1  0
 24 27  2  0
 24 28  1  0
 25 26  2  0
 27 30  1  0
 28 31  2  0
 30 33  2  0
 31 33  1  0
M  END
>  <PUBCHEM_COMPOUND_CID>  (1) 
38610

>  <PUBCHEM_CONFORMER_RMSD>  (1) 
1.2

>  <PUBCHEM_CONFORMER_DIVERSEORDER>  (1) 
1
5
65
35
26
72
109
31
114
59
22
98
58
134
100
121
84
19
12
107
115
110
111
52
4
81
34
99
73
127
3
42
70
90
57
108
48
101
54
68
13
29
64
27
63
91
18
93
51
71
23
80
61
116
125
9
2
39
43
96
120
46
44
69
77
11
14
123
117
78
45
113
85
55
126
92
47
131
122
119
36
129
132
94
82
66
86
105
87
20
6
130
62
102
40
38
56
128
95
21
79
88
118
89
60
17
8
83
133
41
104
53
49
124
112
7
16
10
97
24
37
103
76
74
15
25
33
32
67
50
28
106
30
75

>  <PUBCHEM_MMFF94_PARTIAL_CHARGES>  (1) 
39
1 -0.36
10 0.27
11 0.27
12 0.42
13 -0.14
15 0.08
16 0.28
17 0.28
18 0.28
19 0.08
2 -0.56
20 0.14
22 0.08
23 0.14
24 -0.14
25 -0.15
26 -0.01
27 -0.15
28 -0.15
29 0.28
3 -0.68
30 0.08
31 -0.15
32 0.28
33 -0.15
4 -0.28
5 -0.36
51 0.15
52 0.4
53 0.15
54 0.15
55 0.15
59 0.15
6 -0.36
63 0.15
64 0.45
7 -0.53
8 -0.81
9 0.27

>  <PUBCHEM_EFFECTIVE_ROTOR_COUNT>  (1) 
11.2

>  <PUBCHEM_PHARMACOPHORE_FEATURES>  (1) 
13
1 1 acceptor
1 2 acceptor
1 3 acceptor
1 3 donor
1 4 acceptor
1 5 acceptor
1 6 acceptor
1 7 donor
1 8 cation
5 4 21 23 25 26 rings
6 13 15 19 21 22 23 rings
6 2 8 10 11 17 18 rings
6 24 27 28 30 31 33 rings

>  <PUBCHEM_HEAVY_ATOM_COUNT>  (1) 
33

>  <PUBCHEM_ATOM_DEF_STEREO_COUNT>  (1) 
0

>  <PUBCHEM_ATOM_UDEF_STEREO_COUNT>  (1) 
1

>  <PUBCHEM_BOND_DEF_STEREO_COUNT>  (1) 
0

>  <PUBCHEM_BOND_UDEF_STEREO_COUNT>  (1) 
0

>  <PUBCHEM_ISOTOPIC_ATOM_COUNT>  (1) 
0

>  <PUBCHEM_COMPONENT_COUNT>  (1) 
1

>  <PUBCHEM_CACTVS_TAUTO_COUNT>  (1) 
9

>  <PUBCHEM_CONFORMER_ID>  (1) 
000096D200000001

>  <PUBCHEM_MMFF94_ENERGY>  (1) 
101.1509

>  <PUBCHEM_FEATURE_SELFOVERLAP>  (1) 
66.084

>  <PUBCHEM_SHAPE_FINGERPRINT>  (1) 
11421498 54 17977946009892995411
11578080 2 14924774589813141502
12156800 1 16987978601032420895
12422481 6 18270104722421945970
12608794 3 17968916683493486970
12788726 201 17983019139294528262
133893 2 17626415357971318555
14114206 34 17766829903219108391
14117953 113 18266457603153951612
14251751 93 18198357336205920799
15297060 5 17918281951850832635
15392192 104 17986419762547849905
16752209 62 17916015948712395399
17138139 8 17631427086979739789
17921350 177 17826218602217249901
17980427 26 17530960306891785712
20511986 3 18335971051955808824
20764821 26 16823909136886320675
21860390 5 18041854899718209228
23559900 14 17770220453729880697
27425 322 17967816003872015689
338550 245 18342734083458433367
35225 105 17774998029347137997
563151 97 17977108178502456500

>  <PUBCHEM_SHAPE_MULTIPOLES>  (1) 
633.06
9.25
4.76
2.29
4.45
1.7
-0.09
-7.2
1.58
1.26
-2.2
-0.39
0.63
-2.77

>  <PUBCHEM_SHAPE_SELFOVERLAP>  (1) 
1357.137

>  <PUBCHEM_SHAPE_VOLUME>  (1) 
351.4

>  <PUBCHEM_COORDINATE_TYPE>  (1) 
2
5
10

$$$$
