38613
     RDKit          3D

 33 36  0  0  1  0  0  0  0  0999 V2000
    0.2239    0.5731    1.2564 O   0  0  0  0  0  0  0  0  0  0  0  0
    1.8985   -2.7874    1.3762 O   0  0  0  0  0  0  0  0  0  0  0  0
    4.3469    2.6780   -0.1214 O   0  0  0  0  0  0  0  0  0  0  0  0
    3.8441   -1.9364   -0.6471 O   0  0  0  0  0  0  0  0  0  0  0  0
    1.6823    2.9262    1.0241 O   0  0  0  0  0  0  0  0  0  0  0  0
   -3.7242   -2.2696    2.1305 O   0  0  0  0  0  0  0  0  0  0  0  0
   -3.1059    1.7195    0.1677 N   0  0  0  0  0  0  0  0  0  0  0  0
   -4.3489    1.9072    0.9290 C   0  0  0  0  0  0  0  0  0  0  0  0
   -2.8305    2.8779   -0.6938 C   0  0  0  0  0  0  0  0  0  0  0  0
   -5.5422    2.1134   -0.0052 C   0  0  0  0  0  0  0  0  0  0  0  0
   -3.9742    3.1158   -1.6812 C   0  0  0  0  0  0  0  0  0  0  0  0
   -5.3059    3.2800   -0.9578 C   0  0  0  0  0  0  0  0  0  0  0  0
   -1.9832    1.4768    1.0732 C   0  0  0  0  0  0  0  0  0  0  0  0
   -0.8492    0.7727    0.3455 C   0  0  0  0  0  0  0  0  0  0  0  0
    2.0319   -0.6745    0.3053 C   0  0  0  0  0  0  0  0  0  0  0  0
    1.2294   -1.9312    0.4405 C   0  0  0  0  0  0  0  0  0  0  0  0
    1.4870    0.5415    0.7257 C   0  0  0  0  0  0  0  0  0  0  0  0
    1.0239   -2.7167   -0.8737 C   0  0  0  0  0  0  0  0  0  0  0  0
    3.3212   -0.7387   -0.2409 C   0  0  0  0  0  0  0  0  0  0  0  0
    2.2070    1.7349    0.6170 C   0  0  0  0  0  0  0  0  0  0  0  0
    4.0633    0.4495   -0.3596 C   0  0  0  0  0  0  0  0  0  0  0  0
   -0.1156   -3.7438   -0.8408 C   0  0  0  0  0  0  0  0  0  0  0  0
    3.4855    1.6395    0.0705 C   0  0  0  0  0  0  0  0  0  0  0  0
   -1.4828   -3.1450   -0.6252 C   0  0  0  0  0  0  0  0  0  0  0  0
    5.3531    0.7981   -0.8399 C   0  0  0  0  0  0  0  0  0  0  0  0
    5.4743    2.1582   -0.6732 C   0  0  0  0  0  0  0  0  0  0  0  0
   -1.9774   -2.9828    0.6689 C   0  0  0  0  0  0  0  0  0  0  0  0
   -2.2529   -2.7532   -1.7202 C   0  0  0  0  0  0  0  0  0  0  0  0
    5.0412   -2.3643   -0.0066 C   0  0  0  0  0  0  0  0  0  0  0  0
    1.5502    3.9457    0.0365 C   0  0  0  0  0  0  0  0  0  0  0  0
   -3.2418   -2.4286    0.8680 C   0  0  0  0  0  0  0  0  0  0  0  0
   -3.5173   -2.1990   -1.5213 C   0  0  0  0  0  0  0  0  0  0  0  0
   -4.0118   -2.0367   -0.2271 C   0  0  0  0  0  0  0  0  0  0  0  0
  1 14  1  0
  1 17  1  0
  2 16  1  0
  3 23  1  0
  3 26  1  0
  4 19  1  0
  4 29  1  0
  5 20  1  0
  5 30  1  0
  6 31  1  0
  7  8  1  0
  7  9  1  0
  7 13  1  0
  8 10  1  0
  9 11  1  0
 10 12  1  0
 11 12  1  0
 13 14  1  0
 15 16  1  0
 15 17  2  0
 15 19  1  0
 16 18  1  0
 17 20  1  0
 18 22  1  0
 19 21  2  0
 20 23  2  0
 21 23  1  0
 21 25  1  0
 22 24  1  0
 24 27  2  0
 24 28  1  0
 25 26  2  0
 27 31  1  0
 28 32  2  0
 31 33  2  0
 32 33  1  0
M  END
>  <PUBCHEM_COMPOUND_CID>  (1) 
38613

>  <PUBCHEM_CONFORMER_RMSD>  (1) 
1.2

>  <PUBCHEM_CONFORMER_DIVERSEORDER>  (1) 
1
20
9
15
71
17
111
134
32
79
47
5
89
106
133
130
58
67
91
119
70
121
64
50
92
81
14
113
80
26
40
110
8
49
65
53
30
23
87
28
56
39
60
124
57
55
105
74
122
59
48
68
6
103
43
117
90
115
13
127
2
34
77
24
116
86
101
52
82
4
131
44
95
118
22
136
123
41
112
109
36
66
72
25
3
102
63
125
38
104
37
129
12
85
126
96
7
78
120
135
19
45
97
54
31
46
62
114
93
83
137
69
75
18
132
10
100
98
61
42
73
99
88
94
29
51
33
128
35
16
108
84
27
76
107
21
11

>  <PUBCHEM_MMFF94_PARTIAL_CHARGES>  (1) 
36
1 -0.36
13 0.27
14 0.28
15 -0.14
16 0.42
17 0.08
19 0.08
2 -0.68
20 0.08
22 0.14
23 0.14
24 -0.14
25 -0.15
26 -0.01
27 -0.15
28 -0.15
29 0.28
3 -0.28
30 0.28
31 0.08
32 -0.15
33 -0.15
4 -0.36
5 -0.36
53 0.15
54 0.4
55 0.15
56 0.15
57 0.15
6 -0.53
64 0.15
65 0.15
66 0.45
7 -0.81
8 0.27
9 0.27

>  <PUBCHEM_EFFECTIVE_ROTOR_COUNT>  (1) 
11.2

>  <PUBCHEM_PHARMACOPHORE_FEATURES>  (1) 
12
1 1 acceptor
1 2 acceptor
1 2 donor
1 3 acceptor
1 4 acceptor
1 5 acceptor
1 6 donor
1 7 cation
5 3 21 23 25 26 rings
6 15 17 19 20 21 23 rings
6 24 27 28 31 32 33 rings
6 7 8 9 10 11 12 rings

>  <PUBCHEM_HEAVY_ATOM_COUNT>  (1) 
33

>  <PUBCHEM_ATOM_DEF_STEREO_COUNT>  (1) 
0

>  <PUBCHEM_ATOM_UDEF_STEREO_COUNT>  (1) 
1

>  <PUBCHEM_BOND_DEF_STEREO_COUNT>  (1) 
0

>  <PUBCHEM_BOND_UDEF_STEREO_COUNT>  (1) 
0

>  <PUBCHEM_ISOTOPIC_ATOM_COUNT>  (1) 
0

>  <PUBCHEM_COMPONENT_COUNT>  (1) 
1

>  <PUBCHEM_CACTVS_TAUTO_COUNT>  (1) 
9

>  <PUBCHEM_CONFORMER_ID>  (1) 
000096D500000001

>  <PUBCHEM_MMFF94_ENERGY>  (1) 
91.5935

>  <PUBCHEM_FEATURE_SELFOVERLAP>  (1) 
61.008

>  <PUBCHEM_SHAPE_FINGERPRINT>  (1) 
1100329 8 18267584615985136610
11621639 254 17466259691348765276
12522641 33 18262513677823845269
12788726 201 18191857027731141883
13140716 1 18411418367891806170
1361 2 18337947879990551741
14117953 113 18053098424209164484
14747281 78 17103400668242477797
15276724 80 18339645650365481319
15575132 122 18339367460806773559
15968369 153 18058430149993649067
16112460 7 18271537411815933009
18603816 31 14979414914818753516
20764821 26 18342451513486497943
22393880 68 18412546522424448236
249057 3 18266460915133042230
3298306 158 18193555567538642149
338550 245 18337117885411672740
350125 39 18269000949595365641
460360 51 18335972126087652490
463206 1 18340485565058096228
508706 21 18336549429294028856

>  <PUBCHEM_SHAPE_MULTIPOLES>  (1) 
638.93
11.62
5.92
1.37
1.62
0.32
-0.01
-7.1
2.32
-3.49
1.03
-1.23
0.41
0.65

>  <PUBCHEM_SHAPE_SELFOVERLAP>  (1) 
1363.762

>  <PUBCHEM_SHAPE_VOLUME>  (1) 
356.9

>  <PUBCHEM_COORDINATE_TYPE>  (1) 
2
5
10

$$$$
