38625
     RDKit          3D

  7  6  0  0  1  0  0  0  0  0999 V2000
    3.5230    0.4974   -0.3069 Cl  0  0  0  0  0  0  0  0  0  0  0  0
   -0.6551   -0.3930    0.5770 S   0  0  0  0  0  0  0  0  0  0  0  0
   -0.8847   -1.5547   -0.3371 O   0  0  0  0  0  0  0  0  0  0  0  0
    0.8338    0.4786   -0.0010 C   0  0  0  0  0  0  0  0  0  0  0  0
    2.0696   -0.3644    0.2471 C   0  0  0  0  0  0  0  0  0  0  0  0
   -1.8263    0.8580    0.0829 C   0  0  0  0  0  0  0  0  0  0  0  0
   -3.0603    0.4781   -0.2620 C   0  0  0  0  0  0  0  0  0  0  0  0
  1  5  1  0
  2  3  2  0
  2  4  1  0
  2  6  1  0
  4  5  1  0
  6  7  2  0
M  END
>  <PUBCHEM_COMPOUND_CID>  (1) 
38625

>  <PUBCHEM_CONFORMER_RMSD>  (1) 
0.4

>  <PUBCHEM_CONFORMER_DIVERSEORDER>  (1) 
1
19
26
2
22
12
10
13
9
7
14
17
18
21
15
4
11
3
8
23
24
6
16
25
5
20

>  <PUBCHEM_MMFF94_PARTIAL_CHARGES>  (1) 
10
1 -0.29
12 0.15
13 0.15
14 0.15
2 0.25
3 -0.5
4 0.19
5 0.29
6 -0.09
7 -0.3

>  <PUBCHEM_EFFECTIVE_ROTOR_COUNT>  (1) 
3

>  <PUBCHEM_PHARMACOPHORE_FEATURES>  (1) 
1
1 3 acceptor

>  <PUBCHEM_HEAVY_ATOM_COUNT>  (1) 
7

>  <PUBCHEM_ATOM_DEF_STEREO_COUNT>  (1) 
0

>  <PUBCHEM_ATOM_UDEF_STEREO_COUNT>  (1) 
1

>  <PUBCHEM_BOND_DEF_STEREO_COUNT>  (1) 
0

>  <PUBCHEM_BOND_UDEF_STEREO_COUNT>  (1) 
0

>  <PUBCHEM_ISOTOPIC_ATOM_COUNT>  (1) 
0

>  <PUBCHEM_COMPONENT_COUNT>  (1) 
1

>  <PUBCHEM_CACTVS_TAUTO_COUNT>  (1) 
1

>  <PUBCHEM_CONFORMER_ID>  (1) 
000096E100000001

>  <PUBCHEM_MMFF94_ENERGY>  (1) 
5.2548

>  <PUBCHEM_FEATURE_SELFOVERLAP>  (1) 
5.074

>  <PUBCHEM_SHAPE_FINGERPRINT>  (1) 
10857977 72 7925623380370528127
11062470 55 16773795891920279504
12932741 1 17417809603863464962
14325111 11 18409448046742974641
14390081 3 18409166623453779040
16714656 1 18409728452320340313
20211469 26 10159701269955498192
21293036 1 18343301474376273165
23235685 24 18342736295329517957
3248919 1 17131847477445360760
5460574 1 10087636000763546032

>  <PUBCHEM_SHAPE_MULTIPOLES>  (1) 
143.91
5.24
1.12
0.72
2.25
0.28
-0.04
-1.51
0.71
-0.29
0.1
-0.02
0.04
-0.11

>  <PUBCHEM_SHAPE_SELFOVERLAP>  (1) 
235.405

>  <PUBCHEM_SHAPE_VOLUME>  (1) 
100.4

>  <PUBCHEM_COORDINATE_TYPE>  (1) 
2
5
10

$$$$
