38624
     RDKit          3D

 24 26  0  0  0  0  0  0  0  0999 V2000
    0.9349    0.1001   -1.0113 O   0  0  0  0  0  0  0  0  0  0  0  0
   -0.3112   -2.4908   -0.5864 O   0  0  0  0  0  0  0  0  0  0  0  0
   -0.5965    2.3038   -0.5098 O   0  0  0  0  0  0  0  0  0  0  0  0
   -4.3262   -0.5498    0.7406 O   0  0  0  0  0  0  0  0  0  0  0  0
   -4.4603    2.0679    0.7744 O   0  0  0  0  0  0  0  0  0  0  0  0
    4.3355    0.4402    0.3330 N   0  0  0  0  0  0  0  0  0  0  0  0
    3.3044    0.3314   -0.6727 C   0  0  0  0  0  0  0  0  0  0  0  0
    1.9469    0.1705   -0.0098 C   0  0  0  0  0  0  0  0  0  0  0  0
   -0.3519   -0.0400   -0.5817 C   0  0  0  0  0  0  0  0  0  0  0  0
   -0.9297   -1.2933   -0.3848 C   0  0  0  0  0  0  0  0  0  0  0  0
   -2.2358   -1.4938    0.0501 C   0  0  0  0  0  0  0  0  0  0  0  0
    4.3575   -0.7460    1.1989 C   0  0  0  0  0  0  0  0  0  0  0  0
    5.6560    0.6304   -0.2817 C   0  0  0  0  0  0  0  0  0  0  0  0
   -1.1666    1.0655   -0.3154 C   0  0  0  0  0  0  0  0  0  0  0  0
   -2.4857    0.9055    0.1238 C   0  0  0  0  0  0  0  0  0  0  0  0
   -3.0410   -0.3703    0.3135 C   0  0  0  0  0  0  0  0  0  0  0  0
   -2.4092   -2.9020    0.1132 C   0  0  0  0  0  0  0  0  0  0  0  0
   -1.2151   -3.4582   -0.2823 C   0  0  0  0  0  0  0  0  0  0  0  0
    5.3870   -0.5982    2.3064 C   0  0  0  0  0  0  0  0  0  0  0  0
    5.6699    1.8512   -1.1860 C   0  0  0  0  0  0  0  0  0  0  0  0
   -3.2997    2.1075    0.3898 C   0  0  0  0  0  0  0  0  0  0  0  0
   -0.7542   -4.8459   -0.4300 C   0  0  0  0  0  0  0  0  0  0  0  0
   -2.6378    3.4060    0.1647 C   0  0  0  0  0  0  0  0  0  0  0  0
   -1.3711    3.4083   -0.2566 C   0  0  0  0  0  0  0  0  0  0  0  0
  1  8  1  0
  1  9  1  0
  2 10  1  0
  2 18  1  0
  3 14  1  0
  3 24  1  0
  4 16  1  0
  5 21  2  0
  6  7  1  0
  6 12  1  0
  6 13  1  0
  7  8  1  0
  9 10  2  0
  9 14  1  0
 10 11  1  0
 11 16  2  0
 11 17  1  0
 12 19  1  0
 13 20  1  0
 14 15  2  0
 15 16  1  0
 15 21  1  0
 17 18  2  0
 18 22  1  0
 21 23  1  0
 23 24  2  0
M  END
>  <PUBCHEM_COMPOUND_CID>  (1) 
38624

>  <PUBCHEM_CONFORMER_RMSD>  (1) 
0.8

>  <PUBCHEM_CONFORMER_DIVERSEORDER>  (1) 
2
30
17
29
8
22
9
16
28
24
21
4
26
31
11
14
10
18
25
33
13
19
20
7
15
23
3
12
5
1
6
32
27

>  <PUBCHEM_MMFF94_PARTIAL_CHARGES>  (1) 
25
1 -0.36
10 0.14
12 0.27
13 0.27
14 0.08
15 0.09
16 0.08
17 -0.15
18 -0.04
2 -0.28
21 0.47
22 0.18
23 -0.14
24 -0.07
3 -0.16
33 0.15
4 -0.53
43 0.15
44 0.15
45 0.45
5 -0.57
6 -0.81
7 0.27
8 0.28
9 0.08

>  <PUBCHEM_EFFECTIVE_ROTOR_COUNT>  (1) 
6

>  <PUBCHEM_PHARMACOPHORE_FEATURES>  (1) 
9
1 1 acceptor
1 2 acceptor
1 3 acceptor
1 4 donor
1 5 acceptor
1 6 cation
5 2 10 11 17 18 rings
6 3 14 15 21 23 24 rings
6 9 10 11 14 15 16 rings

>  <PUBCHEM_HEAVY_ATOM_COUNT>  (1) 
24

>  <PUBCHEM_ATOM_DEF_STEREO_COUNT>  (1) 
0

>  <PUBCHEM_ATOM_UDEF_STEREO_COUNT>  (1) 
0

>  <PUBCHEM_BOND_DEF_STEREO_COUNT>  (1) 
0

>  <PUBCHEM_BOND_UDEF_STEREO_COUNT>  (1) 
0

>  <PUBCHEM_ISOTOPIC_ATOM_COUNT>  (1) 
0

>  <PUBCHEM_COMPONENT_COUNT>  (1) 
1

>  <PUBCHEM_CACTVS_TAUTO_COUNT>  (1) 
4

>  <PUBCHEM_CONFORMER_ID>  (1) 
000096E000000002

>  <PUBCHEM_MMFF94_ENERGY>  (1) 
57.27

>  <PUBCHEM_FEATURE_SELFOVERLAP>  (1) 
45.811

>  <PUBCHEM_SHAPE_FINGERPRINT>  (1) 
10319926 262 18342726426565336570
10369192 42 16552543603148864160
10411042 1 17835808873194914639
10967382 1 15027537656943724405
1100329 8 18194406825883379627
11049842 53 18120686581175009174
11056379 131 18339654450732261798
12107183 9 18046057156630665600
12173636 292 18339916009491952980
12390115 104 18128837286082528153
12553582 1 18122057873848715470
12596602 18 17603307059191843352
12633257 1 18130233747506585992
12788726 201 18263081179440001002
12839892 36 18336825265279327769
13004483 165 18053651757668071415
13140716 1 18051426346750261051
13540713 4 17539988173983620973
138480 1 17041765288155265655
14251757 5 18342183293074333368
14420673 8 17903352607598573586
14790565 3 18339653243256373909
14844126 61 18264487458748282322
15042514 8 18265904725189463575
15230672 131 18193566571905303542
15250474 111 18262225716929344834
15842332 3 18040997388834811044
16728300 4 17895465956431034099
19377110 9 17968649528212573864
20101258 96 17905621243024123794
20510252 161 18271534104369315689
20554085 129 17984397690958812529
21033648 29 17346875663802321368
212916 134 18271514291706012152
21650355 55 18267301109008652159
23402539 116 18343296003189279743
23557571 272 18130520703310134500
23559900 14 18126562564281312232
23728640 28 18409728482316910195
2748010 2 18049749355379012911
283562 15 18342178839367359457
3178227 256 18264505047710205547
484989 97 18119522396578873647
58807428 26 18266467516228607963
7097593 13 18116137893154829890
7808743 9 18411422838984441916
9981440 41 18266455400310502137

>  <PUBCHEM_SHAPE_MULTIPOLES>  (1) 
459.58
10.44
4.8
1.13
18.84
3.3
-0.46
-4.46
-2.86
-5.56
0.72
1.74
0.07
-1.63

>  <PUBCHEM_SHAPE_SELFOVERLAP>  (1) 
990.236

>  <PUBCHEM_SHAPE_VOLUME>  (1) 
256.3

>  <PUBCHEM_COORDINATE_TYPE>  (1) 
2
5
10

$$$$
