38639
     RDKit          3D

 35 39  0  0  1  0  0  0  0  0999 V2000
   -0.8769   -0.2110   -2.0364 O   0  0  0  0  0  0  0  0  0  0  0  0
   -0.5649   -1.2600    0.0527 N   0  0  0  0  0  0  0  0  0  0  0  0
    2.0920    3.3240    0.3659 N   0  0  0  0  0  0  0  0  0  0  0  0
    0.4782   -2.0922   -0.2653 N   0  0  0  0  0  0  0  0  0  0  0  0
   -2.2779    0.3750   -0.0802 C   0  0  0  0  0  0  0  0  0  0  0  0
   -1.9784    1.8709   -0.0579 C   0  0  0  0  0  0  0  0  0  0  0  0
   -2.1710   -0.2523    1.3018 C   0  0  0  0  0  0  0  0  0  0  0  0
   -0.6110    2.1537    0.5593 C   0  0  0  0  0  0  0  0  0  0  0  0
   -1.1568   -0.3805   -0.8580 C   0  0  0  0  0  0  0  0  0  0  0  0
   -0.3278    3.6566    0.6094 C   0  0  0  0  0  0  0  0  0  0  0  0
   -1.1461   -1.2026    1.3177 C   0  0  0  0  0  0  0  0  0  0  0  0
   -3.6024    0.1057   -0.7205 C   0  0  0  0  0  0  0  0  0  0  0  0
    1.0551    3.9388    1.1944 C   0  0  0  0  0  0  0  0  0  0  0  0
    2.2881    4.0962   -0.8691 C   0  0  0  0  0  0  0  0  0  0  0  0
    3.3471    3.2010    1.1205 C   0  0  0  0  0  0  0  0  0  0  0  0
    3.3351    3.4395   -1.7700 C   0  0  0  0  0  0  0  0  0  0  0  0
    4.4287    2.5147    0.2845 C   0  0  0  0  0  0  0  0  0  0  0  0
    4.6561    3.2444   -1.0344 C   0  0  0  0  0  0  0  0  0  0  0  0
   -2.9143    0.0030    2.4429 C   0  0  0  0  0  0  0  0  0  0  0  0
   -0.8337   -1.9237    2.4566 C   0  0  0  0  0  0  0  0  0  0  0  0
   -4.0078   -1.2076   -0.9587 C   0  0  0  0  0  0  0  0  0  0  0  0
   -4.4328    1.1677   -1.0792 C   0  0  0  0  0  0  0  0  0  0  0  0
   -2.6127   -0.7163    3.6022 C   0  0  0  0  0  0  0  0  0  0  0  0
    1.6527   -1.3101   -0.6560 C   0  0  0  0  0  0  0  0  0  0  0  0
   -1.5816   -1.6714    3.6085 C   0  0  0  0  0  0  0  0  0  0  0  0
    0.0911   -3.0060   -1.3419 C   0  0  0  0  0  0  0  0  0  0  0  0
   -5.2431   -1.4589   -1.5557 C   0  0  0  0  0  0  0  0  0  0  0  0
   -5.6682    0.9163   -1.6760 C   0  0  0  0  0  0  0  0  0  0  0  0
   -6.0733   -0.3971   -1.9142 C   0  0  0  0  0  0  0  0  0  0  0  0
    2.9280   -2.0936   -0.4924 C   0  0  0  0  0  0  0  0  0  0  0  0
    3.6237   -2.0490    0.7159 C   0  0  0  0  0  0  0  0  0  0  0  0
    3.4138   -2.8643   -1.5488 C   0  0  0  0  0  0  0  0  0  0  0  0
    4.8050   -2.7750    0.8677 C   0  0  0  0  0  0  0  0  0  0  0  0
    4.5952   -3.5903   -1.3968 C   0  0  0  0  0  0  0  0  0  0  0  0
    5.2907   -3.5456   -0.1885 C   0  0  0  0  0  0  0  0  0  0  0  0
  1  9  2  0
  2  4  1  0
  2  9  1  0
  2 11  1  0
  3 13  1  0
  3 14  1  0
  3 15  1  0
  4 24  1  0
  4 26  1  0
  5  6  1  0
  5  7  1  0
  5  9  1  0
  5 12  1  0
  6  8  1  0
  7 11  2  0
  7 19  1  0
  8 10  1  0
 10 13  1  0
 11 20  1  0
 12 21  2  0
 12 22  1  0
 14 16  1  0
 15 17  1  0
 16 18  1  0
 17 18  1  0
 19 23  2  0
 20 25  2  0
 21 27  1  0
 22 28  2  0
 23 25  1  0
 24 30  1  0
 27 29  2  0
 28 29  1  0
 30 31  2  0
 30 32  1  0
 31 33  1  0
 32 34  2  0
 33 35  2  0
 34 35  1  0
M  END
>  <PUBCHEM_COMPOUND_CID>  (1) 
38639

>  <PUBCHEM_CONFORMER_RMSD>  (1) 
1.2

>  <PUBCHEM_CONFORMER_DIVERSEORDER>  (1) 
1
11
69
33
80
86
65
94
41
102
17
117
2
101
68
73
18
10
93
87
72
105
20
91
89
112
15
113
23
120
45
52
78
46
39
59
76
103
92
40
51
16
66
70
116
118
81
3
32
55
71
104
96
49
99
82
47
31
107
95
75
35
19
61
54
108
56
67
100
37
6
34
57
26
13
74
79
114
36
98
121
110
63
88
30
38
12
97
7
50
109
115
64
85
84
77
42
22
60
9
83
44
62
27
25
43
28
24
58
14
4
21
48
53
90
106
111
29
119
5
8

>  <PUBCHEM_MMFF94_PARTIAL_CHARGES>  (1) 
43
1 -0.57
11 0.12
12 -0.14
13 0.27
14 0.27
15 0.27
19 -0.15
2 -0.17
20 -0.15
21 -0.15
22 -0.15
23 -0.15
24 0.41
25 -0.15
26 0.27
27 -0.15
28 -0.15
29 -0.15
3 -0.81
30 -0.14
31 -0.15
32 -0.15
33 -0.15
34 -0.15
35 -0.15
4 -0.55
5 0.35
54 0.15
55 0.15
56 0.15
57 0.15
58 0.15
61 0.15
65 0.15
66 0.15
67 0.15
68 0.15
69 0.15
7 -0.14
70 0.15
71 0.15
72 0.15
9 0.57

>  <PUBCHEM_EFFECTIVE_ROTOR_COUNT>  (1) 
10.6

>  <PUBCHEM_PHARMACOPHORE_FEATURES>  (1) 
7
1 1 acceptor
1 3 cation
5 2 5 7 9 11 rings
6 12 21 22 27 28 29 rings
6 3 14 15 16 17 18 rings
6 30 31 32 33 34 35 rings
6 7 11 19 20 23 25 rings

>  <PUBCHEM_HEAVY_ATOM_COUNT>  (1) 
35

>  <PUBCHEM_ATOM_DEF_STEREO_COUNT>  (1) 
0

>  <PUBCHEM_ATOM_UDEF_STEREO_COUNT>  (1) 
1

>  <PUBCHEM_BOND_DEF_STEREO_COUNT>  (1) 
0

>  <PUBCHEM_BOND_UDEF_STEREO_COUNT>  (1) 
0

>  <PUBCHEM_ISOTOPIC_ATOM_COUNT>  (1) 
0

>  <PUBCHEM_COMPONENT_COUNT>  (1) 
1

>  <PUBCHEM_CACTVS_TAUTO_COUNT>  (1) 
1

>  <PUBCHEM_CONFORMER_ID>  (1) 
000096EF00000001

>  <PUBCHEM_MMFF94_ENERGY>  (1) 
92.7841

>  <PUBCHEM_FEATURE_SELFOVERLAP>  (1) 
35.608

>  <PUBCHEM_SHAPE_FINGERPRINT>  (1) 
10032420 55 17388244655141496773
10190108 129 17476074009616503199
10290309 65 17829912154329059084
107951 10 17460863236306853081
11488393 25 18269552922351109835
11513181 2 17986966154769296268
11578080 2 17604163617493964421
12160290 23 17255710507198318164
12166972 35 17916859124039250138
12608794 3 18127429886315018059
12645989 146 18055635006642220038
12788726 201 17613441039296144754
133893 2 18200611283529699345
1361 2 18342162410415747942
14068700 675 18197773311217191292
14400156 147 16769558558653963999
14784336 7 17970334915480241818
150020 26 18117288149905974304
15328829 1 17130171873422552395
15775530 1 18042702756496132883
19315092 285 17275090752378683416
20554085 129 16805870819835803663
20721686 56 18410572856630197914
21344244 246 18340475777127724831
23419403 2 18115610234868357339
23559900 14 18128232564073290447
244849 19 18113907104205177251
25265897 201 16878520040918068253
3298306 158 18193832867232641525
4015057 19 18335706022292348811
469060 322 17985830332681449474
497634 4 16915655874157781506
9981440 41 17976249454723745656

>  <PUBCHEM_SHAPE_MULTIPOLES>  (1) 
699.47
11.29
5.94
2.76
1.82
4.38
-2.55
-3.6
6.29
-11.47
0.76
2.95
-1.29
0.67

>  <PUBCHEM_SHAPE_SELFOVERLAP>  (1) 
1510.045

>  <PUBCHEM_SHAPE_VOLUME>  (1) 
384.6

>  <PUBCHEM_COORDINATE_TYPE>  (1) 
2
5
10

$$$$
