38633
     RDKit          3D

 26 27  0  0  1  0  0  0  0  0999 V2000
    2.5801   -1.3761   -0.1701 O   0  0  0  0  0  0  0  0  0  0  0  0
   -4.1588    0.1754    1.0524 O   0  0  0  0  0  0  0  0  0  0  0  0
    2.1785    0.7556   -0.8945 O   0  0  0  0  0  0  0  0  0  0  0  0
    6.1708   -0.5007    0.2135 N   0  0  0  0  0  0  0  0  0  0  0  0
    0.4954   -0.5581    0.0762 N   0  0  0  0  0  0  0  0  0  0  0  0
    6.9979   -0.3828    1.4226 C   0  0  0  0  0  0  0  0  0  0  0  0
    6.3304    0.6735   -0.6559 C   0  0  0  0  0  0  0  0  0  0  0  0
    8.4785   -0.2389    1.0667 C   0  0  0  0  0  0  0  0  0  0  0  0
    7.7890    0.8520   -1.0796 C   0  0  0  0  0  0  0  0  0  0  0  0
    8.7114    0.9417    0.1309 C   0  0  0  0  0  0  0  0  0  0  0  0
    4.7646   -0.6849    0.5714 C   0  0  0  0  0  0  0  0  0  0  0  0
    3.9435   -1.2494   -0.5905 C   0  0  0  0  0  0  0  0  0  0  0  0
    4.4157   -2.6250   -1.0436 C   0  0  0  0  0  0  0  0  0  0  0  0
   -7.7481    0.1548   -0.0576 C   0  0  0  0  0  0  0  0  0  0  0  0
    1.7821   -0.2832   -0.3805 C   0  0  0  0  0  0  0  0  0  0  0  0
   -8.8998   -0.8484    0.0517 C   0  0  0  0  0  0  0  0  0  0  0  0
   -6.4473   -0.3426    0.5705 C   0  0  0  0  0  0  0  0  0  0  0  0
  -10.1949   -0.3606   -0.5988 C   0  0  0  0  0  0  0  0  0  0  0  0
   -5.3422    0.7002    0.4666 C   0  0  0  0  0  0  0  0  0  0  0  0
   -0.6293    0.2674    0.0589 C   0  0  0  0  0  0  0  0  0  0  0  0
  -11.3252   -1.3592   -0.4001 C   0  0  0  0  0  0  0  0  0  0  0  0
   -2.9666    0.6299    0.5514 C   0  0  0  0  0  0  0  0  0  0  0  0
   -1.8423   -0.1955    0.5687 C   0  0  0  0  0  0  0  0  0  0  0  0
   -0.5406    1.5557   -0.4684 C   0  0  0  0  0  0  0  0  0  0  0  0
   -2.8777    1.9182    0.0240 C   0  0  0  0  0  0  0  0  0  0  0  0
   -1.6648    2.3811   -0.4859 C   0  0  0  0  0  0  0  0  0  0  0  0
  1 12  1  0
  1 15  1  0
  2 19  1  0
  2 22  1  0
  3 15  2  0
  4  6  1  0
  4  7  1  0
  4 11  1  0
  5 15  1  0
  5 20  1  0
  6  8  1  0
  7  9  1  0
  8 10  1  0
  9 10  1  0
 11 12  1  0
 12 13  1  0
 14 16  1  0
 14 17  1  0
 16 18  1  0
 17 19  1  0
 18 21  1  0
 20 23  1  0
 20 24  2  0
 22 23  2  0
 22 25  1  0
 24 26  1  0
 25 26  2  0
M  END
>  <PUBCHEM_COMPOUND_CID>  (1) 
38633

>  <PUBCHEM_CONFORMER_RMSD>  (1) 
1.2

>  <PUBCHEM_CONFORMER_DIVERSEORDER>  (1) 
2
51
134
42
68
122
138
76
120
123
18
106
29
112
127
31
37
7
102
126
115
59
141
88
93
16
27
55
129
64
21
74
125
98
85
45
124
143
107
44
50
140
136
92
133
70
104
58
63
130
46
79
101
114
82
71
119
57
13
35
48
131
73
60
47
105
117
36
89
30
100
137
53
96
139
145
110
67
142
91
108
77
135
4
62
26
15
69
81
109
116
41
94
118
56
61
132
87
66
28
6
144
103
10
54
86
121
38
111
72
113
17
99
25
39
5
19
128
22
32
65
8
75
3
90
97
78
24
84
12
83
20
34
1
14
40
43
33
95
80
23
9
52
11
49

>  <PUBCHEM_MMFF94_PARTIAL_CHARGES>  (1) 
22
1 -0.43
11 0.27
12 0.28
15 0.78
19 0.28
2 -0.36
20 0.12
22 0.08
23 -0.15
24 -0.15
25 -0.15
26 -0.15
3 -0.57
4 -0.81
5 -0.55
53 0.37
57 0.15
58 0.15
59 0.15
6 0.27
60 0.15
7 0.27

>  <PUBCHEM_EFFECTIVE_ROTOR_COUNT>  (1) 
13.2

>  <PUBCHEM_PHARMACOPHORE_FEATURES>  (1) 
8
1 2 acceptor
1 21 hydrophobe
1 3 acceptor
1 4 cation
1 5 donor
4 14 16 17 18 hydrophobe
6 20 22 23 24 25 26 rings
6 4 6 7 8 9 10 rings

>  <PUBCHEM_HEAVY_ATOM_COUNT>  (1) 
26

>  <PUBCHEM_ATOM_DEF_STEREO_COUNT>  (1) 
0

>  <PUBCHEM_ATOM_UDEF_STEREO_COUNT>  (1) 
1

>  <PUBCHEM_BOND_DEF_STEREO_COUNT>  (1) 
0

>  <PUBCHEM_BOND_UDEF_STEREO_COUNT>  (1) 
0

>  <PUBCHEM_ISOTOPIC_ATOM_COUNT>  (1) 
0

>  <PUBCHEM_COMPONENT_COUNT>  (1) 
1

>  <PUBCHEM_CACTVS_TAUTO_COUNT>  (1) 
2

>  <PUBCHEM_CONFORMER_ID>  (1) 
000096E900000002

>  <PUBCHEM_MMFF94_ENERGY>  (1) 
44.0223

>  <PUBCHEM_FEATURE_SELFOVERLAP>  (1) 
40.594

>  <PUBCHEM_SHAPE_FINGERPRINT>  (1) 
10 15 18334577945807557208
10162869 55 18411418436262947725
10299344 5 11887954341572727624
106641 1 17632856434573002953
10674148 151 9367343721931867646
10883706 142 17561081394239790250
11135609 99 17988640874556590079
11724838 91 18334016090881002740
12120059 9 17603588526016800979
12643181 29 17676210195837830947
12838862 33 18040709282033320275
13383668 1 17749662988263822866
13914758 101 14345791626138488428
14150022 121 17703233906378369529
14251764 18 18186243918372690432
14251764 46 18410855468723377659
14918687 75 17203037583117017023
15183329 4 9295287249249584180
15326923 82 18411134758295347669
15392192 104 16343986905787875279
15728490 51 18131067156220351231
16120349 18 18040718099632976836
18335252 98 18201720630479745231
20105231 36 15339123437500252132
21095086 128 16558755598187759494
21130935 74 18057892337998806851
21792961 116 16587745327216229353
22224240 67 18060700584937377590
232437 2 18335137610031921171
23524908 199 13118271556253649425
28498 318 11314307244078057424
335352 9 18260831523178414855
33684 2 12396297058901572675
34797466 226 17917437514974789092
3633792 109 14634866431599890281
4325135 7 18342740719499221980
5104073 3 18119254969896252312
54076057 127 17131836422569326302
57828716 72 17095804420613118916
59682541 35 18412261757560532288
6698420 124 9007051371165768885
67123 10 18342738520813537379

>  <PUBCHEM_SHAPE_MULTIPOLES>  (1) 
507.5
36.01
1.78
1.02
49.89
0
-0.07
-9.58
0.08
-0.39
0.53
-1.28
-0.08
-0.39

>  <PUBCHEM_SHAPE_SELFOVERLAP>  (1) 
1015.212

>  <PUBCHEM_SHAPE_VOLUME>  (1) 
299.8

>  <PUBCHEM_COORDINATE_TYPE>  (1) 
2
5
10

$$$$
