38631
     RDKit          3D

 25 26  0  0  1  0  0  0  0  0999 V2000
    2.4154   -1.5844    1.3171 O   0  0  0  0  0  0  0  0  0  0  0  0
   -4.4868   -0.8791    0.3703 O   0  0  0  0  0  0  0  0  0  0  0  0
    1.9755   -1.6177   -0.9270 O   0  0  0  0  0  0  0  0  0  0  0  0
    4.9794    0.9536    0.4469 N   0  0  0  0  0  0  0  0  0  0  0  0
    0.2810   -1.3771    0.6702 N   0  0  0  0  0  0  0  0  0  0  0  0
    5.6843    0.1934   -0.5948 C   0  0  0  0  0  0  0  0  0  0  0  0
    4.8616    2.3721    0.0815 C   0  0  0  0  0  0  0  0  0  0  0  0
    7.0877    0.7530   -0.8319 C   0  0  0  0  0  0  0  0  0  0  0  0
    6.2383    3.0030   -0.1334 C   0  0  0  0  0  0  0  0  0  0  0  0
    7.0421    2.2370   -1.1779 C   0  0  0  0  0  0  0  0  0  0  0  0
    3.6580    0.3775    0.6949 C   0  0  0  0  0  0  0  0  0  0  0  0
    3.7400   -1.0908    1.1195 C   0  0  0  0  0  0  0  0  0  0  0  0
    4.5067   -1.2954    2.4199 C   0  0  0  0  0  0  0  0  0  0  0  0
    1.5808   -1.5332    0.2297 C   0  0  0  0  0  0  0  0  0  0  0  0
   -7.5088    1.3242   -0.0439 C   0  0  0  0  0  0  0  0  0  0  0  0
   -6.4157    0.5192    0.6555 C   0  0  0  0  0  0  0  0  0  0  0  0
   -8.4081    2.0357    0.9665 C   0  0  0  0  0  0  0  0  0  0  0  0
   -5.4899   -0.1588   -0.3445 C   0  0  0  0  0  0  0  0  0  0  0  0
   -0.8955   -1.2779   -0.1069 C   0  0  0  0  0  0  0  0  0  0  0  0
   -3.2791   -1.0291   -0.2389 C   0  0  0  0  0  0  0  0  0  0  0  0
   -9.4772    2.8654    0.2735 C   0  0  0  0  0  0  0  0  0  0  0  0
   -2.1179   -1.1252    0.5280 C   0  0  0  0  0  0  0  0  0  0  0  0
   -0.8040   -1.3372   -1.4886 C   0  0  0  0  0  0  0  0  0  0  0  0
   -3.2026   -1.0870   -1.6305 C   0  0  0  0  0  0  0  0  0  0  0  0
   -1.9650   -1.2411   -2.2553 C   0  0  0  0  0  0  0  0  0  0  0  0
  1 12  1  0
  1 14  1  0
  2 18  1  0
  2 20  1  0
  3 14  2  0
  4  6  1  0
  4  7  1  0
  4 11  1  0
  5 14  1  0
  5 19  1  0
  6  8  1  0
  7  9  1  0
  8 10  1  0
  9 10  1  0
 11 12  1  0
 12 13  1  0
 15 16  1  0
 15 17  1  0
 16 18  1  0
 17 21  1  0
 19 22  1  0
 19 23  2  0
 20 22  2  0
 20 24  1  0
 23 25  1  0
 24 25  2  0
M  END
>  <PUBCHEM_COMPOUND_CID>  (1) 
38631

>  <PUBCHEM_CONFORMER_RMSD>  (1) 
1.2

>  <PUBCHEM_CONFORMER_DIVERSEORDER>  (1) 
2
103
94
6
121
23
96
108
47
112
75
87
22
122
83
66
53
35
118
65
44
40
32
116
54
45
34
111
98
26
115
114
69
84
91
93
109
55
64
85
110
68
21
95
72
79
14
99
123
57
42
25
67
92
39
71
101
104
102
52
38
113
49
19
17
4
117
105
46
80
51
9
50
29
100
120
31
61
15
27
20
28
74
30
7
119
48
18
78
1
41
88
90
56
107
37
77
70
82
36
13
62
97
86
106
58
10
81
89
33
59
11
12
76
5
63
43
24
60
16
73
8
3

>  <PUBCHEM_MMFF94_PARTIAL_CHARGES>  (1) 
22
1 -0.43
11 0.27
12 0.28
14 0.78
18 0.28
19 0.12
2 -0.36
20 0.08
22 -0.15
23 -0.15
24 -0.15
25 -0.15
3 -0.57
4 -0.81
48 0.37
5 -0.55
54 0.15
55 0.15
56 0.15
57 0.15
6 0.27
7 0.27

>  <PUBCHEM_EFFECTIVE_ROTOR_COUNT>  (1) 
12.2

>  <PUBCHEM_PHARMACOPHORE_FEATURES>  (1) 
7
1 2 acceptor
1 21 hydrophobe
1 3 acceptor
1 4 cation
1 5 donor
6 19 20 22 23 24 25 rings
6 4 6 7 8 9 10 rings

>  <PUBCHEM_HEAVY_ATOM_COUNT>  (1) 
25

>  <PUBCHEM_ATOM_DEF_STEREO_COUNT>  (1) 
0

>  <PUBCHEM_ATOM_UDEF_STEREO_COUNT>  (1) 
1

>  <PUBCHEM_BOND_DEF_STEREO_COUNT>  (1) 
0

>  <PUBCHEM_BOND_UDEF_STEREO_COUNT>  (1) 
0

>  <PUBCHEM_ISOTOPIC_ATOM_COUNT>  (1) 
0

>  <PUBCHEM_COMPONENT_COUNT>  (1) 
1

>  <PUBCHEM_CACTVS_TAUTO_COUNT>  (1) 
2

>  <PUBCHEM_CONFORMER_ID>  (1) 
000096E700000002

>  <PUBCHEM_MMFF94_ENERGY>  (1) 
49.5898

>  <PUBCHEM_FEATURE_SELFOVERLAP>  (1) 
35.52

>  <PUBCHEM_SHAPE_FINGERPRINT>  (1) 
10066227 49 10807934860624910477
10670039 82 16845585196536280051
10693767 8 11240003338725520445
10753850 27 11169918277796970947
10816530 90 18131347509873098248
10883706 17 10087341340865705405
11386260 185 14836393753022437210
12035758 1 15936130772688255379
12539765 74 18342460292922520767
12661589 4 12108057826675439024
12838863 1 11671514352886493340
13668630 136 10303821972716621105
14026016 60 12103566338682184925
14251757 52 18412265034045663057
14428016 204 18410855452451188485
14931854 50 15482388669461503675
15183329 4 15626235623417359622
15475509 35 11602822419052484381
15706992 2 18334871506537564433
1577012 14 18411695491966269403
15840311 113 18336268947119551445
1768 124 8502384325667427080
18335252 114 17775568615325318656
20028762 73 9150909282074470040
2026 5 10303823064251049733
21095123 293 18340208501793799825
21130935 74 17676205754483360363
21307412 95 14476966730691955629
21315764 119 17275112760207586366
21344244 78 15140684661304161903
21521239 73 12175618473710255413
21585482 111 18261673662986577117
21637258 2 7853569115739694251
22122407 14 18410018757961185641
22149856 69 15647337369168027719
2215653 11 14476967813219035422
23559900 14 14620510194608180474
23576562 1 17273960502508986385
3014063 24 10015592705136002528
312425 54 17385445423561002107
3383291 50 12757156771022777929
3711267 37 18202289099857046041
406291 66 8718837482776970649
4169191 19 18341613677864905601
439807 62 9151165459930677561
5104073 3 16009572586929262950
5718773 13 9439405722622090969
5911458 16 18413395332411071225
59682541 35 14201401611927411180
59682541 52 15267346197520992766
60123966 16 15051440674353504202
6289498 60 18192151487439604457
6438161 24 9367342622488830549
9689198 14 18409455799338194617

>  <PUBCHEM_SHAPE_MULTIPOLES>  (1) 
486.92
26.13
2.91
1.63
33.96
2.28
0.04
29.97
-2.16
-0.24
0.04
-1.03
-0.83
-3.38

>  <PUBCHEM_SHAPE_SELFOVERLAP>  (1) 
980.151

>  <PUBCHEM_SHAPE_VOLUME>  (1) 
286

>  <PUBCHEM_COORDINATE_TYPE>  (1) 
2
5
10

$$$$
