38636
     RDKit          3D

 27 29  0  0  1  0  0  0  0  0999 V2000
   -1.0200   -0.1969   -2.4438 O   0  0  0  0  0  0  0  0  0  0  0  0
   -1.0773   -1.7673   -0.6852 N   0  0  0  0  0  0  0  0  0  0  0  0
   -1.0746   -2.9272   -1.4174 N   0  0  0  0  0  0  0  0  0  0  0  0
    6.4822    0.4573    0.1773 N   0  0  0  0  0  0  0  0  0  0  0  0
   -1.0432    0.5242   -0.0746 C   0  0  0  0  0  0  0  0  0  0  0  0
    0.2363    1.3549   -0.1027 C   0  0  0  0  0  0  0  0  0  0  0  0
   -1.0985   -0.4035    1.1299 C   0  0  0  0  0  0  0  0  0  0  0  0
   -1.0436   -0.4925   -1.2573 C   0  0  0  0  0  0  0  0  0  0  0  0
    1.4749    0.4708    0.0290 C   0  0  0  0  0  0  0  0  0  0  0  0
   -2.2509    1.4017   -0.1662 C   0  0  0  0  0  0  0  0  0  0  0  0
   -1.1138   -1.7357    0.7074 C   0  0  0  0  0  0  0  0  0  0  0  0
    2.7527    1.3130    0.0307 C   0  0  0  0  0  0  0  0  0  0  0  0
   -1.1272   -0.0911    2.4796 C   0  0  0  0  0  0  0  0  0  0  0  0
    4.0341    0.4754    0.0885 C   0  0  0  0  0  0  0  0  0  0  0  0
   -1.1607   -2.7882    1.6044 C   0  0  0  0  0  0  0  0  0  0  0  0
   -3.5154    0.8304   -0.2876 C   0  0  0  0  0  0  0  0  0  0  0  0
   -2.1063    2.7866   -0.1291 C   0  0  0  0  0  0  0  0  0  0  0  0
   -1.1751   -1.1414    3.3998 C   0  0  0  0  0  0  0  0  0  0  0  0
   -1.1919   -2.4780    2.9656 C   0  0  0  0  0  0  0  0  0  0  0  0
    5.3073    1.3204    0.1163 C   0  0  0  0  0  0  0  0  0  0  0  0
   -2.2698   -3.0004   -2.2601 C   0  0  0  0  0  0  0  0  0  0  0  0
    0.1353   -3.0091   -2.2379 C   0  0  0  0  0  0  0  0  0  0  0  0
   -4.6419    1.6485   -0.3728 C   0  0  0  0  0  0  0  0  0  0  0  0
   -3.2330    3.6047   -0.2142 C   0  0  0  0  0  0  0  0  0  0  0  0
   -4.5006    3.0356   -0.3360 C   0  0  0  0  0  0  0  0  0  0  0  0
    6.5144   -0.4498   -0.9708 C   0  0  0  0  0  0  0  0  0  0  0  0
    7.7065    1.2577    0.2272 C   0  0  0  0  0  0  0  0  0  0  0  0
  1  8  2  0
  2  3  1  0
  2  8  1  0
  2 11  1  0
  3 21  1  0
  3 22  1  0
  4 20  1  0
  4 26  1  0
  4 27  1  0
  5  6  1  0
  5  7  1  0
  5  8  1  0
  5 10  1  0
  6  9  1  0
  7 11  2  0
  7 13  1  0
  9 12  1  0
 10 16  2  0
 10 17  1  0
 11 15  1  0
 12 14  1  0
 13 18  2  0
 14 20  1  0
 15 19  2  0
 16 23  1  0
 17 24  2  0
 18 19  1  0
 23 25  2  0
 24 25  1  0
M  END
>  <PUBCHEM_COMPOUND_CID>  (1) 
38636

>  <PUBCHEM_CONFORMER_RMSD>  (1) 
1

>  <PUBCHEM_CONFORMER_DIVERSEORDER>  (1) 
9
55
71
38
68
64
58
28
26
65
47
70
18
59
62
31
63
20
5
69
22
73
16
34
12
35
29
10
57
19
45
60
56
17
52
44
39
50
8
24
42
6
67
40
43
53
33
4
46
1
61
36
49
2
66
41
48
72
7
30
14
54
37
25
13
32
27
23
3
51
11
21
15

>  <PUBCHEM_MMFF94_PARTIAL_CHARGES>  (1) 
32
1 -0.57
10 -0.14
11 0.12
13 -0.15
15 -0.15
16 -0.15
17 -0.15
18 -0.15
19 -0.15
2 -0.17
20 0.27
21 0.27
22 0.27
23 -0.15
24 -0.15
25 -0.15
26 0.27
27 0.27
3 -0.55
34 0.15
37 0.15
38 0.15
39 0.15
4 -0.81
40 0.15
41 0.15
5 0.35
50 0.15
51 0.15
52 0.15
7 -0.14
8 0.57

>  <PUBCHEM_EFFECTIVE_ROTOR_COUNT>  (1) 
8.4

>  <PUBCHEM_PHARMACOPHORE_FEATURES>  (1) 
6
1 1 acceptor
1 4 cation
4 6 9 12 14 hydrophobe
5 2 5 7 8 11 rings
6 10 16 17 23 24 25 rings
6 7 11 13 15 18 19 rings

>  <PUBCHEM_HEAVY_ATOM_COUNT>  (1) 
27

>  <PUBCHEM_ATOM_DEF_STEREO_COUNT>  (1) 
0

>  <PUBCHEM_ATOM_UDEF_STEREO_COUNT>  (1) 
1

>  <PUBCHEM_BOND_DEF_STEREO_COUNT>  (1) 
0

>  <PUBCHEM_BOND_UDEF_STEREO_COUNT>  (1) 
0

>  <PUBCHEM_ISOTOPIC_ATOM_COUNT>  (1) 
0

>  <PUBCHEM_COMPONENT_COUNT>  (1) 
1

>  <PUBCHEM_CACTVS_TAUTO_COUNT>  (1) 
1

>  <PUBCHEM_CONFORMER_ID>  (1) 
000096EC00000009

>  <PUBCHEM_MMFF94_ENERGY>  (1) 
83.7765

>  <PUBCHEM_FEATURE_SELFOVERLAP>  (1) 
30.53

>  <PUBCHEM_SHAPE_FINGERPRINT>  (1) 
10165383 225 17775288249389076425
10483366 6 18129644426965904511
107951 10 18187371982594838834
11443803 9 18267563763686851449
12597179 24 18337122150567151699
12788726 201 18190165953310193603
13135754 10 17386874822678062138
13150687 139 18341046298818631221
133893 2 17056985978011074294
14468879 13 18411989035437201894
14713325 29 18341327885786445951
15131766 46 15070341318074373972
15361156 5 18334303089476144612
167882 2 18055636114368657838
17093844 174 18342454877295411752
17980427 26 17534608335969990835
20602899 9 17632578240466113711
20771845 165 18199477571679083324
21133665 82 18191024505084054916
21756936 100 18113332007773253248
23419403 2 17691453687036560363
23559900 14 17775273998482185064
23598288 3 17970647370139784764
23728640 28 18412262873866893972
298252 57 18342730785245251385
3380486 77 17337604791720234543
3383291 50 18334015029275157194
3411729 13 17902790765498670905
3729539 64 17560235804555713652
394222 165 18048306752788771385
4015057 19 18129929191814307496
4073 2 18186523237892945368
484985 159 17677048078831391522
497634 4 16806177703886549380
531348 171 18342174462959117758
59755656 520 17676202455547017008
6669772 16 18189337874862235035
70251023 43 17908976956922945354
7288768 16 17749390330353096546
9981440 41 18341340993651736012

>  <PUBCHEM_SHAPE_MULTIPOLES>  (1) 
534.83
11.37
4.02
2.53
33.93
0.73
-1.21
-10.04
1.37
-5.13
0.79
-1.81
3.3
0.7

>  <PUBCHEM_SHAPE_SELFOVERLAP>  (1) 
1132.561

>  <PUBCHEM_SHAPE_VOLUME>  (1) 
302.8

>  <PUBCHEM_COORDINATE_TYPE>  (1) 
2
5
10

$$$$
