3864
     RDKit          3D

 16 15  0  0  1  0  0  0  0  0999 V2000
   -2.4621    1.6757    0.1848 O   0  0  0  0  0  0  0  0  0  0  0  0
   -4.0305    0.4373   -0.9623 O   0  0  0  0  0  0  0  0  0  0  0  0
    4.2745    2.0719    0.4074 O   0  0  0  0  0  0  0  0  0  0  0  0
    2.1166    1.6779    0.2282 O   0  0  0  0  0  0  0  0  0  0  0  0
   -3.7100   -1.6759    0.7116 N   0  0  0  0  0  0  0  0  0  0  0  0
    1.3932   -0.7870   -0.2471 N   0  0  0  0  0  0  0  0  0  0  0  0
    3.6259    0.0165    0.0110 N   0  0  0  0  0  0  0  0  0  0  0  0
    3.3105   -2.1957   -0.3985 N   0  0  0  0  0  0  0  0  0  0  0  0
    3.3019    1.3319    0.2268 N   0  0  0  0  0  0  0  0  0  0  0  0
   -1.3545   -0.9161    0.8563 C   0  0  0  0  0  0  0  0  0  0  0  0
   -0.9306   -1.5243   -0.4897 C   0  0  0  0  0  0  0  0  0  0  0  0
   -2.8380   -0.5244    0.9378 C   0  0  0  0  0  0  0  0  0  0  0  0
    0.5358   -1.9469   -0.4975 C   0  0  0  0  0  0  0  0  0  0  0  0
   -3.2005    0.5533   -0.0698 C   0  0  0  0  0  0  0  0  0  0  0  0
    2.6744   -0.9803   -0.2152 C   0  0  0  0  0  0  0  0  0  0  0  0
   -2.7065    2.7864   -0.6841 C   0  0  0  0  0  0  0  0  0  0  0  0
  1 14  1  0
  1 16  1  0
  2 14  2  0
  3  9  1  0
  4  9  2  0
  5 12  1  0
  6 13  1  0
  6 15  2  0
  7  9  1  0
  7 15  1  0
  8 15  1  0
 10 11  1  0
 10 12  1  0
 11 13  1  0
 12 14  1  0
M  CHG  2   3  -1   9   1
M  END
>  <PUBCHEM_COMPOUND_CID>  (1) 
3864

>  <PUBCHEM_CONFORMER_RMSD>  (1) 
0.8

>  <PUBCHEM_CONFORMER_DIVERSEORDER>  (1) 
1
72
179
269
49
85
257
241
21
68
131
273
191
151
144
125
23
69
16
200
71
254
178
61
204
140
171
80
148
67
244
252
263
223
303
143
208
203
253
11
221
220
122
32
161
102
209
145
117
44
251
8
112
250
278
284
292
162
137
124
86
279
247
46
173
29
121
113
81
272
65
2
45
301
202
119
229
103
168
9
100
6
255
225
70
55
256
153
260
213
3
265
199
93
264
98
91
22
120
290
231
25
109
48
15
99
283
259
7
196
47
189
184
133
96
116
288
234
14
240
35
60
163
236
31
190
77
89
73
82
110
182
302
237
294
58
115
79
155
128
217
176
42
28
136
166
12
62
146
18
186
78
248
127
36
289
5
172
132
52
246
4
232
287
274
258
167
53
205
164
107
20
83
13
147
270
104
277
298
224
235
299
183
88
197
139
108
226
10
126
149
94
230
201
84
130
228
245
106
276
207
66
111
239
242
19
262
34
280
160
281
275
40
193
95
206
233
24
188
63
169
216
142
214
64
123
59
157
152
267
295
37
175
33
27
238
170
181
135
192
138
194
56
222
219
198
268
101
97
87
282
51
76
266
211
134
92
118
293
74
129
17
165
39
141
210
90
297
26
187
150
249
180
296
75
154
38
41
215
43
57
218
300
50
105
227
174
158
261
285
30
195
156
212
286
243
114
271
185
177
54
291
159

>  <PUBCHEM_MMFF94_PARTIAL_CHARGES>  (1) 
19
1 -0.43
12 0.33
13 0.25
14 0.66
15 0.55
16 0.28
2 -0.57
24 0.36
25 0.36
29 0.4
3 -0.52
30 0.4
31 0.4
4 -0.52
5 -0.99
6 -0.7
7 -0.45
8 -0.85
9 1.04

>  <PUBCHEM_EFFECTIVE_ROTOR_COUNT>  (1) 
8

>  <PUBCHEM_PHARMACOPHORE_FEATURES>  (1) 
8
1 2 acceptor
1 3 acceptor
1 4 acceptor
1 5 cation
1 5 donor
1 7 donor
1 8 donor
4 6 7 8 15 cation

>  <PUBCHEM_HEAVY_ATOM_COUNT>  (1) 
16

>  <PUBCHEM_ATOM_DEF_STEREO_COUNT>  (1) 
0

>  <PUBCHEM_ATOM_UDEF_STEREO_COUNT>  (1) 
1

>  <PUBCHEM_BOND_DEF_STEREO_COUNT>  (1) 
0

>  <PUBCHEM_BOND_UDEF_STEREO_COUNT>  (1) 
0

>  <PUBCHEM_ISOTOPIC_ATOM_COUNT>  (1) 
0

>  <PUBCHEM_COMPONENT_COUNT>  (1) 
1

>  <PUBCHEM_CACTVS_TAUTO_COUNT>  (1) 
3

>  <PUBCHEM_CONFORMER_ID>  (1) 
00000F1800000001

>  <PUBCHEM_MMFF94_ENERGY>  (1) 
28.4674

>  <PUBCHEM_FEATURE_SELFOVERLAP>  (1) 
40.734

>  <PUBCHEM_SHAPE_FINGERPRINT>  (1) 
10608611 8 18410014295157510671
11615756 256 18410865325689587976
11615756 56 18339924814058852061
11715629 250 18341896337434464150
13618510 140 18413107281627907528
14026960 21 18411423950658155183
14251764 38 18338790122417797256
17041 50 18198072374011671662
17802600 8 18410853222539936391
18186145 218 18130801026892841410
20645477 56 18189908513365875855
20681677 76 18409168809492022779
21249577 43 18410013229984658676
21524375 3 18200879598932765382
21652331 79 18339082695621110027
22182937 141 18196381316743978577
23557571 272 18187375354381503947
23590187 86 18337951194897935677
351380 180 18337666421565377903
3524813 1 18199748209804504864
4028521 119 18188483584819102405
8050 44 18410855417447657101

>  <PUBCHEM_SHAPE_MULTIPOLES>  (1) 
280.89
8.35
2.83
0.86
2.79
1.29
0.02
2.7
0.18
0.32
-0.28
-0.53
-0.08
1.4

>  <PUBCHEM_SHAPE_SELFOVERLAP>  (1) 
539.263

>  <PUBCHEM_SHAPE_VOLUME>  (1) 
170.6

>  <PUBCHEM_COORDINATE_TYPE>  (1) 
2
5
10

$$$$
