38646
     RDKit          3D

 45 50  0  0  0  0  0  0  0  0999 V2000
   -8.1987    2.5542   -1.1882 Cl  0  0  0  0  0  0  0  0  0  0  0  0
  -10.6664   -2.4993    1.6519 Cl  0  0  0  0  0  0  0  0  0  0  0  0
    8.0629   -2.5143   -1.4699 Cl  0  0  0  0  0  0  0  0  0  0  0  0
   10.9661    2.1378    1.6321 Cl  0  0  0  0  0  0  0  0  0  0  0  0
  -11.3170    2.3988   -0.6864 Cl  0  0  0  0  0  0  0  0  0  0  0  0
  -12.5553   -0.1201    0.7314 Cl  0  0  0  0  0  0  0  0  0  0  0  0
   11.2224   -2.4161   -1.3809 Cl  0  0  0  0  0  0  0  0  0  0  0  0
   12.6780   -0.0975    0.1662 Cl  0  0  0  0  0  0  0  0  0  0  0  0
   -7.6693   -2.9666    1.4723 O   0  0  0  0  0  0  0  0  0  0  0  0
    7.9796    2.6160    1.9230 O   0  0  0  0  0  0  0  0  0  0  0  0
   -5.8045    0.7170   -0.6031 N   0  0  0  0  0  0  0  0  0  0  0  0
    5.7833   -0.7857   -0.3418 N   0  0  0  0  0  0  0  0  0  0  0  0
   -6.3911   -1.2939    0.4719 N   0  0  0  0  0  0  0  0  0  0  0  0
    6.5533    1.0827    0.8997 N   0  0  0  0  0  0  0  0  0  0  0  0
   -0.2597    0.0615   -1.0393 N   0  0  0  0  0  0  0  0  0  0  0  0
    0.2480   -0.0698    0.0992 N   0  0  0  0  0  0  0  0  0  0  0  0
   -8.1261    0.1214    0.0074 C   0  0  0  0  0  0  0  0  0  0  0  0
   -6.6894   -0.1380   -0.0598 C   0  0  0  0  0  0  0  0  0  0  0  0
   -8.6746   -0.9839    0.6297 C   0  0  0  0  0  0  0  0  0  0  0  0
    8.1885   -0.2560    0.0261 C   0  0  0  0  0  0  0  0  0  0  0  0
    8.8323    0.7612    0.7045 C   0  0  0  0  0  0  0  0  0  0  0  0
    6.7599    0.0058    0.1886 C   0  0  0  0  0  0  0  0  0  0  0  0
   -4.4073    0.5571   -0.7123 C   0  0  0  0  0  0  0  0  0  0  0  0
   -8.9019    1.1813   -0.4119 C   0  0  0  0  0  0  0  0  0  0  0  0
   -7.5636   -1.8838    0.9231 C   0  0  0  0  0  0  0  0  0  0  0  0
  -10.0267   -1.0992    0.8710 C   0  0  0  0  0  0  0  0  0  0  0  0
   -2.1921    1.5166   -0.8067 C   0  0  0  0  0  0  0  0  0  0  0  0
    8.8847   -1.2509   -0.6270 C   0  0  0  0  0  0  0  0  0  0  0  0
   -3.5737    1.6754   -0.6988 C   0  0  0  0  0  0  0  0  0  0  0  0
    7.7846    1.6126    1.2591 C   0  0  0  0  0  0  0  0  0  0  0  0
   10.2062    0.8484    0.7725 C   0  0  0  0  0  0  0  0  0  0  0  0
    4.4009   -0.6066   -0.2318 C   0  0  0  0  0  0  0  0  0  0  0  0
   -3.8593   -0.7199   -0.8341 C   0  0  0  0  0  0  0  0  0  0  0  0
   -1.6491    0.2402   -0.9280 C   0  0  0  0  0  0  0  0  0  0  0  0
  -10.2780    1.0914   -0.1802 C   0  0  0  0  0  0  0  0  0  0  0  0
  -10.8351   -0.0378    0.4555 C   0  0  0  0  0  0  0  0  0  0  0  0
   10.2808   -1.1878   -0.5749 C   0  0  0  0  0  0  0  0  0  0  0  0
   -2.4776   -0.8786   -0.9420 C   0  0  0  0  0  0  0  0  0  0  0  0
   10.9353   -0.1483    0.1185 C   0  0  0  0  0  0  0  0  0  0  0  0
    3.8592    0.6797   -0.1092 C   0  0  0  0  0  0  0  0  0  0  0  0
    3.5391   -1.7114   -0.2426 C   0  0  0  0  0  0  0  0  0  0  0  0
   -1.3193    2.7288   -0.7916 C   0  0  0  0  0  0  0  0  0  0  0  0
    1.6307   -0.2480   -0.0111 C   0  0  0  0  0  0  0  0  0  0  0  0
    2.4802    0.8582    0.0007 C   0  0  0  0  0  0  0  0  0  0  0  0
    2.1601   -1.5328   -0.1328 C   0  0  0  0  0  0  0  0  0  0  0  0
  1 24  1  0
  2 26  1  0
  3 28  1  0
  4 31  1  0
  5 35  1  0
  6 36  1  0
  7 37  1  0
  8 39  1  0
  9 25  2  0
 10 30  2  0
 11 18  1  0
 11 23  1  0
 12 22  1  0
 12 32  1  0
 13 18  2  0
 13 25  1  0
 14 22  2  0
 14 30  1  0
 15 16  2  0
 15 34  1  0
 16 43  1  0
 17 18  1  0
 17 19  2  0
 17 24  1  0
 19 25  1  0
 19 26  1  0
 20 21  2  0
 20 22  1  0
 20 28  1  0
 21 30  1  0
 21 31  1  0
 23 29  1  0
 23 33  2  0
 24 35  2  0
 26 36  2  0
 27 29  2  0
 27 34  1  0
 27 42  1  0
 28 37  2  0
 31 39  2  0
 32 40  2  0
 32 41  1  0
 33 38  1  0
 34 38  2  0
 35 36  1  0
 37 39  1  0
 40 44  1  0
 41 45  2  0
 43 44  2  0
 43 45  1  0
M  END
>  <PUBCHEM_COMPOUND_CID>  (1) 
38646

>  <PUBCHEM_CONFORMER_RMSD>  (1) 
1

>  <PUBCHEM_CONFORMER_DIVERSEORDER>  (1) 
1
144
153
73
100
158
22
118
126
12
164
15
150
163
62
57
6
160
114
2
141
142
17
156
146
67
108
155
19
133
152
159
8
120
10
122
157
20
64
11
58
24
33
132
145
89
3
36
34
63
129
140
77
165
27
4
170
66
162
169
84
125
123
138
168
5
109
121
94
65
124
136
18
131
101
68
135
107
96
112
104
99
69
98
134
32
117
143
116
7
43
87
48
9
115
91
110
83
151
13
119
97
93
28
127
95
39
21
41
78
139
102
113
71
105
88
16
76
40
25
111
55
49
137
154
47
23
44
50
149
128
56
72
130
106
147
82
81
60
74
45
161
14
29
167
85
51
61
103
166
26
80
92
86
37
42
59
31
53
148
35
30
52
75
54
46
79
70
38
90

>  <PUBCHEM_MMFF94_PARTIAL_CHARGES>  (1) 
54
1 -0.18
10 -0.57
11 -0.55
12 -0.55
13 -0.66
14 -0.66
15 -0.18
16 -0.18
17 0.09
18 0.41
19 0.09
2 -0.18
20 0.09
21 0.09
22 0.41
23 0.1
24 0.18
25 0.69
26 0.18
27 -0.14
28 0.18
29 -0.15
3 -0.18
30 0.69
31 0.18
32 0.1
33 -0.15
34 0.18
35 0.18
36 0.18
37 0.18
38 -0.15
39 0.18
4 -0.18
40 -0.15
41 -0.15
42 0.14
43 0.18
44 -0.15
45 -0.15
46 0.4
47 0.4
48 0.15
49 0.15
5 -0.18
50 0.15
51 0.15
52 0.15
56 0.15
57 0.15
6 -0.18
7 -0.18
8 -0.18
9 -0.57

>  <PUBCHEM_EFFECTIVE_ROTOR_COUNT>  (1) 
6

>  <PUBCHEM_PHARMACOPHORE_FEATURES>  (1) 
12
1 10 acceptor
1 11 donor
1 12 donor
1 13 donor
1 14 donor
1 9 acceptor
5 13 17 18 19 25 rings
5 14 20 21 22 30 rings
6 17 19 24 26 35 36 rings
6 20 21 28 31 37 39 rings
6 23 27 29 33 34 38 rings
6 32 40 41 43 44 45 rings

>  <PUBCHEM_HEAVY_ATOM_COUNT>  (1) 
45

>  <PUBCHEM_ATOM_DEF_STEREO_COUNT>  (1) 
0

>  <PUBCHEM_ATOM_UDEF_STEREO_COUNT>  (1) 
0

>  <PUBCHEM_BOND_DEF_STEREO_COUNT>  (1) 
0

>  <PUBCHEM_BOND_UDEF_STEREO_COUNT>  (1) 
0

>  <PUBCHEM_ISOTOPIC_ATOM_COUNT>  (1) 
0

>  <PUBCHEM_COMPONENT_COUNT>  (1) 
1

>  <PUBCHEM_CACTVS_TAUTO_COUNT>  (1) 
15

>  <PUBCHEM_CONFORMER_ID>  (1) 
000096F600000001

>  <PUBCHEM_MMFF94_ENERGY>  (1) 
157.2764

>  <PUBCHEM_FEATURE_SELFOVERLAP>  (1) 
61.152

>  <PUBCHEM_SHAPE_FINGERPRINT>  (1) 
10674148 151 17749107799669051185
11966995 178 18410853245291620514
12013929 2 18413670201431928075
12013929 94 18334860524670360971
12098696 120 18202285796705103950
12664476 115 15195284222394948531
131240 100 18411418410466796216
13740195 50 18343019995310447129
15061470 23 18411698776988906196
15065858 18 18410291410663119202
15247644 1 15357694184693458632
15274700 256 18186521012430096057
15343295 20 18408885148191978492
15347591 1 17899408688794323342
15392192 104 16805317783173603186
15510794 2 18411421695795245143
15530121 191 18411128122276339956
16067689 302 18272091544671435678
16728433 110 18272087201456880212
19315958 150 17703794712409516623
19841028 212 17895189931836419811
20105231 36 18410013234327371702
20501277 279 18342175574421828138
232437 2 18113337505004051863
24893992 56 18259703390569508842
3092352 35 16877939426987673442
54131252 152 17632290160858487279
9937071 3 18343025480300357806

>  <PUBCHEM_SHAPE_MULTIPOLES>  (1) 
899.41
61.35
2.64
1.29
8.34
0.02
0.22
-3.88
13.04
-1.25
0.19
0.62
-0.01
8.32

>  <PUBCHEM_SHAPE_SELFOVERLAP>  (1) 
1949.882

>  <PUBCHEM_SHAPE_VOLUME>  (1) 
500.7

>  <PUBCHEM_COORDINATE_TYPE>  (1) 
2
5
10

$$$$
