38643
     RDKit          3D

 36 39  0  0  1  0  0  0  0  0999 V2000
   -0.7796   -0.8755   -1.9017 O   0  0  0  0  0  0  0  0  0  0  0  0
    3.1647    1.4142    1.4702 O   0  0  0  0  0  0  0  0  0  0  0  0
    6.3844   -1.7913   -1.6525 O   0  0  0  0  0  0  0  0  0  0  0  0
   -0.1150   -0.8277    0.3606 N   0  0  0  0  0  0  0  0  0  0  0  0
    1.2068   -1.1640    0.2154 N   0  0  0  0  0  0  0  0  0  0  0  0
   -2.1804    3.4242   -0.8490 N   0  0  0  0  0  0  0  0  0  0  0  0
   -2.3797   -0.2964   -0.1024 C   0  0  0  0  0  0  0  0  0  0  0  0
   -2.8022    1.0681   -0.6388 C   0  0  0  0  0  0  0  0  0  0  0  0
   -2.0590   -0.2543    1.3841 C   0  0  0  0  0  0  0  0  0  0  0  0
   -1.0032   -0.7046   -0.7115 C   0  0  0  0  0  0  0  0  0  0  0  0
   -0.7141   -0.5726    1.5926 C   0  0  0  0  0  0  0  0  0  0  0  0
   -3.4023   -1.3380   -0.4291 C   0  0  0  0  0  0  0  0  0  0  0  0
   -1.7454    2.1271   -0.3446 C   0  0  0  0  0  0  0  0  0  0  0  0
   -2.8870    0.0454    2.4541 C   0  0  0  0  0  0  0  0  0  0  0  0
   -0.1568   -0.6056    2.8587 C   0  0  0  0  0  0  0  0  0  0  0  0
   -4.6105   -0.9682   -1.0200 C   0  0  0  0  0  0  0  0  0  0  0  0
   -3.1478   -2.6791   -0.1422 C   0  0  0  0  0  0  0  0  0  0  0  0
    1.9072   -0.1484   -0.5733 C   0  0  0  0  0  0  0  0  0  0  0  0
   -2.3412    0.0165    3.7399 C   0  0  0  0  0  0  0  0  0  0  0  0
   -1.4914    4.5081   -0.1465 C   0  0  0  0  0  0  0  0  0  0  0  0
   -1.9436    3.5224   -2.2904 C   0  0  0  0  0  0  0  0  0  0  0  0
   -0.9881   -0.3064    3.9402 C   0  0  0  0  0  0  0  0  0  0  0  0
    1.3316   -2.4786   -0.4173 C   0  0  0  0  0  0  0  0  0  0  0  0
   -5.5641   -1.9397   -1.3243 C   0  0  0  0  0  0  0  0  0  0  0  0
   -4.1014   -3.6505   -0.4466 C   0  0  0  0  0  0  0  0  0  0  0  0
    3.3910   -0.1652   -0.3185 C   0  0  0  0  0  0  0  0  0  0  0  0
   -5.3095   -3.2809   -1.0376 C   0  0  0  0  0  0  0  0  0  0  0  0
    0.0079    4.4517   -0.3856 C   0  0  0  0  0  0  0  0  0  0  0  0
   -2.4528    4.8435   -2.8415 C   0  0  0  0  0  0  0  0  0  0  0  0
    3.9495    0.6171    0.6925 C   0  0  0  0  0  0  0  0  0  0  0  0
    4.2093   -0.9748   -1.1064 C   0  0  0  0  0  0  0  0  0  0  0  0
    5.5859   -1.0020   -0.8833 C   0  0  0  0  0  0  0  0  0  0  0  0
    5.3262    0.5900    0.9154 C   0  0  0  0  0  0  0  0  0  0  0  0
    6.1444   -0.2196    0.1276 C   0  0  0  0  0  0  0  0  0  0  0  0
    3.8185    2.1801    2.4801 C   0  0  0  0  0  0  0  0  0  0  0  0
    5.7477   -2.5653   -2.6681 C   0  0  0  0  0  0  0  0  0  0  0  0
  1 10  2  0
  2 30  1  0
  2 35  1  0
  3 32  1  0
  3 36  1  0
  4  5  1  0
  4 10  1  0
  4 11  1  0
  5 18  1  0
  5 23  1  0
  6 13  1  0
  6 20  1  0
  6 21  1  0
  7  8  1  0
  7  9  1  0
  7 10  1  0
  7 12  1  0
  8 13  1  0
  9 11  2  0
  9 14  1  0
 11 15  1  0
 12 16  2  0
 12 17  1  0
 14 19  2  0
 15 22  2  0
 16 24  1  0
 17 25  2  0
 18 26  1  0
 19 22  1  0
 20 28  1  0
 21 29  1  0
 24 27  2  0
 25 27  1  0
 26 30  2  0
 26 31  1  0
 30 33  1  0
 31 32  2  0
 32 34  1  0
 33 34  2  0
M  END
>  <PUBCHEM_COMPOUND_CID>  (1) 
38643

>  <PUBCHEM_CONFORMER_RMSD>  (1) 
1.2

>  <PUBCHEM_CONFORMER_DIVERSEORDER>  (1) 
1
21
99
15
87
58
50
77
98
18
74
59
82
71
49
57
34
76
26
63
85
11
10
89
91
47
56
4
13
95
54
83
81
38
73
60
17
80
40
97
43
41
39
86
27
36
25
68
48
46
70
55
88
84
67
32
14
61
64
42
75
94
5
33
78
29
22
19
16
24
20
69
51
92
66
37
72
3
62
28
79
12
96
2
30
31
90
44
23
6
52
35
45
93
8
9
53
7
65

>  <PUBCHEM_MMFF94_PARTIAL_CHARGES>  (1) 
45
1 -0.57
10 0.57
11 0.12
12 -0.14
13 0.27
14 -0.15
15 -0.15
16 -0.15
17 -0.15
18 0.41
19 -0.15
2 -0.36
20 0.27
21 0.27
22 -0.15
23 0.27
24 -0.15
25 -0.15
26 -0.14
27 -0.15
3 -0.36
30 0.08
31 -0.15
32 0.08
33 -0.15
34 -0.15
35 0.28
36 0.28
4 -0.17
41 0.15
42 0.15
43 0.15
44 0.15
47 0.15
5 -0.55
52 0.15
56 0.15
57 0.15
58 0.15
6 -0.81
65 0.15
66 0.15
67 0.15
7 0.35
9 -0.14

>  <PUBCHEM_EFFECTIVE_ROTOR_COUNT>  (1) 
11.4

>  <PUBCHEM_PHARMACOPHORE_FEATURES>  (1) 
8
1 1 acceptor
1 2 acceptor
1 3 acceptor
1 6 cation
5 4 7 9 10 11 rings
6 12 16 17 24 25 27 rings
6 26 30 31 32 33 34 rings
6 9 11 14 15 19 22 rings

>  <PUBCHEM_HEAVY_ATOM_COUNT>  (1) 
36

>  <PUBCHEM_ATOM_DEF_STEREO_COUNT>  (1) 
0

>  <PUBCHEM_ATOM_UDEF_STEREO_COUNT>  (1) 
1

>  <PUBCHEM_BOND_DEF_STEREO_COUNT>  (1) 
0

>  <PUBCHEM_BOND_UDEF_STEREO_COUNT>  (1) 
0

>  <PUBCHEM_ISOTOPIC_ATOM_COUNT>  (1) 
0

>  <PUBCHEM_COMPONENT_COUNT>  (1) 
1

>  <PUBCHEM_CACTVS_TAUTO_COUNT>  (1) 
1

>  <PUBCHEM_CONFORMER_ID>  (1) 
000096F300000001

>  <PUBCHEM_MMFF94_ENERGY>  (1) 
129.716

>  <PUBCHEM_FEATURE_SELFOVERLAP>  (1) 
40.682

>  <PUBCHEM_SHAPE_FINGERPRINT>  (1) 
11445158 3 16988274399609408380
11488393 25 17252590587500289155
11763715 3 18262539076862027054
12058002 1 17698480867629204999
12788726 201 18042108908953782537
133893 2 17688337963257399945
13560911 43 18341037623728310024
13782708 43 18130784590069116614
14068700 675 18040708212322466612
14114206 34 17458067062009719701
15198563 99 18335693932708654005
17492 89 16845028839885724078
21033650 10 18041286448486434932
22393880 68 18269553849942687766
23559900 14 17982996046179037463
376196 1 17104814618108661077
404807 14 18272097084234261009
46194498 28 18272081747739886412
469060 322 18412550932864926371
484985 159 17914910733499717872
497634 4 17918002663107316738
508706 21 18335710412218651158
5104073 3 16702032946157457370
531348 171 18192439563173880310
57527295 17 18190184482384995658
6086070 43 18198894813515515378

>  <PUBCHEM_SHAPE_MULTIPOLES>  (1) 
708.31
12.35
5.13
3.24
16.69
7.36
3.01
-10.04
-5.94
-5.57
-4.45
-0.58
0.67
3.04

>  <PUBCHEM_SHAPE_SELFOVERLAP>  (1) 
1521.808

>  <PUBCHEM_SHAPE_VOLUME>  (1) 
394

>  <PUBCHEM_COORDINATE_TYPE>  (1) 
2
5
10

$$$$
