38669
     RDKit          3D

 17 18  0  0  0  0  0  0  0  0999 V2000
    2.5541    0.2767    1.5810 S   0  0  0  0  0  0  0  0  0  0  0  0
    2.5228    0.6050   -1.3921 S   0  0  0  0  0  0  0  0  0  0  0  0
   -0.7013    2.5711    0.3629 O   0  0  0  0  0  0  0  0  0  0  0  0
    1.0328   -1.8714   -0.1388 O   0  0  0  0  0  0  0  0  0  0  0  0
   -3.6731   -1.1349   -0.0092 O   0  0  0  0  0  0  0  0  0  0  0  0
    1.6055    0.9086    0.1567 C   0  0  0  0  0  0  0  0  0  0  0  0
    0.1965    0.3619    0.1125 C   0  0  0  0  0  0  0  0  0  0  0  0
    4.1227    0.0560    0.7048 C   0  0  0  0  0  0  0  0  0  0  0  0
    3.8026   -0.4628   -0.6820 C   0  0  0  0  0  0  0  0  0  0  0  0
   -0.8907    1.2293    0.2199 C   0  0  0  0  0  0  0  0  0  0  0  0
   -0.0168   -1.0086   -0.0356 C   0  0  0  0  0  0  0  0  0  0  0  0
   -2.1910    0.7263    0.1792 C   0  0  0  0  0  0  0  0  0  0  0  0
   -1.3171   -1.5116   -0.0764 C   0  0  0  0  0  0  0  0  0  0  0  0
   -2.4042   -0.6442    0.0311 C   0  0  0  0  0  0  0  0  0  0  0  0
   -0.6269    3.3458   -0.8321 C   0  0  0  0  0  0  0  0  0  0  0  0
    0.7216   -3.2551   -0.2875 C   0  0  0  0  0  0  0  0  0  0  0  0
   -4.7378   -0.1920    0.1056 C   0  0  0  0  0  0  0  0  0  0  0  0
  1  6  1  0
  1  8  1  0
  2  6  1  0
  2  9  1  0
  3 10  1  0
  3 15  1  0
  4 11  1  0
  4 16  1  0
  5 14  1  0
  5 17  1  0
  6  7  1  0
  7 10  2  0
  7 11  1  0
  8  9  1  0
 10 12  1  0
 11 13  2  0
 12 14  2  0
 13 14  1  0
M  END
>  <PUBCHEM_COMPOUND_CID>  (1) 
38669

>  <PUBCHEM_CONFORMER_RMSD>  (1) 
0.6

>  <PUBCHEM_CONFORMER_DIVERSEORDER>  (1) 
2
8
5
7
1
3
6
4

>  <PUBCHEM_MMFF94_PARTIAL_CHARGES>  (1) 
19
1 -0.46
10 0.08
11 0.08
12 -0.15
13 -0.15
14 0.08
15 0.28
16 0.28
17 0.28
2 -0.46
23 0.15
24 0.15
3 -0.36
4 -0.36
5 -0.36
6 0.6
7 -0.14
8 0.23
9 0.23

>  <PUBCHEM_EFFECTIVE_ROTOR_COUNT>  (1) 
5

>  <PUBCHEM_PHARMACOPHORE_FEATURES>  (1) 
5
1 3 acceptor
1 4 acceptor
1 5 acceptor
5 1 2 6 8 9 rings
6 7 10 11 12 13 14 rings

>  <PUBCHEM_HEAVY_ATOM_COUNT>  (1) 
17

>  <PUBCHEM_ATOM_DEF_STEREO_COUNT>  (1) 
0

>  <PUBCHEM_ATOM_UDEF_STEREO_COUNT>  (1) 
0

>  <PUBCHEM_BOND_DEF_STEREO_COUNT>  (1) 
0

>  <PUBCHEM_BOND_UDEF_STEREO_COUNT>  (1) 
0

>  <PUBCHEM_ISOTOPIC_ATOM_COUNT>  (1) 
0

>  <PUBCHEM_COMPONENT_COUNT>  (1) 
1

>  <PUBCHEM_CACTVS_TAUTO_COUNT>  (1) 
1

>  <PUBCHEM_CONFORMER_ID>  (1) 
0000970D00000002

>  <PUBCHEM_MMFF94_ENERGY>  (1) 
71.4291

>  <PUBCHEM_FEATURE_SELFOVERLAP>  (1) 
25.373

>  <PUBCHEM_SHAPE_FINGERPRINT>  (1) 
10967382 1 18411702105609458142
11132069 177 18342735243120533419
11680986 33 17978783511219138907
12032990 46 18339929311053251675
12236239 1 17821726156983748752
12633257 1 17842811547314708520
13140716 1 18267582592480183251
13380535 21 18053388699347277376
13538477 17 18042124430855125770
13862211 1 18411695521809877627
14178342 30 18195241114416523224
14614273 12 18337950065337367572
14790565 3 18339374049097253545
15375462 175 18411140229787900362
15848700 24 18270956946574259077
1601671 61 18410296887464236145
16752209 62 18335417941666525356
16945 1 18411418384317099584
193761 8 17978793411218956971
19765921 60 17027982291826976620
20028762 73 17841999076905627735
20510252 161 18343863299407232312
20511035 2 17693922008656522742
20600515 1 18199748209841349888
20645476 183 17751934759047121702
20905425 154 18126008165607907558
21029758 27 18261398900779245433
21421861 104 17971192517564671067
21501502 16 18123473773846212283
2334 1 18123470754478765904
23402539 116 18271799168117635550
23419403 2 15380120764245497929
23463225 33 18335417980373887674
23493267 7 17894634751198670523
23557571 272 18342463590718379964
23558518 356 17973166123645597145
23559900 14 18267582399554989726
2748010 2 18267860773206369545
3060560 45 18341608278383769367
3250762 1 17906729207015383471
3286 77 17131838668129891592
34934 24 18120095241403468300
350125 39 18051419461163129512
4072396 5 18337094709989605155
4340502 62 14692572151931454599
43471831 8 18337388236665959178
465052 167 17896046593112300179
537710 114 18335425694187892333
589210 1 17978229357232139303
59755656 215 18337954467752679775
69090 78 17346876788350633926
7364860 26 18057324985551186390
77492 1 17749108889936557704
81228 2 18338249171223491225

>  <PUBCHEM_SHAPE_MULTIPOLES>  (1) 
339.94
6.45
2.88
1.05
1.92
0.41
-0.06
-0.99
-0.44
0.61
0.68
-1
0.24
0.1

>  <PUBCHEM_SHAPE_SELFOVERLAP>  (1) 
680.807

>  <PUBCHEM_SHAPE_VOLUME>  (1) 
203.2

>  <PUBCHEM_COORDINATE_TYPE>  (1) 
2
5
10

$$$$
