38662
     RDKit          3D

 17 19  0  0  0  0  0  0  0  0999 V2000
    1.4702   -2.7755   -0.4485 O   0  0  0  0  0  0  0  0  0  0  0  0
    0.7266   -1.7587   -0.2399 N   0  0  0  0  0  0  0  0  0  0  0  0
   -0.5348   -1.8013   -0.4363 N   0  0  0  0  0  0  0  0  0  0  0  0
    0.7384    0.4358   -2.0917 C   0  0  0  0  0  0  0  0  0  0  0  0
   -0.7436    0.8255   -2.0240 C   0  0  0  0  0  0  0  0  0  0  0  0
    1.4397    0.5380   -0.7627 C   0  0  0  0  0  0  0  0  0  0  0  0
   -1.5321    0.4601   -0.7806 C   0  0  0  0  0  0  0  0  0  0  0  0
    1.3905   -0.5281    0.1509 C   0  0  0  0  0  0  0  0  0  0  0  0
   -1.3898   -0.7450   -0.0612 C   0  0  0  0  0  0  0  0  0  0  0  0
    2.1021    1.7084   -0.3816 C   0  0  0  0  0  0  0  0  0  0  0  0
   -2.4867    1.3988   -0.3362 C   0  0  0  0  0  0  0  0  0  0  0  0
    2.0060   -0.4572    1.4002 C   0  0  0  0  0  0  0  0  0  0  0  0
   -2.1895   -0.9637    1.0759 C   0  0  0  0  0  0  0  0  0  0  0  0
    2.7140    1.7944    0.8722 C   0  0  0  0  0  0  0  0  0  0  0  0
   -3.2646    1.1678    0.7978 C   0  0  0  0  0  0  0  0  0  0  0  0
    2.6673    0.7153    1.7584 C   0  0  0  0  0  0  0  0  0  0  0  0
   -3.1134   -0.0146    1.5073 C   0  0  0  0  0  0  0  0  0  0  0  0
  1  2  1  0
  2  3  2  0
  2  8  1  0
  3  9  1  0
  4  5  1  0
  4  6  1  0
  5  7  1  0
  6  8  2  0
  6 10  1  0
  7  9  2  0
  7 11  1  0
  8 12  1  0
  9 13  1  0
 10 14  2  0
 11 15  2  0
 12 16  2  0
 13 17  2  0
 14 16  1  0
 15 17  1  0
M  CHG  2   1  -1   2   1
M  END
>  <PUBCHEM_COMPOUND_CID>  (1) 
38662

>  <PUBCHEM_CONFORMER_RMSD>  (1) 
0.4

>  <PUBCHEM_CONFORMER_DIVERSEORDER>  (1) 
2
1

>  <PUBCHEM_MMFF94_PARTIAL_CHARGES>  (1) 
25
1 -0.63
10 -0.15
11 -0.15
12 -0.15
13 -0.15
14 -0.15
15 -0.15
16 -0.15
17 -0.15
2 0.87
22 0.15
23 0.15
24 0.15
25 0.15
26 0.15
27 0.15
28 0.15
29 0.15
3 -0.39
4 0.14
5 0.14
6 -0.14
7 -0.14
8 -0.03
9 0.18

>  <PUBCHEM_EFFECTIVE_ROTOR_COUNT>  (1) 
0.4

>  <PUBCHEM_PHARMACOPHORE_FEATURES>  (1) 
3
1 1 anion
6 6 8 10 12 14 16 rings
6 7 9 11 13 15 17 rings

>  <PUBCHEM_HEAVY_ATOM_COUNT>  (1) 
17

>  <PUBCHEM_ATOM_DEF_STEREO_COUNT>  (1) 
0

>  <PUBCHEM_ATOM_UDEF_STEREO_COUNT>  (1) 
0

>  <PUBCHEM_BOND_DEF_STEREO_COUNT>  (1) 
0

>  <PUBCHEM_BOND_UDEF_STEREO_COUNT>  (1) 
0

>  <PUBCHEM_ISOTOPIC_ATOM_COUNT>  (1) 
0

>  <PUBCHEM_COMPONENT_COUNT>  (1) 
1

>  <PUBCHEM_CACTVS_TAUTO_COUNT>  (1) 
1

>  <PUBCHEM_CONFORMER_ID>  (1) 
0000970600000002

>  <PUBCHEM_MMFF94_ENERGY>  (1) 
65.537

>  <PUBCHEM_FEATURE_SELFOVERLAP>  (1) 
15.223

>  <PUBCHEM_SHAPE_FINGERPRINT>  (1) 
11640471 11 17059187311742662385
12251169 10 17967527991016336833
12382932 28 18040436611581414373
12400797 245 17168423877840338032
12423570 1 10582668150438075966
12633257 1 17968364650656407473
12696612 119 17531251681288207941
12716301 132 16809534237343812317
13132413 78 17555469322923059842
13134695 92 16987448494910039772
13764800 53 18129671918776895241
13839132 238 17987246701405290396
14817 1 15827219408138578062
15309172 13 18336815502824003504
15775835 57 18264211476992265680
15881359 60 17895739760553293039
16945 1 17603857966120003364
18981168 100 18273501182010372473
20361792 2 11530754877764628432
20511035 2 18263657168818895151
21421861 104 16084785964623883049
21524375 3 17632290232954967560
21731516 1 15285357297337556377
22112679 90 17328318346302274815
23175994 123 17838628755468681518
232386 152 15792014432901735881
23388829 49 17900549179090296223
23419403 2 17759223112453086038
25 1 15266244542557024424
2748010 2 17895757275356118671
3797600 57 16740343431155127745
427121 178 17985014654341651467
430814 3 17418097653976286652
576247 118 17764024666984143614
598444 67 16304542831772543282
81228 2 17479169117098603782

>  <PUBCHEM_SHAPE_MULTIPOLES>  (1) 
334.02
4.66
2.05
1.83
1.5
0.78
-0.12
-1.36
2.92
-0.53
-0.47
-0.34
-0.3
0.41

>  <PUBCHEM_SHAPE_SELFOVERLAP>  (1) 
734.173

>  <PUBCHEM_SHAPE_VOLUME>  (1) 
178.2

>  <PUBCHEM_COORDINATE_TYPE>  (1) 
2
5
10

$$$$
