38678
     RDKit          3D

 10 11  0  0  1  0  0  0  0  0999 V2000
    2.7896   -0.8457   -0.2344 O   0  0  0  0  0  0  0  0  0  0  0  0
   -0.7951   -1.3690    0.4481 O   0  0  0  0  0  0  0  0  0  0  0  0
   -1.5113    1.9996   -0.1500 O   0  0  0  0  0  0  0  0  0  0  0  0
   -0.4582   -0.0016    0.4243 N   0  0  0  0  0  0  0  0  0  0  0  0
    1.8443    0.2047   -0.3722 C   0  0  0  0  0  0  0  0  0  0  0  0
    0.8964    0.3200    0.8037 C   0  0  0  0  0  0  0  0  0  0  0  0
    3.2887    0.4975   -0.1961 C   0  0  0  0  0  0  0  0  0  0  0  0
   -2.6383   -0.1300   -0.2856 C   0  0  0  0  0  0  0  0  0  0  0  0
   -1.4878    0.7858   -0.0199 C   0  0  0  0  0  0  0  0  0  0  0  0
   -1.9284   -1.4612   -0.4180 C   0  0  0  0  0  0  0  0  0  0  0  0
  1  5  1  0
  1  7  1  0
  2  4  1  0
  2 10  1  0
  3  9  2  0
  4  6  1  0
  4  9  1  0
  5  6  1  0
  5  7  1  0
  8  9  1  0
  8 10  1  0
M  END
>  <PUBCHEM_COMPOUND_CID>  (1) 
38678

>  <PUBCHEM_CONFORMER_RMSD>  (1) 
0.6

>  <PUBCHEM_CONFORMER_DIVERSEORDER>  (1) 
3
15
9
12
14
6
4
10
7
11
8
2
13
1
5

>  <PUBCHEM_MMFF94_PARTIAL_CHARGES>  (1) 
13
1 -0.3
10 0.28
11 0.1
14 0.1
15 0.1
2 -0.32
3 -0.57
4 -0.32
5 -0.05
6 0.4
7 -0.05
8 0.06
9 0.57

>  <PUBCHEM_EFFECTIVE_ROTOR_COUNT>  (1) 
3.4

>  <PUBCHEM_PHARMACOPHORE_FEATURES>  (1) 
3
1 1 acceptor
1 3 acceptor
5 2 4 8 9 10 rings

>  <PUBCHEM_HEAVY_ATOM_COUNT>  (1) 
10

>  <PUBCHEM_ATOM_DEF_STEREO_COUNT>  (1) 
0

>  <PUBCHEM_ATOM_UDEF_STEREO_COUNT>  (1) 
1

>  <PUBCHEM_BOND_DEF_STEREO_COUNT>  (1) 
0

>  <PUBCHEM_BOND_UDEF_STEREO_COUNT>  (1) 
0

>  <PUBCHEM_ISOTOPIC_ATOM_COUNT>  (1) 
0

>  <PUBCHEM_COMPONENT_COUNT>  (1) 
1

>  <PUBCHEM_CACTVS_TAUTO_COUNT>  (1) 
2

>  <PUBCHEM_CONFORMER_ID>  (1) 
0000971600000003

>  <PUBCHEM_MMFF94_ENERGY>  (1) 
14.116

>  <PUBCHEM_FEATURE_SELFOVERLAP>  (1) 
15.223

>  <PUBCHEM_SHAPE_FINGERPRINT>  (1) 
12716758 59 18341608162150360512
12897270 3 18338799017415775878
12932764 1 18341338837942059264
13024252 1 17603307072334863219
14325111 11 18409449146270439620
15310529 11 18343863329318626062
16714656 1 18410011044136111073
19973954 147 18410295839144088804
20201158 50 18060421317679215870
20653085 51 18189630353523812024
20871998 184 18200600301414614983
21028194 46 11963659037007086542
21040471 1 18194668277252967217
23552423 10 18261953067181440698
29004967 10 16343707642312847018
3248919 1 17603309267216080314
369184 2 18273498970054657754

>  <PUBCHEM_SHAPE_MULTIPOLES>  (1) 
183.21
4.6
1.46
0.74
2.95
0.21
0.05
-0.3
-0.82
-0.88
-0.09
0.05
-0.02
0.02

>  <PUBCHEM_SHAPE_SELFOVERLAP>  (1) 
368.821

>  <PUBCHEM_SHAPE_VOLUME>  (1) 
109.8

>  <PUBCHEM_COORDINATE_TYPE>  (1) 
2
5
10

$$$$
