38689
     RDKit          3D

 14 13  0  0  0  0  0  0  0  0999 V2000
    2.0267   -0.0395   -0.3000 O   0  0  0  0  0  0  0  0  0  0  0  0
    2.9731   -1.8699    0.7444 O   0  0  0  0  0  0  0  0  0  0  0  0
   -2.8399   -1.6115   -0.2189 C   0  0  0  0  0  0  0  0  0  0  0  0
    0.1045    2.1306    0.2428 C   0  0  0  0  0  0  0  0  0  0  0  0
   -1.8639   -0.9813   -1.2303 C   0  0  0  0  0  0  0  0  0  0  0  0
   -0.2435    0.6922   -0.1483 C   0  0  0  0  0  0  0  0  0  0  0  0
   -1.3780    0.3796   -0.8087 C   0  0  0  0  0  0  0  0  0  0  0  0
    0.7696   -0.3365    0.2938 C   0  0  0  0  0  0  0  0  0  0  0  0
   -4.0171   -0.6869    0.1019 C   0  0  0  0  0  0  0  0  0  0  0  0
   -2.0962   -1.9673    1.0706 C   0  0  0  0  0  0  0  0  0  0  0  0
   -0.3914    3.2041   -0.7344 C   0  0  0  0  0  0  0  0  0  0  0  0
   -0.3976    2.4381    1.6565 C   0  0  0  0  0  0  0  0  0  0  0  0
    3.0490   -0.8927    0.0120 C   0  0  0  0  0  0  0  0  0  0  0  0
    4.3048   -0.4590   -0.6814 C   0  0  0  0  0  0  0  0  0  0  0  0
  1  8  1  0
  1 13  1  0
  2 13  2  0
  3  5  1  0
  3  9  1  0
  3 10  1  0
  4  6  1  0
  4 11  1  0
  4 12  1  0
  5  7  1  0
  6  7  2  0
  6  8  1  0
 13 14  1  0
M  END
>  <PUBCHEM_COMPOUND_CID>  (1) 
38689

>  <PUBCHEM_CONFORMER_RMSD>  (1) 
0.6

>  <PUBCHEM_CONFORMER_DIVERSEORDER>  (1) 
1
75
108
193
191
106
229
14
163
116
212
120
159
24
164
178
114
223
172
63
232
68
211
71
56
110
228
10
4
77
44
147
238
69
27
207
199
173
187
157
196
171
137
237
205
148
153
100
16
230
131
219
136
160
91
149
37
92
25
222
99
104
142
117
102
113
206
124
141
47
19
214
158
78
152
73
125
35
169
235
74
105
48
150
201
3
21
32
87
85
190
115
218
59
67
80
22
81
198
175
139
15
129
62
226
161
54
197
64
9
213
88
200
97
166
57
236
90
126
79
168
61
8
70
98
239
195
221
103
177
36
76
225
41
2
52
29
186
5
140
11
30
107
155
154
84
209
51
184
231
156
130
28
7
72
194
46
202
49
240
192
162
38
135
180
118
234
210
220
83
233
133
224
93
151
143
60
43
174
185
13
111
58
119
31
66
146
170
181
23
86
95
138
123
89
145
204
39
208
6
215
12
165
242
217
132
33
216
109
179
134
20
53
227
188
101
122
121
96
65
128
50
189
34
176
127
42
45
182
82
26
203
112
94
18
17
55
167
40
183
241
144

>  <PUBCHEM_MMFF94_PARTIAL_CHARGES>  (1) 
10
1 -0.43
13 0.66
14 0.06
19 0.15
2 -0.57
4 0.14
5 0.14
6 -0.28
7 -0.29
8 0.42

>  <PUBCHEM_EFFECTIVE_ROTOR_COUNT>  (1) 
6

>  <PUBCHEM_PHARMACOPHORE_FEATURES>  (1) 
3
1 2 acceptor
3 3 9 10 hydrophobe
3 4 11 12 hydrophobe

>  <PUBCHEM_HEAVY_ATOM_COUNT>  (1) 
14

>  <PUBCHEM_ATOM_DEF_STEREO_COUNT>  (1) 
0

>  <PUBCHEM_ATOM_UDEF_STEREO_COUNT>  (1) 
0

>  <PUBCHEM_BOND_DEF_STEREO_COUNT>  (1) 
0

>  <PUBCHEM_BOND_UDEF_STEREO_COUNT>  (1) 
1

>  <PUBCHEM_ISOTOPIC_ATOM_COUNT>  (1) 
0

>  <PUBCHEM_COMPONENT_COUNT>  (1) 
1

>  <PUBCHEM_CACTVS_TAUTO_COUNT>  (1) 
1

>  <PUBCHEM_CONFORMER_ID>  (1) 
0000972100000001

>  <PUBCHEM_MMFF94_ENERGY>  (1) 
16.1013

>  <PUBCHEM_FEATURE_SELFOVERLAP>  (1) 
15.223

>  <PUBCHEM_SHAPE_FINGERPRINT>  (1) 
10130415 120 18411139155940762991
12119455 92 10879718645553625371
12553582 1 18411128160518959078
13533116 47 17836654394164789307
15375462 189 18408888468191466994
15775835 57 8718831976654705647
17841504 4 18197218263998501523
18410436 195 18272650194481112009
18511873 20 18342461465353029571
19766037 51 18336270131929177006
20361792 2 18271799163711943975
20645476 183 17688583867003449612
20711985 344 18267002978111870241
20871998 184 18058729096132279836
20871999 31 18260257526094504517
21061003 4 18342457088169496687
21296965 67 18412542128250554021
21499 59 8502381018225610611
21524375 3 17191778291031172760
23419403 2 17630295654696623121
23500284 5 18337670806669159866
23557571 272 18271814484577596612
23598291 2 17914892269382539199
23598294 1 18199185092600131130
238078 22 18335434507677399390
25610 137 18409167736066339764
2748010 2 18268404967053829924
305870 269 17481980546961381937
458136 41 17254014450372485489
576247 118 18410002273538638161
58734987 51 18343305855612115377
7364860 26 17983574401288066601
81228 2 18269004089195197472

>  <PUBCHEM_SHAPE_MULTIPOLES>  (1) 
276.37
5.96
3.05
1.18
3
2.74
0.21
-5.1
-0.56
-0.33
0.53
-0.29
0.29
-0.01

>  <PUBCHEM_SHAPE_SELFOVERLAP>  (1) 
518.56

>  <PUBCHEM_SHAPE_VOLUME>  (1) 
173.1

>  <PUBCHEM_COORDINATE_TYPE>  (1) 
2
5
10

$$$$
