38698
     RDKit          3D

 19 20  0  0  0  0  0  0  0  0999 V2000
   -5.2075   -1.3621   -0.2427 O   0  0  0  0  0  0  0  0  0  0  0  0
   -0.4610    0.5062    1.5968 O   0  0  0  0  0  0  0  0  0  0  0  0
   -0.0783    1.2773   -1.8867 O   0  0  0  0  0  0  0  0  0  0  0  0
    5.2743   -1.1095    0.3343 O   0  0  0  0  0  0  0  0  0  0  0  0
   -3.0570    0.3675    0.4541 N   0  0  0  0  0  0  0  0  0  0  0  0
   -0.7499    0.9414    0.2953 N   0  0  0  0  0  0  0  0  0  0  0  0
   -2.8659   -0.7655   -0.4621 C   0  0  0  0  0  0  0  0  0  0  0  0
   -4.4400    0.8566    0.3682 C   0  0  0  0  0  0  0  0  0  0  0  0
   -2.1082    1.4390    0.1590 C   0  0  0  0  0  0  0  0  0  0  0  0
   -3.8747   -1.8654   -0.1434 C   0  0  0  0  0  0  0  0  0  0  0  0
   -5.4111   -0.2815    0.6684 C   0  0  0  0  0  0  0  0  0  0  0  0
    0.1537    0.9013   -0.7391 C   0  0  0  0  0  0  0  0  0  0  0  0
    1.5026    0.3717   -0.4569 C   0  0  0  0  0  0  0  0  0  0  0  0
    1.7431   -0.9820   -0.6138 C   0  0  0  0  0  0  0  0  0  0  0  0
    2.4962    1.2410   -0.0415 C   0  0  0  0  0  0  0  0  0  0  0  0
    3.0176   -1.4824   -0.3468 C   0  0  0  0  0  0  0  0  0  0  0  0
    3.7707    0.7409    0.2254 C   0  0  0  0  0  0  0  0  0  0  0  0
    4.0314   -0.6210    0.0726 C   0  0  0  0  0  0  0  0  0  0  0  0
    6.2639   -0.1734    0.7591 C   0  0  0  0  0  0  0  0  0  0  0  0
  1 10  1  0
  1 11  1  0
  2  6  1  0
  3 12  2  0
  4 18  1  0
  4 19  1  0
  5  7  1  0
  5  8  1  0
  5  9  1  0
  6  9  1  0
  6 12  1  0
  7 10  1  0
  8 11  1  0
 12 13  1  0
 13 14  2  0
 13 15  1  0
 14 16  1  0
 15 17  2  0
 16 18  2  0
 17 18  1  0
M  END
>  <PUBCHEM_COMPOUND_CID>  (1) 
38698

>  <PUBCHEM_CONFORMER_RMSD>  (1) 
0.8

>  <PUBCHEM_CONFORMER_DIVERSEORDER>  (1) 
2
21
20
39
26
38
10
11
17
36
18
5
19
29
3
8
32
4
33
30
6
23
16
12
34
22
15
37
25
27
24
7
31
1
13
28
14
35
9

>  <PUBCHEM_MMFF94_PARTIAL_CHARGES>  (1) 
24
1 -0.56
10 0.28
11 0.28
12 0.54
13 0.09
14 -0.15
15 -0.15
16 -0.15
17 -0.15
18 0.08
19 0.28
2 -0.44
3 -0.57
30 0.4
31 0.15
32 0.15
33 0.15
34 0.15
4 -0.36
5 -0.81
6 -0.32
7 0.27
8 0.27
9 0.57

>  <PUBCHEM_EFFECTIVE_ROTOR_COUNT>  (1) 
6.2

>  <PUBCHEM_PHARMACOPHORE_FEATURES>  (1) 
6
1 1 acceptor
1 3 acceptor
1 4 acceptor
1 5 cation
6 1 5 7 8 10 11 rings
6 13 14 15 16 17 18 rings

>  <PUBCHEM_HEAVY_ATOM_COUNT>  (1) 
19

>  <PUBCHEM_ATOM_DEF_STEREO_COUNT>  (1) 
0

>  <PUBCHEM_ATOM_UDEF_STEREO_COUNT>  (1) 
0

>  <PUBCHEM_BOND_DEF_STEREO_COUNT>  (1) 
0

>  <PUBCHEM_BOND_UDEF_STEREO_COUNT>  (1) 
0

>  <PUBCHEM_ISOTOPIC_ATOM_COUNT>  (1) 
0

>  <PUBCHEM_COMPONENT_COUNT>  (1) 
1

>  <PUBCHEM_CACTVS_TAUTO_COUNT>  (1) 
1

>  <PUBCHEM_CONFORMER_ID>  (1) 
0000972A00000002

>  <PUBCHEM_MMFF94_ENERGY>  (1) 
59.0937

>  <PUBCHEM_FEATURE_SELFOVERLAP>  (1) 
30.446

>  <PUBCHEM_SHAPE_FINGERPRINT>  (1) 
10 15 18131056166005228378
100836 57 11672060861192641802
10465860 250 17847063285638513337
106641 1 15410604930690329415
11045977 3 17846775230328663706
12107183 9 17693948388292881771
12236239 1 18259989288428643073
12507560 40 17203052863803592604
12596602 18 17060338534961578162
12633257 1 16773801450045979203
12670543 26 8070032203282618312
12916748 109 9151174268322772717
13167823 11 18410575093448263883
13288520 33 18409167705748393421
13583140 156 17845923048593071472
13911882 115 17917721188410707710
14251764 18 18060144258730543915
14341114 176 18060143102798830538
14341114 328 17632582677204162848
15183329 4 10881672491107292608
15196674 1 18413109485030558911
15788980 27 18113057138466364237
15848700 24 17385443224041867324
16752209 62 15502365704099198692
17349148 13 17167865244603329752
17834072 33 18335707156675560900
17834072 8 11746935378435822426
1813 80 17676777499785257980
18186145 218 15502661541641563581
18222031 100 17821727243531606916
19050596 39 18273216404135330317
19141452 34 18408606950955731701
200 152 18412261731300176088
20028762 73 18343016726899143446
21267235 1 18411709780763462934
21673915 165 18412263913112362134
22079108 93 17988914601100782914
23402539 116 16950562142992849092
23559900 14 18341888614772283304
26918003 58 18272932708823967089
2838139 119 8718828678025208194
293599 30 10664102255109836752
3009799 131 14201398296592343414
3286 77 18410290324553845260
347723 3 16515402950169274729
351380 3 17967813846864977203
42 15 18412267237717222933
4214541 1 18412546483780311553
4325135 7 18334017207640980764
5104073 3 18271530891796881137
559249 180 18334292051077507147
59682541 35 18059285578387517842
67856867 119 18338518659073234956
7495541 125 17846214505099872977
76465 3 17895464831228249058
9709674 26 18341342140587819775

>  <PUBCHEM_SHAPE_MULTIPOLES>  (1) 
357.57
12.9
1.62
1.01
1.33
0.31
0.13
4.35
-3.4
-0.64
0.18
0.03
-0.24
-0.25

>  <PUBCHEM_SHAPE_SELFOVERLAP>  (1) 
741.528

>  <PUBCHEM_SHAPE_VOLUME>  (1) 
203.3

>  <PUBCHEM_COORDINATE_TYPE>  (1) 
2
5
10

$$$$
