38702
     RDKit          3D

 18 19  0  0  0  0  0  0  0  0999 V2000
    5.5818    1.1488   -0.5552 F   0  0  0  0  0  0  0  0  0  0  0  0
   -0.1612   -0.5196   -1.6191 O   0  0  0  0  0  0  0  0  0  0  0  0
    0.3444   -1.2474    1.8580 O   0  0  0  0  0  0  0  0  0  0  0  0
   -2.7194   -0.3879   -0.3919 N   0  0  0  0  0  0  0  0  0  0  0  0
   -0.4027   -0.9420   -0.3039 N   0  0  0  0  0  0  0  0  0  0  0  0
   -2.5012    0.7532    0.5082 C   0  0  0  0  0  0  0  0  0  0  0  0
   -4.0917   -0.9011   -0.2760 C   0  0  0  0  0  0  0  0  0  0  0  0
   -3.4740    1.8927    0.2007 C   0  0  0  0  0  0  0  0  0  0  0  0
   -5.1165    0.1843   -0.6089 C   0  0  0  0  0  0  0  0  0  0  0  0
   -4.9213    1.4183    0.2647 C   0  0  0  0  0  0  0  0  0  0  0  0
   -1.7514   -1.4493   -0.1165 C   0  0  0  0  0  0  0  0  0  0  0  0
    0.5346   -0.8829    0.6990 C   0  0  0  0  0  0  0  0  0  0  0  0
    1.8688   -0.3455    0.3659 C   0  0  0  0  0  0  0  0  0  0  0  0
    2.1027    1.0119    0.4995 C   0  0  0  0  0  0  0  0  0  0  0  0
    2.8561   -1.2114   -0.0711 C   0  0  0  0  0  0  0  0  0  0  0  0
    3.3635    1.5196    0.1864 C   0  0  0  0  0  0  0  0  0  0  0  0
    4.1170   -0.7038   -0.3843 C   0  0  0  0  0  0  0  0  0  0  0  0
    4.3707    0.6618   -0.2556 C   0  0  0  0  0  0  0  0  0  0  0  0
  1 18  1  0
  2  5  1  0
  3 12  2  0
  4  6  1  0
  4  7  1  0
  4 11  1  0
  5 11  1  0
  5 12  1  0
  6  8  1  0
  7  9  1  0
  8 10  1  0
  9 10  1  0
 12 13  1  0
 13 14  2  0
 13 15  1  0
 14 16  1  0
 15 17  2  0
 16 18  2  0
 17 18  1  0
M  END
>  <PUBCHEM_COMPOUND_CID>  (1) 
38702

>  <PUBCHEM_CONFORMER_RMSD>  (1) 
0.6

>  <PUBCHEM_CONFORMER_DIVERSEORDER>  (1) 
2
41
71
15
47
12
67
66
3
68
33
31
40
25
48
44
6
72
57
16
34
27
29
39
60
70
36
38
5
30
19
32
63
52
8
53
74
4
13
69
65
64
58
73
56
18
23
62
26
37
49
50
59
45
76
42
75
1
54
7
11
61
55
46
35
20
51
28
43
17
22
21
14
10
24
9

>  <PUBCHEM_MMFF94_PARTIAL_CHARGES>  (1) 
20
1 -0.19
11 0.57
12 0.54
13 0.09
14 -0.15
15 -0.15
16 -0.15
17 -0.15
18 0.19
2 -0.44
3 -0.57
31 0.4
32 0.15
33 0.15
34 0.15
35 0.15
4 -0.81
5 -0.32
6 0.27
7 0.27

>  <PUBCHEM_EFFECTIVE_ROTOR_COUNT>  (1) 
5.2

>  <PUBCHEM_PHARMACOPHORE_FEATURES>  (1) 
4
1 3 acceptor
1 4 cation
6 13 14 15 16 17 18 rings
6 4 6 7 8 9 10 rings

>  <PUBCHEM_HEAVY_ATOM_COUNT>  (1) 
18

>  <PUBCHEM_ATOM_DEF_STEREO_COUNT>  (1) 
0

>  <PUBCHEM_ATOM_UDEF_STEREO_COUNT>  (1) 
0

>  <PUBCHEM_BOND_DEF_STEREO_COUNT>  (1) 
0

>  <PUBCHEM_BOND_UDEF_STEREO_COUNT>  (1) 
0

>  <PUBCHEM_ISOTOPIC_ATOM_COUNT>  (1) 
0

>  <PUBCHEM_COMPONENT_COUNT>  (1) 
1

>  <PUBCHEM_CACTVS_TAUTO_COUNT>  (1) 
1

>  <PUBCHEM_CONFORMER_ID>  (1) 
0000972E00000002

>  <PUBCHEM_MMFF94_ENERGY>  (1) 
36.0788

>  <PUBCHEM_FEATURE_SELFOVERLAP>  (1) 
20.297

>  <PUBCHEM_SHAPE_FINGERPRINT>  (1) 
10498660 4 18337664227117093189
106641 1 15936701461740292361
11132069 177 16081090385098371771
12107183 9 17690559689277250723
12236239 1 18260264136286614327
12916748 109 18411423907861417555
13897977 58 18411982460258886205
14252887 29 14779546742813800546
15048467 5 18260268573003707604
15183329 4 18201447935112273126
15196674 1 18413107242973286305
15788980 27 10664101160093668903
15848700 24 13542465362874530210
16752209 62 15841561738570099834
17834072 33 18341609334734591007
17834072 8 18131077013344037532
18186145 218 18113613478475854886
193927 3 10159698044440580453
200 152 9007060158083215638
204376 136 17022905657293468339
20645477 70 17846506885631817342
21250096 35 8142083165326649021
212847 35 18409164394502740128
21503847 285 18259987063350838228
21652331 79 18335701615962137549
22079108 93 17821736043882439547
221357 26 18131067138819000705
22854114 59 17312820468121014479
231179 274 18187078421258182821
23402539 116 18131625686583404893
23402655 69 18342176674265765004
23557571 272 18200038472584859815
23559900 14 17916021244291286823
25 1 18335419076044326322
26918003 58 11097848605561842638
351380 180 18343581837077870925
351380 3 11455892459650393357
3545911 37 18411702105751558143
4028521 119 18408317779081323221
4214541 1 18342175561779545077
474 4 17967817179717322724
4990 188 18202568362729685590
5104073 3 18408884031495343954
58051976 100 17417523730471244727
5924683 9 12396593957269783273
59755656 520 17530963600852639946
633830 44 18261108569247680614
76465 3 11959464344840132204
77779 3 18413107260068662023
8272917 22 18272374109699323334

>  <PUBCHEM_SHAPE_MULTIPOLES>  (1) 
341.46
11.33
1.71
0.99
1.25
0.37
-0.13
4.38
2.07
0.3
-0.13
-0.06
-0.24
-0.4

>  <PUBCHEM_SHAPE_SELFOVERLAP>  (1) 
709.581

>  <PUBCHEM_SHAPE_VOLUME>  (1) 
194.9

>  <PUBCHEM_COORDINATE_TYPE>  (1) 
2
5
10

$$$$
