38708
     RDKit          3D

 13 13  0  0  0  0  0  0  0  0999 V2000
    2.2693    3.1852   -0.1232 Br  0  0  0  0  0  0  0  0  0  0  0  0
   -0.0846   -2.3785    0.0761 O   0  0  0  0  0  0  0  0  0  0  0  0
   -2.3337   -1.2031   -0.6503 O   0  0  0  0  0  0  0  0  0  0  0  0
   -2.6191    0.8686    0.3513 N   0  0  0  0  0  0  0  0  0  0  0  0
   -0.3935   -0.0129   -0.0867 C   0  0  0  0  0  0  0  0  0  0  0  0
    1.8267   -0.9466    0.1032 C   0  0  0  0  0  0  0  0  0  0  0  0
    0.4447   -1.1215    0.0312 C   0  0  0  0  0  0  0  0  0  0  0  0
    0.1503    1.2707   -0.1327 C   0  0  0  0  0  0  0  0  0  0  0  0
    2.3706    0.3371    0.0572 C   0  0  0  0  0  0  0  0  0  0  0  0
    1.5324    1.4458   -0.0608 C   0  0  0  0  0  0  0  0  0  0  0  0
   -1.8392   -0.1719   -0.1638 C   0  0  0  0  0  0  0  0  0  0  0  0
    2.7402   -2.1212    0.2294 C   0  0  0  0  0  0  0  0  0  0  0  0
   -4.0641    0.8485    0.3691 C   0  0  0  0  0  0  0  0  0  0  0  0
  1 10  1  0
  2  7  1  0
  3 11  2  0
  4 11  1  0
  4 13  1  0
  5  7  2  0
  5  8  1  0
  5 11  1  0
  6  7  1  0
  6  9  2  0
  6 12  1  0
  8 10  2  0
  9 10  1  0
M  END
>  <PUBCHEM_COMPOUND_CID>  (1) 
38708

>  <PUBCHEM_CONFORMER_RMSD>  (1) 
0.6

>  <PUBCHEM_CONFORMER_DIVERSEORDER>  (1) 
1
2

>  <PUBCHEM_MMFF94_PARTIAL_CHARGES>  (1) 
17
1 -0.11
10 0.11
11 0.54
12 0.14
13 0.3
14 0.15
15 0.15
19 0.37
2 -0.53
20 0.45
3 -0.57
4 -0.73
5 0.09
6 -0.14
7 0.08
8 -0.15
9 -0.15

>  <PUBCHEM_EFFECTIVE_ROTOR_COUNT>  (1) 
2

>  <PUBCHEM_PHARMACOPHORE_FEATURES>  (1) 
5
1 1 hydrophobe
1 2 donor
1 3 acceptor
1 4 donor
6 5 6 7 8 9 10 rings

>  <PUBCHEM_HEAVY_ATOM_COUNT>  (1) 
13

>  <PUBCHEM_ATOM_DEF_STEREO_COUNT>  (1) 
0

>  <PUBCHEM_ATOM_UDEF_STEREO_COUNT>  (1) 
0

>  <PUBCHEM_BOND_DEF_STEREO_COUNT>  (1) 
0

>  <PUBCHEM_BOND_UDEF_STEREO_COUNT>  (1) 
0

>  <PUBCHEM_ISOTOPIC_ATOM_COUNT>  (1) 
0

>  <PUBCHEM_COMPONENT_COUNT>  (1) 
1

>  <PUBCHEM_CACTVS_TAUTO_COUNT>  (1) 
7

>  <PUBCHEM_CONFORMER_ID>  (1) 
0000973400000001

>  <PUBCHEM_MMFF94_ENERGY>  (1) 
32.2929

>  <PUBCHEM_FEATURE_SELFOVERLAP>  (1) 
25.371

>  <PUBCHEM_SHAPE_FINGERPRINT>  (1) 
10219947 1 18338801087458312659
10465860 228 18411987970100995113
10967382 1 18410573946723696228
11471102 20 18337105657961339405
13380535 76 18048871089937234472
13380536 305 18410582777176372452
14648413 74 18408608084157184944
15442244 35 18340769217698958745
15490181 8 18193269921811213434
15775835 57 18342183318517310081
16945 1 18336823186515169268
193761 8 18193839468908462234
20510252 161 17332531679408093968
20671657 1 18411143562498191444
20871998 22 17909835336091331662
21040471 1 18194119839988692676
21501502 16 18339639061352892703
21524375 3 18053662757168889732
2334 1 18339077223853815445
23552423 10 18411134783331532038
241688 4 18122341268738396632
2748010 2 18336267954269838847
305870 269 18337953527197098096
3071541 12 18410858802087803124
528886 8 18410852144434644891
54173680 148 17183905770622346530
63268167 104 18411421687173428089
7364860 26 18413390947270112668
81228 2 17545039304098407760
84936 182 18129378361757176217

>  <PUBCHEM_SHAPE_MULTIPOLES>  (1) 
256.76
4.98
2.98
0.66
4.65
0.68
0.01
1.68
-0.43
-2.81
-0.03
0.06
0.03
-0.46

>  <PUBCHEM_SHAPE_SELFOVERLAP>  (1) 
520.714

>  <PUBCHEM_SHAPE_VOLUME>  (1) 
155.4

>  <PUBCHEM_COORDINATE_TYPE>  (1) 
2
5
10

$$$$
