38704
     RDKit          3D

 12 11  0  0  1  0  0  0  0  0999 V2000
   -3.2357   -1.0172    1.2103 O   0  0  0  0  0  0  0  0  0  0  0  0
    0.5139    2.9243   -0.6272 O   0  0  0  0  0  0  0  0  0  0  0  0
    0.3434    0.9356    0.0545 N   0  0  0  0  0  0  0  0  0  0  0  0
    0.8118    2.1482    0.2886 N   0  0  0  0  0  0  0  0  0  0  0  0
   -1.0410    0.7323    0.4665 C   0  0  0  0  0  0  0  0  0  0  0  0
   -1.7520   -0.2090   -0.5090 C   0  0  0  0  0  0  0  0  0  0  0  0
    1.1995   -0.0974    0.6547 C   0  0  0  0  0  0  0  0  0  0  0  0
    2.4101   -0.3672   -0.2372 C   0  0  0  0  0  0  0  0  0  0  0  0
   -3.2069   -0.4642   -0.1026 C   0  0  0  0  0  0  0  0  0  0  0  0
    3.3261   -1.4248    0.3798 C   0  0  0  0  0  0  0  0  0  0  0  0
   -3.8846   -1.4358   -1.0596 C   0  0  0  0  0  0  0  0  0  0  0  0
    4.5154   -1.7248   -0.5188 C   0  0  0  0  0  0  0  0  0  0  0  0
  1  9  1  0
  2  4  2  0
  3  4  1  0
  3  5  1  0
  3  7  1  0
  5  6  1  0
  6  9  1  0
  7  8  1  0
  8 10  1  0
  9 11  1  0
 10 12  1  0
M  END
>  <PUBCHEM_COMPOUND_CID>  (1) 
38704

>  <PUBCHEM_CONFORMER_RMSD>  (1) 
0.8

>  <PUBCHEM_CONFORMER_DIVERSEORDER>  (1) 
1
79
171
214
63
115
235
22
54
240
8
74
239
106
60
23
13
242
183
202
81
80
195
230
218
164
51
77
47
177
12
3
231
158
58
34
160
113
167
145
49
148
98
216
138
26
209
247
14
18
100
170
110
155
219
228
55
147
37
225
111
5
31
32
207
107
159
165
43
29
76
117
192
94
244
197
196
40
182
11
66
146
75
198
203
6
234
2
163
36
38
186
204
73
139
175
131
173
134
229
30
19
35
64
181
237
206
46
116
222
212
180
143
10
232
85
188
208
227
62
102
56
42
122
199
215
220
93
44
103
118
144
150
96
213
45
174
124
141
39
166
152
25
41
28
91
88
162
121
67
142
236
210
246
172
125
194
179
112
7
78
68
20
126
101
136
59
130
132
27
83
72
84
70
135
205
82
71
221
21
176
53
248
217
191
245
200
137
189
201
238
61
128
178
16
4
185
184
89
161
169
104
129
57
90
168
99
92
95
24
86
119
48
226
187
156
243
211
50
233
133
120
149
65
114
190
127
151
69
52
223
97
154
105
108
9
17
193
157
15
87
140
153
241
33
109
123
224

>  <PUBCHEM_MMFF94_PARTIAL_CHARGES>  (1) 
8
1 -0.68
2 -0.16
3 -0.36
30 0.4
4 -0.01
5 0.27
7 0.27
9 0.28

>  <PUBCHEM_EFFECTIVE_ROTOR_COUNT>  (1) 
7

>  <PUBCHEM_PHARMACOPHORE_FEATURES>  (1) 
3
1 1 acceptor
1 1 donor
1 12 hydrophobe

>  <PUBCHEM_HEAVY_ATOM_COUNT>  (1) 
12

>  <PUBCHEM_ATOM_DEF_STEREO_COUNT>  (1) 
0

>  <PUBCHEM_ATOM_UDEF_STEREO_COUNT>  (1) 
1

>  <PUBCHEM_BOND_DEF_STEREO_COUNT>  (1) 
0

>  <PUBCHEM_BOND_UDEF_STEREO_COUNT>  (1) 
0

>  <PUBCHEM_ISOTOPIC_ATOM_COUNT>  (1) 
0

>  <PUBCHEM_COMPONENT_COUNT>  (1) 
1

>  <PUBCHEM_CACTVS_TAUTO_COUNT>  (1) 
1

>  <PUBCHEM_CONFORMER_ID>  (1) 
0000973000000001

>  <PUBCHEM_MMFF94_ENERGY>  (1) 
12.6727

>  <PUBCHEM_FEATURE_SELFOVERLAP>  (1) 
15.223

>  <PUBCHEM_SHAPE_FINGERPRINT>  (1) 
11543360 7 15864081982885248602
12006461 19 18131627898075402367
12841375 25 18409729547521079132
15477762 27 18339073916570787471
17041 50 18261376854801688789
20281407 28 18200871773470456810
20361792 2 18411133627995943870
20645477 70 18192136299912200207
20671657 53 18410292527539271597
20711985 327 18202284701503779884
20711985 344 18119234074205415937
20871998 22 18412256246774807560
20871999 31 18187922816207888093
21061003 4 18412546492005982955
22485316 2 18342732996868669578
23402539 116 18115030684871955490
23500284 214 8718531844529939462
449060 23 18272652311863234406
7364860 26 18198054987635774320
81228 2 18121217580429033704

>  <PUBCHEM_SHAPE_MULTIPOLES>  (1) 
225.25
7.58
2.31
0.94
1.77
1.84
0.06
-7.08
-1
0.76
-0.51
-0.48
-0.18
-0.13

>  <PUBCHEM_SHAPE_SELFOVERLAP>  (1) 
410.514

>  <PUBCHEM_SHAPE_VOLUME>  (1) 
145.2

>  <PUBCHEM_COORDINATE_TYPE>  (1) 
2
5
10

$$$$
