38706
     RDKit          3D

 12 12  0  0  0  0  0  0  0  0999 V2000
    2.8359    2.5276    0.0026 Br  0  0  0  0  0  0  0  0  0  0  0  0
   -1.1000   -2.0593   -0.0162 O   0  0  0  0  0  0  0  0  0  0  0  0
   -2.7445    0.6927   -1.0989 O   0  0  0  0  0  0  0  0  0  0  0  0
   -2.7316    0.7202    1.1803 N   0  0  0  0  0  0  0  0  0  0  0  0
    1.1571   -1.2803    0.0071 C   0  0  0  0  0  0  0  0  0  0  0  0
   -0.2136   -1.0223   -0.0122 C   0  0  0  0  0  0  0  0  0  0  0  0
   -0.6755    0.2937   -0.0265 C   0  0  0  0  0  0  0  0  0  0  0  0
    2.0659   -0.2221    0.0120 C   0  0  0  0  0  0  0  0  0  0  0  0
    0.2334    1.3519   -0.0217 C   0  0  0  0  0  0  0  0  0  0  0  0
    1.6041    1.0939   -0.0024 C   0  0  0  0  0  0  0  0  0  0  0  0
    1.6710   -2.6823    0.0232 C   0  0  0  0  0  0  0  0  0  0  0  0
   -2.1024    0.5863   -0.0473 C   0  0  0  0  0  0  0  0  0  0  0  0
  1 10  1  0
  2  6  1  0
  3 12  2  0
  4 12  1  0
  5  6  2  0
  5  8  1  0
  5 11  1  0
  6  7  1  0
  7  9  2  0
  7 12  1  0
  8 10  2  0
  9 10  1  0
M  END
>  <PUBCHEM_COMPOUND_CID>  (1) 
38706

>  <PUBCHEM_CONFORMER_RMSD>  (1) 
0.4

>  <PUBCHEM_CONFORMER_DIVERSEORDER>  (1) 
1
3
2
4

>  <PUBCHEM_MMFF94_PARTIAL_CHARGES>  (1) 
17
1 -0.11
10 0.11
11 0.14
12 0.54
13 0.15
14 0.15
18 0.45
19 0.37
2 -0.53
20 0.37
3 -0.57
4 -0.8
5 -0.14
6 0.08
7 0.09
8 -0.15
9 -0.15

>  <PUBCHEM_EFFECTIVE_ROTOR_COUNT>  (1) 
1

>  <PUBCHEM_PHARMACOPHORE_FEATURES>  (1) 
5
1 1 hydrophobe
1 2 donor
1 3 acceptor
1 4 donor
6 5 6 7 8 9 10 rings

>  <PUBCHEM_HEAVY_ATOM_COUNT>  (1) 
12

>  <PUBCHEM_ATOM_DEF_STEREO_COUNT>  (1) 
0

>  <PUBCHEM_ATOM_UDEF_STEREO_COUNT>  (1) 
0

>  <PUBCHEM_BOND_DEF_STEREO_COUNT>  (1) 
0

>  <PUBCHEM_BOND_UDEF_STEREO_COUNT>  (1) 
0

>  <PUBCHEM_ISOTOPIC_ATOM_COUNT>  (1) 
0

>  <PUBCHEM_COMPONENT_COUNT>  (1) 
1

>  <PUBCHEM_CACTVS_TAUTO_COUNT>  (1) 
7

>  <PUBCHEM_CONFORMER_ID>  (1) 
0000973200000001

>  <PUBCHEM_MMFF94_ENERGY>  (1) 
35.997

>  <PUBCHEM_FEATURE_SELFOVERLAP>  (1) 
25.371

>  <PUBCHEM_SHAPE_FINGERPRINT>  (1) 
1 1 18409730677229450916
11206711 2 17906730658814647652
12423570 1 11753766536678275488
12524768 44 18334295344573585652
13380535 21 18266474263548370228
13380535 76 18337099185255596682
14614273 12 18118111700587665925
14817 1 11159554559796541884
16945 1 18410573942460280012
193761 8 18338516451528402158
20510252 161 17766563834390509728
20871998 184 17262451003245190326
21040471 1 18266458900513740364
21061003 4 17975710384962407603
21501502 16 18339358685840356530
21524375 3 18267300022656213232
2334 1 18194401328034850076
23552423 10 18412259523623643495
23559900 14 18127425660447909828
241688 4 17618783553157366354
2748010 2 18265621059810424468
5084963 1 17986375707833877971
63268167 104 18340762624839561897
6333449 129 18051975015489315836
7364860 26 18341332210802246686
81228 2 17401208271005990792

>  <PUBCHEM_SHAPE_MULTIPOLES>  (1) 
236.18
3.92
2.78
0.77
0.04
1.74
-0.02
-2.88
-0.04
1.36
-0.02
-0.38
-0.21
-0.03

>  <PUBCHEM_SHAPE_SELFOVERLAP>  (1) 
482.635

>  <PUBCHEM_SHAPE_VOLUME>  (1) 
141.7

>  <PUBCHEM_COORDINATE_TYPE>  (1) 
2
5
10

$$$$
