38710
     RDKit          3D

 16 16  0  0  0  0  0  0  0  0999 V2000
    1.7810    3.6935   -0.2270 Br  0  0  0  0  0  0  0  0  0  0  0  0
    1.8829   -2.3355    0.1945 O   0  0  0  0  0  0  0  0  0  0  0  0
   -0.7223   -2.0949    0.5045 O   0  0  0  0  0  0  0  0  0  0  0  0
   -1.6257   -0.4603   -0.8715 N   0  0  0  0  0  0  0  0  0  0  0  0
   -3.8965   -0.5780    0.0728 C   0  0  0  0  0  0  0  0  0  0  0  0
   -2.9286   -1.0506   -1.0069 C   0  0  0  0  0  0  0  0  0  0  0  0
   -4.1292    0.9341    0.0328 C   0  0  0  0  0  0  0  0  0  0  0  0
    0.6685   -0.2914   -0.0539 C   0  0  0  0  0  0  0  0  0  0  0  0
   -0.6134   -1.0400   -0.1151 C   0  0  0  0  0  0  0  0  0  0  0  0
   -5.1431    1.3677    1.0800 C   0  0  0  0  0  0  0  0  0  0  0  0
    1.8577   -0.9747    0.0996 C   0  0  0  0  0  0  0  0  0  0  0  0
    3.0494   -0.2520    0.1571 C   0  0  0  0  0  0  0  0  0  0  0  0
    0.6208    1.0852   -0.1524 C   0  0  0  0  0  0  0  0  0  0  0  0
    3.0268    1.1393    0.0597 C   0  0  0  0  0  0  0  0  0  0  0  0
    1.8125    1.8079   -0.0951 C   0  0  0  0  0  0  0  0  0  0  0  0
    4.3594   -0.9501    0.3207 C   0  0  0  0  0  0  0  0  0  0  0  0
  1 15  1  0
  2 11  1  0
  3  9  2  0
  4  6  1  0
  4  9  1  0
  5  6  1  0
  5  7  1  0
  7 10  1  0
  8  9  1  0
  8 11  2  0
  8 13  1  0
 11 12  1  0
 12 14  2  0
 12 16  1  0
 13 15  2  0
 14 15  1  0
M  END
>  <PUBCHEM_COMPOUND_CID>  (1) 
38710

>  <PUBCHEM_CONFORMER_RMSD>  (1) 
0.6

>  <PUBCHEM_CONFORMER_DIVERSEORDER>  (1) 
3
13
11
51
12
48
37
35
4
16
21
54
56
46
39
2
19
42
32
23
7
6
43
40
8
45
53
5
14
44
52
10
47
17
41
24
50
36
33
22
55
9
15
18
20
29
1
38
26
28
34
25
30
49
27
31

>  <PUBCHEM_MMFF94_PARTIAL_CHARGES>  (1) 
17
1 -0.11
11 0.08
12 -0.14
13 -0.15
14 -0.15
15 0.11
16 0.14
2 -0.53
23 0.37
27 0.15
28 0.15
3 -0.57
32 0.45
4 -0.73
6 0.3
8 0.09
9 0.54

>  <PUBCHEM_EFFECTIVE_ROTOR_COUNT>  (1) 
5

>  <PUBCHEM_PHARMACOPHORE_FEATURES>  (1) 
6
1 1 hydrophobe
1 10 hydrophobe
1 2 donor
1 3 acceptor
1 4 donor
6 8 11 12 13 14 15 rings

>  <PUBCHEM_HEAVY_ATOM_COUNT>  (1) 
16

>  <PUBCHEM_ATOM_DEF_STEREO_COUNT>  (1) 
0

>  <PUBCHEM_ATOM_UDEF_STEREO_COUNT>  (1) 
0

>  <PUBCHEM_BOND_DEF_STEREO_COUNT>  (1) 
0

>  <PUBCHEM_BOND_UDEF_STEREO_COUNT>  (1) 
0

>  <PUBCHEM_ISOTOPIC_ATOM_COUNT>  (1) 
0

>  <PUBCHEM_COMPONENT_COUNT>  (1) 
1

>  <PUBCHEM_CACTVS_TAUTO_COUNT>  (1) 
7

>  <PUBCHEM_CONFORMER_ID>  (1) 
0000973600000003

>  <PUBCHEM_MMFF94_ENERGY>  (1) 
30.0145

>  <PUBCHEM_FEATURE_SELFOVERLAP>  (1) 
30.446

>  <PUBCHEM_SHAPE_FINGERPRINT>  (1) 
10354089 29 18411706452611935267
10465860 228 18412547608787150613
10608611 8 18190735538739790277
10906281 52 18409740577719749274
11471102 20 18336818775378080158
13140716 1 18190173679940209810
13464514 151 18194973065534161444
14648413 74 18118681252153734304
15042514 8 17256803396129558770
15295992 7 18260840331739738009
15442244 35 18411696608024828604
15475509 8 18057066643689903268
1601671 61 18340770355949506396
16945 1 18262784259707801878
17041 49 18411415107262366541
18186145 218 18409160022009755071
18785283 64 18115313417767818236
201361 129 18339080496624423165
20671657 1 18264771132700398764
21041028 32 17830164710510094323
21478907 32 17977663105040035802
21501502 16 18193268826362736846
21503847 285 18409168813676109961
21665062 11 18338242570090703281
22094290 62 18410853304165654397
23402539 116 18272359854866040734
23402655 69 18272369784513671117
23557571 272 16630520761299217815
23598291 2 18128805516198559495
25 1 18334855052022052790
2748010 2 18049704249205111590
3071541 12 18265612276729320436
474 4 18337387265997776473
5104073 3 18336823186214535227
53777708 50 18198056091626842983
7364860 26 18266734878217324292
7832392 63 18342171185081367439
81228 2 15591546817461187603
84936 182 17984417718038132496
9981440 41 17547558740167073184

>  <PUBCHEM_SHAPE_MULTIPOLES>  (1) 
318.5
8.47
3.02
0.82
9.17
2.54
0.02
1.43
-1.72
-2.09
0
0.57
0.04
-1.02

>  <PUBCHEM_SHAPE_SELFOVERLAP>  (1) 
636.31

>  <PUBCHEM_SHAPE_VOLUME>  (1) 
193.4

>  <PUBCHEM_COORDINATE_TYPE>  (1) 
2
5
10

$$$$
