38714
     RDKit          3D

 17 18  0  0  0  0  0  0  0  0999 V2000
    2.4791    1.9846    0.0030 S   0  0  0  0  0  0  0  0  0  0  0  0
    0.7407   -2.4281    0.0013 O   0  0  0  0  0  0  0  0  0  0  0  0
   -1.2218    1.1585    0.0033 N   0  0  0  0  0  0  0  0  0  0  0  0
   -1.2238   -1.2387    0.0001 N   0  0  0  0  0  0  0  0  0  0  0  0
    0.8551    2.3247    0.0044 N   0  0  0  0  0  0  0  0  0  0  0  0
   -3.3215   -0.0398    0.0002 C   0  0  0  0  0  0  0  0  0  0  0  0
   -1.8180   -0.0835    0.0018 C   0  0  0  0  0  0  0  0  0  0  0  0
    3.3370   -0.6763   -0.0020 C   0  0  0  0  0  0  0  0  0  0  0  0
    2.1629    0.2468    0.0008 C   0  0  0  0  0  0  0  0  0  0  0  0
    0.8549   -0.0647    0.0010 C   0  0  0  0  0  0  0  0  0  0  0  0
   -3.7724    0.7022   -1.2600 C   0  0  0  0  0  0  0  0  0  0  0  0
   -3.7983    0.7001    1.2527 C   0  0  0  0  0  0  0  0  0  0  0  0
   -3.8604   -1.4728   -0.0045 C   0  0  0  0  0  0  0  0  0  0  0  0
    0.0740    1.1955    0.0030 C   0  0  0  0  0  0  0  0  0  0  0  0
    0.1484   -1.3568    0.0006 C   0  0  0  0  0  0  0  0  0  0  0  0
    4.1779   -0.4670   -1.2596 C   0  0  0  0  0  0  0  0  0  0  0  0
    4.1862   -0.4848    1.2540 C   0  0  0  0  0  0  0  0  0  0  0  0
  1  5  1  0
  1  9  1  0
  2 15  2  0
  3  7  1  0
  3 14  2  0
  4  7  2  0
  4 15  1  0
  5 14  1  0
  6  7  1  0
  6 11  1  0
  6 12  1  0
  6 13  1  0
  8  9  1  0
  8 16  1  0
  8 17  1  0
  9 10  2  0
 10 14  1  0
 10 15  1  0
M  END
>  <PUBCHEM_COMPOUND_CID>  (1) 
38714

>  <PUBCHEM_CONFORMER_RMSD>  (1) 
0.6

>  <PUBCHEM_CONFORMER_DIVERSEORDER>  (1) 
1
2

>  <PUBCHEM_MMFF94_PARTIAL_CHARGES>  (1) 
13
1 -0.07
10 0.03
14 0.49
15 0.77
2 -0.57
3 -0.66
34 0.4
4 -0.66
5 -0.48
6 0.06
7 0.6
8 0.14
9 -0.04

>  <PUBCHEM_EFFECTIVE_ROTOR_COUNT>  (1) 
2

>  <PUBCHEM_PHARMACOPHORE_FEATURES>  (1) 
8
1 2 acceptor
1 4 donor
1 5 donor
3 3 5 14 cation
3 8 16 17 hydrophobe
4 6 11 12 13 hydrophobe
5 1 5 9 10 14 rings
6 3 4 7 10 14 15 rings

>  <PUBCHEM_HEAVY_ATOM_COUNT>  (1) 
17

>  <PUBCHEM_ATOM_DEF_STEREO_COUNT>  (1) 
0

>  <PUBCHEM_ATOM_UDEF_STEREO_COUNT>  (1) 
0

>  <PUBCHEM_BOND_DEF_STEREO_COUNT>  (1) 
0

>  <PUBCHEM_BOND_UDEF_STEREO_COUNT>  (1) 
0

>  <PUBCHEM_ISOTOPIC_ATOM_COUNT>  (1) 
0

>  <PUBCHEM_COMPONENT_COUNT>  (1) 
1

>  <PUBCHEM_CACTVS_TAUTO_COUNT>  (1) 
4

>  <PUBCHEM_CONFORMER_ID>  (1) 
0000973A00000001

>  <PUBCHEM_MMFF94_ENERGY>  (1) 
46.9308

>  <PUBCHEM_FEATURE_SELFOVERLAP>  (1) 
40.682

>  <PUBCHEM_SHAPE_FINGERPRINT>  (1) 
10062212 137 18410283723004371555
10130415 120 18335419080128154152
10967382 1 18266458891696932960
11132069 177 18412257324637337106
11401426 45 18341320133032456965
11471102 20 18410851070756195877
11543360 7 15864362375434806886
11680986 33 18193282020776290920
12032990 46 18412268332649111734
12236239 1 17632574934121958973
12403259 226 18335694009701533549
124424 183 17894904110056684659
12553582 1 18337959995401690368
13140716 1 18338517550775812075
13221675 6 18410854343457997726
13296908 3 18186514445018756145
13675066 3 17632580448110841969
13760787 19 17095523976407277587
13760787 5 18040721359127675078
13862211 1 18410569557520730058
13922767 16 18412255147236747544
14289901 80 16226054417709882337
14911166 2 18410293601180856038
14993402 34 18409452483707831670
15196674 1 18410574023837928737
15209294 21 17774165587185994497
15375462 189 18113898230359443754
15442244 35 18412263977509991152
15536298 74 18271807977274946376
15848700 24 18272086085213425628
15848702 151 17703516497402257662
16945 1 18410856525295894949
17804303 29 18409733975458281461
18186145 218 18411703205120969029
18522853 295 18409169909267030834
19026448 5 15339115745124030102
193761 8 17690280404665126208
19422 9 18130794498700397869
200 152 18130779101754325367
20028762 73 18057606666913687663
20233049 118 18187080637867502676
20281475 54 18409733936940764802
20645476 183 17604442910886089518
20645477 70 18411415137358721373
20671657 1 18192721269725325588
21267235 1 18340497737227385215
21501502 16 18123746714981238654
221490 88 18192437578508339387
23184049 59 18412261752906887888
2334 1 18122343746438692868
23402539 116 18272364244322370430
23463225 33 18408039606791850066
23493267 7 17240199898523690721
23559900 14 18343026601724178238
2748010 2 18265616678553470300
335352 9 18338516344185485437
4072396 5 18191003643488758746
5104073 3 18339081592046689393
633830 44 18201727249077063525
69090 78 17632568362294683686
7364860 26 18200034100561522280
8809292 202 18187088390267797171

>  <PUBCHEM_SHAPE_MULTIPOLES>  (1) 
332.89
8.02
2
0.99
0.75
0.17
0
-0.89
-0.01
-0.43
0
-0.08
0.04
-0.01

>  <PUBCHEM_SHAPE_SELFOVERLAP>  (1) 
690.57

>  <PUBCHEM_SHAPE_VOLUME>  (1) 
196.4

>  <PUBCHEM_COORDINATE_TYPE>  (1) 
2
5
10

$$$$
