38716
     RDKit          3D

 26 28  0  0  0  0  0  0  0  0999 V2000
   -6.9466    1.4554   -0.3155 Br  0  0  0  0  0  0  0  0  0  0  0  0
    4.7354    5.2823   -0.3165 Br  0  0  0  0  0  0  0  0  0  0  0  0
    2.2088   -6.7401   -0.3164 Br  0  0  0  0  0  0  0  0  0  0  0  0
    0.0024    0.0004   -0.2570 P   0  0  0  0  0  0  0  0  0  0  0  0
   -0.9629    1.1044    0.4341 O   0  0  0  0  0  0  0  0  0  0  0  0
    1.4366    0.2782    0.4360 O   0  0  0  0  0  0  0  0  0  0  0  0
   -0.4745   -1.3806    0.4356 O   0  0  0  0  0  0  0  0  0  0  0  0
    0.0028    0.0002   -1.7602 O   0  0  0  0  0  0  0  0  0  0  0  0
   -2.3111    1.1836    0.2655 C   0  0  0  0  0  0  0  0  0  0  0  0
    2.1840    1.4119    0.2659 C   0  0  0  0  0  0  0  0  0  0  0  0
    0.1334   -2.5948    0.2656 C   0  0  0  0  0  0  0  0  0  0  0  0
   -2.9659    0.2667   -0.5566 C   0  0  0  0  0  0  0  0  0  0  0  0
    1.7146    2.4304   -0.5569 C   0  0  0  0  0  0  0  0  0  0  0  0
    1.2504   -2.6978   -0.5568 C   0  0  0  0  0  0  0  0  0  0  0  0
   -3.0378    2.1821    0.9142 C   0  0  0  0  0  0  0  0  0  0  0  0
    3.4074    1.5360    0.9166 C   0  0  0  0  0  0  0  0  0  0  0  0
   -0.3714   -3.7164    0.9159 C   0  0  0  0  0  0  0  0  0  0  0  0
   -4.3475    0.3483   -0.7304 C   0  0  0  0  0  0  0  0  0  0  0  0
    2.4767    3.5855   -0.7315 C   0  0  0  0  0  0  0  0  0  0  0  0
    1.8695   -3.9355   -0.7311 C   0  0  0  0  0  0  0  0  0  0  0  0
   -4.4195    2.2636    0.7406 C   0  0  0  0  0  0  0  0  0  0  0  0
    4.1696    2.6912    0.7422 C   0  0  0  0  0  0  0  0  0  0  0  0
    0.2477   -4.9542    0.7418 C   0  0  0  0  0  0  0  0  0  0  0  0
   -5.0744    1.3467   -0.0817 C   0  0  0  0  0  0  0  0  0  0  0  0
    3.7042    3.7160   -0.0817 C   0  0  0  0  0  0  0  0  0  0  0  0
    1.3683   -5.0637   -0.0818 C   0  0  0  0  0  0  0  0  0  0  0  0
  1 24  1  0
  2 25  1  0
  3 26  1  0
  4  5  1  0
  4  6  1  0
  4  7  1  0
  4  8  2  0
  5  9  1  0
  6 10  1  0
  7 11  1  0
  9 12  2  0
  9 15  1  0
 10 13  2  0
 10 16  1  0
 11 14  2  0
 11 17  1  0
 12 18  1  0
 13 19  1  0
 14 20  1  0
 15 21  2  0
 16 22  2  0
 17 23  2  0
 18 24  2  0
 19 25  2  0
 20 26  2  0
 21 24  1  0
 22 25  1  0
 23 26  1  0
M  END
>  <PUBCHEM_COMPOUND_CID>  (1) 
38716

>  <PUBCHEM_CONFORMER_RMSD>  (1) 
0.8

>  <PUBCHEM_CONFORMER_DIVERSEORDER>  (1) 
1
4
15
11
6
9
12
2
13
3
14
8
7
10
5

>  <PUBCHEM_MMFF94_PARTIAL_CHARGES>  (1) 
38
1 -0.11
10 0.08
11 0.08
12 -0.15
13 -0.15
14 -0.15
15 -0.15
16 -0.15
17 -0.15
18 -0.15
19 -0.15
2 -0.11
20 -0.15
21 -0.15
22 -0.15
23 -0.15
24 0.11
25 0.11
26 0.11
27 0.15
28 0.15
29 0.15
3 -0.11
30 0.15
31 0.15
32 0.15
33 0.15
34 0.15
35 0.15
36 0.15
37 0.15
38 0.15
4 1.51
5 -0.35
6 -0.35
7 -0.35
8 -0.7
9 0.08

>  <PUBCHEM_EFFECTIVE_ROTOR_COUNT>  (1) 
6

>  <PUBCHEM_PHARMACOPHORE_FEATURES>  (1) 
7
1 1 hydrophobe
1 2 hydrophobe
1 3 hydrophobe
1 8 acceptor
6 10 13 16 19 22 25 rings
6 11 14 17 20 23 26 rings
6 9 12 15 18 21 24 rings

>  <PUBCHEM_HEAVY_ATOM_COUNT>  (1) 
26

>  <PUBCHEM_ATOM_DEF_STEREO_COUNT>  (1) 
0

>  <PUBCHEM_ATOM_UDEF_STEREO_COUNT>  (1) 
0

>  <PUBCHEM_BOND_DEF_STEREO_COUNT>  (1) 
0

>  <PUBCHEM_BOND_UDEF_STEREO_COUNT>  (1) 
0

>  <PUBCHEM_ISOTOPIC_ATOM_COUNT>  (1) 
0

>  <PUBCHEM_COMPONENT_COUNT>  (1) 
1

>  <PUBCHEM_CACTVS_TAUTO_COUNT>  (1) 
1

>  <PUBCHEM_CONFORMER_ID>  (1) 
0000973C00000001

>  <PUBCHEM_MMFF94_ENERGY>  (1) 
64.3906

>  <PUBCHEM_FEATURE_SELFOVERLAP>  (1) 
35.522

>  <PUBCHEM_SHAPE_FINGERPRINT>  (1) 
10090160 65 18411691111100095269
10411042 1 17690560789031906231
11045515 52 17473830524130664443
11056379 131 17617386516687862468
12107183 9 18263065756724300264
12553582 1 17544751232263381691
12788726 201 17763448913474639582
13533116 47 18265619776279912533
13540713 5 17537143020227662704
13590594 115 17546457678309200209
138480 1 18050568439126294649
13955234 65 18338522928660513473
14251757 5 17617089652331302447
15705408 1 18266740173273347165
15775530 1 17841184282906190014
16087824 20 17689436410018870211
17492 89 18195807367758606873
17980427 26 18341043047470281669
19319366 153 18343577465275962821
20101258 96 17330555345621397019
20505436 4 17823973636082291360
20600515 1 16836849336230596889
21049683 271 18046925782878785511
21120745 212 17110450143096966148
21796203 349 17548738125908210475
23366157 5 18267590113274074653
23559900 14 18121494653797261521
23598288 3 17830447641997209008
23929065 36 17331947830423827264
3091708 16 9189313010622005482
3627633 1 17113538671163806596
4058900 60 18340498828007082545
4409770 3 17760363688379392343
474 4 18410855464888015433
59755656 520 18265890435706741172
6058803 2 18130503012835850377
6673363 416 17620207438661552046
6700243 42 16971437750369217908
6898599 12 17831021591215143804
77188 2 17906453220990949047
79837 15 18266740370841835304
9981440 41 18337670940155817025

>  <PUBCHEM_SHAPE_MULTIPOLES>  (1) 
533.27
10.31
10.29
1.01
16.34
17.57
-0.08
-17.6
-0.4
-16.29
-0.4
0
0
0

>  <PUBCHEM_SHAPE_SELFOVERLAP>  (1) 
1090.965

>  <PUBCHEM_SHAPE_VOLUME>  (1) 
316.6

>  <PUBCHEM_COORDINATE_TYPE>  (1) 
2
5
10

$$$$
