38719
     RDKit          3D

 13 13  0  0  1  0  0  0  0  0999 V2000
    0.8927    3.0435   -0.0148 O   0  0  0  0  0  0  0  0  0  0  0  0
   -3.1664   -1.4675    0.5093 O   0  0  0  0  0  0  0  0  0  0  0  0
   -2.1779   -0.9158   -1.4577 O   0  0  0  0  0  0  0  0  0  0  0  0
   -0.6142    1.1493   -0.1014 C   0  0  0  0  0  0  0  0  0  0  0  0
    0.5542    0.1793   -0.0239 C   0  0  0  0  0  0  0  0  0  0  0  0
   -1.9215    0.5570    0.4702 C   0  0  0  0  0  0  0  0  0  0  0  0
   -0.2537    2.4687    0.6005 C   0  0  0  0  0  0  0  0  0  0  0  0
    1.5490    0.2539   -0.9783 C   0  0  0  0  0  0  0  0  0  0  0  0
    0.5867   -0.7476    0.9988 C   0  0  0  0  0  0  0  0  0  0  0  0
   -2.4049   -0.6668   -0.2820 C   0  0  0  0  0  0  0  0  0  0  0  0
    2.6210   -0.6358   -0.9073 C   0  0  0  0  0  0  0  0  0  0  0  0
    1.6590   -1.6371    1.0698 C   0  0  0  0  0  0  0  0  0  0  0  0
    2.6760   -1.5811    0.1168 C   0  0  0  0  0  0  0  0  0  0  0  0
  1  7  1  0
  2 10  1  0
  3 10  2  0
  4  5  1  0
  4  6  1  0
  4  7  1  0
  5  8  2  0
  5  9  1  0
  6 10  1  0
  8 11  1  0
  9 12  2  0
 11 13  2  0
 12 13  1  0
M  END
>  <PUBCHEM_COMPOUND_CID>  (1) 
38719

>  <PUBCHEM_CONFORMER_RMSD>  (1) 
0.6

>  <PUBCHEM_CONFORMER_DIVERSEORDER>  (1) 
1
26
10
25
16
24
30
27
21
11
7
2
19
31
33
29
8
22
15
4
23
28
12
32
18
3
20
6
14
9
13
5
17

>  <PUBCHEM_MMFF94_PARTIAL_CHARGES>  (1) 
20
1 -0.68
10 0.66
11 -0.15
12 -0.15
13 -0.15
19 0.15
2 -0.65
20 0.15
21 0.15
22 0.15
23 0.15
24 0.4
25 0.5
3 -0.57
4 0.14
5 -0.14
6 0.06
7 0.28
8 -0.15
9 -0.15

>  <PUBCHEM_EFFECTIVE_ROTOR_COUNT>  (1) 
4

>  <PUBCHEM_PHARMACOPHORE_FEATURES>  (1) 
6
1 1 acceptor
1 1 donor
1 2 acceptor
1 3 acceptor
3 2 3 10 anion
6 5 8 9 11 12 13 rings

>  <PUBCHEM_HEAVY_ATOM_COUNT>  (1) 
13

>  <PUBCHEM_ATOM_DEF_STEREO_COUNT>  (1) 
0

>  <PUBCHEM_ATOM_UDEF_STEREO_COUNT>  (1) 
1

>  <PUBCHEM_BOND_DEF_STEREO_COUNT>  (1) 
0

>  <PUBCHEM_BOND_UDEF_STEREO_COUNT>  (1) 
0

>  <PUBCHEM_ISOTOPIC_ATOM_COUNT>  (1) 
0

>  <PUBCHEM_COMPONENT_COUNT>  (1) 
1

>  <PUBCHEM_CACTVS_TAUTO_COUNT>  (1) 
1

>  <PUBCHEM_CONFORMER_ID>  (1) 
0000973F00000001

>  <PUBCHEM_MMFF94_ENERGY>  (1) 
31.1489

>  <PUBCHEM_FEATURE_SELFOVERLAP>  (1) 
30.504

>  <PUBCHEM_SHAPE_FINGERPRINT>  (1) 
12423570 1 15149174243890045485
12716758 59 17480298972727835170
13380537 58 17478047160040005460
14128692 85 18187649059329755366
15076042 46 17761494686037602689
15375462 189 18261971677543714611
15906896 17 17907855103023105637
16945 1 18196933494365110988
20361792 2 18271516555175083959
20645477 70 18125433370678308247
20711985 344 18055910992059167601
20871998 184 17984421841216597277
21028194 46 9223225260858745263
22112679 90 18270414792699595016
228727 97 18190482526801520132
23402539 116 17767385903905213085
23419403 2 15372240697569044306
23552423 10 18267866266881179669
23557571 272 18057600976249616872
2748010 2 18341597201246348705
53812653 217 17976561415399363744
7364860 26 18198906009788393833
81228 2 18054217739847070977

>  <PUBCHEM_SHAPE_MULTIPOLES>  (1) 
249.93
3.98
2.47
1.11
0.16
2.08
0.12
-2.7
0.44
0.58
-0.41
-0.13
-0.28
-0.53

>  <PUBCHEM_SHAPE_SELFOVERLAP>  (1) 
512.675

>  <PUBCHEM_SHAPE_VOLUME>  (1) 
143

>  <PUBCHEM_COORDINATE_TYPE>  (1) 
2
5
10

$$$$
