38723
     RDKit          3D

  9  8  0  0  0  0  0  0  0  0999 V2000
    0.1884   -2.2482    0.9699 I   0  0  0  0  0  0  0  0  0  0  0  0
    0.0480   -0.8545   -1.8610 Cl  0  0  0  0  0  0  0  0  0  0  0  0
   -1.3427    0.7494    1.3368 O   0  0  0  0  0  0  0  0  0  0  0  0
    0.9571    1.7086   -0.2185 O   0  0  0  0  0  0  0  0  0  0  0  0
   -2.1503    0.2790   -0.6466 O   0  0  0  0  0  0  0  0  0  0  0  0
    2.3072    0.0718    0.3305 O   0  0  0  0  0  0  0  0  0  0  0  0
   -1.2473    0.2570    0.2021 N   0  0  0  0  0  0  0  0  0  0  0  0
    1.1942    0.5124    0.0130 N   0  0  0  0  0  0  0  0  0  0  0  0
    0.0454   -0.4754   -0.1264 C   0  0  0  0  0  0  0  0  0  0  0  0
  1  9  1  0
  2  9  1  0
  3  7  1  0
  4  8  1  0
  5  7  2  0
  6  8  2  0
  7  9  1  0
  8  9  1  0
M  CHG  4   3  -1   4  -1   7   1   8   1
M  END
>  <PUBCHEM_COMPOUND_CID>  (1) 
38723

>  <PUBCHEM_CONFORMER_RMSD>  (1) 
0.4

>  <PUBCHEM_CONFORMER_DIVERSEORDER>  (1) 
1
7
4
9
6
5
8
2
3

>  <PUBCHEM_MMFF94_PARTIAL_CHARGES>  (1) 
9
1 -0.19
2 -0.29
3 -0.52
4 -0.52
5 -0.52
6 -0.52
7 0.8
8 0.8
9 0.96

>  <PUBCHEM_EFFECTIVE_ROTOR_COUNT>  (1) 
2

>  <PUBCHEM_PHARMACOPHORE_FEATURES>  (1) 
7
1 1 hydrophobe
1 3 acceptor
1 3 anion
1 4 acceptor
1 4 anion
1 5 acceptor
1 6 acceptor

>  <PUBCHEM_HEAVY_ATOM_COUNT>  (1) 
9

>  <PUBCHEM_ATOM_DEF_STEREO_COUNT>  (1) 
0

>  <PUBCHEM_ATOM_UDEF_STEREO_COUNT>  (1) 
0

>  <PUBCHEM_BOND_DEF_STEREO_COUNT>  (1) 
0

>  <PUBCHEM_BOND_UDEF_STEREO_COUNT>  (1) 
0

>  <PUBCHEM_ISOTOPIC_ATOM_COUNT>  (1) 
0

>  <PUBCHEM_COMPONENT_COUNT>  (1) 
1

>  <PUBCHEM_CACTVS_TAUTO_COUNT>  (1) 
1

>  <PUBCHEM_CONFORMER_ID>  (1) 
0000974300000001

>  <PUBCHEM_MMFF94_ENERGY>  (1) 
20.1621

>  <PUBCHEM_FEATURE_SELFOVERLAP>  (1) 
35.691

>  <PUBCHEM_SHAPE_FINGERPRINT>  (1) 
12423570 1 16159963843058441583
137420 1 17403172595462455598
21040471 1 18188771772423417024
5084963 1 18341893021408384353
5943 1 15039370527239568438

>  <PUBCHEM_SHAPE_MULTIPOLES>  (1) 
165.58
2.06
1.98
1.43
0.37
0.72
-0.72
-0.99
0.44
0.5
0.39
-0.15
-0.24
-0.09

>  <PUBCHEM_SHAPE_SELFOVERLAP>  (1) 
289.459

>  <PUBCHEM_SHAPE_VOLUME>  (1) 
113

>  <PUBCHEM_COORDINATE_TYPE>  (1) 
2
5
10

$$$$
