38739
     RDKit          3D

 16 16  0  0  0  0  0  0  0  0999 V2000
    5.1947   -2.0052   -0.4001 Cl  0  0  0  0  0  0  0  0  0  0  0  0
   -3.2518   -0.9523    0.2937 O   0  0  0  0  0  0  0  0  0  0  0  0
   -3.3753    0.8920   -1.0888 O   0  0  0  0  0  0  0  0  0  0  0  0
    0.6169    1.6524    0.4505 N   0  0  0  0  0  0  0  0  0  0  0  0
    1.6978    0.7889    0.2498 C   0  0  0  0  0  0  0  0  0  0  0  0
   -0.6935    1.4629    0.1085 C   0  0  0  0  0  0  0  0  0  0  0  0
    2.7823    0.7910    1.1368 C   0  0  0  0  0  0  0  0  0  0  0  0
    1.7109   -0.0901   -0.8412 C   0  0  0  0  0  0  0  0  0  0  0  0
   -1.4504    2.7279   -0.2078 C   0  0  0  0  0  0  0  0  0  0  0  0
   -1.3339    0.2810    0.0363 C   0  0  0  0  0  0  0  0  0  0  0  0
    3.8608   -0.0707    0.9365 C   0  0  0  0  0  0  0  0  0  0  0  0
    2.7894   -0.9518   -1.0415 C   0  0  0  0  0  0  0  0  0  0  0  0
    3.8644   -0.9420   -0.1527 C   0  0  0  0  0  0  0  0  0  0  0  0
   -2.7622    0.1470   -0.3419 C   0  0  0  0  0  0  0  0  0  0  0  0
   -4.6309   -1.2445    0.0444 C   0  0  0  0  0  0  0  0  0  0  0  0
   -5.0195   -2.4866    0.8177 C   0  0  0  0  0  0  0  0  0  0  0  0
  1 13  1  0
  2 14  1  0
  2 15  1  0
  3 14  2  0
  4  5  1  0
  4  6  1  0
  5  7  2  0
  5  8  1  0
  6  9  1  0
  6 10  2  0
  7 11  1  0
  8 12  2  0
 10 14  1  0
 11 13  2  0
 12 13  1  0
 15 16  1  0
M  END
>  <PUBCHEM_COMPOUND_CID>  (1) 
38739

>  <PUBCHEM_CONFORMER_RMSD>  (1) 
0.6

>  <PUBCHEM_CONFORMER_DIVERSEORDER>  (1) 
5
74
45
64
42
22
48
33
43
4
13
38
21
49
63
3
55
61
6
32
66
70
25
39
12
59
2
46
20
9
36
57
35
7
37
47
10
50
19
29
27
41
8
69
60
62
68
34
53
30
14
72
58
11
18
44
40
1
67
54
52
56
51
65
17
26
73
71
28
15
16
23
31
24

>  <PUBCHEM_MMFF94_PARTIAL_CHARGES>  (1) 
21
1 -0.18
10 -0.14
11 -0.15
12 -0.15
13 0.18
14 0.71
15 0.28
17 0.4
18 0.15
19 0.15
2 -0.43
20 0.15
24 0.15
25 0.15
3 -0.57
4 -0.6
5 0.1
6 -0.04
7 -0.15
8 -0.15
9 0.14

>  <PUBCHEM_EFFECTIVE_ROTOR_COUNT>  (1) 
5

>  <PUBCHEM_PHARMACOPHORE_FEATURES>  (1) 
4
1 3 acceptor
1 4 cation
1 4 donor
6 5 7 8 11 12 13 rings

>  <PUBCHEM_HEAVY_ATOM_COUNT>  (1) 
16

>  <PUBCHEM_ATOM_DEF_STEREO_COUNT>  (1) 
0

>  <PUBCHEM_ATOM_UDEF_STEREO_COUNT>  (1) 
0

>  <PUBCHEM_BOND_DEF_STEREO_COUNT>  (1) 
0

>  <PUBCHEM_BOND_UDEF_STEREO_COUNT>  (1) 
1

>  <PUBCHEM_ISOTOPIC_ATOM_COUNT>  (1) 
0

>  <PUBCHEM_COMPONENT_COUNT>  (1) 
1

>  <PUBCHEM_CACTVS_TAUTO_COUNT>  (1) 
5

>  <PUBCHEM_CONFORMER_ID>  (1) 
0000975300000005

>  <PUBCHEM_MMFF94_ENERGY>  (1) 
48.6929

>  <PUBCHEM_FEATURE_SELFOVERLAP>  (1) 
20.297

>  <PUBCHEM_SHAPE_FINGERPRINT>  (1) 
11543360 7 14851604423019989275
11796584 16 18118116975219500962
12032990 46 18410292536303337873
122479 349 9943803395855718305
12363563 72 18336272322578613475
12633257 1 16343698854699184606
13296908 3 18411978070274931877
1420 369 18410857676458322523
14251710 61 18411139138423244762
14251732 14 18268731479848722366
14251764 30 17605012453994164499
14252887 29 18341612689046007649
15342816 4 17677040334709502432
15352361 1 18410294735237331899
15885798 251 18410298047041875369
19107657 162 18413101745325262228
19141452 34 18130224965042471695
193927 3 18114187475127372795
200 152 16916484966080943293
20261772 1 17917989511923050006
20281475 54 18412271626831252328
20374829 77 18334292080894390859
20388580 30 18041284386696619029
20403669 9 18409167748967572531
20645477 70 18191581055034739899
20871998 22 18340487867334510313
21065201 7 18263914458803158840
212847 35 9799424316625835602
21713013 43 17894906334855155503
221490 88 18342737386836819112
231179 274 8574711308421853494
23402655 69 12901544641596196106
23403322 49 18408885101016130711
23557571 272 17968368043617429645
23559900 14 18338507544061486444
23590187 135 18333726944343719154
26918003 58 18059855034846808673
270888 7 9583525295675530947
2871803 45 18409442557764324770
316301 35 18410289216468419282
3421961 26 18268713990314566177
5104073 3 18058724702982064762
5352402 22 17989215866669952615
59755656 520 17979635633169353189
7062679 13 18408323284865958690

>  <PUBCHEM_SHAPE_MULTIPOLES>  (1) 
314.42
10.74
2.44
1
2.91
0.12
-0.02
-9.72
-0.74
1.79
-0.16
-0.33
-0.04
1.61

>  <PUBCHEM_SHAPE_SELFOVERLAP>  (1) 
631.99

>  <PUBCHEM_SHAPE_VOLUME>  (1) 
185.4

>  <PUBCHEM_COORDINATE_TYPE>  (1) 
2
5
10

$$$$
