38732
     RDKit          3D

 25 27  0  0  1  0  0  0  0  0999 V2000
   -4.5152   -1.5302    2.7178 Cl  0  0  0  0  0  0  0  0  0  0  0  0
    2.7019   -0.6727   -0.5642 O   0  0  0  0  0  0  0  0  0  0  0  0
    5.2962   -1.1004    0.4580 O   0  0  0  0  0  0  0  0  0  0  0  0
    1.5630   -1.8945   -2.5911 O   0  0  0  0  0  0  0  0  0  0  0  0
    6.7575    1.0911    1.3243 O   0  0  0  0  0  0  0  0  0  0  0  0
   -0.4056   -2.2698   -1.4966 N   0  0  0  0  0  0  0  0  0  0  0  0
    0.5382    0.4183   -0.5160 N   0  0  0  0  0  0  0  0  0  0  0  0
    1.2885   -0.8233   -0.4503 C   0  0  0  0  0  0  0  0  0  0  0  0
   -1.4990   -0.7883    0.1773 C   0  0  0  0  0  0  0  0  0  0  0  0
   -0.7142    0.4213   -0.2112 C   0  0  0  0  0  0  0  0  0  0  0  0
   -1.3819   -2.0041   -0.5146 C   0  0  0  0  0  0  0  0  0  0  0  0
    3.2260    0.1158    0.4938 C   0  0  0  0  0  0  0  0  0  0  0  0
    0.8335   -1.6763   -1.6220 C   0  0  0  0  0  0  0  0  0  0  0  0
    4.7418    0.2139    0.3642 C   0  0  0  0  0  0  0  0  0  0  0  0
   -1.4167    1.7343   -0.2931 C   0  0  0  0  0  0  0  0  0  0  0  0
   -2.4604   -0.6576    1.1929 C   0  0  0  0  0  0  0  0  0  0  0  0
   -2.2997   -3.0316   -0.2503 C   0  0  0  0  0  0  0  0  0  0  0  0
    5.3427    1.0582    1.4803 C   0  0  0  0  0  0  0  0  0  0  0  0
   -3.3340   -1.7062    1.4786 C   0  0  0  0  0  0  0  0  0  0  0  0
   -3.2653   -2.8860    0.7457 C   0  0  0  0  0  0  0  0  0  0  0  0
   -2.7629    1.7717   -0.6330 C   0  0  0  0  0  0  0  0  0  0  0  0
   -0.7163    2.9043   -0.0288 C   0  0  0  0  0  0  0  0  0  0  0  0
   -3.4199    2.9998   -0.7100 C   0  0  0  0  0  0  0  0  0  0  0  0
   -1.3733    4.1324   -0.1057 C   0  0  0  0  0  0  0  0  0  0  0  0
   -2.7250    4.1801   -0.4462 C   0  0  0  0  0  0  0  0  0  0  0  0
  1 19  1  0
  2  8  1  0
  2 12  1  0
  3 14  1  0
  4 13  2  0
  5 18  1  0
  6 11  1  0
  6 13  1  0
  7  8  1  0
  7 10  2  0
  8 13  1  0
  9 10  1  0
  9 11  2  0
  9 16  1  0
 10 15  1  0
 11 17  1  0
 12 14  1  0
 14 18  1  0
 15 21  2  0
 15 22  1  0
 16 19  2  0
 17 20  2  0
 19 20  1  0
 21 23  1  0
 22 24  2  0
 23 25  2  0
 24 25  1  0
M  END
>  <PUBCHEM_COMPOUND_CID>  (1) 
38732

>  <PUBCHEM_CONFORMER_RMSD>  (1) 
0.8

>  <PUBCHEM_CONFORMER_DIVERSEORDER>  (1) 
1
10
33
23
31
26
8
22
35
17
12
36
5
14
32
21
2
16
13
15
30
24
34
37
4
3
9
27
25
6
19
28
20
7
11
18
29

>  <PUBCHEM_MMFF94_PARTIAL_CHARGES>  (1) 
36
1 -0.18
10 0.28
11 0.12
12 0.28
13 0.57
14 0.28
15 0.09
16 -0.15
17 -0.15
18 0.28
19 0.18
2 -0.56
20 -0.15
21 -0.15
22 -0.15
23 -0.15
24 -0.15
25 -0.15
3 -0.68
30 0.37
31 0.15
32 0.15
35 0.15
36 0.15
37 0.15
38 0.15
39 0.15
4 -0.57
40 0.4
41 0.15
42 0.4
5 -0.68
6 -0.55
7 -0.7
8 0.59
9 0.09

>  <PUBCHEM_EFFECTIVE_ROTOR_COUNT>  (1) 
5.4

>  <PUBCHEM_PHARMACOPHORE_FEATURES>  (1) 
11
1 2 acceptor
1 3 acceptor
1 3 donor
1 4 acceptor
1 5 acceptor
1 5 donor
1 6 donor
1 7 acceptor
6 15 21 22 23 24 25 rings
6 9 11 16 17 19 20 rings
7 6 7 8 9 10 11 13 rings

>  <PUBCHEM_HEAVY_ATOM_COUNT>  (1) 
25

>  <PUBCHEM_ATOM_DEF_STEREO_COUNT>  (1) 
0

>  <PUBCHEM_ATOM_UDEF_STEREO_COUNT>  (1) 
2

>  <PUBCHEM_BOND_DEF_STEREO_COUNT>  (1) 
0

>  <PUBCHEM_BOND_UDEF_STEREO_COUNT>  (1) 
0

>  <PUBCHEM_ISOTOPIC_ATOM_COUNT>  (1) 
0

>  <PUBCHEM_COMPONENT_COUNT>  (1) 
1

>  <PUBCHEM_CACTVS_TAUTO_COUNT>  (1) 
3

>  <PUBCHEM_CONFORMER_ID>  (1) 
0000974C00000001

>  <PUBCHEM_MMFF94_ENERGY>  (1) 
88.1712

>  <PUBCHEM_FEATURE_SELFOVERLAP>  (1) 
55.884

>  <PUBCHEM_SHAPE_FINGERPRINT>  (1) 
10074138 170 18188480294457656521
10319926 262 18337942395564838626
10906281 52 18412270510693871013
12035758 1 18336844039193419161
12107183 9 17902775385642277746
12422481 6 18269568267678161889
12553582 1 18193579954173460783
12788726 201 17970090974079571307
12892183 10 18333446535178553682
12930653 34 18334290934022429338
13140716 1 18337398244087321809
13540713 4 18269568134624041190
13583140 156 18342734075533331786
13965767 371 17839500767237533003
14178342 30 18041570130638790934
14468879 13 18270952436948275512
14844126 61 18261385672042396299
15475509 35 16665738277677632667
15775530 1 17985283884224390982
17980427 23 17630902688563349363
20600515 1 18125459724091123651
21033648 29 17916284127092830888
21049683 118 17972858286059982129
21304303 282 17751898273779802085
21344244 78 17910711901005214483
21401589 2 18268988691948964425
22182313 1 18198922326168841183
22956985 138 16889207512846362890
23366157 5 17325783968280030327
23419403 2 15479533370396354783
23557571 272 18265071179041636534
23559900 14 18120388562021249206
2748010 2 18125462838052903919
3187 122 18334297590820681461
3380486 145 18339645637438621815
376196 1 17836911313926855708
3886686 26 17536310336677659602
4409770 3 18261664927069556143
5104073 3 18188757380874154434
59554788 62 18130802173928853535
81228 2 18045251304601397403
84936 182 17040644885964856565
90316 7 18338804523506184259
9862522 239 18131347527242637302
9981440 41 18126267675842012114

>  <PUBCHEM_SHAPE_MULTIPOLES>  (1) 
482.92
9.71
4.85
1.76
20.2
4.91
0.21
-0.2
7.21
-6.78
-0.89
-0.28
-1.31
2.77

>  <PUBCHEM_SHAPE_SELFOVERLAP>  (1) 
1030.966

>  <PUBCHEM_SHAPE_VOLUME>  (1) 
265.9

>  <PUBCHEM_COORDINATE_TYPE>  (1) 
2
5
10

$$$$
