38733
     RDKit          3D

 27 29  0  0  1  0  0  0  0  0999 V2000
   -4.3952    1.4777   -2.9264 Cl  0  0  0  0  0  0  0  0  0  0  0  0
    5.3298   -1.3915   -2.0182 Cl  0  0  0  0  0  0  0  0  0  0  0  0
    5.4120    1.2127   -0.7384 Cl  0  0  0  0  0  0  0  0  0  0  0  0
    5.0847   -1.2126    0.8690 Cl  0  0  0  0  0  0  0  0  0  0  0  0
    2.6858    0.4584    0.2390 O   0  0  0  0  0  0  0  0  0  0  0  0
    1.7267    1.6135    2.3742 O   0  0  0  0  0  0  0  0  0  0  0  0
    2.5222   -0.7905   -1.6824 O   0  0  0  0  0  0  0  0  0  0  0  0
   -0.3142    2.1563    1.4004 N   0  0  0  0  0  0  0  0  0  0  0  0
    0.4987   -0.5783    0.3816 N   0  0  0  0  0  0  0  0  0  0  0  0
   -1.3045    1.9457    0.3806 C   0  0  0  0  0  0  0  0  0  0  0  0
   -1.4955    0.7051   -0.2605 C   0  0  0  0  0  0  0  0  0  0  0  0
   -0.7705   -0.5294    0.1575 C   0  0  0  0  0  0  0  0  0  0  0  0
    1.2718    0.6435    0.2340 C   0  0  0  0  0  0  0  0  0  0  0  0
    0.9204    1.4928    1.4473 C   0  0  0  0  0  0  0  0  0  0  0  0
   -1.5434   -1.7907    0.3490 C   0  0  0  0  0  0  0  0  0  0  0  0
   -2.1444    3.0113    0.0009 C   0  0  0  0  0  0  0  0  0  0  0  0
   -2.4407    0.5726   -1.2938 C   0  0  0  0  0  0  0  0  0  0  0  0
   -0.5844    3.1731    2.4174 C   0  0  0  0  0  0  0  0  0  0  0  0
   -3.0951    2.8675   -1.0128 C   0  0  0  0  0  0  0  0  0  0  0  0
   -3.2349    1.6519   -1.6683 C   0  0  0  0  0  0  0  0  0  0  0  0
   -2.8705   -1.7278    0.7562 C   0  0  0  0  0  0  0  0  0  0  0  0
   -0.9283   -3.0151    0.1178 C   0  0  0  0  0  0  0  0  0  0  0  0
   -3.5935   -2.9071    0.9351 C   0  0  0  0  0  0  0  0  0  0  0  0
   -1.6515   -4.1945    0.2965 C   0  0  0  0  0  0  0  0  0  0  0  0
   -2.9841   -4.1404    0.7052 C   0  0  0  0  0  0  0  0  0  0  0  0
    3.1971   -0.2902   -0.7901 C   0  0  0  0  0  0  0  0  0  0  0  0
    4.7016   -0.4141   -0.6707 C   0  0  0  0  0  0  0  0  0  0  0  0
  1 20  1  0
  2 27  1  0
  3 27  1  0
  4 27  1  0
  5 13  1  0
  5 26  1  0
  6 14  2  0
  7 26  2  0
  8 10  1  0
  8 14  1  0
  8 18  1  0
  9 12  2  0
  9 13  1  0
 10 11  2  0
 10 16  1  0
 11 12  1  0
 11 17  1  0
 12 15  1  0
 13 14  1  0
 15 21  2  0
 15 22  1  0
 16 19  2  0
 17 20  2  0
 19 20  1  0
 21 23  1  0
 22 24  2  0
 23 25  2  0
 24 25  1  0
 26 27  1  0
M  END
>  <PUBCHEM_COMPOUND_CID>  (1) 
38733

>  <PUBCHEM_CONFORMER_RMSD>  (1) 
0.8

>  <PUBCHEM_CONFORMER_DIVERSEORDER>  (1) 
3
17
13
8
7
10
16
14
19
11
5
15
2
6
18
12
4
9
1

>  <PUBCHEM_MMFF94_PARTIAL_CHARGES>  (1) 
35
1 -0.18
10 0.12
11 0.09
12 0.28
13 0.59
14 0.57
15 0.09
16 -0.15
17 -0.15
18 0.3
19 -0.15
2 -0.29
20 0.18
21 -0.15
22 -0.15
23 -0.15
24 -0.15
25 -0.15
26 0.66
27 0.93
29 0.15
3 -0.29
30 0.15
34 0.15
35 0.15
36 0.15
37 0.15
38 0.15
39 0.15
4 -0.29
5 -0.43
6 -0.57
7 -0.57
8 -0.48
9 -0.7

>  <PUBCHEM_EFFECTIVE_ROTOR_COUNT>  (1) 
4.4

>  <PUBCHEM_PHARMACOPHORE_FEATURES>  (1) 
6
1 6 acceptor
1 7 acceptor
1 9 acceptor
6 10 11 16 17 19 20 rings
6 15 21 22 23 24 25 rings
7 8 9 10 11 12 13 14 rings

>  <PUBCHEM_HEAVY_ATOM_COUNT>  (1) 
27

>  <PUBCHEM_ATOM_DEF_STEREO_COUNT>  (1) 
0

>  <PUBCHEM_ATOM_UDEF_STEREO_COUNT>  (1) 
1

>  <PUBCHEM_BOND_DEF_STEREO_COUNT>  (1) 
0

>  <PUBCHEM_BOND_UDEF_STEREO_COUNT>  (1) 
0

>  <PUBCHEM_ISOTOPIC_ATOM_COUNT>  (1) 
0

>  <PUBCHEM_COMPONENT_COUNT>  (1) 
1

>  <PUBCHEM_CACTVS_TAUTO_COUNT>  (1) 
1

>  <PUBCHEM_CONFORMER_ID>  (1) 
0000974D00000003

>  <PUBCHEM_MMFF94_ENERGY>  (1) 
93.8543

>  <PUBCHEM_FEATURE_SELFOVERLAP>  (1) 
30.461

>  <PUBCHEM_SHAPE_FINGERPRINT>  (1) 
10165383 225 18263372382754987725
10290309 65 18343310284278019982
105312 117 18041843883079382540
10764073 3 15689341951459435427
107951 10 18125169233967119797
108634 29 17832948962389210727
121448 382 18126842694769995512
12293681 160 17984970506193903017
12293681 25 18056458759282007639
12712778 12 18193248893978848322
12714826 92 18337960085685882298
12788726 201 17701255824233878112
13149001 5 18268126790896930117
13631057 29 18266751345438266334
14022347 108 17534896700232584603
14114211 68 18045772404709991981
15463212 79 17821726118028440832
15775530 1 18055051414384591793
16752209 62 18114728421842257643
17349148 13 18056759837148866356
1813 80 17683525404930725675
19319366 153 17838340670980582985
19958102 18 18263083219359484902
20600515 1 17980515495779140439
20739085 24 17040904941929138697
21033650 10 17772484391295575044
21049683 271 17617112737896459028
21452121 99 18044625751094166289
21781051 124 18040988519785386529
22182313 1 18128522959164565368
22393880 68 18334022688088114606
22907989 373 18336558186706134517
23419403 2 18057884843312270601
23557571 272 18263082283267376556
23559900 14 18270686351667704486
2748010 2 18052234478916695289
3380486 145 17629180887054458121
3759504 43 18263927644300055413
394222 165 17461996562048211217
4058900 60 17832713374717217281
4409770 3 18408322185733853031
484985 159 18198645270893085834
57527358 35 15358808991259138385
57527585 103 17841748177446577918
59755656 520 18052000037841818144
70634741 139 18337402612712426086
7237137 82 18260556666145044494

>  <PUBCHEM_SHAPE_MULTIPOLES>  (1) 
535.56
9.47
4.85
2.13
14.78
3.89
0.35
1.27
5.66
-6.72
-1.64
-0.48
-1.67
2.63

>  <PUBCHEM_SHAPE_SELFOVERLAP>  (1) 
1122.507

>  <PUBCHEM_SHAPE_VOLUME>  (1) 
303

>  <PUBCHEM_COORDINATE_TYPE>  (1) 
2
5
10

$$$$
