38738
     RDKit          3D

 11 11  0  0  0  0  0  0  0  0999 V2000
    4.4170    0.1298    0.0508 Br  0  0  0  0  0  0  0  0  0  0  0  0
   -3.4589    1.6166    0.0138 Cl  0  0  0  0  0  0  0  0  0  0  0  0
    1.8304    1.5691   -0.0286 O   0  0  0  0  0  0  0  0  0  0  0  0
    0.1644   -0.0792   -0.0062 C   0  0  0  0  0  0  0  0  0  0  0  0
   -0.8611    0.8664    0.0004 C   0  0  0  0  0  0  0  0  0  0  0  0
   -0.1416   -1.4401   -0.0060 C   0  0  0  0  0  0  0  0  0  0  0  0
    1.5526    0.3532   -0.0152 C   0  0  0  0  0  0  0  0  0  0  0  0
   -2.1927    0.4509    0.0072 C   0  0  0  0  0  0  0  0  0  0  0  0
   -1.4731   -1.8556    0.0009 C   0  0  0  0  0  0  0  0  0  0  0  0
   -2.4986   -0.9101    0.0074 C   0  0  0  0  0  0  0  0  0  0  0  0
    2.6615   -0.7011   -0.0243 C   0  0  0  0  0  0  0  0  0  0  0  0
  1 11  1  0
  2  8  1  0
  3  7  2  0
  4  5  2  0
  4  6  1  0
  4  7  1  0
  5  8  1  0
  6  9  2  0
  7 11  1  0
  8 10  2  0
  9 10  1  0
M  END
>  <PUBCHEM_COMPOUND_CID>  (1) 
38738

>  <PUBCHEM_CONFORMER_RMSD>  (1) 
0.4

>  <PUBCHEM_CONFORMER_DIVERSEORDER>  (1) 
1
21
10
25
17
4
14
24
15
6
12
8
23
20
2
13
3
22
11
9
7
19
5
16
18

>  <PUBCHEM_MMFF94_PARTIAL_CHARGES>  (1) 
15
1 -0.23
10 -0.15
11 0.29
12 0.15
13 0.15
14 0.15
15 0.15
2 -0.18
3 -0.57
4 0.09
5 -0.15
6 -0.15
7 0.42
8 0.18
9 -0.15

>  <PUBCHEM_EFFECTIVE_ROTOR_COUNT>  (1) 
2

>  <PUBCHEM_PHARMACOPHORE_FEATURES>  (1) 
3
1 1 hydrophobe
1 3 acceptor
6 4 5 6 8 9 10 rings

>  <PUBCHEM_HEAVY_ATOM_COUNT>  (1) 
11

>  <PUBCHEM_ATOM_DEF_STEREO_COUNT>  (1) 
0

>  <PUBCHEM_ATOM_UDEF_STEREO_COUNT>  (1) 
0

>  <PUBCHEM_BOND_DEF_STEREO_COUNT>  (1) 
0

>  <PUBCHEM_BOND_UDEF_STEREO_COUNT>  (1) 
0

>  <PUBCHEM_ISOTOPIC_ATOM_COUNT>  (1) 
0

>  <PUBCHEM_COMPONENT_COUNT>  (1) 
1

>  <PUBCHEM_CACTVS_TAUTO_COUNT>  (1) 
2

>  <PUBCHEM_CONFORMER_ID>  (1) 
0000975200000001

>  <PUBCHEM_MMFF94_ENERGY>  (1) 
26.7643

>  <PUBCHEM_FEATURE_SELFOVERLAP>  (1) 
15.223

>  <PUBCHEM_SHAPE_FINGERPRINT>  (1) 
10608611 8 18341609377811143752
12716758 59 18341044211501253251
12932764 1 17631173172238350692
13024252 1 14129052625822703783
13380535 76 18339923714879735031
14144814 61 18408882940974459714
14325111 11 18410575089058389924
14897335 6 18339638941199173535
15219456 202 18201729413814596150
15775835 57 18260549982996570440
16945 1 18410857646403866911
18511873 20 18335701615872096520
19973954 147 18266179611348322773
20201158 50 18273217491115542694
20645464 45 18202007637437493647
20645477 56 18410013221436980588
20645477 70 17274546408619175598
20653085 51 18335710454772418961
20871998 184 18200880702528383703
21040471 1 18410856547176926319
21501502 16 18265335182413335004
21524375 3 18337953394490513589
23235685 24 18340481166995312577
23402539 116 18272079514034658759
23402655 69 18198328569264513509
23463225 33 18262796264299896578
23552423 10 18116432729173456894
23559900 14 18272370842093724398
2748010 2 18339360872068212149
366044 4 18410572847449354411
369184 2 18272089456409370331
5084963 1 18272652380566594747
528886 8 18339074900234303913
53812653 166 18340765944712118840
6333449 129 18412260644836896007
6430166 295 18335700494738166516

>  <PUBCHEM_SHAPE_MULTIPOLES>  (1) 
228.32
6.4
1.75
0.63
4.96
0.22
0
-1.85
-0.09
-1.16
0
0.03
0
0

>  <PUBCHEM_SHAPE_SELFOVERLAP>  (1) 
449.079

>  <PUBCHEM_SHAPE_VOLUME>  (1) 
141.3

>  <PUBCHEM_COORDINATE_TYPE>  (1) 
2
5
10

$$$$
