38731
     RDKit          3D

 26 28  0  0  1  0  0  0  0  0999 V2000
   -4.1275    1.2665   -3.2368 Cl  0  0  0  0  0  0  0  0  0  0  0  0
    2.7060    0.5279    0.4990 O   0  0  0  0  0  0  0  0  0  0  0  0
    1.5567    1.7248    2.5140 O   0  0  0  0  0  0  0  0  0  0  0  0
    5.3025    0.9334   -0.5263 O   0  0  0  0  0  0  0  0  0  0  0  0
    6.7634   -1.2760   -1.3462 O   0  0  0  0  0  0  0  0  0  0  0  0
   -0.4137    2.1846    1.3677 N   0  0  0  0  0  0  0  0  0  0  0  0
    0.5388   -0.5591    0.5065 N   0  0  0  0  0  0  0  0  0  0  0  0
    1.2929    0.6768    0.3785 C   0  0  0  0  0  0  0  0  0  0  0  0
   -1.3162    1.9168    0.2819 C   0  0  0  0  0  0  0  0  0  0  0  0
   -1.4281    0.6522   -0.3304 C   0  0  0  0  0  0  0  0  0  0  0  0
   -0.7098   -0.5497    0.1834 C   0  0  0  0  0  0  0  0  0  0  0  0
    0.8283    1.5545    1.5321 C   0  0  0  0  0  0  0  0  0  0  0  0
    3.2312   -0.2816   -0.5419 C   0  0  0  0  0  0  0  0  0  0  0  0
   -1.4661   -1.8235    0.3564 C   0  0  0  0  0  0  0  0  0  0  0  0
   -2.1481    2.9483   -0.1969 C   0  0  0  0  0  0  0  0  0  0  0  0
    4.7466   -0.3782   -0.4075 C   0  0  0  0  0  0  0  0  0  0  0  0
   -2.2863    0.4633   -1.4287 C   0  0  0  0  0  0  0  0  0  0  0  0
   -0.7859    3.2257    2.3263 C   0  0  0  0  0  0  0  0  0  0  0  0
   -3.0131    2.7485   -1.2758 C   0  0  0  0  0  0  0  0  0  0  0  0
   -3.0734    1.5098   -1.8993 C   0  0  0  0  0  0  0  0  0  0  0  0
    5.3489   -1.2451   -1.5054 C   0  0  0  0  0  0  0  0  0  0  0  0
   -2.8220   -1.7817    0.6574 C   0  0  0  0  0  0  0  0  0  0  0  0
   -0.8066   -3.0385    0.2153 C   0  0  0  0  0  0  0  0  0  0  0  0
   -3.5293   -2.9730    0.8196 C   0  0  0  0  0  0  0  0  0  0  0  0
   -1.5139   -4.2297    0.3776 C   0  0  0  0  0  0  0  0  0  0  0  0
   -2.8753   -4.1970    0.6796 C   0  0  0  0  0  0  0  0  0  0  0  0
  1 20  1  0
  2  8  1  0
  2 13  1  0
  3 12  2  0
  4 16  1  0
  5 21  1  0
  6  9  1  0
  6 12  1  0
  6 18  1  0
  7  8  1  0
  7 11  2  0
  8 12  1  0
  9 10  2  0
  9 15  1  0
 10 11  1  0
 10 17  1  0
 11 14  1  0
 13 16  1  0
 14 22  2  0
 14 23  1  0
 15 19  2  0
 16 21  1  0
 17 20  2  0
 19 20  1  0
 22 24  1  0
 23 25  2  0
 24 26  2  0
 25 26  1  0
M  END
>  <PUBCHEM_COMPOUND_CID>  (1) 
38731

>  <PUBCHEM_CONFORMER_RMSD>  (1) 
0.8

>  <PUBCHEM_CONFORMER_DIVERSEORDER>  (1) 
2
4
24
13
28
30
10
26
27
31
15
3
14
5
11
12
1
32
21
20
9
6
23
19
34
25
33
22
8
29
7
17
18
16

>  <PUBCHEM_MMFF94_PARTIAL_CHARGES>  (1) 
36
1 -0.18
10 0.09
11 0.28
12 0.57
13 0.28
14 0.09
15 -0.15
16 0.28
17 -0.15
18 0.3
19 -0.15
2 -0.56
20 0.18
21 0.28
22 -0.15
23 -0.15
24 -0.15
25 -0.15
26 -0.15
3 -0.57
31 0.15
32 0.15
36 0.15
39 0.15
4 -0.68
40 0.15
41 0.15
42 0.15
43 0.4
44 0.15
45 0.4
5 -0.68
6 -0.48
7 -0.7
8 0.59
9 0.12

>  <PUBCHEM_EFFECTIVE_ROTOR_COUNT>  (1) 
5.4

>  <PUBCHEM_PHARMACOPHORE_FEATURES>  (1) 
10
1 2 acceptor
1 3 acceptor
1 4 acceptor
1 4 donor
1 5 acceptor
1 5 donor
1 7 acceptor
6 14 22 23 24 25 26 rings
6 9 10 15 17 19 20 rings
7 6 7 8 9 10 11 12 rings

>  <PUBCHEM_HEAVY_ATOM_COUNT>  (1) 
26

>  <PUBCHEM_ATOM_DEF_STEREO_COUNT>  (1) 
0

>  <PUBCHEM_ATOM_UDEF_STEREO_COUNT>  (1) 
2

>  <PUBCHEM_BOND_DEF_STEREO_COUNT>  (1) 
0

>  <PUBCHEM_BOND_UDEF_STEREO_COUNT>  (1) 
0

>  <PUBCHEM_ISOTOPIC_ATOM_COUNT>  (1) 
0

>  <PUBCHEM_COMPONENT_COUNT>  (1) 
1

>  <PUBCHEM_CACTVS_TAUTO_COUNT>  (1) 
1

>  <PUBCHEM_CONFORMER_ID>  (1) 
0000974B00000002

>  <PUBCHEM_MMFF94_ENERGY>  (1) 
95.1268

>  <PUBCHEM_FEATURE_SELFOVERLAP>  (1) 
50.81

>  <PUBCHEM_SHAPE_FINGERPRINT>  (1) 
10165383 225 18263652762467552053
105312 117 18041842783805157574
10764073 3 15833454953307253843
107951 10 18196940963476769557
12293681 160 17985254180009272425
12293681 25 18056457668233681422
12714826 92 18262796392573753323
12969540 37 17407122526708788170
13257819 37 17968365763675201983
14022347 108 17462554332588104195
14114211 68 18044919192244994055
14251740 79 18410297982179710854
14251757 5 18408045130014843378
14713325 29 18113912532484734787
14866123 147 18199770079783394035
15163728 17 17317879157864761053
15463212 79 17749384854412095088
15775530 1 17982710150678562256
1813 80 17610617896946949763
19319366 153 17765999402911001345
19958102 18 18263643962047823710
20600515 1 18052005741790749191
21049683 271 17544491098778081140
21344244 181 18128231541760863575
21452121 99 17899942124075605305
22182313 1 18127394864534670280
22907989 373 18334298707517187373
23419403 2 18057038236533529449
23559900 14 18342736304948165848
2748010 2 17834646646833944697
3380486 145 17485344987817056768
394222 165 17317315121183769691
4058900 60 17904768773968808633
437815 12 18200599223562543587
4409770 3 18408041805910544839
484985 159 18270417004792629058
57003041 14 18267590297646269859
57262259 84 18337116760140491607
57527358 35 15214688297003599573
57527585 103 17985015659279375278
58260988 647 17702934968090519527
59755656 520 18195262021963723208
621550 5 18122074353410903011
70634741 139 18337402621349755510
7237137 82 18262533584110272350

>  <PUBCHEM_SHAPE_MULTIPOLES>  (1) 
503.5
9.13
5.01
2.19
20.41
4.42
0.49
2.35
7.39
-6.53
-1.82
-1.08
-2.03
3.19

>  <PUBCHEM_SHAPE_SELFOVERLAP>  (1) 
1071.229

>  <PUBCHEM_SHAPE_VOLUME>  (1) 
279.2

>  <PUBCHEM_COORDINATE_TYPE>  (1) 
2
5
10

$$$$
