38741
     RDKit          3D

 25 26  0  0  1  0  0  0  0  0999 V2000
    2.9344    1.3545    0.1235 O   0  0  0  0  0  0  0  0  0  0  0  0
   -3.8097   -0.2190   -1.0408 O   0  0  0  0  0  0  0  0  0  0  0  0
    2.5218   -0.7414    0.9404 O   0  0  0  0  0  0  0  0  0  0  0  0
    6.5146    0.4477   -0.2170 N   0  0  0  0  0  0  0  0  0  0  0  0
    0.8463    0.5358   -0.0900 N   0  0  0  0  0  0  0  0  0  0  0  0
    6.7274   -0.7216    0.6354 C   0  0  0  0  0  0  0  0  0  0  0  0
    7.3738    0.2306   -1.3806 C   0  0  0  0  0  0  0  0  0  0  0  0
    8.2333   -0.9279    0.5624 C   0  0  0  0  0  0  0  0  0  0  0  0
    8.6585   -0.2989   -0.7609 C   0  0  0  0  0  0  0  0  0  0  0  0
    5.1168    0.6214   -0.5832 C   0  0  0  0  0  0  0  0  0  0  0  0
    4.2966    1.2402    0.5513 C   0  0  0  0  0  0  0  0  0  0  0  0
    4.7744    2.6324    0.9442 C   0  0  0  0  0  0  0  0  0  0  0  0
   -7.4006   -0.1333    0.0613 C   0  0  0  0  0  0  0  0  0  0  0  0
   -8.5475    0.8694   -0.0940 C   0  0  0  0  0  0  0  0  0  0  0  0
   -6.0965    0.3302   -0.5859 C   0  0  0  0  0  0  0  0  0  0  0  0
    2.1310    0.2755    0.3804 C   0  0  0  0  0  0  0  0  0  0  0  0
   -9.8458    0.4165    0.5751 C   0  0  0  0  0  0  0  0  0  0  0  0
   -4.9964   -0.7120   -0.4343 C   0  0  0  0  0  0  0  0  0  0  0  0
  -10.9711    1.4105    0.3308 C   0  0  0  0  0  0  0  0  0  0  0  0
   -0.2822   -0.2830   -0.0383 C   0  0  0  0  0  0  0  0  0  0  0  0
   -2.6204   -0.6563   -0.5181 C   0  0  0  0  0  0  0  0  0  0  0  0
   -1.4923    0.1625   -0.5700 C   0  0  0  0  0  0  0  0  0  0  0  0
   -0.2001   -1.5472    0.5455 C   0  0  0  0  0  0  0  0  0  0  0  0
   -2.5382   -1.9206    0.0655 C   0  0  0  0  0  0  0  0  0  0  0  0
   -1.3282   -2.3660    0.5973 C   0  0  0  0  0  0  0  0  0  0  0  0
  1 11  1  0
  1 16  1  0
  2 18  1  0
  2 21  1  0
  3 16  2  0
  4  6  1  0
  4  7  1  0
  4 10  1  0
  5 16  1  0
  5 20  1  0
  6  8  1  0
  7  9  1  0
  8  9  1  0
 10 11  1  0
 11 12  1  0
 13 14  1  0
 13 15  1  0
 14 17  1  0
 15 18  1  0
 17 19  1  0
 20 22  1  0
 20 23  2  0
 21 22  2  0
 21 24  1  0
 23 25  1  0
 24 25  2  0
M  END
>  <PUBCHEM_COMPOUND_CID>  (1) 
38741

>  <PUBCHEM_CONFORMER_RMSD>  (1) 
1.2

>  <PUBCHEM_CONFORMER_DIVERSEORDER>  (1) 
2
28
104
75
82
110
32
121
83
67
112
57
130
33
30
86
120
70
128
11
71
8
62
6
129
124
12
105
44
87
133
22
15
106
122
88
51
19
74
45
78
100
116
126
118
49
99
18
113
98
94
95
48
132
85
84
24
63
93
109
123
119
47
96
107
66
41
111
23
52
42
5
72
134
58
114
90
14
79
97
29
92
91
27
80
56
77
53
50
60
54
117
127
16
21
115
9
7
59
89
73
131
26
25
55
4
34
17
102
125
46
37
76
64
1
39
65
81
101
36
3
10
108
69
38
13
43
103
40
20
31
68
35
61

>  <PUBCHEM_MMFF94_PARTIAL_CHARGES>  (1) 
22
1 -0.43
10 0.27
11 0.28
16 0.78
18 0.28
2 -0.36
20 0.12
21 0.08
22 -0.15
23 -0.15
24 -0.15
25 -0.15
3 -0.57
4 -0.81
5 -0.55
50 0.37
54 0.15
55 0.15
56 0.15
57 0.15
6 0.27
7 0.27

>  <PUBCHEM_EFFECTIVE_ROTOR_COUNT>  (1) 
13

>  <PUBCHEM_PHARMACOPHORE_FEATURES>  (1) 
8
1 19 hydrophobe
1 2 acceptor
1 3 acceptor
1 4 cation
1 5 donor
4 13 14 15 17 hydrophobe
5 4 6 7 8 9 rings
6 20 21 22 23 24 25 rings

>  <PUBCHEM_HEAVY_ATOM_COUNT>  (1) 
25

>  <PUBCHEM_ATOM_DEF_STEREO_COUNT>  (1) 
0

>  <PUBCHEM_ATOM_UDEF_STEREO_COUNT>  (1) 
1

>  <PUBCHEM_BOND_DEF_STEREO_COUNT>  (1) 
0

>  <PUBCHEM_BOND_UDEF_STEREO_COUNT>  (1) 
0

>  <PUBCHEM_ISOTOPIC_ATOM_COUNT>  (1) 
0

>  <PUBCHEM_COMPONENT_COUNT>  (1) 
1

>  <PUBCHEM_CACTVS_TAUTO_COUNT>  (1) 
2

>  <PUBCHEM_CONFORMER_ID>  (1) 
0000975500000002

>  <PUBCHEM_MMFF94_ENERGY>  (1) 
48.3995

>  <PUBCHEM_FEATURE_SELFOVERLAP>  (1) 
40.594

>  <PUBCHEM_SHAPE_FINGERPRINT>  (1) 
10 15 17894347770923030283
10162869 55 9295282842127848443
10391435 84 9871459929211696725
106641 1 12829490354909790087
10674148 151 18409163325240519640
10883706 142 17988926678823275175
11135609 127 16271633598824937520
11135609 99 11603121478648691337
11408170 108 16845021105129607630
11724838 91 10375871888281367250
13914758 101 16917356921972651034
14251764 46 18410856555355384799
14428016 86 18343022182250329145
14918687 75 13623541190681942585
15183329 4 18410857664306318794
15326923 82 9583513209837695459
15392192 104 15285358418798840065
15690457 1 10953459635840389985
15728490 51 11241974789065544153
18335252 98 10953453029278582720
20621476 8 18343300366612282061
21095086 128 13334730216123536808
21792934 111 16988555810583382536
22224240 67 11746934291519147472
232437 2 18186803587239785179
23524908 199 17632582604237270135
23559900 14 18266170811846667264
28498 318 18060421305158057622
3004659 81 18040150731107383690
335352 9 18408039636798722614
33684 2 15123509203620740469
3633792 109 17060344010844368342
4339292 15 15697422461024748351
5381727 24 18131631210750546463
5758199 1 18334856126660552211
59682541 35 13118004405393998181
59755656 520 18261667160226365823
6698420 124 18411419536022599635
67123 10 8142085360455831381
9663363 56 17917993876812108404

>  <PUBCHEM_SHAPE_MULTIPOLES>  (1) 
486.92
34.1
1.8
0.96
43.51
0.04
0.08
11.05
0.42
-0.45
-0.56
-0.91
0.03
-0.07

>  <PUBCHEM_SHAPE_SELFOVERLAP>  (1) 
977.817

>  <PUBCHEM_SHAPE_VOLUME>  (1) 
288.3

>  <PUBCHEM_COORDINATE_TYPE>  (1) 
2
5
10

$$$$
