38742
     RDKit          3D

 14 15  0  0  0  0  0  0  0  0999 V2000
    3.6385    0.6138   -0.0002 O   0  0  0  0  0  0  0  0  0  0  0  0
    2.0433    2.1281   -0.0003 O   0  0  0  0  0  0  0  0  0  0  0  0
   -0.6316    1.3240    0.0002 N   0  0  0  0  0  0  0  0  0  0  0  0
    2.4278    0.9356    0.0001 N   0  0  0  0  0  0  0  0  0  0  0  0
   -0.8716   -0.8940    0.0002 C   0  0  0  0  0  0  0  0  0  0  0  0
    0.0686    0.1386    0.0003 C   0  0  0  0  0  0  0  0  0  0  0  0
   -2.1586   -0.2871    0.0002 C   0  0  0  0  0  0  0  0  0  0  0  0
   -1.9782    1.0770    0.0001 C   0  0  0  0  0  0  0  0  0  0  0  0
    1.4481   -0.0961    0.0002 C   0  0  0  0  0  0  0  0  0  0  0  0
   -0.4149   -2.2271    0.0000 C   0  0  0  0  0  0  0  0  0  0  0  0
   -3.4572   -0.9931   -0.0004 C   0  0  0  0  0  0  0  0  0  0  0  0
   -2.9542    2.1837   -0.0002 C   0  0  0  0  0  0  0  0  0  0  0  0
    1.8776   -1.4263   -0.0001 C   0  0  0  0  0  0  0  0  0  0  0  0
    0.9622   -2.4770   -0.0002 C   0  0  0  0  0  0  0  0  0  0  0  0
  1  4  1  0
  2  4  2  0
  3  6  1  0
  3  8  1  0
  4  9  1  0
  5  6  2  0
  5  7  1  0
  5 10  1  0
  6  9  1  0
  7  8  2  0
  7 11  1  0
  8 12  1  0
  9 13  2  0
 10 14  2  0
 13 14  1  0
M  CHG  2   1  -1   4   1
M  END
>  <PUBCHEM_COMPOUND_CID>  (1) 
38742

>  <PUBCHEM_CONFORMER_RMSD>  (1) 
0.4

>  <PUBCHEM_CONFORMER_DIVERSEORDER>  (1) 
1

>  <PUBCHEM_MMFF94_PARTIAL_CHARGES>  (1) 
17
1 -0.52
10 -0.15
11 0.18
12 0.18
13 -0.15
14 -0.15
15 0.27
16 0.15
2 -0.52
23 0.15
24 0.15
3 0.03
4 0.91
6 -0.15
7 -0.18
8 -0.33
9 0.13

>  <PUBCHEM_EFFECTIVE_ROTOR_COUNT>  (1) 
1

>  <PUBCHEM_PHARMACOPHORE_FEATURES>  (1) 
7
1 1 acceptor
1 1 anion
1 2 acceptor
1 3 cation
1 3 donor
5 3 5 6 7 8 rings
6 5 6 9 10 13 14 rings

>  <PUBCHEM_HEAVY_ATOM_COUNT>  (1) 
14

>  <PUBCHEM_ATOM_DEF_STEREO_COUNT>  (1) 
0

>  <PUBCHEM_ATOM_UDEF_STEREO_COUNT>  (1) 
0

>  <PUBCHEM_BOND_DEF_STEREO_COUNT>  (1) 
0

>  <PUBCHEM_BOND_UDEF_STEREO_COUNT>  (1) 
0

>  <PUBCHEM_ISOTOPIC_ATOM_COUNT>  (1) 
0

>  <PUBCHEM_COMPONENT_COUNT>  (1) 
1

>  <PUBCHEM_CACTVS_TAUTO_COUNT>  (1) 
1

>  <PUBCHEM_CONFORMER_ID>  (1) 
0000975600000001

>  <PUBCHEM_MMFF94_ENERGY>  (1) 
28.8337

>  <PUBCHEM_FEATURE_SELFOVERLAP>  (1) 
35.692

>  <PUBCHEM_SHAPE_FINGERPRINT>  (1) 
10608611 8 18264488386782685293
10967382 1 18410574015422041479
13140716 1 18266177219141119171
13380535 21 18266751194497147961
13380535 76 18410008875088417042
13897977 150 18337668599293249029
14325111 11 18410856533885894497
14614273 12 18260820484743400757
14648413 74 18193559965221286483
15042514 8 18049441736383113658
15219456 202 18336831875313078433
15775835 57 18338242569784579181
16945 1 18338799025805464679
17990270 104 18266740173426826939
193761 8 18338797789076442503
19973954 147 18339080367822636603
20510252 161 18271810184598265929
21501502 16 18338231549272920595
21524375 3 18410009970325929666
2334 1 18410855434521953283
23402539 116 18269825583289668063
23463225 33 18334570205696351466
23526114 1 18339362937863215470
23552423 10 18337389318997379727
23559900 14 18271816722857061532
2748010 2 18338238158979675919
305870 269 18335980874614059922
528886 8 18339356499617632954
53812653 166 18341891857614854040
7364860 26 18197779899306957838
81228 2 17477192199381270130

>  <PUBCHEM_SHAPE_MULTIPOLES>  (1) 
266.41
4.75
2.61
0.59
0.49
0.22
0
-1.71
0
-0.2
0
0.05
0.04
0

>  <PUBCHEM_SHAPE_SELFOVERLAP>  (1) 
581.829

>  <PUBCHEM_SHAPE_VOLUME>  (1) 
147.6

>  <PUBCHEM_COORDINATE_TYPE>  (1) 
2
5
10

$$$$
