38752
     RDKit          3D

 17 18  0  0  0  0  0  0  0  0999 V2000
    4.7671   -0.3593   -0.4469 O   0  0  0  0  0  0  0  0  0  0  0  0
   -0.3504    1.3721    0.4861 N   0  0  0  0  0  0  0  0  0  0  0  0
   -4.7491    0.1997   -0.2234 N   0  0  0  0  0  0  0  0  0  0  0  0
   -1.0304    0.1860    0.5576 C   0  0  0  0  0  0  0  0  0  0  0  0
   -2.4854    0.1577    0.8032 C   0  0  0  0  0  0  0  0  0  0  0  0
   -0.1261   -0.8330    0.3656 C   0  0  0  0  0  0  0  0  0  0  0  0
    1.1545   -0.2443    0.1701 C   0  0  0  0  0  0  0  0  0  0  0  0
    0.9859    1.1397    0.2503 C   0  0  0  0  0  0  0  0  0  0  0  0
   -3.3153    0.1993   -0.4935 C   0  0  0  0  0  0  0  0  0  0  0  0
   -0.4322   -2.2787    0.3633 C   0  0  0  0  0  0  0  0  0  0  0  0
    2.4449   -0.7576   -0.0681 C   0  0  0  0  0  0  0  0  0  0  0  0
    2.0475    2.0396    0.1034 C   0  0  0  0  0  0  0  0  0  0  0  0
    3.5163    0.1305   -0.2170 C   0  0  0  0  0  0  0  0  0  0  0  0
    3.3185    1.5073   -0.1322 C   0  0  0  0  0  0  0  0  0  0  0  0
   -5.1422   -1.0272    0.4712 C   0  0  0  0  0  0  0  0  0  0  0  0
   -5.5071    0.3450   -1.4669 C   0  0  0  0  0  0  0  0  0  0  0  0
    4.9037   -1.7767   -0.5229 C   0  0  0  0  0  0  0  0  0  0  0  0
  1 13  1  0
  1 17  1  0
  2  4  1  0
  2  8  1  0
  3  9  1  0
  3 15  1  0
  3 16  1  0
  4  5  1  0
  4  6  2  0
  5  9  1  0
  6  7  1  0
  6 10  1  0
  7  8  2  0
  7 11  1  0
  8 12  1  0
 11 13  2  0
 12 14  2  0
 13 14  1  0
M  END
>  <PUBCHEM_COMPOUND_CID>  (1) 
38752

>  <PUBCHEM_CONFORMER_RMSD>  (1) 
0.6

>  <PUBCHEM_CONFORMER_DIVERSEORDER>  (1) 
2
12
1
10
16
15
9
7
11
8
13
4
6
5
14
3

>  <PUBCHEM_MMFF94_PARTIAL_CHARGES>  (1) 
20
1 -0.36
10 0.18
11 -0.15
12 -0.15
13 0.08
14 -0.15
15 0.27
16 0.27
17 0.28
2 0.03
22 0.27
26 0.15
27 0.15
28 0.15
3 -0.81
4 -0.33
5 0.18
6 -0.18
8 -0.15
9 0.27

>  <PUBCHEM_EFFECTIVE_ROTOR_COUNT>  (1) 
4

>  <PUBCHEM_PHARMACOPHORE_FEATURES>  (1) 
6
1 1 acceptor
1 2 cation
1 2 donor
1 3 cation
5 2 4 6 7 8 rings
6 7 8 11 12 13 14 rings

>  <PUBCHEM_HEAVY_ATOM_COUNT>  (1) 
17

>  <PUBCHEM_ATOM_DEF_STEREO_COUNT>  (1) 
0

>  <PUBCHEM_ATOM_UDEF_STEREO_COUNT>  (1) 
0

>  <PUBCHEM_BOND_DEF_STEREO_COUNT>  (1) 
0

>  <PUBCHEM_BOND_UDEF_STEREO_COUNT>  (1) 
0

>  <PUBCHEM_ISOTOPIC_ATOM_COUNT>  (1) 
0

>  <PUBCHEM_COMPONENT_COUNT>  (1) 
1

>  <PUBCHEM_CACTVS_TAUTO_COUNT>  (1) 
1

>  <PUBCHEM_CONFORMER_ID>  (1) 
0000976000000002

>  <PUBCHEM_MMFF94_ENERGY>  (1) 
40.201

>  <PUBCHEM_FEATURE_SELFOVERLAP>  (1) 
30.537

>  <PUBCHEM_SHAPE_FINGERPRINT>  (1) 
10693767 8 18200302209051863007
11089746 13 13840269220817737678
11471102 20 18410576206003198448
12236239 1 17703793622194139265
12403259 415 18113617911077309141
12555020 224 18411983541884263399
12670543 26 18261392191744624981
12715332 25 18060419140115277927
12730499 353 18113898239666867723
13533116 47 17846779590379994834
13571099 22 18411142458823380736
13690532 89 18413393116085964538
13760787 5 18341061769164249825
13862211 1 18340205198436097098
14115302 16 18114757009371043494
14350574 20 18409173220512781719
14911166 2 18408888429805481286
14993402 34 18410014325332947746
15048467 5 12901552342488395446
15099037 51 18408606950481205226
15196674 1 18339081600436260483
15242439 84 18113337509583660857
15848700 24 18342178830655969204
16945 1 18339940267894612568
17349148 13 17989495112278964443
17834072 8 18334575737171130175
17862501 102 17632297852131829834
18186145 218 18334847346866307709
19784866 170 9655570816580735188
200 152 18060421304783660489
20369508 70 18342175570802184800
20645477 70 18411423916593835366
21029758 11 18343022177354397616
21267235 1 18341906176972528178
21521239 73 18271232898655914335
221357 26 18409720738997368797
221490 88 18194125337520704883
22393880 68 18334283280654295855
22713019 99 18413110541566087946
23402539 116 17988646263901789233
23402655 69 18412541024871460741
23557571 272 17240486893034250935
23559900 14 18270682082063965432
2748010 2 18123481732937381586
2871803 45 18409443666119146741
29717793 49 17917993858635538789
3060560 45 18408879633475231902
3286 77 17131828751045273696
34934 24 18339639062022701824
3759504 43 17313391161700563147
465052 167 18201445778617035286
4990 188 18410294713688213735
633830 44 17603861260481102143
69090 78 18341332274783852370
7471813 234 17632572764546991665

>  <PUBCHEM_SHAPE_MULTIPOLES>  (1) 
334.02
10.99
1.85
0.89
8.21
0.24
-0.15
1.92
-3.68
-1.59
0.1
0.81
-0.01
0.72

>  <PUBCHEM_SHAPE_SELFOVERLAP>  (1) 
701.395

>  <PUBCHEM_SHAPE_VOLUME>  (1) 
193.2

>  <PUBCHEM_COORDINATE_TYPE>  (1) 
2
5
10

$$$$
