38754
     RDKit          3D

 18 19  0  0  0  0  0  0  0  0999 V2000
    3.0103    0.1157   -0.8645 O   0  0  0  0  0  0  0  0  0  0  0  0
   -0.9260   -0.4839   -3.1072 O   0  0  0  0  0  0  0  0  0  0  0  0
    1.0172   -0.1761   -1.9280 N   0  0  0  0  0  0  0  0  0  0  0  0
    1.0411    0.1507    0.5381 C   0  0  0  0  0  0  0  0  0  0  0  0
   -0.4738    0.0289    0.4380 C   0  0  0  0  0  0  0  0  0  0  0  0
    1.4198    1.5279    1.1232 C   0  0  0  0  0  0  0  0  0  0  0  0
    1.5980   -0.9680    1.4439 C   0  0  0  0  0  0  0  0  0  0  0  0
    1.7810    0.0320   -0.7953 C   0  0  0  0  0  0  0  0  0  0  0  0
   -1.1251   -0.1819   -0.7828 C   0  0  0  0  0  0  0  0  0  0  0  0
   -1.2730    0.1256    1.5957 C   0  0  0  0  0  0  0  0  0  0  0  0
   -0.3582   -0.2944   -2.0351 C   0  0  0  0  0  0  0  0  0  0  0  0
    0.8469    2.6263    0.2936 C   0  0  0  0  0  0  0  0  0  0  0  0
    1.3257   -2.3086    0.8506 C   0  0  0  0  0  0  0  0  0  0  0  0
   -2.5239   -0.2913   -0.8450 C   0  0  0  0  0  0  0  0  0  0  0  0
   -2.6636    0.0170    1.5357 C   0  0  0  0  0  0  0  0  0  0  0  0
   -3.2891   -0.1914    0.3137 C   0  0  0  0  0  0  0  0  0  0  0  0
   -0.0209    3.5311    0.7603 C   0  0  0  0  0  0  0  0  0  0  0  0
    0.6134   -3.2595    1.4652 C   0  0  0  0  0  0  0  0  0  0  0  0
  1  8  2  0
  2 11  2  0
  3  8  1  0
  3 11  1  0
  4  5  1  0
  4  6  1  0
  4  7  1  0
  4  8  1  0
  5  9  2  0
  5 10  1  0
  6 12  1  0
  7 13  1  0
  9 11  1  0
  9 14  1  0
 10 15  2  0
 12 17  2  0
 13 18  2  0
 14 16  2  0
 15 16  1  0
M  END
>  <PUBCHEM_COMPOUND_CID>  (1) 
38754

>  <PUBCHEM_CONFORMER_RMSD>  (1) 
0.6

>  <PUBCHEM_CONFORMER_DIVERSEORDER>  (1) 
1
12
5
3
9
6
11
10
7
4
8
2

>  <PUBCHEM_MMFF94_PARTIAL_CHARGES>  (1) 
29
1 -0.57
10 -0.15
11 0.54
12 -0.29
13 -0.29
14 -0.15
15 -0.15
16 -0.15
17 -0.3
18 -0.3
2 -0.57
23 0.15
24 0.37
25 0.15
26 0.15
27 0.15
28 0.15
29 0.15
3 -0.49
30 0.15
31 0.15
32 0.15
33 0.15
4 0.2
5 -0.14
6 0.14
7 0.14
8 0.57
9 0.09

>  <PUBCHEM_EFFECTIVE_ROTOR_COUNT>  (1) 
4.4

>  <PUBCHEM_PHARMACOPHORE_FEATURES>  (1) 
7
1 1 acceptor
1 17 hydrophobe
1 18 hydrophobe
1 2 acceptor
1 3 donor
6 3 4 5 8 9 11 rings
6 5 9 10 14 15 16 rings

>  <PUBCHEM_HEAVY_ATOM_COUNT>  (1) 
18

>  <PUBCHEM_ATOM_DEF_STEREO_COUNT>  (1) 
0

>  <PUBCHEM_ATOM_UDEF_STEREO_COUNT>  (1) 
0

>  <PUBCHEM_BOND_DEF_STEREO_COUNT>  (1) 
0

>  <PUBCHEM_BOND_UDEF_STEREO_COUNT>  (1) 
0

>  <PUBCHEM_ISOTOPIC_ATOM_COUNT>  (1) 
0

>  <PUBCHEM_COMPONENT_COUNT>  (1) 
1

>  <PUBCHEM_CACTVS_TAUTO_COUNT>  (1) 
3

>  <PUBCHEM_CONFORMER_ID>  (1) 
0000976200000001

>  <PUBCHEM_MMFF94_ENERGY>  (1) 
52.7428

>  <PUBCHEM_FEATURE_SELFOVERLAP>  (1) 
35.541

>  <PUBCHEM_SHAPE_FINGERPRINT>  (1) 
12326174 3 18343018917088851184
12423570 1 16520234320046498130
12716301 132 16831244008751038473
13583140 156 18335717039917224297
14142880 1 16245730492086011557
144361 1 17561094578676176097
14817 1 10650391624226555889
15557651 10 17677609937699133936
15881359 60 16769821037200767933
16945 1 17916330335822573832
19765921 60 17480550065185281785
20511035 2 17406540417058870168
23419403 2 17245785387459184168
3286 77 18042666447011131779
430814 3 17556018326875525957
4340502 62 17761190512850283743
568465 68 17897137218188730218
5845 1 8530602621003893426
68419 9 17035340953251295489

>  <PUBCHEM_SHAPE_MULTIPOLES>  (1) 
353.71
3.34
2.88
2.26
1.78
0.83
1.63
-0.52
-0.24
-1.5
-1.88
0.42
-0.41
-0.35

>  <PUBCHEM_SHAPE_SELFOVERLAP>  (1) 
757.756

>  <PUBCHEM_SHAPE_VOLUME>  (1) 
193.4

>  <PUBCHEM_COORDINATE_TYPE>  (1) 
2
5
10

$$$$
