38755
     RDKit          3D

 10  9  0  0  1  0  0  0  0  0999 V2000
    2.4537    1.2890   -0.8814 O   0  0  0  0  0  0  0  0  0  0  0  0
    3.1875   -0.3402    0.5181 O   0  0  0  0  0  0  0  0  0  0  0  0
   -0.2241    0.2509   -0.2020 C   0  0  0  0  0  0  0  0  0  0  0  0
   -1.5902    0.4609    0.4913 C   0  0  0  0  0  0  0  0  0  0  0  0
   -0.0571   -1.1499   -0.8324 C   0  0  0  0  0  0  0  0  0  0  0  0
    0.9293    0.5437    0.7814 C   0  0  0  0  0  0  0  0  0  0  0  0
   -2.7876    0.2665   -0.4424 C   0  0  0  0  0  0  0  0  0  0  0  0
   -0.1145   -2.3128    0.1487 C   0  0  0  0  0  0  0  0  0  0  0  0
   -4.0985    0.5726    0.2665 C   0  0  0  0  0  0  0  0  0  0  0  0
    2.3016    0.4193    0.1520 C   0  0  0  0  0  0  0  0  0  0  0  0
  1 10  1  0
  2 10  2  0
  3  4  1  0
  3  5  1  0
  3  6  1  0
  4  7  1  0
  5  8  1  0
  6 10  1  0
  7  9  1  0
M  END
>  <PUBCHEM_COMPOUND_CID>  (1) 
38755

>  <PUBCHEM_CONFORMER_RMSD>  (1) 
0.6

>  <PUBCHEM_CONFORMER_DIVERSEORDER>  (1) 
2
7
65
26
58
38
68
1
55
14
36
50
52
5
70
47
63
49
54
71
21
66
41
64
35
13
42
56
12
57
6
44
53
48
62
51
40
23
67
16
72
29
31
25
39
61
33
60
4
28
69
32
11
20
43
45
24
34
8
46
30
15
27
37
3
18
9
22
17
19
10
59

>  <PUBCHEM_MMFF94_PARTIAL_CHARGES>  (1) 
5
1 -0.65
10 0.66
2 -0.57
26 0.5
6 0.06

>  <PUBCHEM_EFFECTIVE_ROTOR_COUNT>  (1) 
5

>  <PUBCHEM_PHARMACOPHORE_FEATURES>  (1) 
6
1 1 acceptor
1 2 acceptor
1 8 hydrophobe
1 9 hydrophobe
3 1 2 10 anion
5 3 4 5 6 7 hydrophobe

>  <PUBCHEM_HEAVY_ATOM_COUNT>  (1) 
10

>  <PUBCHEM_ATOM_DEF_STEREO_COUNT>  (1) 
0

>  <PUBCHEM_ATOM_UDEF_STEREO_COUNT>  (1) 
1

>  <PUBCHEM_BOND_DEF_STEREO_COUNT>  (1) 
0

>  <PUBCHEM_BOND_UDEF_STEREO_COUNT>  (1) 
0

>  <PUBCHEM_ISOTOPIC_ATOM_COUNT>  (1) 
0

>  <PUBCHEM_COMPONENT_COUNT>  (1) 
1

>  <PUBCHEM_CACTVS_TAUTO_COUNT>  (1) 
1

>  <PUBCHEM_CONFORMER_ID>  (1) 
0000976300000002

>  <PUBCHEM_MMFF94_ENERGY>  (1) 
7.0731

>  <PUBCHEM_FEATURE_SELFOVERLAP>  (1) 
30.526

>  <PUBCHEM_SHAPE_FINGERPRINT>  (1) 
10219947 1 18259987063414037757
11062470 55 10807932678232521241
12932764 1 16153696644175934137
14128692 85 11819574618187598555
14325111 11 18412543236494625537
14993402 34 18335703874761332285
15775835 57 18273491277879039369
19021347 11 18340483357449946971
20645476 183 18262529220038468606
20645477 70 18127405654167575663
20653085 51 16845299396627682993
20711985 327 11891336422122993603
21028194 46 18341891891916427049
21040471 1 18342453781091982514
23235685 24 18412822491084026977
29004967 10 8718827617231128357
366044 4 18202560683243952510
5084963 1 18343016670794626888
528862 383 18190449481054619602
81539 233 18335419024304271711

>  <PUBCHEM_SHAPE_MULTIPOLES>  (1) 
194.06
5.33
1.56
0.88
2.92
1.2
-0.05
-2.03
0.25
-0.3
-0.04
-0.16
-0.05
-0.27

>  <PUBCHEM_SHAPE_SELFOVERLAP>  (1) 
353.67

>  <PUBCHEM_SHAPE_VOLUME>  (1) 
124.2

>  <PUBCHEM_COORDINATE_TYPE>  (1) 
2
5
10

$$$$
