38753
     RDKit          3D

 22 24  0  0  0  0  0  0  0  0999 V2000
    0.9926   -2.0573    0.4043 O   0  0  0  0  0  0  0  0  0  0  0  0
    3.2071   -2.5087    0.3026 O   0  0  0  0  0  0  0  0  0  0  0  0
   -1.8491   -1.8363    1.6892 O   0  0  0  0  0  0  0  0  0  0  0  0
   -2.0723   -2.2026   -0.5995 N   0  0  0  0  0  0  0  0  0  0  0  0
    0.0836    0.1842    0.1517 C   0  0  0  0  0  0  0  0  0  0  0  0
    1.4792    0.6519   -0.0200 C   0  0  0  0  0  0  0  0  0  0  0  0
    2.5431   -0.2560    0.0307 C   0  0  0  0  0  0  0  0  0  0  0  0
   -0.0788   -1.1399    0.3535 C   0  0  0  0  0  0  0  0  0  0  0  0
   -1.0871    1.0617    0.1140 C   0  0  0  0  0  0  0  0  0  0  0  0
    1.7754    2.0090   -0.2371 C   0  0  0  0  0  0  0  0  0  0  0  0
    2.2952   -1.6938    0.2546 C   0  0  0  0  0  0  0  0  0  0  0  0
   -1.4020   -1.7575    0.5414 C   0  0  0  0  0  0  0  0  0  0  0  0
    3.8671    0.1780   -0.1302 C   0  0  0  0  0  0  0  0  0  0  0  0
   -1.7271    1.3039   -1.0964 C   0  0  0  0  0  0  0  0  0  0  0  0
   -1.5484    1.6452    1.2888 C   0  0  0  0  0  0  0  0  0  0  0  0
    3.0938    2.4419   -0.3976 C   0  0  0  0  0  0  0  0  0  0  0  0
    4.1390    1.5270   -0.3439 C   0  0  0  0  0  0  0  0  0  0  0  0
   -2.8428    2.1404   -1.1326 C   0  0  0  0  0  0  0  0  0  0  0  0
   -2.6640    2.4816    1.2525 C   0  0  0  0  0  0  0  0  0  0  0  0
   -3.3112    2.7292    0.0418 C   0  0  0  0  0  0  0  0  0  0  0  0
   -3.3962   -2.8170   -0.5346 C   0  0  0  0  0  0  0  0  0  0  0  0
   -1.4972   -2.0849   -1.9332 C   0  0  0  0  0  0  0  0  0  0  0  0
  1  8  1  0
  1 11  1  0
  2 11  2  0
  3 12  2  0
  4 12  1  0
  4 21  1  0
  4 22  1  0
  5  6  1  0
  5  8  2  0
  5  9  1  0
  6  7  2  0
  6 10  1  0
  7 11  1  0
  7 13  1  0
  8 12  1  0
  9 14  2  0
  9 15  1  0
 10 16  2  0
 13 17  2  0
 14 18  1  0
 15 19  2  0
 16 17  1  0
 18 20  2  0
 19 20  1  0
M  END
>  <PUBCHEM_COMPOUND_CID>  (1) 
38753

>  <PUBCHEM_CONFORMER_RMSD>  (1) 
0.6

>  <PUBCHEM_CONFORMER_DIVERSEORDER>  (1) 
1
3
2

>  <PUBCHEM_MMFF94_PARTIAL_CHARGES>  (1) 
31
1 -0.23
10 -0.15
11 0.63
12 0.62
13 -0.15
14 -0.15
15 -0.15
16 -0.15
17 -0.15
18 -0.15
19 -0.15
2 -0.57
20 -0.15
21 0.3
22 0.3
23 0.15
24 0.15
25 0.15
26 0.15
27 0.15
28 0.15
29 0.15
3 -0.57
30 0.15
37 0.15
4 -0.66
5 -0.06
6 0.03
7 0.09
8 0.09
9 0.03

>  <PUBCHEM_EFFECTIVE_ROTOR_COUNT>  (1) 
3

>  <PUBCHEM_PHARMACOPHORE_FEATURES>  (1) 
5
1 2 acceptor
1 3 acceptor
6 1 5 6 7 8 11 rings
6 6 7 10 13 16 17 rings
6 9 14 15 18 19 20 rings

>  <PUBCHEM_HEAVY_ATOM_COUNT>  (1) 
22

>  <PUBCHEM_ATOM_DEF_STEREO_COUNT>  (1) 
0

>  <PUBCHEM_ATOM_UDEF_STEREO_COUNT>  (1) 
0

>  <PUBCHEM_BOND_DEF_STEREO_COUNT>  (1) 
0

>  <PUBCHEM_BOND_UDEF_STEREO_COUNT>  (1) 
0

>  <PUBCHEM_ISOTOPIC_ATOM_COUNT>  (1) 
0

>  <PUBCHEM_COMPONENT_COUNT>  (1) 
1

>  <PUBCHEM_CACTVS_TAUTO_COUNT>  (1) 
1

>  <PUBCHEM_CONFORMER_ID>  (1) 
0000976100000001

>  <PUBCHEM_MMFF94_ENERGY>  (1) 
81.152

>  <PUBCHEM_FEATURE_SELFOVERLAP>  (1) 
25.397

>  <PUBCHEM_SHAPE_FINGERPRINT>  (1) 
104564 63 18339644567622149087
10756046 5 18410567371091914590
10967382 1 18120093884188242008
1100329 8 18191581943987832746
11578080 2 17416669427337703035
11582403 64 15939466583492707693
11725454 13 16372389399819937661
12507560 14 17907292148726925890
12553582 1 17910942857859599103
12788726 201 18338786927136040115
13140716 1 18335981953088850930
13583140 156 17386570128907676033
14178342 30 18339626898480206072
14223421 5 18262528094888931610
15210252 30 17754713233879240349
15309172 13 18121221970001498673
16752209 62 18265608969583117608
16945 1 17975416815431637858
17357779 13 18051403265126345045
18186145 218 18196656185543932044
20510252 161 18124317365901251296
21197605 99 18337973207749527361
21236236 1 18337392746945823444
21501502 16 18407757036788493418
21524375 3 18264491676569372073
21756936 100 17631193912752150456
23184049 59 18048037372250061584
2334 1 18408325497364427066
23419403 2 14807020287144000907
23558518 356 18113906017351390064
23559900 14 18271807879392622660
23566358 2 18411415115847091766
238 59 17393570642253861525
25147074 1 18333447634647743018
266924 87 18265048209619860396
2748010 2 18410022009456870450
283562 15 18193558002484509768
3060560 45 17905317434275281829
350125 39 18336837506063150504
352729 6 18129100022311760787
474 4 17909551658002100665
589210 1 18409166614731709194
70251023 43 18199190779105689230
7164475 11 18340481252894814614
74978 22 18339645529795128084
7832392 63 18338517435360340306
81228 2 18189052160916080193
8272917 22 17692818086625542857
9981440 41 17840834629466174760

>  <PUBCHEM_SHAPE_MULTIPOLES>  (1) 
430.16
6.39
3.92
1.23
3.81
0.59
0.09
-1.67
0.67
-2.58
0.13
-1.02
0.13
-0.92

>  <PUBCHEM_SHAPE_SELFOVERLAP>  (1) 
945.278

>  <PUBCHEM_SHAPE_VOLUME>  (1) 
232.3

>  <PUBCHEM_COORDINATE_TYPE>  (1) 
2
5
10

$$$$
