38762
     RDKit          3D

 19 18  0  0  0  0  0  0  0  0999 V2000
   -7.7826   -0.4730   -0.0433 O   0  0  0  0  0  0  0  0  0  0  0  0
   -6.6738    1.5515   -0.0897 O   0  0  0  0  0  0  0  0  0  0  0  0
    2.2342   -0.4927    0.1001 C   0  0  0  0  0  0  0  0  0  0  0  0
    3.4896    0.3812    0.0686 C   0  0  0  0  0  0  0  0  0  0  0  0
    0.9652    0.3620    0.1282 C   0  0  0  0  0  0  0  0  0  0  0  0
    4.7916   -0.4236    0.0074 C   0  0  0  0  0  0  0  0  0  0  0  0
   -0.2927   -0.5098    0.1267 C   0  0  0  0  0  0  0  0  0  0  0  0
    6.0852    0.3967    0.0588 C   0  0  0  0  0  0  0  0  0  0  0  0
   -1.5599    0.3470    0.1208 C   0  0  0  0  0  0  0  0  0  0  0  0
    7.3491   -0.4580   -0.0619 C   0  0  0  0  0  0  0  0  0  0  0  0
   -2.8518   -0.4751    0.0872 C   0  0  0  0  0  0  0  0  0  0  0  0
    8.6422    0.3612   -0.0029 C   0  0  0  0  0  0  0  0  0  0  0  0
   -4.1568    0.3293    0.0575 C   0  0  0  0  0  0  0  0  0  0  0  0
    9.9032   -0.4817   -0.1980 C   0  0  0  0  0  0  0  0  0  0  0  0
   -5.4311   -0.5101    0.0816 C   0  0  0  0  0  0  0  0  0  0  0  0
   11.1589    0.3732   -0.1192 C   0  0  0  0  0  0  0  0  0  0  0  0
   -6.6798    0.3289   -0.0267 C   0  0  0  0  0  0  0  0  0  0  0  0
   -9.0371    0.2077   -0.1446 C   0  0  0  0  0  0  0  0  0  0  0  0
  -10.1537   -0.8145   -0.1505 C   0  0  0  0  0  0  0  0  0  0  0  0
  1 17  1  0
  1 18  1  0
  2 17  2  0
  3  4  1  0
  3  5  1  0
  4  6  1  0
  5  7  1  0
  6  8  1  0
  7  9  1  0
  8 10  1  0
  9 11  1  0
 10 12  1  0
 11 13  1  0
 12 14  1  0
 13 15  1  0
 14 16  1  0
 15 17  1  0
 18 19  1  0
M  END
>  <PUBCHEM_COMPOUND_CID>  (1) 
38762

>  <PUBCHEM_CONFORMER_RMSD>  (1) 
1.2

>  <PUBCHEM_CONFORMER_DIVERSEORDER>  (1) 
1
5
64
80
67
83
92
78
73
59
66
70
86
21
60
14
52
63
72
24
22
26
32
44
50
71
25
16
47
53
51
17
29
39
82
46
85
20
75
68
48
12
81
69
88
6
76
37
79
30
77
35
91
87
49
31
40
11
74
65
42
55
23
58
2
62
56
41
89
90
10
84
33
8
18
34
57
54
13
43
15
38
45
36
61
27
3
19
28
9
93
4
7

>  <PUBCHEM_MMFF94_PARTIAL_CHARGES>  (1) 
5
1 -0.43
15 0.06
17 0.66
18 0.28
2 -0.57

>  <PUBCHEM_EFFECTIVE_ROTOR_COUNT>  (1) 
15

>  <PUBCHEM_PHARMACOPHORE_FEATURES>  (1) 
2
1 16 hydrophobe
1 2 acceptor

>  <PUBCHEM_HEAVY_ATOM_COUNT>  (1) 
19

>  <PUBCHEM_ATOM_DEF_STEREO_COUNT>  (1) 
0

>  <PUBCHEM_ATOM_UDEF_STEREO_COUNT>  (1) 
0

>  <PUBCHEM_BOND_DEF_STEREO_COUNT>  (1) 
0

>  <PUBCHEM_BOND_UDEF_STEREO_COUNT>  (1) 
0

>  <PUBCHEM_ISOTOPIC_ATOM_COUNT>  (1) 
0

>  <PUBCHEM_COMPONENT_COUNT>  (1) 
1

>  <PUBCHEM_CACTVS_TAUTO_COUNT>  (1) 
1

>  <PUBCHEM_CONFORMER_ID>  (1) 
0000976A00000001

>  <PUBCHEM_MMFF94_ENERGY>  (1) 
0.5627

>  <PUBCHEM_FEATURE_SELFOVERLAP>  (1) 
10.148

>  <PUBCHEM_SHAPE_FINGERPRINT>  (1) 
14123256 10 18411138030321532937
14251764 46 15195567905454243086
14251920 1 18411982459583659419
14344974 52 18341328989587389312
15510794 2 18342462538699721462
21362267 2 17968648436774605380
232437 2 18343301466192604958
23521765 1 18341894090834057586
23581129 1 18409448089539582310
33684 2 10663820776059704866
67123 10 18410573993741392230
8209 1 18410573985151457651

>  <PUBCHEM_SHAPE_MULTIPOLES>  (1) 
379.27
43.49
0.89
0.62
20.34
0.09
0
-0.87
-3.48
-0.73
-0.01
0.07
-0.01
0.05

>  <PUBCHEM_SHAPE_SELFOVERLAP>  (1) 
688.243

>  <PUBCHEM_SHAPE_VOLUME>  (1) 
242.6

>  <PUBCHEM_COORDINATE_TYPE>  (1) 
2
5
10

$$$$
