38761
     RDKit          3D

 19 18  0  0  0  0  0  0  0  0999 V2000
   -7.5698   -0.2109   -0.0197 N   0  0  0  0  0  0  0  0  0  0  0  0
    7.5445   -0.2074   -0.0504 N   0  0  0  0  0  0  0  0  0  0  0  0
   -6.3921    0.6863   -0.0716 C   0  0  0  0  0  0  0  0  0  0  0  0
    6.3533    0.6752   -0.0788 C   0  0  0  0  0  0  0  0  0  0  0  0
   -5.0998   -0.1209   -0.0457 C   0  0  0  0  0  0  0  0  0  0  0  0
    5.0992   -0.1747    0.0706 C   0  0  0  0  0  0  0  0  0  0  0  0
   -3.8027    0.6966   -0.0422 C   0  0  0  0  0  0  0  0  0  0  0  0
    3.8407    0.6925   -0.0003 C   0  0  0  0  0  0  0  0  0  0  0  0
   -2.5060   -0.1137    0.0444 C   0  0  0  0  0  0  0  0  0  0  0  0
    2.5427   -0.1006    0.1766 C   0  0  0  0  0  0  0  0  0  0  0  0
   -1.2442    0.7477   -0.0376 C   0  0  0  0  0  0  0  0  0  0  0  0
    1.2823    0.7549    0.0317 C   0  0  0  0  0  0  0  0  0  0  0  0
    0.0173   -0.0992    0.1450 C   0  0  0  0  0  0  0  0  0  0  0  0
   -7.5773   -1.1748   -1.2154 C   0  0  0  0  0  0  0  0  0  0  0  0
   -7.5629   -1.0498    1.2666 C   0  0  0  0  0  0  0  0  0  0  0  0
   -8.8758    0.5968   -0.0530 C   0  0  0  0  0  0  0  0  0  0  0  0
    7.6030   -1.0046    1.2604 C   0  0  0  0  0  0  0  0  0  0  0  0
    7.5111   -1.2076   -1.2148 C   0  0  0  0  0  0  0  0  0  0  0  0
    8.8365    0.6143   -0.1657 C   0  0  0  0  0  0  0  0  0  0  0  0
  1  3  1  0
  1 14  1  0
  1 15  1  0
  1 16  1  0
  2  4  1  0
  2 17  1  0
  2 18  1  0
  2 19  1  0
  3  5  1  0
  4  6  1  0
  5  7  1  0
  6  8  1  0
  7  9  1  0
  8 10  1  0
  9 11  1  0
 10 12  1  0
 11 13  1  0
 12 13  1  0
M  CHG  2   1   1   2   1
M  END
>  <PUBCHEM_COMPOUND_CID>  (1) 
38761

>  <PUBCHEM_CONFORMER_RMSD>  (1) 
1

>  <PUBCHEM_CONFORMER_DIVERSEORDER>  (1) 
1
13
45
27
5
6
32
4
15
10
20
41
44
14
43
3
24
7
11
8
36
16
38
30
12
33
37
23
35
19
28
17
2
40
9
31
21
39
26
29
18
22
25
42
34

>  <PUBCHEM_MMFF94_PARTIAL_CHARGES>  (1) 
10
1 -1.01
14 0.5
15 0.5
16 0.5
17 0.5
18 0.5
19 0.5
2 -1.01
3 0.5
4 0.5

>  <PUBCHEM_EFFECTIVE_ROTOR_COUNT>  (1) 
12

>  <PUBCHEM_PHARMACOPHORE_FEATURES>  (1) 
2
1 1 cation
1 2 cation

>  <PUBCHEM_HEAVY_ATOM_COUNT>  (1) 
19

>  <PUBCHEM_ATOM_DEF_STEREO_COUNT>  (1) 
0

>  <PUBCHEM_ATOM_UDEF_STEREO_COUNT>  (1) 
0

>  <PUBCHEM_BOND_DEF_STEREO_COUNT>  (1) 
0

>  <PUBCHEM_BOND_UDEF_STEREO_COUNT>  (1) 
0

>  <PUBCHEM_ISOTOPIC_ATOM_COUNT>  (1) 
0

>  <PUBCHEM_COMPONENT_COUNT>  (1) 
1

>  <PUBCHEM_CACTVS_TAUTO_COUNT>  (1) 
1

>  <PUBCHEM_CONFORMER_ID>  (1) 
0000976900000001

>  <PUBCHEM_MMFF94_ENERGY>  (1) 
44.7719

>  <PUBCHEM_FEATURE_SELFOVERLAP>  (1) 
10.149

>  <PUBCHEM_SHAPE_FINGERPRINT>  (1) 
10066227 49 18201442415948163294
10299344 5 18410854360616540527
11135609 127 16371301034533978868
11315181 36 10737283546812427669
11638347 137 16128661826017399046
12091667 2 18413107269739842761
13885169 127 18202284676209093625
14123256 10 17894630352898899457
14251764 18 18335136483827447082
14251764 46 18410575088958059201
15690457 1 18060414733531229015
16120349 18 18261955250043601588
17093844 174 14476964493989796895
1754908 1 16486968513938528187
18006028 8 18410011039604319141
21095086 128 17917990590376267175
21150785 3 15791730801867234189
21315763 28 18411699885069427912
22224240 67 14620793803676897436
232437 2 18411419513893686815
23521765 1 18341894090839514225
246663 6 18410858758663058113
249057 3 17313107483505277838
28498 318 18202002109893705068
33532 11 18131070403300094558
33684 2 18187364324752338017
5283156 175 17846501417858484276
5758199 1 9727636107073905589
59682541 35 18341611542569242904
67123 10 17967534588465846404
8209 1 18333449845870098092

>  <PUBCHEM_SHAPE_MULTIPOLES>  (1) 
381.05
35.75
1.09
0.95
1.07
0.16
0.02
6.02
-1
0
-0.05
-0.01
0.37
0

>  <PUBCHEM_SHAPE_SELFOVERLAP>  (1) 
687.735

>  <PUBCHEM_SHAPE_VOLUME>  (1) 
249.2

>  <PUBCHEM_COORDINATE_TYPE>  (1) 
2
5
10

$$$$
