38775
     RDKit          3D

 14 15  0  0  0  0  0  0  0  0999 V2000
   -1.9410   -0.5478   -1.6090 S   0  0  0  0  0  0  0  0  0  0  0  0
   -2.0294   -0.2921    1.3828 S   0  0  0  0  0  0  0  0  0  0  0  0
    4.3762   -0.5484    0.0917 F   0  0  0  0  0  0  0  0  0  0  0  0
   -1.2070    0.3323   -0.1517 C   0  0  0  0  0  0  0  0  0  0  0  0
   -1.6374    1.8040   -0.2958 C   0  0  0  0  0  0  0  0  0  0  0  0
    0.3023    0.0943   -0.0859 C   0  0  0  0  0  0  0  0  0  0  0  0
   -3.0159   -1.6803   -0.6872 C   0  0  0  0  0  0  0  0  0  0  0  0
   -3.4906   -0.9789    0.5677 C   0  0  0  0  0  0  0  0  0  0  0  0
   -1.1228    2.6472    0.8554 C   0  0  0  0  0  0  0  0  0  0  0  0
    1.1734    0.9614   -0.7442 C   0  0  0  0  0  0  0  0  0  0  0  0
    0.8056   -0.9896    0.6326 C   0  0  0  0  0  0  0  0  0  0  0  0
    2.5500    0.7442   -0.6840 C   0  0  0  0  0  0  0  0  0  0  0  0
    2.1822   -1.2067    0.6929 C   0  0  0  0  0  0  0  0  0  0  0  0
    3.0544   -0.3397    0.0346 C   0  0  0  0  0  0  0  0  0  0  0  0
  1  4  1  0
  1  7  1  0
  2  4  1  0
  2  8  1  0
  3 14  1  0
  4  5  1  0
  4  6  1  0
  5  9  1  0
  6 10  2  0
  6 11  1  0
  7  8  1  0
 10 12  1  0
 11 13  2  0
 12 14  2  0
 13 14  1  0
M  END
>  <PUBCHEM_COMPOUND_CID>  (1) 
38775

>  <PUBCHEM_CONFORMER_RMSD>  (1) 
0.6

>  <PUBCHEM_CONFORMER_DIVERSEORDER>  (1) 
1
2
5
4
3
6

>  <PUBCHEM_MMFF94_PARTIAL_CHARGES>  (1) 
16
1 -0.46
10 -0.15
11 -0.15
12 -0.15
13 -0.15
14 0.19
2 -0.46
24 0.15
25 0.15
26 0.15
27 0.15
3 -0.19
4 0.6
6 -0.14
7 0.23
8 0.23

>  <PUBCHEM_EFFECTIVE_ROTOR_COUNT>  (1) 
3

>  <PUBCHEM_PHARMACOPHORE_FEATURES>  (1) 
3
1 9 hydrophobe
5 1 2 4 7 8 rings
6 6 10 11 12 13 14 rings

>  <PUBCHEM_HEAVY_ATOM_COUNT>  (1) 
14

>  <PUBCHEM_ATOM_DEF_STEREO_COUNT>  (1) 
0

>  <PUBCHEM_ATOM_UDEF_STEREO_COUNT>  (1) 
0

>  <PUBCHEM_BOND_DEF_STEREO_COUNT>  (1) 
0

>  <PUBCHEM_BOND_UDEF_STEREO_COUNT>  (1) 
0

>  <PUBCHEM_ISOTOPIC_ATOM_COUNT>  (1) 
0

>  <PUBCHEM_COMPONENT_COUNT>  (1) 
1

>  <PUBCHEM_CACTVS_TAUTO_COUNT>  (1) 
1

>  <PUBCHEM_CONFORMER_ID>  (1) 
0000977700000001

>  <PUBCHEM_MMFF94_ENERGY>  (1) 
36.7627

>  <PUBCHEM_FEATURE_SELFOVERLAP>  (1) 
15.223

>  <PUBCHEM_SHAPE_FINGERPRINT>  (1) 
11578080 2 17773290513754801737
12932764 1 17846491513695554810
13024252 1 17894633626154543937
13299463 15 17530674424999177383
13583140 156 16843007886084962586
15375462 189 18336550524906523107
15375462 478 18410578374623943029
15906896 17 18197496217218242901
16945 1 17822577242933370645
17844478 74 14764359253097622275
18186145 218 16878213251620035039
19868273 325 18343862221212042121
200 152 18261387875376618079
20201158 50 17603865628331350451
20361792 2 18129652131941644719
20525323 117 18409169874448402192
20671657 53 17603581941403998486
20871998 184 18201721700216596437
21296965 67 18340483473746087573
21524375 3 17621595008669466497
22112679 90 17987809638642783733
228727 97 18265066879885238436
2306618 200 17458620082061588397
23388829 49 18408606988940680204
23402539 116 18411132550333796430
23557571 272 17917714582697823248
25610 137 18188495786351659165
5084963 1 17022910072545988140
57812782 119 16877937282532967350
8030462 33 18259707787365429308

>  <PUBCHEM_SHAPE_MULTIPOLES>  (1) 
288.54
5.67
1.96
1.26
3.27
1.28
-0.1
-2.43
0.03
-1.03
0.28
-0.72
-0.1
-0.62

>  <PUBCHEM_SHAPE_SELFOVERLAP>  (1) 
574.927

>  <PUBCHEM_SHAPE_VOLUME>  (1) 
174.2

>  <PUBCHEM_COORDINATE_TYPE>  (1) 
2
5
10

$$$$
