3877
     RDKit          3D

 15 16  0  0  1  0  0  0  0  0999 V2000
    3.1083    1.2105    0.8261 S   0  0  0  0  0  0  0  0  0  0  0  0
    1.5826   -0.2071   -0.8157 O   0  0  0  0  0  0  0  0  0  0  0  0
    3.4345   -1.8073    0.5272 O   0  0  0  0  0  0  0  0  0  0  0  0
   -1.5640    2.3557   -0.3626 O   0  0  0  0  0  0  0  0  0  0  0  0
   -0.5835    0.2844   -0.1055 N   0  0  0  0  0  0  0  0  0  0  0  0
   -2.9578    0.5844   -0.0948 N   0  0  0  0  0  0  0  0  0  0  0  0
   -4.3804   -1.2343    0.1819 N   0  0  0  0  0  0  0  0  0  0  0  0
    0.7573    0.7899   -0.2028 C   0  0  0  0  0  0  0  0  0  0  0  0
    1.3433    1.1093    1.1646 C   0  0  0  0  0  0  0  0  0  0  0  0
    2.9500    0.2017   -0.6715 C   0  0  0  0  0  0  0  0  0  0  0  0
    3.8246   -1.0362   -0.5977 C   0  0  0  0  0  0  0  0  0  0  0  0
   -0.7489   -1.0684    0.0816 C   0  0  0  0  0  0  0  0  0  0  0  0
   -1.6945    1.1415   -0.1969 C   0  0  0  0  0  0  0  0  0  0  0  0
   -1.9552   -1.6232    0.1834 C   0  0  0  0  0  0  0  0  0  0  0  0
   -3.1162   -0.7010    0.0827 C   0  0  0  0  0  0  0  0  0  0  0  0
  1  9  1  0
  1 10  1  0
  2  8  1  0
  2 10  1  0
  3 11  1  0
  4 13  2  0
  5  8  1  0
  5 12  1  0
  5 13  1  0
  6 13  1  0
  6 15  2  0
  7 15  1  0
  8  9  1  0
 10 11  1  0
 12 14  2  0
 14 15  1  0
M  END
>  <PUBCHEM_COMPOUND_CID>  (1) 
3877

>  <PUBCHEM_CONFORMER_RMSD>  (1) 
0.6

>  <PUBCHEM_CONFORMER_DIVERSEORDER>  (1) 
2
31
7
30
6
34
16
22
20
25
11
33
26
4
23
12
24
9
15
29
28
10
21
27
5
13
18
8
1
32
14
19
17
3

>  <PUBCHEM_MMFF94_PARTIAL_CHARGES>  (1) 
20
1 -0.46
10 0.51
11 0.28
12 -0.04
13 0.84
14 -0.14
15 0.49
2 -0.56
22 0.15
23 0.15
24 0.4
25 0.4
26 0.4
3 -0.68
4 -0.57
5 -0.47
6 -0.66
7 -0.85
8 0.58
9 0.23

>  <PUBCHEM_EFFECTIVE_ROTOR_COUNT>  (1) 
3

>  <PUBCHEM_PHARMACOPHORE_FEATURES>  (1) 
8
1 2 acceptor
1 3 acceptor
1 3 donor
1 4 acceptor
1 6 donor
1 7 donor
5 1 2 8 9 10 rings
6 5 6 12 13 14 15 rings

>  <PUBCHEM_HEAVY_ATOM_COUNT>  (1) 
15

>  <PUBCHEM_ATOM_DEF_STEREO_COUNT>  (1) 
0

>  <PUBCHEM_ATOM_UDEF_STEREO_COUNT>  (1) 
2

>  <PUBCHEM_BOND_DEF_STEREO_COUNT>  (1) 
0

>  <PUBCHEM_BOND_UDEF_STEREO_COUNT>  (1) 
0

>  <PUBCHEM_ISOTOPIC_ATOM_COUNT>  (1) 
0

>  <PUBCHEM_COMPONENT_COUNT>  (1) 
1

>  <PUBCHEM_CACTVS_TAUTO_COUNT>  (1) 
3

>  <PUBCHEM_CONFORMER_ID>  (1) 
00000F2500000002

>  <PUBCHEM_MMFF94_ENERGY>  (1) 
40.1963

>  <PUBCHEM_FEATURE_SELFOVERLAP>  (1) 
40.646

>  <PUBCHEM_SHAPE_FINGERPRINT>  (1) 
10465860 250 18200305521035097754
10608611 8 18342452655837386024
10618630 7 18335139833965202359
11769659 78 18335981995595255838
12032990 46 18336270149562713859
12716758 59 18337387149812055064
12932764 1 17989202685467867484
13296908 3 18411135852847012372
13581323 91 18407758148937012300
14144814 61 18410012122025267842
14252887 29 18265617769707240051
14993402 34 16660364804884388599
15219456 202 18201433701095048120
15375462 6 18338516455949885684
15653759 3 18411981360214527952
16945 1 18335138734390290485
17804303 29 18340773658605322662
17834074 16 18411981373199604650
18186145 218 18342461400343093968
19049666 15 18271801272846880240
200 152 17274814753775204381
20201158 50 18130793334606148174
20279233 1 18340767147482277250
20281407 28 18339367464705867938
20281475 54 18340494468530094871
20510252 161 18413670214538850393
20645477 70 18202283623556997518
20871998 22 18338236089058770153
21501502 16 18341337729571763728
23402539 116 18343297085579099511
23463225 33 18335141964411548990
23557571 272 18187918512941392276
23559900 14 18411133628560537204
2748010 2 18412535513985438245
31174 14 17988638665872664128
3286 77 17632295709291399721
474 4 16445049741168246900
5104073 3 18412546504722028648
69090 78 18059852921876250247
7364860 26 18194124242436231444
76465 3 18272922843258136943
77492 1 16950277412267527336
8030462 33 14562524055565694932
81228 2 18260830418876590905
8809292 202 18412268302716124962
9709674 26 18410863148505328342

>  <PUBCHEM_SHAPE_MULTIPOLES>  (1) 
279.99
7.02
1.91
0.87
0.64
0.17
-0.09
-2.54
-0.19
-0.02
-0.11
-0.55
0.11
0.63

>  <PUBCHEM_SHAPE_SELFOVERLAP>  (1) 
572.599

>  <PUBCHEM_SHAPE_VOLUME>  (1) 
163.5

>  <PUBCHEM_COORDINATE_TYPE>  (1) 
2
5
10

$$$$
