38778
     RDKit          3D

 30 32  0  0  0  0  0  0  0  0999 V2000
   -0.5625    0.9445   -1.8090 Cl  0  0  0  0  0  0  0  0  0  0  0  0
   -1.2384   -1.6448   -0.4384 O   0  0  0  0  0  0  0  0  0  0  0  0
   -6.2268    1.6841    1.6676 O   0  0  0  0  0  0  0  0  0  0  0  0
    4.1154   -0.1310    0.0211 N   0  0  0  0  0  0  0  0  0  0  0  0
    5.8520    1.4223    0.9141 N   0  0  0  0  0  0  0  0  0  0  0  0
    6.2975    0.0017   -0.9170 N   0  0  0  0  0  0  0  0  0  0  0  0
    4.7672   -1.4978   -1.7946 N   0  0  0  0  0  0  0  0  0  0  0  0
    7.8921    1.5460   -0.1555 N   0  0  0  0  0  0  0  0  0  0  0  0
   -5.7849    2.2134   -0.5660 N   0  0  0  0  0  0  0  0  0  0  0  0
    4.5089    0.8338    1.0728 C   0  0  0  0  0  0  0  0  0  0  0  0
    3.5535    2.0421    1.1137 C   0  0  0  0  0  0  0  0  0  0  0  0
    4.5328    0.1501    2.4509 C   0  0  0  0  0  0  0  0  0  0  0  0
    2.7619   -0.5064   -0.0991 C   0  0  0  0  0  0  0  0  0  0  0  0
    5.0940   -0.5109   -0.8917 C   0  0  0  0  0  0  0  0  0  0  0  0
    6.6398    0.9949   -0.0235 C   0  0  0  0  0  0  0  0  0  0  0  0
    1.8540    0.2975   -0.8089 C   0  0  0  0  0  0  0  0  0  0  0  0
    2.2918   -1.6931    0.4885 C   0  0  0  0  0  0  0  0  0  0  0  0
    0.0643   -1.2560   -0.3382 C   0  0  0  0  0  0  0  0  0  0  0  0
    0.5148   -0.0746   -0.9276 C   0  0  0  0  0  0  0  0  0  0  0  0
    0.9529   -2.0651    0.3700 C   0  0  0  0  0  0  0  0  0  0  0  0
   -1.9634   -1.7989    0.7795 C   0  0  0  0  0  0  0  0  0  0  0  0
   -3.4167   -1.5287    0.5220 C   0  0  0  0  0  0  0  0  0  0  0  0
   -3.9113   -0.2361    0.6556 C   0  0  0  0  0  0  0  0  0  0  0  0
   -5.2626    0.0144    0.4171 C   0  0  0  0  0  0  0  0  0  0  0  0
   -4.2560   -2.5740    0.1530 C   0  0  0  0  0  0  0  0  0  0  0  0
   -6.1106   -1.0294    0.0464 C   0  0  0  0  0  0  0  0  0  0  0  0
   -5.6073   -2.3235   -0.0858 C   0  0  0  0  0  0  0  0  0  0  0  0
   -5.7882    1.3634    0.5550 C   0  0  0  0  0  0  0  0  0  0  0  0
   -6.3082    3.5711   -0.5110 C   0  0  0  0  0  0  0  0  0  0  0  0
   -5.2560    1.7910   -1.8610 C   0  0  0  0  0  0  0  0  0  0  0  0
  1 19  1  0
  2 18  1  0
  2 21  1  0
  3 28  2  0
  4 10  1  0
  4 13  1  0
  4 14  1  0
  5 10  1  0
  5 15  2  0
  6 14  2  0
  6 15  1  0
  7 14  1  0
  8 15  1  0
  9 28  1  0
  9 29  1  0
  9 30  1  0
 10 11  1  0
 10 12  1  0
 13 16  2  0
 13 17  1  0
 16 19  1  0
 17 20  2  0
 18 19  2  0
 18 20  1  0
 21 22  1  0
 22 23  2  0
 22 25  1  0
 23 24  1  0
 24 26  2  0
 24 28  1  0
 25 27  2  0
 26 27  1  0
M  END
>  <PUBCHEM_COMPOUND_CID>  (1) 
38778

>  <PUBCHEM_CONFORMER_RMSD>  (1) 
1

>  <PUBCHEM_CONFORMER_DIVERSEORDER>  (1) 
1
155
90
6
377
484
265
290
599
416
521
9
347
534
535
391
525
238
426
586
559
108
80
209
435
67
427
81
292
461
79
355
322
577
13
183
21
56
39
337
441
367
456
152
163
143
455
53
168
582
60
389
38
576
58
348
88
309
318
94
3
269
473
169
10
114
414
336
466
354
307
243
253
46
470
467
476
102
158
480
351
234
488
184
113
613
346
335
449
179
31
279
35
472
78
112
257
2
295
244
448
196
532
43
55
561
299
623
15
502
64
404
95
200
490
296
54
205
230
104
531
5
63
41
560
207
312
4
342
603
276
167
421
443
83
182
192
246
229
189
37
89
14
30
361
126
62
430
127
146
566
190
518
7
20
120
172
311
517
524
153
204
57
25
11
121
85
293
8
16
383
252
352
177
117
47
52
42
34
75
51
27
494
358
65
24
92
26
49
198
23

>  <PUBCHEM_MMFF94_PARTIAL_CHARGES>  (1) 
39
1 -0.18
10 0.62
13 0.1
14 0.55
15 0.71
16 -0.15
17 -0.15
18 0.08
19 0.18
2 -0.36
20 -0.15
21 0.42
22 -0.14
23 -0.15
24 0.09
25 -0.15
26 -0.15
27 -0.15
28 0.54
29 0.3
3 -0.57
30 0.3
37 0.15
38 0.15
39 0.15
4 -0.52
40 0.4
41 0.4
44 0.4
45 0.4
46 0.15
47 0.15
48 0.15
49 0.15
5 -0.7
6 -0.66
7 -0.85
8 -0.85
9 -0.66

>  <PUBCHEM_EFFECTIVE_ROTOR_COUNT>  (1) 
6.4

>  <PUBCHEM_PHARMACOPHORE_FEATURES>  (1) 
10
1 2 acceptor
1 3 acceptor
1 7 donor
1 8 donor
3 10 11 12 hydrophobe
4 4 6 7 14 cation
4 5 6 8 15 cation
6 13 16 17 18 19 20 rings
6 22 23 24 25 26 27 rings
6 4 5 6 10 14 15 rings

>  <PUBCHEM_HEAVY_ATOM_COUNT>  (1) 
30

>  <PUBCHEM_ATOM_DEF_STEREO_COUNT>  (1) 
0

>  <PUBCHEM_ATOM_UDEF_STEREO_COUNT>  (1) 
0

>  <PUBCHEM_BOND_DEF_STEREO_COUNT>  (1) 
0

>  <PUBCHEM_BOND_UDEF_STEREO_COUNT>  (1) 
0

>  <PUBCHEM_ISOTOPIC_ATOM_COUNT>  (1) 
0

>  <PUBCHEM_COMPONENT_COUNT>  (1) 
1

>  <PUBCHEM_CACTVS_TAUTO_COUNT>  (1) 
5

>  <PUBCHEM_CONFORMER_ID>  (1) 
0000977A00000001

>  <PUBCHEM_MMFF94_ENERGY>  (1) 
125.2254

>  <PUBCHEM_FEATURE_SELFOVERLAP>  (1) 
50.782

>  <PUBCHEM_SHAPE_FINGERPRINT>  (1) 
10 15 18040718048304079953
10674148 151 18335420206353766624
10763959 59 18272092725143428344
10906281 52 17386020476389598630
11796584 16 12973870525087590763
11991303 11 16128649795196799181
12422481 6 17749380417573819327
12633257 1 16950563337115453275
12664476 115 18202564016502331219
13383665 225 18114765780338061940
14118638 360 18334570244768470675
14466204 15 18334009506347926297
14856354 85 16877949373140725507
14933364 13 18130794489857522050
14950920 106 15502958388902338285
14951699 99 18259982635186730521
15183329 4 17676205788446906847
19377110 9 16515681135137577454
20511986 3 18335129861631539379
21033648 144 18342458106783322327
21033648 29 18201993369688103074
21279426 13 18272376342992145858
23522609 53 17313685809684420708
23559900 14 18202568358350491267
23569914 2 17270270488976347241
24771293 8 18187369878482980980
2838139 119 16774080669869279097
4073 2 18335146444200290554
5104073 3 18187645774176017251
552612 73 18262798450200588022
58083652 198 15430037711768027767
6328613 192 17969230099820354436
636775 72 18335984285029635144
7226269 152 18410013209084913313

>  <PUBCHEM_SHAPE_MULTIPOLES>  (1) 
577.63
21.07
2.93
1.53
4.12
0.95
0.12
11.1
1.53
-5.53
-0.08
0.93
0.45
1.47

>  <PUBCHEM_SHAPE_SELFOVERLAP>  (1) 
1224.155

>  <PUBCHEM_SHAPE_VOLUME>  (1) 
323.8

>  <PUBCHEM_COORDINATE_TYPE>  (1) 
2
5
10

$$$$
