38782
     RDKit          3D

 17 18  0  0  0  0  0  0  0  0999 V2000
    6.5099    0.7484    0.1279 Br  0  0  0  0  0  0  0  0  0  0  0  0
   -5.0167    1.1892    0.2369 O   0  0  0  0  0  0  0  0  0  0  0  0
   -4.5335   -1.0069   -0.1804 O   0  0  0  0  0  0  0  0  0  0  0  0
   -0.4514    0.4913    0.0935 N   0  0  0  0  0  0  0  0  0  0  0  0
   -1.5313   -1.4158   -0.2650 N   0  0  0  0  0  0  0  0  0  0  0  0
   -2.8258    0.5821    0.1168 N   0  0  0  0  0  0  0  0  0  0  0  0
    0.5117   -0.4582   -0.0881 C   0  0  0  0  0  0  0  0  0  0  0  0
    1.9252   -0.1739   -0.0376 C   0  0  0  0  0  0  0  0  0  0  0  0
   -1.6634   -0.1308   -0.0215 C   0  0  0  0  0  0  0  0  0  0  0  0
   -0.1757   -1.6261   -0.3071 C   0  0  0  0  0  0  0  0  0  0  0  0
    2.8192   -1.1555    0.3897 C   0  0  0  0  0  0  0  0  0  0  0  0
    2.3978    1.0829   -0.4156 C   0  0  0  0  0  0  0  0  0  0  0  0
    4.1858   -0.8804    0.4389 C   0  0  0  0  0  0  0  0  0  0  0  0
    3.7644    1.3580   -0.3664 C   0  0  0  0  0  0  0  0  0  0  0  0
    4.6584    0.3763    0.0609 C   0  0  0  0  0  0  0  0  0  0  0  0
   -4.1602    0.1395    0.0363 C   0  0  0  0  0  0  0  0  0  0  0  0
   -6.4142    0.8801    0.1809 C   0  0  0  0  0  0  0  0  0  0  0  0
  1 15  1  0
  2 16  1  0
  2 17  1  0
  3 16  2  0
  4  7  1  0
  4  9  1  0
  5  9  2  0
  5 10  1  0
  6  9  1  0
  6 16  1  0
  7  8  1  0
  7 10  2  0
  8 11  2  0
  8 12  1  0
 11 13  1  0
 12 14  2  0
 13 15  2  0
 14 15  1  0
M  END
>  <PUBCHEM_COMPOUND_CID>  (1) 
38782

>  <PUBCHEM_CONFORMER_RMSD>  (1) 
0.6

>  <PUBCHEM_CONFORMER_DIVERSEORDER>  (1) 
1
4
2
3

>  <PUBCHEM_MMFF94_PARTIAL_CHARGES>  (1) 
24
1 -0.11
10 0.08
11 -0.15
12 -0.15
13 -0.15
14 -0.15
15 0.11
16 0.78
17 0.28
18 0.27
19 0.15
2 -0.43
20 0.15
21 0.15
22 0.15
23 0.15
24 0.37
3 -0.57
4 0.03
5 -0.57
6 -0.49
7 -0.2
8 0.05
9 0.25

>  <PUBCHEM_EFFECTIVE_ROTOR_COUNT>  (1) 
4

>  <PUBCHEM_PHARMACOPHORE_FEATURES>  (1) 
6
1 1 hydrophobe
1 3 acceptor
1 4 donor
1 6 donor
5 4 5 7 9 10 rings
6 8 11 12 13 14 15 rings

>  <PUBCHEM_HEAVY_ATOM_COUNT>  (1) 
17

>  <PUBCHEM_ATOM_DEF_STEREO_COUNT>  (1) 
0

>  <PUBCHEM_ATOM_UDEF_STEREO_COUNT>  (1) 
0

>  <PUBCHEM_BOND_DEF_STEREO_COUNT>  (1) 
0

>  <PUBCHEM_BOND_UDEF_STEREO_COUNT>  (1) 
0

>  <PUBCHEM_ISOTOPIC_ATOM_COUNT>  (1) 
0

>  <PUBCHEM_COMPONENT_COUNT>  (1) 
1

>  <PUBCHEM_CACTVS_TAUTO_COUNT>  (1) 
5

>  <PUBCHEM_CONFORMER_ID>  (1) 
0000977E00000001

>  <PUBCHEM_MMFF94_ENERGY>  (1) 
33.1271

>  <PUBCHEM_FEATURE_SELFOVERLAP>  (1) 
30.481

>  <PUBCHEM_SHAPE_FINGERPRINT>  (1) 
10354089 29 18186803578248988872
10688039 33 17385723560625950428
11089746 13 18201432614700437208
12107183 9 17615966612819802209
12236239 1 18411417324008849154
13167372 99 18339925892470677113
13533116 47 17489307426403644814
13785724 45 17689432681359451754
1420 363 11025796492355929904
14251764 18 18333448759454284427
14350574 20 10519987067197465850
15048467 5 18411981377795382240
15188451 53 15647629972732174097
17834076 25 18060700593922593720
187816 3 16558751213110669523
20281389 69 18335137574723097625
20645477 56 18342455967346328798
20645477 70 18339643344037056926
21150785 3 16056874750041227341
21267235 1 18262238812284337866
212847 35 18342737407763081592
22224240 67 15213301958584792064
23402539 116 18131626802963860405
23402655 69 18272086101907991598
23559900 14 17917424371826165616
26918003 58 17458346359759316536
293599 30 18341894095150136890
300161 21 18413384341198720867
335352 9 18410575098365665268
3545911 37 18410856568773043118
4047638 21 18410576180407318558
4214541 1 18409448115604902127
42788 4 18410855464428403849
4325135 7 18343580772653878287
4340502 62 16805042908770179842
5104073 3 18261670471244653394
542803 24 18131349708785102596
59755656 520 17749104517169740603
8272917 22 18337955597614109822

>  <PUBCHEM_SHAPE_MULTIPOLES>  (1) 
329.11
14.7
1.44
0.66
7.89
0.2
0
-5.69
1.39
-0.1
-0.07
-0.2
0
-0.53

>  <PUBCHEM_SHAPE_SELFOVERLAP>  (1) 
689.098

>  <PUBCHEM_SHAPE_VOLUME>  (1) 
191.4

>  <PUBCHEM_COORDINATE_TYPE>  (1) 
2
5
10

$$$$
