38780
     RDKit          3D

 20 21  0  0  1  0  0  0  0  0999 V2000
   -2.9728   -0.0677    0.8241 O   0  0  0  0  0  0  0  0  0  0  0  0
   -2.1859    1.9876    0.1977 O   0  0  0  0  0  0  0  0  0  0  0  0
    1.8593   -2.2202    0.2334 O   0  0  0  0  0  0  0  0  0  0  0  0
    1.9794   -1.2191   -1.8360 O   0  0  0  0  0  0  0  0  0  0  0  0
   -0.7776    0.0029   -0.0706 C   0  0  0  0  0  0  0  0  0  0  0  0
   -1.0059   -1.3163    0.6743 C   0  0  0  0  0  0  0  0  0  0  0  0
   -2.5154   -1.4233    0.7407 C   0  0  0  0  0  0  0  0  0  0  0  0
   -0.8709   -0.2043   -1.5952 C   0  0  0  0  0  0  0  0  0  0  0  0
    0.5118    0.6749    0.3993 C   0  0  0  0  0  0  0  0  0  0  0  0
   -2.0226    0.7826    0.3244 C   0  0  0  0  0  0  0  0  0  0  0  0
   -3.0080   -2.2044    1.9451 C   0  0  0  0  0  0  0  0  0  0  0  0
    1.7593    0.1100    0.1312 C   0  0  0  0  0  0  0  0  0  0  0  0
    0.4285    1.8745    1.1073 C   0  0  0  0  0  0  0  0  0  0  0  0
   -0.7255    1.0928   -2.3282 C   0  0  0  0  0  0  0  0  0  0  0  0
    2.9217    0.7441    0.5702 C   0  0  0  0  0  0  0  0  0  0  0  0
    1.5908    2.5086    1.5462 C   0  0  0  0  0  0  0  0  0  0  0  0
    1.8764   -1.1409   -0.6059 C   0  0  0  0  0  0  0  0  0  0  0  0
    2.8373    1.9434    1.2777 C   0  0  0  0  0  0  0  0  0  0  0  0
   -1.6486    1.5867   -3.1610 C   0  0  0  0  0  0  0  0  0  0  0  0
    1.9690   -3.5118   -0.3746 C   0  0  0  0  0  0  0  0  0  0  0  0
  1  7  1  0
  1 10  1  0
  2 10  2  0
  3 17  1  0
  3 20  1  0
  4 17  2  0
  5  6  1  0
  5  8  1  0
  5  9  1  0
  5 10  1  0
  6  7  1  0
  7 11  1  0
  8 14  1  0
  9 12  2  0
  9 13  1  0
 12 15  1  0
 12 17  1  0
 13 16  2  0
 14 19  2  0
 15 18  2  0
 16 18  1  0
M  END
>  <PUBCHEM_COMPOUND_CID>  (1) 
38780

>  <PUBCHEM_CONFORMER_RMSD>  (1) 
0.8

>  <PUBCHEM_CONFORMER_DIVERSEORDER>  (1) 
1
23
15
20
26
18
27
31
39
13
17
34
41
24
36
42
10
9
37
32
22
30
38
4
8
14
2
28
40
35
5
33
29
25
19
11
7
12
21
16
3
6

>  <PUBCHEM_MMFF94_PARTIAL_CHARGES>  (1) 
25
1 -0.43
10 0.66
12 0.09
13 -0.15
14 -0.29
15 -0.15
16 -0.15
17 0.63
18 -0.15
19 -0.3
2 -0.57
20 0.28
29 0.15
3 -0.43
30 0.15
31 0.15
32 0.15
33 0.15
34 0.15
35 0.15
4 -0.57
5 0.2
7 0.28
8 0.14
9 -0.14

>  <PUBCHEM_EFFECTIVE_ROTOR_COUNT>  (1) 
5.8

>  <PUBCHEM_PHARMACOPHORE_FEATURES>  (1) 
5
1 19 hydrophobe
1 2 acceptor
1 4 acceptor
5 1 5 6 7 10 rings
6 9 12 13 15 16 18 rings

>  <PUBCHEM_HEAVY_ATOM_COUNT>  (1) 
20

>  <PUBCHEM_ATOM_DEF_STEREO_COUNT>  (1) 
0

>  <PUBCHEM_ATOM_UDEF_STEREO_COUNT>  (1) 
2

>  <PUBCHEM_BOND_DEF_STEREO_COUNT>  (1) 
0

>  <PUBCHEM_BOND_UDEF_STEREO_COUNT>  (1) 
0

>  <PUBCHEM_ISOTOPIC_ATOM_COUNT>  (1) 
0

>  <PUBCHEM_COMPONENT_COUNT>  (1) 
1

>  <PUBCHEM_CACTVS_TAUTO_COUNT>  (1) 
1

>  <PUBCHEM_CONFORMER_ID>  (1) 
0000977C00000001

>  <PUBCHEM_MMFF94_ENERGY>  (1) 
69.7105

>  <PUBCHEM_FEATURE_SELFOVERLAP>  (1) 
25.371

>  <PUBCHEM_SHAPE_FINGERPRINT>  (1) 
107951 10 15535915892761350558
11578080 2 18187934910910140532
11640471 11 16415192416346340408
12423570 1 7825842768869384725
12788726 201 17263581906678468210
13294875 104 16745596519565751765
14004458 79 16733807788269104663
14142880 1 16401953467535637792
14817 1 16185256235480985348
14863182 85 17761798533884833603
15309172 13 17983007049035501808
15852999 172 17827597505646494828
16945 1 18262256459555565473
19049666 15 18339367366111524593
20600515 1 17170952840937074355
20645476 183 16611429644505985646
21756936 100 16695273414583381720
22112679 90 16733270135551957941
23419403 2 18192136118895495167
23526113 38 17614811073338498070
23557571 272 17604140501906014047
23559900 14 18335430066279885767
2748010 2 18272094859451809616
298252 57 15193343721911123144
3286 77 18194680363475366165
430814 3 16772124754478640610
5845 1 13265445521432829122
68419 9 16199568303440772037
81228 2 17894629253957003365
9981440 41 17693605594047643216

>  <PUBCHEM_SHAPE_MULTIPOLES>  (1) 
388.11
4.34
3.16
2.29
0.31
2.15
-1.7
0.29
2.16
-0.96
-0.17
1.06
-1.04
2.46

>  <PUBCHEM_SHAPE_SELFOVERLAP>  (1) 
826.619

>  <PUBCHEM_SHAPE_VOLUME>  (1) 
216.8

>  <PUBCHEM_COORDINATE_TYPE>  (1) 
2
5
10

$$$$
