3880
     RDKit          3D

 25 25  0  0  0  0  0  0  0  0999 V2000
    4.9551   -2.3646    0.8749 O   0  0  0  0  0  0  0  0  0  0  0  0
    2.7944    1.3993   -2.5251 O   0  0  0  0  0  0  0  0  0  0  0  0
   -0.7929   -2.7419    1.0169 C   0  0  0  0  0  0  0  0  0  0  0  0
   -2.0444   -2.3747    0.2089 C   0  0  0  0  0  0  0  0  0  0  0  0
    0.2901   -1.6589    0.9738 C   0  0  0  0  0  0  0  0  0  0  0  0
   -2.5180    2.8331   -0.1463 C   0  0  0  0  0  0  0  0  0  0  0  0
   -3.4458    1.6394    0.0886 C   0  0  0  0  0  0  0  0  0  0  0  0
   -3.1581   -3.4266    0.2106 C   0  0  0  0  0  0  0  0  0  0  0  0
    1.5431   -2.0154    1.7853 C   0  0  0  0  0  0  0  0  0  0  0  0
   -1.2141    2.7597    0.6539 C   0  0  0  0  0  0  0  0  0  0  0  0
   -4.7675    1.8084   -0.6699 C   0  0  0  0  0  0  0  0  0  0  0  0
   -4.3567   -3.0400   -0.6603 C   0  0  0  0  0  0  0  0  0  0  0  0
   -0.2773    3.9650    0.5238 C   0  0  0  0  0  0  0  0  0  0  0  0
   -5.7185    0.6195   -0.4923 C   0  0  0  0  0  0  0  0  0  0  0  0
    2.6372   -0.9398    1.7668 C   0  0  0  0  0  0  0  0  0  0  0  0
    1.0311    3.8106    1.2998 C   0  0  0  0  0  0  0  0  0  0  0  0
   -4.9700   -1.7562   -0.1804 C   0  0  0  0  0  0  0  0  0  0  0  0
   -5.1082   -0.6709   -0.9557 C   0  0  0  0  0  0  0  0  0  0  0  0
    3.2824   -0.7071    0.4265 C   0  0  0  0  0  0  0  0  0  0  0  0
    1.9158    5.0381    1.1427 C   0  0  0  0  0  0  0  0  0  0  0  0
    4.4110   -1.4320    0.0438 C   0  0  0  0  0  0  0  0  0  0  0  0
    2.7390    0.2443   -0.4365 C   0  0  0  0  0  0  0  0  0  0  0  0
    3.3239    0.4708   -1.6824 C   0  0  0  0  0  0  0  0  0  0  0  0
    4.9961   -1.2056   -1.2021 C   0  0  0  0  0  0  0  0  0  0  0  0
    4.4525   -0.2542   -2.0652 C   0  0  0  0  0  0  0  0  0  0  0  0
  1 21  1  0
  2 23  1  0
  3  4  1  0
  3  5  1  0
  4  8  1  0
  5  9  1  0
  6  7  1  0
  6 10  1  0
  7 11  1  0
  8 12  1  0
  9 15  1  0
 10 13  1  0
 11 14  1  0
 12 17  1  0
 13 16  1  0
 14 18  1  0
 15 19  1  0
 16 20  1  0
 17 18  2  0
 19 21  2  0
 19 22  1  0
 21 24  1  0
 22 23  2  0
 23 25  1  0
 24 25  2  0
M  END
>  <PUBCHEM_COMPOUND_CID>  (1) 
3880

>  <PUBCHEM_CONFORMER_RMSD>  (1) 
1.8

>  <PUBCHEM_CONFORMER_DIVERSEORDER>  (1) 
1
15
82
3
69
70
5
2
47
87
54
32
13
77
46
20
25
35
11
85
59
26
45
6
60
75
37
71
7
84
56
49
52
73
21
8
83
57
34
23
66
29
74
12
39
80
86
64
16
44
36
67
28
17
30
27
65
38
53
61
33
55
79
14
48
40
18
78
41
42
9
68
62
31
81
88
51
10
24
58
76
43
22
63
4
19
72
50

>  <PUBCHEM_MMFF94_PARTIAL_CHARGES>  (1) 
20
1 -0.53
12 0.14
14 0.14
15 0.14
17 -0.29
18 -0.29
19 -0.14
2 -0.53
21 0.08
22 -0.15
23 0.08
24 -0.15
25 -0.15
54 0.15
55 0.15
59 0.15
60 0.15
61 0.15
62 0.45
63 0.45

>  <PUBCHEM_EFFECTIVE_ROTOR_COUNT>  (1) 
15

>  <PUBCHEM_PHARMACOPHORE_FEATURES>  (1) 
4
1 1 donor
1 2 donor
1 20 hydrophobe
6 19 21 22 23 24 25 rings

>  <PUBCHEM_HEAVY_ATOM_COUNT>  (1) 
25

>  <PUBCHEM_ATOM_DEF_STEREO_COUNT>  (1) 
0

>  <PUBCHEM_ATOM_UDEF_STEREO_COUNT>  (1) 
0

>  <PUBCHEM_BOND_DEF_STEREO_COUNT>  (1) 
0

>  <PUBCHEM_BOND_UDEF_STEREO_COUNT>  (1) 
1

>  <PUBCHEM_ISOTOPIC_ATOM_COUNT>  (1) 
0

>  <PUBCHEM_COMPONENT_COUNT>  (1) 
1

>  <PUBCHEM_CACTVS_TAUTO_COUNT>  (1) 
22

>  <PUBCHEM_CONFORMER_ID>  (1) 
00000F2800000001

>  <PUBCHEM_MMFF94_ENERGY>  (1) 
19.783

>  <PUBCHEM_FEATURE_SELFOVERLAP>  (1) 
20.297

>  <PUBCHEM_SHAPE_FINGERPRINT>  (1) 
10429389 16 17771641061102088510
10670039 82 18335699421218252567
10864689 126 18195799674955676337
11513181 2 17840858891799388647
12788726 201 18337681823138636310
14251757 5 18408609175601650031
14647877 51 18268986669103588425
14840074 17 17677058945504182591
15297060 5 18128253381431731667
15326923 133 18200020888793798945
15420108 30 17182774377732076610
17138139 8 18334299755747812660
17818456 19 18264762164909450650
444735 86 17909536595788878349
463206 1 18337112272248242913

>  <PUBCHEM_SHAPE_MULTIPOLES>  (1) 
502.75
12.5
6.04
1.76
5.74
6.82
0.51
-6.21
5.52
1.61
-2.74
-2.48
0.02
-0.04

>  <PUBCHEM_SHAPE_SELFOVERLAP>  (1) 
974.125

>  <PUBCHEM_SHAPE_VOLUME>  (1) 
304.1

>  <PUBCHEM_COORDINATE_TYPE>  (1) 
2
5
10

$$$$
