38835
     RDKit          3D

 20 20  0  0  1  0  0  0  0  0999 V2000
   -2.7298   -1.2413   -0.9285 S   0  0  0  0  0  0  0  0  0  0  0  0
   -3.8831   -0.0862    0.3895 P   0  0  0  0  0  0  0  0  0  0  0  0
   -3.3080    1.4257    0.5148 O   0  0  0  0  0  0  0  0  0  0  0  0
    3.7771    2.5299    0.4878 O   0  0  0  0  0  0  0  0  0  0  0  0
   -3.9802   -0.7565    1.7345 O   0  0  0  0  0  0  0  0  0  0  0  0
    1.1511   -2.3557   -0.2607 N   0  0  0  0  0  0  0  0  0  0  0  0
   -0.1513   -2.2324   -0.9598 C   0  0  0  0  0  0  0  0  0  0  0  0
    1.8769   -1.0044   -0.0531 C   0  0  0  0  0  0  0  0  0  0  0  0
    0.9358   -2.9741    1.1335 C   0  0  0  0  0  0  0  0  0  0  0  0
    2.0952   -3.2577   -1.0779 C   0  0  0  0  0  0  0  0  0  0  0  0
   -1.1226   -1.4113   -0.1278 C   0  0  0  0  0  0  0  0  0  0  0  0
    1.6251   -0.0470   -0.9665 C   0  0  0  0  0  0  0  0  0  0  0  0
    2.6881   -0.9218    1.0187 C   0  0  0  0  0  0  0  0  0  0  0  0
    2.2798    1.1705   -0.7806 C   0  0  0  0  0  0  0  0  0  0  0  0
    3.3428    0.2958    1.2046 C   0  0  0  0  0  0  0  0  0  0  0  0
    3.1386    1.3420    0.3050 C   0  0  0  0  0  0  0  0  0  0  0  0
   -5.5107    0.1365   -0.3289 C   0  0  0  0  0  0  0  0  0  0  0  0
   -3.1496    2.2432   -0.6308 C   0  0  0  0  0  0  0  0  0  0  0  0
   -2.5987    3.5874   -0.2048 C   0  0  0  0  0  0  0  0  0  0  0  0
    3.5234    3.5575   -0.4692 C   0  0  0  0  0  0  0  0  0  0  0  0
  1  2  1  0
  1 11  1  0
  2  3  1  0
  2  5  2  0
  2 17  1  0
  3 18  1  0
  4 16  1  0
  4 20  1  0
  6  7  1  0
  6  8  1  0
  6  9  1  0
  6 10  1  0
  7 11  1  0
  8 12  2  0
  8 13  1  0
 12 14  1  0
 13 15  2  0
 14 16  2  0
 15 16  1  0
 18 19  1  0
M  CHG  1   6   1
M  END
>  <PUBCHEM_COMPOUND_CID>  (1) 
38835

>  <PUBCHEM_CONFORMER_RMSD>  (1) 
0.8

>  <PUBCHEM_CONFORMER_DIVERSEORDER>  (1) 
70
129
107
59
49
100
154
147
57
101
44
43
74
45
21
110
50
136
73
10
34
78
103
115
88
77
93
119
37
133
123
58
30
6
61
2
19
18
112
39
132
127
83
120
4
105
102
25
152
1
104
90
31
71
114
149
79
94
3
38
66
27
28
63
126
81
16
146
106
140
153
41
76
142
55
145
130
33
48
35
95
109
144
124
23
121
64
75
86
143
155
89
131
51
99
85
53
24
56
46
91
22
98
82
40
139
68
148
65
87
62
116
84
11
47
52
137
122
96
9
36
108
72
13
150
111
67
42
60
156
118
113
141
117
5
97
54
92
157
20
125
29
15
138
26
69
8
151
12
14
134
80
135
128
32
17
7

>  <PUBCHEM_MMFF94_PARTIAL_CHARGES>  (1) 
22
1 -0.48
10 0.5
11 0.23
12 -0.15
13 -0.15
14 -0.15
15 -0.15
16 0.08
18 0.28
2 1.22
20 0.28
3 -0.55
31 0.15
32 0.15
33 0.15
34 0.15
4 -0.36
5 -0.7
6 -0.87
7 0.5
8 0.36
9 0.5

>  <PUBCHEM_EFFECTIVE_ROTOR_COUNT>  (1) 
8

>  <PUBCHEM_PHARMACOPHORE_FEATURES>  (1) 
3
1 4 acceptor
1 6 cation
6 8 12 13 14 15 16 rings

>  <PUBCHEM_HEAVY_ATOM_COUNT>  (1) 
20

>  <PUBCHEM_ATOM_DEF_STEREO_COUNT>  (1) 
0

>  <PUBCHEM_ATOM_UDEF_STEREO_COUNT>  (1) 
1

>  <PUBCHEM_BOND_DEF_STEREO_COUNT>  (1) 
0

>  <PUBCHEM_BOND_UDEF_STEREO_COUNT>  (1) 
0

>  <PUBCHEM_ISOTOPIC_ATOM_COUNT>  (1) 
0

>  <PUBCHEM_COMPONENT_COUNT>  (1) 
1

>  <PUBCHEM_CACTVS_TAUTO_COUNT>  (1) 
1

>  <PUBCHEM_CONFORMER_ID>  (1) 
000097B300000046

>  <PUBCHEM_MMFF94_ENERGY>  (1) 
71.2585

>  <PUBCHEM_FEATURE_SELFOVERLAP>  (1) 
15.223

>  <PUBCHEM_SHAPE_FINGERPRINT>  (1) 
10366900 7 17969516930706023107
10498660 4 18341049726492410445
10670039 82 18265901439724053604
10871710 139 18053379096143022357
12633257 1 15864347025190035977
13533116 47 17679022600479219979
14251764 38 18265326206280255293
14466204 15 17905320724136425691
15342168 16 18341330080562044559
15475509 8 18412547601130964142
15806764 133 17839763481939278679
19078846 21 17828483565879415371
20621476 13 18121769539645774565
20681677 76 18265048021216214797
20739085 24 17967246503676840564
21524375 3 18271239538311421514
21864079 5 18411415128774217381
22749437 52 18268142055310926669
23503958 25 18337406941305983773
23559900 14 18193837034031354991
312425 83 13039188100078433947
469060 322 17980207701417316355
474 4 18410288146630847339
49207404 50 18334584533638731139
7808743 9 18124595550948655440
9709674 26 18265335015173224505

>  <PUBCHEM_SHAPE_MULTIPOLES>  (1) 
396.7
9.05
4.48
1.23
8.74
2.02
-0.21
5.39
-1.36
-2.58
0.75
-0.04
-0.52
0.19

>  <PUBCHEM_SHAPE_SELFOVERLAP>  (1) 
758.005

>  <PUBCHEM_SHAPE_VOLUME>  (1) 
249.4

>  <PUBCHEM_COORDINATE_TYPE>  (1) 
2
5
10

$$$$
