38839
     RDKit          3D

 18 19  0  0  0  0  0  0  0  0999 V2000
   -4.3931   -0.5500   -0.4069 O   0  0  0  0  0  0  0  0  0  0  0  0
    0.9526    2.7179   -0.0683 O   0  0  0  0  0  0  0  0  0  0  0  0
   -0.5696    0.9446   -0.1634 C   0  0  0  0  0  0  0  0  0  0  0  0
   -2.5463    0.1908    0.9304 C   0  0  0  0  0  0  0  0  0  0  0  0
    1.9903    0.6223   -0.0211 C   0  0  0  0  0  0  0  0  0  0  0  0
   -1.2491    0.6978    1.0068 C   0  0  0  0  0  0  0  0  0  0  0  0
    0.8209    1.4851   -0.0824 C   0  0  0  0  0  0  0  0  0  0  0  0
   -3.1270   -0.0551   -0.3139 C   0  0  0  0  0  0  0  0  0  0  0  0
   -1.1129    0.7132   -1.4053 C   0  0  0  0  0  0  0  0  0  0  0  0
    1.8365   -0.7639   -0.0373 C   0  0  0  0  0  0  0  0  0  0  0  0
   -2.4102    0.2063   -1.4818 C   0  0  0  0  0  0  0  0  0  0  0  0
    2.9584   -1.5908    0.0211 C   0  0  0  0  0  0  0  0  0  0  0  0
    3.2659    1.1818    0.0535 C   0  0  0  0  0  0  0  0  0  0  0  0
   -3.2992   -0.0822    2.1908 C   0  0  0  0  0  0  0  0  0  0  0  0
    4.2340   -1.0311    0.0955 C   0  0  0  0  0  0  0  0  0  0  0  0
    4.3877    0.3550    0.1119 C   0  0  0  0  0  0  0  0  0  0  0  0
    2.7947   -3.0731    0.0027 C   0  0  0  0  0  0  0  0  0  0  0  0
   -4.5337   -1.9689   -0.4324 C   0  0  0  0  0  0  0  0  0  0  0  0
  1  8  1  0
  1 18  1  0
  2  7  2  0
  3  6  1  0
  3  7  1  0
  3  9  2  0
  4  6  2  0
  4  8  1  0
  4 14  1  0
  5  7  1  0
  5 10  2  0
  5 13  1  0
  8 11  2  0
  9 11  1  0
 10 12  1  0
 12 15  2  0
 12 17  1  0
 13 16  2  0
 15 16  1  0
M  END
>  <PUBCHEM_COMPOUND_CID>  (1) 
38839

>  <PUBCHEM_CONFORMER_RMSD>  (1) 
0.6

>  <PUBCHEM_CONFORMER_DIVERSEORDER>  (1) 
1
27
11
16
28
20
7
13
22
29
15
17
8
18
14
26
4
6
12
31
10
33
3
30
21
9
2
5
23
25
24
19
32
34

>  <PUBCHEM_MMFF94_PARTIAL_CHARGES>  (1) 
25
1 -0.36
10 -0.15
11 -0.15
12 -0.14
13 -0.15
14 0.14
15 -0.15
16 -0.15
17 0.14
18 0.28
19 0.15
2 -0.57
20 0.15
21 0.15
22 0.15
23 0.15
27 0.15
28 0.15
3 0.09
4 -0.14
5 0.09
6 -0.15
7 0.4
8 0.08
9 -0.15

>  <PUBCHEM_EFFECTIVE_ROTOR_COUNT>  (1) 
3

>  <PUBCHEM_PHARMACOPHORE_FEATURES>  (1) 
4
1 1 acceptor
1 2 acceptor
6 3 4 6 8 9 11 rings
6 5 10 12 13 15 16 rings

>  <PUBCHEM_HEAVY_ATOM_COUNT>  (1) 
18

>  <PUBCHEM_ATOM_DEF_STEREO_COUNT>  (1) 
0

>  <PUBCHEM_ATOM_UDEF_STEREO_COUNT>  (1) 
0

>  <PUBCHEM_BOND_DEF_STEREO_COUNT>  (1) 
0

>  <PUBCHEM_BOND_UDEF_STEREO_COUNT>  (1) 
0

>  <PUBCHEM_ISOTOPIC_ATOM_COUNT>  (1) 
0

>  <PUBCHEM_COMPONENT_COUNT>  (1) 
1

>  <PUBCHEM_CACTVS_TAUTO_COUNT>  (1) 
1

>  <PUBCHEM_CONFORMER_ID>  (1) 
000097B700000001

>  <PUBCHEM_MMFF94_ENERGY>  (1) 
69.4401

>  <PUBCHEM_FEATURE_SELFOVERLAP>  (1) 
20.297

>  <PUBCHEM_SHAPE_FINGERPRINT>  (1) 
10618630 7 18337674096935621500
11137873 295 18261673675601400753
11543360 7 15647349532494304422
11578080 2 17558519518139376537
12236239 1 17775568653932532040
12553582 1 18339649945158521974
12596599 1 18059022665774455519
12596602 18 17417811789553692226
12892183 10 16917068832682948738
13296908 3 18335979762249243780
13544653 18 18261398827458599492
13583140 156 17846487154319879217
14252887 29 17989492913825200454
14386348 63 17894634746603003170
15375462 189 17917983997195129732
15635459 17 18259983756178599562
1813 80 18201173074327702484
200 152 18413102879354883925
20279233 1 17675925395595973032
20281475 54 18410857629318858820
20645477 70 18188203311858312372
22445834 79 18060136548262076973
2255824 54 18269275836488149228
22646028 28 18272930518353787823
23526113 38 17895186692977033688
23557571 272 17240756255522997708
23559900 14 18338226197780911473
2838139 119 8934461587825859787
2871803 45 18259982643892742034
33382 64 18266742579362977723
33824 294 18409725184256494506
474 4 17772458247740045336
4921388 177 16081381725904767601
77492 1 17704072906141728612
83771 10 18412261718578940852
90316 7 17346606222744044249
9709674 26 18040998410277625250

>  <PUBCHEM_SHAPE_MULTIPOLES>  (1) 
358.69
8.84
2.27
1.26
0.96
1.01
0.33
4.3
0.4
-1.65
-0.15
1.65
-0.1
-0.22

>  <PUBCHEM_SHAPE_SELFOVERLAP>  (1) 
771.238

>  <PUBCHEM_SHAPE_VOLUME>  (1) 
199.7

>  <PUBCHEM_COORDINATE_TYPE>  (1) 
2
5
10

$$$$
