38833
     RDKit          3D

 19 19  0  0  1  0  0  0  0  0999 V2000
   -2.3948    1.4246    0.8710 S   0  0  0  0  0  0  0  0  0  0  0  0
   -3.6764    0.3787   -0.4193 P   0  0  0  0  0  0  0  0  0  0  0  0
   -3.3051   -1.1996   -0.4762 O   0  0  0  0  0  0  0  0  0  0  0  0
   -3.6693    1.0004   -1.7909 O   0  0  0  0  0  0  0  0  0  0  0  0
    1.6064    1.9897    0.2230 N   0  0  0  0  0  0  0  0  0  0  0  0
    0.2917    2.0678    0.9053 C   0  0  0  0  0  0  0  0  0  0  0  0
    2.1493    0.5472    0.0802 C   0  0  0  0  0  0  0  0  0  0  0  0
    1.4900    2.5736   -1.1975 C   0  0  0  0  0  0  0  0  0  0  0  0
    2.6526    2.7921    1.0196 C   0  0  0  0  0  0  0  0  0  0  0  0
   -0.7706    1.3486    0.0904 C   0  0  0  0  0  0  0  0  0  0  0  0
    2.9540    0.3151   -0.9745 C   0  0  0  0  0  0  0  0  0  0  0  0
    1.7624   -0.3310    1.0253 C   0  0  0  0  0  0  0  0  0  0  0  0
    3.4431   -0.9849   -1.1032 C   0  0  0  0  0  0  0  0  0  0  0  0
    2.2515   -1.6309    0.8968 C   0  0  0  0  0  0  0  0  0  0  0  0
    3.0919   -1.9579   -0.1675 C   0  0  0  0  0  0  0  0  0  0  0  0
    3.6147   -3.3474   -0.3050 C   0  0  0  0  0  0  0  0  0  0  0  0
   -5.3269    0.4020    0.2809 C   0  0  0  0  0  0  0  0  0  0  0  0
   -3.2687   -1.9834    0.7029 C   0  0  0  0  0  0  0  0  0  0  0  0
   -2.8959   -3.4047    0.3387 C   0  0  0  0  0  0  0  0  0  0  0  0
  1  2  1  0
  1 10  1  0
  2  3  1  0
  2  4  2  0
  2 17  1  0
  3 18  1  0
  5  6  1  0
  5  7  1  0
  5  8  1  0
  5  9  1  0
  6 10  1  0
  7 11  2  0
  7 12  1  0
 11 13  1  0
 12 14  2  0
 13 15  2  0
 14 15  1  0
 15 16  1  0
 18 19  1  0
M  CHG  1   5   1
M  END
>  <PUBCHEM_COMPOUND_CID>  (1) 
38833

>  <PUBCHEM_CONFORMER_RMSD>  (1) 
0.8

>  <PUBCHEM_CONFORMER_DIVERSEORDER>  (1) 
54
76
109
90
29
78
18
33
20
50
103
51
88
28
75
34
53
37
3
38
93
10
55
30
110
27
102
1
64
67
79
81
99
6
96
89
44
19
23
35
48
106
4
112
52
91
60
98
2
31
57
62
80
63
68
43
56
71
42
73
77
101
85
92
9
70
95
25
11
21
69
61
45
108
32
46
66
72
40
87
16
36
24
104
5
65
22
15
41
105
59
49
12
86
97
13
111
82
14
83
84
17
58
100
26
74
39
107
47
8
94
7

>  <PUBCHEM_MMFF94_PARTIAL_CHARGES>  (1) 
21
1 -0.48
10 0.23
11 -0.15
12 -0.15
13 -0.15
14 -0.15
15 -0.14
16 0.14
18 0.28
2 1.22
3 -0.55
30 0.15
31 0.15
32 0.15
33 0.15
4 -0.7
5 -0.87
6 0.5
7 0.36
8 0.5
9 0.5

>  <PUBCHEM_EFFECTIVE_ROTOR_COUNT>  (1) 
7

>  <PUBCHEM_PHARMACOPHORE_FEATURES>  (1) 
2
1 5 cation
6 7 11 12 13 14 15 rings

>  <PUBCHEM_HEAVY_ATOM_COUNT>  (1) 
19

>  <PUBCHEM_ATOM_DEF_STEREO_COUNT>  (1) 
0

>  <PUBCHEM_ATOM_UDEF_STEREO_COUNT>  (1) 
1

>  <PUBCHEM_BOND_DEF_STEREO_COUNT>  (1) 
0

>  <PUBCHEM_BOND_UDEF_STEREO_COUNT>  (1) 
0

>  <PUBCHEM_ISOTOPIC_ATOM_COUNT>  (1) 
0

>  <PUBCHEM_COMPONENT_COUNT>  (1) 
1

>  <PUBCHEM_CACTVS_TAUTO_COUNT>  (1) 
1

>  <PUBCHEM_CONFORMER_ID>  (1) 
000097B100000036

>  <PUBCHEM_MMFF94_ENERGY>  (1) 
59.5315

>  <PUBCHEM_FEATURE_SELFOVERLAP>  (1) 
10.148

>  <PUBCHEM_SHAPE_FINGERPRINT>  (1) 
10616163 171 18194404613748401387
12553582 1 18268716004321723664
12633257 1 18270973353782047747
12788726 201 17774453676602641345
13533116 47 18272086132848455737
14251705 54 18194123147235115827
14251757 5 18193289498177450246
14916288 52 18411985758308953547
20291156 8 18340489945818801360
20645477 70 18201998863088560837
21634736 98 18409738373705376130
221490 88 18337961185176248746
23559900 14 18412259575248043480
314173 41 18411426098115325581
46194498 28 17603875524062607989
9709674 26 18339355370568429857

>  <PUBCHEM_SHAPE_MULTIPOLES>  (1) 
381.99
9
3.99
1.24
8.53
1.89
-0.23
4.01
-1.38
-1.87
0.46
-0.04
-0.43
0.71

>  <PUBCHEM_SHAPE_SELFOVERLAP>  (1) 
727.545

>  <PUBCHEM_SHAPE_VOLUME>  (1) 
240.6

>  <PUBCHEM_COORDINATE_TYPE>  (1) 
2
5
10

$$$$
