38841
     RDKit          3D

 20 20  0  0  0  0  0  0  0  0999 V2000
    3.9457   -0.9701    0.1819 O   0  0  0  0  0  0  0  0  0  0  0  0
   -2.2002    0.1220   -1.6940 O   0  0  0  0  0  0  0  0  0  0  0  0
   -4.6074    0.6196   -0.0878 N   0  0  0  0  0  0  0  0  0  0  0  0
   -1.6086   -0.9745    0.3013 N   0  0  0  0  0  0  0  0  0  0  0  0
   -3.9406   -0.6677   -0.2213 C   0  0  0  0  0  0  0  0  0  0  0  0
   -6.0167    0.4381    0.2676 C   0  0  0  0  0  0  0  0  0  0  0  0
   -3.9356    1.4492    0.9150 C   0  0  0  0  0  0  0  0  0  0  0  0
   -2.5000   -0.4485   -0.6500 C   0  0  0  0  0  0  0  0  0  0  0  0
    5.9312    0.3676    0.1430 C   0  0  0  0  0  0  0  0  0  0  0  0
   -6.7520   -0.3627   -0.7937 C   0  0  0  0  0  0  0  0  0  0  0  0
   -4.6229    2.7960    1.0633 C   0  0  0  0  0  0  0  0  0  0  0  0
    6.6564    1.5319   -0.5257 C   0  0  0  0  0  0  0  0  0  0  0  0
    4.5725    0.1116   -0.4935 C   0  0  0  0  0  0  0  0  0  0  0  0
   -0.2138   -0.9721    0.2721 C   0  0  0  0  0  0  0  0  0  0  0  0
    2.5752   -0.9694    0.2124 C   0  0  0  0  0  0  0  0  0  0  0  0
    0.5068   -1.5480    1.3184 C   0  0  0  0  0  0  0  0  0  0  0  0
    0.4602   -0.3948   -0.8041 C   0  0  0  0  0  0  0  0  0  0  0  0
    7.9939    1.8119    0.1405 C   0  0  0  0  0  0  0  0  0  0  0  0
    1.9013   -1.5468    1.2886 C   0  0  0  0  0  0  0  0  0  0  0  0
    1.8547   -0.3935   -0.8339 C   0  0  0  0  0  0  0  0  0  0  0  0
  1 13  1  0
  1 15  1  0
  2  8  2  0
  3  5  1  0
  3  6  1  0
  3  7  1  0
  4  8  1  0
  4 14  1  0
  5  8  1  0
  6 10  1  0
  7 11  1  0
  9 12  1  0
  9 13  1  0
 12 18  1  0
 14 16  2  0
 14 17  1  0
 15 19  2  0
 15 20  1  0
 16 19  1  0
 17 20  2  0
M  END
>  <PUBCHEM_COMPOUND_CID>  (1) 
38841

>  <PUBCHEM_CONFORMER_RMSD>  (1) 
1

>  <PUBCHEM_CONFORMER_DIVERSEORDER>  (1) 
1
29
43
37
17
45
44
31
41
15
19
51
11
33
25
18
52
42
36
26
10
53
20
3
8
7
24
27
12
46
30
13
14
22
34
39
16
32
48
54
6
38
40
9
49
21
4
35
28
50
2
47
23
5

>  <PUBCHEM_MMFF94_PARTIAL_CHARGES>  (1) 
20
1 -0.36
13 0.28
14 0.12
15 0.08
16 -0.15
17 -0.15
19 -0.15
2 -0.57
20 -0.15
3 -0.81
39 0.37
4 -0.55
40 0.15
41 0.15
45 0.15
46 0.15
5 0.33
6 0.27
7 0.27
8 0.57

>  <PUBCHEM_EFFECTIVE_ROTOR_COUNT>  (1) 
10

>  <PUBCHEM_PHARMACOPHORE_FEATURES>  (1) 
6
1 1 acceptor
1 18 hydrophobe
1 2 acceptor
1 3 cation
1 4 donor
6 14 15 16 17 19 20 rings

>  <PUBCHEM_HEAVY_ATOM_COUNT>  (1) 
20

>  <PUBCHEM_ATOM_DEF_STEREO_COUNT>  (1) 
0

>  <PUBCHEM_ATOM_UDEF_STEREO_COUNT>  (1) 
0

>  <PUBCHEM_BOND_DEF_STEREO_COUNT>  (1) 
0

>  <PUBCHEM_BOND_UDEF_STEREO_COUNT>  (1) 
0

>  <PUBCHEM_ISOTOPIC_ATOM_COUNT>  (1) 
0

>  <PUBCHEM_COMPONENT_COUNT>  (1) 
1

>  <PUBCHEM_CACTVS_TAUTO_COUNT>  (1) 
2

>  <PUBCHEM_CONFORMER_ID>  (1) 
000097B900000001

>  <PUBCHEM_MMFF94_ENERGY>  (1) 
47.6538

>  <PUBCHEM_FEATURE_SELFOVERLAP>  (1) 
30.446

>  <PUBCHEM_SHAPE_FINGERPRINT>  (1) 
10 15 15864073200135583876
10087517 78 18411699872195257532
10595046 47 18342736299909685783
106641 1 17967256425220021163
11524674 6 14057001637323399089
117890 112 18410013256582319204
12236239 1 18336544924437980423
12555020 224 12679455383150193693
12596602 18 18335702698504451259
12670543 26 14692579797189499202
12895836 83 17989203772200198926
13167372 99 18412546484149472800
13288520 33 8862944969970520823
13540713 4 14691139557401424230
13540713 5 16011019738159663694
13631057 29 18115307916685300515
14251752 14 17274824623815811350
14251764 18 17749669683890177966
14508225 48 13830136096503880226
14556957 393 14835858330221356240
14849402 71 18335707199346256556
15048467 5 18410292532282579734
15183329 4 16056887927063941634
15188451 53 11891340875830026113
15716309 27 11314308360758972088
17834072 8 14692571031124260030
18222031 100 11600005432251072566
20281389 69 18040995129376220460
20526848 3 18409452505515412660
20645477 70 15267066891508386023
20735858 18 16588022424597716170
21150785 3 17060340747048635132
21267235 1 12895072946610443279
21424621 283 18410577275655601960
21792961 116 16487265378426294886
22224240 67 17313100877845875530
2297311 6 17060617803047323643
23035841 295 8358259246049182173
23198884 109 18273218586063177807
23559900 14 12463270527804537494
26918003 58 13984670235268208831
2838139 119 18272369819633506376
2916195 48 18260265248392876724
34797466 226 17346886667044368436
4098825 35 17988649541093757206
4340502 62 14562525181195123976
465052 167 7853573518133511258
5104073 3 16443895042946332552
5385378 56 18040149601204165098
543368 44 18410573985584188721
559249 180 8286195046889922137
5758199 1 18114184142116589466
59682541 35 17023187171062099312
636775 72 18341330098175229552

>  <PUBCHEM_SHAPE_MULTIPOLES>  (1) 
389.89
19.15
1.94
1.16
15.09
1.23
0.03
12.86
-1.43
-0.08
0.82
-0.51
-0.1
-1.55

>  <PUBCHEM_SHAPE_SELFOVERLAP>  (1) 
772.519

>  <PUBCHEM_SHAPE_VOLUME>  (1) 
233.6

>  <PUBCHEM_COORDINATE_TYPE>  (1) 
2
5
10

$$$$
