38870
     RDKit          3D

 19 20  0  0  1  0  0  0  0  0999 V2000
   -0.6945   -2.9266    1.3188 O   0  0  0  0  0  0  0  0  0  0  0  0
    1.4634   -1.2400    0.6880 O   0  0  0  0  0  0  0  0  0  0  0  0
   -1.5921    0.3385   -0.1806 N   0  0  0  0  0  0  0  0  0  0  0  0
   -2.2412    1.5420    0.3944 C   0  0  0  0  0  0  0  0  0  0  0  0
   -2.8329    0.0881   -0.9541 C   0  0  0  0  0  0  0  0  0  0  0  0
   -3.1518    1.5855   -0.8409 C   0  0  0  0  0  0  0  0  0  0  0  0
   -1.4016   -0.6850    0.8393 C   0  0  0  0  0  0  0  0  0  0  0  0
   -2.9550    1.3043    1.7074 C   0  0  0  0  0  0  0  0  0  0  0  0
   -1.2596    2.6862    0.5515 C   0  0  0  0  0  0  0  0  0  0  0  0
   -2.5306   -0.4365   -2.3436 C   0  0  0  0  0  0  0  0  0  0  0  0
   -3.8246   -0.8291   -0.2720 C   0  0  0  0  0  0  0  0  0  0  0  0
   -0.7868   -1.9635    0.2652 C   0  0  0  0  0  0  0  0  0  0  0  0
    0.6049   -1.7513   -0.3268 C   0  0  0  0  0  0  0  0  0  0  0  0
    2.4913   -0.4348    0.2761 C   0  0  0  0  0  0  0  0  0  0  0  0
    3.0542   -0.6246   -0.9814 C   0  0  0  0  0  0  0  0  0  0  0  0
    2.9635    0.5653    1.1193 C   0  0  0  0  0  0  0  0  0  0  0  0
    4.1020    0.1954   -1.4006 C   0  0  0  0  0  0  0  0  0  0  0  0
    4.0111    1.3853    0.7000 C   0  0  0  0  0  0  0  0  0  0  0  0
    4.5803    1.2003   -0.5601 C   0  0  0  0  0  0  0  0  0  0  0  0
  1 12  1  0
  2 13  1  0
  2 14  1  0
  3  4  1  0
  3  5  1  0
  3  7  1  0
  4  6  1  0
  4  8  1  0
  4  9  1  0
  5  6  1  0
  5 10  1  0
  5 11  1  0
  7 12  1  0
 12 13  1  0
 14 15  2  0
 14 16  1  0
 15 17  1  0
 16 18  2  0
 17 19  2  0
 18 19  1  0
M  END
>  <PUBCHEM_COMPOUND_CID>  (1) 
38870

>  <PUBCHEM_CONFORMER_RMSD>  (1) 
0.8

>  <PUBCHEM_CONFORMER_DIVERSEORDER>  (1) 
1
12
10
5
22
4
32
14
30
17
25
19
9
24
27
21
15
13
7
8
2
31
28
16
6
20
34
29
23
26
33
3
11
18

>  <PUBCHEM_MMFF94_PARTIAL_CHARGES>  (1) 
20
1 -0.68
12 0.28
13 0.28
14 0.08
15 -0.15
16 -0.15
17 -0.15
18 -0.15
19 -0.15
2 -0.36
3 -0.69
39 0.4
4 0.21
40 0.15
41 0.15
42 0.15
43 0.15
44 0.15
5 0.21
7 0.27

>  <PUBCHEM_EFFECTIVE_ROTOR_COUNT>  (1) 
5.8

>  <PUBCHEM_PHARMACOPHORE_FEATURES>  (1) 
8
1 1 acceptor
1 1 donor
1 2 acceptor
1 3 cation
3 4 8 9 hydrophobe
3 5 10 11 hydrophobe
4 3 4 5 6 rings
6 14 15 16 17 18 19 rings

>  <PUBCHEM_HEAVY_ATOM_COUNT>  (1) 
19

>  <PUBCHEM_ATOM_DEF_STEREO_COUNT>  (1) 
0

>  <PUBCHEM_ATOM_UDEF_STEREO_COUNT>  (1) 
1

>  <PUBCHEM_BOND_DEF_STEREO_COUNT>  (1) 
0

>  <PUBCHEM_BOND_UDEF_STEREO_COUNT>  (1) 
0

>  <PUBCHEM_ISOTOPIC_ATOM_COUNT>  (1) 
0

>  <PUBCHEM_COMPONENT_COUNT>  (1) 
1

>  <PUBCHEM_CACTVS_TAUTO_COUNT>  (1) 
1

>  <PUBCHEM_CONFORMER_ID>  (1) 
000097D600000001

>  <PUBCHEM_MMFF94_ENERGY>  (1) 
84.6944

>  <PUBCHEM_FEATURE_SELFOVERLAP>  (1) 
40.598

>  <PUBCHEM_SHAPE_FINGERPRINT>  (1) 
10498660 4 18411133610895683116
11640471 11 17531237379432149938
11759241 127 17272830233981931416
12173636 292 18336271158442003133
12596599 1 17704352147767210752
12633257 1 12107777493822080372
128993 33 18127131879218114672
13224815 77 18413105048250207808
13583140 156 16298384703664385880
13764800 53 18261401078179906770
14123250 116 17988087686019392705
14123260 362 18260552246739676252
14289901 80 14129071321783681956
14787075 74 18336822113074421975
15183329 4 18041573473246844182
15342168 16 18114468859772639837
1798214 55 18334016068889305388
1813 80 11311769613674170466
18186145 218 18272654502465035776
192875 21 18193811813534662440
19930381 70 16268803545756909617
20361792 2 11095872778877270418
20510252 161 18262524808949215755
21524375 3 18337387149986479138
21713013 43 15841546418257945652
21731516 1 10879984774754579706
21860390 5 15891931126400900525
21864079 5 18337394820792613216
22749437 52 18334290968355559988
22956985 138 15158980947692718762
23419403 2 17685485851601551143
23557571 272 18125445451862031918
23728640 28 9943262393332736375
4028521 119 18413103961539034132
469060 322 17169284830116017811
474 4 18116711811863777265
4921388 177 16486972937907252791
5262128 65 17203611488709337016
526903 126 18413101754015534217
5281201 14 17775294854621451476
59027123 10 17703792501012444476
633830 44 18340205180902391070
81228 2 17970361522612677659
9981440 41 18337659902100851178

>  <PUBCHEM_SHAPE_MULTIPOLES>  (1) 
374.29
8.26
2.46
1.59
6.97
0.03
0.4
-3.05
2.04
-1.04
-0.84
-0.61
0.21
-0.13

>  <PUBCHEM_SHAPE_SELFOVERLAP>  (1) 
775.607

>  <PUBCHEM_SHAPE_VOLUME>  (1) 
218.9

>  <PUBCHEM_COORDINATE_TYPE>  (1) 
2
5
10

$$$$
