38899
     RDKit          3D

 13 14  0  0  1  0  0  0  0  0999 V2000
   -2.4992   -0.9396    0.5279 O   0  0  0  0  0  0  0  0  0  0  0  0
    2.9731    0.8077    0.7868 N   0  0  0  0  0  0  0  0  0  0  0  0
    2.1937    0.3957   -0.3865 C   0  0  0  0  0  0  0  0  0  0  0  0
    2.4461   -1.0915   -0.6808 C   0  0  0  0  0  0  0  0  0  0  0  0
    1.6858   -1.9944    0.2850 C   0  0  0  0  0  0  0  0  0  0  0  0
    0.1820   -1.7698    0.1510 C   0  0  0  0  0  0  0  0  0  0  0  0
    0.7188    0.6986   -0.2035 C   0  0  0  0  0  0  0  0  0  0  0  0
   -0.2135   -0.3152    0.0909 C   0  0  0  0  0  0  0  0  0  0  0  0
   -1.5653    0.0214    0.2673 C   0  0  0  0  0  0  0  0  0  0  0  0
    0.2756    2.0293   -0.2995 C   0  0  0  0  0  0  0  0  0  0  0  0
   -1.9889    1.3462    0.1702 C   0  0  0  0  0  0  0  0  0  0  0  0
   -1.0687    2.3500   -0.1134 C   0  0  0  0  0  0  0  0  0  0  0  0
   -3.1394   -1.5387   -0.5954 C   0  0  0  0  0  0  0  0  0  0  0  0
  1  9  1  0
  1 13  1  0
  2  3  1  0
  3  4  1  0
  3  7  1  0
  4  5  1  0
  5  6  1  0
  6  8  1  0
  7  8  2  0
  7 10  1  0
  8  9  1  0
  9 11  2  0
 10 12  2  0
 11 12  1  0
M  END
>  <PUBCHEM_COMPOUND_CID>  (1) 
38899

>  <PUBCHEM_CONFORMER_RMSD>  (1) 
0.6

>  <PUBCHEM_CONFORMER_DIVERSEORDER>  (1) 
2
1

>  <PUBCHEM_MMFF94_PARTIAL_CHARGES>  (1) 
16
1 -0.36
10 -0.15
11 -0.15
12 -0.15
13 0.28
2 -0.99
21 0.15
22 0.36
23 0.36
24 0.15
25 0.15
3 0.41
6 0.14
7 -0.14
8 -0.14
9 0.08

>  <PUBCHEM_EFFECTIVE_ROTOR_COUNT>  (1) 
1.8

>  <PUBCHEM_PHARMACOPHORE_FEATURES>  (1) 
5
1 1 acceptor
1 2 cation
1 2 donor
6 3 4 5 6 7 8 rings
6 7 8 9 10 11 12 rings

>  <PUBCHEM_HEAVY_ATOM_COUNT>  (1) 
13

>  <PUBCHEM_ATOM_DEF_STEREO_COUNT>  (1) 
0

>  <PUBCHEM_ATOM_UDEF_STEREO_COUNT>  (1) 
1

>  <PUBCHEM_BOND_DEF_STEREO_COUNT>  (1) 
0

>  <PUBCHEM_BOND_UDEF_STEREO_COUNT>  (1) 
0

>  <PUBCHEM_ISOTOPIC_ATOM_COUNT>  (1) 
0

>  <PUBCHEM_COMPONENT_COUNT>  (1) 
1

>  <PUBCHEM_CACTVS_TAUTO_COUNT>  (1) 
1

>  <PUBCHEM_CONFORMER_ID>  (1) 
000097F300000002

>  <PUBCHEM_MMFF94_ENERGY>  (1) 
35.9985

>  <PUBCHEM_FEATURE_SELFOVERLAP>  (1) 
25.392

>  <PUBCHEM_SHAPE_FINGERPRINT>  (1) 
10967382 1 18122066661018824503
11206711 2 18335148574154954943
12423570 1 15374896787123608980
12524768 44 18122915217791904343
13140716 1 18265897951661580123
14251711 518 18191307078775944859
14614273 12 18114734937159712485
161256 15 18341619196026877806
16945 1 18265061399401109579
193761 8 18265331698878177809
20201158 50 18262232339130273711
20511035 2 17539714407702560141
20645477 70 17977660141781938967
20871998 184 18125448514315684079
21501502 16 18265335014867295410
2334 1 18409733945388320074
23388829 49 18340200920426669461
23402539 116 18269259322243586910
23419403 2 15666943838522858051
23552423 10 18188502280363283812
23559900 14 17693942891743227238
241688 4 18337398144854382488
2748010 2 18410296865276866534
5084963 1 18272382974505897608
5255222 1 18048318838615725604
6338986 31 18339625794436519695
66348 1 18193279593845351486
81228 2 18261676978415985953

>  <PUBCHEM_SHAPE_MULTIPOLES>  (1) 
256.68
4.05
2.52
0.76
0.13
0.32
0.02
-1.23
0.1
0.59
0.09
-0.1
-0.05
-0.05

>  <PUBCHEM_SHAPE_SELFOVERLAP>  (1) 
540.505

>  <PUBCHEM_SHAPE_VOLUME>  (1) 
144.3

>  <PUBCHEM_COORDINATE_TYPE>  (1) 
2
5
10

$$$$
