38892
     RDKit          3D

 28 29  0  0  0  0  0  0  0  0999 V2000
    6.5791   -2.8311   -1.1773 O   0  0  0  0  0  0  0  0  0  0  0  0
    6.3535    3.1410   -0.7892 O   0  0  0  0  0  0  0  0  0  0  0  0
   -3.4155    3.1702   -0.0319 O   0  0  0  0  0  0  0  0  0  0  0  0
   -1.4398    2.2283   -0.2009 O   0  0  0  0  0  0  0  0  0  0  0  0
   -7.2787   -1.6776   -0.1589 O   0  0  0  0  0  0  0  0  0  0  0  0
   -7.4069    0.5083   -0.0027 O   0  0  0  0  0  0  0  0  0  0  0  0
    4.9327    0.0017    0.4849 N   0  0  0  0  0  0  0  0  0  0  0  0
   -0.6532   -0.2913    0.7649 N   0  0  0  0  0  0  0  0  0  0  0  0
   -1.1415   -0.2282   -0.3872 N   0  0  0  0  0  0  0  0  0  0  0  0
   -2.6896    2.1541   -0.1403 N   0  0  0  0  0  0  0  0  0  0  0  0
   -6.7367   -0.5469   -0.1111 N   0  0  0  0  0  0  0  0  0  0  0  0
    3.5263   -0.0774    0.5547 C   0  0  0  0  0  0  0  0  0  0  0  0
    5.7308   -1.2031    0.3716 C   0  0  0  0  0  0  0  0  0  0  0  0
    5.5991    1.2876    0.5394 C   0  0  0  0  0  0  0  0  0  0  0  0
    2.8936   -1.3195    0.5027 C   0  0  0  0  0  0  0  0  0  0  0  0
    1.5025   -1.3971    0.5731 C   0  0  0  0  0  0  0  0  0  0  0  0
    2.7681    1.0870    0.6772 C   0  0  0  0  0  0  0  0  0  0  0  0
    5.7647   -1.6699   -1.0737 C   0  0  0  0  0  0  0  0  0  0  0  0
    5.7307    1.8645   -0.8598 C   0  0  0  0  0  0  0  0  0  0  0  0
    0.7441   -0.2326    0.6950 C   0  0  0  0  0  0  0  0  0  0  0  0
    1.3770    1.0094    0.7473 C   0  0  0  0  0  0  0  0  0  0  0  0
    0.8474   -2.7383    0.5154 C   0  0  0  0  0  0  0  0  0  0  0  0
   -2.5439   -0.2875   -0.3166 C   0  0  0  0  0  0  0  0  0  0  0  0
   -3.3053    0.8727   -0.1960 C   0  0  0  0  0  0  0  0  0  0  0  0
   -3.1654   -1.5331   -0.3695 C   0  0  0  0  0  0  0  0  0  0  0  0
   -4.6959    0.7870   -0.1282 C   0  0  0  0  0  0  0  0  0  0  0  0
   -5.3212   -0.4588   -0.1813 C   0  0  0  0  0  0  0  0  0  0  0  0
   -4.5561   -1.6191   -0.3015 C   0  0  0  0  0  0  0  0  0  0  0  0
  1 18  1  0
  2 19  1  0
  3 10  1  0
  4 10  2  0
  5 11  1  0
  6 11  2  0
  7 12  1  0
  7 13  1  0
  7 14  1  0
  8  9  2  0
  8 20  1  0
  9 23  1  0
 10 24  1  0
 11 27  1  0
 12 15  2  0
 12 17  1  0
 13 18  1  0
 14 19  1  0
 15 16  1  0
 16 20  2  0
 16 22  1  0
 17 21  2  0
 20 21  1  0
 23 24  2  0
 23 25  1  0
 24 26  1  0
 25 28  2  0
 26 27  2  0
 27 28  1  0
M  CHG  4   3  -1   5  -1  10   1  11   1
M  END
>  <PUBCHEM_COMPOUND_CID>  (1) 
38892

>  <PUBCHEM_CONFORMER_RMSD>  (1) 
1

>  <PUBCHEM_CONFORMER_DIVERSEORDER>  (1) 
3
9
8
15
7
11
5
13
12
4
1
6
10
14
2

>  <PUBCHEM_MMFF94_PARTIAL_CHARGES>  (1) 
36
1 -0.68
10 0.91
11 0.91
12 0.1
13 0.37
14 0.37
15 -0.15
16 -0.14
17 -0.15
18 0.28
19 0.28
2 -0.68
20 0.18
21 -0.15
22 0.14
23 0.18
24 0.13
25 -0.15
26 -0.15
27 0.13
28 -0.15
3 -0.52
33 0.15
34 0.15
39 0.15
4 -0.52
43 0.4
44 0.4
45 0.15
46 0.15
47 0.15
5 -0.52
6 -0.52
7 -0.84
8 -0.18
9 -0.18

>  <PUBCHEM_EFFECTIVE_ROTOR_COUNT>  (1) 
9

>  <PUBCHEM_PHARMACOPHORE_FEATURES>  (1) 
13
1 1 acceptor
1 1 donor
1 2 acceptor
1 2 donor
1 3 acceptor
1 3 anion
1 4 acceptor
1 5 acceptor
1 5 anion
1 6 acceptor
1 7 cation
6 12 15 16 17 20 21 rings
6 23 24 25 26 27 28 rings

>  <PUBCHEM_HEAVY_ATOM_COUNT>  (1) 
28

>  <PUBCHEM_ATOM_DEF_STEREO_COUNT>  (1) 
0

>  <PUBCHEM_ATOM_UDEF_STEREO_COUNT>  (1) 
0

>  <PUBCHEM_BOND_DEF_STEREO_COUNT>  (1) 
0

>  <PUBCHEM_BOND_UDEF_STEREO_COUNT>  (1) 
0

>  <PUBCHEM_ISOTOPIC_ATOM_COUNT>  (1) 
0

>  <PUBCHEM_COMPONENT_COUNT>  (1) 
1

>  <PUBCHEM_CACTVS_TAUTO_COUNT>  (1) 
1

>  <PUBCHEM_CONFORMER_ID>  (1) 
000097EC00000003

>  <PUBCHEM_MMFF94_ENERGY>  (1) 
100.9286

>  <PUBCHEM_FEATURE_SELFOVERLAP>  (1) 
66.136

>  <PUBCHEM_SHAPE_FINGERPRINT>  (1) 
10595046 47 18407757036614387736
11524674 6 16200429191597923783
11578080 2 17026265610573152423
12236239 1 18114177536599280405
12916748 109 18409163316455288928
13782708 43 17489295430417458543
14341114 176 18410572889966445693
14790565 3 18409167706001821992
15183329 4 17274832367151274442
15927050 60 17547290468114930637
17844677 252 18410859828690267504
21267235 1 18410576184934517971
221357 26 18342735213150675464
22149856 69 18201446852253150313
22393880 68 18339356345515580074
2297311 6 18412263913670998591
23522609 53 18057348191185790121
23559900 14 18339633555700769665
2747138 104 18187374250717041897
3004659 81 18412544289558399530
34797466 226 18412548721442046012
350125 39 18411133662672596169
3545911 37 18409162204196045643
4073 2 18113900519408850739
4325135 7 18408885165899608700
4340502 62 15936680536996983882
46194498 28 18342742875778643766
5104073 3 18269260275541483761
5486654 2 18337389447798867491
59755656 215 18408602535234174203
59755656 520 17095235930737740339
9996256 80 18413386523042100963

>  <PUBCHEM_SHAPE_MULTIPOLES>  (1) 
516.11
19.26
2.93
0.88
5.95
0.85
0.06
-1.04
4.31
-2.63
0.58
-1.09
-0.12
0.08

>  <PUBCHEM_SHAPE_SELFOVERLAP>  (1) 
1093.39

>  <PUBCHEM_SHAPE_VOLUME>  (1) 
289.4

>  <PUBCHEM_COORDINATE_TYPE>  (1) 
2
5
10

$$$$
