38909
     RDKit          3D

 25 25  0  0  1  0  0  0  0  0999 V2000
   -1.8996   -2.0063   -1.6408 O   0  0  0  0  0  0  0  0  0  0  0  0
    0.9910   -4.3551   -0.0153 O   0  0  0  0  0  0  0  0  0  0  0  0
    5.4533   -2.0531    0.2030 O   0  0  0  0  0  0  0  0  0  0  0  0
   -4.8738   -0.5106    1.5717 O   0  0  0  0  0  0  0  0  0  0  0  0
   -5.5374    1.6482    1.7909 O   0  0  0  0  0  0  0  0  0  0  0  0
   -0.4079   -1.0967    0.0830 C   0  0  0  0  0  0  0  0  0  0  0  0
    0.7961   -1.9518   -0.3570 C   0  0  0  0  0  0  0  0  0  0  0  0
   -1.6233   -1.9768   -0.2446 C   0  0  0  0  0  0  0  0  0  0  0  0
   -1.2014   -3.3758    0.1965 C   0  0  0  0  0  0  0  0  0  0  0  0
    0.2891   -3.3516   -0.0536 C   0  0  0  0  0  0  0  0  0  0  0  0
   -0.4317    0.2732   -0.5850 C   0  0  0  0  0  0  0  0  0  0  0  0
    2.0521   -1.6572    0.3859 C   0  0  0  0  0  0  0  0  0  0  0  0
   -1.5900    1.1710   -0.2491 C   0  0  0  0  0  0  0  0  0  0  0  0
    3.2171   -1.3574   -0.2069 C   0  0  0  0  0  0  0  0  0  0  0  0
    4.4832   -1.0621    0.5473 C   0  0  0  0  0  0  0  0  0  0  0  0
    5.0808    0.3077    0.1975 C   0  0  0  0  0  0  0  0  0  0  0  0
   -2.4667    1.7187   -1.1043 C   0  0  0  0  0  0  0  0  0  0  0  0
    4.1074    1.4676    0.4266 C   0  0  0  0  0  0  0  0  0  0  0  0
   -3.6056    2.5986   -0.6776 C   0  0  0  0  0  0  0  0  0  0  0  0
    4.6729    2.8275    0.0043 C   0  0  0  0  0  0  0  0  0  0  0  0
   -4.9864    2.0487   -1.0607 C   0  0  0  0  0  0  0  0  0  0  0  0
    3.7314    3.9965    0.2967 C   0  0  0  0  0  0  0  0  0  0  0  0
   -5.3092    0.6883   -0.4354 C   0  0  0  0  0  0  0  0  0  0  0  0
    4.3349    5.3194   -0.1507 C   0  0  0  0  0  0  0  0  0  0  0  0
   -5.2764    0.6893    1.0775 C   0  0  0  0  0  0  0  0  0  0  0  0
  1  8  1  0
  2 10  2  0
  3 15  1  0
  4 25  1  0
  5 25  2  0
  6  7  1  0
  6  8  1  0
  6 11  1  0
  7 10  1  0
  7 12  1  0
  8  9  1  0
  9 10  1  0
 11 13  1  0
 12 14  2  0
 13 17  2  0
 14 15  1  0
 15 16  1  0
 16 18  1  0
 17 19  1  0
 18 20  1  0
 19 21  1  0
 20 22  1  0
 21 23  1  0
 22 24  1  0
 23 25  1  0
M  END
>  <PUBCHEM_COMPOUND_CID>  (1) 
38909

>  <PUBCHEM_CONFORMER_RMSD>  (1) 
1.2

>  <PUBCHEM_CONFORMER_DIVERSEORDER>  (1) 
1
3
59
20
31
119
101
124
33
65
15
81
112
38
67
21
107
84
12
28
109
87
77
51
133
114
130
85
128
13
132
73
135
115
116
47
98
2
32
78
125
121
19
100
136
22
44
69
16
122
92
57
96
64
104
88
52
106
18
49
105
94
68
74
90
113
131
40
55
50
10
75
6
53
83
134
95
127
61
26
58
80
129
120
45
35
37
9
43
76
27
66
25
24
110
123
103
36
99
71
118
91
34
79
23
102
41
48
39
42
70
97
62
108
93
14
111
86
29
82
72
8
60
56
89
46
30
126
11
54
137
7
117
63
17
5
4

>  <PUBCHEM_MMFF94_PARTIAL_CHARGES>  (1) 
25
1 -0.68
10 0.45
11 0.14
12 -0.29
13 -0.29
14 -0.29
15 0.42
17 -0.29
19 0.14
2 -0.57
23 0.06
25 0.66
3 -0.68
33 0.15
34 0.15
35 0.4
36 0.15
4 -0.65
40 0.15
49 0.4
5 -0.57
57 0.5
7 0.2
8 0.28
9 0.06

>  <PUBCHEM_EFFECTIVE_ROTOR_COUNT>  (1) 
12.8

>  <PUBCHEM_PHARMACOPHORE_FEATURES>  (1) 
12
1 1 acceptor
1 1 donor
1 2 acceptor
1 24 hydrophobe
1 3 acceptor
1 3 donor
1 4 acceptor
1 5 acceptor
3 4 5 25 anion
4 16 18 20 22 hydrophobe
4 17 19 21 23 hydrophobe
5 6 7 8 9 10 rings

>  <PUBCHEM_HEAVY_ATOM_COUNT>  (1) 
25

>  <PUBCHEM_ATOM_DEF_STEREO_COUNT>  (1) 
4

>  <PUBCHEM_ATOM_UDEF_STEREO_COUNT>  (1) 
0

>  <PUBCHEM_BOND_DEF_STEREO_COUNT>  (1) 
0

>  <PUBCHEM_BOND_UDEF_STEREO_COUNT>  (1) 
2

>  <PUBCHEM_ISOTOPIC_ATOM_COUNT>  (1) 
0

>  <PUBCHEM_COMPONENT_COUNT>  (1) 
1

>  <PUBCHEM_CACTVS_TAUTO_COUNT>  (1) 
5

>  <PUBCHEM_CONFORMER_ID>  (1) 
000097FD00000001

>  <PUBCHEM_MMFF94_ENERGY>  (1) 
20.6459

>  <PUBCHEM_FEATURE_SELFOVERLAP>  (1) 
60.956

>  <PUBCHEM_SHAPE_FINGERPRINT>  (1) 
12422481 6 17821450162074169453
14251764 75 18195251233375920232
146900 427 18340209566406820193
14790565 3 18411417332255918423
16760501 71 18410011052821393984
17349148 13 12396881943189775087
1768 85 18410576214266696129
20771845 35 14058093388019254488
23227448 37 18411694400522421646
23559900 14 17541935391574601387
392239 28 18340489959120454337
53794403 172 18409731798606818652

>  <PUBCHEM_SHAPE_MULTIPOLES>  (1) 
485.14
13.45
6.08
1.09
2.18
2.48
-0.18
12.4
-3.17
-6.77
0.4
1.74
0.24
0.13

>  <PUBCHEM_SHAPE_SELFOVERLAP>  (1) 
951.23

>  <PUBCHEM_SHAPE_VOLUME>  (1) 
291

>  <PUBCHEM_COORDINATE_TYPE>  (1) 
2
5
10

$$$$
