38903
     RDKit          3D

 25 27  0  0  0  0  0  0  0  0999 V2000
    1.7244   -4.7081    0.6165 Cl  0  0  0  0  0  0  0  0  0  0  0  0
    4.5983   -3.4689   -0.1970 Cl  0  0  0  0  0  0  0  0  0  0  0  0
    2.8573    3.7430   -0.6668 O   0  0  0  0  0  0  0  0  0  0  0  0
   -1.5744    4.5374    0.2544 O   0  0  0  0  0  0  0  0  0  0  0  0
   -0.1268    0.1104    0.4600 N   0  0  0  0  0  0  0  0  0  0  0  0
   -3.4992   -1.3780   -0.0858 N   0  0  0  0  0  0  0  0  0  0  0  0
    2.4261    1.1127   -0.2504 N   0  0  0  0  0  0  0  0  0  0  0  0
   -0.8738    2.3743    0.3570 N   0  0  0  0  0  0  0  0  0  0  0  0
    0.6161    4.1664   -0.2038 N   0  0  0  0  0  0  0  0  0  0  0  0
   -1.4305   -0.4409    0.8269 C   0  0  0  0  0  0  0  0  0  0  0  0
   -2.2068   -0.8009   -0.4334 C   0  0  0  0  0  0  0  0  0  0  0  0
    0.9584   -0.7821    0.3172 C   0  0  0  0  0  0  0  0  0  0  0  0
   -4.2505   -1.7262   -1.2933 C   0  0  0  0  0  0  0  0  0  0  0  0
   -4.2724   -0.4510    0.7427 C   0  0  0  0  0  0  0  0  0  0  0  0
    0.0572    1.4723    0.2517 C   0  0  0  0  0  0  0  0  0  0  0  0
    2.2189   -0.2591   -0.0368 C   0  0  0  0  0  0  0  0  0  0  0  0
    1.4378    1.9373   -0.1226 C   0  0  0  0  0  0  0  0  0  0  0  0
    0.8530   -2.1725    0.5093 C   0  0  0  0  0  0  0  0  0  0  0  0
   -3.4663   -2.6886   -2.1692 C   0  0  0  0  0  0  0  0  0  0  0  0
   -5.5948   -1.0666    1.1676 C   0  0  0  0  0  0  0  0  0  0  0  0
    3.3223   -1.1130   -0.1877 C   0  0  0  0  0  0  0  0  0  0  0  0
    1.7330    3.3813   -0.3650 C   0  0  0  0  0  0  0  0  0  0  0  0
    1.9580   -3.0140    0.3565 C   0  0  0  0  0  0  0  0  0  0  0  0
    3.1933   -2.4844    0.0080 C   0  0  0  0  0  0  0  0  0  0  0  0
   -0.6586    3.7190    0.1442 C   0  0  0  0  0  0  0  0  0  0  0  0
  1 23  1  0
  2 24  1  0
  3 22  2  0
  4 25  2  0
  5 10  1  0
  5 12  1  0
  5 15  1  0
  6 11  1  0
  6 13  1  0
  6 14  1  0
  7 16  1  0
  7 17  2  0
  8 15  2  0
  8 25  1  0
  9 22  1  0
  9 25  1  0
 10 11  1  0
 12 16  2  0
 12 18  1  0
 13 19  1  0
 14 20  1  0
 15 17  1  0
 16 21  1  0
 17 22  1  0
 18 23  2  0
 21 24  2  0
 23 24  1  0
M  END
>  <PUBCHEM_COMPOUND_CID>  (1) 
38903

>  <PUBCHEM_CONFORMER_RMSD>  (1) 
0.8

>  <PUBCHEM_CONFORMER_DIVERSEORDER>  (1) 
2
9
5
7
4
8
1
6
3

>  <PUBCHEM_MMFF94_PARTIAL_CHARGES>  (1) 
26
1 -0.18
10 0.37
11 0.27
12 0.1
13 0.27
14 0.27
15 0.5
16 0.18
17 0.45
18 -0.15
2 -0.18
21 -0.15
22 0.63
23 0.18
24 0.18
25 0.84
3 -0.57
34 0.15
4 -0.57
41 0.15
42 0.37
5 -0.52
6 -0.81
7 -0.63
8 -0.66
9 -0.49

>  <PUBCHEM_EFFECTIVE_ROTOR_COUNT>  (1) 
5

>  <PUBCHEM_PHARMACOPHORE_FEATURES>  (1) 
9
1 3 acceptor
1 4 acceptor
1 6 cation
1 7 acceptor
1 8 donor
1 9 donor
6 12 16 18 21 23 24 rings
6 5 7 12 15 16 17 rings
6 8 9 15 17 22 25 rings

>  <PUBCHEM_HEAVY_ATOM_COUNT>  (1) 
25

>  <PUBCHEM_ATOM_DEF_STEREO_COUNT>  (1) 
0

>  <PUBCHEM_ATOM_UDEF_STEREO_COUNT>  (1) 
0

>  <PUBCHEM_BOND_DEF_STEREO_COUNT>  (1) 
0

>  <PUBCHEM_BOND_UDEF_STEREO_COUNT>  (1) 
0

>  <PUBCHEM_ISOTOPIC_ATOM_COUNT>  (1) 
0

>  <PUBCHEM_COMPONENT_COUNT>  (1) 
1

>  <PUBCHEM_CACTVS_TAUTO_COUNT>  (1) 
3

>  <PUBCHEM_CONFORMER_ID>  (1) 
000097F700000002

>  <PUBCHEM_MMFF94_ENERGY>  (1) 
63.0978

>  <PUBCHEM_FEATURE_SELFOVERLAP>  (1) 
45.773

>  <PUBCHEM_SHAPE_FINGERPRINT>  (1) 
10411042 1 18337116644224425794
10693767 8 18058455485678740046
1100329 8 18121498222761791848
11578080 2 17701514260916037465
12107183 9 18269570338738375235
12553582 1 18338509742763560371
12730499 353 17902508530475941351
13004483 165 18050273787496485667
13009979 54 17917721205600996379
13140716 1 18191589859718041482
13690498 29 17838351679050796110
138480 1 18409733962626133730
13911987 19 18117008886583882700
14178342 30 17830722167854667042
14790565 3 17976836589660045033
15042514 8 17760654663470106754
15842332 3 17987798665486970519
16087824 20 17832710063561500817
1813 80 18200326424055975695
19591789 44 17256818217528323722
20101258 96 18193289493729346322
20775438 99 17689382254174316685
21041028 32 18336832979009163507
21478907 32 18193277390764707075
2255824 54 18339358685830079823
23598288 3 17832983845687041611
23598291 2 18130508656026965879
238 59 17833255794599914775
352729 6 17186723818771245273
463206 1 18408604772812285447
474 4 18050849120146063257
5309563 4 18337398149545716315
59025328 239 17769331107652391391
6443956 14 18408044004653757903
7164475 11 18193280685052387942
7471813 234 18410288086759670862

>  <PUBCHEM_SHAPE_MULTIPOLES>  (1) 
481.58
8
6.81
1.07
3.26
6.37
0.38
-10.11
-0.2
-0.62
0.91
1.2
-0.98
-1.45

>  <PUBCHEM_SHAPE_SELFOVERLAP>  (1) 
1010.149

>  <PUBCHEM_SHAPE_VOLUME>  (1) 
272.8

>  <PUBCHEM_COORDINATE_TYPE>  (1) 
2
5
10

$$$$
