38908
     RDKit          3D

 18 21  0  0  0  0  0  0  0  0999 V2000
   -1.8543    0.3595    0.1004 C   0  0  0  0  0  0  0  0  0  0  0  0
   -2.3934   -0.9444    0.0800 C   0  0  0  0  0  0  0  0  0  0  0  0
   -0.4353    0.5534    0.0651 C   0  0  0  0  0  0  0  0  0  0  0  0
   -3.8836   -1.1734    0.1656 C   0  0  0  0  0  0  0  0  0  0  0  0
    0.4372   -0.5747    0.0281 C   0  0  0  0  0  0  0  0  0  0  0  0
   -4.6935   -0.0288   -0.4432 C   0  0  0  0  0  0  0  0  0  0  0  0
    1.8700   -0.3917   -0.0052 C   0  0  0  0  0  0  0  0  0  0  0  0
   -1.5397   -2.0408    0.0544 C   0  0  0  0  0  0  0  0  0  0  0  0
   -2.8169    1.4819    0.1732 C   0  0  0  0  0  0  0  0  0  0  0  0
   -0.1597   -1.8556    0.0261 C   0  0  0  0  0  0  0  0  0  0  0  0
    2.4016    0.9205   -0.0070 C   0  0  0  0  0  0  0  0  0  0  0  0
    0.1593    1.8320    0.0548 C   0  0  0  0  0  0  0  0  0  0  0  0
   -4.1182    1.3072   -0.0962 C   0  0  0  0  0  0  0  0  0  0  0  0
    1.5399    2.0124    0.0213 C   0  0  0  0  0  0  0  0  0  0  0  0
    2.8169   -1.4496   -0.0382 C   0  0  0  0  0  0  0  0  0  0  0  0
    3.7901    1.1397   -0.0392 C   0  0  0  0  0  0  0  0  0  0  0  0
    4.1962   -1.2221   -0.0698 C   0  0  0  0  0  0  0  0  0  0  0  0
    4.6833    0.0745   -0.0703 C   0  0  0  0  0  0  0  0  0  0  0  0
  1  2  2  0
  1  3  1  0
  1  9  1  0
  2  4  1  0
  2  8  1  0
  3  5  2  0
  3 12  1  0
  4  6  1  0
  5  7  1  0
  5 10  1  0
  6 13  1  0
  7 11  2  0
  7 15  1  0
  8 10  2  0
  9 13  2  0
 11 14  1  0
 11 16  1  0
 12 14  2  0
 15 17  2  0
 16 18  2  0
 17 18  1  0
M  END
>  <PUBCHEM_COMPOUND_CID>  (1) 
38908

>  <PUBCHEM_CONFORMER_RMSD>  (1) 
0.6

>  <PUBCHEM_CONFORMER_DIVERSEORDER>  (1) 
1

>  <PUBCHEM_MMFF94_PARTIAL_CHARGES>  (1) 
24
1 0.03
10 -0.15
12 -0.15
13 -0.29
14 -0.15
15 -0.15
16 -0.15
17 -0.15
18 -0.15
2 -0.14
23 0.15
24 0.15
25 0.15
26 0.15
27 0.15
28 0.15
29 0.15
30 0.15
31 0.15
32 0.15
4 0.14
6 0.14
8 -0.15
9 -0.18

>  <PUBCHEM_EFFECTIVE_ROTOR_COUNT>  (1) 
0.4

>  <PUBCHEM_PHARMACOPHORE_FEATURES>  (1) 
4
6 1 2 3 5 8 10 rings
6 1 2 4 6 9 13 rings
6 3 5 7 11 12 14 rings
6 7 11 15 16 17 18 rings

>  <PUBCHEM_HEAVY_ATOM_COUNT>  (1) 
18

>  <PUBCHEM_ATOM_DEF_STEREO_COUNT>  (1) 
0

>  <PUBCHEM_ATOM_UDEF_STEREO_COUNT>  (1) 
0

>  <PUBCHEM_BOND_DEF_STEREO_COUNT>  (1) 
0

>  <PUBCHEM_BOND_UDEF_STEREO_COUNT>  (1) 
0

>  <PUBCHEM_ISOTOPIC_ATOM_COUNT>  (1) 
0

>  <PUBCHEM_COMPONENT_COUNT>  (1) 
1

>  <PUBCHEM_CACTVS_TAUTO_COUNT>  (1) 
1

>  <PUBCHEM_CONFORMER_ID>  (1) 
000097FC00000001

>  <PUBCHEM_MMFF94_ENERGY>  (1) 
60.11

>  <PUBCHEM_FEATURE_SELFOVERLAP>  (1) 
20.365

>  <PUBCHEM_SHAPE_FINGERPRINT>  (1) 
10062212 137 18342733014233109663
10608611 8 18339641251707137896
10616163 171 18340209716483210270
10967382 1 18410856516911760154
11132069 177 18411415103236392168
11471102 20 18410571795024078892
11578080 2 16843028990863120051
12011746 2 18410856551092053390
12403259 226 18339919432982152105
12403259 415 18408597063772828325
13140716 1 18410858737193509816
13221675 6 18409166627484846298
13380535 76 18411983559280130951
13675066 3 18336266833314984194
13862211 1 18410851032133359394
14115302 16 18187656820578116356
14790565 3 18195255416389126041
14866123 147 17263857879817864530
15099037 51 18410292493089953415
15196674 1 18410575084668353672
15230672 131 13218181524404449107
15375358 24 18342739624203557006
15442244 35 18411138021932116936
15536298 74 18342457053994199184
16945 1 18122626320937580856
17492 89 18339642355472282022
17804303 29 18411422829682272877
1813 80 17240201036779571964
18186145 218 18040710359690056271
18522853 276 18341894099434658736
19591789 44 18337670806595287146
200 152 17989484134875123821
20510252 161 18272654523760699929
20645477 70 18341895160592573206
21029758 11 18343579646686826073
21267235 1 18410865360360478218
21279426 13 18266458694001681375
21421861 104 17751068125262978826
221490 88 18263932209580979955
2334 1 18410857697806123056
23402539 116 18272080582859101087
23402655 69 18341892987053907940
23463225 33 18409731759571635380
23559900 14 18343298206486773648
2748010 2 18410858784432855455
3004659 81 18260552178690560694
335352 9 18338517421921505412
34934 24 18411131468228826082
350125 39 18410579496370315809
3545911 37 18411139147034174376
4214541 1 18410575076273760301
474 4 17241616202855340244
495365 180 17489011747848267032
5104073 3 18410575093263583480
6138700 20 18266180526773014494
69090 78 18413386544627882487
7364860 26 18198341951997453160
77779 3 18409450292863073420
8809292 202 18261959651450961619
9709674 26 18412269470773701966
9981440 41 17254555418420295736

>  <PUBCHEM_SHAPE_MULTIPOLES>  (1) 
370.43
8.81
2.16
0.63
0.02
0.01
0
-0.02
-0.57
0.09
0.05
0.06
0
0.06

>  <PUBCHEM_SHAPE_SELFOVERLAP>  (1) 
840.654

>  <PUBCHEM_SHAPE_VOLUME>  (1) 
178.8

>  <PUBCHEM_COORDINATE_TYPE>  (1) 
2
5
10

$$$$
