38907
     RDKit          3D

 16 19  0  0  1  0  0  0  0  0999 V2000
    1.3359   -0.7931   -0.8243 C   0  0  0  0  0  0  0  0  0  0  0  0
    1.3362    0.7918   -0.8250 C   0  0  0  0  0  0  0  0  0  0  0  0
   -0.0714   -1.1304   -0.3884 C   0  0  0  0  0  0  0  0  0  0  0  0
   -0.0706    1.1301   -0.3884 C   0  0  0  0  0  0  0  0  0  0  0  0
   -0.8139    0.0001   -0.1630 C   0  0  0  0  0  0  0  0  0  0  0  0
    2.3872   -1.4285    0.0463 C   0  0  0  0  0  0  0  0  0  0  0  0
    2.3885    1.4275    0.0442 C   0  0  0  0  0  0  0  0  0  0  0  0
   -2.1539    0.0005    0.2365 C   0  0  0  0  0  0  0  0  0  0  0  0
   -0.6704   -2.3711   -0.2264 C   0  0  0  0  0  0  0  0  0  0  0  0
   -0.6686    2.3713   -0.2259 C   0  0  0  0  0  0  0  0  0  0  0  0
    3.2669   -0.7198    0.7661 C   0  0  0  0  0  0  0  0  0  0  0  0
    3.2678    0.7191    0.7645 C   0  0  0  0  0  0  0  0  0  0  0  0
   -2.7550   -1.2587    0.4123 C   0  0  0  0  0  0  0  0  0  0  0  0
   -2.7541    1.2602    0.4127 C   0  0  0  0  0  0  0  0  0  0  0  0
   -2.0131   -2.4312    0.1792 C   0  0  0  0  0  0  0  0  0  0  0  0
   -2.0113    2.4321    0.1797 C   0  0  0  0  0  0  0  0  0  0  0  0
  1  2  1  0
  1  3  1  0
  1  6  1  0
  2  4  1  0
  2  7  1  0
  3  5  1  0
  3  9  2  0
  4  5  2  0
  4 10  1  0
  5  8  1  0
  6 11  2  0
  7 12  2  0
  8 13  1  0
  8 14  2  0
  9 15  1  0
 10 16  2  0
 11 12  1  0
 13 15  2  0
 14 16  1  0
M  END
>  <PUBCHEM_COMPOUND_CID>  (1) 
38907

>  <PUBCHEM_CONFORMER_RMSD>  (1) 
0.4

>  <PUBCHEM_CONFORMER_DIVERSEORDER>  (1) 
1
2

>  <PUBCHEM_MMFF94_PARTIAL_CHARGES>  (1) 
24
1 0.28
10 -0.15
11 -0.15
12 -0.15
13 -0.15
14 -0.15
15 -0.15
16 -0.15
19 0.15
2 0.28
20 0.15
21 0.15
22 0.15
23 0.15
24 0.15
25 0.15
26 0.15
27 0.15
28 0.15
3 -0.14
4 -0.14
6 -0.29
7 -0.29
9 -0.15

>  <PUBCHEM_EFFECTIVE_ROTOR_COUNT>  (1) 
0

>  <PUBCHEM_PHARMACOPHORE_FEATURES>  (1) 
4
5 1 2 3 4 5 rings
6 1 2 6 7 11 12 rings
6 3 5 8 9 13 15 rings
6 4 5 8 10 14 16 rings

>  <PUBCHEM_HEAVY_ATOM_COUNT>  (1) 
16

>  <PUBCHEM_ATOM_DEF_STEREO_COUNT>  (1) 
0

>  <PUBCHEM_ATOM_UDEF_STEREO_COUNT>  (1) 
2

>  <PUBCHEM_BOND_DEF_STEREO_COUNT>  (1) 
0

>  <PUBCHEM_BOND_UDEF_STEREO_COUNT>  (1) 
0

>  <PUBCHEM_ISOTOPIC_ATOM_COUNT>  (1) 
0

>  <PUBCHEM_COMPONENT_COUNT>  (1) 
1

>  <PUBCHEM_CACTVS_TAUTO_COUNT>  (1) 
1

>  <PUBCHEM_CONFORMER_ID>  (1) 
000097FB00000001

>  <PUBCHEM_MMFF94_ENERGY>  (1) 
48.2402

>  <PUBCHEM_FEATURE_SELFOVERLAP>  (1) 
20.648

>  <PUBCHEM_SHAPE_FINGERPRINT>  (1) 
10967382 1 18194404389998379053
1100329 8 14664421982880589520
11086676 242 18191040077780570947
12011746 2 18193554459115398182
12251169 10 18409164385817814528
12382932 28 18412266172254064768
12423570 1 8776922530387966892
12553582 1 18050014586140914247
13140716 1 18338526244048062419
13172582 1 18335427824444191797
13380535 76 18267862775004092373
13538477 17 18260555532347479260
14223421 5 18341048618306549344
14420673 8 18049993408528045154
14790565 3 16822510055833341421
15076042 46 18410854365075025152
16945 1 18410862061524544460
17804303 29 18267590104868821390
1813 80 16807015317315723418
19930374 2 17897716561784543341
20361792 2 16298385738835504156
20510252 161 18343867714316867593
20525323 117 18342450482398882767
20559304 39 18047480207327340182
20871998 184 18271807959862923367
21501502 16 18410294718067635412
21731228 192 18197221351847742681
22112679 90 16981248683590400455
22445834 79 18187357723361347562
23184049 29 18409450318712323334
2334 1 18410864286533875093
23388829 49 17979631560980245669
23402539 116 18271230703895756591
23419403 2 17615929590212435413
23463225 33 18335984288991662932
23559900 14 17838913542788688542
257057 1 17979626059428138031
2748010 2 18339094691644090087
34934 24 18123467443312318271
53812653 166 17907863898794179460
58807428 26 18193276282705174187
69090 78 18339355267399738793
7097593 13 18116414965668931602
7364860 26 17332243096333880479
81228 2 18409457994082411027
84936 182 17261015633359503257
90316 7 18187911881401065440

>  <PUBCHEM_SHAPE_MULTIPOLES>  (1) 
329.27
4.73
2.81
0.83
2.03
0
-0.01
0
1.4
-1.59
-0.01
0.27
0
0

>  <PUBCHEM_SHAPE_SELFOVERLAP>  (1) 
757.329

>  <PUBCHEM_SHAPE_VOLUME>  (1) 
157

>  <PUBCHEM_COORDINATE_TYPE>  (1) 
2
5
10

$$$$
