38914
     RDKit          3D

 25 27  0  0  0  0  0  0  0  0999 V2000
    0.9789    2.4891   -0.2853 S   0  0  0  0  0  0  0  0  0  0  0  0
   -1.5488    1.6632    0.0699 O   0  0  0  0  0  0  0  0  0  0  0  0
   -0.3782    0.3319   -2.3335 O   0  0  0  0  0  0  0  0  0  0  0  0
    0.1216    0.7831    2.3687 O   0  0  0  0  0  0  0  0  0  0  0  0
   -2.3223   -0.4615    0.4734 O   0  0  0  0  0  0  0  0  0  0  0  0
   -3.7727    1.3478    0.4028 N   0  0  0  0  0  0  0  0  0  0  0  0
   -0.2363    1.1796   -0.0310 C   0  0  0  0  0  0  0  0  0  0  0  0
    0.3126   -1.1075   -0.5730 C   0  0  0  0  0  0  0  0  0  0  0  0
    0.4590   -0.9751    0.8060 C   0  0  0  0  0  0  0  0  0  0  0  0
   -0.1289    0.1633   -1.1545 C   0  0  0  0  0  0  0  0  0  0  0  0
    0.1228    0.3908    1.2169 C   0  0  0  0  0  0  0  0  0  0  0  0
    0.5626   -2.3030   -1.2178 C   0  0  0  0  0  0  0  0  0  0  0  0
    0.8615   -2.0329    1.5978 C   0  0  0  0  0  0  0  0  0  0  0  0
    0.9724   -3.3839   -0.4323 C   0  0  0  0  0  0  0  0  0  0  0  0
    1.1205   -3.2501    0.9619 C   0  0  0  0  0  0  0  0  0  0  0  0
    2.4715    1.5416   -0.2532 C   0  0  0  0  0  0  0  0  0  0  0  0
   -2.5382    0.7374    0.3302 C   0  0  0  0  0  0  0  0  0  0  0  0
    2.9959    0.9992   -1.4348 C   0  0  0  0  0  0  0  0  0  0  0  0
    3.1486    1.3219    0.9546 C   0  0  0  0  0  0  0  0  0  0  0  0
    4.1736    0.2520   -1.4092 C   0  0  0  0  0  0  0  0  0  0  0  0
    4.3264    0.5749    0.9802 C   0  0  0  0  0  0  0  0  0  0  0  0
   -5.0040    0.6383    0.6636 C   0  0  0  0  0  0  0  0  0  0  0  0
    4.8388    0.0400   -0.2017 C   0  0  0  0  0  0  0  0  0  0  0  0
   -5.6511    0.1722   -0.6042 C   0  0  0  0  0  0  0  0  0  0  0  0
   -5.8863   -1.1123   -0.8954 C   0  0  0  0  0  0  0  0  0  0  0  0
  1  7  1  0
  1 16  1  0
  2  7  1  0
  2 17  1  0
  3 10  2  0
  4 11  2  0
  5 17  2  0
  6 17  1  0
  6 22  1  0
  7 10  1  0
  7 11  1  0
  8  9  2  0
  8 10  1  0
  8 12  1  0
  9 11  1  0
  9 13  1  0
 12 14  2  0
 13 15  2  0
 14 15  1  0
 16 18  2  0
 16 19  1  0
 18 20  1  0
 19 21  2  0
 20 23  2  0
 21 23  1  0
 22 24  1  0
 24 25  2  0
M  END
>  <PUBCHEM_COMPOUND_CID>  (1) 
38914

>  <PUBCHEM_CONFORMER_RMSD>  (1) 
0.8

>  <PUBCHEM_CONFORMER_DIVERSEORDER>  (1) 
1
51
52
25
46
12
28
22
53
29
32
47
42
50
43
39
10
23
30
44
24
48
6
16
37
5
2
18
19
33
40
9
49
27
11
31
35
45
14
21
41
7
4
13
8
3
17
20
36
34
38
15
26

>  <PUBCHEM_MMFF94_PARTIAL_CHARGES>  (1) 
38
1 -0.33
10 0.42
11 0.42
12 -0.15
13 -0.15
14 -0.15
15 -0.15
16 0.1
17 0.78
18 -0.15
19 -0.15
2 -0.43
20 -0.15
21 -0.15
22 0.44
23 -0.15
24 -0.29
25 -0.3
26 0.15
27 0.15
28 0.15
29 0.15
3 -0.57
30 0.15
31 0.15
32 0.37
33 0.15
34 0.15
37 0.15
38 0.15
39 0.15
4 -0.57
40 0.15
5 -0.57
6 -0.73
7 0.63
8 0.09
9 0.09

>  <PUBCHEM_EFFECTIVE_ROTOR_COUNT>  (1) 
7.2

>  <PUBCHEM_PHARMACOPHORE_FEATURES>  (1) 
8
1 25 hydrophobe
1 3 acceptor
1 4 acceptor
1 5 acceptor
1 6 donor
5 7 8 9 10 11 rings
6 16 18 19 20 21 23 rings
6 8 9 12 13 14 15 rings

>  <PUBCHEM_HEAVY_ATOM_COUNT>  (1) 
25

>  <PUBCHEM_ATOM_DEF_STEREO_COUNT>  (1) 
0

>  <PUBCHEM_ATOM_UDEF_STEREO_COUNT>  (1) 
0

>  <PUBCHEM_BOND_DEF_STEREO_COUNT>  (1) 
0

>  <PUBCHEM_BOND_UDEF_STEREO_COUNT>  (1) 
0

>  <PUBCHEM_ISOTOPIC_ATOM_COUNT>  (1) 
0

>  <PUBCHEM_COMPONENT_COUNT>  (1) 
1

>  <PUBCHEM_CACTVS_TAUTO_COUNT>  (1) 
2

>  <PUBCHEM_CONFORMER_ID>  (1) 
0000980200000001

>  <PUBCHEM_MMFF94_ENERGY>  (1) 
65.5261

>  <PUBCHEM_FEATURE_SELFOVERLAP>  (1) 
40.678

>  <PUBCHEM_SHAPE_FINGERPRINT>  (1) 
11421498 54 17845946147433222033
11488393 25 17970612013684693538
11578080 2 17171522069689980356
11963148 33 18260826046901090603
12011746 2 15719396114204618628
12035759 4 18127667478909388575
12293681 4 11815620830615029247
12592029 89 18335706005318032906
12788726 201 17543071633403749738
13083527 12 18044645408811398602
13140716 1 18266184005495882585
14955137 171 17913196569424348010
15131766 46 14853878316826207668
15142383 8 12391529580968641267
15849732 13 18040992960755475784
16945 1 18121508122313535218
17349148 13 18041007254111335389
20028762 73 18200874079773105679
20197701 30 18340201989715400586
20567600 347 18409170991282700706
20905425 154 17907305355994220788
21054139 6 18270671086931941487
21330990 113 18260269637701870772
21521721 280 18129388257646240577
22956985 138 17753037311575657970
23419403 2 16959346068710408978
23558518 356 17765700708877261025
23559900 14 17767400184813779887
3060560 45 18335980947528491488
404807 78 17899973026993768419
4340502 62 18412830183491909771
465052 167 17167870767825985424
59755656 215 18409450245713437599
6138700 20 18338244748182441414
6669772 16 17201901833926979120
7495541 125 13038895664545753717
81228 2 17831007297636867418
9999458 23 18336546109258383549

>  <PUBCHEM_SHAPE_MULTIPOLES>  (1) 
489.88
9.16
2.88
1.65
12.1
2.62
0
-2.25
-1.52
-1.16
0.17
-0.57
0.14
-0.53

>  <PUBCHEM_SHAPE_SELFOVERLAP>  (1) 
1059.123

>  <PUBCHEM_SHAPE_VOLUME>  (1) 
268.1

>  <PUBCHEM_COORDINATE_TYPE>  (1) 
2
5
10

$$$$
