38913
     RDKit          3D

 17 18  0  0  0  0  0  0  0  0999 V2000
    6.2978   -1.3922    0.0022 Br  0  0  0  0  0  0  0  0  0  0  0  0
   -1.5791    2.7302    0.0003 Cl  0  0  0  0  0  0  0  0  0  0  0  0
    0.7593    1.1405   -0.0004 N   0  0  0  0  0  0  0  0  0  0  0  0
   -0.3495    0.3786    0.0002 N   0  0  0  0  0  0  0  0  0  0  0  0
    2.0345    0.5575   -0.0002 C   0  0  0  0  0  0  0  0  0  0  0  0
   -2.7463    0.1602   -0.0002 C   0  0  0  0  0  0  0  0  0  0  0  0
    3.1787    1.3625    0.0003 C   0  0  0  0  0  0  0  0  0  0  0  0
    2.1739   -0.8346   -0.0008 C   0  0  0  0  0  0  0  0  0  0  0  0
   -2.6588   -1.2319   -0.0003 C   0  0  0  0  0  0  0  0  0  0  0  0
   -3.9956    0.7805    0.0000 C   0  0  0  0  0  0  0  0  0  0  0  0
   -1.5351    0.9649    0.0000 C   0  0  0  0  0  0  0  0  0  0  0  0
    4.4473    0.7826   -0.0001 C   0  0  0  0  0  0  0  0  0  0  0  0
    3.4425   -1.4146   -0.0010 C   0  0  0  0  0  0  0  0  0  0  0  0
    4.5792   -0.6061   -0.0008 C   0  0  0  0  0  0  0  0  0  0  0  0
   -3.8208   -2.0037   -0.0001 C   0  0  0  0  0  0  0  0  0  0  0  0
   -5.1575    0.0088    0.0005 C   0  0  0  0  0  0  0  0  0  0  0  0
   -5.0702   -1.3833    0.0005 C   0  0  0  0  0  0  0  0  0  0  0  0
  1 14  1  0
  2 11  1  0
  3  4  1  0
  3  5  1  0
  4 11  2  0
  5  7  2  0
  5  8  1  0
  6  9  2  0
  6 10  1  0
  6 11  1  0
  7 12  1  0
  8 13  2  0
  9 15  1  0
 10 16  2  0
 12 14  2  0
 13 14  1  0
 15 17  2  0
 16 17  1  0
M  END
>  <PUBCHEM_COMPOUND_CID>  (1) 
38913

>  <PUBCHEM_CONFORMER_RMSD>  (1) 
0.6

>  <PUBCHEM_CONFORMER_DIVERSEORDER>  (1) 
1
4
2
3

>  <PUBCHEM_MMFF94_PARTIAL_CHARGES>  (1) 
27
1 -0.11
10 -0.15
11 0.57
12 -0.15
13 -0.15
14 0.11
15 -0.15
16 -0.15
17 -0.15
18 0.15
19 0.15
2 -0.21
20 0.15
21 0.15
22 0.4
23 0.15
24 0.15
25 0.15
26 0.15
27 0.15
3 -0.46
4 -0.49
5 0.1
6 0.09
7 -0.15
8 -0.15
9 -0.15

>  <PUBCHEM_EFFECTIVE_ROTOR_COUNT>  (1) 
3

>  <PUBCHEM_PHARMACOPHORE_FEATURES>  (1) 
5
1 1 hydrophobe
1 3 donor
1 4 acceptor
6 5 7 8 12 13 14 rings
6 6 9 10 15 16 17 rings

>  <PUBCHEM_HEAVY_ATOM_COUNT>  (1) 
17

>  <PUBCHEM_ATOM_DEF_STEREO_COUNT>  (1) 
0

>  <PUBCHEM_ATOM_UDEF_STEREO_COUNT>  (1) 
0

>  <PUBCHEM_BOND_DEF_STEREO_COUNT>  (1) 
0

>  <PUBCHEM_BOND_UDEF_STEREO_COUNT>  (1) 
1

>  <PUBCHEM_ISOTOPIC_ATOM_COUNT>  (1) 
0

>  <PUBCHEM_COMPONENT_COUNT>  (1) 
1

>  <PUBCHEM_CACTVS_TAUTO_COUNT>  (1) 
1

>  <PUBCHEM_CONFORMER_ID>  (1) 
0000980100000001

>  <PUBCHEM_MMFF94_ENERGY>  (1) 
54.8704

>  <PUBCHEM_FEATURE_SELFOVERLAP>  (1) 
25.371

>  <PUBCHEM_SHAPE_FINGERPRINT>  (1) 
10616163 171 18412263908864757191
10968037 39 18335423477831786815
11045515 52 18113053839953444469
11315181 36 18272936020090810697
11806522 49 18335139799985285060
12107183 9 17762620585928602144
12555020 224 18337943572196155407
12596602 18 13614518558528493167
12916748 109 9295293858624003957
12916754 54 18411703183910214520
13167823 11 18410009952877015634
13288520 33 18411138026348338597
13911882 115 17918001538301081246
14251752 14 17385995122896574023
14251764 18 18201726176268695163
14341114 176 18410859858570513220
15196674 1 18410574015221737318
15352361 1 18410855477318586977
15880784 105 17988924517320835642
17834072 33 18335704961757193204
17834072 8 18187639194433221215
17844677 252 18411425011452202480
17857418 61 18409445865131839882
1813 80 17530682134391815997
19141452 34 18341614841394347759
200 152 18343301474349834577
20261772 1 17917989511996760118
20281475 54 18412267259108085609
20374829 77 18408882936494888987
20645477 70 18411138022138131166
21267235 1 18409737261145407051
221490 88 18191030194918410880
22485316 2 18411418436136301445
2297311 6 18342466923639349404
23402539 116 18335698334306111893
23557571 272 18200599094565955244
23559900 14 18411130376711501857
239999 70 18343588447723597198
26918003 58 18273213084120160448
2871803 45 18260825999164923370
3004659 81 18187080659147062602
3268164 11 16443335460489624749
335352 9 18410291398775490189
351380 3 18335419071216790874
4214541 1 18410856525523073061
465052 167 18272376415927611935
4921388 177 16298676096010571683
5104073 3 18342176682560470264
5283173 99 18187916241093571149
542803 24 13479131289395275118
559249 180 18409445856731744243
67856867 119 18262520415698942220
7495541 125 17917425454263393312
77779 3 18411138047570142789
9709674 26 18335144249107381626

>  <PUBCHEM_SHAPE_MULTIPOLES>  (1) 
347.7
13.97
2.19
0.62
6.38
0.56
0
-6.69
0.01
-0.92
0
0.05
-0.01
0

>  <PUBCHEM_SHAPE_SELFOVERLAP>  (1) 
715.892

>  <PUBCHEM_SHAPE_VOLUME>  (1) 
204.7

>  <PUBCHEM_COORDINATE_TYPE>  (1) 
2
5
10

$$$$
