38926
     RDKit          3D

 18 19  0  0  0  0  0  0  0  0999 V2000
    4.2466   -0.3774    0.2216 N   0  0  0  0  0  0  0  0  0  0  0  0
    2.8206   -0.2273    0.5609 C   0  0  0  0  0  0  0  0  0  0  0  0
    2.0538    0.2274   -0.7199 C   0  0  0  0  0  0  0  0  0  0  0  0
   -1.7027   -0.3367   -0.6544 C   0  0  0  0  0  0  0  0  0  0  0  0
    0.5909    0.4810   -0.5784 C   0  0  0  0  0  0  0  0  0  0  0  0
   -2.1664    0.9467   -0.3111 C   0  0  0  0  0  0  0  0  0  0  0  0
   -2.6505   -1.4858   -0.8952 C   0  0  0  0  0  0  0  0  0  0  0  0
   -3.6376    1.2470   -0.1642 C   0  0  0  0  0  0  0  0  0  0  0  0
   -3.4490   -1.8756    0.3482 C   0  0  0  0  0  0  0  0  0  0  0  0
   -4.2973    0.4724    0.9764 C   0  0  0  0  0  0  0  0  0  0  0  0
   -4.6493   -0.9710    0.6215 C   0  0  0  0  0  0  0  0  0  0  0  0
   -0.3202   -0.5538   -0.7861 C   0  0  0  0  0  0  0  0  0  0  0  0
    2.7294    0.8131    1.6857 C   0  0  0  0  0  0  0  0  0  0  0  0
    2.3310   -1.5892    1.0715 C   0  0  0  0  0  0  0  0  0  0  0  0
    0.1330    1.7485   -0.2392 C   0  0  0  0  0  0  0  0  0  0  0  0
   -1.2356    1.9804   -0.1079 C   0  0  0  0  0  0  0  0  0  0  0  0
    4.7918    0.9001   -0.2241 C   0  0  0  0  0  0  0  0  0  0  0  0
    4.4115   -1.3999   -0.8054 C   0  0  0  0  0  0  0  0  0  0  0  0
  1  2  1  0
  1 17  1  0
  1 18  1  0
  2  3  1  0
  2 13  1  0
  2 14  1  0
  3  5  1  0
  4  6  2  0
  4  7  1  0
  4 12  1  0
  5 12  2  0
  5 15  1  0
  6  8  1  0
  6 16  1  0
  7  9  1  0
  8 10  1  0
  9 11  1  0
 10 11  1  0
 15 16  2  0
M  END
>  <PUBCHEM_COMPOUND_CID>  (1) 
38926

>  <PUBCHEM_CONFORMER_RMSD>  (1) 
0.6

>  <PUBCHEM_CONFORMER_DIVERSEORDER>  (1) 
2
8
21
14
25
5
23
18
10
15
20
28
13
9
6
7
26
1
16
22
19
27
17
24
12
11
4
3

>  <PUBCHEM_MMFF94_PARTIAL_CHARGES>  (1) 
16
1 -0.81
12 -0.15
15 -0.15
16 -0.15
17 0.27
18 0.27
2 0.27
3 0.14
31 0.15
38 0.15
39 0.15
4 -0.14
5 -0.14
6 -0.14
7 0.14
8 0.14

>  <PUBCHEM_EFFECTIVE_ROTOR_COUNT>  (1) 
4

>  <PUBCHEM_PHARMACOPHORE_FEATURES>  (1) 
4
1 1 cation
3 2 13 14 hydrophobe
6 4 5 6 12 15 16 rings
7 4 6 7 8 9 10 11 rings

>  <PUBCHEM_HEAVY_ATOM_COUNT>  (1) 
18

>  <PUBCHEM_ATOM_DEF_STEREO_COUNT>  (1) 
0

>  <PUBCHEM_ATOM_UDEF_STEREO_COUNT>  (1) 
0

>  <PUBCHEM_BOND_DEF_STEREO_COUNT>  (1) 
0

>  <PUBCHEM_BOND_UDEF_STEREO_COUNT>  (1) 
0

>  <PUBCHEM_ISOTOPIC_ATOM_COUNT>  (1) 
0

>  <PUBCHEM_COMPONENT_COUNT>  (1) 
1

>  <PUBCHEM_CACTVS_TAUTO_COUNT>  (1) 
1

>  <PUBCHEM_CONFORMER_ID>  (1) 
0000980E00000002

>  <PUBCHEM_MMFF94_ENERGY>  (1) 
55.9258

>  <PUBCHEM_FEATURE_SELFOVERLAP>  (1) 
20.305

>  <PUBCHEM_SHAPE_FINGERPRINT>  (1) 
10366900 7 17774714299301645545
11046707 91 18259985981177049229
11132069 177 18412535509648006493
11370993 144 17704078360718247427
11543360 7 14273454799028186711
11552529 35 17130982234434855207
11578080 2 17677592293895115269
121448 382 9583514322318608181
12236239 1 17894917308802564820
12251169 10 18342177791126144997
12507557 5 12967120618941504099
12507560 40 18131063861595150744
12553582 1 18259977193420832027
12633257 1 16917347034910586022
12670546 177 11963397370540871051
12714826 92 17894903019251257285
128620 24 16587742040605859298
13103583 49 17972351583778601483
13140716 1 18342462599119121521
13224815 77 18187357731766509650
13296908 3 18341604932387675390
13675066 3 18342737420616178941
13760787 19 17749671783807471357
14004511 7 11743841369715690916
14341114 176 18059862761577474224
14787075 74 18188212134101095936
15209289 33 18113902692994267283
15209294 21 17418104182959443081
15375462 189 18260263053379700018
15653759 3 18201995538609520928
16945 1 18413111632820259757
17349148 13 16805037402938630112
17804303 29 18343867710106341485
17834072 33 18114188557501303476
1813 80 17676214567027582062
192875 21 9511453433544911538
19784866 170 18271814501309059783
200 152 15430036552026610604
20261772 1 18343865541200708527
20281475 54 18113610183924657026
20291156 8 18333447638225084041
21033648 29 17346308272462215897
21267235 1 18335712654017402335
21637258 2 16081661088327255105
22646028 28 18261109694523681463
2297311 6 18342189842582805948
231179 274 13110973002252688681
232386 152 18336551602895562461
23402539 116 8214146231205685602
23559900 14 18341050710129585670
25147074 1 18198071481043297333
2838139 119 14619954773879538305
3268164 11 8214139634267742475
351380 180 7997970159147024390
474 4 17459198541938936404
5104073 3 18413101741494447912
57724786 102 15123229995827743226
83771 10 18260265269714823301
90316 7 18335702707095022245

>  <PUBCHEM_SHAPE_MULTIPOLES>  (1) 
365.45
9.79
1.92
1.14
2.28
0.03
-0.27
2.14
-1.46
-0.75
0
0.36
0.1
0.18

>  <PUBCHEM_SHAPE_SELFOVERLAP>  (1) 
751.283

>  <PUBCHEM_SHAPE_VOLUME>  (1) 
209.1

>  <PUBCHEM_COORDINATE_TYPE>  (1) 
2
5
10

$$$$
