38937
     RDKit          3D

 15 17  0  0  0  0  0  0  0  0999 V2000
    4.3757   -0.1384    0.4448 N   0  0  0  0  0  0  0  0  0  0  0  0
   -2.7272    0.2782    0.9934 C   0  0  0  0  0  0  0  0  0  0  0  0
   -2.0123   -1.4335   -0.7208 C   0  0  0  0  0  0  0  0  0  0  0  0
   -1.3832    0.9957   -1.0235 C   0  0  0  0  0  0  0  0  0  0  0  0
   -0.2939   -0.3783    0.8031 C   0  0  0  0  0  0  0  0  0  0  0  0
   -3.1246   -1.0145    0.2579 C   0  0  0  0  0  0  0  0  0  0  0  0
   -2.4982    1.3994   -0.0407 C   0  0  0  0  0  0  0  0  0  0  0  0
   -1.7871   -0.3033   -1.7459 C   0  0  0  0  0  0  0  0  0  0  0  0
   -1.4176    0.0364    1.7713 C   0  0  0  0  0  0  0  0  0  0  0  0
   -0.7064   -1.6663    0.0662 C   0  0  0  0  0  0  0  0  0  0  0  0
   -0.1219    0.7238   -0.2254 C   0  0  0  0  0  0  0  0  0  0  0  0
    1.0264    1.3891   -0.4092 C   0  0  0  0  0  0  0  0  0  0  0  0
    2.2792    1.1294    0.3731 C   0  0  0  0  0  0  0  0  0  0  0  0
    3.1541    0.0857   -0.3202 C   0  0  0  0  0  0  0  0  0  0  0  0
    5.2368   -1.1033   -0.2241 C   0  0  0  0  0  0  0  0  0  0  0  0
  1 14  1  0
  1 15  1  0
  2  6  1  0
  2  7  1  0
  2  9  1  0
  3  6  1  0
  3  8  1  0
  3 10  1  0
  4  7  1  0
  4  8  1  0
  4 11  1  0
  5  9  1  0
  5 10  1  0
  5 11  1  0
 11 12  2  3
 12 13  1  0
 13 14  1  0
M  END
>  <PUBCHEM_COMPOUND_CID>  (1) 
38937

>  <PUBCHEM_CONFORMER_RMSD>  (1) 
0.6

>  <PUBCHEM_CONFORMER_DIVERSEORDER>  (1) 
2
7
5
4
3
9
6
8
10
1

>  <PUBCHEM_MMFF94_PARTIAL_CHARGES>  (1) 
10
1 -0.9
11 -0.28
12 -0.29
13 0.14
14 0.27
15 0.27
30 0.15
35 0.36
4 0.14
5 0.14

>  <PUBCHEM_EFFECTIVE_ROTOR_COUNT>  (1) 
4

>  <PUBCHEM_PHARMACOPHORE_FEATURES>  (1) 
6
1 1 cation
1 1 donor
6 2 3 4 6 7 8 rings
6 2 3 5 6 9 10 rings
6 2 4 5 7 9 11 rings
6 3 4 5 8 10 11 rings

>  <PUBCHEM_HEAVY_ATOM_COUNT>  (1) 
15

>  <PUBCHEM_ATOM_DEF_STEREO_COUNT>  (1) 
0

>  <PUBCHEM_ATOM_UDEF_STEREO_COUNT>  (1) 
0

>  <PUBCHEM_BOND_DEF_STEREO_COUNT>  (1) 
0

>  <PUBCHEM_BOND_UDEF_STEREO_COUNT>  (1) 
0

>  <PUBCHEM_ISOTOPIC_ATOM_COUNT>  (1) 
0

>  <PUBCHEM_COMPONENT_COUNT>  (1) 
1

>  <PUBCHEM_CACTVS_TAUTO_COUNT>  (1) 
1

>  <PUBCHEM_CONFORMER_ID>  (1) 
0000981900000002

>  <PUBCHEM_MMFF94_ENERGY>  (1) 
21.4607

>  <PUBCHEM_FEATURE_SELFOVERLAP>  (1) 
43.051

>  <PUBCHEM_SHAPE_FINGERPRINT>  (1) 
11315181 36 17346593072292076810
11769659 78 18057038227737795207
12186901 62 15791727486215804846
12423570 1 9490742784085659481
13024252 1 15864065490500482085
13296908 3 18187361056514457720
14577589 140 18335424547378935152
16945 1 16734647884004012047
17804303 29 18411706491097978596
18186145 218 16081091493906685884
200 152 17632004334124856671
20281475 54 18411701006830761212
20325693 3 15864073143842189618
20525323 117 10375877380705963556
22926399 37 9223230723978121914
23402539 116 16487252149890099569
23559900 14 18343293770112487584
296302 2 11383837056055997856
369184 2 17774727583619739193
5706482 22 17917437484345372353

>  <PUBCHEM_SHAPE_MULTIPOLES>  (1) 
303.71
6.93
1.57
1.3
12.48
0.13
-0.01
1.99
-0.23
-0.27
0.19
-0.91
0.01
-0.01

>  <PUBCHEM_SHAPE_SELFOVERLAP>  (1) 
638.441

>  <PUBCHEM_SHAPE_VOLUME>  (1) 
165

>  <PUBCHEM_COORDINATE_TYPE>  (1) 
2
5
10

$$$$
