38942
     RDKit          3D

  7  7  0  0  0  0  0  0  0  0999 V2000
    2.8545    0.3709   -0.0001 Cl  0  0  0  0  0  0  0  0  0  0  0  0
    0.0184    1.2947    0.0000 S   0  0  0  0  0  0  0  0  0  0  0  0
   -0.8414   -1.1431   -0.0001 N   0  0  0  0  0  0  0  0  0  0  0  0
   -2.5250    0.5168    0.0000 N   0  0  0  0  0  0  0  0  0  0  0  0
   -1.2266    0.1136   -0.0001 C   0  0  0  0  0  0  0  0  0  0  0  0
    1.1809    0.0339    0.0001 C   0  0  0  0  0  0  0  0  0  0  0  0
    0.5393   -1.1868    0.0001 C   0  0  0  0  0  0  0  0  0  0  0  0
  1  6  1  0
  2  5  1  0
  2  6  1  0
  3  5  2  0
  3  7  1  0
  4  5  1  0
  6  7  2  0
M  END
>  <PUBCHEM_COMPOUND_CID>  (1) 
38942

>  <PUBCHEM_CONFORMER_RMSD>  (1) 
0.4

>  <PUBCHEM_CONFORMER_DIVERSEORDER>  (1) 
1

>  <PUBCHEM_MMFF94_PARTIAL_CHARGES>  (1) 
10
1 -0.12
10 0.4
2 -0.08
3 -0.57
4 -0.88
5 0.46
6 0.16
7 0.08
8 0.15
9 0.4

>  <PUBCHEM_EFFECTIVE_ROTOR_COUNT>  (1) 
0

>  <PUBCHEM_PHARMACOPHORE_FEATURES>  (1) 
3
1 4 donor
3 3 4 5 cation
5 2 3 5 6 7 rings

>  <PUBCHEM_HEAVY_ATOM_COUNT>  (1) 
7

>  <PUBCHEM_ATOM_DEF_STEREO_COUNT>  (1) 
0

>  <PUBCHEM_ATOM_UDEF_STEREO_COUNT>  (1) 
0

>  <PUBCHEM_BOND_DEF_STEREO_COUNT>  (1) 
0

>  <PUBCHEM_BOND_UDEF_STEREO_COUNT>  (1) 
0

>  <PUBCHEM_ISOTOPIC_ATOM_COUNT>  (1) 
0

>  <PUBCHEM_COMPONENT_COUNT>  (1) 
1

>  <PUBCHEM_CACTVS_TAUTO_COUNT>  (1) 
2

>  <PUBCHEM_CONFORMER_ID>  (1) 
0000981E00000001

>  <PUBCHEM_MMFF94_ENERGY>  (1) 
4.607

>  <PUBCHEM_FEATURE_SELFOVERLAP>  (1) 
15.223

>  <PUBCHEM_SHAPE_FINGERPRINT>  (1) 
14390081 3 18201716262703707536
16714656 1 18410013247364780092
20096714 4 18410574006636850131
21040471 1 18410856555392308034
23235685 24 18411134727549918944
23552423 10 18260551156039788822
29004967 10 17894921697736927705
5460574 1 9223231844848457024

>  <PUBCHEM_SHAPE_MULTIPOLES>  (1) 
139.81
3.16
1.31
0.61
0.84
0.06
0
-0.59
0
-0.09
0
0.06
-0.03
0

>  <PUBCHEM_SHAPE_SELFOVERLAP>  (1) 
263.752

>  <PUBCHEM_SHAPE_VOLUME>  (1) 
88.4

>  <PUBCHEM_COORDINATE_TYPE>  (1) 
2
5
10

$$$$
