38946
     RDKit          3D

 22 23  0  0  1  0  0  0  0  0999 V2000
   -2.9452    2.1297    0.6313 O   0  0  0  0  0  0  0  0  0  0  0  0
   -3.5687   -2.1910   -0.0364 O   0  0  0  0  0  0  0  0  0  0  0  0
    0.9147   -0.8924    0.1814 O   0  0  0  0  0  0  0  0  0  0  0  0
    3.8906    0.5353   -1.1892 O   0  0  0  0  0  0  0  0  0  0  0  0
    1.6574    1.2854    1.6113 O   0  0  0  0  0  0  0  0  0  0  0  0
    1.6499   -0.5664   -1.9729 O   0  0  0  0  0  0  0  0  0  0  0  0
   -3.1725    0.9567   -0.0314 N   0  0  0  0  0  0  0  0  0  0  0  0
   -2.3087   -0.1776    0.5425 C   0  0  0  0  0  0  0  0  0  0  0  0
   -3.2945   -1.2570    1.0025 C   0  0  0  0  0  0  0  0  0  0  0  0
   -4.6045    0.5209    0.1535 C   0  0  0  0  0  0  0  0  0  0  0  0
   -4.5533   -0.4615    1.3114 C   0  0  0  0  0  0  0  0  0  0  0  0
   -2.7487    1.0687   -1.4877 C   0  0  0  0  0  0  0  0  0  0  0  0
   -1.3403   -0.5468   -0.5400 C   0  0  0  0  0  0  0  0  0  0  0  0
   -1.5909    0.1420   -1.6588 C   0  0  0  0  0  0  0  0  0  0  0  0
   -0.2586   -1.5404   -0.3201 C   0  0  0  0  0  0  0  0  0  0  0  0
    3.0017    0.2304   -0.1020 C   0  0  0  0  0  0  0  0  0  0  0  0
    3.7742   -0.7472    0.8341 C   0  0  0  0  0  0  0  0  0  0  0  0
    1.7951   -0.4489   -0.7615 C   0  0  0  0  0  0  0  0  0  0  0  0
    2.5891    1.5697    0.5604 C   0  0  0  0  0  0  0  0  0  0  0  0
    4.9804   -0.1336    1.5510 C   0  0  0  0  0  0  0  0  0  0  0  0
    4.2142   -2.0323    0.1130 C   0  0  0  0  0  0  0  0  0  0  0  0
    1.9187    2.5565   -0.3926 C   0  0  0  0  0  0  0  0  0  0  0  0
  1  7  1  0
  2  9  1  0
  3 15  1  0
  3 18  1  0
  4 16  1  0
  5 19  1  0
  6 18  2  0
  7  8  1  0
  7 10  1  0
  7 12  1  0
  8  9  1  0
  8 13  1  0
  9 11  1  0
 10 11  1  0
 12 14  1  0
 13 14  2  0
 13 15  1  0
 16 17  1  0
 16 18  1  0
 16 19  1  0
 17 20  1  0
 17 21  1  0
 19 22  1  0
M  CHG  2   1  -1   7   1
M  END
>  <PUBCHEM_COMPOUND_CID>  (1) 
38946

>  <PUBCHEM_CONFORMER_RMSD>  (1) 
1.2

>  <PUBCHEM_CONFORMER_DIVERSEORDER>  (1) 
1
206
181
178
228
93
209
140
130
3
211
19
98
202
49
109
2
227
106
197
147
159
55
175
107
102
180
17
135
224
167
66
122
84
58
23
21
149
139
153
156
222
82
73
62
125
190
110
230
45
114
164
218
10
116
144
31
124
53
171
183
132
83
191
118
160
136
69
176
40
204
131
189
127
71
8
187
207
223
158
188
95
64
216
97
74
91
165
9
142
134
68
111
169
100
12
94
14
221
198
26
217
200
203
20
4
152
137
215
25
96
105
70
168
182
33
61
212
56
34
89
36
28
185
101
112
126
42
196
121
81
226
210
225
15
205
79
201
46
161
18
6
220
115
76
128
163
155
80
150
67
213
24
86
41
195
208
99
5
44
120
92
154
199
72
103
38
108
11
145
179
52
141
172
194
123
29
59
90
192
51
50
133
22
166
75
104
57
117
119
157
177
37
47
60
173
146
162
174
63
78
35
219
7
88
87
48
39
113
129
16
13
193
54
77
186
184
138
30
229
43
151
170
65
27
85
143
214
32
148

>  <PUBCHEM_MMFF94_PARTIAL_CHARGES>  (1) 
21
1 -0.75
10 0.26
12 0.39
13 -0.28
14 -0.29
15 0.42
16 0.34
18 0.66
19 0.28
2 -0.68
3 -0.43
31 0.15
34 0.4
4 -0.68
46 0.4
47 0.4
5 -0.68
6 -0.57
7 -0.02
8 0.39
9 0.28

>  <PUBCHEM_EFFECTIVE_ROTOR_COUNT>  (1) 
6.8

>  <PUBCHEM_PHARMACOPHORE_FEATURES>  (1) 
11
1 1 anion
1 2 acceptor
1 2 donor
1 4 acceptor
1 4 donor
1 5 acceptor
1 5 donor
1 6 acceptor
3 17 20 21 hydrophobe
5 7 8 12 13 14 rings
5 7 8 9 10 11 rings

>  <PUBCHEM_HEAVY_ATOM_COUNT>  (1) 
22

>  <PUBCHEM_ATOM_DEF_STEREO_COUNT>  (1) 
0

>  <PUBCHEM_ATOM_UDEF_STEREO_COUNT>  (1) 
5

>  <PUBCHEM_BOND_DEF_STEREO_COUNT>  (1) 
0

>  <PUBCHEM_BOND_UDEF_STEREO_COUNT>  (1) 
0

>  <PUBCHEM_ISOTOPIC_ATOM_COUNT>  (1) 
0

>  <PUBCHEM_COMPONENT_COUNT>  (1) 
1

>  <PUBCHEM_CACTVS_TAUTO_COUNT>  (1) 
1

>  <PUBCHEM_CONFORMER_ID>  (1) 
0000982200000001

>  <PUBCHEM_MMFF94_ENERGY>  (1) 
52.7469

>  <PUBCHEM_FEATURE_SELFOVERLAP>  (1) 
56.141

>  <PUBCHEM_SHAPE_FINGERPRINT>  (1) 
10366900 7 18189341323546789931
11552529 35 18196943381739087875
12173636 292 14764355924930231029
12507557 5 18410004446755355128
12633257 1 18339656585172700353
12670545 47 18409454704353662349
128620 24 9583512140142515922
13134695 92 17916853656751299048
13224815 77 18201997784861631341
13533116 47 18040715879061129435
13583140 156 18261939808580689286
13675066 3 18271519819513726538
14251764 30 16806438112217985578
14289901 80 18336549429420759211
14341114 176 18409454678056337931
14866123 147 16752401290025646770
15238133 3 18265624181972638940
15653759 3 18333448750658595520
17349148 13 17489304157521880898
17980427 23 14476661045311697194
1813 80 16588308233587104846
18186145 218 17346886645522059334
18785283 64 18116430530783678316
19078846 21 18410013213295308980
19862831 5 13183028409978319767
20645477 70 8070037665874571768
20871999 31 10231756699593756875
23503958 8 17458344134649661827
23559900 14 17603308154587617647
2871803 45 7925913694711693786
3286 77 18187365462491273580
3472631 163 14620793795281907977
351380 180 18412822473946245475
474 4 16917060096761653930
5104073 3 17968101936291888049
7495541 125 18260270780363599008
8509985 295 18409444748355693552
9971528 1 17131836448016908340

>  <PUBCHEM_SHAPE_MULTIPOLES>  (1) 
412.55
9.95
2.06
1.5
0.51
0.43
-0.2
-1.56
3.2
0.26
0.11
0.22
0.14
0.36

>  <PUBCHEM_SHAPE_SELFOVERLAP>  (1) 
848.177

>  <PUBCHEM_SHAPE_VOLUME>  (1) 
238.4

>  <PUBCHEM_COORDINATE_TYPE>  (1) 
2
5
10

$$$$
