38948
     RDKit          3D

 19 21  0  0  1  0  0  0  0  0999 V2000
   -1.2384   -2.1771   -0.0847 N   0  0  0  0  0  0  0  0  0  0  0  0
   -1.0723   -0.9730   -0.9418 C   0  0  0  0  0  0  0  0  0  0  0  0
   -1.8525    0.2582   -0.4614 C   0  0  0  0  0  0  0  0  0  0  0  0
   -2.7000    0.1985    0.5865 C   0  0  0  0  0  0  0  0  0  0  0  0
   -1.6656    1.5413   -1.2439 C   0  0  0  0  0  0  0  0  0  0  0  0
   -2.9802   -1.1053    1.2787 C   0  0  0  0  0  0  0  0  0  0  0  0
   -3.4481    1.3955    1.1175 C   0  0  0  0  0  0  0  0  0  0  0  0
   -2.6144   -2.3051    0.4081 C   0  0  0  0  0  0  0  0  0  0  0  0
   -2.7335    2.5995   -0.9636 C   0  0  0  0  0  0  0  0  0  0  0  0
   -2.9795    2.7265    0.5323 C   0  0  0  0  0  0  0  0  0  0  0  0
    0.4282   -0.6379   -1.0249 C   0  0  0  0  0  0  0  0  0  0  0  0
    0.9740   -0.2659    0.3465 C   0  0  0  0  0  0  0  0  0  0  0  0
   -0.8642   -3.4095   -0.7880 C   0  0  0  0  0  0  0  0  0  0  0  0
    2.4439    0.0601    0.2733 C   0  0  0  0  0  0  0  0  0  0  0  0
    3.3760   -0.9518    0.4485 C   0  0  0  0  0  0  0  0  0  0  0  0
    2.8408    1.3670    0.0322 C   0  0  0  0  0  0  0  0  0  0  0  0
    4.7362   -0.6500    0.3810 C   0  0  0  0  0  0  0  0  0  0  0  0
    4.2010    1.6688   -0.0354 C   0  0  0  0  0  0  0  0  0  0  0  0
    5.1487    0.6603    0.1390 C   0  0  0  0  0  0  0  0  0  0  0  0
  1  2  1  0
  1  8  1  0
  1 13  1  0
  2  3  1  0
  2 11  1  0
  3  4  2  0
  3  5  1  0
  4  6  1  0
  4  7  1  0
  5  9  1  0
  6  8  1  0
  7 10  1  0
  9 10  1  0
 11 12  1  0
 12 14  1  0
 14 15  2  0
 14 16  1  0
 15 17  1  0
 16 18  2  0
 17 19  2  0
 18 19  1  0
M  END
>  <PUBCHEM_COMPOUND_CID>  (1) 
38948

>  <PUBCHEM_CONFORMER_RMSD>  (1) 
0.6

>  <PUBCHEM_CONFORMER_DIVERSEORDER>  (1) 
4
9
2
1
6
3
10
11
5
8
7

>  <PUBCHEM_MMFF94_PARTIAL_CHARGES>  (1) 
21
1 -0.81
12 0.14
13 0.27
14 -0.14
15 -0.15
16 -0.15
17 -0.15
18 -0.15
19 -0.15
2 0.41
3 -0.28
4 -0.28
40 0.15
41 0.15
42 0.15
43 0.15
44 0.15
5 0.14
6 0.14
7 0.14
8 0.27

>  <PUBCHEM_EFFECTIVE_ROTOR_COUNT>  (1) 
4.6

>  <PUBCHEM_PHARMACOPHORE_FEATURES>  (1) 
4
1 1 cation
6 1 2 3 4 6 8 rings
6 14 15 16 17 18 19 rings
6 3 4 5 7 9 10 rings

>  <PUBCHEM_HEAVY_ATOM_COUNT>  (1) 
19

>  <PUBCHEM_ATOM_DEF_STEREO_COUNT>  (1) 
0

>  <PUBCHEM_ATOM_UDEF_STEREO_COUNT>  (1) 
1

>  <PUBCHEM_BOND_DEF_STEREO_COUNT>  (1) 
0

>  <PUBCHEM_BOND_UDEF_STEREO_COUNT>  (1) 
0

>  <PUBCHEM_ISOTOPIC_ATOM_COUNT>  (1) 
0

>  <PUBCHEM_COMPONENT_COUNT>  (1) 
1

>  <PUBCHEM_CACTVS_TAUTO_COUNT>  (1) 
1

>  <PUBCHEM_CONFORMER_ID>  (1) 
0000982400000004

>  <PUBCHEM_MMFF94_ENERGY>  (1) 
30.1136

>  <PUBCHEM_FEATURE_SELFOVERLAP>  (1) 
20.314

>  <PUBCHEM_SHAPE_FINGERPRINT>  (1) 
1100329 8 15601734488466132022
11045515 52 17977929513266314919
11405975 8 18336259064494657906
11552529 35 18339922718199383106
12077114 3 18411417284884651552
12107183 9 18048311155241006626
12173636 292 18413384349783328972
12363563 72 8213844999068417361
12403814 3 18338519745820695667
12633257 1 17987535838746075993
13004483 165 18052808432418580079
13224815 77 12179843888374513512
13583140 156 17240757342117989872
13675066 3 18201997738244641298
13994607 96 17775290456248282433
14251751 93 18407755932892299362
14289901 80 18260826059737388976
14420673 8 18118405038892705042
15295992 7 17846488236361390304
17349148 13 11815892354168163548
17834072 32 18339360747324782585
18785283 64 17979082582787936587
200 152 9223226343348824360
20510252 161 18341896320212364651
20645477 56 18342741831832389488
21065199 12 18409167731813616026
21524375 3 18130218255802005639
21731228 192 18336831866586000225
22182937 141 18412545392336417977
2306618 200 18202285831285991851
23402539 116 18199743803753647527
23419403 2 16841885490960869899
27216 239 18409169891966050449
2748010 2 17611209069662878685
4214541 1 18410011040025890128
474 4 18054503604523080845
5104073 3 18335974329738081296
6287921 2 18047756189653400268
633830 44 17773320023783567092
7097593 13 18187078421738276290

>  <PUBCHEM_SHAPE_MULTIPOLES>  (1) 
386.03
8.8
3.18
1.12
11.7
0.87
0.06
-3.5
-2.19
-3.18
0.52
-0.86
-0.06
0.09

>  <PUBCHEM_SHAPE_SELFOVERLAP>  (1) 
809.503

>  <PUBCHEM_SHAPE_VOLUME>  (1) 
215.3

>  <PUBCHEM_COORDINATE_TYPE>  (1) 
2
5
10

$$$$
