38949
     RDKit          3D

 12 13  0  0  0  0  0  0  0  0999 V2000
   -3.7641    1.2484   -0.0012 Cl  0  0  0  0  0  0  0  0  0  0  0  0
   -0.4876   -1.0651   -0.0001 O   0  0  0  0  0  0  0  0  0  0  0  0
   -3.2379   -1.3145    0.0006 O   0  0  0  0  0  0  0  0  0  0  0  0
    0.8192    0.7777    0.0001 C   0  0  0  0  0  0  0  0  0  0  0  0
    0.7981   -0.6132   -0.0002 C   0  0  0  0  0  0  0  0  0  0  0  0
   -0.5412    1.1843    0.0002 C   0  0  0  0  0  0  0  0  0  0  0  0
   -1.2907    0.0307    0.0002 C   0  0  0  0  0  0  0  0  0  0  0  0
    2.0642    1.4306    0.0003 C   0  0  0  0  0  0  0  0  0  0  0  0
    1.9401   -1.4121   -0.0006 C   0  0  0  0  0  0  0  0  0  0  0  0
    3.2309    0.6537    0.0004 C   0  0  0  0  0  0  0  0  0  0  0  0
    3.1672   -0.7420   -0.0004 C   0  0  0  0  0  0  0  0  0  0  0  0
   -2.6984   -0.1783    0.0006 C   0  0  0  0  0  0  0  0  0  0  0  0
  1 12  1  0
  2  5  1  0
  2  7  1  0
  3 12  2  0
  4  5  2  0
  4  6  1  0
  4  8  1  0
  5  9  1  0
  6  7  2  0
  7 12  1  0
  8 10  2  0
  9 11  2  0
 10 11  1  0
M  END
>  <PUBCHEM_COMPOUND_CID>  (1) 
38949

>  <PUBCHEM_CONFORMER_RMSD>  (1) 
0.4

>  <PUBCHEM_CONFORMER_DIVERSEORDER>  (1) 
1
3
2
4

>  <PUBCHEM_MMFF94_PARTIAL_CHARGES>  (1) 
16
1 -0.21
10 -0.15
11 -0.15
12 0.86
13 0.15
14 0.15
15 0.15
16 0.15
17 0.15
2 -0.28
3 -0.57
5 0.14
6 -0.15
7 0.05
8 -0.15
9 -0.15

>  <PUBCHEM_EFFECTIVE_ROTOR_COUNT>  (1) 
1

>  <PUBCHEM_PHARMACOPHORE_FEATURES>  (1) 
3
1 2 acceptor
5 2 4 5 6 7 rings
6 4 5 8 9 10 11 rings

>  <PUBCHEM_HEAVY_ATOM_COUNT>  (1) 
12

>  <PUBCHEM_ATOM_DEF_STEREO_COUNT>  (1) 
0

>  <PUBCHEM_ATOM_UDEF_STEREO_COUNT>  (1) 
0

>  <PUBCHEM_BOND_DEF_STEREO_COUNT>  (1) 
0

>  <PUBCHEM_BOND_UDEF_STEREO_COUNT>  (1) 
0

>  <PUBCHEM_ISOTOPIC_ATOM_COUNT>  (1) 
0

>  <PUBCHEM_COMPONENT_COUNT>  (1) 
1

>  <PUBCHEM_CACTVS_TAUTO_COUNT>  (1) 
1

>  <PUBCHEM_CONFORMER_ID>  (1) 
0000982500000001

>  <PUBCHEM_MMFF94_ENERGY>  (1) 
20.0089

>  <PUBCHEM_FEATURE_SELFOVERLAP>  (1) 
15.325

>  <PUBCHEM_SHAPE_FINGERPRINT>  (1) 
10219947 1 18060138725915926214
10608611 8 18409726279046107829
11471102 20 18410569557056149308
11769659 78 18410287012622149210
12032990 46 18410580599448813102
12932764 1 17385715864275845187
13296908 3 18410577288203036239
13571099 22 18271526403223668716
14144814 61 18412263934665819777
14325111 11 18410855481729741729
15219456 202 18409165506603864061
15442244 35 18124034520486633537
16945 1 18410856572878151812
17844478 74 17968099715846380605
18186145 218 18113615660034248871
193761 8 17545882624915781478
20201158 50 18409166588840794042
20645477 70 18340483370482717631
20871998 22 18054228726895861238
21501502 16 18408885143907515053
21501925 9 18338505421814717074
23402539 116 18343291570614056068
23402655 69 18269541764163179797
23463225 33 18409166593277965252
23552423 10 18333452040598236958
2748010 2 18410293618292127261
3248919 1 17386010614948995017
3312278 4 18412830187549351025
5104073 3 18410573989472799688
528886 8 18411695478437691976

>  <PUBCHEM_SHAPE_MULTIPOLES>  (1) 
237.09
6
1.56
0.6
2.9
0
0
0.32
0
-0.04
0
-0.02
0.02
0

>  <PUBCHEM_SHAPE_SELFOVERLAP>  (1) 
511.027

>  <PUBCHEM_SHAPE_VOLUME>  (1) 
132.3

>  <PUBCHEM_COORDINATE_TYPE>  (1) 
2
5
10

$$$$
