38947
     RDKit          3D

 19 20  0  0  0  0  0  0  0  0999 V2000
    5.7364    0.0514   -0.3158 O   0  0  0  0  0  0  0  0  0  0  0  0
    4.5725    1.8165    0.2746 O   0  0  0  0  0  0  0  0  0  0  0  0
   -4.8424    0.6535   -1.5232 O   0  0  0  0  0  0  0  0  0  0  0  0
    2.2034    0.3572    0.1103 N   0  0  0  0  0  0  0  0  0  0  0  0
    1.8884   -1.7720   -0.4366 N   0  0  0  0  0  0  0  0  0  0  0  0
   -0.6028   -0.7272    1.3429 N   0  0  0  0  0  0  0  0  0  0  0  0
   -0.8280   -0.0977   -0.9723 N   0  0  0  0  0  0  0  0  0  0  0  0
    4.6245    0.5977   -0.0601 N   0  0  0  0  0  0  0  0  0  0  0  0
   -4.1364   -0.0053    0.6292 N   0  0  0  0  0  0  0  0  0  0  0  0
    1.2901   -0.6515   -0.0742 C   0  0  0  0  0  0  0  0  0  0  0  0
    3.4454   -0.1503   -0.1483 C   0  0  0  0  0  0  0  0  0  0  0  0
   -0.1231   -0.4832    0.1084 C   0  0  0  0  0  0  0  0  0  0  0  0
    1.9025    1.7161    0.5069 C   0  0  0  0  0  0  0  0  0  0  0  0
    3.2254   -1.4657   -0.4832 C   0  0  0  0  0  0  0  0  0  0  0  0
   -2.7674   -0.1680    0.4516 C   0  0  0  0  0  0  0  0  0  0  0  0
   -1.9345   -0.5591    1.4797 C   0  0  0  0  0  0  0  0  0  0  0  0
   -2.1528    0.0511   -0.7644 C   0  0  0  0  0  0  0  0  0  0  0  0
   -5.0520    0.3846   -0.3452 C   0  0  0  0  0  0  0  0  0  0  0  0
   -6.4492    0.4519    0.2198 C   0  0  0  0  0  0  0  0  0  0  0  0
  1  8  1  0
  2  8  2  0
  3 18  2  0
  4 10  1  0
  4 11  1  0
  4 13  1  0
  5 10  2  0
  5 14  1  0
  6 12  2  0
  6 16  1  0
  7 12  1  0
  7 17  2  0
  8 11  1  0
  9 15  1  0
  9 18  1  0
 10 12  1  0
 11 14  2  0
 15 16  2  0
 15 17  1  0
 18 19  1  0
M  CHG  2   1  -1   8   1
M  END
>  <PUBCHEM_COMPOUND_CID>  (1) 
38947

>  <PUBCHEM_CONFORMER_RMSD>  (1) 
0.6

>  <PUBCHEM_CONFORMER_DIVERSEORDER>  (1) 
2
4
5
1
3
6

>  <PUBCHEM_MMFF94_PARTIAL_CHARGES>  (1) 
23
1 -0.52
10 0.13
11 -0.07
12 0.67
13 0.26
14 0.08
15 0.12
16 0.16
17 0.16
18 0.57
19 0.06
2 -0.52
23 0.15
24 0.15
25 0.15
26 0.37
3 -0.57
4 0.05
5 -0.57
6 -0.62
7 -0.62
8 0.96
9 -0.55

>  <PUBCHEM_EFFECTIVE_ROTOR_COUNT>  (1) 
4

>  <PUBCHEM_PHARMACOPHORE_FEATURES>  (1) 
10
1 1 acceptor
1 1 anion
1 2 acceptor
1 3 acceptor
1 6 acceptor
1 9 donor
3 4 5 10 cation
3 6 7 12 cation
5 4 5 10 11 14 rings
6 6 7 12 15 16 17 rings

>  <PUBCHEM_HEAVY_ATOM_COUNT>  (1) 
19

>  <PUBCHEM_ATOM_DEF_STEREO_COUNT>  (1) 
0

>  <PUBCHEM_ATOM_UDEF_STEREO_COUNT>  (1) 
0

>  <PUBCHEM_BOND_DEF_STEREO_COUNT>  (1) 
0

>  <PUBCHEM_BOND_UDEF_STEREO_COUNT>  (1) 
0

>  <PUBCHEM_ISOTOPIC_ATOM_COUNT>  (1) 
0

>  <PUBCHEM_COMPONENT_COUNT>  (1) 
1

>  <PUBCHEM_CACTVS_TAUTO_COUNT>  (1) 
3

>  <PUBCHEM_CONFORMER_ID>  (1) 
0000982300000002

>  <PUBCHEM_MMFF94_ENERGY>  (1) 
52.4796

>  <PUBCHEM_FEATURE_SELFOVERLAP>  (1) 
50.869

>  <PUBCHEM_SHAPE_FINGERPRINT>  (1) 
11089746 13 17561081415071100816
11128504 68 16343701058075358304
11287383 113 18410857676917056931
11401426 45 17240766181645903747
11471102 20 18342177760966363378
12236239 1 17132115727780008078
12730499 353 18335707134683909195
12916748 109 17313388894516518829
13533116 47 17676760973205043522
13760787 19 17703785929755062871
15048467 5 18130788941345104137
15375358 24 18113620092377227170
17834072 33 18060697312367223687
18222031 100 13973955494318355771
200 152 17846780693811848635
20279233 1 18113627776168886266
20645477 56 18040436603149436587
20645477 70 18270121206068519390
22289505 5 18340199704877481044
23035841 295 14836124351805332575
23402539 116 17676202498264639575
23402655 69 18272650138714972479
23536379 177 18201439143345879435
23559900 14 17531254915842148202
2916195 48 17967810553120946149
29717793 49 16845580798774734900
3545911 37 18410858771843417603
4072396 5 18410564077521885730
474 4 17702375338051722976
542803 24 17418095403935519971
59755656 520 17530679931179406403
8272917 22 18130512937471232063

>  <PUBCHEM_SHAPE_MULTIPOLES>  (1) 
343.52
12.67
1.31
1.05
6.92
0.17
-0.08
3.55
1.72
-1.69
-0.04
0.97
-0.07
0.65

>  <PUBCHEM_SHAPE_SELFOVERLAP>  (1) 
736.317

>  <PUBCHEM_SHAPE_VOLUME>  (1) 
188.7

>  <PUBCHEM_COORDINATE_TYPE>  (1) 
2
5
10

$$$$
