38950
     RDKit          3D

 11 12  0  0  0  0  0  0  0  0999 V2000
   -0.8211   -1.0001   -0.0001 O   0  0  0  0  0  0  0  0  0  0  0  0
   -4.1488   -0.1587    0.0003 N   0  0  0  0  0  0  0  0  0  0  0  0
    0.5673    0.7821   -0.0002 C   0  0  0  0  0  0  0  0  0  0  0  0
    0.4836   -0.6065   -0.0001 C   0  0  0  0  0  0  0  0  0  0  0  0
   -0.7734    1.2495   -0.0003 C   0  0  0  0  0  0  0  0  0  0  0  0
    1.8404    1.3782    0.0000 C   0  0  0  0  0  0  0  0  0  0  0  0
    1.5885   -1.4560   -0.0002 C   0  0  0  0  0  0  0  0  0  0  0  0
   -1.5741    0.1308   -0.0001 C   0  0  0  0  0  0  0  0  0  0  0  0
    2.9710    0.5496    0.0005 C   0  0  0  0  0  0  0  0  0  0  0  0
    2.8445   -0.8419    0.0000 C   0  0  0  0  0  0  0  0  0  0  0  0
   -2.9779   -0.0270    0.0002 C   0  0  0  0  0  0  0  0  0  0  0  0
  1  4  1  0
  1  8  1  0
  2 11  3  0
  3  4  2  0
  3  5  1  0
  3  6  1  0
  4  7  1  0
  5  8  2  0
  6  9  2  0
  7 10  2  0
  8 11  1  0
  9 10  1  0
M  END
>  <PUBCHEM_COMPOUND_CID>  (1) 
38950

>  <PUBCHEM_CONFORMER_RMSD>  (1) 
0.4

>  <PUBCHEM_CONFORMER_DIVERSEORDER>  (1) 
1

>  <PUBCHEM_MMFF94_PARTIAL_CHARGES>  (1) 
15
1 -0.28
10 -0.15
11 0.54
12 0.15
13 0.15
14 0.15
15 0.15
16 0.15
2 -0.56
4 0.14
5 -0.15
6 -0.15
7 -0.15
8 0.16
9 -0.15

>  <PUBCHEM_EFFECTIVE_ROTOR_COUNT>  (1) 
0

>  <PUBCHEM_PHARMACOPHORE_FEATURES>  (1) 
4
1 1 acceptor
1 2 acceptor
5 1 3 4 5 8 rings
6 3 4 6 7 9 10 rings

>  <PUBCHEM_HEAVY_ATOM_COUNT>  (1) 
11

>  <PUBCHEM_ATOM_DEF_STEREO_COUNT>  (1) 
0

>  <PUBCHEM_ATOM_UDEF_STEREO_COUNT>  (1) 
0

>  <PUBCHEM_BOND_DEF_STEREO_COUNT>  (1) 
0

>  <PUBCHEM_BOND_UDEF_STEREO_COUNT>  (1) 
0

>  <PUBCHEM_ISOTOPIC_ATOM_COUNT>  (1) 
0

>  <PUBCHEM_COMPONENT_COUNT>  (1) 
1

>  <PUBCHEM_CACTVS_TAUTO_COUNT>  (1) 
1

>  <PUBCHEM_CONFORMER_ID>  (1) 
0000982600000001

>  <PUBCHEM_MMFF94_ENERGY>  (1) 
14.8311

>  <PUBCHEM_FEATURE_SELFOVERLAP>  (1) 
20.399

>  <PUBCHEM_SHAPE_FINGERPRINT>  (1) 
10219947 1 18410858767479826557
11062470 55 15285359526462278829
11471102 20 18410288112328787061
12032990 46 18409736140206389539
12932764 1 17346304999554814705
13380535 76 18410011074074684418
14325111 11 18410575093569667521
16945 1 18410855464676375652
17844478 74 18040437676875494933
20201158 50 18335140881858224827
20645477 70 18338792326226481255
20871998 22 18055075359254515142
21040471 1 18194682794537716132
21501925 9 18336535020027020906
23402655 69 18412819175643691869
23552423 10 18189903023954540438
2748010 2 18050010188099210148
5084963 1 18343019952302556992
528886 8 18411415154749612970
53812653 166 18200025282766563768
581208 293 18411414042105117824

>  <PUBCHEM_SHAPE_MULTIPOLES>  (1) 
215.52
5.25
1.39
0.6
3.96
0.04
0
-0.43
0
-0.74
0
-0.04
0.01
0

>  <PUBCHEM_SHAPE_SELFOVERLAP>  (1) 
475.391

>  <PUBCHEM_SHAPE_VOLUME>  (1) 
116

>  <PUBCHEM_COORDINATE_TYPE>  (1) 
2
5
10

$$$$
