38952
     RDKit          3D

 15 15  0  0  0  0  0  0  0  0999 V2000
   -0.9235   -2.6085   -0.4308 Cl  0  0  0  0  0  0  0  0  0  0  0  0
   -0.7114    2.8242   -0.3112 Cl  0  0  0  0  0  0  0  0  0  0  0  0
   -2.0341    0.1590   -0.5391 O   0  0  0  0  0  0  0  0  0  0  0  0
    4.2160    0.9383    0.3658 O   0  0  0  0  0  0  0  0  0  0  0  0
    4.0906   -1.3364    0.2918 N   0  0  0  0  0  0  0  0  0  0  0  0
   -0.6827    0.1021   -0.3523 C   0  0  0  0  0  0  0  0  0  0  0  0
    2.0783   -0.0142    0.0301 C   0  0  0  0  0  0  0  0  0  0  0  0
   -0.0397   -1.1338   -0.2829 C   0  0  0  0  0  0  0  0  0  0  0  0
    0.0546    1.2798   -0.2304 C   0  0  0  0  0  0  0  0  0  0  0  0
    1.3409   -1.1919   -0.0917 C   0  0  0  0  0  0  0  0  0  0  0  0
    1.4352    1.2216   -0.0392 C   0  0  0  0  0  0  0  0  0  0  0  0
   -2.8472    0.1656    0.6309 C   0  0  0  0  0  0  0  0  0  0  0  0
    3.5172   -0.0748    0.2311 C   0  0  0  0  0  0  0  0  0  0  0  0
   -4.2772    0.2882    0.2207 C   0  0  0  0  0  0  0  0  0  0  0  0
   -5.2171   -0.6193    0.5073 C   0  0  0  0  0  0  0  0  0  0  0  0
  1  8  1  0
  2  9  1  0
  3  6  1  0
  3 12  1  0
  4 13  2  0
  5 13  1  0
  6  8  2  0
  6  9  1  0
  7 10  2  0
  7 11  1  0
  7 13  1  0
  8 10  1  0
  9 11  2  0
 12 14  1  0
 14 15  2  0
M  END
>  <PUBCHEM_COMPOUND_CID>  (1) 
38952

>  <PUBCHEM_CONFORMER_RMSD>  (1) 
0.6

>  <PUBCHEM_CONFORMER_DIVERSEORDER>  (1) 
2
3
7
5
6
8
4
1

>  <PUBCHEM_MMFF94_PARTIAL_CHARGES>  (1) 
22
1 -0.18
10 -0.15
11 -0.15
12 0.42
13 0.54
14 -0.29
15 -0.3
16 0.15
17 0.15
2 -0.18
20 0.15
21 0.37
22 0.37
23 0.15
24 0.15
3 -0.36
4 -0.57
5 -0.8
6 0.08
7 0.09
8 0.18
9 0.18

>  <PUBCHEM_EFFECTIVE_ROTOR_COUNT>  (1) 
4

>  <PUBCHEM_PHARMACOPHORE_FEATURES>  (1) 
5
1 15 hydrophobe
1 3 acceptor
1 4 acceptor
1 5 donor
6 6 7 8 9 10 11 rings

>  <PUBCHEM_HEAVY_ATOM_COUNT>  (1) 
15

>  <PUBCHEM_ATOM_DEF_STEREO_COUNT>  (1) 
0

>  <PUBCHEM_ATOM_UDEF_STEREO_COUNT>  (1) 
0

>  <PUBCHEM_BOND_DEF_STEREO_COUNT>  (1) 
0

>  <PUBCHEM_BOND_UDEF_STEREO_COUNT>  (1) 
0

>  <PUBCHEM_ISOTOPIC_ATOM_COUNT>  (1) 
0

>  <PUBCHEM_COMPONENT_COUNT>  (1) 
1

>  <PUBCHEM_CACTVS_TAUTO_COUNT>  (1) 
2

>  <PUBCHEM_CONFORMER_ID>  (1) 
0000982800000002

>  <PUBCHEM_MMFF94_ENERGY>  (1) 
45.2819

>  <PUBCHEM_FEATURE_SELFOVERLAP>  (1) 
25.371

>  <PUBCHEM_SHAPE_FINGERPRINT>  (1) 
10219947 1 18410579483073612881
10967382 1 18411135848762983270
11132069 177 18272082803367833250
12032990 46 18335704909853452244
12236239 1 17775281669324832847
12251169 10 18412263973199154073
13140716 1 18266733774215212768
13862211 1 18410288099391540287
14115302 16 17023197036295899754
14252887 29 18342186539647609227
14943859 89 14620791591847633463
15196674 1 18410293571184935753
15375462 189 18113889472794753866
16945 1 18339067238323890684
17862501 102 18272368689856342155
193761 8 17762617686889090709
19591789 44 18268150842661053110
20028762 73 18129664248435855479
20261772 1 18413389856190222371
20510252 161 18271803463354249216
20671657 1 18121225539320048125
20871998 22 18269002998516019575
21267235 1 18409736123585819490
21501502 16 18049723215374502254
21637258 2 15936678341778182394
23184049 59 18412266146695289901
2334 1 17978223086985997676
23402539 116 18271799129837287791
2748010 2 18051125896196385260
465052 167 18187654617291912235
5104073 3 18338514127671423657
537710 114 18336272318231321036
69090 78 18342172288935746983

>  <PUBCHEM_SHAPE_MULTIPOLES>  (1) 
295.71
7.86
2.31
0.72
3.63
0.31
0
-1.12
-2.2
0.04
0.41
0.17
-0.02
0.02

>  <PUBCHEM_SHAPE_SELFOVERLAP>  (1) 
596.127

>  <PUBCHEM_SHAPE_VOLUME>  (1) 
174.5

>  <PUBCHEM_COORDINATE_TYPE>  (1) 
2
5
10

$$$$
