38951
     RDKit          3D

 15 15  0  0  0  0  0  0  0  0999 V2000
   -0.6590   -2.8050    0.3206 Cl  0  0  0  0  0  0  0  0  0  0  0  0
   -0.9671    2.6236    0.4186 Cl  0  0  0  0  0  0  0  0  0  0  0  0
   -2.0283   -0.1628    0.5402 O   0  0  0  0  0  0  0  0  0  0  0  0
    4.1040   -1.0594   -0.3267 O   0  0  0  0  0  0  0  0  0  0  0  0
    4.1686    1.2127   -0.3163 O   0  0  0  0  0  0  0  0  0  0  0  0
   -0.6784   -0.0828    0.3508 C   0  0  0  0  0  0  0  0  0  0  0  0
    2.0797    0.0806   -0.0354 C   0  0  0  0  0  0  0  0  0  0  0  0
    0.0795   -1.2478    0.2329 C   0  0  0  0  0  0  0  0  0  0  0  0
   -0.0574    1.1639    0.2757 C   0  0  0  0  0  0  0  0  0  0  0  0
    1.4586   -1.1661    0.0397 C   0  0  0  0  0  0  0  0  0  0  0  0
    1.3216    1.2456    0.0826 C   0  0  0  0  0  0  0  0  0  0  0  0
   -2.8431   -0.1885   -0.6284 C   0  0  0  0  0  0  0  0  0  0  0  0
    3.5175    0.1658   -0.2351 C   0  0  0  0  0  0  0  0  0  0  0  0
   -4.2700   -0.3346   -0.2152 C   0  0  0  0  0  0  0  0  0  0  0  0
   -5.2262    0.5549   -0.5040 C   0  0  0  0  0  0  0  0  0  0  0  0
  1  8  1  0
  2  9  1  0
  3  6  1  0
  3 12  1  0
  4 13  1  0
  5 13  2  0
  6  8  2  0
  6  9  1  0
  7 10  2  0
  7 11  1  0
  7 13  1  0
  8 10  1  0
  9 11  2  0
 12 14  1  0
 14 15  2  0
M  END
>  <PUBCHEM_COMPOUND_CID>  (1) 
38951

>  <PUBCHEM_CONFORMER_RMSD>  (1) 
0.6

>  <PUBCHEM_CONFORMER_DIVERSEORDER>  (1) 
1
6
4
2
7
5
3

>  <PUBCHEM_MMFF94_PARTIAL_CHARGES>  (1) 
21
1 -0.18
10 -0.15
11 -0.15
12 0.42
13 0.63
14 -0.29
15 -0.3
16 0.15
17 0.15
2 -0.18
20 0.15
21 0.15
22 0.15
23 0.5
3 -0.36
4 -0.65
5 -0.57
6 0.08
7 0.09
8 0.18
9 0.18

>  <PUBCHEM_EFFECTIVE_ROTOR_COUNT>  (1) 
4

>  <PUBCHEM_PHARMACOPHORE_FEATURES>  (1) 
6
1 15 hydrophobe
1 3 acceptor
1 4 acceptor
1 5 acceptor
3 4 5 13 anion
6 6 7 8 9 10 11 rings

>  <PUBCHEM_HEAVY_ATOM_COUNT>  (1) 
15

>  <PUBCHEM_ATOM_DEF_STEREO_COUNT>  (1) 
0

>  <PUBCHEM_ATOM_UDEF_STEREO_COUNT>  (1) 
0

>  <PUBCHEM_BOND_DEF_STEREO_COUNT>  (1) 
0

>  <PUBCHEM_BOND_UDEF_STEREO_COUNT>  (1) 
0

>  <PUBCHEM_ISOTOPIC_ATOM_COUNT>  (1) 
0

>  <PUBCHEM_COMPONENT_COUNT>  (1) 
1

>  <PUBCHEM_CACTVS_TAUTO_COUNT>  (1) 
1

>  <PUBCHEM_CONFORMER_ID>  (1) 
0000982700000001

>  <PUBCHEM_MMFF94_ENERGY>  (1) 
43.5392

>  <PUBCHEM_FEATURE_SELFOVERLAP>  (1) 
30.504

>  <PUBCHEM_SHAPE_FINGERPRINT>  (1) 
11401426 45 18342170085432537552
11471102 20 18410572890003453469
11680986 33 17982448509855244353
12236239 1 17775289357326829153
13380535 76 18412266146690554326
13690532 89 18410292493258829794
13862211 1 18411412899697071355
14115302 16 18188217592877610574
14576447 43 18201142356721438991
14911166 2 18411421730339248894
14943859 89 16588021333639002321
14993402 34 18413390955448376223
16945 1 18338811077884370674
18186145 218 18337378422812789685
187816 3 18411420613405080709
193761 8 17834396713664253387
200 152 18202561752701287209
20510252 161 18272090457437742952
20645477 70 18341050726771962702
20871999 31 18264768950836140671
21029758 11 18272652371908530272
21501502 16 18121781621145444352
21637258 2 15482667936022989020
221490 88 18050567645169722723
22713019 99 18272092681903637366
2334 1 17834963344736846336
23402539 116 18342731931605815790
23402655 69 18339916035857933685
23559900 14 18341331201959945688
25 1 18335130991123548447
2748010 2 17981049927059603746
2871803 45 18339921519977230637
3060560 45 18411410713933063055
3084891 72 18411416206769200330
3250762 1 17690559010819941755
3286 77 16988559074684420618
34934 24 18338510962892059146
366044 4 18334856134285363075
3759504 43 17604152630778191706
4072396 5 18262219050200630626
4990 188 18202567280461399591
528886 8 18411414033773802243
537710 114 18409732876036577900
69090 78 18412824711397723574

>  <PUBCHEM_SHAPE_MULTIPOLES>  (1) 
294.82
7.82
2.3
0.72
3.72
0.26
0
-0.87
-2.17
0.03
0.41
0.17
-0.01
-0.01

>  <PUBCHEM_SHAPE_SELFOVERLAP>  (1) 
595.104

>  <PUBCHEM_SHAPE_VOLUME>  (1) 
173.7

>  <PUBCHEM_COORDINATE_TYPE>  (1) 
2
5
10

$$$$
