38968
     RDKit          3D

 20 22  0  0  0  0  0  0  0  0999 V2000
    4.9865   -2.1615    0.5054 Cl  0  0  0  0  0  0  0  0  0  0  0  0
   -0.4415   -0.2930   -0.5659 N   0  0  0  0  0  0  0  0  0  0  0  0
   -3.7060   -1.9442    0.1964 N   0  0  0  0  0  0  0  0  0  0  0  0
   -0.2799    1.0674   -0.5332 C   0  0  0  0  0  0  0  0  0  0  0  0
    1.0512    1.3343   -0.2706 C   0  0  0  0  0  0  0  0  0  0  0  0
   -1.4154    2.0038   -0.7562 C   0  0  0  0  0  0  0  0  0  0  0  0
    1.6508    2.6962   -0.1554 C   0  0  0  0  0  0  0  0  0  0  0  0
   -1.5482    3.0306    0.3690 C   0  0  0  0  0  0  0  0  0  0  0  0
    0.9302    3.5915    0.8546 C   0  0  0  0  0  0  0  0  0  0  0  0
   -0.4426    4.0917    0.3913 C   0  0  0  0  0  0  0  0  0  0  0  0
    1.7160    0.0725   -0.1399 C   0  0  0  0  0  0  0  0  0  0  0  0
    0.7566   -0.9238   -0.3290 C   0  0  0  0  0  0  0  0  0  0  0  0
   -1.6879   -0.9929   -0.8079 C   0  0  0  0  0  0  0  0  0  0  0  0
   -2.4502   -1.2635    0.4861 C   0  0  0  0  0  0  0  0  0  0  0  0
    3.0463   -0.3198    0.1219 C   0  0  0  0  0  0  0  0  0  0  0  0
    1.0576   -2.2894   -0.2686 C   0  0  0  0  0  0  0  0  0  0  0  0
    3.3633   -1.6816    0.1851 C   0  0  0  0  0  0  0  0  0  0  0  0
    2.3817   -2.6503   -0.0072 C   0  0  0  0  0  0  0  0  0  0  0  0
   -4.5310   -1.1417   -0.7087 C   0  0  0  0  0  0  0  0  0  0  0  0
   -4.4374   -2.2265    1.4329 C   0  0  0  0  0  0  0  0  0  0  0  0
  1 17  1  0
  2  4  1  0
  2 12  1  0
  2 13  1  0
  3 14  1  0
  3 19  1  0
  3 20  1  0
  4  5  2  0
  4  6  1  0
  5  7  1  0
  5 11  1  0
  6  8  1  0
  7  9  1  0
  8 10  1  0
  9 10  1  0
 11 12  2  0
 11 15  1  0
 12 16  1  0
 13 14  1  0
 15 17  2  0
 16 18  2  0
 17 18  1  0
M  END
>  <PUBCHEM_COMPOUND_CID>  (1) 
38968

>  <PUBCHEM_CONFORMER_RMSD>  (1) 
0.6

>  <PUBCHEM_CONFORMER_DIVERSEORDER>  (1) 
2
12
13
6
11
9
7
3
1
8
10
4
5

>  <PUBCHEM_MMFF94_PARTIAL_CHARGES>  (1) 
19
1 -0.18
12 -0.15
13 0.26
14 0.27
15 -0.15
16 -0.15
17 0.18
18 -0.15
19 0.27
2 0.05
20 0.27
3 -0.81
35 0.15
36 0.15
37 0.15
4 -0.33
5 -0.18
6 0.18
7 0.18

>  <PUBCHEM_EFFECTIVE_ROTOR_COUNT>  (1) 
4

>  <PUBCHEM_PHARMACOPHORE_FEATURES>  (1) 
5
1 2 cation
1 3 cation
5 2 4 5 11 12 rings
6 11 12 15 16 17 18 rings
7 4 5 6 7 8 9 10 rings

>  <PUBCHEM_HEAVY_ATOM_COUNT>  (1) 
20

>  <PUBCHEM_ATOM_DEF_STEREO_COUNT>  (1) 
0

>  <PUBCHEM_ATOM_UDEF_STEREO_COUNT>  (1) 
0

>  <PUBCHEM_BOND_DEF_STEREO_COUNT>  (1) 
0

>  <PUBCHEM_BOND_UDEF_STEREO_COUNT>  (1) 
0

>  <PUBCHEM_ISOTOPIC_ATOM_COUNT>  (1) 
0

>  <PUBCHEM_COMPONENT_COUNT>  (1) 
1

>  <PUBCHEM_CACTVS_TAUTO_COUNT>  (1) 
1

>  <PUBCHEM_CONFORMER_ID>  (1) 
0000983800000002

>  <PUBCHEM_MMFF94_ENERGY>  (1) 
34.2269

>  <PUBCHEM_FEATURE_SELFOVERLAP>  (1) 
25.496

>  <PUBCHEM_SHAPE_FINGERPRINT>  (1) 
10411042 1 18411697677603950486
10967382 1 18194960966352318956
1100329 8 18266178327470054145
11578080 2 17272820265557815361
11582403 64 16096492503389615375
11680986 33 18339906169537800532
12553582 1 18412825819541757142
12788726 201 18334581196671253610
13052359 8 17975976466634170781
13134695 92 18339355374731678143
13140716 1 18339919304127715664
13533116 47 18120382210144841963
13583140 156 14404894731376388767
138480 1 14664424181640029421
14787075 74 18114465668949847434
14790565 3 17905335374222802205
14866123 147 17472696923458996347
15042514 8 18122344575631274518
15420108 30 17772188875453010430
15475509 84 18269573705692555177
15927050 60 17692253358586549766
16087824 20 18123186797993121157
16945 1 18267853064172661582
1813 80 18130238098535602454
19591789 44 17616816977790099668
20028762 73 17046250209544684269
20510252 161 17551503345727285072
20645477 70 18190728929286866447
20739085 24 18118692251475977545
21041028 32 18411419505361612238
21524375 3 17120301754839431589
2334 1 18411409618890371748
23419403 2 18043785732483612190
23557571 272 18126567813000542646
23559900 14 17968371368470307895
2748010 2 18269253726143702436
3091708 16 9138052696261546697
3421961 26 18264492952269715043
352729 6 17980476763452517134
458136 41 17830742310623082781
474 4 17621603139316208337
5104073 3 18194949753021469554
54173680 148 18122626059145074886
58807428 26 17548689038056967080
6443956 14 18409166636280483335
7364860 26 18267021850118813767
7471813 234 18130492133224214919
81228 2 18118973490155172775
84936 182 17697319873575728537
9709674 26 17767396886447799422

>  <PUBCHEM_SHAPE_MULTIPOLES>  (1) 
403.5
7.09
4.98
0.93
0.41
5.08
-0.12
-8.91
-1.51
1.22
-1.24
0.6
-0.14
0.41

>  <PUBCHEM_SHAPE_SELFOVERLAP>  (1) 
846.054

>  <PUBCHEM_SHAPE_VOLUME>  (1) 
230.9

>  <PUBCHEM_COORDINATE_TYPE>  (1) 
2
5
10

$$$$
