38964
     RDKit          3D

 21 24  0  0  0  0  0  0  0  0999 V2000
    4.9842    3.0124    0.3253 Cl  0  0  0  0  0  0  0  0  0  0  0  0
    0.1130   -0.1322   -0.4330 N   0  0  0  0  0  0  0  0  0  0  0  0
   -3.4529    0.8600    0.0537 N   0  0  0  0  0  0  0  0  0  0  0  0
    0.5754   -1.3939   -0.1930 C   0  0  0  0  0  0  0  0  0  0  0  0
    1.9226   -1.3205    0.0940 C   0  0  0  0  0  0  0  0  0  0  0  0
   -1.2500    0.2084   -0.7833 C   0  0  0  0  0  0  0  0  0  0  0  0
   -0.2445   -2.6314   -0.2661 C   0  0  0  0  0  0  0  0  0  0  0  0
   -2.1003    0.4979    0.4503 C   0  0  0  0  0  0  0  0  0  0  0  0
    2.7343   -2.5274    0.4203 C   0  0  0  0  0  0  0  0  0  0  0  0
   -4.3020    1.1866    1.1988 C   0  0  0  0  0  0  0  0  0  0  0  0
   -4.1444   -0.2309   -0.6328 C   0  0  0  0  0  0  0  0  0  0  0  0
    0.5141   -3.7968    0.3961 C   0  0  0  0  0  0  0  0  0  0  0  0
    2.0037   -3.8190    0.0040 C   0  0  0  0  0  0  0  0  0  0  0  0
    1.1441    0.7734   -0.2999 C   0  0  0  0  0  0  0  0  0  0  0  0
    2.2958    0.0517    0.0332 C   0  0  0  0  0  0  0  0  0  0  0  0
   -5.7029    1.1448    0.6066 C   0  0  0  0  0  0  0  0  0  0  0  0
   -5.6001    0.2104   -0.5950 C   0  0  0  0  0  0  0  0  0  0  0  0
    1.1435    2.1653   -0.4477 C   0  0  0  0  0  0  0  0  0  0  0  0
    3.5013    0.7551    0.2305 C   0  0  0  0  0  0  0  0  0  0  0  0
    2.3517    2.8392   -0.2483 C   0  0  0  0  0  0  0  0  0  0  0  0
    3.5135    2.1470    0.0860 C   0  0  0  0  0  0  0  0  0  0  0  0
  1 21  1  0
  2  4  1  0
  2  6  1  0
  2 14  1  0
  3  8  1  0
  3 10  1  0
  3 11  1  0
  4  5  2  0
  4  7  1  0
  5  9  1  0
  5 15  1  0
  6  8  1  0
  7 12  1  0
  9 13  1  0
 10 16  1  0
 11 17  1  0
 12 13  1  0
 14 15  2  0
 14 18  1  0
 15 19  1  0
 16 17  1  0
 18 20  2  0
 19 21  2  0
 20 21  1  0
M  END
>  <PUBCHEM_COMPOUND_CID>  (1) 
38964

>  <PUBCHEM_CONFORMER_RMSD>  (1) 
0.8

>  <PUBCHEM_CONFORMER_DIVERSEORDER>  (1) 
1
6
4
5
2
3

>  <PUBCHEM_MMFF94_PARTIAL_CHARGES>  (1) 
19
1 -0.18
10 0.27
11 0.27
14 -0.15
18 -0.15
19 -0.15
2 0.05
20 -0.15
21 0.18
3 -0.81
4 -0.33
42 0.15
43 0.15
44 0.15
5 -0.18
6 0.26
7 0.18
8 0.27
9 0.18

>  <PUBCHEM_EFFECTIVE_ROTOR_COUNT>  (1) 
4.8

>  <PUBCHEM_PHARMACOPHORE_FEATURES>  (1) 
6
1 2 cation
1 3 cation
5 2 4 5 14 15 rings
5 3 10 11 16 17 rings
6 14 15 18 19 20 21 rings
6 4 5 7 9 12 13 rings

>  <PUBCHEM_HEAVY_ATOM_COUNT>  (1) 
21

>  <PUBCHEM_ATOM_DEF_STEREO_COUNT>  (1) 
0

>  <PUBCHEM_ATOM_UDEF_STEREO_COUNT>  (1) 
0

>  <PUBCHEM_BOND_DEF_STEREO_COUNT>  (1) 
0

>  <PUBCHEM_BOND_UDEF_STEREO_COUNT>  (1) 
0

>  <PUBCHEM_ISOTOPIC_ATOM_COUNT>  (1) 
0

>  <PUBCHEM_COMPONENT_COUNT>  (1) 
1

>  <PUBCHEM_CACTVS_TAUTO_COUNT>  (1) 
1

>  <PUBCHEM_CONFORMER_ID>  (1) 
0000983400000001

>  <PUBCHEM_MMFF94_ENERGY>  (1) 
28.6996

>  <PUBCHEM_FEATURE_SELFOVERLAP>  (1) 
30.623

>  <PUBCHEM_SHAPE_FINGERPRINT>  (1) 
10090160 65 18411133658509387121
10411042 1 17834113048492423478
10493431 412 18266456684326647772
10595046 47 18342736313580441213
10693767 8 18129947758883842158
1100329 8 18410852166611452114
11370993 70 18336827597509860011
114674 6 18042128661218857155
12107183 9 17693665818801526841
12236239 1 17989487429078526005
12390115 104 18123483923249818332
12403259 327 16371001961752838848
12553582 1 18050280362880601255
12644460 14 18335138661507631122
12730499 353 18335995224294922883
13009979 54 17557710161632325811
13140716 1 18336258029365627266
13533116 47 18337678512699981121
13583140 156 16227423335419714452
13631057 29 18055627572269666639
13785724 45 17551242761851414271
138480 1 18122062005390651458
13955234 65 18337676312880563187
14739800 52 17488726952498165120
14790565 3 18336832016974029908
14955137 171 18265613183178825898
15475509 35 16660918864440098602
15664445 248 17913787019800210462
15927050 60 18339924934988525110
17138139 8 17627483241787293287
17492 89 18339362938617680379
17818456 19 17341821015444278817
1813 80 17768820770837667422
18785283 64 18334294241057277346
19427546 62 18335703900942436445
19591789 44 18337673014967937860
20157964 124 18409726236903400741
204376 136 18337391646769349493
20642791 268 17913771622030606811
20645477 70 18261105228327321383
20739085 24 18260832570649860076
21049683 118 17979888799736444592
21049683 271 18117010900981716110
21054139 6 18198893898328792239
21197605 99 18263935500339202235
21524375 3 18200876291501804237
2255824 54 18340209591950095263
23558518 356 17974006451499201550
23559900 14 18337951173950438139
23845131 108 18335416936897671811
23929065 36 17337008852407264216
283562 15 17616804874773063698
3091708 16 9332020815562282258
31174 14 18190739739181187903
335352 9 18410856595065379092
33824 294 18408322176768943329
3421961 26 18265052423041001251
474 4 18411136952669987001
5104073 3 18335710403992402377
58807428 26 18337094770493479456
59755656 520 18339075020815486196
621550 34 18260543399144392301
633830 44 18272936028860074165
6443956 14 18048037372165509711
67856867 119 18342170025877956585
7364860 26 18338235964109053686
77188 2 17906171746547507894
8272917 22 18411985719801362877
84936 182 18273494584882850385
9709674 26 18334863767122717123
9841814 1 18116431427693196386
9981440 41 18337673143415887811
9999458 23 18410015407886447702

>  <PUBCHEM_SHAPE_MULTIPOLES>  (1) 
424.08
10.1
4.4
0.83
14.28
3.88
0.06
-8.6
1.28
-5.88
0.4
0.54
-0.11
-0.55

>  <PUBCHEM_SHAPE_SELFOVERLAP>  (1) 
907.523

>  <PUBCHEM_SHAPE_VOLUME>  (1) 
240

>  <PUBCHEM_COORDINATE_TYPE>  (1) 
2
5
10

$$$$
