38972
     RDKit          3D

 23 25  0  0  0  0  0  0  0  0999 V2000
   -4.1584   -2.8821    0.5382 O   0  0  0  0  0  0  0  0  0  0  0  0
    0.2732    0.1103   -0.6605 N   0  0  0  0  0  0  0  0  0  0  0  0
    3.8597   -0.6633    0.0489 N   0  0  0  0  0  0  0  0  0  0  0  0
   -0.2375    1.3818   -0.6680 C   0  0  0  0  0  0  0  0  0  0  0  0
   -1.5874    1.3028   -0.3785 C   0  0  0  0  0  0  0  0  0  0  0  0
    0.6095    2.5725   -0.9524 C   0  0  0  0  0  0  0  0  0  0  0  0
   -2.5197    2.4650   -0.2916 C   0  0  0  0  0  0  0  0  0  0  0  0
    0.4898    3.6409    0.1349 C   0  0  0  0  0  0  0  0  0  0  0  0
   -1.8971   -0.0826   -0.1888 C   0  0  0  0  0  0  0  0  0  0  0  0
   -2.0403    3.5548    0.6692 C   0  0  0  0  0  0  0  0  0  0  0  0
   -0.8542    4.3775    0.1539 C   0  0  0  0  0  0  0  0  0  0  0  0
   -0.7140   -0.8011   -0.3707 C   0  0  0  0  0  0  0  0  0  0  0  0
    1.6526   -0.2505   -0.9231 C   0  0  0  0  0  0  0  0  0  0  0  0
    2.4891   -0.2720    0.3530 C   0  0  0  0  0  0  0  0  0  0  0  0
   -3.0741   -0.7972    0.1213 C   0  0  0  0  0  0  0  0  0  0  0  0
   -0.6470   -2.1946   -0.2581 C   0  0  0  0  0  0  0  0  0  0  0  0
   -3.0230   -2.1911    0.2374 C   0  0  0  0  0  0  0  0  0  0  0  0
   -1.8262   -2.8775    0.0500 C   0  0  0  0  0  0  0  0  0  0  0  0
    3.8940   -1.9978   -0.5526 C   0  0  0  0  0  0  0  0  0  0  0  0
    4.6862   -0.6302    1.2570 C   0  0  0  0  0  0  0  0  0  0  0  0
    5.3105   -2.3910   -0.9359 C   0  0  0  0  0  0  0  0  0  0  0  0
    4.6655    0.7468    1.8987 C   0  0  0  0  0  0  0  0  0  0  0  0
   -5.3511   -2.1214    0.7179 C   0  0  0  0  0  0  0  0  0  0  0  0
  1 17  1  0
  1 23  1  0
  2  4  1  0
  2 12  1  0
  2 13  1  0
  3 14  1  0
  3 19  1  0
  3 20  1  0
  4  5  2  0
  4  6  1  0
  5  7  1  0
  5  9  1  0
  6  8  1  0
  7 10  1  0
  8 11  1  0
  9 12  2  0
  9 15  1  0
 10 11  1  0
 12 16  1  0
 13 14  1  0
 15 17  2  0
 16 18  2  0
 17 18  1  0
 19 21  1  0
 20 22  1  0
M  END
>  <PUBCHEM_COMPOUND_CID>  (1) 
38972

>  <PUBCHEM_CONFORMER_RMSD>  (1) 
0.8

>  <PUBCHEM_CONFORMER_DIVERSEORDER>  (1) 
3
22
16
24
8
25
26
20
27
18
15
9
17
10
12
14
19
7
23
5
11
21
6
4
13
1
2

>  <PUBCHEM_MMFF94_PARTIAL_CHARGES>  (1) 
20
1 -0.36
12 -0.15
13 0.26
14 0.27
15 -0.15
16 -0.15
17 0.08
18 -0.15
19 0.27
2 0.05
20 0.27
23 0.28
3 -0.81
38 0.15
39 0.15
4 -0.33
40 0.15
5 -0.18
6 0.18
7 0.18

>  <PUBCHEM_EFFECTIVE_ROTOR_COUNT>  (1) 
7

>  <PUBCHEM_PHARMACOPHORE_FEATURES>  (1) 
6
1 1 acceptor
1 2 cation
1 3 cation
5 2 4 5 9 12 rings
6 9 12 15 16 17 18 rings
7 4 5 6 7 8 10 11 rings

>  <PUBCHEM_HEAVY_ATOM_COUNT>  (1) 
23

>  <PUBCHEM_ATOM_DEF_STEREO_COUNT>  (1) 
0

>  <PUBCHEM_ATOM_UDEF_STEREO_COUNT>  (1) 
0

>  <PUBCHEM_BOND_DEF_STEREO_COUNT>  (1) 
0

>  <PUBCHEM_BOND_UDEF_STEREO_COUNT>  (1) 
0

>  <PUBCHEM_ISOTOPIC_ATOM_COUNT>  (1) 
0

>  <PUBCHEM_COMPONENT_COUNT>  (1) 
1

>  <PUBCHEM_CACTVS_TAUTO_COUNT>  (1) 
1

>  <PUBCHEM_CONFORMER_ID>  (1) 
0000983C00000003

>  <PUBCHEM_MMFF94_ENERGY>  (1) 
46.0856

>  <PUBCHEM_FEATURE_SELFOVERLAP>  (1) 
30.571

>  <PUBCHEM_SHAPE_FINGERPRINT>  (1) 
10006869 2 18120927310013337547
10319926 262 18196067986495922418
10411042 1 18410582815989924935
1100329 8 18410300173130275677
11265709 11 18336265750956858135
12293681 160 17907829866112305501
12549972 3 17700110133787616202
12553582 1 18267585891284423294
12788726 201 18260557744319329906
13140716 1 18411426128845157049
138480 1 15455371103964390535
14081887 123 18338502063656486120
14178342 30 18262788563565959786
14790565 3 17039516258918051837
14866123 147 17977668606360509050
14955137 171 18336558217335927371
15042514 8 18337398132243663647
15420108 30 17410775082813626100
15475509 35 17097209674294836331
15927050 60 17763469409412316111
17980427 23 17416121922387559263
1813 80 17676485090080631502
20510252 161 18342170012555386672
21041028 32 18338232786081258901
21344244 78 18056198209776354019
21421861 104 18118408577196254857
21650355 55 18409439284967629160
2297311 6 18410865356419017142
23366157 5 17611747108299613533
23419403 2 17845355791399213569
23557571 272 18341056224851905926
23559900 14 18268426842250436598
23845131 108 17690847757393355153
2748010 2 17688051720919491669
3091708 16 9062346888483327789
3187 122 18265310937423507480
3886686 26 17396954896279664650
5104073 3 18341886339230881626
6004065 56 18124020485072308039
621550 34 18201429338036003594
7364860 26 17905893926096972557
7399639 24 18200863068094065362
79837 15 17978232664531056913
81228 2 18334852775826367100
9709674 26 18199737082155650590
9777508 108 18124034524771207296
9981440 41 17543351557829091625

>  <PUBCHEM_SHAPE_MULTIPOLES>  (1) 
457.5
9.12
5.19
1.09
8.5
4.44
0.27
-8.87
2.81
-4.44
0.25
1.17
0.1
1.47

>  <PUBCHEM_SHAPE_SELFOVERLAP>  (1) 
957.418

>  <PUBCHEM_SHAPE_VOLUME>  (1) 
262

>  <PUBCHEM_COORDINATE_TYPE>  (1) 
2
5
10

$$$$
