38982
     RDKit          3D

 20 22  0  0  0  0  0  0  0  0999 V2000
    1.1379    4.7849    0.2402 Cl  0  0  0  0  0  0  0  0  0  0  0  0
    0.1155   -0.3141    0.5808 N   0  0  0  0  0  0  0  0  0  0  0  0
   -4.6834   -0.2583   -0.5061 N   0  0  0  0  0  0  0  0  0  0  0  0
   -1.2364   -0.3005    1.1036 C   0  0  0  0  0  0  0  0  0  0  0  0
    0.8583    0.8100    0.3072 C   0  0  0  0  0  0  0  0  0  0  0  0
    0.8291   -1.4537    0.2932 C   0  0  0  0  0  0  0  0  0  0  0  0
   -2.2836   -0.2814   -0.0096 C   0  0  0  0  0  0  0  0  0  0  0  0
    2.0957    0.3805   -0.1733 C   0  0  0  0  0  0  0  0  0  0  0  0
    2.0772   -1.0505   -0.1819 C   0  0  0  0  0  0  0  0  0  0  0  0
   -3.6972   -0.2552    0.5679 C   0  0  0  0  0  0  0  0  0  0  0  0
    0.5292    2.1630    0.4481 C   0  0  0  0  0  0  0  0  0  0  0  0
    0.4652   -2.7994    0.4179 C   0  0  0  0  0  0  0  0  0  0  0  0
    3.0540    1.3517   -0.5317 C   0  0  0  0  0  0  0  0  0  0  0  0
    3.0105   -2.0417   -0.5516 C   0  0  0  0  0  0  0  0  0  0  0  0
    1.4948    3.1061    0.0860 C   0  0  0  0  0  0  0  0  0  0  0  0
    1.4067   -3.7626    0.0453 C   0  0  0  0  0  0  0  0  0  0  0  0
    2.7393    2.7086   -0.3969 C   0  0  0  0  0  0  0  0  0  0  0  0
    2.6612   -3.3917   -0.4324 C   0  0  0  0  0  0  0  0  0  0  0  0
   -4.5339    0.9309   -1.3466 C   0  0  0  0  0  0  0  0  0  0  0  0
   -6.0400   -0.3265    0.0399 C   0  0  0  0  0  0  0  0  0  0  0  0
  1 15  1  0
  2  4  1  0
  2  5  1  0
  2  6  1  0
  3 10  1  0
  3 19  1  0
  3 20  1  0
  4  7  1  0
  5  8  2  0
  5 11  1  0
  6  9  2  0
  6 12  1  0
  7 10  1  0
  8  9  1  0
  8 13  1  0
  9 14  1  0
 11 15  2  0
 12 16  2  0
 13 17  2  0
 14 18  2  0
 15 17  1  0
 16 18  1  0
M  END
>  <PUBCHEM_COMPOUND_CID>  (1) 
38982

>  <PUBCHEM_CONFORMER_RMSD>  (1) 
0.6

>  <PUBCHEM_CONFORMER_DIVERSEORDER>  (1) 
1
16
14
20
17
4
9
8
11
21
13
10
22
12
6
15
18
19
7
2
3
5

>  <PUBCHEM_MMFF94_PARTIAL_CHARGES>  (1) 
24
1 -0.18
10 0.27
11 -0.15
12 -0.15
13 -0.15
14 -0.15
15 0.18
16 -0.15
17 -0.15
18 -0.15
19 0.27
2 0.05
20 0.27
27 0.15
28 0.15
29 0.15
3 -0.81
30 0.15
31 0.15
32 0.15
33 0.15
4 0.26
5 -0.15
6 -0.15

>  <PUBCHEM_EFFECTIVE_ROTOR_COUNT>  (1) 
4

>  <PUBCHEM_PHARMACOPHORE_FEATURES>  (1) 
5
1 2 cation
1 3 cation
5 2 5 6 8 9 rings
6 5 8 11 13 15 17 rings
6 6 9 12 14 16 18 rings

>  <PUBCHEM_HEAVY_ATOM_COUNT>  (1) 
20

>  <PUBCHEM_ATOM_DEF_STEREO_COUNT>  (1) 
0

>  <PUBCHEM_ATOM_UDEF_STEREO_COUNT>  (1) 
0

>  <PUBCHEM_BOND_DEF_STEREO_COUNT>  (1) 
0

>  <PUBCHEM_BOND_UDEF_STEREO_COUNT>  (1) 
0

>  <PUBCHEM_ISOTOPIC_ATOM_COUNT>  (1) 
0

>  <PUBCHEM_COMPONENT_COUNT>  (1) 
1

>  <PUBCHEM_CACTVS_TAUTO_COUNT>  (1) 
1

>  <PUBCHEM_CONFORMER_ID>  (1) 
0000984600000001

>  <PUBCHEM_MMFF94_ENERGY>  (1) 
41.5867

>  <PUBCHEM_FEATURE_SELFOVERLAP>  (1) 
25.551

>  <PUBCHEM_SHAPE_FINGERPRINT>  (1) 
10411042 1 18194686951676441634
10693767 8 18131079203603883494
10967382 1 18410867555347080042
116883 192 17692248534784485679
12107183 9 17833249185062855488
12173636 292 17545883092924909301
12553582 1 18050303478325886674
12730499 353 18264216966561642259
12769317 202 18338508746467914421
12788726 201 17470449530281081403
13009979 54 17630337341633003531
13134695 92 18338514132145485119
13540713 5 17251195912888212338
138480 1 18338800009305522201
13911987 19 18190488037609025974
13955234 65 18411420644039739955
14178000 15 18339923693056570024
15502722 9 18410856581536788115
16087824 20 17329434948096220497
16945 1 18195832840814020120
17134986 127 18122064462106637552
17539 30 17547287805076561782
17818456 19 17271739278197937705
1813 80 17914907434796354487
20645477 70 18408322177259878675
20671657 53 18269839701237728631
21304303 282 16977542212581377228
21452121 199 18192140495773280866
21478907 32 17689718558576803091
21524375 3 17972596868548387952
22033318 11 17626139389823294513
221357 26 18191298291921483157
221490 88 18335987467631439315
22289505 5 18263355911338805245
2255824 54 18413671326834996971
22620623 9 17191803584299366222
23419403 2 17533746383631543774
23559900 14 18410568488247726131
23598291 2 17987254247794743921
238 59 18339647849003673571
25 1 18337392767571184372
266924 87 18265621983497944804
2748010 2 17834984205683198698
283562 15 18194413191214628122
3060560 45 18339363071091506844
350125 39 17617676783098228480
3886686 26 17623264471643469344
46194498 28 17967540060407085103
495365 180 18268985569465379721
5281201 14 18335700503923843077
5969126 39 17980757139445822270
6025842 7 18411698824845203415
6443956 14 18336829667304275550
7164475 11 17761497984953008750
7364860 26 18410576184253990427
7471813 234 18199741453825800319
81228 2 17687747142944268578
8272917 22 18412549816653574439
84936 182 18201441440605296409

>  <PUBCHEM_SHAPE_MULTIPOLES>  (1) 
403.5
7.92
5.28
0.89
18.26
2.43
0.06
-0.57
2.18
-6.75
-0.08
0.45
0.05
0.51

>  <PUBCHEM_SHAPE_SELFOVERLAP>  (1) 
862.41

>  <PUBCHEM_SHAPE_VOLUME>  (1) 
229.3

>  <PUBCHEM_COORDINATE_TYPE>  (1) 
2
5
10

$$$$
