38987
     RDKit          3D

 20 22  0  0  0  0  0  0  0  0999 V2000
    4.2357    3.4877   -0.4892 Cl  0  0  0  0  0  0  0  0  0  0  0  0
   -0.0711   -0.2991    0.6185 N   0  0  0  0  0  0  0  0  0  0  0  0
   -4.7989    0.4040   -0.5509 N   0  0  0  0  0  0  0  0  0  0  0  0
   -1.4241   -0.1478    1.1164 C   0  0  0  0  0  0  0  0  0  0  0  0
    0.8089    0.7387    0.4217 C   0  0  0  0  0  0  0  0  0  0  0  0
    0.5059   -1.5004    0.2799 C   0  0  0  0  0  0  0  0  0  0  0  0
   -2.4330    0.0597   -0.0128 C   0  0  0  0  0  0  0  0  0  0  0  0
    1.9965    0.1874   -0.0603 C   0  0  0  0  0  0  0  0  0  0  0  0
    1.8048   -1.2281   -0.1497 C   0  0  0  0  0  0  0  0  0  0  0  0
   -3.8469    0.2280    0.5393 C   0  0  0  0  0  0  0  0  0  0  0  0
    0.6429    2.1123    0.6326 C   0  0  0  0  0  0  0  0  0  0  0  0
   -0.0214   -2.7962    0.3223 C   0  0  0  0  0  0  0  0  0  0  0  0
    3.0739    1.0518   -0.3467 C   0  0  0  0  0  0  0  0  0  0  0  0
    2.6199   -2.3048   -0.5580 C   0  0  0  0  0  0  0  0  0  0  0  0
    1.7242    2.9482    0.3411 C   0  0  0  0  0  0  0  0  0  0  0  0
    0.8053   -3.8459   -0.0872 C   0  0  0  0  0  0  0  0  0  0  0  0
    2.9228    2.4279   -0.1413 C   0  0  0  0  0  0  0  0  0  0  0  0
    2.1068   -3.6062   -0.5210 C   0  0  0  0  0  0  0  0  0  0  0  0
   -4.4850    1.6095   -1.3201 C   0  0  0  0  0  0  0  0  0  0  0  0
   -6.1671    0.4734   -0.0346 C   0  0  0  0  0  0  0  0  0  0  0  0
  1 17  1  0
  2  4  1  0
  2  5  1  0
  2  6  1  0
  3 10  1  0
  3 19  1  0
  3 20  1  0
  4  7  1  0
  5  8  2  0
  5 11  1  0
  6  9  2  0
  6 12  1  0
  7 10  1  0
  8  9  1  0
  8 13  1  0
  9 14  1  0
 11 15  2  0
 12 16  2  0
 13 17  2  0
 14 18  2  0
 15 17  1  0
 16 18  1  0
M  END
>  <PUBCHEM_COMPOUND_CID>  (1) 
38987

>  <PUBCHEM_CONFORMER_RMSD>  (1) 
0.6

>  <PUBCHEM_CONFORMER_DIVERSEORDER>  (1) 
1
12
14
17
16
8
19
21
11
6
10
18
4
13
15
5
2
7
20
22
9
3

>  <PUBCHEM_MMFF94_PARTIAL_CHARGES>  (1) 
24
1 -0.18
10 0.27
11 -0.15
12 -0.15
13 -0.15
14 -0.15
15 -0.15
16 -0.15
17 0.18
18 -0.15
19 0.27
2 0.05
20 0.27
27 0.15
28 0.15
29 0.15
3 -0.81
30 0.15
31 0.15
32 0.15
33 0.15
4 0.26
5 -0.15
6 -0.15

>  <PUBCHEM_EFFECTIVE_ROTOR_COUNT>  (1) 
4

>  <PUBCHEM_PHARMACOPHORE_FEATURES>  (1) 
5
1 2 cation
1 3 cation
5 2 5 6 8 9 rings
6 5 8 11 13 15 17 rings
6 6 9 12 14 16 18 rings

>  <PUBCHEM_HEAVY_ATOM_COUNT>  (1) 
20

>  <PUBCHEM_ATOM_DEF_STEREO_COUNT>  (1) 
0

>  <PUBCHEM_ATOM_UDEF_STEREO_COUNT>  (1) 
0

>  <PUBCHEM_BOND_DEF_STEREO_COUNT>  (1) 
0

>  <PUBCHEM_BOND_UDEF_STEREO_COUNT>  (1) 
0

>  <PUBCHEM_ISOTOPIC_ATOM_COUNT>  (1) 
0

>  <PUBCHEM_COMPONENT_COUNT>  (1) 
1

>  <PUBCHEM_CACTVS_TAUTO_COUNT>  (1) 
1

>  <PUBCHEM_CONFORMER_ID>  (1) 
0000984B00000001

>  <PUBCHEM_MMFF94_ENERGY>  (1) 
41.6479

>  <PUBCHEM_FEATURE_SELFOVERLAP>  (1) 
25.551

>  <PUBCHEM_SHAPE_FINGERPRINT>  (1) 
10411042 1 17906738003241086418
105312 117 18119534486141483820
10693767 8 17987806207017143406
10967382 1 18339935822508703994
1100329 8 18410856581943398914
116883 192 17405144024332865455
12293681 160 17845663684292851696
12553582 1 17907315255408996123
12730499 353 18337117847347356067
12769317 202 18411691102161968473
13009979 54 17415286027088352171
13140716 1 18267887127896221242
13533116 47 18343299246369648689
138480 1 18194966236066051466
13955234 65 18411419488609193259
14178000 15 18196933266668410914
14508225 48 17907865002991379366
15502722 9 18411418393355349107
16087824 20 16969712083696240473
167882 2 18409169926504948290
16945 1 18268170715843737074
17134986 127 18337957916880170692
17539 30 17042604215553866406
17844677 252 18267873792339232457
1813 80 17700139794214752615
18915476 22 18337968856356994531
20645477 70 18408883997705284563
221357 26 18120086187997400453
221490 88 18265055739198631465
22182313 1 18049749561041804658
2255824 54 18341895147596907695
22907989 373 17183338955140356764
23557571 272 17386306371293384523
23559900 14 18338794512085117179
23598291 2 17844824585348382905
238 59 18411424998904612099
25 1 18339360871883810136
2748010 2 18052001365456321346
3060560 45 18411982472515956356
3091708 16 8970044021245187922
335352 9 18410578427123860980
350125 39 17690855865821578760
46194498 28 18336257943518743301
474 4 18411981377499762465
495365 180 18341043103220628800
5281201 14 18264205821211199413
53917941 68 17983568895319698572
58779409 8 17979085095596668140
6025842 7 18412542111561314815
6327066 14 18118401980153264948
6443956 14 18193840331869665918
7364860 26 18411700946047253667
7471813 234 18057032511146665699
81228 2 17474107601129384002
8272917 22 18413392012479745085
84936 182 18201721760072254689

>  <PUBCHEM_SHAPE_MULTIPOLES>  (1) 
403.5
8.74
4.78
0.9
16.55
2.74
-0.05
-7.28
-2.4
-6.37
-0.66
0.43
-0.17
0.63

>  <PUBCHEM_SHAPE_SELFOVERLAP>  (1) 
862.412

>  <PUBCHEM_SHAPE_VOLUME>  (1) 
229.6

>  <PUBCHEM_COORDINATE_TYPE>  (1) 
2
5
10

$$$$
