38997
     RDKit          3D

 22 24  0  0  0  0  0  0  0  0999 V2000
   -1.2791    4.2553   -0.2075 O   0  0  0  0  0  0  0  0  0  0  0  0
   -0.2012   -0.4648    0.4634 N   0  0  0  0  0  0  0  0  0  0  0  0
    3.5115   -0.4721    0.0424 N   0  0  0  0  0  0  0  0  0  0  0  0
    1.1984   -0.4331    0.8387 C   0  0  0  0  0  0  0  0  0  0  0  0
   -0.9562    0.6466    0.1711 C   0  0  0  0  0  0  0  0  0  0  0  0
   -0.9544   -1.6099    0.3547 C   0  0  0  0  0  0  0  0  0  0  0  0
    2.1166   -0.5332   -0.3759 C   0  0  0  0  0  0  0  0  0  0  0  0
   -2.2424    0.2026   -0.1373 C   0  0  0  0  0  0  0  0  0  0  0  0
   -2.2411   -1.2238   -0.0214 C   0  0  0  0  0  0  0  0  0  0  0  0
   -0.5988    1.9997    0.1573 C   0  0  0  0  0  0  0  0  0  0  0  0
    3.7885    0.7894    0.7323 C   0  0  0  0  0  0  0  0  0  0  0  0
    4.4029   -0.6266   -1.1088 C   0  0  0  0  0  0  0  0  0  0  0  0
   -0.5948   -2.9469    0.5598 C   0  0  0  0  0  0  0  0  0  0  0  0
   -3.2224    1.1588   -0.4772 C   0  0  0  0  0  0  0  0  0  0  0  0
   -3.2196   -2.2240   -0.2025 C   0  0  0  0  0  0  0  0  0  0  0  0
   -1.5871    2.9276   -0.1819 C   0  0  0  0  0  0  0  0  0  0  0  0
   -2.8801    2.5156   -0.4951 C   0  0  0  0  0  0  0  0  0  0  0  0
   -1.5814   -3.9191    0.3747 C   0  0  0  0  0  0  0  0  0  0  0  0
   -2.8750   -3.5653   -0.0010 C   0  0  0  0  0  0  0  0  0  0  0  0
    5.2222    0.8383    1.2326 C   0  0  0  0  0  0  0  0  0  0  0  0
    4.1332   -1.9304   -1.8408 C   0  0  0  0  0  0  0  0  0  0  0  0
    0.0605    4.6153    0.1223 C   0  0  0  0  0  0  0  0  0  0  0  0
  1 16  1  0
  1 22  1  0
  2  4  1  0
  2  5  1  0
  2  6  1  0
  3  7  1  0
  3 11  1  0
  3 12  1  0
  4  7  1  0
  5  8  2  0
  5 10  1  0
  6  9  2  0
  6 13  1  0
  8  9  1  0
  8 14  1  0
  9 15  1  0
 10 16  2  0
 11 20  1  0
 12 21  1  0
 13 18  2  0
 14 17  2  0
 15 19  2  0
 16 17  1  0
 18 19  1  0
M  END
>  <PUBCHEM_COMPOUND_CID>  (1) 
38997

>  <PUBCHEM_CONFORMER_RMSD>  (1) 
0.8

>  <PUBCHEM_CONFORMER_DIVERSEORDER>  (1) 
3
17
18
1
10
14
16
11
13
12
15
9
8
7
4
5
2
6

>  <PUBCHEM_MMFF94_PARTIAL_CHARGES>  (1) 
25
1 -0.36
10 -0.15
11 0.27
12 0.27
13 -0.15
14 -0.15
15 -0.15
16 0.08
17 -0.15
18 -0.15
19 -0.15
2 0.05
22 0.28
27 0.15
3 -0.81
32 0.15
33 0.15
34 0.15
35 0.15
36 0.15
37 0.15
4 0.26
5 -0.15
6 -0.15
7 0.27

>  <PUBCHEM_EFFECTIVE_ROTOR_COUNT>  (1) 
6

>  <PUBCHEM_PHARMACOPHORE_FEATURES>  (1) 
6
1 1 acceptor
1 2 cation
1 3 cation
5 2 5 6 8 9 rings
6 5 8 10 14 16 17 rings
6 6 9 13 15 18 19 rings

>  <PUBCHEM_HEAVY_ATOM_COUNT>  (1) 
22

>  <PUBCHEM_ATOM_DEF_STEREO_COUNT>  (1) 
0

>  <PUBCHEM_ATOM_UDEF_STEREO_COUNT>  (1) 
0

>  <PUBCHEM_BOND_DEF_STEREO_COUNT>  (1) 
0

>  <PUBCHEM_BOND_UDEF_STEREO_COUNT>  (1) 
0

>  <PUBCHEM_ISOTOPIC_ATOM_COUNT>  (1) 
0

>  <PUBCHEM_COMPONENT_COUNT>  (1) 
1

>  <PUBCHEM_CACTVS_TAUTO_COUNT>  (1) 
1

>  <PUBCHEM_CONFORMER_ID>  (1) 
0000985500000003

>  <PUBCHEM_MMFF94_ENERGY>  (1) 
53.9118

>  <PUBCHEM_FEATURE_SELFOVERLAP>  (1) 
30.625

>  <PUBCHEM_SHAPE_FINGERPRINT>  (1) 
10319926 262 18268124562642035914
10411042 1 18048591817999880139
1100329 8 18337106882380628529
11582403 64 16548549849939188034
11833330 49 18335978787012053827
12173636 292 18265328404670047100
12553582 1 18120952851392698790
12788726 201 18188218722612661010
13140716 1 17903076973634635907
138480 1 16393236994601123833
14508225 48 18268140045260860431
14790565 3 18338521833555499457
14955137 171 18191612889564836747
15042514 8 18407760343797565915
15475509 8 18343310284177578495
15961568 22 18120935277278255572
17818456 19 18117822319114519706
1813 80 18122923172119497915
18785283 64 16895408183175513177
19591789 44 18410014300095997865
19930381 70 17472414834148604496
20510252 161 18412823568915005865
20693207 138 17987537973746105942
21524375 3 17754457854701365186
23366157 5 17249762617248240953
23557571 272 18341048609885263890
23559900 14 17979629362052111104
2748010 2 18194944448293031977
3091708 16 9274586713241212219
350125 39 17689154509259161233
46194498 28 17331644335260709855
6913067 236 17843666997410564258
7364860 26 17329147382723034419
7399639 24 18058725944328034114
81228 2 18339655536705132739
84936 182 17547288904651466924
9709674 26 18343301470593132374
9981440 41 17975403629745253513

>  <PUBCHEM_SHAPE_MULTIPOLES>  (1) 
436.92
7.65
5.64
1.03
11.81
3.69
-0.21
-2.66
-0.76
-5.08
-0.15
1.3
-0.36
1.68

>  <PUBCHEM_SHAPE_SELFOVERLAP>  (1) 
936.11

>  <PUBCHEM_SHAPE_VOLUME>  (1) 
246.3

>  <PUBCHEM_COORDINATE_TYPE>  (1) 
2
5
10

$$$$
