39005
     RDKit          3D

 22 24  0  0  0  0  0  0  0  0999 V2000
   -4.5140    2.3739    0.0023 O   0  0  0  0  0  0  0  0  0  0  0  0
    0.2607   -0.2738   -0.4848 N   0  0  0  0  0  0  0  0  0  0  0  0
    3.7504    0.9781   -0.0197 N   0  0  0  0  0  0  0  0  0  0  0  0
    1.5986    0.1539   -0.8422 C   0  0  0  0  0  0  0  0  0  0  0  0
   -0.8322    0.5576   -0.4160 C   0  0  0  0  0  0  0  0  0  0  0  0
   -0.0869   -1.5657   -0.1679 C   0  0  0  0  0  0  0  0  0  0  0  0
    2.4063    0.5807    0.3800 C   0  0  0  0  0  0  0  0  0  0  0  0
   -1.9240   -0.2258   -0.0414 C   0  0  0  0  0  0  0  0  0  0  0  0
   -1.4530   -1.5681    0.1154 C   0  0  0  0  0  0  0  0  0  0  0  0
    4.4450   -0.1342   -0.6711 C   0  0  0  0  0  0  0  0  0  0  0  0
    4.5159    1.4458    1.1375 C   0  0  0  0  0  0  0  0  0  0  0  0
   -0.9338    1.9328   -0.6556 C   0  0  0  0  0  0  0  0  0  0  0  0
    0.6998   -2.7219   -0.1117 C   0  0  0  0  0  0  0  0  0  0  0  0
   -3.1825    0.3956    0.1016 C   0  0  0  0  0  0  0  0  0  0  0  0
   -2.0655   -2.7875    0.4733 C   0  0  0  0  0  0  0  0  0  0  0  0
   -3.2998    1.7699   -0.1344 C   0  0  0  0  0  0  0  0  0  0  0  0
   -2.1907    2.5253   -0.5074 C   0  0  0  0  0  0  0  0  0  0  0  0
    0.0704   -3.9174    0.2452 C   0  0  0  0  0  0  0  0  0  0  0  0
   -1.2917   -3.9521    0.5338 C   0  0  0  0  0  0  0  0  0  0  0  0
    5.8233    0.2859   -1.1526 C   0  0  0  0  0  0  0  0  0  0  0  0
    3.8132    2.6012    1.8300 C   0  0  0  0  0  0  0  0  0  0  0  0
   -5.6094    1.5458    0.3862 C   0  0  0  0  0  0  0  0  0  0  0  0
  1 16  1  0
  1 22  1  0
  2  4  1  0
  2  5  1  0
  2  6  1  0
  3  7  1  0
  3 10  1  0
  3 11  1  0
  4  7  1  0
  5  8  2  0
  5 12  1  0
  6  9  2  0
  6 13  1  0
  8  9  1  0
  8 14  1  0
  9 15  1  0
 10 20  1  0
 11 21  1  0
 12 17  2  0
 13 18  2  0
 14 16  2  0
 15 19  2  0
 16 17  1  0
 18 19  1  0
M  END
>  <PUBCHEM_COMPOUND_CID>  (1) 
39005

>  <PUBCHEM_CONFORMER_RMSD>  (1) 
0.8

>  <PUBCHEM_CONFORMER_DIVERSEORDER>  (1) 
4
13
15
11
7
14
16
12
10
9
6
3
8
1
5
2

>  <PUBCHEM_MMFF94_PARTIAL_CHARGES>  (1) 
25
1 -0.36
10 0.27
11 0.27
12 -0.15
13 -0.15
14 -0.15
15 -0.15
16 0.08
17 -0.15
18 -0.15
19 -0.15
2 0.05
22 0.28
3 -0.81
31 0.15
32 0.15
33 0.15
34 0.15
35 0.15
36 0.15
37 0.15
4 0.26
5 -0.15
6 -0.15
7 0.27

>  <PUBCHEM_EFFECTIVE_ROTOR_COUNT>  (1) 
6

>  <PUBCHEM_PHARMACOPHORE_FEATURES>  (1) 
6
1 1 acceptor
1 2 cation
1 3 cation
5 2 5 6 8 9 rings
6 5 8 12 14 16 17 rings
6 6 9 13 15 18 19 rings

>  <PUBCHEM_HEAVY_ATOM_COUNT>  (1) 
22

>  <PUBCHEM_ATOM_DEF_STEREO_COUNT>  (1) 
0

>  <PUBCHEM_ATOM_UDEF_STEREO_COUNT>  (1) 
0

>  <PUBCHEM_BOND_DEF_STEREO_COUNT>  (1) 
0

>  <PUBCHEM_BOND_UDEF_STEREO_COUNT>  (1) 
0

>  <PUBCHEM_ISOTOPIC_ATOM_COUNT>  (1) 
0

>  <PUBCHEM_COMPONENT_COUNT>  (1) 
1

>  <PUBCHEM_CACTVS_TAUTO_COUNT>  (1) 
1

>  <PUBCHEM_CONFORMER_ID>  (1) 
0000985D00000004

>  <PUBCHEM_MMFF94_ENERGY>  (1) 
54.0143

>  <PUBCHEM_FEATURE_SELFOVERLAP>  (1) 
30.625

>  <PUBCHEM_SHAPE_FINGERPRINT>  (1) 
10074138 170 18189881196962547563
10165383 225 18337118860648895212
10319926 262 18196633290117587888
10411042 1 17760658361527625955
1100329 8 18337398244034704341
12173636 292 18410002265154406038
12553582 1 17543922659809574030
13140716 1 18263082115890694443
138480 1 17328019876234938751
13955234 65 18049726214026592179
14178342 30 18190163771978198130
14787075 74 18131060559367005009
14790565 3 18336559239158446085
15042514 8 18190752027351958763
15230672 131 18262524689956494230
15295992 7 18131063857743392616
15806764 133 17772773764901505756
15927050 60 18410858720341655959
16110190 28 17900791931238511946
19591789 44 18264492775912324734
19784866 170 18261962847239016965
20510252 161 18269837677986151818
21033648 29 18412541024713718736
21049683 118 18265870571461262121
212916 134 18339910563441994112
21524375 3 18270963436127262733
21650355 55 17904472257704975314
22182313 1 18265077798167163551
22224240 67 18412266121616946665
23557571 272 18269849768714657588
23559900 14 18341615936848521732
23598288 3 17752787966995495630
2748010 2 18190765067199658551
3091708 16 9412236759992596163
3298306 158 18271534100628607238
350125 39 18119251653511488862
3729539 64 18053118224478521198
5265222 85 18263666090178197310
58807428 26 18335133163880972427
59124914 9 18127978511772246536
59755656 520 18408885118116768687
633830 44 18059280003092900756
6442390 28 18411136922489009011
7364860 26 17977665303794116727
7808743 9 18262805185147625540
81228 2 18119520192210390022
84936 182 18053382093682379361
9709674 26 18199463454047357348
9981440 41 18335699395611485889

>  <PUBCHEM_SHAPE_MULTIPOLES>  (1) 
436.92
9.71
4.43
1.03
7.09
4.48
-0.23
-8.83
-0.42
-3.06
-1.06
1.28
-0.49
1.5

>  <PUBCHEM_SHAPE_SELFOVERLAP>  (1) 
936.066

>  <PUBCHEM_SHAPE_VOLUME>  (1) 
246.3

>  <PUBCHEM_COORDINATE_TYPE>  (1) 
2
5
10

$$$$
