39009
     RDKit          3D

 21 23  0  0  0  0  0  0  0  0999 V2000
    3.8640    2.7434    0.1463 O   0  0  0  0  0  0  0  0  0  0  0  0
   -0.4516   -0.6073   -0.2950 N   0  0  0  0  0  0  0  0  0  0  0  0
   -4.3146    1.2070   -0.2128 N   0  0  0  0  0  0  0  0  0  0  0  0
   -1.8682   -0.3763   -0.4951 C   0  0  0  0  0  0  0  0  0  0  0  0
    0.4963    0.3849   -0.2088 C   0  0  0  0  0  0  0  0  0  0  0  0
    0.1262   -1.8481   -0.1637 C   0  0  0  0  0  0  0  0  0  0  0  0
    1.7296   -0.2378   -0.0148 C   0  0  0  0  0  0  0  0  0  0  0  0
    1.4955   -1.6494    0.0139 C   0  0  0  0  0  0  0  0  0  0  0  0
   -2.6188   -0.2238    0.8276 C   0  0  0  0  0  0  0  0  0  0  0  0
   -4.1094    0.0064    0.5887 C   0  0  0  0  0  0  0  0  0  0  0  0
    0.3543    1.7751   -0.2876 C   0  0  0  0  0  0  0  0  0  0  0  0
   -0.4572   -3.1201   -0.1889 C   0  0  0  0  0  0  0  0  0  0  0  0
    2.8806    0.5688    0.1069 C   0  0  0  0  0  0  0  0  0  0  0  0
    2.3257   -2.7787    0.1749 C   0  0  0  0  0  0  0  0  0  0  0  0
    2.7545    1.9604    0.0298 C   0  0  0  0  0  0  0  0  0  0  0  0
    1.5090    2.5525   -0.1648 C   0  0  0  0  0  0  0  0  0  0  0  0
    0.3857   -4.2229   -0.0277 C   0  0  0  0  0  0  0  0  0  0  0  0
    1.7569   -4.0571    0.1519 C   0  0  0  0  0  0  0  0  0  0  0  0
   -3.7976    2.3864    0.4835 C   0  0  0  0  0  0  0  0  0  0  0  0
   -5.7343    1.3830   -0.5237 C   0  0  0  0  0  0  0  0  0  0  0  0
    3.6732    4.1537    0.0593 C   0  0  0  0  0  0  0  0  0  0  0  0
  1 15  1  0
  1 21  1  0
  2  4  1  0
  2  5  1  0
  2  6  1  0
  3 10  1  0
  3 19  1  0
  3 20  1  0
  4  9  1  0
  5  7  2  0
  5 11  1  0
  6  8  2  0
  6 12  1  0
  7  8  1  0
  7 13  1  0
  8 14  1  0
  9 10  1  0
 11 16  2  0
 12 17  2  0
 13 15  2  0
 14 18  2  0
 15 16  1  0
 17 18  1  0
M  END
>  <PUBCHEM_COMPOUND_CID>  (1) 
39009

>  <PUBCHEM_CONFORMER_RMSD>  (1) 
0.8

>  <PUBCHEM_CONFORMER_DIVERSEORDER>  (1) 
5
8
17
13
10
18
7
16
2
11
12
4
9
1
14
3
15
6

>  <PUBCHEM_MMFF94_PARTIAL_CHARGES>  (1) 
25
1 -0.36
10 0.27
11 -0.15
12 -0.15
13 -0.15
14 -0.15
15 0.08
16 -0.15
17 -0.15
18 -0.15
19 0.27
2 0.05
20 0.27
21 0.28
28 0.15
29 0.15
3 -0.81
30 0.15
31 0.15
32 0.15
33 0.15
34 0.15
4 0.26
5 -0.15
6 -0.15

>  <PUBCHEM_EFFECTIVE_ROTOR_COUNT>  (1) 
5

>  <PUBCHEM_PHARMACOPHORE_FEATURES>  (1) 
6
1 1 acceptor
1 2 cation
1 3 cation
5 2 5 6 7 8 rings
6 5 7 11 13 15 16 rings
6 6 8 12 14 17 18 rings

>  <PUBCHEM_HEAVY_ATOM_COUNT>  (1) 
21

>  <PUBCHEM_ATOM_DEF_STEREO_COUNT>  (1) 
0

>  <PUBCHEM_ATOM_UDEF_STEREO_COUNT>  (1) 
0

>  <PUBCHEM_BOND_DEF_STEREO_COUNT>  (1) 
0

>  <PUBCHEM_BOND_UDEF_STEREO_COUNT>  (1) 
0

>  <PUBCHEM_ISOTOPIC_ATOM_COUNT>  (1) 
0

>  <PUBCHEM_COMPONENT_COUNT>  (1) 
1

>  <PUBCHEM_CACTVS_TAUTO_COUNT>  (1) 
1

>  <PUBCHEM_CONFORMER_ID>  (1) 
0000986100000005

>  <PUBCHEM_MMFF94_ENERGY>  (1) 
55.9676

>  <PUBCHEM_FEATURE_SELFOVERLAP>  (1) 
30.625

>  <PUBCHEM_SHAPE_FINGERPRINT>  (1) 
10411042 1 17762335816886873095
10493431 412 18194120947979836032
10693767 8 17986956254247960110
10937287 8 18338797947726722229
10967382 1 18266459802309452350
1100329 8 18410853266107268562
11578080 2 13920847931076009879
116883 192 17330558640178083895
12107183 9 18264473153177700552
12173636 292 18050849111012770940
12390115 104 17980783827834197896
12553582 1 17690864271283950203
12730499 353 18409177610486238649
12788726 201 17544743986347416650
13009979 54 17485932922054032267
13134695 92 18049161064612415935
13140716 1 18336261353506836018
138480 1 18122626046102027800
13955234 65 18337677408450456643
14123255 52 18339363088118732769
14790565 3 18409740551739605180
14955137 171 18264768766727813274
15081414 286 18052546469351278843
15230672 131 18263088872638940996
15664445 248 17912660011849736718
15927050 60 18339926047384957310
16087824 20 16969707681465434205
17492 89 18339080390057764979
19591789 44 18410018753708000014
20157964 124 18337946806480524541
20510252 161 17621889016391784914
20645477 70 18262797355337387371
20739085 24 18187363229488757260
21478907 32 17040354615027271627
21524375 3 18057330680782568799
2255824 54 18341332180447799591
23419403 2 17679284300571574390
23558518 356 17829328335013241626
23559900 14 18265612092166825307
23845131 108 18335698412169671027
23929065 36 17336163332186937080
283562 15 17617087453429833842
3091708 16 9187624160888556338
335352 9 18410855482478893404
350125 39 17761778768217886409
394222 165 18187919621005655384
474 4 18411696578355488633
5939293 188 18194682562103593259
6443956 14 17976825289647711159
7364860 26 18338518517365161707
7399639 24 18263097655282240563
7471813 234 17914034414437786109
77188 2 17906170646640091894
7808743 9 17977948217669917272
8272917 22 18340488859693151087
84936 182 18272930518433143361
9709674 26 18335145233583352771
9981440 41 18337389460931839337

>  <PUBCHEM_SHAPE_MULTIPOLES>  (1) 
416.34
7.81
5.73
0.71
12.62
2
0.03
-7.72
0.19
-6.87
0.11
0.3
-0.01
0.02

>  <PUBCHEM_SHAPE_SELFOVERLAP>  (1) 
896.989

>  <PUBCHEM_SHAPE_VOLUME>  (1) 
233.5

>  <PUBCHEM_COORDINATE_TYPE>  (1) 
2
5
10

$$$$
