3900
     RDKit          3D

 32 35  0  0  1  0  0  0  0  0999 V2000
    0.9266    1.1562   -1.1290 S   0  0  0  0  0  0  0  0  0  0  0  0
    0.5053   -2.7848    0.7917 O   0  0  0  0  0  0  0  0  0  0  0  0
   -3.4623   -0.3607   -0.2376 O   0  0  0  0  0  0  0  0  0  0  0  0
   -2.4936   -2.0667   -1.4572 O   0  0  0  0  0  0  0  0  0  0  0  0
    4.3901   -2.4677    0.4623 O   0  0  0  0  0  0  0  0  0  0  0  0
   -5.6789    1.3304   -0.0164 O   0  0  0  0  0  0  0  0  0  0  0  0
   -7.5840    0.7569    1.1922 O   0  0  0  0  0  0  0  0  0  0  0  0
   -7.0674    2.9590    0.8091 O   0  0  0  0  0  0  0  0  0  0  0  0
   -0.0585   -1.2315   -0.8933 N   0  0  0  0  0  0  0  0  0  0  0  0
    2.8817   -0.7475    0.0849 N   0  0  0  0  0  0  0  0  0  0  0  0
    3.7634    0.5121    2.2245 N   0  0  0  0  0  0  0  0  0  0  0  0
    1.0431   -0.6011   -1.6265 C   0  0  0  0  0  0  0  0  0  0  0  0
   -0.9222    1.0219   -0.9464 C   0  0  0  0  0  0  0  0  0  0  0  0
   -1.1308   -0.4008   -0.3844 C   0  0  0  0  0  0  0  0  0  0  0  0
    2.0019   -1.4861   -0.8181 C   0  0  0  0  0  0  0  0  0  0  0  0
    0.7362   -2.0423   -0.1355 C   0  0  0  0  0  0  0  0  0  0  0  0
   -1.4032    2.0873    0.0405 C   0  0  0  0  0  0  0  0  0  0  0  0
   -1.5514    1.2605   -2.3258 C   0  0  0  0  0  0  0  0  0  0  0  0
   -2.4181   -1.0579   -0.7689 C   0  0  0  0  0  0  0  0  0  0  0  0
    4.0232   -1.3104    0.6601 C   0  0  0  0  0  0  0  0  0  0  0  0
    4.7624   -0.3465    1.5819 C   0  0  0  0  0  0  0  0  0  0  0  0
   -4.7624   -0.8828   -0.5296 C   0  0  0  0  0  0  0  0  0  0  0  0
    5.7979    0.4482    0.8136 C   0  0  0  0  0  0  0  0  0  0  0  0
   -5.8096   -0.0388    0.1026 C   0  0  0  0  0  0  0  0  0  0  0  0
    7.0835   -0.0506    0.7010 C   0  0  0  0  0  0  0  0  0  0  0  0
    5.4344    1.6543    0.2416 C   0  0  0  0  0  0  0  0  0  0  0  0
   -6.8866   -0.3630    0.7859 C   0  0  0  0  0  0  0  0  0  0  0  0
    8.0372    0.6810   -0.0066 C   0  0  0  0  0  0  0  0  0  0  0  0
    6.3882    2.3859   -0.4662 C   0  0  0  0  0  0  0  0  0  0  0  0
    7.6895    1.8991   -0.5903 C   0  0  0  0  0  0  0  0  0  0  0  0
   -7.4383   -1.6853    1.1676 C   0  0  0  0  0  0  0  0  0  0  0  0
   -6.7970    1.7716    0.6723 C   0  0  0  0  0  0  0  0  0  0  0  0
  1 12  1  0
  1 13  1  0
  2 16  2  0
  3 19  1  0
  3 22  1  0
  4 19  2  0
  5 20  2  0
  6 24  1  0
  6 32  1  0
  7 27  1  0
  7 32  1  0
  8 32  2  0
  9 12  1  0
  9 14  1  0
  9 16  1  0
 10 15  1  0
 10 20  1  0
 11 21  1  0
 12 15  1  0
 13 14  1  0
 13 17  1  0
 13 18  1  0
 14 19  1  0
 15 16  1  0
 20 21  1  0
 21 23  1  0
 22 24  1  0
 23 25  2  0
 23 26  1  0
 24 27  2  0
 25 28  1  0
 26 29  2  0
 27 31  1  0
 28 30  2  0
 29 30  1  0
M  END
>  <PUBCHEM_COMPOUND_CID>  (1) 
3900

>  <PUBCHEM_CONFORMER_RMSD>  (1) 
1.6

>  <PUBCHEM_CONFORMER_DIVERSEORDER>  (1) 
7
14
76
75
2
110
28
50
88
30
137
22
66
26
27
130
44
100
97
72
90
55
109
23
36
132
85
108
103
140
33
38
46
5
17
39
60
82
34
114
120
83
69
121
117
61
42
148
95
128
119
139
101
4
135
9
105
59
19
136
13
43
93
92
32
112
31
57
81
131
74
49
142
99
143
25
68
40
47
24
8
102
29
89
3
65
141
79
124
77
20
6
18
11
56
53
70
104
127
94
98
113
71
129
144
78
37
1
133
10
64
45
41
54
84
115
12
80
147
138
91
145
86
123
96
48
21
35
52
62
16
58
51
116
73
125
107
126
15
146
106
122
67
87
134
118
111
63

>  <PUBCHEM_MMFF94_PARTIAL_CHARGES>  (1) 
38
1 -0.45
10 -0.65
11 -0.99
12 0.44
13 0.23
14 0.36
15 0.28
16 0.58
19 0.66
2 -0.57
20 0.57
21 0.47
22 0.42
23 -0.14
24 -0.06
25 -0.15
26 -0.15
27 -0.06
28 -0.15
29 -0.15
3 -0.43
30 -0.15
31 0.14
32 0.87
4 -0.57
42 0.37
46 0.36
47 0.36
48 0.15
49 0.15
5 -0.57
50 0.15
51 0.15
52 0.15
6 -0.23
7 -0.23
8 -0.57
9 -0.59

>  <PUBCHEM_EFFECTIVE_ROTOR_COUNT>  (1) 
8.8

>  <PUBCHEM_PHARMACOPHORE_FEATURES>  (1) 
11
1 10 donor
1 11 cation
1 11 donor
1 2 acceptor
1 4 acceptor
1 5 acceptor
3 13 17 18 hydrophobe
4 9 12 15 16 rings
5 6 7 24 27 32 rings
6 23 25 26 28 29 30 rings
7 1 9 12 13 14 15 16 rings

>  <PUBCHEM_HEAVY_ATOM_COUNT>  (1) 
32

>  <PUBCHEM_ATOM_DEF_STEREO_COUNT>  (1) 
0

>  <PUBCHEM_ATOM_UDEF_STEREO_COUNT>  (1) 
4

>  <PUBCHEM_BOND_DEF_STEREO_COUNT>  (1) 
0

>  <PUBCHEM_BOND_UDEF_STEREO_COUNT>  (1) 
0

>  <PUBCHEM_ISOTOPIC_ATOM_COUNT>  (1) 
0

>  <PUBCHEM_COMPONENT_COUNT>  (1) 
1

>  <PUBCHEM_CACTVS_TAUTO_COUNT>  (1) 
2

>  <PUBCHEM_CONFORMER_ID>  (1) 
00000F3C00000007

>  <PUBCHEM_MMFF94_ENERGY>  (1) 
76.7613

>  <PUBCHEM_FEATURE_SELFOVERLAP>  (1) 
59.564

>  <PUBCHEM_SHAPE_FINGERPRINT>  (1) 
10 15 18272090496540665771
10100884 174 17826798333273847875
106641 1 17894631491065453906
10670039 82 13830142671555497691
10674148 151 18202281434052046032
10693767 8 10015588285546369332
10883706 17 9006758900377194693
10906281 52 18408889572377994046
11456790 92 18410849963419596696
11991303 11 14332832846687387837
12539765 74 18201727253989612606
13782708 43 13262685828978109927
14068700 675 10737283537205330119
14251764 18 18334575780547941021
14394314 77 18335986385521948017
14849402 71 18262802985607496109
14951699 99 18059296466224577817
15461852 350 17632569479845699215
15510800 12 12540696964486117584
18335252 114 14549015481529273770
190975 80 17676204714594260931
2026 5 12540692618232727193
21033648 29 17559939065840324362
21130935 74 18260552178306004443
21315764 119 13758354501190340332
21521239 73 9007050266937050253
23576562 1 13613653273479910953
24771293 8 18408605880976125461
3383291 50 13334740124133690841
3711267 37 17846504750690355720
397830 11 18114460059305665637
4093350 32 17632302246527251310
4169191 19 18411696565755891197
474113 269 14045199424736696780
504579 68 12391517464665179207
5104073 3 17896591782821635361
59682541 35 17749672986519555808
6004065 56 11458426838948880854
6126387 218 17168135738271746383
9689198 14 18202566202450722096
9962374 69 14418425454906945259

>  <PUBCHEM_SHAPE_MULTIPOLES>  (1) 
606.37
23.82
2.65
1.51
5.79
0.13
0.13
10.42
-10.36
0.51
-0.07
0.16
0.08
-1.2

>  <PUBCHEM_SHAPE_SELFOVERLAP>  (1) 
1289.911

>  <PUBCHEM_SHAPE_VOLUME>  (1) 
341.3

>  <PUBCHEM_COORDINATE_TYPE>  (1) 
2
5
10

$$$$
