39007
     RDKit          3D

 22 25  0  0  0  0  0  0  0  0999 V2000
    4.0784    2.9625   -0.2431 O   0  0  0  0  0  0  0  0  0  0  0  0
   -3.7997    0.1056   -0.1174 N   0  0  0  0  0  0  0  0  0  0  0  0
   -0.1524   -0.4508    0.4608 N   0  0  0  0  0  0  0  0  0  0  0  0
   -4.6670    0.2310   -1.2884 C   0  0  0  0  0  0  0  0  0  0  0  0
   -4.0233    1.3284    0.6533 C   0  0  0  0  0  0  0  0  0  0  0  0
   -5.9554    0.7862   -0.6997 C   0  0  0  0  0  0  0  0  0  0  0  0
   -5.5320    1.5104    0.5746 C   0  0  0  0  0  0  0  0  0  0  0  0
   -2.4015   -0.0758   -0.4785 C   0  0  0  0  0  0  0  0  0  0  0  0
   -1.5511   -0.2420    0.7776 C   0  0  0  0  0  0  0  0  0  0  0  0
    0.7749    0.5549    0.3227 C   0  0  0  0  0  0  0  0  0  0  0  0
    0.4272   -1.6813    0.2598 C   0  0  0  0  0  0  0  0  0  0  0  0
    1.9964   -0.0482    0.0219 C   0  0  0  0  0  0  0  0  0  0  0  0
    1.7766   -1.4618   -0.0177 C   0  0  0  0  0  0  0  0  0  0  0  0
    0.6237    1.9414    0.4405 C   0  0  0  0  0  0  0  0  0  0  0  0
   -0.1385   -2.9608    0.3026 C   0  0  0  0  0  0  0  0  0  0  0  0
    3.1256    0.7751   -0.1711 C   0  0  0  0  0  0  0  0  0  0  0  0
    2.6044   -2.5771   -0.2650 C   0  0  0  0  0  0  0  0  0  0  0  0
    2.9902    2.1633   -0.0568 C   0  0  0  0  0  0  0  0  0  0  0  0
    1.7566    2.7357    0.2444 C   0  0  0  0  0  0  0  0  0  0  0  0
    0.7016   -4.0494    0.0540 C   0  0  0  0  0  0  0  0  0  0  0  0
    2.0532   -3.8628   -0.2257 C   0  0  0  0  0  0  0  0  0  0  0  0
    5.3119    2.3157   -0.5489 C   0  0  0  0  0  0  0  0  0  0  0  0
  1 18  1  0
  1 22  1  0
  2  4  1  0
  2  5  1  0
  2  8  1  0
  3  9  1  0
  3 10  1  0
  3 11  1  0
  4  6  1  0
  5  7  1  0
  6  7  1  0
  8  9  1  0
 10 12  1  0
 10 14  2  0
 11 13  2  0
 11 15  1  0
 12 13  1  0
 12 16  2  0
 13 17  1  0
 14 19  1  0
 15 20  2  0
 16 18  1  0
 17 21  2  0
 18 19  2  0
 20 21  1  0
M  END
>  <PUBCHEM_COMPOUND_CID>  (1) 
39007

>  <PUBCHEM_CONFORMER_RMSD>  (1) 
0.8

>  <PUBCHEM_CONFORMER_DIVERSEORDER>  (1) 
1
9
6
2
10
7
5
8
3
4

>  <PUBCHEM_MMFF94_PARTIAL_CHARGES>  (1) 
25
1 -0.36
10 -0.15
11 -0.15
14 -0.15
15 -0.15
16 -0.15
17 -0.15
18 0.08
19 -0.15
2 -0.81
20 -0.15
21 -0.15
22 0.28
3 0.05
35 0.15
36 0.15
37 0.15
38 0.15
39 0.15
4 0.27
40 0.15
41 0.15
5 0.27
8 0.27
9 0.26

>  <PUBCHEM_EFFECTIVE_ROTOR_COUNT>  (1) 
5

>  <PUBCHEM_PHARMACOPHORE_FEATURES>  (1) 
7
1 1 acceptor
1 2 cation
1 3 cation
5 2 4 5 6 7 rings
5 3 10 11 12 13 rings
6 10 12 14 16 18 19 rings
6 11 13 15 17 20 21 rings

>  <PUBCHEM_HEAVY_ATOM_COUNT>  (1) 
22

>  <PUBCHEM_ATOM_DEF_STEREO_COUNT>  (1) 
0

>  <PUBCHEM_ATOM_UDEF_STEREO_COUNT>  (1) 
0

>  <PUBCHEM_BOND_DEF_STEREO_COUNT>  (1) 
0

>  <PUBCHEM_BOND_UDEF_STEREO_COUNT>  (1) 
0

>  <PUBCHEM_ISOTOPIC_ATOM_COUNT>  (1) 
0

>  <PUBCHEM_COMPONENT_COUNT>  (1) 
1

>  <PUBCHEM_CACTVS_TAUTO_COUNT>  (1) 
1

>  <PUBCHEM_CONFORMER_ID>  (1) 
0000985F00000001

>  <PUBCHEM_MMFF94_ENERGY>  (1) 
52.2743

>  <PUBCHEM_FEATURE_SELFOVERLAP>  (1) 
35.702

>  <PUBCHEM_SHAPE_FINGERPRINT>  (1) 
10411042 1 17762057640397715938
105312 117 18191030208283601372
10595046 47 18342735205484121149
10693767 8 18059577923805473542
1100329 8 18410290298958400754
11265709 11 17906732505661653834
12107183 9 17623014500246391585
12293681 160 17917437574345033728
12553582 1 17979348656223303455
12730499 353 18408612474167714323
12769317 202 18411408519030980405
12788726 201 17202774696400411753
13009979 54 17486777372722416971
13140716 1 18335140890606798522
13464514 151 18341053016273867758
13533116 47 18342730790236388581
138480 1 18122627150040452738
13955234 65 18337112259326314083
14508225 48 17907298745886922270
14790565 3 18338241565058332620
15664445 248 17913222961486750894
15927050 60 18339926034442221526
16087824 20 16825312109149964137
167882 2 18409168801176290858
17844677 252 18267872684190112841
17913733 40 18268729336258946315
17980427 26 17701227413173193432
1813 80 17770222648205253791
18335252 98 18335704988476458803
18785283 64 18334014969055891707
19784866 34 18411702118536551545
20554085 129 17987783224931686680
20612939 158 18411698743077164453
20645477 70 18335416821191712171
21033648 29 18197214973753522696
21307412 95 18056791865073447476
21478907 32 17329710921013577003
221357 26 18047183056611620933
22182313 1 18122088604360628874
2255824 54 18341047407031222463
22907989 373 17399797597413416484
23559900 14 18338795611507262595
23929065 36 17336443699119782896
24771293 8 18200580394816373514
25 1 18410290349838072984
266924 1 17916596331922188865
2748010 2 18194704763417163778
3060560 45 18411136931052699974
3091708 16 9115848046212055298
335352 9 18410294727396068148
38695281 34 18411982494186101438
394222 165 18186794816420844864
46194498 28 18263351500686791957
474 4 18410852162010016561
5281201 14 18191301581686960357
6025842 7 18411413995356473447
6327066 14 18189894399571182900
6443956 14 18049726221841300199
7364860 26 18339078185852825115
7471813 234 18055625127710205083
77188 2 17833550094307000646
8272917 22 18340488876667233455
84936 182 18273492381649030145
9841814 1 17971183738345725227
9937071 3 12173608632120311101
9981440 41 18266454489318434747

>  <PUBCHEM_SHAPE_MULTIPOLES>  (1) 
436.92
10.26
4.61
0.84
14.85
3.75
-0.08
-8.84
-2.29
-6.55
-0.02
0.62
-0.09
-0.46

>  <PUBCHEM_SHAPE_SELFOVERLAP>  (1) 
957.426

>  <PUBCHEM_SHAPE_VOLUME>  (1) 
241

>  <PUBCHEM_COORDINATE_TYPE>  (1) 
2
5
10

$$$$
