39019
     RDKit          3D

 22 24  0  0  0  0  0  0  0  0999 V2000
    3.1977    4.4431    0.2330 Cl  0  0  0  0  0  0  0  0  0  0  0  0
   -0.8897   -4.5394    0.0961 O   0  0  0  0  0  0  0  0  0  0  0  0
    0.1751    0.2094    0.5489 N   0  0  0  0  0  0  0  0  0  0  0  0
   -4.1758    2.2355   -0.5355 N   0  0  0  0  0  0  0  0  0  0  0  0
   -1.0530    0.7739    1.0723 C   0  0  0  0  0  0  0  0  0  0  0  0
    0.3592   -1.1210    0.2546 C   0  0  0  0  0  0  0  0  0  0  0  0
    1.3135    0.9318    0.2792 C   0  0  0  0  0  0  0  0  0  0  0  0
    1.6628   -1.2622   -0.2217 C   0  0  0  0  0  0  0  0  0  0  0  0
    2.2660    0.0355   -0.2064 C   0  0  0  0  0  0  0  0  0  0  0  0
   -1.9980    1.2269   -0.0403 C   0  0  0  0  0  0  0  0  0  0  0  0
   -3.2773    1.8280    0.5379 C   0  0  0  0  0  0  0  0  0  0  0  0
   -0.5242   -2.2001    0.3739 C   0  0  0  0  0  0  0  0  0  0  0  0
    1.5678    2.3000    0.4276 C   0  0  0  0  0  0  0  0  0  0  0  0
    2.1079   -2.5469   -0.5984 C   0  0  0  0  0  0  0  0  0  0  0  0
    3.5382    0.5306   -0.5621 C   0  0  0  0  0  0  0  0  0  0  0  0
   -0.0603   -3.4624   -0.0058 C   0  0  0  0  0  0  0  0  0  0  0  0
    1.2359   -3.6356   -0.4849 C   0  0  0  0  0  0  0  0  0  0  0  0
    2.8351    2.7664    0.0681 C   0  0  0  0  0  0  0  0  0  0  0  0
    3.8074    1.8965   -0.4195 C   0  0  0  0  0  0  0  0  0  0  0  0
   -5.4186    2.7822    0.0122 C   0  0  0  0  0  0  0  0  0  0  0  0
   -4.4653    1.1069   -1.4221 C   0  0  0  0  0  0  0  0  0  0  0  0
   -2.2044   -4.2992    0.5930 C   0  0  0  0  0  0  0  0  0  0  0  0
  1 18  1  0
  2 16  1  0
  2 22  1  0
  3  5  1  0
  3  6  1  0
  3  7  1  0
  4 11  1  0
  4 20  1  0
  4 21  1  0
  5 10  1  0
  6  8  2  0
  6 12  1  0
  7  9  2  0
  7 13  1  0
  8  9  1  0
  8 14  1  0
  9 15  1  0
 10 11  1  0
 12 16  2  0
 13 18  2  0
 14 17  2  0
 15 19  2  0
 16 17  1  0
 18 19  1  0
M  END
>  <PUBCHEM_COMPOUND_CID>  (1) 
39019

>  <PUBCHEM_CONFORMER_RMSD>  (1) 
0.8

>  <PUBCHEM_CONFORMER_DIVERSEORDER>  (1) 
1
14
9
8
12
11
5
3
10
6
7
13
4
2

>  <PUBCHEM_MMFF94_PARTIAL_CHARGES>  (1) 
25
1 -0.18
11 0.27
12 -0.15
13 -0.15
14 -0.15
15 -0.15
16 0.08
17 -0.15
18 0.18
19 -0.15
2 -0.36
20 0.27
21 0.27
22 0.28
29 0.15
3 0.05
30 0.15
31 0.15
32 0.15
33 0.15
34 0.15
4 -0.81
5 0.26
6 -0.15
7 -0.15

>  <PUBCHEM_EFFECTIVE_ROTOR_COUNT>  (1) 
5

>  <PUBCHEM_PHARMACOPHORE_FEATURES>  (1) 
6
1 2 acceptor
1 3 cation
1 4 cation
5 3 6 7 8 9 rings
6 6 8 12 14 16 17 rings
6 7 9 13 15 18 19 rings

>  <PUBCHEM_HEAVY_ATOM_COUNT>  (1) 
22

>  <PUBCHEM_ATOM_DEF_STEREO_COUNT>  (1) 
0

>  <PUBCHEM_ATOM_UDEF_STEREO_COUNT>  (1) 
0

>  <PUBCHEM_BOND_DEF_STEREO_COUNT>  (1) 
0

>  <PUBCHEM_BOND_UDEF_STEREO_COUNT>  (1) 
0

>  <PUBCHEM_ISOTOPIC_ATOM_COUNT>  (1) 
0

>  <PUBCHEM_COMPONENT_COUNT>  (1) 
1

>  <PUBCHEM_CACTVS_TAUTO_COUNT>  (1) 
1

>  <PUBCHEM_CONFORMER_ID>  (1) 
0000986B00000001

>  <PUBCHEM_MMFF94_ENERGY>  (1) 
56.8491

>  <PUBCHEM_FEATURE_SELFOVERLAP>  (1) 
30.625

>  <PUBCHEM_SHAPE_FINGERPRINT>  (1) 
10411042 1 17474109795800104099
10688039 33 17542506484163244459
10693767 8 17842841018980003606
1100329 8 18338516322901156826
11582403 64 17749654247435039633
11833330 49 17328297459907891464
12553582 1 17402065391785999643
12730499 353 18336558122883271209
12788726 201 17469590167581437488
13009979 54 17126487143195291769
13140716 1 18270691994869642288
13540713 4 17985557890981155316
138480 1 17834395618531982305
13911987 19 17903385635622474638
13955234 65 18267304231935465737
16087824 20 17762060239617619731
16728300 4 16955885837141096610
17134986 127 18410294731079547108
17876694 64 17176015073976065612
19427546 62 18409730664629846641
20642791 105 18195518427680655008
20645477 70 18118687621738206777
21285901 2 17480606148836636694
21307412 95 18056789597283112492
21641784 216 17326065442682150908
22033318 11 16906959704568328297
2255824 54 18195805168070641471
23559900 14 18194114115198447881
23598291 2 17627519228859225865
238 59 18337956684229766681
266924 87 18051973924614933318
2748010 2 18194992706393121730
3060560 45 18338517430754468244
3380486 77 16302912256546075314
350125 39 18052271879739822176
352729 6 18342464789309492232
3886686 26 18124849452852563864
4409770 3 17834379499382473031
46194498 28 17534640217791668013
463206 1 17760373189195554971
59025328 239 16900405553891817661
6025842 7 18266736888309478685
6443956 14 17832991542030474733
7164475 11 17760088814878367484
81228 2 17545337727000127560
8272917 22 18196656198766444117
9777508 108 18196090164778435201

>  <PUBCHEM_SHAPE_MULTIPOLES>  (1) 
438.79
7.58
6.69
0.89
5.29
4.58
-0.08
-10.84
-1.6
3.05
0.16
0.44
-0.14
1.25

>  <PUBCHEM_SHAPE_SELFOVERLAP>  (1) 
935.169

>  <PUBCHEM_SHAPE_VOLUME>  (1) 
250.8

>  <PUBCHEM_COORDINATE_TYPE>  (1) 
2
5
10

$$$$
