39013
     RDKit          3D

 21 23  0  0  0  0  0  0  0  0999 V2000
   -5.4087    0.4229    0.2534 Cl  0  0  0  0  0  0  0  0  0  0  0  0
    4.2333   -1.6725    0.0090 O   0  0  0  0  0  0  0  0  0  0  0  0
   -0.1991    0.3537    0.3842 N   0  0  0  0  0  0  0  0  0  0  0  0
    0.5221    3.9875   -0.1029 N   0  0  0  0  0  0  0  0  0  0  0  0
    0.7500   -0.6179    0.1700 C   0  0  0  0  0  0  0  0  0  0  0  0
   -1.4657   -0.1555    0.2206 C   0  0  0  0  0  0  0  0  0  0  0  0
    0.0961    1.7287    0.7352 C   0  0  0  0  0  0  0  0  0  0  0  0
    0.0717   -1.7957   -0.1440 C   0  0  0  0  0  0  0  0  0  0  0  0
   -1.3291   -1.5036   -0.1119 C   0  0  0  0  0  0  0  0  0  0  0  0
    0.2521    2.6113   -0.4997 C   0  0  0  0  0  0  0  0  0  0  0  0
    2.1462   -0.5415    0.2302 C   0  0  0  0  0  0  0  0  0  0  0  0
   -2.7109    0.4719    0.3415 C   0  0  0  0  0  0  0  0  0  0  0  0
    0.8258   -2.9575   -0.4122 C   0  0  0  0  0  0  0  0  0  0  0  0
   -2.4956   -2.2647   -0.3352 C   0  0  0  0  0  0  0  0  0  0  0  0
    2.8712   -1.7055   -0.0393 C   0  0  0  0  0  0  0  0  0  0  0  0
    2.2228   -2.8967   -0.3561 C   0  0  0  0  0  0  0  0  0  0  0  0
   -3.8517   -0.3031    0.1160 C   0  0  0  0  0  0  0  0  0  0  0  0
   -3.7480   -1.6514   -0.2175 C   0  0  0  0  0  0  0  0  0  0  0  0
    0.6343    4.8514   -1.2797 C   0  0  0  0  0  0  0  0  0  0  0  0
    1.7442    4.0630    0.6999 C   0  0  0  0  0  0  0  0  0  0  0  0
    4.8390   -0.4246    0.3385 C   0  0  0  0  0  0  0  0  0  0  0  0
  1 17  1  0
  2 15  1  0
  2 21  1  0
  3  5  1  0
  3  6  1  0
  3  7  1  0
  4 10  1  0
  4 19  1  0
  4 20  1  0
  5  8  2  0
  5 11  1  0
  6  9  2  0
  6 12  1  0
  7 10  1  0
  8  9  1  0
  8 13  1  0
  9 14  1  0
 11 15  2  0
 12 17  2  0
 13 16  2  0
 14 18  2  0
 15 16  1  0
 17 18  1  0
M  END
>  <PUBCHEM_COMPOUND_CID>  (1) 
39013

>  <PUBCHEM_CONFORMER_RMSD>  (1) 
0.6

>  <PUBCHEM_CONFORMER_DIVERSEORDER>  (1) 
3
11
5
6
10
12
9
7
8
4
2
1

>  <PUBCHEM_MMFF94_PARTIAL_CHARGES>  (1) 
25
1 -0.18
10 0.27
11 -0.15
12 -0.15
13 -0.15
14 -0.15
15 0.08
16 -0.15
17 0.18
18 -0.15
19 0.27
2 -0.36
20 0.27
21 0.28
26 0.15
27 0.15
28 0.15
29 0.15
3 0.05
30 0.15
31 0.15
4 -0.81
5 -0.15
6 -0.15
7 0.26

>  <PUBCHEM_EFFECTIVE_ROTOR_COUNT>  (1) 
4

>  <PUBCHEM_PHARMACOPHORE_FEATURES>  (1) 
6
1 2 acceptor
1 3 cation
1 4 cation
5 3 5 6 8 9 rings
6 5 8 11 13 15 16 rings
6 6 9 12 14 17 18 rings

>  <PUBCHEM_HEAVY_ATOM_COUNT>  (1) 
21

>  <PUBCHEM_ATOM_DEF_STEREO_COUNT>  (1) 
0

>  <PUBCHEM_ATOM_UDEF_STEREO_COUNT>  (1) 
0

>  <PUBCHEM_BOND_DEF_STEREO_COUNT>  (1) 
0

>  <PUBCHEM_BOND_UDEF_STEREO_COUNT>  (1) 
0

>  <PUBCHEM_ISOTOPIC_ATOM_COUNT>  (1) 
0

>  <PUBCHEM_COMPONENT_COUNT>  (1) 
1

>  <PUBCHEM_CACTVS_TAUTO_COUNT>  (1) 
1

>  <PUBCHEM_CONFORMER_ID>  (1) 
0000986500000003

>  <PUBCHEM_MMFF94_ENERGY>  (1) 
56.2985

>  <PUBCHEM_FEATURE_SELFOVERLAP>  (1) 
30.625

>  <PUBCHEM_SHAPE_FINGERPRINT>  (1) 
10319926 262 16328211443497404536
10670039 82 18265633004974311822
10967382 1 18341050735377695299
1100329 8 18339645645490375803
11833330 49 18263642866419556640
12553582 1 18339070497835225427
12788726 201 18044658594508560658
13004483 165 18193267499254837083
13132413 78 18342176652643391527
13140716 1 18267872864114593915
138480 1 18411138056212922340
14790565 3 18340210807679158008
14955137 171 18194149419265183563
15081414 286 18270127811996790971
15196674 1 18342738485758343703
15664445 248 18199771209628227110
1601671 61 18341895164776601595
167882 2 18192711378251924005
17876694 64 17751373789257863726
17980427 23 17703233914920395249
18785283 64 18263936608102212265
19591789 44 16321187780334839571
20028762 73 15317184182150120670
20510252 161 18053380998592170138
20642791 178 18265057022930051648
20671657 1 18339366391444072373
20739085 24 18339941362562582232
21267235 1 18270409286742075143
21285901 2 17914054188193047327
21641784 216 18118986705964845644
23366157 5 18044931517920288067
23402539 116 18271517615832013615
23419403 2 17970319672651273140
23557571 272 18265903440983491662
23558518 356 17976812409035951115
23559900 14 18269544083260662691
25147074 1 17916310622909589983
2748010 2 18342161285208409714
3071541 12 18267024045079165051
3091708 16 9141418292748274025
34934 24 18341045225203939667
350125 39 18195250151170106059
352729 6 17187279067800812562
4409770 3 17902499398763326189
458136 41 17834127711741919553
5104073 3 18270120098035815275
532947 4 18196659716492378492
59554788 170 18054516798330532519
7364860 26 18267866270938679201
81228 2 18049176478901517954
84936 182 17984705781863713025
90316 7 18265320721021144370
9981440 41 17545597211644354977

>  <PUBCHEM_SHAPE_MULTIPOLES>  (1) 
418.21
7.36
5.46
0.8
3.81
8.23
0.07
-3.22
-0.79
-4.28
1.48
-0.09
0.5
-0.15

>  <PUBCHEM_SHAPE_SELFOVERLAP>  (1) 
897.225

>  <PUBCHEM_SHAPE_VOLUME>  (1) 
237.8

>  <PUBCHEM_COORDINATE_TYPE>  (1) 
2
5
10

$$$$
