39015
     RDKit          3D

 23 25  0  0  0  0  0  0  0  0999 V2000
   -3.1652    4.4612   -0.4544 Cl  0  0  0  0  0  0  0  0  0  0  0  0
    0.6584   -4.6193    0.1278 O   0  0  0  0  0  0  0  0  0  0  0  0
   -0.2316    0.1535   -0.4351 N   0  0  0  0  0  0  0  0  0  0  0  0
    3.1796    1.6218   -0.0224 N   0  0  0  0  0  0  0  0  0  0  0  0
    1.0617    0.6869   -0.8142 C   0  0  0  0  0  0  0  0  0  0  0  0
   -0.4803   -1.1715   -0.1650 C   0  0  0  0  0  0  0  0  0  0  0  0
   -1.3748    0.9042   -0.2936 C   0  0  0  0  0  0  0  0  0  0  0  0
    1.8794    1.1166    0.4004 C   0  0  0  0  0  0  0  0  0  0  0  0
   -1.8321   -1.2796    0.1624 C   0  0  0  0  0  0  0  0  0  0  0  0
   -2.3975    0.0327    0.0811 C   0  0  0  0  0  0  0  0  0  0  0  0
    0.3838   -2.2723   -0.1862 C   0  0  0  0  0  0  0  0  0  0  0  0
    3.9252    0.5883   -0.7433 C   0  0  0  0  0  0  0  0  0  0  0  0
    3.9502    2.0923    1.1302 C   0  0  0  0  0  0  0  0  0  0  0  0
   -1.5769    2.2782   -0.4681 C   0  0  0  0  0  0  0  0  0  0  0  0
   -2.3483   -2.5522    0.4852 C   0  0  0  0  0  0  0  0  0  0  0  0
   -3.6889    0.5597    0.2927 C   0  0  0  0  0  0  0  0  0  0  0  0
   -0.1508   -3.5222    0.1373 C   0  0  0  0  0  0  0  0  0  0  0  0
   -1.4964   -3.6625    0.4684 C   0  0  0  0  0  0  0  0  0  0  0  0
   -2.8647    2.7762   -0.2526 C   0  0  0  0  0  0  0  0  0  0  0  0
   -3.9065    1.9315    0.1223 C   0  0  0  0  0  0  0  0  0  0  0  0
    5.2552    1.1220   -1.2478 C   0  0  0  0  0  0  0  0  0  0  0  0
    3.1948    3.1665    1.8942 C   0  0  0  0  0  0  0  0  0  0  0  0
    2.0257   -4.4118   -0.2191 C   0  0  0  0  0  0  0  0  0  0  0  0
  1 19  1  0
  2 17  1  0
  2 23  1  0
  3  5  1  0
  3  6  1  0
  3  7  1  0
  4  8  1  0
  4 12  1  0
  4 13  1  0
  5  8  1  0
  6  9  2  0
  6 11  1  0
  7 10  2  0
  7 14  1  0
  9 10  1  0
  9 15  1  0
 10 16  1  0
 11 17  2  0
 12 21  1  0
 13 22  1  0
 14 19  2  0
 15 18  2  0
 16 20  2  0
 17 18  1  0
 19 20  1  0
M  END
>  <PUBCHEM_COMPOUND_CID>  (1) 
39015

>  <PUBCHEM_CONFORMER_RMSD>  (1) 
0.8

>  <PUBCHEM_CONFORMER_DIVERSEORDER>  (1) 
2
14
15
11
8
10
16
13
12
5
7
4
3
6
9
1

>  <PUBCHEM_MMFF94_PARTIAL_CHARGES>  (1) 
25
1 -0.18
11 -0.15
12 0.27
13 0.27
14 -0.15
15 -0.15
16 -0.15
17 0.08
18 -0.15
19 0.18
2 -0.36
20 -0.15
23 0.28
28 0.15
3 0.05
33 0.15
34 0.15
35 0.15
36 0.15
37 0.15
4 -0.81
5 0.26
6 -0.15
7 -0.15
8 0.27

>  <PUBCHEM_EFFECTIVE_ROTOR_COUNT>  (1) 
6

>  <PUBCHEM_PHARMACOPHORE_FEATURES>  (1) 
6
1 2 acceptor
1 3 cation
1 4 cation
5 3 6 7 9 10 rings
6 6 9 11 15 17 18 rings
6 7 10 14 16 19 20 rings

>  <PUBCHEM_HEAVY_ATOM_COUNT>  (1) 
23

>  <PUBCHEM_ATOM_DEF_STEREO_COUNT>  (1) 
0

>  <PUBCHEM_ATOM_UDEF_STEREO_COUNT>  (1) 
0

>  <PUBCHEM_BOND_DEF_STEREO_COUNT>  (1) 
0

>  <PUBCHEM_BOND_UDEF_STEREO_COUNT>  (1) 
0

>  <PUBCHEM_ISOTOPIC_ATOM_COUNT>  (1) 
0

>  <PUBCHEM_COMPONENT_COUNT>  (1) 
1

>  <PUBCHEM_CACTVS_TAUTO_COUNT>  (1) 
1

>  <PUBCHEM_CONFORMER_ID>  (1) 
0000986700000002

>  <PUBCHEM_MMFF94_ENERGY>  (1) 
54.5838

>  <PUBCHEM_FEATURE_SELFOVERLAP>  (1) 
30.625

>  <PUBCHEM_SHAPE_FINGERPRINT>  (1) 
10165383 225 18339379469256199905
10319926 262 18125421246217753744
10411042 1 17760939840804266951
1100329 8 17689720761979051587
11578080 2 12122245859831403799
12173636 292 18410284852359114124
12553582 1 17328875803250961430
12788726 201 17755584098538063296
13140716 1 18409165510925692635
138480 1 17472701325572978070
14081887 123 17836071648268211640
14178342 30 18119513574203967768
14251757 5 18120956133396325948
14790565 3 18264499377630538700
14844126 61 17903619023891547218
14955137 171 17188433577102252307
15042514 8 18119538871192030395
15081414 286 16898497806818048077
15230672 131 18335426726146264094
15927050 60 18339648828182779935
18785283 64 17901676959855256233
19591789 44 18337397028173467391
20028762 73 17911530006445165279
20510252 161 18198626729476590249
20600515 1 17693672810601887751
20642791 178 18046351825467275682
21033648 29 18412821387125536288
21650355 55 17833540580568772570
23366157 5 17825959117341180183
23557571 272 17981889954117960544
23559900 14 17690263929740784809
266924 87 18410006641985076415
3091708 16 9195782515849865395
3187 122 17331368365814659689
3298306 158 18269277872397203758
350125 39 18048327652273719333
5265222 85 18263385684616344118
532947 4 18050844425372509158
6443956 14 17545039299581861854
7364860 26 17977947886935355447
81228 2 17908699875634299635
84936 182 18052819152509082369
90316 7 17977102692942359523
9709674 26 18055914553009172644
9981440 41 18337100186247221633

>  <PUBCHEM_SHAPE_MULTIPOLES>  (1) 
459.37
7.56
6.62
1.02
4.94
5.4
-0.24
-8.73
0.6
0.26
-0.96
1.08
-0.83
1.54

>  <PUBCHEM_SHAPE_SELFOVERLAP>  (1) 
975.049

>  <PUBCHEM_SHAPE_VOLUME>  (1) 
262.9

>  <PUBCHEM_COORDINATE_TYPE>  (1) 
2
5
10

$$$$
