39028
     RDKit          3D

 18 19  0  0  0  0  0  0  0  0999 V2000
    2.0778   -0.3182    0.0006 O   0  0  0  0  0  0  0  0  0  0  0  0
   -3.8652    1.8808    0.0003 O   0  0  0  0  0  0  0  0  0  0  0  0
    5.3671    0.8694   -0.0035 O   0  0  0  0  0  0  0  0  0  0  0  0
    4.5522   -1.1689   -0.0015 O   0  0  0  0  0  0  0  0  0  0  0  0
   -0.5365   -1.6168    0.0010 N   0  0  0  0  0  0  0  0  0  0  0  0
   -1.5129    0.3382    0.0010 N   0  0  0  0  0  0  0  0  0  0  0  0
   -1.8421   -1.9255    0.0005 N   0  0  0  0  0  0  0  0  0  0  0  0
   -3.7502   -0.4777   -0.0004 N   0  0  0  0  0  0  0  0  0  0  0  0
    4.3728    0.0848   -0.0016 N   0  0  0  0  0  0  0  0  0  0  0  0
   -0.3541   -0.2720    0.0011 C   0  0  0  0  0  0  0  0  0  0  0  0
    0.9092    0.3754    0.0016 C   0  0  0  0  0  0  0  0  0  0  0  0
   -2.3900   -0.7085    0.0002 C   0  0  0  0  0  0  0  0  0  0  0  0
    1.1508    1.7294    0.0021 C   0  0  0  0  0  0  0  0  0  0  0  0
    0.4556   -2.6641    0.0005 C   0  0  0  0  0  0  0  0  0  0  0  0
    3.0765    0.6031    0.0007 C   0  0  0  0  0  0  0  0  0  0  0  0
    2.5584    1.8772    0.0016 C   0  0  0  0  0  0  0  0  0  0  0  0
   -4.3838    0.7694   -0.0002 C   0  0  0  0  0  0  0  0  0  0  0  0
   -5.8855    0.6240   -0.0041 C   0  0  0  0  0  0  0  0  0  0  0  0
  1 11  1  0
  1 15  1  0
  2 17  2  0
  3  9  1  0
  4  9  2  0
  5  7  1  0
  5 10  1  0
  5 14  1  0
  6 10  2  0
  6 12  1  0
  7 12  2  0
  8 12  1  0
  8 17  1  0
  9 15  1  0
 10 11  1  0
 11 13  2  0
 13 16  1  0
 15 16  2  0
 17 18  1  0
M  CHG  2   3  -1   9   1
M  END
>  <PUBCHEM_COMPOUND_CID>  (1) 
39028

>  <PUBCHEM_CONFORMER_RMSD>  (1) 
0.6

>  <PUBCHEM_CONFORMER_DIVERSEORDER>  (1) 
1
16
12
15
11
4
6
20
5
9
17
10
13
19
8
18
7
3
14
2

>  <PUBCHEM_MMFF94_PARTIAL_CHARGES>  (1) 
21
1 -0.28
10 0.19
11 0.14
12 0.58
13 -0.15
14 0.26
15 0.22
16 -0.15
17 0.57
18 0.06
19 0.15
2 -0.57
23 0.15
24 0.37
3 -0.52
4 -0.52
5 0.31
6 -0.57
7 -0.71
8 -0.49
9 0.96

>  <PUBCHEM_EFFECTIVE_ROTOR_COUNT>  (1) 
4

>  <PUBCHEM_PHARMACOPHORE_FEATURES>  (1) 
9
1 1 acceptor
1 2 acceptor
1 3 acceptor
1 3 anion
1 4 acceptor
1 8 donor
3 5 6 10 cation
5 1 11 13 15 16 rings
5 5 6 7 10 12 rings

>  <PUBCHEM_HEAVY_ATOM_COUNT>  (1) 
18

>  <PUBCHEM_ATOM_DEF_STEREO_COUNT>  (1) 
0

>  <PUBCHEM_ATOM_UDEF_STEREO_COUNT>  (1) 
0

>  <PUBCHEM_BOND_DEF_STEREO_COUNT>  (1) 
0

>  <PUBCHEM_BOND_UDEF_STEREO_COUNT>  (1) 
0

>  <PUBCHEM_ISOTOPIC_ATOM_COUNT>  (1) 
0

>  <PUBCHEM_COMPONENT_COUNT>  (1) 
1

>  <PUBCHEM_CACTVS_TAUTO_COUNT>  (1) 
3

>  <PUBCHEM_CONFORMER_ID>  (1) 
0000987400000001

>  <PUBCHEM_MMFF94_ENERGY>  (1) 
24.6053

>  <PUBCHEM_FEATURE_SELFOVERLAP>  (1) 
45.763

>  <PUBCHEM_SHAPE_FINGERPRINT>  (1) 
10447042 23 10087645853730103897
10608611 8 18197214964983778233
11401426 45 18131067151481953576
12500047 106 18270678809050764466
12592029 89 18334294227882427099
12644460 14 18115306666179358859
13380535 76 18410294705393957475
13533116 47 17632297826937363638
13675066 3 18342176717015017106
14178342 30 17834098025012515056
14251764 18 18334571369600671210
15048467 5 18041001782491857644
15099037 51 18411419513999006566
15196674 1 18338797917635129154
15531645 54 18411983537773334132
17834072 8 18342463625373244620
18186145 218 18336816576418218965
19784866 9 18410854322236265291
200 152 17561362894121095973
20645477 56 18337387252833442689
20645477 70 17703516489039274102
21267235 1 18410582790240589867
21279426 13 18123471579276088972
212847 35 18408044026223975164
212916 134 18199730553335973258
21524375 3 18411982468706389447
23402539 116 18201995551563176645
23402655 69 18272369793119520964
23558518 356 17827919851532312434
23559900 14 18130785703082350464
25 1 18410007724110716495
293599 30 18409449202263231068
3004659 81 18261679186751628814
335352 9 18410575076685288822
34934 24 18339356470417674266
351380 180 18342455954641132261
3545911 37 18408323277145669397
366044 4 18410011044036144211
4214541 1 18410856602842806533
495365 180 17346307246223462152
5104073 3 18337670935428209880
59755656 215 18336265635546661927
6138700 20 18267026059857404462
633830 44 17676765486925195714
6430166 295 18409728469341992917
7364860 26 18268994189728460583
9981440 41 17254275047350510864
9999458 23 17967253108977799894

>  <PUBCHEM_SHAPE_MULTIPOLES>  (1) 
322.05
10.59
2.15
0.57
3.12
0.83
0
-3.78
-0.02
-0.15
0
0.03
-0.01
0

>  <PUBCHEM_SHAPE_SELFOVERLAP>  (1) 
690.514

>  <PUBCHEM_SHAPE_VOLUME>  (1) 
179.6

>  <PUBCHEM_COORDINATE_TYPE>  (1) 
2
5
10

$$$$
