39027
     RDKit          3D

 25 27  0  0  0  0  0  0  0  0999 V2000
    4.7227   -1.7925    0.2773 O   0  0  0  0  0  0  0  0  0  0  0  0
   -4.4262    0.7682   -0.3962 O   0  0  0  0  0  0  0  0  0  0  0  0
   -4.4199   -1.8961    0.3500 O   0  0  0  0  0  0  0  0  0  0  0  0
    0.4499    0.5209   -0.3504 N   0  0  0  0  0  0  0  0  0  0  0  0
    1.3837    4.1161    0.0605 N   0  0  0  0  0  0  0  0  0  0  0  0
    1.3242   -0.5022   -0.0688 C   0  0  0  0  0  0  0  0  0  0  0  0
   -0.8528    0.0989   -0.2262 C   0  0  0  0  0  0  0  0  0  0  0  0
    0.5584   -1.6243    0.2483 C   0  0  0  0  0  0  0  0  0  0  0  0
   -0.8178   -1.2443    0.1488 C   0  0  0  0  0  0  0  0  0  0  0  0
    0.8264    1.8687   -0.7301 C   0  0  0  0  0  0  0  0  0  0  0  0
    2.7238   -0.5169   -0.0714 C   0  0  0  0  0  0  0  0  0  0  0  0
    0.9806    2.7808    0.4836 C   0  0  0  0  0  0  0  0  0  0  0  0
   -2.0486    0.8009   -0.4165 C   0  0  0  0  0  0  0  0  0  0  0  0
    1.2238   -2.8233    0.5799 C   0  0  0  0  0  0  0  0  0  0  0  0
   -2.0396   -1.9220    0.3441 C   0  0  0  0  0  0  0  0  0  0  0  0
    3.3599   -1.7160    0.2604 C   0  0  0  0  0  0  0  0  0  0  0  0
    2.6230   -2.8535    0.5816 C   0  0  0  0  0  0  0  0  0  0  0  0
   -3.2456    0.1080   -0.2170 C   0  0  0  0  0  0  0  0  0  0  0  0
   -3.2435   -1.2333    0.1578 C   0  0  0  0  0  0  0  0  0  0  0  0
    3.5544    0.6806   -0.4074 C   0  0  0  0  0  0  0  0  0  0  0  0
    1.5732    4.9895    1.2203 C   0  0  0  0  0  0  0  0  0  0  0  0
    0.3914    4.6906   -0.8499 C   0  0  0  0  0  0  0  0  0  0  0  0
    5.3630   -2.1695   -0.9386 C   0  0  0  0  0  0  0  0  0  0  0  0
   -4.9794    1.4227    0.7426 C   0  0  0  0  0  0  0  0  0  0  0  0
   -4.9850   -2.5521   -0.7824 C   0  0  0  0  0  0  0  0  0  0  0  0
  1 16  1  0
  1 23  1  0
  2 18  1  0
  2 24  1  0
  3 19  1  0
  3 25  1  0
  4  6  1  0
  4  7  1  0
  4 10  1  0
  5 12  1  0
  5 21  1  0
  5 22  1  0
  6  8  2  0
  6 11  1  0
  7  9  2  0
  7 13  1  0
  8  9  1  0
  8 14  1  0
  9 15  1  0
 10 12  1  0
 11 16  2  0
 11 20  1  0
 13 18  2  0
 14 17  2  0
 15 19  2  0
 16 17  1  0
 18 19  1  0
M  END
>  <PUBCHEM_COMPOUND_CID>  (1) 
39027

>  <PUBCHEM_CONFORMER_RMSD>  (1) 
0.8

>  <PUBCHEM_CONFORMER_DIVERSEORDER>  (1) 
1
3
2
4

>  <PUBCHEM_MMFF94_PARTIAL_CHARGES>  (1) 
27
1 -0.36
10 0.26
11 -0.14
12 0.27
13 -0.15
14 -0.15
15 -0.15
16 0.08
17 -0.15
18 0.08
19 0.08
2 -0.36
20 0.14
21 0.27
22 0.27
23 0.28
24 0.28
25 0.28
3 -0.36
30 0.15
31 0.15
32 0.15
33 0.15
4 0.05
5 -0.81
6 -0.15
7 -0.15

>  <PUBCHEM_EFFECTIVE_ROTOR_COUNT>  (1) 
6

>  <PUBCHEM_PHARMACOPHORE_FEATURES>  (1) 
8
1 1 acceptor
1 2 acceptor
1 3 acceptor
1 4 cation
1 5 cation
5 4 6 7 8 9 rings
6 6 8 11 14 16 17 rings
6 7 9 13 15 18 19 rings

>  <PUBCHEM_HEAVY_ATOM_COUNT>  (1) 
25

>  <PUBCHEM_ATOM_DEF_STEREO_COUNT>  (1) 
0

>  <PUBCHEM_ATOM_UDEF_STEREO_COUNT>  (1) 
0

>  <PUBCHEM_BOND_DEF_STEREO_COUNT>  (1) 
0

>  <PUBCHEM_BOND_UDEF_STEREO_COUNT>  (1) 
0

>  <PUBCHEM_ISOTOPIC_ATOM_COUNT>  (1) 
0

>  <PUBCHEM_COMPONENT_COUNT>  (1) 
1

>  <PUBCHEM_CACTVS_TAUTO_COUNT>  (1) 
1

>  <PUBCHEM_CONFORMER_ID>  (1) 
0000987300000001

>  <PUBCHEM_MMFF94_ENERGY>  (1) 
100.6161

>  <PUBCHEM_FEATURE_SELFOVERLAP>  (1) 
40.78

>  <PUBCHEM_SHAPE_FINGERPRINT>  (1) 
10411042 1 18410292493396467014
10967382 1 18335981974004543710
1100329 8 18410862027703214177
11049842 53 17468771031730708436
11582403 64 16839666761863003948
12403259 226 18334287686789302517
12553582 1 18265042553116373687
12788726 201 17973443204928871050
12954195 1 17908153079728534438
13140716 1 18264199223661729186
13533116 47 18265616670744569351
138480 1 18409728490896191012
14466204 15 18337101371547496736
14787075 74 18113903749514283554
14790565 3 18119256305410424908
14866123 147 16968854468767918691
14955137 171 18265355961396632467
15196674 1 18408323289165966727
15927050 60 17764312038834829398
16087824 20 18049727309265325497
17980427 23 17775288218812998801
18681886 176 18341325660972690210
20510252 161 17978504231086741712
20600515 1 17988090971643149361
21049683 271 18188223085998669308
21267235 1 18336274474268421883
21641784 216 17826252704568960092
23366157 5 18115585009924378513
23402539 116 18341607075439927166
23557571 272 18125443003936031630
23559900 14 18338786914498830507
23566358 27 18124591139875006423
283562 15 18263367984850856002
3091708 16 9500585860832114752
335352 9 18336266730520969727
350125 39 18120096336387890117
352729 6 17183328531302266453
4409770 3 17901658268184211541
5104073 3 18407759235574691291
532947 4 18267304416645276788
6443956 14 18408888434200831428
7364860 26 18266176317113473634
79837 15 17400638719619640944
84936 182 18125725835880106833
9709674 26 18263927803377700419
9981440 41 17689147237906085393

>  <PUBCHEM_SHAPE_MULTIPOLES>  (1) 
486.92
9.08
5.66
0.89
4.66
9.13
-0.01
-7.1
0.84
-3.38
-0.78
-0.12
0.31
-0.06

>  <PUBCHEM_SHAPE_SELFOVERLAP>  (1) 
1045.844

>  <PUBCHEM_SHAPE_VOLUME>  (1) 
275.7

>  <PUBCHEM_COORDINATE_TYPE>  (1) 
2
5
10

$$$$
