39023
     RDKit          3D

 25 27  0  0  0  0  0  0  0  0999 V2000
    4.7555    0.9720   -0.0153 O   0  0  0  0  0  0  0  0  0  0  0  0
   -3.8121   -3.1930    0.0834 O   0  0  0  0  0  0  0  0  0  0  0  0
   -0.0032   -0.1401    0.3368 N   0  0  0  0  0  0  0  0  0  0  0  0
   -1.7118    3.1613   -0.0460 N   0  0  0  0  0  0  0  0  0  0  0  0
    1.3420   -0.3193    0.1165 C   0  0  0  0  0  0  0  0  0  0  0  0
   -0.6335    1.1057    0.7274 C   0  0  0  0  0  0  0  0  0  0  0  0
   -0.6918   -1.3134    0.1379 C   0  0  0  0  0  0  0  0  0  0  0  0
    1.5282   -1.6560   -0.2364 C   0  0  0  0  0  0  0  0  0  0  0  0
    0.2426   -2.2845   -0.2226 C   0  0  0  0  0  0  0  0  0  0  0  0
   -1.0611    1.9320   -0.4820 C   0  0  0  0  0  0  0  0  0  0  0  0
    2.3982    0.5950    0.2026 C   0  0  0  0  0  0  0  0  0  0  0  0
   -2.0605   -1.5841    0.2496 C   0  0  0  0  0  0  0  0  0  0  0  0
    2.8363   -2.1035   -0.5178 C   0  0  0  0  0  0  0  0  0  0  0  0
   -0.2125   -3.5939   -0.4848 C   0  0  0  0  0  0  0  0  0  0  0  0
    3.6844    0.1281   -0.0812 C   0  0  0  0  0  0  0  0  0  0  0  0
   -2.8997    2.8601    0.7552 C   0  0  0  0  0  0  0  0  0  0  0  0
   -2.0735    3.9902   -1.1974 C   0  0  0  0  0  0  0  0  0  0  0  0
    3.9026   -1.2009   -0.4362 C   0  0  0  0  0  0  0  0  0  0  0  0
   -2.4869   -2.8883   -0.0156 C   0  0  0  0  0  0  0  0  0  0  0  0
    2.2095    2.0302    0.5782 C   0  0  0  0  0  0  0  0  0  0  0  0
   -1.5783   -3.8800   -0.3772 C   0  0  0  0  0  0  0  0  0  0  0  0
   -3.5502    4.1320    1.2721 C   0  0  0  0  0  0  0  0  0  0  0  0
   -0.8546    4.3156   -2.0442 C   0  0  0  0  0  0  0  0  0  0  0  0
    5.4230    1.0707    1.2397 C   0  0  0  0  0  0  0  0  0  0  0  0
   -4.6928   -2.1359    0.4573 C   0  0  0  0  0  0  0  0  0  0  0  0
  1 15  1  0
  1 24  1  0
  2 19  1  0
  2 25  1  0
  3  5  1  0
  3  6  1  0
  3  7  1  0
  4 10  1  0
  4 16  1  0
  4 17  1  0
  5  8  2  0
  5 11  1  0
  6 10  1  0
  7  9  2  0
  7 12  1  0
  8  9  1  0
  8 13  1  0
  9 14  1  0
 11 15  2  0
 11 20  1  0
 12 19  2  0
 13 18  2  0
 14 21  2  0
 15 18  1  0
 16 22  1  0
 17 23  1  0
 19 21  1  0
M  END
>  <PUBCHEM_COMPOUND_CID>  (1) 
39023

>  <PUBCHEM_CONFORMER_RMSD>  (1) 
0.8

>  <PUBCHEM_CONFORMER_DIVERSEORDER>  (1) 
1
10
3
9
5
4
7
8
2
6

>  <PUBCHEM_MMFF94_PARTIAL_CHARGES>  (1) 
26
1 -0.36
10 0.27
11 -0.14
12 -0.15
13 -0.15
14 -0.15
15 0.08
16 0.27
17 0.27
18 -0.15
19 0.08
2 -0.36
20 0.14
21 -0.15
24 0.28
25 0.28
3 0.05
30 0.15
31 0.15
32 0.15
37 0.15
4 -0.81
41 0.15
5 -0.15
6 0.26
7 -0.15

>  <PUBCHEM_EFFECTIVE_ROTOR_COUNT>  (1) 
7

>  <PUBCHEM_PHARMACOPHORE_FEATURES>  (1) 
7
1 1 acceptor
1 2 acceptor
1 3 cation
1 4 cation
5 3 5 7 8 9 rings
6 5 8 11 13 15 18 rings
6 7 9 12 14 19 21 rings

>  <PUBCHEM_HEAVY_ATOM_COUNT>  (1) 
25

>  <PUBCHEM_ATOM_DEF_STEREO_COUNT>  (1) 
0

>  <PUBCHEM_ATOM_UDEF_STEREO_COUNT>  (1) 
0

>  <PUBCHEM_BOND_DEF_STEREO_COUNT>  (1) 
0

>  <PUBCHEM_BOND_UDEF_STEREO_COUNT>  (1) 
0

>  <PUBCHEM_ISOTOPIC_ATOM_COUNT>  (1) 
0

>  <PUBCHEM_COMPONENT_COUNT>  (1) 
1

>  <PUBCHEM_CACTVS_TAUTO_COUNT>  (1) 
1

>  <PUBCHEM_CONFORMER_ID>  (1) 
0000986F00000001

>  <PUBCHEM_MMFF94_ENERGY>  (1) 
81.3298

>  <PUBCHEM_FEATURE_SELFOVERLAP>  (1) 
35.7

>  <PUBCHEM_SHAPE_FINGERPRINT>  (1) 
10165383 225 17977687315596636380
10688039 33 18335138755886316970
10693767 8 16761117144321034655
10871710 139 17973472033003024196
1100329 8 17835522622372689826
11833330 49 18263921214628238904
12160290 23 18124846076232574065
12730499 353 17688599264556768337
12788726 201 18335415833185769314
13004483 165 18192702556694611506
13140716 1 17907572880906773474
13540713 4 18131072602813778262
138480 1 16537925036777207459
14028597 1 17749653182230396866
14178342 30 18337098021968260778
14790565 3 18197225741257450433
14955137 171 17471879346273739146
16988056 13 17764564892803243975
19427546 62 17979079280232594017
19591789 44 18195816154433564819
20600515 1 17984435301649650391
20642791 178 17110441347051208377
20739085 24 17906739459397666482
21285901 2 18201451310424350790
21304303 282 17543574930640663532
21641784 216 18190193441201180100
22182313 1 18060142038137720806
23402539 116 18128532871770151974
23558518 356 18335145275936978690
23559900 14 17405134618613807507
238 59 17396395240491818781
23845131 108 18194683653652995241
350125 39 18340776970325846698
3886686 26 17905293301519211010
4409770 3 18263903557970303407
653340 110 18413669110410170688
7399639 24 17901955140824789553
81228 2 18262241122027002137
9777508 108 18340765948959840897
9925002 15 18188225285054021717

>  <PUBCHEM_SHAPE_MULTIPOLES>  (1) 
492.79
7.84
6.64
1.1
5.15
0.39
-0.24
3.42
2.1
-8.58
-1.45
-0.38
1.32
0.99

>  <PUBCHEM_SHAPE_SELFOVERLAP>  (1) 
1052.357

>  <PUBCHEM_SHAPE_VOLUME>  (1) 
279.3

>  <PUBCHEM_COORDINATE_TYPE>  (1) 
2
5
10

$$$$
