39025
     RDKit          3D

 25 28  0  0  0  0  0  0  0  0999 V2000
    4.2291   -2.4808    0.1624 O   0  0  0  0  0  0  0  0  0  0  0  0
   -2.4933    4.2681    0.0236 O   0  0  0  0  0  0  0  0  0  0  0  0
   -2.5540   -2.4604   -0.1227 N   0  0  0  0  0  0  0  0  0  0  0  0
    0.0897    0.1326    0.3649 N   0  0  0  0  0  0  0  0  0  0  0  0
   -3.1623   -3.1325   -1.2704 C   0  0  0  0  0  0  0  0  0  0  0  0
   -3.6734   -1.8608    0.6033 C   0  0  0  0  0  0  0  0  0  0  0  0
   -1.5578   -1.4762   -0.5190 C   0  0  0  0  0  0  0  0  0  0  0  0
   -4.3928   -3.7921   -0.6657 C   0  0  0  0  0  0  0  0  0  0  0  0
   -4.7307   -2.9542    0.5637 C   0  0  0  0  0  0  0  0  0  0  0  0
   -0.9285   -0.8381    0.7160 C   0  0  0  0  0  0  0  0  0  0  0  0
    1.4263   -0.1399    0.1928 C   0  0  0  0  0  0  0  0  0  0  0  0
   -0.1676    1.4673    0.1584 C   0  0  0  0  0  0  0  0  0  0  0  0
    2.0538    1.0618   -0.1365 C   0  0  0  0  0  0  0  0  0  0  0  0
    1.0461    2.0778   -0.1582 C   0  0  0  0  0  0  0  0  0  0  0  0
    2.1199   -1.3506    0.3032 C   0  0  0  0  0  0  0  0  0  0  0  0
   -1.3744    2.1729    0.2281 C   0  0  0  0  0  0  0  0  0  0  0  0
    3.4455    1.0549   -0.3673 C   0  0  0  0  0  0  0  0  0  0  0  0
    1.0559    3.4643   -0.4190 C   0  0  0  0  0  0  0  0  0  0  0  0
    3.4976   -1.3318    0.0700 C   0  0  0  0  0  0  0  0  0  0  0  0
    4.1527   -0.1480   -0.2604 C   0  0  0  0  0  0  0  0  0  0  0  0
   -1.3390    3.5450   -0.0342 C   0  0  0  0  0  0  0  0  0  0  0  0
    1.4576   -2.6444    0.6554 C   0  0  0  0  0  0  0  0  0  0  0  0
   -0.1429    4.1832   -0.3532 C   0  0  0  0  0  0  0  0  0  0  0  0
    5.6276   -2.3774   -0.0902 C   0  0  0  0  0  0  0  0  0  0  0  0
   -3.6851    3.5591    0.3549 C   0  0  0  0  0  0  0  0  0  0  0  0
  1 19  1  0
  1 24  1  0
  2 21  1  0
  2 25  1  0
  3  5  1  0
  3  6  1  0
  3  7  1  0
  4 10  1  0
  4 11  1  0
  4 12  1  0
  5  8  1  0
  6  9  1  0
  7 10  1  0
  8  9  1  0
 11 13  1  0
 11 15  2  0
 12 14  2  0
 12 16  1  0
 13 14  1  0
 13 17  2  0
 14 18  1  0
 15 19  1  0
 15 22  1  0
 16 21  2  0
 17 20  1  0
 18 23  2  0
 19 20  2  0
 21 23  1  0
M  END
>  <PUBCHEM_COMPOUND_CID>  (1) 
39025

>  <PUBCHEM_CONFORMER_RMSD>  (1) 
0.8

>  <PUBCHEM_CONFORMER_DIVERSEORDER>  (1) 
3
1
4
2

>  <PUBCHEM_MMFF94_PARTIAL_CHARGES>  (1) 
26
1 -0.36
10 0.26
11 -0.15
12 -0.15
15 -0.14
16 -0.15
17 -0.15
18 -0.15
19 0.08
2 -0.36
20 -0.15
21 0.08
22 0.14
23 -0.15
24 0.28
25 0.28
3 -0.81
38 0.15
39 0.15
4 0.05
40 0.15
41 0.15
45 0.15
5 0.27
6 0.27
7 0.27

>  <PUBCHEM_EFFECTIVE_ROTOR_COUNT>  (1) 
6

>  <PUBCHEM_PHARMACOPHORE_FEATURES>  (1) 
8
1 1 acceptor
1 2 acceptor
1 3 cation
1 4 cation
5 3 5 6 8 9 rings
5 4 11 12 13 14 rings
6 11 13 15 17 19 20 rings
6 12 14 16 18 21 23 rings

>  <PUBCHEM_HEAVY_ATOM_COUNT>  (1) 
25

>  <PUBCHEM_ATOM_DEF_STEREO_COUNT>  (1) 
0

>  <PUBCHEM_ATOM_UDEF_STEREO_COUNT>  (1) 
0

>  <PUBCHEM_BOND_DEF_STEREO_COUNT>  (1) 
0

>  <PUBCHEM_BOND_UDEF_STEREO_COUNT>  (1) 
0

>  <PUBCHEM_ISOTOPIC_ATOM_COUNT>  (1) 
0

>  <PUBCHEM_COMPONENT_COUNT>  (1) 
1

>  <PUBCHEM_CACTVS_TAUTO_COUNT>  (1) 
1

>  <PUBCHEM_CONFORMER_ID>  (1) 
0000987100000003

>  <PUBCHEM_MMFF94_ENERGY>  (1) 
78.5528

>  <PUBCHEM_FEATURE_SELFOVERLAP>  (1) 
40.777

>  <PUBCHEM_SHAPE_FINGERPRINT>  (1) 
10050765 1 18338798919507312202
10074138 170 17904451070557594770
10411042 1 18410012165176108922
1100329 8 18265333910976752600
11014199 57 18411138082209663995
11578080 2 17845638318321106992
12107183 9 18270131209833283555
12553582 1 18267298910006846342
12730499 353 17254278337627268427
12788726 201 18334292098000576402
12839892 36 17111551304118388169
13004483 165 18412537734520641826
13140716 1 18337948987986118904
13540713 5 18187089408807814918
13590594 115 18410016571675073603
13690498 29 18268451061423845750
13692114 37 18125987292499456433
138480 1 15600327422603881175
13911987 19 17539706002863272620
13955234 65 17691690412675323507
14178342 30 18337375077181258256
14790565 3 17327750998730298845
14866123 147 18194680363275432155
15042514 8 18338239236937339400
15131766 46 15434312549291257574
15927050 60 17834394518894643982
16087824 20 18265335002726880597
17539 30 18339635642453443166
1813 80 18200326535735662022
18335252 114 18267008622960083191
18681886 176 17973445399916466216
19591789 44 17329428341944784904
20028762 73 17477188446001378965
20775438 99 17477714356515484597
21041028 32 18410008870534915663
21478907 32 18410293631166492491
21641784 216 17968953009905410116
22033318 11 17910153327856115779
2255824 54 17763743595507349551
22849339 104 17909288900719680894
23558518 356 18334018263860043856
23559900 14 17762613293433368395
24771293 8 17768526437124271016
25147074 1 18040723511818913422
3091708 16 9279080438448722808
38695281 34 17761209908526986041
4409770 3 18264767654335785141
46194498 28 17316188427009268327
474 4 17402891623508634267
59025328 239 17412142768073358791
6443956 14 18192148407013187231
6669772 16 17407111059193763094
7164475 11 18409732867889514694

>  <PUBCHEM_SHAPE_MULTIPOLES>  (1) 
492.79
8.81
6.67
0.81
0.57
5.96
0.07
-11.59
0.47
4.92
0.52
0.42
-0.33
-1.09

>  <PUBCHEM_SHAPE_SELFOVERLAP>  (1) 
1074.59

>  <PUBCHEM_SHAPE_VOLUME>  (1) 
273.8

>  <PUBCHEM_COORDINATE_TYPE>  (1) 
2
5
10

$$$$
