39035
     RDKit          3D

 17 18  0  0  0  0  0  0  0  0999 V2000
   -0.6030    2.8250   -0.0001 O   0  0  0  0  0  0  0  0  0  0  0  0
   -1.5793   -2.6085   -0.0003 O   0  0  0  0  0  0  0  0  0  0  0  0
   -3.1473    1.8760    0.0005 O   0  0  0  0  0  0  0  0  0  0  0  0
   -3.6355   -0.8303    0.0006 O   0  0  0  0  0  0  0  0  0  0  0  0
    1.9127    2.2854    0.0000 O   0  0  0  0  0  0  0  0  0  0  0  0
    0.9852   -2.9768    0.0004 O   0  0  0  0  0  0  0  0  0  0  0  0
    0.2804    0.5709   -0.0005 C   0  0  0  0  0  0  0  0  0  0  0  0
    0.0307   -0.8023   -0.0004 C   0  0  0  0  0  0  0  0  0  0  0  0
    1.6651    1.0847   -0.0007 C   0  0  0  0  0  0  0  0  0  0  0  0
   -0.7904    1.4730   -0.0002 C   0  0  0  0  0  0  0  0  0  0  0  0
   -1.2865   -1.2756   -0.0002 C   0  0  0  0  0  0  0  0  0  0  0  0
    2.7774    0.0957    0.0002 C   0  0  0  0  0  0  0  0  0  0  0  0
    1.1478   -1.7628   -0.0005 C   0  0  0  0  0  0  0  0  0  0  0  0
   -2.1026    0.9985    0.0001 C   0  0  0  0  0  0  0  0  0  0  0  0
   -2.3501   -0.3730    0.0000 C   0  0  0  0  0  0  0  0  0  0  0  0
    2.5204   -1.2173    0.0003 C   0  0  0  0  0  0  0  0  0  0  0  0
    4.1749    0.6374    0.0007 C   0  0  0  0  0  0  0  0  0  0  0  0
  1 10  1  0
  2 11  1  0
  3 14  1  0
  4 15  1  0
  5  9  2  0
  6 13  2  0
  7  8  2  0
  7  9  1  0
  7 10  1  0
  8 11  1  0
  8 13  1  0
  9 12  1  0
 10 14  2  0
 11 15  2  0
 12 16  2  0
 12 17  1  0
 13 16  1  0
 14 15  1  0
M  END
>  <PUBCHEM_COMPOUND_CID>  (1) 
39035

>  <PUBCHEM_CONFORMER_RMSD>  (1) 
0.4

>  <PUBCHEM_CONFORMER_DIVERSEORDER>  (1) 
1

>  <PUBCHEM_MMFF94_PARTIAL_CHARGES>  (1) 
22
1 -0.53
10 0.08
11 0.08
12 -0.12
13 0.47
14 0.08
15 0.08
16 -0.14
17 0.14
18 0.15
2 -0.53
22 0.45
23 0.45
24 0.45
25 0.45
3 -0.53
4 -0.53
5 -0.57
6 -0.57
7 0.09
8 0.09
9 0.47

>  <PUBCHEM_EFFECTIVE_ROTOR_COUNT>  (1) 
0

>  <PUBCHEM_PHARMACOPHORE_FEATURES>  (1) 
8
1 1 donor
1 2 donor
1 3 donor
1 4 donor
1 5 acceptor
1 6 acceptor
6 7 8 10 11 14 15 rings
6 7 8 9 12 13 16 rings

>  <PUBCHEM_HEAVY_ATOM_COUNT>  (1) 
17

>  <PUBCHEM_ATOM_DEF_STEREO_COUNT>  (1) 
0

>  <PUBCHEM_ATOM_UDEF_STEREO_COUNT>  (1) 
0

>  <PUBCHEM_BOND_DEF_STEREO_COUNT>  (1) 
0

>  <PUBCHEM_BOND_UDEF_STEREO_COUNT>  (1) 
0

>  <PUBCHEM_ISOTOPIC_ATOM_COUNT>  (1) 
0

>  <PUBCHEM_COMPONENT_COUNT>  (1) 
1

>  <PUBCHEM_CACTVS_TAUTO_COUNT>  (1) 
216

>  <PUBCHEM_CONFORMER_ID>  (1) 
0000987B00000001

>  <PUBCHEM_MMFF94_ENERGY>  (1) 
47.4182

>  <PUBCHEM_FEATURE_SELFOVERLAP>  (1) 
40.636

>  <PUBCHEM_SHAPE_FINGERPRINT>  (1) 
10411042 1 17113538672066672358
10608611 8 18410853231124836524
10967382 1 18410856594041784422
11132069 177 18411131412214766848
11471102 20 18410288078037549029
11680986 33 18265902345492355291
12382932 28 18339642248123486128
13140716 1 18266461094925336066
13221675 6 18410857676415903446
13380535 76 18410007710978018098
13897977 150 18338513028418114965
14614273 12 18260257534336240349
14790565 3 18338817687507697681
15196674 1 18410855426037533222
15442244 35 17978790103920202282
15536298 74 18271243811951242862
16945 1 18410573959444976870
193761 8 18122626054644353187
20510252 161 18343866606131091104
21267235 1 18410302440192220654
21501502 16 18338514123397327147
2334 1 18050287264865866372
23402539 116 18270952548480398799
23463225 33 18335419084333417992
23559900 14 18343586227526100988
238 59 16455407861892327989
2748010 2 18194682789810141278
2897 32 18337392638848584220
335352 9 18194682562298233238
43471831 8 18335698317480021410
5104073 3 18410573942291462962
528886 8 18339356465468813218
53812653 166 18341890753897923248
54173680 148 18120938566774525578
7364860 26 18126002659570675046
8809292 202 18189055463566667226

>  <PUBCHEM_SHAPE_MULTIPOLES>  (1) 
314.64
5.13
2.92
0.58
1.01
0.38
0
-0.81
0
-0.38
0
0.04
0
0

>  <PUBCHEM_SHAPE_SELFOVERLAP>  (1) 
700.496

>  <PUBCHEM_SHAPE_VOLUME>  (1) 
166.3

>  <PUBCHEM_COORDINATE_TYPE>  (1) 
2
5
10

$$$$
