39042
     RDKit          3D

 25 26  0  0  0  0  0  0  0  0999 V2000
    4.9343   -4.3123    0.1083 Cl  0  0  0  0  0  0  0  0  0  0  0  0
   -3.8398    0.0230    0.6388 O   0  0  0  0  0  0  0  0  0  0  0  0
   -5.4111   -2.9116   -0.6908 O   0  0  0  0  0  0  0  0  0  0  0  0
   -5.9944   -1.4486    0.9333 O   0  0  0  0  0  0  0  0  0  0  0  0
    3.9862    2.2639    0.4175 O   0  0  0  0  0  0  0  0  0  0  0  0
    2.1081    1.6850   -0.8145 N   0  0  0  0  0  0  0  0  0  0  0  0
   -3.9240   -1.0596   -0.2884 C   0  0  0  0  0  0  0  0  0  0  0  0
    0.6406    3.4178    0.1558 C   0  0  0  0  0  0  0  0  0  0  0  0
   -0.5435    2.5206    0.2841 C   0  0  0  0  0  0  0  0  0  0  0  0
    1.5932    3.0181   -0.9778 C   0  0  0  0  0  0  0  0  0  0  0  0
   -2.7535    0.8455    0.5217 C   0  0  0  0  0  0  0  0  0  0  0  0
   -3.9911   -0.4728   -1.6953 C   0  0  0  0  0  0  0  0  0  0  0  0
   -2.7006   -1.9492   -0.0886 C   0  0  0  0  0  0  0  0  0  0  0  0
   -1.7126    2.8039   -0.4220 C   0  0  0  0  0  0  0  0  0  0  0  0
   -0.4821    1.3977    1.1092 C   0  0  0  0  0  0  0  0  0  0  0  0
   -2.8201    1.9644   -0.3029 C   0  0  0  0  0  0  0  0  0  0  0  0
   -1.5896    0.5581    1.2283 C   0  0  0  0  0  0  0  0  0  0  0  0
   -5.2077   -1.8005    0.0622 C   0  0  0  0  0  0  0  0  0  0  0  0
    3.2803    1.4142   -0.1194 C   0  0  0  0  0  0  0  0  0  0  0  0
    3.6916   -0.0122   -0.0630 C   0  0  0  0  0  0  0  0  0  0  0  0
    5.0300   -0.3137    0.0812 C   0  0  0  0  0  0  0  0  0  0  0  0
    2.7228   -0.9898   -0.1554 C   0  0  0  0  0  0  0  0  0  0  0  0
    5.4169   -1.6527    0.1352 C   0  0  0  0  0  0  0  0  0  0  0  0
    3.1096   -2.3289   -0.1014 C   0  0  0  0  0  0  0  0  0  0  0  0
    4.4567   -2.6604    0.0438 C   0  0  0  0  0  0  0  0  0  0  0  0
  1 25  1  0
  2  7  1  0
  2 11  1  0
  3 18  1  0
  4 18  2  0
  5 19  2  0
  6 10  1  0
  6 19  1  0
  7 12  1  0
  7 13  1  0
  7 18  1  0
  8  9  1  0
  8 10  1  0
  9 14  2  0
  9 15  1  0
 11 16  2  0
 11 17  1  0
 14 16  1  0
 15 17  2  0
 19 20  1  0
 20 21  2  0
 20 22  1  0
 21 23  1  0
 22 24  2  0
 23 25  2  0
 24 25  1  0
M  END
>  <PUBCHEM_COMPOUND_CID>  (1) 
39042

>  <PUBCHEM_CONFORMER_RMSD>  (1) 
0.8

>  <PUBCHEM_CONFORMER_DIVERSEORDER>  (1) 
1
98
16
109
133
38
103
111
18
127
37
78
77
24
122
97
58
11
106
115
87
80
13
53
36
82
46
34
120
123
116
23
114
10
35
75
107
96
6
93
90
40
79
85
68
39
131
45
31
108
70
86
104
5
43
128
47
19
8
4
20
65
29
71
25
49
44
66
119
72
33
88
63
129
59
9
15
110
42
94
130
124
84
57
48
91
118
17
32
21
121
61
74
14
99
60
126
132
67
28
51
73
95
26
117
2
92
134
56
69
101
105
50
55
76
3
100
81
64
30
135
7
62
12
112
22
102
125
54
41
89
27
83
113
136
52

>  <PUBCHEM_MMFF94_PARTIAL_CHARGES>  (1) 
33
1 -0.18
10 0.3
11 0.08
14 -0.15
15 -0.15
16 -0.15
17 -0.15
18 0.66
19 0.54
2 -0.36
20 0.09
21 -0.15
22 -0.15
23 -0.15
24 -0.15
25 0.18
3 -0.65
36 0.15
37 0.15
38 0.15
39 0.15
4 -0.57
40 0.37
41 0.15
42 0.15
43 0.5
44 0.15
45 0.15
5 -0.57
6 -0.73
7 0.34
8 0.14
9 -0.14

>  <PUBCHEM_EFFECTIVE_ROTOR_COUNT>  (1) 
8

>  <PUBCHEM_PHARMACOPHORE_FEATURES>  (1) 
9
1 2 acceptor
1 3 acceptor
1 4 acceptor
1 5 acceptor
1 6 donor
3 3 4 18 anion
3 7 12 13 hydrophobe
6 20 21 22 23 24 25 rings
6 9 11 14 15 16 17 rings

>  <PUBCHEM_HEAVY_ATOM_COUNT>  (1) 
25

>  <PUBCHEM_ATOM_DEF_STEREO_COUNT>  (1) 
0

>  <PUBCHEM_ATOM_UDEF_STEREO_COUNT>  (1) 
0

>  <PUBCHEM_BOND_DEF_STEREO_COUNT>  (1) 
0

>  <PUBCHEM_BOND_UDEF_STEREO_COUNT>  (1) 
0

>  <PUBCHEM_ISOTOPIC_ATOM_COUNT>  (1) 
0

>  <PUBCHEM_COMPONENT_COUNT>  (1) 
1

>  <PUBCHEM_CACTVS_TAUTO_COUNT>  (1) 
2

>  <PUBCHEM_CONFORMER_ID>  (1) 
0000988200000001

>  <PUBCHEM_MMFF94_ENERGY>  (1) 
76.2229

>  <PUBCHEM_FEATURE_SELFOVERLAP>  (1) 
45.742

>  <PUBCHEM_SHAPE_FINGERPRINT>  (1) 
10074138 170 16772126721822038057
10622 236 18262229998468432954
10693767 8 18197483229559367695
11069576 57 18262524809312868804
11135926 11 18193553595764239980
11455722 242 18195820570895504910
11552529 35 17981605966827630736
12107183 9 18270415893066233537
12166972 35 17894917334187623678
12422481 6 17988098690247707659
13989917 61 18120380014847101275
14429380 30 18335705997034761338
1454969 45 18335704988308114956
14866123 147 18196374719827309553
15163728 17 13479403917193329137
15352361 1 18410293588454248320
15475509 35 17843120561595496211
17492 89 18410573951076887210
17974551 9 14975490568376727300
19141452 34 18123194506567763464
20567600 247 18126844026758294935
20645477 70 18115587208847894609
20775438 99 17977930608140505971
20775530 9 18342172241775223406
21133410 171 17392994575212420307
21344244 181 17684626759068486653
22393880 68 17895746301319031488
23559900 14 18266449924365076944
23569914 152 17979036494358794231
3246872 21 18410851049603885710
345986 75 17775013418162433265
3680242 22 18341065094059786971
44062 13 18263643961631046349
46194498 28 17460028694128098469
463206 1 18268149949165242299
5104073 3 18202562843860552928
56633871 153 18196383519702927137
6431902 208 18410288086701726406
6433294 58 18267305515650333506
7970288 3 18410855468739838546
88748 71 18409171004293806749
9709674 26 18260838089740799312

>  <PUBCHEM_SHAPE_MULTIPOLES>  (1) 
487.9
13.46
4.88
0.99
0.06
0.48
-0.09
15
-0.11
-2.3
-0.42
0.84
-0.13
-0.5

>  <PUBCHEM_SHAPE_SELFOVERLAP>  (1) 
1025.142

>  <PUBCHEM_SHAPE_VOLUME>  (1) 
274.6

>  <PUBCHEM_COORDINATE_TYPE>  (1) 
2
5
10

$$$$
