39047
     RDKit          3D

 14 14  0  0  0  0  0  0  0  0999 V2000
    1.3365    2.7302    0.0287 Cl  0  0  0  0  0  0  0  0  0  0  0  0
    1.2612   -2.7299    0.0294 Cl  0  0  0  0  0  0  0  0  0  0  0  0
    3.1631   -0.0271   -1.2135 O   0  0  0  0  0  0  0  0  0  0  0  0
   -3.6035   -1.1904   -0.0123 O   0  0  0  0  0  0  0  0  0  0  0  0
    3.3391   -0.0278    1.0527 O   0  0  0  0  0  0  0  0  0  0  0  0
   -3.7680    1.0766   -0.0131 O   0  0  0  0  0  0  0  0  0  0  0  0
    1.1778    0.0019    0.0273 C   0  0  0  0  0  0  0  0  0  0  0  0
   -1.6118    0.0403    0.0044 C   0  0  0  0  0  0  0  0  0  0  0  0
    0.4969    1.2194    0.0211 C   0  0  0  0  0  0  0  0  0  0  0  0
    0.4637   -1.1964    0.0221 C   0  0  0  0  0  0  0  0  0  0  0  0
   -0.8978    1.2385    0.0097 C   0  0  0  0  0  0  0  0  0  0  0  0
   -0.9310   -1.1771    0.0107 C   0  0  0  0  0  0  0  0  0  0  0  0
    2.6397   -0.0183    0.0399 C   0  0  0  0  0  0  0  0  0  0  0  0
   -3.0657    0.0602   -0.0071 C   0  0  0  0  0  0  0  0  0  0  0  0
  1  9  1  0
  2 10  1  0
  3 13  1  0
  4 14  1  0
  5 13  2  0
  6 14  2  0
  7  9  2  0
  7 10  1  0
  7 13  1  0
  8 11  2  0
  8 12  1  0
  8 14  1  0
  9 11  1  0
 10 12  2  0
M  END
>  <PUBCHEM_COMPOUND_CID>  (1) 
39047

>  <PUBCHEM_CONFORMER_RMSD>  (1) 
0.6

>  <PUBCHEM_CONFORMER_DIVERSEORDER>  (1) 
1
2

>  <PUBCHEM_MMFF94_PARTIAL_CHARGES>  (1) 
18
1 -0.18
10 0.18
11 -0.15
12 -0.15
13 0.63
14 0.63
15 0.15
16 0.15
17 0.5
18 0.5
2 -0.18
3 -0.65
4 -0.65
5 -0.57
6 -0.57
7 0.09
8 0.09
9 0.18

>  <PUBCHEM_EFFECTIVE_ROTOR_COUNT>  (1) 
2

>  <PUBCHEM_PHARMACOPHORE_FEATURES>  (1) 
7
1 3 acceptor
1 4 acceptor
1 5 acceptor
1 6 acceptor
3 3 5 13 anion
3 4 6 14 anion
6 7 8 9 10 11 12 rings

>  <PUBCHEM_HEAVY_ATOM_COUNT>  (1) 
14

>  <PUBCHEM_ATOM_DEF_STEREO_COUNT>  (1) 
0

>  <PUBCHEM_ATOM_UDEF_STEREO_COUNT>  (1) 
0

>  <PUBCHEM_BOND_DEF_STEREO_COUNT>  (1) 
0

>  <PUBCHEM_BOND_UDEF_STEREO_COUNT>  (1) 
0

>  <PUBCHEM_ISOTOPIC_ATOM_COUNT>  (1) 
0

>  <PUBCHEM_COMPONENT_COUNT>  (1) 
1

>  <PUBCHEM_CACTVS_TAUTO_COUNT>  (1) 
1

>  <PUBCHEM_CONFORMER_ID>  (1) 
0000988700000001

>  <PUBCHEM_MMFF94_ENERGY>  (1) 
42.441

>  <PUBCHEM_FEATURE_SELFOVERLAP>  (1) 
35.638

>  <PUBCHEM_SHAPE_FINGERPRINT>  (1) 
10130415 120 18114175333143914288
10219947 1 18410290306983131304
10967382 1 18338516322647319027
10980938 120 18338517439323225587
11132069 177 18410288094964191089
11471102 20 18410288086727762373
12032990 46 18412832373497982374
13140716 1 18266740362489329641
13380535 76 18335417967563326099
13380536 305 18338523052861208332
14325111 11 18338797930889549521
14993402 34 18409454708384963452
161256 15 18125723387848708374
16945 1 18410857654998894361
18186145 218 18412546539298362285
193761 8 17618221711141976760
20201158 50 18408321069010402291
20511035 2 17972044896547088750
20588541 1 18334861593083054259
20645476 183 17750530635728124558
20645477 70 18338792437985113335
21501502 16 17979911936524462660
2334 1 17978228588585889617
23402539 116 18271798026204818006
23402655 69 18196637529139727269
23419403 2 15377873341225215256
23463225 33 18262232227439966714
23552423 10 18411418444900250965
23559900 14 18342466963338371772
2748010 2 18120657100054913845
528886 8 18411133636591185763
53812653 166 18342450426569602297
63268167 104 18338802204429215729

>  <PUBCHEM_SHAPE_MULTIPOLES>  (1) 
268.38
5.25
2.43
0.74
2.92
0.01
-0.03
-0.03
-0.03
-0.95
0.03
-0.47
0
0

>  <PUBCHEM_SHAPE_SELFOVERLAP>  (1) 
554.54

>  <PUBCHEM_SHAPE_VOLUME>  (1) 
155.2

>  <PUBCHEM_COORDINATE_TYPE>  (1) 
2
5
10

$$$$
