39046
     RDKit          3D

 29 31  0  0  1  0  0  0  0  0999 V2000
   -0.5903   -1.0488   -0.9849 O   0  0  0  0  0  0  0  0  0  0  0  0
   -0.2478   -1.9244    1.1410 O   0  0  0  0  0  0  0  0  0  0  0  0
   -2.0339    3.0679    0.9335 O   0  0  0  0  0  0  0  0  0  0  0  0
    0.6202   -3.0705   -0.8257 C   0  0  0  0  0  0  0  0  0  0  0  0
    2.0818   -2.6573   -1.0804 C   0  0  0  0  0  0  0  0  0  0  0  0
    2.8897   -2.4673    0.2061 C   0  0  0  0  0  0  0  0  0  0  0  0
    0.4373   -4.4117   -0.0955 C   0  0  0  0  0  0  0  0  0  0  0  0
   -0.8176    1.1915   -0.0189 C   0  0  0  0  0  0  0  0  0  0  0  0
   -0.1153   -1.9637   -0.0762 C   0  0  0  0  0  0  0  0  0  0  0  0
   -1.2713   -0.0110   -0.4244 C   0  0  0  0  0  0  0  0  0  0  0  0
    4.3550   -2.1556   -0.1018 C   0  0  0  0  0  0  0  0  0  0  0  0
    0.5460    1.7170   -0.0497 C   0  0  0  0  0  0  0  0  0  0  0  0
   -2.7041   -0.1252   -0.2284 C   0  0  0  0  0  0  0  0  0  0  0  0
   -3.1655    1.0652    0.3177 C   0  0  0  0  0  0  0  0  0  0  0  0
   -2.0109    1.9443    0.4746 C   0  0  0  0  0  0  0  0  0  0  0  0
   -1.0025   -4.9017   -0.0115 C   0  0  0  0  0  0  0  0  0  0  0  0
    1.4097    1.5271    1.0401 C   0  0  0  0  0  0  0  0  0  0  0  0
    1.0153    2.4209   -1.1696 C   0  0  0  0  0  0  0  0  0  0  0  0
    5.1716   -2.0039    1.1715 C   0  0  0  0  0  0  0  0  0  0  0  0
   -3.5896   -1.1563   -0.4892 C   0  0  0  0  0  0  0  0  0  0  0  0
    2.7107    2.0291    1.0108 C   0  0  0  0  0  0  0  0  0  0  0  0
    2.3165    2.9228   -1.1989 C   0  0  0  0  0  0  0  0  0  0  0  0
   -4.4923    1.2906    0.6276 C   0  0  0  0  0  0  0  0  0  0  0  0
    3.1641    2.7269   -0.1087 C   0  0  0  0  0  0  0  0  0  0  0  0
    0.9615    0.7841    2.2581 C   0  0  0  0  0  0  0  0  0  0  0  0
    0.1373    2.6520   -2.3580 C   0  0  0  0  0  0  0  0  0  0  0  0
   -4.9419   -0.9593   -0.1866 C   0  0  0  0  0  0  0  0  0  0  0  0
   -5.3891    0.2543    0.3672 C   0  0  0  0  0  0  0  0  0  0  0  0
    4.5555    3.2630   -0.1400 C   0  0  0  0  0  0  0  0  0  0  0  0
  1  9  1  0
  1 10  1  0
  2  9  2  0
  3 15  2  0
  4  5  1  0
  4  7  1  0
  4  9  1  0
  5  6  1  0
  6 11  1  0
  7 16  1  0
  8 10  2  0
  8 12  1  0
  8 15  1  0
 10 13  1  0
 11 19  1  0
 12 17  2  0
 12 18  1  0
 13 14  2  0
 13 20  1  0
 14 15  1  0
 14 23  1  0
 17 21  1  0
 17 25  1  0
 18 22  2  0
 18 26  1  0
 20 27  2  0
 21 24  2  0
 22 24  1  0
 23 28  2  0
 24 29  1  0
 27 28  1  0
M  END
>  <PUBCHEM_COMPOUND_CID>  (1) 
39046

>  <PUBCHEM_CONFORMER_RMSD>  (1) 
1

>  <PUBCHEM_CONFORMER_DIVERSEORDER>  (1) 
1
38
28
2
10
27
35
23
4
22
25
37
15
36
8
18
11
24
33
3
17
5
30
16
20
32
34
26
21
14
29
6
31
13
9
7
19
12

>  <PUBCHEM_MMFF94_PARTIAL_CHARGES>  (1) 
29
1 -0.23
10 0.05
12 0.03
13 0.03
14 0.09
15 0.47
17 -0.14
18 -0.14
2 -0.57
20 -0.15
21 -0.15
22 -0.15
23 -0.15
24 -0.14
25 0.14
26 0.14
27 -0.15
28 -0.15
29 0.14
3 -0.57
4 0.06
45 0.15
46 0.15
47 0.15
48 0.15
55 0.15
56 0.15
8 -0.01
9 0.66

>  <PUBCHEM_EFFECTIVE_ROTOR_COUNT>  (1) 
8

>  <PUBCHEM_PHARMACOPHORE_FEATURES>  (1) 
8
1 16 hydrophobe
1 19 hydrophobe
1 2 acceptor
1 3 acceptor
5 4 5 6 7 11 hydrophobe
5 8 10 13 14 15 rings
6 12 17 18 21 22 24 rings
6 13 14 20 23 27 28 rings

>  <PUBCHEM_HEAVY_ATOM_COUNT>  (1) 
29

>  <PUBCHEM_ATOM_DEF_STEREO_COUNT>  (1) 
0

>  <PUBCHEM_ATOM_UDEF_STEREO_COUNT>  (1) 
1

>  <PUBCHEM_BOND_DEF_STEREO_COUNT>  (1) 
0

>  <PUBCHEM_BOND_UDEF_STEREO_COUNT>  (1) 
0

>  <PUBCHEM_ISOTOPIC_ATOM_COUNT>  (1) 
0

>  <PUBCHEM_COMPONENT_COUNT>  (1) 
1

>  <PUBCHEM_CACTVS_TAUTO_COUNT>  (1) 
1

>  <PUBCHEM_CONFORMER_ID>  (1) 
0000988600000001

>  <PUBCHEM_MMFF94_ENERGY>  (1) 
77.2466

>  <PUBCHEM_FEATURE_SELFOVERLAP>  (1) 
40.682

>  <PUBCHEM_SHAPE_FINGERPRINT>  (1) 
1100329 8 18411697703221000799
11513181 2 17987519376300760134
11963148 33 17977379766217109915
12156800 1 15337457587411463034
12236239 1 18043527416055918229
12422481 6 18193810757352620312
13140716 1 18412833482253653035
133893 2 18191612816033414617
15927050 60 18269278043995883614
16752209 62 17546720916706838255
17492 54 18115890554472673494
1813 80 18114176376868699768
20600515 1 17120865284471370157
20642791 178 18337963302494827277
20691752 17 18113334202147645557
20739085 24 18334579035838161541
20764821 26 18338239396068089187
21421861 104 18199206030613438257
23366157 5 18335710377837508333
23559900 14 18339914901928538657
23598288 3 17467925502344237744
25147074 1 18059859442364358693
3380486 145 17688605861320157817
350125 39 18340207397243016297
469060 322 17979083687048167250
5265222 85 17689167021058798036
6287921 2 18342734087721732586

>  <PUBCHEM_SHAPE_MULTIPOLES>  (1) 
579.2
8.47
5.89
1.41
2.93
5.12
-0.04
-0.99
1.61
-4.49
-1
-0.64
-0.77
-0.91

>  <PUBCHEM_SHAPE_SELFOVERLAP>  (1) 
1239.276

>  <PUBCHEM_SHAPE_VOLUME>  (1) 
324.7

>  <PUBCHEM_COORDINATE_TYPE>  (1) 
2
5
10

$$$$
