39048
     RDKit          3D

 29 32  0  0  0  0  0  0  0  0999 V2000
   -5.5570    0.6556   -0.1356 P   0  0  0  0  0  0  0  0  0  0  0  0
   -4.9421   -0.7578    0.3932 O   0  0  0  0  0  0  0  0  0  0  0  0
   -5.2870    0.8532   -1.6080 O   0  0  0  0  0  0  0  0  0  0  0  0
    0.3617   -2.3457    0.0134 O   0  0  0  0  0  0  0  0  0  0  0  0
    0.9510   -0.1095    0.1471 O   0  0  0  0  0  0  0  0  0  0  0  0
    7.2728    2.3460    0.0127 O   0  0  0  0  0  0  0  0  0  0  0  0
    8.5746    0.4584   -0.1899 O   0  0  0  0  0  0  0  0  0  0  0  0
   -4.9439    1.8285    0.8677 N   0  0  0  0  0  0  0  0  0  0  0  0
   -7.1718    0.5670    0.2464 N   0  0  0  0  0  0  0  0  0  0  0  0
    2.5652   -1.7993   -0.0568 N   0  0  0  0  0  0  0  0  0  0  0  0
   -5.1691    3.2103    0.4633 C   0  0  0  0  0  0  0  0  0  0  0  0
   -3.8068    2.5883    0.3639 C   0  0  0  0  0  0  0  0  0  0  0  0
   -8.0672    1.4425   -0.4988 C   0  0  0  0  0  0  0  0  0  0  0  0
   -8.0427   -0.0362   -0.7542 C   0  0  0  0  0  0  0  0  0  0  0  0
   -3.6413   -1.1471    0.3001 C   0  0  0  0  0  0  0  0  0  0  0  0
   -3.0347   -1.2588   -0.9510 C   0  0  0  0  0  0  0  0  0  0  0  0
   -2.9149   -1.4344    1.4557 C   0  0  0  0  0  0  0  0  0  0  0  0
   -1.7016   -1.6578   -1.0464 C   0  0  0  0  0  0  0  0  0  0  0  0
   -1.5818   -1.8334    1.3603 C   0  0  0  0  0  0  0  0  0  0  0  0
   -0.9750   -1.9450    0.1093 C   0  0  0  0  0  0  0  0  0  0  0  0
    1.2734   -1.2876    0.0448 C   0  0  0  0  0  0  0  0  0  0  0  0
    3.7769   -1.1078   -0.0670 C   0  0  0  0  0  0  0  0  0  0  0  0
    4.9784   -1.8076   -0.1779 C   0  0  0  0  0  0  0  0  0  0  0  0
    3.7867    0.2834    0.0350 C   0  0  0  0  0  0  0  0  0  0  0  0
    6.1997    0.2749   -0.0849 C   0  0  0  0  0  0  0  0  0  0  0  0
    6.1898   -1.1163   -0.1868 C   0  0  0  0  0  0  0  0  0  0  0  0
    4.9981    0.9746    0.0260 C   0  0  0  0  0  0  0  0  0  0  0  0
    7.4629    0.9952   -0.0949 C   0  0  0  0  0  0  0  0  0  0  0  0
    8.4460    3.1665    0.0131 C   0  0  0  0  0  0  0  0  0  0  0  0
  1  2  1  0
  1  3  2  0
  1  8  1  0
  1  9  1  0
  2 15  1  0
  4 20  1  0
  4 21  1  0
  5 21  2  0
  6 28  1  0
  6 29  1  0
  7 28  2  0
  8 11  1  0
  8 12  1  0
  9 13  1  0
  9 14  1  0
 10 21  1  0
 10 22  1  0
 11 12  1  0
 13 14  1  0
 15 16  2  0
 15 17  1  0
 16 18  1  0
 17 19  2  0
 18 20  2  0
 19 20  1  0
 22 23  2  0
 22 24  1  0
 23 26  1  0
 24 27  2  0
 25 26  2  0
 25 27  1  0
 25 28  1  0
M  END
>  <PUBCHEM_COMPOUND_CID>  (1) 
39048

>  <PUBCHEM_CONFORMER_RMSD>  (1) 
1

>  <PUBCHEM_CONFORMER_DIVERSEORDER>  (1) 
1
38
9
20
36
32
21
27
6
31
19
33
24
2
25
22
40
8
17
5
39
23
10
26
34
16
15
4
30
11
41
29
7
14
37
28
18
35
3
12
13

>  <PUBCHEM_MMFF94_PARTIAL_CHARGES>  (1) 
46
1 1.51
10 -0.55
11 -0.04
12 -0.04
13 -0.04
14 -0.04
15 0.08
16 -0.15
17 -0.15
18 -0.15
19 -0.15
2 -0.35
20 0.08
21 0.78
22 0.12
23 -0.15
24 -0.15
25 0.09
26 -0.15
27 -0.15
28 0.63
29 0.28
3 -0.7
30 0.1
31 0.1
32 0.1
33 0.1
34 0.1
35 0.1
36 0.1
37 0.1
38 0.15
39 0.15
4 -0.23
40 0.15
41 0.15
42 0.37
43 0.15
44 0.15
45 0.15
46 0.15
5 -0.57
6 -0.43
7 -0.57
8 -0.58
9 -0.58

>  <PUBCHEM_EFFECTIVE_ROTOR_COUNT>  (1) 
11.2

>  <PUBCHEM_PHARMACOPHORE_FEATURES>  (1) 
5
1 10 donor
1 5 acceptor
1 7 acceptor
6 15 16 17 18 19 20 rings
6 22 23 24 25 26 27 rings

>  <PUBCHEM_HEAVY_ATOM_COUNT>  (1) 
29

>  <PUBCHEM_ATOM_DEF_STEREO_COUNT>  (1) 
0

>  <PUBCHEM_ATOM_UDEF_STEREO_COUNT>  (1) 
0

>  <PUBCHEM_BOND_DEF_STEREO_COUNT>  (1) 
0

>  <PUBCHEM_BOND_UDEF_STEREO_COUNT>  (1) 
0

>  <PUBCHEM_ISOTOPIC_ATOM_COUNT>  (1) 
0

>  <PUBCHEM_COMPONENT_COUNT>  (1) 
1

>  <PUBCHEM_CACTVS_TAUTO_COUNT>  (1) 
3

>  <PUBCHEM_CONFORMER_ID>  (1) 
0000988800000001

>  <PUBCHEM_MMFF94_ENERGY>  (1) 
87.6047

>  <PUBCHEM_FEATURE_SELFOVERLAP>  (1) 
25.371

>  <PUBCHEM_SHAPE_FINGERPRINT>  (1) 
10 15 17676204662864671239
10429389 143 17822282441765391741
10554248 39 17489036950959466310
10835480 77 18409168835730954834
11621639 254 18200864150647591437
117089 54 11526218353826277157
11991303 11 16845280675087183255
125118 31 18335423517642013828
12895837 130 18343021124680896975
13167372 99 18410293597640437890
13668630 136 10231765478823388534
14347424 109 18187078413597137786
14394314 77 18340774715680123889
14556957 393 15769788982399438400
15183329 4 18131069324714436579
15289351 153 18410007694578851650
15461852 350 17988923418199611271
15510800 12 11599724020970904189
15604295 49 18130500951188550872
18603816 31 12468649365438259913
2026 5 10591501490018672116
20281389 69 17967812712998944111
21033648 29 18262508308343955034
21130935 74 17967250901729562306
21150785 3 17203608185657758247
21307412 95 12966839166119911213
21424621 283 18333452041094453914
22122407 14 18335994154806076048
2838139 119 18341892940310349411
3918712 181 18335133146933828625
4073 2 18260552255430753842
4197921 191 18342174423349474441
44802255 64 17846219990053088071
4516262 110 18187636982298795047
504579 68 16200433581086043934
5104073 3 17749108876967786858
54039377 194 10952044576996456997
5470011 282 12319451109010071066
5776283 40 18343017830578768049
6328613 192 18412546522424324896
636775 72 18408323302082698969

>  <PUBCHEM_SHAPE_MULTIPOLES>  (1) 
550.5
27.5
3.14
0.96
19.65
2.02
0.03
21.38
-3.41
0.89
0.4
-1.31
-0.21
0.05

>  <PUBCHEM_SHAPE_SELFOVERLAP>  (1) 
1155.787

>  <PUBCHEM_SHAPE_VOLUME>  (1) 
312.4

>  <PUBCHEM_COORDINATE_TYPE>  (1) 
2
5
10

$$$$
