39053
     RDKit          3D

 20 22  0  0  1  0  0  0  0  0999 V2000
   -2.1827   -1.6499    1.5148 O   0  0  0  0  0  0  0  0  0  0  0  0
   -0.4118   -2.0391    0.0580 N   0  0  0  0  0  0  0  0  0  0  0  0
    0.6229   -0.1024   -1.1285 C   0  0  0  0  0  0  0  0  0  0  0  0
    0.3163   -1.6174   -1.1467 C   0  0  0  0  0  0  0  0  0  0  0  0
   -0.6024    0.6863   -0.7208 C   0  0  0  0  0  0  0  0  0  0  0  0
   -1.5911    0.1144    0.0939 C   0  0  0  0  0  0  0  0  0  0  0  0
    1.8622    0.2248   -0.3020 C   0  0  0  0  0  0  0  0  0  0  0  0
   -0.4692   -2.0156   -2.4053 C   0  0  0  0  0  0  0  0  0  0  0  0
   -1.4362   -1.2693    0.6154 C   0  0  0  0  0  0  0  0  0  0  0  0
   -2.7167    0.8624    0.4627 C   0  0  0  0  0  0  0  0  0  0  0  0
   -0.7556    2.0132   -1.1519 C   0  0  0  0  0  0  0  0  0  0  0  0
   -0.1399   -3.3766    0.5675 C   0  0  0  0  0  0  0  0  0  0  0  0
    1.7320    0.4997    1.0547 C   0  0  0  0  0  0  0  0  0  0  0  0
    3.1113    0.2447   -0.9124 C   0  0  0  0  0  0  0  0  0  0  0  0
   -2.8590    2.1772    0.0193 C   0  0  0  0  0  0  0  0  0  0  0  0
   -1.8792    2.7529   -0.7850 C   0  0  0  0  0  0  0  0  0  0  0  0
   -3.8326    0.3321    1.3063 C   0  0  0  0  0  0  0  0  0  0  0  0
    2.8653    0.7987    1.8108 C   0  0  0  0  0  0  0  0  0  0  0  0
    4.2447    0.5436   -0.1562 C   0  0  0  0  0  0  0  0  0  0  0  0
    4.1216    0.8206    1.2054 C   0  0  0  0  0  0  0  0  0  0  0  0
  1  9  2  0
  2  4  1  0
  2  9  1  0
  2 12  1  0
  3  4  1  0
  3  5  1  0
  3  7  1  0
  4  8  1  0
  5  6  2  0
  5 11  1  0
  6  9  1  0
  6 10  1  0
  7 13  2  0
  7 14  1  0
 10 15  2  0
 10 17  1  0
 11 16  2  0
 13 18  1  0
 14 19  2  0
 15 16  1  0
 18 20  2  0
 19 20  1  0
M  END
>  <PUBCHEM_COMPOUND_CID>  (1) 
39053

>  <PUBCHEM_CONFORMER_RMSD>  (1) 
0.6

>  <PUBCHEM_CONFORMER_DIVERSEORDER>  (1) 
1
2

>  <PUBCHEM_MMFF94_PARTIAL_CHARGES>  (1) 
27
1 -0.57
10 -0.14
11 -0.15
12 0.3
13 -0.15
14 -0.15
15 -0.15
16 -0.15
17 0.14
18 -0.15
19 -0.15
2 -0.66
20 -0.15
26 0.15
3 0.29
30 0.15
31 0.15
32 0.15
33 0.15
37 0.15
38 0.15
39 0.15
4 0.3
5 -0.14
6 0.09
7 -0.14
9 0.54

>  <PUBCHEM_EFFECTIVE_ROTOR_COUNT>  (1) 
1.6

>  <PUBCHEM_PHARMACOPHORE_FEATURES>  (1) 
4
1 1 acceptor
6 2 3 4 5 6 9 rings
6 5 6 10 11 15 16 rings
6 7 13 14 18 19 20 rings

>  <PUBCHEM_HEAVY_ATOM_COUNT>  (1) 
20

>  <PUBCHEM_ATOM_DEF_STEREO_COUNT>  (1) 
2

>  <PUBCHEM_ATOM_UDEF_STEREO_COUNT>  (1) 
0

>  <PUBCHEM_BOND_DEF_STEREO_COUNT>  (1) 
0

>  <PUBCHEM_BOND_UDEF_STEREO_COUNT>  (1) 
0

>  <PUBCHEM_ISOTOPIC_ATOM_COUNT>  (1) 
0

>  <PUBCHEM_COMPONENT_COUNT>  (1) 
1

>  <PUBCHEM_CACTVS_TAUTO_COUNT>  (1) 
1

>  <PUBCHEM_CONFORMER_ID>  (1) 
0000988D00000001

>  <PUBCHEM_MMFF94_ENERGY>  (1) 
62.6621

>  <PUBCHEM_FEATURE_SELFOVERLAP>  (1) 
20.321

>  <PUBCHEM_SHAPE_FINGERPRINT>  (1) 
10165383 225 17987535800091674928
10906281 52 18188511102901921205
1100329 8 15169385651616124096
11112241 14 17414110761434512890
11132069 177 18412267237685827733
12633257 1 18413109484877845168
12716301 132 18336840731398531710
13004483 165 17196825474804920190
13140716 1 18118706519736760153
13464514 151 17696766458143865776
13538477 17 17894629296690489548
13681431 1 17121416143780506758
14178342 30 18117578257635003321
14817 1 12997011284823934543
15295992 7 17775564252039349672
15309172 13 18410289185933714212
15375462 189 17023474164813290200
16945 1 18333452049246310861
18186145 218 17489867107681050004
18219364 16 17632860854015326752
18981168 100 16914804002308064952
20510252 161 18410299072975102337
21524375 3 18271800177418969822
21731228 192 18339634560285039448
22112679 90 17971765616150973484
22182313 1 17971773077400976389
23402539 116 18338513144788472447
23419403 2 17625864549479187735
23559900 14 17972046842014319495
238 59 17912058595810464093
25 1 17632580396845781264
2748010 2 17827660058072420181
298252 57 12894535229225843547
34934 24 17686637035469006637
427121 178 18268448857624912081
4340502 62 16988578909291948491
495365 180 17838321992051638173
5265222 85 18339095882289346654
5845 1 17551489464239536052
7097593 13 17604417502007019352
7364860 26 17762333617873452559
81228 2 18053924419350310982
90316 7 17749108868013906853

>  <PUBCHEM_SHAPE_MULTIPOLES>  (1) 
400.74
5.89
2.89
1.73
3.98
1.53
0.21
-3.43
-2.51
-1.77
0.42
0.11
0.45
0.85

>  <PUBCHEM_SHAPE_SELFOVERLAP>  (1) 
873.517

>  <PUBCHEM_SHAPE_VOLUME>  (1) 
217.7

>  <PUBCHEM_COORDINATE_TYPE>  (1) 
2
5
10

$$$$
