39052
     RDKit          3D

 19 21  0  0  1  0  0  0  0  0999 V2000
   -2.3045   -1.6016    1.7270 O   0  0  0  0  0  0  0  0  0  0  0  0
   -0.6627   -2.0059    0.1299 N   0  0  0  0  0  0  0  0  0  0  0  0
    0.3362   -0.0715   -1.0906 C   0  0  0  0  0  0  0  0  0  0  0  0
   -0.0164   -1.5763   -1.1180 C   0  0  0  0  0  0  0  0  0  0  0  0
   -0.8300    0.7417   -0.5728 C   0  0  0  0  0  0  0  0  0  0  0  0
    1.6444    0.2006   -0.3552 C   0  0  0  0  0  0  0  0  0  0  0  0
   -1.7703    0.1787    0.3032 C   0  0  0  0  0  0  0  0  0  0  0  0
   -0.9074   -1.9218   -2.3206 C   0  0  0  0  0  0  0  0  0  0  0  0
   -1.6178   -1.2209    0.7811 C   0  0  0  0  0  0  0  0  0  0  0  0
   -0.9757    2.0823   -0.9619 C   0  0  0  0  0  0  0  0  0  0  0  0
   -0.3930   -3.3623    0.5878 C   0  0  0  0  0  0  0  0  0  0  0  0
   -2.8414    0.9493    0.7737 C   0  0  0  0  0  0  0  0  0  0  0  0
    1.6264    0.4465    1.0131 C   0  0  0  0  0  0  0  0  0  0  0  0
    2.8432    0.1997   -1.0595 C   0  0  0  0  0  0  0  0  0  0  0  0
   -2.0451    2.8446   -0.4936 C   0  0  0  0  0  0  0  0  0  0  0  0
   -2.9775    2.2779    0.3712 C   0  0  0  0  0  0  0  0  0  0  0  0
    2.8228    0.6951    1.6858 C   0  0  0  0  0  0  0  0  0  0  0  0
    4.0395    0.4481   -0.3867 C   0  0  0  0  0  0  0  0  0  0  0  0
    4.0292    0.6958    0.9860 C   0  0  0  0  0  0  0  0  0  0  0  0
  1  9  2  0
  2  4  1  0
  2  9  1  0
  2 11  1  0
  3  4  1  0
  3  5  1  0
  3  6  1  0
  4  8  1  0
  5  7  2  0
  5 10  1  0
  6 13  2  0
  6 14  1  0
  7  9  1  0
  7 12  1  0
 10 15  2  0
 12 16  2  0
 13 17  1  0
 14 18  2  0
 15 16  1  0
 17 19  2  0
 18 19  1  0
M  END
>  <PUBCHEM_COMPOUND_CID>  (1) 
39052

>  <PUBCHEM_CONFORMER_RMSD>  (1) 
0.6

>  <PUBCHEM_CONFORMER_DIVERSEORDER>  (1) 
1
2

>  <PUBCHEM_MMFF94_PARTIAL_CHARGES>  (1) 
27
1 -0.57
10 -0.15
11 0.3
12 -0.15
13 -0.15
14 -0.15
15 -0.15
16 -0.15
17 -0.15
18 -0.15
19 -0.15
2 -0.66
25 0.15
29 0.15
3 0.29
30 0.15
31 0.15
32 0.15
33 0.15
34 0.15
35 0.15
36 0.15
4 0.3
5 -0.14
6 -0.14
7 0.09
9 0.54

>  <PUBCHEM_EFFECTIVE_ROTOR_COUNT>  (1) 
1.6

>  <PUBCHEM_PHARMACOPHORE_FEATURES>  (1) 
4
1 1 acceptor
6 2 3 4 5 7 9 rings
6 5 7 10 12 15 16 rings
6 6 13 14 17 18 19 rings

>  <PUBCHEM_HEAVY_ATOM_COUNT>  (1) 
19

>  <PUBCHEM_ATOM_DEF_STEREO_COUNT>  (1) 
2

>  <PUBCHEM_ATOM_UDEF_STEREO_COUNT>  (1) 
0

>  <PUBCHEM_BOND_DEF_STEREO_COUNT>  (1) 
0

>  <PUBCHEM_BOND_UDEF_STEREO_COUNT>  (1) 
0

>  <PUBCHEM_ISOTOPIC_ATOM_COUNT>  (1) 
0

>  <PUBCHEM_COMPONENT_COUNT>  (1) 
1

>  <PUBCHEM_CACTVS_TAUTO_COUNT>  (1) 
1

>  <PUBCHEM_CONFORMER_ID>  (1) 
0000988C00000001

>  <PUBCHEM_MMFF94_ENERGY>  (1) 
54.6846

>  <PUBCHEM_FEATURE_SELFOVERLAP>  (1) 
20.321

>  <PUBCHEM_SHAPE_FINGERPRINT>  (1) 
10948715 1 18270117894505841393
1100329 8 15601453013721503936
11112241 14 17414114042768460434
12173636 292 18334290976892649508
12716301 132 18337408070713570942
13004483 165 17625795516728496966
13464514 151 17552654555638889576
13538477 17 17894631482749793364
13681431 1 17115766264557733431
13764800 53 18413672400534772576
14817 1 18187662305051049007
15295992 7 18060415781672203864
15309172 13 18337107865189758364
15852999 172 18191586350466003317
16945 1 18337121162455583359
18186145 218 17489306330923116684
18219364 16 17489310801994316080
19049666 15 18201168637467722934
20510252 161 18411990177624228817
20511035 2 18266460897515368702
21296965 12 18271522005330125581
21524375 3 18270956821851369957
21731228 192 18337383829844494368
22112679 90 17693953185729198527
22149856 69 17176049825565097453
23402539 116 18340203098455402895
23419403 2 17481752642874325583
23493267 7 18336275539720335616
23598294 1 18115324374223855632
25 1 17774163366598386896
27216 239 18129930299699066216
2748010 2 18120970267970224983
34934 24 17615991218782671837
427121 178 18121518868327147385
5845 1 11843039136721865916
7097593 13 17749662996652511264
7364860 26 17690841159995760917
77492 1 17095535018942242804
81228 2 18197479934437716932
84936 182 17694221071540726089
90316 7 18191316068163243795

>  <PUBCHEM_SHAPE_MULTIPOLES>  (1) 
380.16
5.36
3.01
1.66
4.97
1.35
0.2
-3.35
-1.52
-2.58
0.11
0.06
0.62
0.56

>  <PUBCHEM_SHAPE_SELFOVERLAP>  (1) 
828.866

>  <PUBCHEM_SHAPE_VOLUME>  (1) 
205.7

>  <PUBCHEM_COORDINATE_TYPE>  (1) 
2
5
10

$$$$
