39056
     RDKit          3D

 22 24  0  0  1  0  0  0  0  0999 V2000
    3.3841    0.1244    0.3969 O   0  0  0  0  0  0  0  0  0  0  0  0
    2.7049   -1.5841   -0.9628 O   0  0  0  0  0  0  0  0  0  0  0  0
    1.3072    0.2448   -0.5992 N   0  0  0  0  0  0  0  0  0  0  0  0
   -1.1227   -0.0727   -1.0831 C   0  0  0  0  0  0  0  0  0  0  0  0
    0.3281   -0.1653   -1.6181 C   0  0  0  0  0  0  0  0  0  0  0  0
   -1.3878    1.2303   -0.3534 C   0  0  0  0  0  0  0  0  0  0  0  0
    1.1042    1.5388    0.0650 C   0  0  0  0  0  0  0  0  0  0  0  0
   -0.3307    1.9786    0.1899 C   0  0  0  0  0  0  0  0  0  0  0  0
   -1.4850   -1.3022   -0.2537 C   0  0  0  0  0  0  0  0  0  0  0  0
    0.5248    0.6508   -2.9038 C   0  0  0  0  0  0  0  0  0  0  0  0
   -2.7072    1.6884   -0.2030 C   0  0  0  0  0  0  0  0  0  0  0  0
   -0.6120    3.1773    0.8635 C   0  0  0  0  0  0  0  0  0  0  0  0
    2.4858   -0.4977   -0.4304 C   0  0  0  0  0  0  0  0  0  0  0  0
   -2.0507   -2.4084   -0.8760 C   0  0  0  0  0  0  0  0  0  0  0  0
   -1.2453   -1.3022    1.1151 C   0  0  0  0  0  0  0  0  0  0  0  0
   -2.9731    2.8791    0.4715 C   0  0  0  0  0  0  0  0  0  0  0  0
   -1.9255    3.6241    1.0037 C   0  0  0  0  0  0  0  0  0  0  0  0
   -2.3818   -3.5316   -0.1181 C   0  0  0  0  0  0  0  0  0  0  0  0
   -1.5765   -2.4255    1.8730 C   0  0  0  0  0  0  0  0  0  0  0  0
   -2.1447   -3.5401    1.2565 C   0  0  0  0  0  0  0  0  0  0  0  0
    4.6195   -0.5654    0.6184 C   0  0  0  0  0  0  0  0  0  0  0  0
    5.4844    0.2585    1.5483 C   0  0  0  0  0  0  0  0  0  0  0  0
  1 13  1  0
  1 21  1  0
  2 13  2  0
  3  5  1  0
  3  7  1  0
  3 13  1  0
  4  5  1  0
  4  6  1  0
  4  9  1  0
  5 10  1  0
  6  8  2  0
  6 11  1  0
  7  8  1  0
  8 12  1  0
  9 14  2  0
  9 15  1  0
 11 16  2  0
 12 17  2  0
 14 18  1  0
 15 19  2  0
 16 17  1  0
 18 20  2  0
 19 20  1  0
 21 22  1  0
M  END
>  <PUBCHEM_COMPOUND_CID>  (1) 
39056

>  <PUBCHEM_CONFORMER_RMSD>  (1) 
0.8

>  <PUBCHEM_CONFORMER_DIVERSEORDER>  (1) 
1
29
28
19
13
6
26
20
14
2
25
15
3
11
9
12
24
16
17
18
23
10
5
22
27
7
4
8
21

>  <PUBCHEM_MMFF94_PARTIAL_CHARGES>  (1) 
29
1 -0.43
11 -0.15
12 -0.15
13 0.78
14 -0.15
15 -0.15
16 -0.15
17 -0.15
18 -0.15
19 -0.15
2 -0.57
20 -0.15
21 0.28
3 -0.66
30 0.15
31 0.15
32 0.15
33 0.15
34 0.15
35 0.15
36 0.15
37 0.15
38 0.15
4 0.29
5 0.3
6 -0.14
7 0.44
8 -0.14
9 -0.14

>  <PUBCHEM_EFFECTIVE_ROTOR_COUNT>  (1) 
4.8

>  <PUBCHEM_PHARMACOPHORE_FEATURES>  (1) 
4
1 2 acceptor
6 3 4 5 6 7 8 rings
6 6 8 11 12 16 17 rings
6 9 14 15 18 19 20 rings

>  <PUBCHEM_HEAVY_ATOM_COUNT>  (1) 
22

>  <PUBCHEM_ATOM_DEF_STEREO_COUNT>  (1) 
0

>  <PUBCHEM_ATOM_UDEF_STEREO_COUNT>  (1) 
2

>  <PUBCHEM_BOND_DEF_STEREO_COUNT>  (1) 
0

>  <PUBCHEM_BOND_UDEF_STEREO_COUNT>  (1) 
0

>  <PUBCHEM_ISOTOPIC_ATOM_COUNT>  (1) 
0

>  <PUBCHEM_COMPONENT_COUNT>  (1) 
1

>  <PUBCHEM_CACTVS_TAUTO_COUNT>  (1) 
1

>  <PUBCHEM_CONFORMER_ID>  (1) 
0000989000000001

>  <PUBCHEM_MMFF94_ENERGY>  (1) 
54.7116

>  <PUBCHEM_FEATURE_SELFOVERLAP>  (1) 
20.318

>  <PUBCHEM_SHAPE_FINGERPRINT>  (1) 
10906281 52 18202292411266144613
1100329 8 18410007767334904049
11036077 4 18190441789337690722
11552529 35 18335689577575086538
12035758 1 18342468058111836433
12553582 1 18051431835054210318
12788726 201 18262816162440098499
13004483 165 18267016356893007307
13134695 92 17832984227907118855
13140716 1 18267588081527560609
14081887 123 18412257342297358522
14178342 30 18335983091202553278
14468879 13 17702929354277690410
14817 1 13540230231728440853
14844126 61 18339346557148489050
16945 1 17987509312849227221
17980427 26 17549248243030722836
20197701 30 18118681015972919373
20567600 347 17904217935928183113
20681651 13 17678428962793967120
20832881 197 18044933721856488731
21049683 118 17910081669608697624
21731228 192 18122918520563986201
23419403 2 17613964771365083862
23557571 272 18343032090217778334
23728640 28 18336546014784752210
376196 1 17414140314529599240
43471831 8 17833276311616444329
469060 322 17414405563225107630
58807428 26 17979643329301854865
81228 2 18408611357064708671
9709674 26 18201154356806945998
9981440 41 17845070906228947586

>  <PUBCHEM_SHAPE_MULTIPOLES>  (1) 
436.03
6.17
4.62
1.81
12.1
0.26
-0.8
-1.58
2.96
-6.14
2.08
0.34
-0.3
0.14

>  <PUBCHEM_SHAPE_SELFOVERLAP>  (1) 
932.175

>  <PUBCHEM_SHAPE_VOLUME>  (1) 
239.3

>  <PUBCHEM_COORDINATE_TYPE>  (1) 
2
5
10

$$$$
