39050
     RDKit          3D

 22 24  0  0  1  0  0  0  0  0999 V2000
    2.1359   -2.0490    0.4454 N   0  0  0  0  0  0  0  0  0  0  0  0
    1.1343   -0.2317   -0.9102 C   0  0  0  0  0  0  0  0  0  0  0  0
    2.1574   -1.4102   -0.8823 C   0  0  0  0  0  0  0  0  0  0  0  0
   -0.2075   -0.5963   -0.2928 C   0  0  0  0  0  0  0  0  0  0  0  0
   -0.3334   -1.7303    0.5289 C   0  0  0  0  0  0  0  0  0  0  0  0
    0.8384   -2.6524    0.7704 C   0  0  0  0  0  0  0  0  0  0  0  0
   -3.7478    0.7677   -0.2104 C   0  0  0  0  0  0  0  0  0  0  0  0
    1.7412    1.0349   -0.3087 C   0  0  0  0  0  0  0  0  0  0  0  0
   -1.3309    0.2131   -0.5272 C   0  0  0  0  0  0  0  0  0  0  0  0
   -2.5633   -0.1023    0.0432 C   0  0  0  0  0  0  0  0  0  0  0  0
    1.9110   -2.3709   -2.0611 C   0  0  0  0  0  0  0  0  0  0  0  0
   -1.5809   -2.0426    1.0885 C   0  0  0  0  0  0  0  0  0  0  0  0
    3.2263   -2.9974    0.6499 C   0  0  0  0  0  0  0  0  0  0  0  0
   -2.6883   -1.2295    0.8503 C   0  0  0  0  0  0  0  0  0  0  0  0
   -4.3135    1.3540    1.1203 C   0  0  0  0  0  0  0  0  0  0  0  0
   -4.8985   -0.0292   -0.8997 C   0  0  0  0  0  0  0  0  0  0  0  0
   -3.4878    2.0047   -1.1329 C   0  0  0  0  0  0  0  0  0  0  0  0
    1.6097    1.2793    1.0526 C   0  0  0  0  0  0  0  0  0  0  0  0
    2.4176    1.9286   -1.1298 C   0  0  0  0  0  0  0  0  0  0  0  0
    2.1636    2.4359    1.6016 C   0  0  0  0  0  0  0  0  0  0  0  0
    2.9717    3.0850   -0.5808 C   0  0  0  0  0  0  0  0  0  0  0  0
    2.8447    3.3386    0.7849 C   0  0  0  0  0  0  0  0  0  0  0  0
  1  3  1  0
  1  6  1  0
  1 13  1  0
  2  3  1  0
  2  4  1  0
  2  8  1  0
  3 11  1  0
  4  5  2  0
  4  9  1  0
  5  6  1  0
  5 12  1  0
  7 10  1  0
  7 15  1  0
  7 16  1  0
  7 17  1  0
  8 18  2  0
  8 19  1  0
  9 10  2  0
 10 14  1  0
 12 14  2  0
 18 20  1  0
 19 21  2  0
 20 22  2  0
 21 22  1  0
M  END
>  <PUBCHEM_COMPOUND_CID>  (1) 
39050

>  <PUBCHEM_CONFORMER_RMSD>  (1) 
0.6

>  <PUBCHEM_CONFORMER_DIVERSEORDER>  (1) 
2
6
10
7
1
5
12
11
9
4
3
8

>  <PUBCHEM_MMFF94_PARTIAL_CHARGES>  (1) 
26
1 -0.81
10 -0.14
12 -0.15
13 0.27
14 -0.15
18 -0.15
19 -0.15
2 0.29
20 -0.15
21 -0.15
22 -0.15
27 0.15
3 0.27
31 0.15
35 0.15
4 -0.14
45 0.15
46 0.15
47 0.15
48 0.15
49 0.15
5 -0.14
6 0.41
7 0.14
8 -0.14
9 -0.15

>  <PUBCHEM_EFFECTIVE_ROTOR_COUNT>  (1) 
2.8

>  <PUBCHEM_PHARMACOPHORE_FEATURES>  (1) 
5
1 1 cation
4 7 15 16 17 hydrophobe
6 1 2 3 4 5 6 rings
6 4 5 9 10 12 14 rings
6 8 18 19 20 21 22 rings

>  <PUBCHEM_HEAVY_ATOM_COUNT>  (1) 
22

>  <PUBCHEM_ATOM_DEF_STEREO_COUNT>  (1) 
1

>  <PUBCHEM_ATOM_UDEF_STEREO_COUNT>  (1) 
1

>  <PUBCHEM_BOND_DEF_STEREO_COUNT>  (1) 
0

>  <PUBCHEM_BOND_UDEF_STEREO_COUNT>  (1) 
0

>  <PUBCHEM_ISOTOPIC_ATOM_COUNT>  (1) 
0

>  <PUBCHEM_COMPONENT_COUNT>  (1) 
1

>  <PUBCHEM_CACTVS_TAUTO_COUNT>  (1) 
1

>  <PUBCHEM_CONFORMER_ID>  (1) 
0000988A00000002

>  <PUBCHEM_MMFF94_ENERGY>  (1) 
74.7389

>  <PUBCHEM_FEATURE_SELFOVERLAP>  (1) 
25.392

>  <PUBCHEM_SHAPE_FINGERPRINT>  (1) 
10165383 225 17837242584727717024
10764073 3 14498281682772265309
11578080 2 18046663171846734497
11582403 64 16412070997883768320
11725454 13 17057505218261841368
12173636 292 17760363688321370164
12293681 160 17973755522535836494
12403259 226 18115585916563170975
12549972 3 17895489058916992939
12633257 1 17896575410812550600
12730499 353 18341058531360048355
12788726 201 17615128785276740018
13132413 78 17905605506216224840
13134695 92 18196641909167254598
13140716 1 18334866004463074955
133893 2 18120903266285144342
13464514 151 18341065072263060644
13681431 1 18200603475527133478
13878862 14 18265605486882527869
13965767 371 17895179047883032005
14178342 30 17970071247511162547
14223421 5 18263651821521444323
14466204 15 17758954827463665009
14955137 171 18051146795623889819
15131766 46 16121273103447556850
15295992 7 18262816055645976841
16945 1 18044393633502007831
17980427 23 17774153475167047624
1813 80 17913210866895573302
18186145 218 18337395929310471703
18785283 64 18334018293392169184
18981168 100 18186519921296938615
20510252 161 17834123313347463169
20600515 1 18123472674661950426
20671657 1 18411417302175186569
21524375 3 18198057191112031860
21860390 5 18199464381106068684
22149856 69 18114479924810934107
22182313 1 18115038518939971195
2255824 54 18411139095626682711
23419403 2 13925469036766573422
23559900 14 18259703389487833775
238 59 18201440328150250325
2748010 2 18189070822623022479
312423 11 18202567250939732757
3286 77 18188767232891236679
345986 75 17101700843859616634
350125 39 18263091048863299491
469060 322 17828499290577021923
474 4 18409442622473800773
495365 180 18272644683990468469
5104073 3 18409176498316530507
5262128 65 17916041057106733527
5265222 85 17760100905955416356
5895379 119 16700069119136217609
7364860 26 18412542098307199590
7471813 234 18057867070705951277
7808743 9 17614849938640789732
81228 2 17477781082642370178
84936 182 18342741831605932721
90316 7 16823622769878823082
9971528 1 17773033042674691591
9981440 41 18122051263545231873

>  <PUBCHEM_SHAPE_MULTIPOLES>  (1) 
447.77
7.24
4.08
1.48
8.24
0.41
0.18
3.49
0.4
-4.91
-0.63
-0.37
-0.05
0.85

>  <PUBCHEM_SHAPE_SELFOVERLAP>  (1) 
955.642

>  <PUBCHEM_SHAPE_VOLUME>  (1) 
248.2

>  <PUBCHEM_COORDINATE_TYPE>  (1) 
2
5
10

$$$$
