39063
     RDKit          3D

 21 23  0  0  1  0  0  0  0  0999 V2000
    1.4078   -0.0063   -0.3122 N   0  0  0  0  0  0  0  0  0  0  0  0
    6.0360    1.1199    0.5788 N   0  0  0  0  0  0  0  0  0  0  0  0
    0.5467    0.3198   -1.4627 C   0  0  0  0  0  0  0  0  0  0  0  0
   -0.9450    0.0503   -1.0900 C   0  0  0  0  0  0  0  0  0  0  0  0
   -1.1472   -1.2772   -0.3748 C   0  0  0  0  0  0  0  0  0  0  0  0
    1.3504   -1.4237    0.0632 C   0  0  0  0  0  0  0  0  0  0  0  0
   -0.0567   -1.9562    0.1968 C   0  0  0  0  0  0  0  0  0  0  0  0
   -1.5416    1.2330   -0.3287 C   0  0  0  0  0  0  0  0  0  0  0  0
    0.9192   -0.4059   -2.7696 C   0  0  0  0  0  0  0  0  0  0  0  0
    2.7871    0.4422   -0.4753 C   0  0  0  0  0  0  0  0  0  0  0  0
   -2.4351   -1.8261   -0.2653 C   0  0  0  0  0  0  0  0  0  0  0  0
   -0.2706   -3.1769    0.8536 C   0  0  0  0  0  0  0  0  0  0  0  0
    3.5520    0.2957    0.8376 C   0  0  0  0  0  0  0  0  0  0  0  0
   -1.4586    1.2688    1.0577 C   0  0  0  0  0  0  0  0  0  0  0  0
   -2.1601    2.2598   -1.0311 C   0  0  0  0  0  0  0  0  0  0  0  0
   -2.6362   -3.0354    0.3990 C   0  0  0  0  0  0  0  0  0  0  0  0
   -1.5547   -3.7102    0.9578 C   0  0  0  0  0  0  0  0  0  0  0  0
   -2.0030    2.3485    1.7528 C   0  0  0  0  0  0  0  0  0  0  0  0
   -2.7044    3.3396   -0.3358 C   0  0  0  0  0  0  0  0  0  0  0  0
   -2.6259    3.3840    1.0562 C   0  0  0  0  0  0  0  0  0  0  0  0
    4.9398    0.7564    0.6918 C   0  0  0  0  0  0  0  0  0  0  0  0
  1  3  1  0
  1  6  1  0
  1 10  1  0
  2 21  3  0
  3  4  1  0
  3  9  1  0
  4  5  1  0
  4  8  1  0
  5  7  2  0
  5 11  1  0
  6  7  1  0
  7 12  1  0
  8 14  2  0
  8 15  1  0
 10 13  1  0
 11 16  2  0
 12 17  2  0
 13 21  1  0
 14 18  1  0
 15 19  2  0
 16 17  1  0
 18 20  2  0
 19 20  1  0
M  END
>  <PUBCHEM_COMPOUND_CID>  (1) 
39063

>  <PUBCHEM_CONFORMER_RMSD>  (1) 
0.6

>  <PUBCHEM_CONFORMER_DIVERSEORDER>  (1) 
1
7
15
5
11
21
13
8
14
17
4
3
2
6
12
16
9
19
20
10
18

>  <PUBCHEM_MMFF94_PARTIAL_CHARGES>  (1) 
29
1 -0.81
10 0.27
11 -0.15
12 -0.15
13 0.2
14 -0.15
15 -0.15
16 -0.15
17 -0.15
18 -0.15
19 -0.15
2 -0.56
20 -0.15
21 0.36
3 0.27
31 0.15
32 0.15
35 0.15
36 0.15
37 0.15
38 0.15
39 0.15
4 0.29
40 0.15
41 0.15
5 -0.14
6 0.41
7 -0.14
8 -0.14

>  <PUBCHEM_EFFECTIVE_ROTOR_COUNT>  (1) 
3.8

>  <PUBCHEM_PHARMACOPHORE_FEATURES>  (1) 
5
1 1 cation
1 2 acceptor
6 1 3 4 5 6 7 rings
6 5 7 11 12 16 17 rings
6 8 14 15 18 19 20 rings

>  <PUBCHEM_HEAVY_ATOM_COUNT>  (1) 
21

>  <PUBCHEM_ATOM_DEF_STEREO_COUNT>  (1) 
1

>  <PUBCHEM_ATOM_UDEF_STEREO_COUNT>  (1) 
1

>  <PUBCHEM_BOND_DEF_STEREO_COUNT>  (1) 
0

>  <PUBCHEM_BOND_UDEF_STEREO_COUNT>  (1) 
0

>  <PUBCHEM_ISOTOPIC_ATOM_COUNT>  (1) 
0

>  <PUBCHEM_COMPONENT_COUNT>  (1) 
1

>  <PUBCHEM_CACTVS_TAUTO_COUNT>  (1) 
1

>  <PUBCHEM_CONFORMER_ID>  (1) 
0000989700000001

>  <PUBCHEM_MMFF94_ENERGY>  (1) 
56.2544

>  <PUBCHEM_FEATURE_SELFOVERLAP>  (1) 
25.392

>  <PUBCHEM_SHAPE_FINGERPRINT>  (1) 
1100329 8 18337112392639098369
11036077 4 18189596307961525034
11578080 2 16697850441919959516
11640471 11 17626366940599463393
11646440 116 18267313200106851971
12293681 160 18195215954724527983
12788726 201 18338779208916265899
12930653 34 18412544319222373926
13009979 54 17824272724555877742
13134695 92 17691402340523325207
13140716 1 18120660398526740699
13149001 5 17625576426146271830
13583140 156 17258792417117668889
14142880 1 18261380144445931132
14178342 30 18334581248236844942
14468879 13 17704065175611851276
14787075 74 18199450131048366253
14817 1 8713482577881508479
15131766 46 15695457740539865768
16945 1 17897429808314365207
17980427 23 16911733134919612439
17980427 26 17835224663263245524
19765921 60 17914044301094149945
20510252 161 18338509845794653178
20600515 1 18122639511109623343
21401589 2 18059294266600221896
21524375 3 17984972709379860476
21650355 55 18193276518696584635
21731228 192 18264496087284331832
22182937 141 18343021086380099896
23419403 2 17769638021994481005
23558518 356 18411423869038134551
23559900 14 17973431398375088148
23845131 108 18193000314256689369
283562 15 18337382841891675242
350125 39 18193291693116832259
394222 165 17482549681794362209
474 4 17981597170033202864
495365 180 17613444341984200613
497634 4 18041835242597102484
5845 1 15527996050550555847
7226269 152 18337665421196746175
7288768 16 17844264946419680152
81228 2 18196682728821298199
9981440 41 17632000958702626270
9999458 23 17762621694067106756

>  <PUBCHEM_SHAPE_MULTIPOLES>  (1) 
422.21
6.54
4.62
1.65
13.38
1.78
0.8
-5.23
-2.41
-5.74
-1.88
0.01
-0.38
0.2

>  <PUBCHEM_SHAPE_SELFOVERLAP>  (1) 
902.624

>  <PUBCHEM_SHAPE_VOLUME>  (1) 
231.3

>  <PUBCHEM_COORDINATE_TYPE>  (1) 
2
5
10

$$$$
