39062
     RDKit          3D

 22 24  0  0  1  0  0  0  0  0999 V2000
   -3.4613    1.5650   -1.0704 O   0  0  0  0  0  0  0  0  0  0  0  0
    2.5993   -1.6482    0.2196 N   0  0  0  0  0  0  0  0  0  0  0  0
   -3.7365   -0.3781    0.2361 N   0  0  0  0  0  0  0  0  0  0  0  0
    1.0706   -0.0480   -0.8966 C   0  0  0  0  0  0  0  0  0  0  0  0
    2.3466   -0.9348   -1.0447 C   0  0  0  0  0  0  0  0  0  0  0  0
   -0.0823   -0.7756   -0.2212 C   0  0  0  0  0  0  0  0  0  0  0  0
    1.5207   -2.5755    0.5801 C   0  0  0  0  0  0  0  0  0  0  0  0
    0.1439   -1.9588    0.5038 C   0  0  0  0  0  0  0  0  0  0  0  0
    1.4047    1.2854   -0.2296 C   0  0  0  0  0  0  0  0  0  0  0  0
    2.2350   -1.8436   -2.2837 C   0  0  0  0  0  0  0  0  0  0  0  0
   -1.3844   -0.2562   -0.3038 C   0  0  0  0  0  0  0  0  0  0  0  0
    3.9004   -2.3081    0.2625 C   0  0  0  0  0  0  0  0  0  0  0  0
   -0.9357   -2.6084    1.1197 C   0  0  0  0  0  0  0  0  0  0  0  0
   -2.4478   -0.9059    0.3214 C   0  0  0  0  0  0  0  0  0  0  0  0
    1.3414    1.3954    1.1539 C   0  0  0  0  0  0  0  0  0  0  0  0
    1.7685    2.3730   -1.0138 C   0  0  0  0  0  0  0  0  0  0  0  0
   -2.2235   -2.0812    1.0326 C   0  0  0  0  0  0  0  0  0  0  0  0
    1.6464    2.6126    1.7630 C   0  0  0  0  0  0  0  0  0  0  0  0
    2.0737    3.5901   -0.4046 C   0  0  0  0  0  0  0  0  0  0  0  0
    2.0128    3.7098    0.9839 C   0  0  0  0  0  0  0  0  0  0  0  0
   -4.1543    0.7830   -0.4278 C   0  0  0  0  0  0  0  0  0  0  0  0
   -5.6383    1.0081   -0.2804 C   0  0  0  0  0  0  0  0  0  0  0  0
  1 21  2  0
  2  5  1  0
  2  7  1  0
  2 12  1  0
  3 14  1  0
  3 21  1  0
  4  5  1  0
  4  6  1  0
  4  9  1  0
  5 10  1  0
  6  8  2  0
  6 11  1  0
  7  8  1  0
  8 13  1  0
  9 15  2  0
  9 16  1  0
 11 14  2  0
 13 17  2  0
 14 17  1  0
 15 18  1  0
 16 19  2  0
 18 20  2  0
 19 20  1  0
 21 22  1  0
M  END
>  <PUBCHEM_COMPOUND_CID>  (1) 
39062

>  <PUBCHEM_CONFORMER_RMSD>  (1) 
0.6

>  <PUBCHEM_CONFORMER_DIVERSEORDER>  (1) 
3
18
1
6
10
2
7
14
12
16
8
13
11
9
4
17
15
5

>  <PUBCHEM_MMFF94_PARTIAL_CHARGES>  (1) 
30
1 -0.57
11 -0.15
12 0.27
13 -0.15
14 0.12
15 -0.15
16 -0.15
17 -0.15
18 -0.15
19 -0.15
2 -0.81
20 -0.15
21 0.57
22 0.06
3 -0.55
30 0.15
34 0.15
35 0.15
36 0.15
37 0.15
38 0.15
39 0.15
4 0.29
40 0.37
41 0.15
5 0.27
6 -0.14
7 0.41
8 -0.14
9 -0.14

>  <PUBCHEM_EFFECTIVE_ROTOR_COUNT>  (1) 
3.8

>  <PUBCHEM_PHARMACOPHORE_FEATURES>  (1) 
6
1 1 acceptor
1 2 cation
1 3 donor
6 2 4 5 6 7 8 rings
6 6 8 11 13 14 17 rings
6 9 15 16 18 19 20 rings

>  <PUBCHEM_HEAVY_ATOM_COUNT>  (1) 
22

>  <PUBCHEM_ATOM_DEF_STEREO_COUNT>  (1) 
1

>  <PUBCHEM_ATOM_UDEF_STEREO_COUNT>  (1) 
1

>  <PUBCHEM_BOND_DEF_STEREO_COUNT>  (1) 
0

>  <PUBCHEM_BOND_UDEF_STEREO_COUNT>  (1) 
0

>  <PUBCHEM_ISOTOPIC_ATOM_COUNT>  (1) 
0

>  <PUBCHEM_COMPONENT_COUNT>  (1) 
1

>  <PUBCHEM_CACTVS_TAUTO_COUNT>  (1) 
2

>  <PUBCHEM_CONFORMER_ID>  (1) 
0000989600000003

>  <PUBCHEM_MMFF94_ENERGY>  (1) 
68.5416

>  <PUBCHEM_FEATURE_SELFOVERLAP>  (1) 
30.467

>  <PUBCHEM_SHAPE_FINGERPRINT>  (1) 
10165383 225 17478081669812208673
11221954 11 18265613376045464001
11582403 64 16555351690888554152
11646440 116 18266746770517465723
12035758 1 18263344959019239344
12173636 292 17545035369576217612
12293681 160 18118430404948001494
12403259 226 18260828147075839343
12549972 3 18041292057434298779
12633257 1 17825637145154895864
12788726 201 17904201434658914330
13134695 92 18272363127462087908
13140716 1 18335140925287952355
13294875 104 18260260837150532946
13464514 151 18339089288501540956
13681431 1 18201452354359300966
13965767 371 17750499840712716813
14178342 30 17753894118874761395
14466204 15 18118959192314546169
14866123 147 16391834013680780251
15131766 46 16268503259820864786
15230672 131 18048034366881600812
15295992 7 18335149678657895195
15338160 23 11032345303670479230
16945 1 18116455681421073718
17138139 8 16103549808424204756
17980427 23 17914583216273257110
20233049 118 18042405733600718830
20600515 1 18265620879485387398
20642791 239 17825141218661650102
21029758 11 18339079259684430346
21524375 3 17623861527446136742
21860390 5 18272651216641059477
22149856 69 18115887329801735875
23419403 2 17912048734940007664
23558518 356 17972307684169100371
23559900 14 18335417984985430959
238 59 18058738046944442221
2748010 2 18118138084714702927
283562 15 17832144918573459602
3380486 77 18044106652667374010
350125 39 18191596452055055659
474 4 18337662118440858853
495365 180 18059291079839547337
5265222 85 17544208529250420604
57359948 33 12823295672751631081
5895379 119 16557362431431120393
5939293 188 18411416185478570822
7097593 13 17534873550074009656
7471813 234 17988348274870881241
7808743 9 17757276251023222485
81228 2 17766297383377886798
84936 182 18342458196455870417
9862522 239 17765705111588076136
9981440 41 17908408496415655737

>  <PUBCHEM_SHAPE_MULTIPOLES>  (1) 
436.92
6.93
4.41
1.46
11.01
2.41
0.23
1.82
1.07
-4.24
-1.04
-0.82
-0.02
1.53

>  <PUBCHEM_SHAPE_SELFOVERLAP>  (1) 
936.366

>  <PUBCHEM_SHAPE_VOLUME>  (1) 
241.5

>  <PUBCHEM_COORDINATE_TYPE>  (1) 
2
5
10

$$$$
