39060
     RDKit          3D

 20 22  0  0  1  0  0  0  0  0999 V2000
   -3.9750   -0.8836    1.5427 Cl  0  0  0  0  0  0  0  0  0  0  0  0
   -2.6435    3.7368   -0.8093 Cl  0  0  0  0  0  0  0  0  0  0  0  0
    0.1371   -2.3337    0.3760 N   0  0  0  0  0  0  0  0  0  0  0  0
    0.6490   -0.3251   -0.9831 C   0  0  0  0  0  0  0  0  0  0  0  0
    0.7052   -1.8832   -0.9069 C   0  0  0  0  0  0  0  0  0  0  0  0
   -0.6887    0.2431   -0.5327 C   0  0  0  0  0  0  0  0  0  0  0  0
   -1.2808   -1.9875    0.5285 C   0  0  0  0  0  0  0  0  0  0  0  0
   -1.5867   -0.5427    0.2110 C   0  0  0  0  0  0  0  0  0  0  0  0
    1.8369    0.3022   -0.2551 C   0  0  0  0  0  0  0  0  0  0  0  0
    0.0534   -2.5114   -2.1535 C   0  0  0  0  0  0  0  0  0  0  0  0
    0.3679   -3.7491    0.6468 C   0  0  0  0  0  0  0  0  0  0  0  0
   -1.0281    1.5698   -0.8440 C   0  0  0  0  0  0  0  0  0  0  0  0
   -2.8120    0.0061    0.6170 C   0  0  0  0  0  0  0  0  0  0  0  0
    1.7288    0.6112    1.0950 C   0  0  0  0  0  0  0  0  0  0  0  0
    3.0116    0.5569   -0.9514 C   0  0  0  0  0  0  0  0  0  0  0  0
   -2.2448    2.1069   -0.4259 C   0  0  0  0  0  0  0  0  0  0  0  0
   -3.1363    1.3255    0.3038 C   0  0  0  0  0  0  0  0  0  0  0  0
    2.8131    1.1843    1.7596 C   0  0  0  0  0  0  0  0  0  0  0  0
    4.0960    1.1298   -0.2869 C   0  0  0  0  0  0  0  0  0  0  0  0
    3.9967    1.4435    1.0686 C   0  0  0  0  0  0  0  0  0  0  0  0
  1 13  1  0
  2 16  1  0
  3  5  1  0
  3  7  1  0
  3 11  1  0
  4  5  1  0
  4  6  1  0
  4  9  1  0
  5 10  1  0
  6  8  2  0
  6 12  1  0
  7  8  1  0
  8 13  1  0
  9 14  2  0
  9 15  1  0
 12 16  2  0
 13 17  2  0
 14 18  1  0
 15 19  2  0
 16 17  1  0
 18 20  2  0
 19 20  1  0
M  END
>  <PUBCHEM_COMPOUND_CID>  (1) 
39060

>  <PUBCHEM_CONFORMER_RMSD>  (1) 
0.6

>  <PUBCHEM_CONFORMER_DIVERSEORDER>  (1) 
2
4
1
3
6
5

>  <PUBCHEM_MMFF94_PARTIAL_CHARGES>  (1) 
26
1 -0.18
11 0.27
12 -0.15
13 0.18
14 -0.15
15 -0.15
16 0.18
17 -0.15
18 -0.15
19 -0.15
2 -0.18
20 -0.15
3 -0.81
31 0.15
32 0.15
33 0.15
34 0.15
35 0.15
36 0.15
37 0.15
4 0.29
5 0.27
6 -0.14
7 0.41
8 -0.14
9 -0.14

>  <PUBCHEM_EFFECTIVE_ROTOR_COUNT>  (1) 
1.8

>  <PUBCHEM_PHARMACOPHORE_FEATURES>  (1) 
4
1 3 cation
6 3 4 5 6 7 8 rings
6 6 8 12 13 16 17 rings
6 9 14 15 18 19 20 rings

>  <PUBCHEM_HEAVY_ATOM_COUNT>  (1) 
20

>  <PUBCHEM_ATOM_DEF_STEREO_COUNT>  (1) 
1

>  <PUBCHEM_ATOM_UDEF_STEREO_COUNT>  (1) 
1

>  <PUBCHEM_BOND_DEF_STEREO_COUNT>  (1) 
0

>  <PUBCHEM_BOND_UDEF_STEREO_COUNT>  (1) 
0

>  <PUBCHEM_ISOTOPIC_ATOM_COUNT>  (1) 
0

>  <PUBCHEM_COMPONENT_COUNT>  (1) 
1

>  <PUBCHEM_CACTVS_TAUTO_COUNT>  (1) 
1

>  <PUBCHEM_CONFORMER_ID>  (1) 
0000989400000002

>  <PUBCHEM_MMFF94_ENERGY>  (1) 
58.0842

>  <PUBCHEM_FEATURE_SELFOVERLAP>  (1) 
20.318

>  <PUBCHEM_SHAPE_FINGERPRINT>  (1) 
10165383 225 17987538037685220832
10906281 52 18188505635492793405
11132069 177 18341900748349897001
11578080 2 18051158916100811481
12173636 292 18336258020306207220
13004483 165 16909443960453394702
13134695 92 17259602765101112350
13140716 1 17903362841702980913
13294875 104 17912903034015413616
13464514 151 17909553852614233804
13538477 17 17824820281324995454
13681431 1 17408801021334018030
14178342 30 18042136379522689009
14223421 5 18265060137155426337
14817 1 13031336796819131550
15295992 7 17488750111325457826
15309172 13 18410292540255491840
15490181 7 18271232859505076430
16945 1 18262518211836731047
17980427 23 17334733571680356247
18186145 218 17632580457107244108
18219364 16 18059851774803705145
19049666 15 18049730620246552785
20028762 73 17838353122233796299
20510252 161 18411426123991092169
20600515 1 17979090584459325107
20642791 239 17108511206202556094
21069387 34 14345801582241893721
21524375 3 18343579633733222446
21650355 55 17903346349297661066
21731228 192 18412536617992155624
22112679 90 17831867119729343700
22182313 1 18190196607045263429
23402539 116 18268144451981857791
23419403 2 17408581338047150102
23559900 14 18116160956670150101
238 59 18056737872116734037
25 1 17775293741987551192
2748010 2 18119263778742170789
3250762 1 18046914779594455507
350125 39 18264498290607894395
427121 178 18270139983691638635
495365 180 17911781497611143093
5265222 85 18337685195938353310
633830 44 16988574484679295648
6442390 28 18340780311509800683
7097593 13 17314775318280902256
7364860 26 17981885242005580246
81228 2 17838600511742384030
84936 182 17909821046656263425
90316 7 18190739941186887177
9981440 41 18194093284248522313

>  <PUBCHEM_SHAPE_MULTIPOLES>  (1) 
410.35
6.16
3.76
1.56
2.01
1.12
0.06
-4.42
-2.29
-1.8
0.69
0.29
0.37
1.5

>  <PUBCHEM_SHAPE_SELFOVERLAP>  (1) 
867.731

>  <PUBCHEM_SHAPE_VOLUME>  (1) 
230.8

>  <PUBCHEM_COORDINATE_TYPE>  (1) 
2
5
10

$$$$
