39066
     RDKit          3D

 11 11  0  0  1  0  0  0  0  0999 V2000
    0.1829   -0.3615    0.3206 C   0  0  0  0  0  0  0  0  0  0  0  0
    1.2972   -0.6095   -0.6316 C   0  0  0  0  0  0  0  0  0  0  0  0
    0.3131   -1.6979   -0.3169 C   0  0  0  0  0  0  0  0  0  0  0  0
   -0.9503    0.5232   -0.1742 C   0  0  0  0  0  0  0  0  0  0  0  0
    2.6872   -0.7289   -0.1238 C   0  0  0  0  0  0  0  0  0  0  0  0
    0.4371   -0.2203    1.7691 C   0  0  0  0  0  0  0  0  0  0  0  0
   -2.3136   -0.1215    0.0744 C   0  0  0  0  0  0  0  0  0  0  0  0
    3.5634    0.4824   -0.4969 C   0  0  0  0  0  0  0  0  0  0  0  0
   -3.4512    0.7858   -0.3935 C   0  0  0  0  0  0  0  0  0  0  0  0
    3.0446    1.7853    0.0900 C   0  0  0  0  0  0  0  0  0  0  0  0
   -4.8103    0.1628   -0.1173 C   0  0  0  0  0  0  0  0  0  0  0  0
  1  2  1  0
  1  3  1  0
  1  4  1  0
  1  6  1  0
  2  3  1  0
  2  5  1  0
  4  7  1  0
  5  8  1  0
  7  9  1  0
  8 10  1  0
  9 11  1  0
M  END
>  <PUBCHEM_COMPOUND_CID>  (1) 
39066

>  <PUBCHEM_CONFORMER_RMSD>  (1) 
0.6

>  <PUBCHEM_CONFORMER_DIVERSEORDER>  (1) 
5
101
91
104
21
38
4
79
102
89
94
110
48
39
10
45
54
105
68
64
13
66
2
14
114
108
100
16
28
6
49
109
113
73
82
22
34
81
69
84
24
41
60
96
87
32
11
56
18
93
59
77
92
106
72
29
47
12
1
33
44
67
88
23
52
74
20
80
35
103
51
42
112
17
111
46
50
26
55
43
85
70
58
25
98
53
30
57
95
63
75
15
78
31
99
7
90
107
65
76
3
27
19
8
61
86
36
9
97
71
37
40
83
62

>  <PUBCHEM_MMFF94_PARTIAL_CHARGES>  (1) 
9
1 -0.19
12 0.1
13 0.1
14 0.1
2 -0.19
3 -0.2
4 0.09
5 0.09
6 0.09

>  <PUBCHEM_EFFECTIVE_ROTOR_COUNT>  (1) 
5.6

>  <PUBCHEM_PHARMACOPHORE_FEATURES>  (1) 
2
1 10 hydrophobe
1 11 hydrophobe

>  <PUBCHEM_HEAVY_ATOM_COUNT>  (1) 
11

>  <PUBCHEM_ATOM_DEF_STEREO_COUNT>  (1) 
0

>  <PUBCHEM_ATOM_UDEF_STEREO_COUNT>  (1) 
2

>  <PUBCHEM_BOND_DEF_STEREO_COUNT>  (1) 
0

>  <PUBCHEM_BOND_UDEF_STEREO_COUNT>  (1) 
0

>  <PUBCHEM_ISOTOPIC_ATOM_COUNT>  (1) 
0

>  <PUBCHEM_COMPONENT_COUNT>  (1) 
1

>  <PUBCHEM_CACTVS_TAUTO_COUNT>  (1) 
1

>  <PUBCHEM_CONFORMER_ID>  (1) 
0000989A00000005

>  <PUBCHEM_MMFF94_ENERGY>  (1) 
13.0069

>  <PUBCHEM_FEATURE_SELFOVERLAP>  (1) 
10.149

>  <PUBCHEM_SHAPE_FINGERPRINT>  (1) 
10465860 71 14907904911272175984
11062470 55 17748829596687000583
11769659 78 10879724164771074212
122479 349 17896887749461478180
12251169 10 12829211091672418780
14325111 11 18410294722125187022
14415576 193 18412266095071520429
14993402 34 15339119043801357789
170605 34 18187082836584724851
17834072 33 18202278130984642973
18186145 218 18202012018425383396
187816 3 17203614787386261606
20606313 2 18411419518415734916
20653085 51 18337400456037274492
20671657 53 17839189506441259990
20724930 37 17095519591282487432
20820808 20 18273213110137871178
20871998 22 10737547415937788392
21293036 1 17132396120219199326
228727 97 17060349491380588346
23382010 3 17916857044873645574
23402539 116 12612750251025001907
23402655 69 18201716211596675189
265663 24 17967529069068939290
276578 36 16588021303669164152
4047638 21 18334860510661520944
42 15 9583519828429472413
449060 62 18334581247862266140
7364860 26 17823408293277808330

>  <PUBCHEM_SHAPE_MULTIPOLES>  (1) 
226.37
7.21
1.37
1
6.41
0.08
-0.46
2.65
1.3
-0.99
0.11
-0.2
-0.08
0.15

>  <PUBCHEM_SHAPE_SELFOVERLAP>  (1) 
426.539

>  <PUBCHEM_SHAPE_VOLUME>  (1) 
144.6

>  <PUBCHEM_COORDINATE_TYPE>  (1) 
2
5
10

$$$$
