39068
     RDKit          3D

 17 17  0  0  1  0  0  0  0  0999 V2000
    3.4518   -0.5062   -0.5610 C   0  0  0  0  0  0  0  0  0  0  0  0
    2.3933   -0.9855    0.3886 C   0  0  0  0  0  0  0  0  0  0  0  0
    3.3452   -1.9662   -0.2311 C   0  0  0  0  0  0  0  0  0  0  0  0
    4.5999    0.2514    0.0096 C   0  0  0  0  0  0  0  0  0  0  0  0
    0.9527   -1.0126   -0.0237 C   0  0  0  0  0  0  0  0  0  0  0  0
    3.0580   -0.0754   -1.9319 C   0  0  0  0  0  0  0  0  0  0  0  0
    4.4161    1.7822   -0.0386 C   0  0  0  0  0  0  0  0  0  0  0  0
    0.1719   -2.0948    0.7237 C   0  0  0  0  0  0  0  0  0  0  0  0
   -1.3034   -2.1708    0.3189 C   0  0  0  0  0  0  0  0  0  0  0  0
    5.6604    2.4834    0.5110 C   0  0  0  0  0  0  0  0  0  0  0  0
    3.1819    2.2351    0.7449 C   0  0  0  0  0  0  0  0  0  0  0  0
   -2.0497   -0.8472    0.5055 C   0  0  0  0  0  0  0  0  0  0  0  0
   -3.5098   -0.9053    0.0447 C   0  0  0  0  0  0  0  0  0  0  0  0
   -4.2651    0.4091    0.2539 C   0  0  0  0  0  0  0  0  0  0  0  0
   -5.7188    0.2927   -0.2104 C   0  0  0  0  0  0  0  0  0  0  0  0
   -6.4654    1.6153   -0.0378 C   0  0  0  0  0  0  0  0  0  0  0  0
   -7.9190    1.4948   -0.4663 C   0  0  0  0  0  0  0  0  0  0  0  0
  1  2  1  0
  1  3  1  0
  1  4  1  0
  1  6  1  0
  2  3  1  0
  2  5  1  0
  4  7  1  0
  5  8  1  0
  7 10  1  0
  7 11  1  0
  8  9  1  0
  9 12  1  0
 12 13  1  0
 13 14  1  0
 14 15  1  0
 15 16  1  0
 16 17  1  0
M  END
>  <PUBCHEM_COMPOUND_CID>  (1) 
39068

>  <PUBCHEM_CONFORMER_RMSD>  (1) 
1

>  <PUBCHEM_CONFORMER_DIVERSEORDER>  (1) 
17
268
380
350
135
82
334
11
2
386
384
116
336
162
394
133
402
407
324
368
236
210
318
77
126
389
92
74
6
94
70
180
388
400
34
343
276
231
21
399
315
178
250
69
341
8
401
132
124
373
233
300
358
51
204
275
316
76
308
18
319
102
263
235
362
256
188
320
160
129
337
106
12
330
54
349
22
114
347
108
288
289
391
181
228
357
144
151
240
32
360
169
277
220
406
230
271
168
9
155
379
352
19
33
234
239
190
201
261
4
307
365
91
215
73
43
285
3
387
30
383
328
305
47
262
369
229
136
346
313
109
216
35
41
56
179
121
187
405
213
381
27
79
253
78
146
61
363
50
248
326
103
222
376
372
329
184
264
396
218
338
281
52
164
75
99
251
364
177
202
270
66
205
237
194
134
280
5
306
327
225
245
323
301
354
161
84
87
255
403
93
26
385
90
170
81
322
325
257
111
269
409
165
31
298
296
198
335
44
309
46
292
355
104
37
113
143
159
145
392
284
332
232
63
98
189
370
217
398
408
366
291
1
39
174
59
371
48
273
377
182
55
203
86
23
310
287
340
223
304
199
138
65
186
259
226
24
14
246
299
62
333
28
57
123
67
10
128
375
64
42
221
149
16
247
85
397
120
60
115
312
207
244
71
238
206
303
15
148
211
196
254
100
278
297
252
137
7
382
279
38
88
36
345
25
374
283
97
20
45
390
89
191
242
83
29
208
361
167
286
80
176
105
339
356
157
258
101
266
140
348
393
353
243
290
274
378
122
130
68
214
321
241
156
163
351
166
142
404
293
260
127
171
117
154
147
58
209
197
172
267
192
72
193
344
175
317
40
173
95
367
131
212
53
224
49
359
119
282
112
158
118
265
342
314
141
107
13
150
294
295
125
96
311
183
110
185
331
227
152
200
272
195
302
249
395
219
139
153

>  <PUBCHEM_MMFF94_PARTIAL_CHARGES>  (1) 
9
1 -0.19
18 0.1
19 0.1
2 -0.19
20 0.1
3 -0.2
4 0.09
5 0.09
6 0.09

>  <PUBCHEM_EFFECTIVE_ROTOR_COUNT>  (1) 
10.6

>  <PUBCHEM_PHARMACOPHORE_FEATURES>  (1) 
2
1 17 hydrophobe
3 7 10 11 hydrophobe

>  <PUBCHEM_HEAVY_ATOM_COUNT>  (1) 
17

>  <PUBCHEM_ATOM_DEF_STEREO_COUNT>  (1) 
0

>  <PUBCHEM_ATOM_UDEF_STEREO_COUNT>  (1) 
2

>  <PUBCHEM_BOND_DEF_STEREO_COUNT>  (1) 
0

>  <PUBCHEM_BOND_UDEF_STEREO_COUNT>  (1) 
0

>  <PUBCHEM_ISOTOPIC_ATOM_COUNT>  (1) 
0

>  <PUBCHEM_COMPONENT_COUNT>  (1) 
1

>  <PUBCHEM_CACTVS_TAUTO_COUNT>  (1) 
1

>  <PUBCHEM_CONFORMER_ID>  (1) 
0000989C00000011

>  <PUBCHEM_MMFF94_ENERGY>  (1) 
16.4559

>  <PUBCHEM_FEATURE_SELFOVERLAP>  (1) 
10.149

>  <PUBCHEM_SHAPE_FINGERPRINT>  (1) 
11069576 57 15338295428014136980
12403259 118 17532100556168669851
12633257 1 15357700824681300547
12778500 126 17822279181447390256
13533116 47 17095798794301043003
13551218 46 8502651507171948033
13668630 136 11384109744305249845
13955234 65 17897160230756138003
14123256 34 11023823994550385741
1420 369 9871751286738908235
14251764 30 8502657004439696229
14461889 52 17385736794432454739
14528608 73 18412542090276525159
14931854 50 18060148651717898408
15183329 4 17132398311502210593
15342816 4 12823305563333442290
17810953 82 18260270758567165332
193927 3 11383834895946235687
20157964 124 18343303639208790359
20281389 69 18187364278056278437
20715895 44 18410855486188512512
21033648 29 17968104148010030611
212847 35 18261395529045373250
22289505 5 18202568393195500160
23402655 69 18202565111455545878
25122255 55 11167931503330452021
270888 7 18337952389093756408
2838139 119 18337103463628579743
2916195 48 18335703870935850299
33382 64 8070028874049967639
3472631 163 18342739624340687911
34797466 226 17918281943935916855
351380 3 10663815265711642207
445580 167 18341885317460791815
465052 167 7925916984672486640
5104073 3 15720247243072252153
5312510 48 18341894104194304673
59682541 52 16487252154174380905
60123966 16 18131079225220436430

>  <PUBCHEM_SHAPE_MULTIPOLES>  (1) 
349.85
18
2.75
0.99
33.34
0.55
0.37
15.69
1.86
-2.16
-0.59
-0.79
0
1.28

>  <PUBCHEM_SHAPE_SELFOVERLAP>  (1) 
656.42

>  <PUBCHEM_SHAPE_VOLUME>  (1) 
222.4

>  <PUBCHEM_COORDINATE_TYPE>  (1) 
2
5
10

$$$$
