39078
     RDKit          3D

 20 21  0  0  0  0  0  0  0  0999 V2000
   -0.9860    2.5574   -0.0017 S   0  0  0  0  0  0  0  0  0  0  0  0
   -5.3544    0.9212    0.0150 F   0  0  0  0  0  0  0  0  0  0  0  0
   -5.5415   -0.9639    1.0961 F   0  0  0  0  0  0  0  0  0  0  0  0
   -5.5654   -0.9490   -1.0828 F   0  0  0  0  0  0  0  0  0  0  0  0
    3.2000    0.4963    0.0014 O   0  0  0  0  0  0  0  0  0  0  0  0
   -2.9787   -1.6621   -0.0095 O   0  0  0  0  0  0  0  0  0  0  0  0
    6.3581   -0.9999    0.0032 O   0  0  0  0  0  0  0  0  0  0  0  0
    5.7378    1.1103    0.0052 O   0  0  0  0  0  0  0  0  0  0  0  0
   -0.5201    0.0147   -0.0052 N   0  0  0  0  0  0  0  0  0  0  0  0
   -2.8316    0.6963   -0.0071 N   0  0  0  0  0  0  0  0  0  0  0  0
    5.4467   -0.1215    0.0034 N   0  0  0  0  0  0  0  0  0  0  0  0
    0.6995    0.6630   -0.0020 C   0  0  0  0  0  0  0  0  0  0  0  0
    1.9710   -0.0836   -0.0014 C   0  0  0  0  0  0  0  0  0  0  0  0
   -1.4791    0.9138   -0.0053 C   0  0  0  0  0  0  0  0  0  0  0  0
    2.0836   -1.4545   -0.0035 C   0  0  0  0  0  0  0  0  0  0  0  0
    0.6494    2.0412    0.0002 C   0  0  0  0  0  0  0  0  0  0  0  0
    4.1071   -0.5153    0.0009 C   0  0  0  0  0  0  0  0  0  0  0  0
    3.4708   -1.7348   -0.0021 C   0  0  0  0  0  0  0  0  0  0  0  0
   -3.4860   -0.5458   -0.0090 C   0  0  0  0  0  0  0  0  0  0  0  0
   -4.9811   -0.3838    0.0042 C   0  0  0  0  0  0  0  0  0  0  0  0
  1 14  1  0
  1 16  1  0
  2 20  1  0
  3 20  1  0
  4 20  1  0
  5 13  1  0
  5 17  1  0
  6 19  2  0
  7 11  1  0
  8 11  2  0
  9 12  1  0
  9 14  2  0
 10 14  1  0
 10 19  1  0
 11 17  1  0
 12 13  1  0
 12 16  2  0
 13 15  2  0
 15 18  1  0
 17 18  2  0
 19 20  1  0
M  CHG  2   7  -1  11   1
M  END
>  <PUBCHEM_COMPOUND_CID>  (1) 
39078

>  <PUBCHEM_CONFORMER_RMSD>  (1) 
0.8

>  <PUBCHEM_CONFORMER_DIVERSEORDER>  (1) 
1
6
4
7
5
2
8
3

>  <PUBCHEM_MMFF94_PARTIAL_CHARGES>  (1) 
24
1 -0.08
10 -0.49
11 0.96
12 0.23
13 0.14
14 0.44
15 -0.15
16 -0.11
17 0.22
18 -0.15
19 0.57
2 -0.34
20 1.08
21 0.15
22 0.15
23 0.15
24 0.37
3 -0.34
4 -0.34
5 -0.28
6 -0.57
7 -0.52
8 -0.52
9 -0.57

>  <PUBCHEM_EFFECTIVE_ROTOR_COUNT>  (1) 
5

>  <PUBCHEM_PHARMACOPHORE_FEATURES>  (1) 
8
1 10 donor
1 5 acceptor
1 6 acceptor
1 7 acceptor
1 7 anion
1 8 acceptor
5 1 9 12 14 16 rings
5 5 13 15 17 18 rings

>  <PUBCHEM_HEAVY_ATOM_COUNT>  (1) 
20

>  <PUBCHEM_ATOM_DEF_STEREO_COUNT>  (1) 
0

>  <PUBCHEM_ATOM_UDEF_STEREO_COUNT>  (1) 
0

>  <PUBCHEM_BOND_DEF_STEREO_COUNT>  (1) 
0

>  <PUBCHEM_BOND_UDEF_STEREO_COUNT>  (1) 
0

>  <PUBCHEM_ISOTOPIC_ATOM_COUNT>  (1) 
0

>  <PUBCHEM_COMPONENT_COUNT>  (1) 
1

>  <PUBCHEM_CACTVS_TAUTO_COUNT>  (1) 
3

>  <PUBCHEM_CONFORMER_ID>  (1) 
000098A600000001

>  <PUBCHEM_MMFF94_ENERGY>  (1) 
22.8056

>  <PUBCHEM_FEATURE_SELFOVERLAP>  (1) 
40.688

>  <PUBCHEM_SHAPE_FINGERPRINT>  (1) 
10354089 29 12391513087903672030
10447042 23 18334003974240463342
10906281 52 18338256910669610120
10968037 39 18409730672855323263
11265709 11 18410858758885123945
11806522 49 18407761421960795036
12236239 1 17917712409074898348
12516196 113 18273212014710382969
12553582 1 18340190951702255823
12596602 18 16558745754196946875
12788726 201 18335415712604925169
12815109 37 18409729560390221679
12841375 25 18409166623285149341
13288520 33 18411700972075539781
13685833 64 18335144219707086507
13740256 8 18335143137227602251
13862211 1 18411978070106178862
1420 363 18410015429355956930
14251752 14 17168413866540544381
14251764 18 18272938228632318033
14252887 29 17988933244773320374
14787075 74 18408886256836924760
15196674 1 18338797806013621126
15352361 1 18410573989763072463
15880784 105 17203321269068292307
15927050 60 17623287586999134756
17492 89 18122341281829819090
17834072 8 18259696792892768893
18006028 8 18273210894309623909
19141452 34 18273495693590969927
200 152 18409448076749768929
20374829 77 18335417963394374617
20871999 31 18041273279932426877
21033648 29 11743556518721223251
21236236 1 18341332185085762137
21267235 1 18410301306325921386
221490 88 18117847818082005131
22224240 67 16988837289549078942
2297311 6 18272661108393905412
23035841 295 18411419497178067282
23402539 116 18409444769540451165
23536379 177 15140955149537678899
23557571 272 18271248218635362844
23559900 14 18337385058268827857
26918003 58 18113058241982926059
2871803 45 18334293132855507722
3004659 81 18113335318939492724
314173 85 18201167580742413157
314194 84 18413389851879417851
335352 9 18410572878121053637
351380 3 18343298175915418455
4214541 1 18410855421864261989
4325135 7 18335423478612580340
4463277 17 18411700980301691801
474229 33 18411136931332553862
5104073 3 18199180682048403450
5283173 99 17968930890597189693
5486654 2 18410015468327108894
59682541 35 18271235132344330946
59755656 215 18409170970367338870
8863177 126 17824558593532208851

>  <PUBCHEM_SHAPE_MULTIPOLES>  (1) 
355.2
13.99
2.01
0.66
0.4
0.83
0
-5.07
0.04
-0.17
0
-0.48
-0.07
0

>  <PUBCHEM_SHAPE_SELFOVERLAP>  (1) 
753.953

>  <PUBCHEM_SHAPE_VOLUME>  (1) 
200.5

>  <PUBCHEM_COORDINATE_TYPE>  (1) 
2
5
10

$$$$
