39079
     RDKit          3D

 18 18  0  0  0  0  0  0  0  0999 V2000
   -1.4334    1.9465    0.5135 S   0  0  0  0  0  0  0  0  0  0  0  0
    1.2948    1.5329    0.7589 O   0  0  0  0  0  0  0  0  0  0  0  0
   -1.7329   -2.4175   -0.3637 O   0  0  0  0  0  0  0  0  0  0  0  0
   -3.9615   -2.0831   -0.5693 O   0  0  0  0  0  0  0  0  0  0  0  0
    3.4936    0.0395    0.0297 N   0  0  0  0  0  0  0  0  0  0  0  0
   -0.0742   -0.3095    0.2431 N   0  0  0  0  0  0  0  0  0  0  0  0
   -3.0830    2.0389    0.3321 N   0  0  0  0  0  0  0  0  0  0  0  0
    2.2775   -0.6480    0.4622 C   0  0  0  0  0  0  0  0  0  0  0  0
    3.3069    0.6211   -1.2990 C   0  0  0  0  0  0  0  0  0  0  0  0
    4.6291   -0.8822    0.0294 C   0  0  0  0  0  0  0  0  0  0  0  0
    1.1267    0.3429    0.5138 C   0  0  0  0  0  0  0  0  0  0  0  0
    4.5616    1.3400   -1.7649 C   0  0  0  0  0  0  0  0  0  0  0  0
    4.8760   -1.4495    1.4170 C   0  0  0  0  0  0  0  0  0  0  0  0
   -1.3406    0.2795    0.2034 C   0  0  0  0  0  0  0  0  0  0  0  0
   -2.5743   -0.2273   -0.0433 C   0  0  0  0  0  0  0  0  0  0  0  0
   -3.5348    0.8208    0.0427 C   0  0  0  0  0  0  0  0  0  0  0  0
   -4.9915    0.6645   -0.1634 C   0  0  0  0  0  0  0  0  0  0  0  0
   -2.8401   -1.6095   -0.3422 C   0  0  0  0  0  0  0  0  0  0  0  0
  1  7  1  0
  1 14  1  0
  2 11  2  0
  3 18  1  0
  4 18  2  0
  5  8  1  0
  5  9  1  0
  5 10  1  0
  6 11  1  0
  6 14  1  0
  7 16  2  0
  8 11  1  0
  9 12  1  0
 10 13  1  0
 14 15  2  0
 15 16  1  0
 15 18  1  0
 16 17  1  0
M  END
>  <PUBCHEM_COMPOUND_CID>  (1) 
39079

>  <PUBCHEM_CONFORMER_RMSD>  (1) 
0.8

>  <PUBCHEM_CONFORMER_DIVERSEORDER>  (1) 
1
22
12
25
20
27
26
23
14
7
17
11
21
18
9
28
13
16
24
4
3
8
19
10
15
5
2
6

>  <PUBCHEM_MMFF94_PARTIAL_CHARGES>  (1) 
18
1 0.18
10 0.27
11 0.57
14 0.1
15 -0.09
16 0.11
17 0.18
18 0.81
2 -0.57
3 -0.65
31 0.37
35 0.5
4 -0.57
5 -0.81
6 -0.49
7 -0.51
8 0.33
9 0.27

>  <PUBCHEM_EFFECTIVE_ROTOR_COUNT>  (1) 
7

>  <PUBCHEM_PHARMACOPHORE_FEATURES>  (1) 
8
1 2 acceptor
1 3 acceptor
1 4 acceptor
1 5 cation
1 6 donor
1 7 acceptor
3 3 4 18 anion
5 1 7 14 15 16 rings

>  <PUBCHEM_HEAVY_ATOM_COUNT>  (1) 
18

>  <PUBCHEM_ATOM_DEF_STEREO_COUNT>  (1) 
0

>  <PUBCHEM_ATOM_UDEF_STEREO_COUNT>  (1) 
0

>  <PUBCHEM_BOND_DEF_STEREO_COUNT>  (1) 
0

>  <PUBCHEM_BOND_UDEF_STEREO_COUNT>  (1) 
0

>  <PUBCHEM_ISOTOPIC_ATOM_COUNT>  (1) 
0

>  <PUBCHEM_COMPONENT_COUNT>  (1) 
1

>  <PUBCHEM_CACTVS_TAUTO_COUNT>  (1) 
5

>  <PUBCHEM_CONFORMER_ID>  (1) 
000098A700000001

>  <PUBCHEM_MMFF94_ENERGY>  (1) 
35.764

>  <PUBCHEM_FEATURE_SELFOVERLAP>  (1) 
40.657

>  <PUBCHEM_SHAPE_FINGERPRINT>  (1) 
10062212 137 18335416846566007138
10616163 171 18413108350969736934
12236239 1 18040999522890361233
12616971 3 17967533454404433312
13167823 11 18261111859604092586
13760787 19 18408046221173465238
13862211 1 18343013424733222615
14115302 16 18410294688113608168
14252887 29 15769776840990900498
14386348 63 16988562390230283430
15375358 24 17131826547779661398
15415430 112 18340777017275100853
17804303 29 18201719587245674009
17870717 6 17988939859117752661
1813 80 17460877285767461138
18186145 218 15719114669319007544
18915474 69 18334857238329023086
19026448 5 18260269650866165524
19422 9 18333732424985667742
19433438 15 18187368696913059268
20279233 1 17131832053864470470
20281475 54 18408318891414341538
20325693 3 18342470252550012845
20645477 70 16371008469371473818
20871999 31 18339082695847937567
23175994 123 16487257677259555553
23402539 116 18201707424141125277
23402655 69 18260835890701634924
23557571 272 17702950219434951984
23559900 14 18201715163677324616
23598291 2 18186519891290248382
2838139 119 17096633307058618221
300161 21 18335419084570879396
3004659 81 18408604734747656974
3082319 5 18260554445852712868
4214541 1 18412823555988003160
474 4 17241058711763186580
5104073 3 18343016726576416202
559249 180 18118676630600378882
573450 72 18410004408353779194
58051976 100 18334577923457326158
633830 44 16877946022955101000
67856867 119 18334853970276077392
81228 2 16915397506611331552

>  <PUBCHEM_SHAPE_MULTIPOLES>  (1) 
341.73
10.88
2.16
1.11
5.01
0.45
0.2
1.13
1.29
-1.17
0.13
1.48
-0.18
-2.1

>  <PUBCHEM_SHAPE_SELFOVERLAP>  (1) 
682.402

>  <PUBCHEM_SHAPE_VOLUME>  (1) 
204.3

>  <PUBCHEM_COORDINATE_TYPE>  (1) 
2
5
10

$$$$
