39084
     RDKit          3D

 20 21  0  0  1  0  0  0  0  0999 V2000
    1.0285   -0.0044   -2.0310 O   0  0  0  0  0  0  0  0  0  0  0  0
   -0.9429    2.5784    1.2641 O   0  0  0  0  0  0  0  0  0  0  0  0
    3.8176   -0.5460   -0.4078 O   0  0  0  0  0  0  0  0  0  0  0  0
    2.1904   -0.5253    2.4403 O   0  0  0  0  0  0  0  0  0  0  0  0
    1.5625   -0.4114    0.1955 N   0  0  0  0  0  0  0  0  0  0  0  0
    0.5468    0.9406    1.8415 N   0  0  0  0  0  0  0  0  0  0  0  0
   -0.5241    0.8129   -0.3604 C   0  0  0  0  0  0  0  0  0  0  0  0
   -0.8968    1.8537   -1.4455 C   0  0  0  0  0  0  0  0  0  0  0  0
   -1.6953   -0.1860   -0.2161 C   0  0  0  0  0  0  0  0  0  0  0  0
    0.7651    0.1196   -0.8323 C   0  0  0  0  0  0  0  0  0  0  0  0
   -0.3319    1.5525    0.9656 C   0  0  0  0  0  0  0  0  0  0  0  0
    0.2270    2.8447   -1.6582 C   0  0  0  0  0  0  0  0  0  0  0  0
    1.4748   -0.0538    1.5527 C   0  0  0  0  0  0  0  0  0  0  0  0
   -2.9618    0.2845    0.1056 C   0  0  0  0  0  0  0  0  0  0  0  0
   -1.4671   -1.5422   -0.4095 C   0  0  0  0  0  0  0  0  0  0  0  0
    2.6435   -1.3128   -0.1871 C   0  0  0  0  0  0  0  0  0  0  0  0
   -4.0184   -0.6167    0.2360 C   0  0  0  0  0  0  0  0  0  0  0  0
   -2.5237   -2.4435   -0.2791 C   0  0  0  0  0  0  0  0  0  0  0  0
   -3.7993   -1.9808    0.0436 C   0  0  0  0  0  0  0  0  0  0  0  0
    4.9050   -1.3640   -0.8179 C   0  0  0  0  0  0  0  0  0  0  0  0
  1 10  2  0
  2 11  2  0
  3 16  1  0
  3 20  1  0
  4 13  2  0
  5 10  1  0
  5 13  1  0
  5 16  1  0
  6 11  1  0
  6 13  1  0
  7  8  1  0
  7  9  1  0
  7 10  1  0
  7 11  1  0
  8 12  1  0
  9 14  2  0
  9 15  1  0
 14 17  1  0
 15 18  2  0
 17 19  2  0
 18 19  1  0
M  END
>  <PUBCHEM_COMPOUND_CID>  (1) 
39084

>  <PUBCHEM_CONFORMER_RMSD>  (1) 
0.6

>  <PUBCHEM_CONFORMER_DIVERSEORDER>  (1) 
1
6
18
9
17
15
20
22
8
14
24
3
13
23
7
21
12
16
4
5
19
10
2
11

>  <PUBCHEM_MMFF94_PARTIAL_CHARGES>  (1) 
24
1 -0.57
10 0.57
11 0.57
13 0.69
14 -0.15
15 -0.15
16 0.58
17 -0.15
18 -0.15
19 -0.15
2 -0.57
20 0.28
26 0.37
27 0.15
28 0.15
3 -0.56
31 0.15
32 0.15
33 0.15
4 -0.57
5 -0.42
6 -0.49
7 0.27
9 -0.14

>  <PUBCHEM_EFFECTIVE_ROTOR_COUNT>  (1) 
4.6

>  <PUBCHEM_PHARMACOPHORE_FEATURES>  (1) 
8
1 1 acceptor
1 12 hydrophobe
1 2 acceptor
1 3 acceptor
1 4 acceptor
1 6 donor
6 5 6 7 10 11 13 rings
6 9 14 15 17 18 19 rings

>  <PUBCHEM_HEAVY_ATOM_COUNT>  (1) 
20

>  <PUBCHEM_ATOM_DEF_STEREO_COUNT>  (1) 
0

>  <PUBCHEM_ATOM_UDEF_STEREO_COUNT>  (1) 
1

>  <PUBCHEM_BOND_DEF_STEREO_COUNT>  (1) 
0

>  <PUBCHEM_BOND_UDEF_STEREO_COUNT>  (1) 
0

>  <PUBCHEM_ISOTOPIC_ATOM_COUNT>  (1) 
0

>  <PUBCHEM_COMPONENT_COUNT>  (1) 
1

>  <PUBCHEM_CACTVS_TAUTO_COUNT>  (1) 
3

>  <PUBCHEM_CONFORMER_ID>  (1) 
000098AC00000001

>  <PUBCHEM_MMFF94_ENERGY>  (1) 
60.3861

>  <PUBCHEM_FEATURE_SELFOVERLAP>  (1) 
40.597

>  <PUBCHEM_SHAPE_FINGERPRINT>  (1) 
11578080 2 17315601175777477925
12011746 2 17774720866285464239
12326174 3 16229115582984036197
12423570 1 14741445572461335193
12553582 1 18113326527368642075
12633257 1 16343713157088414859
12714826 92 18337660928133427203
14817 1 7924486386721564741
16945 1 18044351877898008261
17804303 29 18272937145836705927
1813 80 18187920720189922856
19010151 120 18113910355105043020
200 152 17022906722682623706
20361792 2 17896020178952432071
20559304 39 17981887750915320939
20600515 1 18341625814508249325
20645477 70 17754730864947115887
21452121 71 18261689158858335012
21731516 1 17749653169503671571
22112679 90 18189358812743296709
23175994 123 17418098680784706626
23402539 116 17385726864046059366
23419403 2 18200010932885546069
23559900 14 18271803489403341642
23598288 3 17315063355978040689
34934 24 17096366125031298685
568465 68 16774085067799907566
7364860 26 18049162464760964453

>  <PUBCHEM_SHAPE_MULTIPOLES>  (1) 
378.15
6.19
2.6
1.73
2.63
1.19
0.63
-5.44
-0.83
-0.95
-0.66
1.1
0.68
-0.08

>  <PUBCHEM_SHAPE_SELFOVERLAP>  (1) 
803.277

>  <PUBCHEM_SHAPE_VOLUME>  (1) 
208.1

>  <PUBCHEM_COORDINATE_TYPE>  (1) 
2
5
10

$$$$
