39081
     RDKit          3D

 15 16  0  0  1  0  0  0  0  0999 V2000
   -1.8745   -1.3087    0.4119 O   0  0  0  0  0  0  0  0  0  0  0  0
   -0.1603   -2.2922   -0.7458 O   0  0  0  0  0  0  0  0  0  0  0  0
   -3.6758   -0.0876   -1.0015 O   0  0  0  0  0  0  0  0  0  0  0  0
   -3.6696    1.8155    0.2918 N   0  0  0  0  0  0  0  0  0  0  0  0
   -0.1304    0.1026   -0.2934 C   0  0  0  0  0  0  0  0  0  0  0  0
   -0.9058    0.7867    0.8218 C   0  0  0  0  0  0  0  0  0  0  0  0
   -2.1968    0.0035    0.8707 C   0  0  0  0  0  0  0  0  0  0  0  0
    1.3669    0.1994   -0.1472 C   0  0  0  0  0  0  0  0  0  0  0  0
   -0.6729   -1.3027   -0.2452 C   0  0  0  0  0  0  0  0  0  0  0  0
   -3.2506    0.5489   -0.0404 C   0  0  0  0  0  0  0  0  0  0  0  0
    2.0663    1.2411   -0.7616 C   0  0  0  0  0  0  0  0  0  0  0  0
    2.0620   -0.7525    0.6032 C   0  0  0  0  0  0  0  0  0  0  0  0
    3.4518    1.3305   -0.6265 C   0  0  0  0  0  0  0  0  0  0  0  0
    3.4473   -0.6629    0.7385 C   0  0  0  0  0  0  0  0  0  0  0  0
    4.1423    0.3786    0.1238 C   0  0  0  0  0  0  0  0  0  0  0  0
  1  7  1  0
  1  9  1  0
  2  9  2  0
  3 10  2  0
  4 10  1  0
  5  6  1  0
  5  8  1  0
  5  9  1  0
  6  7  1  0
  7 10  1  0
  8 11  2  0
  8 12  1  0
 11 13  1  0
 12 14  2  0
 13 15  2  0
 14 15  1  0
M  END
>  <PUBCHEM_COMPOUND_CID>  (1) 
39081

>  <PUBCHEM_CONFORMER_RMSD>  (1) 
0.6

>  <PUBCHEM_CONFORMER_DIVERSEORDER>  (1) 
1
31
33
35
28
18
30
5
19
22
32
34
36
12
27
10
14
6
25
29
7
4
11
21
2
23
26
13
15
24
20
16
8
9
3
17

>  <PUBCHEM_MMFF94_PARTIAL_CHARGES>  (1) 
21
1 -0.43
10 0.57
11 -0.15
12 -0.15
13 -0.15
14 -0.15
15 -0.15
2 -0.57
20 0.15
21 0.15
22 0.15
23 0.15
24 0.15
25 0.37
26 0.37
3 -0.57
4 -0.8
5 0.2
7 0.34
8 -0.14
9 0.66

>  <PUBCHEM_EFFECTIVE_ROTOR_COUNT>  (1) 
2.8

>  <PUBCHEM_PHARMACOPHORE_FEATURES>  (1) 
5
1 2 acceptor
1 3 acceptor
1 4 donor
5 1 5 6 7 9 rings
6 8 11 12 13 14 15 rings

>  <PUBCHEM_HEAVY_ATOM_COUNT>  (1) 
15

>  <PUBCHEM_ATOM_DEF_STEREO_COUNT>  (1) 
0

>  <PUBCHEM_ATOM_UDEF_STEREO_COUNT>  (1) 
2

>  <PUBCHEM_BOND_DEF_STEREO_COUNT>  (1) 
0

>  <PUBCHEM_BOND_UDEF_STEREO_COUNT>  (1) 
0

>  <PUBCHEM_ISOTOPIC_ATOM_COUNT>  (1) 
0

>  <PUBCHEM_COMPONENT_COUNT>  (1) 
1

>  <PUBCHEM_CACTVS_TAUTO_COUNT>  (1) 
4

>  <PUBCHEM_CONFORMER_ID>  (1) 
000098A900000001

>  <PUBCHEM_MMFF94_ENERGY>  (1) 
32.7429

>  <PUBCHEM_FEATURE_SELFOVERLAP>  (1) 
25.371

>  <PUBCHEM_SHAPE_FINGERPRINT>  (1) 
10062212 137 18271232834094052963
10465860 228 18054800485383731321
10980938 120 18114179731343366952
11471102 20 17967527978674578276
11543360 7 14620785020363210360
12119455 92 18187917361741807965
12251169 10 18186524306057660224
124424 183 17530962471091227889
12500047 106 18272646887688453970
13214271 11 17458628985818865284
13380535 76 18411139117091073399
13538477 17 18340203106807759074
14144814 61 18409733971432443568
14897335 6 18410854386739804670
14993402 34 18412262848060264356
15309172 13 18412553106081623491
15669948 3 18199470042210769406
15775835 57 18334581269405531268
15852999 172 17560810930715318782
16945 1 18187370874187158842
18186145 218 17748829592065018144
19107657 47 17894624842456040553
19422 9 18114465660095831082
20233049 118 18272930518754870688
20279233 1 16702306775970216838
20281407 28 9727629484402659229
20281475 54 9511455615672978349
20361792 2 11242257410597815827
20645476 183 18336833094873170806
20645477 70 17968089794572400674
21524375 3 18409728448162510059
23402539 116 17918268732215886188
23463225 33 18335420136647949794
23559900 14 17775287162693518808
5104073 3 18114181968942552104
69090 78 18408598171377953311
74978 22 18269835479221365276
77492 1 18335136535730953914

>  <PUBCHEM_SHAPE_MULTIPOLES>  (1) 
286.1
7.06
1.64
0.93
0.29
0.31
-0.01
-2.39
-0.07
-0.26
0.24
-0.08
0.03
-0.65

>  <PUBCHEM_SHAPE_SELFOVERLAP>  (1) 
615.318

>  <PUBCHEM_SHAPE_VOLUME>  (1) 
158.2

>  <PUBCHEM_COORDINATE_TYPE>  (1) 
2
5
10

$$$$
