39083
     RDKit          3D

 19 20  0  0  1  0  0  0  0  0999 V2000
    0.5075   -1.8697   -0.1831 O   0  0  0  0  0  0  0  0  0  0  0  0
   -1.4616   -2.2763   -1.2801 O   0  0  0  0  0  0  0  0  0  0  0  0
    2.0334   -0.3574   -1.6872 O   0  0  0  0  0  0  0  0  0  0  0  0
    3.3160    0.3250    0.1273 N   0  0  0  0  0  0  0  0  0  0  0  0
   -0.9633   -0.0502   -0.4221 C   0  0  0  0  0  0  0  0  0  0  0  0
    0.0243    0.2497    0.6950 C   0  0  0  0  0  0  0  0  0  0  0  0
    1.1278   -0.7534    0.4540 C   0  0  0  0  0  0  0  0  0  0  0  0
   -0.7178   -1.5144   -0.6813 C   0  0  0  0  0  0  0  0  0  0  0  0
    2.1918   -0.2482   -0.4684 C   0  0  0  0  0  0  0  0  0  0  0  0
   -2.3921    0.2934   -0.0862 C   0  0  0  0  0  0  0  0  0  0  0  0
    4.4260    0.8566   -0.6532 C   0  0  0  0  0  0  0  0  0  0  0  0
    3.4623    0.4339    1.5765 C   0  0  0  0  0  0  0  0  0  0  0  0
   -2.9112    1.5455   -0.4253 C   0  0  0  0  0  0  0  0  0  0  0  0
   -3.2039   -0.6390    0.5648 C   0  0  0  0  0  0  0  0  0  0  0  0
    4.2141    2.3254   -0.9790 C   0  0  0  0  0  0  0  0  0  0  0  0
    4.1472   -0.7936    2.1529 C   0  0  0  0  0  0  0  0  0  0  0  0
   -4.2334    1.8634   -0.1149 C   0  0  0  0  0  0  0  0  0  0  0  0
   -4.5262   -0.3210    0.8751 C   0  0  0  0  0  0  0  0  0  0  0  0
   -5.0409    0.9302    0.5352 C   0  0  0  0  0  0  0  0  0  0  0  0
  1  7  1  0
  1  8  1  0
  2  8  2  0
  3  9  2  0
  4  9  1  0
  4 11  1  0
  4 12  1  0
  5  6  1  0
  5  8  1  0
  5 10  1  0
  6  7  1  0
  7  9  1  0
 10 13  2  0
 10 14  1  0
 11 15  1  0
 12 16  1  0
 13 17  1  0
 14 18  2  0
 17 19  2  0
 18 19  1  0
M  END
>  <PUBCHEM_COMPOUND_CID>  (1) 
39083

>  <PUBCHEM_CONFORMER_RMSD>  (1) 
0.8

>  <PUBCHEM_CONFORMER_DIVERSEORDER>  (1) 
1
38
48
9
22
15
31
29
36
8
34
49
35
51
16
53
30
47
40
20
45
25
27
11
26
19
18
17
54
24
44
23
37
14
55
50
12
41
13
52
32
42
43
28
5
46
6
33
3
21
4
7
39
10
2

>  <PUBCHEM_MMFF94_PARTIAL_CHARGES>  (1) 
21
1 -0.43
10 -0.14
11 0.3
12 0.3
13 -0.15
14 -0.15
17 -0.15
18 -0.15
19 -0.15
2 -0.57
28 0.15
29 0.15
3 -0.57
36 0.15
37 0.15
38 0.15
4 -0.66
5 0.2
7 0.34
8 0.66
9 0.57

>  <PUBCHEM_EFFECTIVE_ROTOR_COUNT>  (1) 
5.8

>  <PUBCHEM_PHARMACOPHORE_FEATURES>  (1) 
4
1 2 acceptor
1 3 acceptor
5 1 5 6 7 8 rings
6 10 13 14 17 18 19 rings

>  <PUBCHEM_HEAVY_ATOM_COUNT>  (1) 
19

>  <PUBCHEM_ATOM_DEF_STEREO_COUNT>  (1) 
0

>  <PUBCHEM_ATOM_UDEF_STEREO_COUNT>  (1) 
2

>  <PUBCHEM_BOND_DEF_STEREO_COUNT>  (1) 
0

>  <PUBCHEM_BOND_UDEF_STEREO_COUNT>  (1) 
0

>  <PUBCHEM_ISOTOPIC_ATOM_COUNT>  (1) 
0

>  <PUBCHEM_COMPONENT_COUNT>  (1) 
1

>  <PUBCHEM_CACTVS_TAUTO_COUNT>  (1) 
2

>  <PUBCHEM_CONFORMER_ID>  (1) 
000098AB00000001

>  <PUBCHEM_MMFF94_ENERGY>  (1) 
39.152

>  <PUBCHEM_FEATURE_SELFOVERLAP>  (1) 
20.298

>  <PUBCHEM_SHAPE_FINGERPRINT>  (1) 
10670039 82 18200608998945448340
11132069 177 18412266121315876207
11543360 7 13398619576310845665
11796584 16 9727363410862829936
12107183 9 17172910744349457520
12363563 72 11242256225308031243
12403259 118 18261381218267155577
12403814 3 18113892776025368669
12596602 18 17385445444735261897
12670546 56 17385719192807064377
12788726 201 17976535340822520458
12892183 10 17240485814095639192
12969540 114 17560795511845925357
13533116 47 17095239198626960681
13583140 156 17458610220816637813
13675066 3 18336816512099315282
14341114 328 17894916217648919057
15142526 21 17315927847370452188
15342816 4 8935003698338549744
15842332 3 18117538825471732154
1813 80 12396303638227422363
18186145 218 17060338530576426616
18222031 100 12757156766078242571
193927 3 11747224519691727609
19784866 240 11239736162164462276
19862831 5 12319740271329388068
200 152 9655579591009166325
204376 136 18343586235409199247
20645477 56 18130783481808544808
21065198 48 17676487241790395521
21250096 35 8502372213542783917
21756936 100 18043254746294134852
22079108 93 17386292106884236993
22620623 9 17130986645292110335
23227448 37 18198347453354706996
23402539 116 17917421021482545228
23557571 272 17702955866794486263
23559900 14 18046914779563300663
3060560 45 15913331282431876684
31174 14 14851612106558460526
314173 85 12685092562149020967
38570 142 17242479306983488452
4047638 21 17418091014310275018
474 4 17314799713969605988
4921388 177 15482382145079114069
5104073 3 17821736005186049313
633830 44 18260547818539112934
76465 3 7997673256975146185
7808743 9 18340209721004907388
960060 61 12031784764547719200

>  <PUBCHEM_SHAPE_MULTIPOLES>  (1) 
368.42
10.39
1.92
1.42
1.16
0.41
-0.26
4.77
-2.92
-0.2
0.55
-1.42
-0.45
-1.14

>  <PUBCHEM_SHAPE_SELFOVERLAP>  (1) 
769.883

>  <PUBCHEM_SHAPE_VOLUME>  (1) 
209.9

>  <PUBCHEM_COORDINATE_TYPE>  (1) 
2
5
10

$$$$
