39082
     RDKit          3D

 20 22  0  0  1  0  0  0  0  0999 V2000
   -0.0304    2.0777    0.5254 O   0  0  0  0  0  0  0  0  0  0  0  0
    5.1120   -1.6227    0.0654 O   0  0  0  0  0  0  0  0  0  0  0  0
    1.9188    1.9505   -1.0891 O   0  0  0  0  0  0  0  0  0  0  0  0
   -2.2596    2.5987    0.6187 O   0  0  0  0  0  0  0  0  0  0  0  0
    2.8047   -0.0498   -0.3114 N   0  0  0  0  0  0  0  0  0  0  0  0
    0.7546    0.8944    0.6856 C   0  0  0  0  0  0  0  0  0  0  0  0
   -0.1908   -0.2510    0.4146 C   0  0  0  0  0  0  0  0  0  0  0  0
   -1.5121    0.2976    0.9255 C   0  0  0  0  0  0  0  0  0  0  0  0
    1.8731    0.9861   -0.3213 C   0  0  0  0  0  0  0  0  0  0  0  0
   -1.3589    1.7748    0.6652 C   0  0  0  0  0  0  0  0  0  0  0  0
    2.7790   -1.2089    0.5871 C   0  0  0  0  0  0  0  0  0  0  0  0
    3.8459   -0.1079   -1.3372 C   0  0  0  0  0  0  0  0  0  0  0  0
   -2.7252   -0.3266    0.2850 C   0  0  0  0  0  0  0  0  0  0  0  0
    4.1740   -1.4816    1.1355 C   0  0  0  0  0  0  0  0  0  0  0  0
    5.1950   -0.4217   -0.7063 C   0  0  0  0  0  0  0  0  0  0  0  0
   -3.3475   -1.4257    0.8824 C   0  0  0  0  0  0  0  0  0  0  0  0
   -3.2329    0.1907   -0.9094 C   0  0  0  0  0  0  0  0  0  0  0  0
   -4.4701   -2.0035    0.2895 C   0  0  0  0  0  0  0  0  0  0  0  0
   -4.3555   -0.3870   -1.5024 C   0  0  0  0  0  0  0  0  0  0  0  0
   -4.9741   -1.4841   -0.9029 C   0  0  0  0  0  0  0  0  0  0  0  0
  1  6  1  0
  1 10  1  0
  2 14  1  0
  2 15  1  0
  3  9  2  0
  4 10  2  0
  5  9  1  0
  5 11  1  0
  5 12  1  0
  6  7  1  0
  6  9  1  0
  7  8  1  0
  8 10  1  0
  8 13  1  0
 11 14  1  0
 12 15  1  0
 13 16  2  0
 13 17  1  0
 16 18  1  0
 17 19  2  0
 18 20  2  0
 19 20  1  0
M  END
>  <PUBCHEM_COMPOUND_CID>  (1) 
39082

>  <PUBCHEM_CONFORMER_RMSD>  (1) 
0.8

>  <PUBCHEM_CONFORMER_DIVERSEORDER>  (1) 
1
7
20
21
29
9
16
23
36
27
38
3
39
4
31
40
18
37
5
8
30
17
6
15
12
28
35
22
34
24
26
33
14
19
25
32
11
10
2
13

>  <PUBCHEM_MMFF94_PARTIAL_CHARGES>  (1) 
24
1 -0.43
10 0.66
11 0.3
12 0.3
13 -0.14
14 0.28
15 0.28
16 -0.15
17 -0.15
18 -0.15
19 -0.15
2 -0.56
20 -0.15
3 -0.57
33 0.15
34 0.15
35 0.15
36 0.15
37 0.15
4 -0.57
5 -0.66
6 0.34
8 0.2
9 0.57

>  <PUBCHEM_EFFECTIVE_ROTOR_COUNT>  (1) 
5

>  <PUBCHEM_PHARMACOPHORE_FEATURES>  (1) 
6
1 2 acceptor
1 3 acceptor
1 4 acceptor
5 1 6 7 8 10 rings
6 13 16 17 18 19 20 rings
6 2 5 11 12 14 15 rings

>  <PUBCHEM_HEAVY_ATOM_COUNT>  (1) 
20

>  <PUBCHEM_ATOM_DEF_STEREO_COUNT>  (1) 
0

>  <PUBCHEM_ATOM_UDEF_STEREO_COUNT>  (1) 
2

>  <PUBCHEM_BOND_DEF_STEREO_COUNT>  (1) 
0

>  <PUBCHEM_BOND_UDEF_STEREO_COUNT>  (1) 
0

>  <PUBCHEM_ISOTOPIC_ATOM_COUNT>  (1) 
0

>  <PUBCHEM_COMPONENT_COUNT>  (1) 
1

>  <PUBCHEM_CACTVS_TAUTO_COUNT>  (1) 
2

>  <PUBCHEM_CONFORMER_ID>  (1) 
000098AA00000001

>  <PUBCHEM_MMFF94_ENERGY>  (1) 
45.9316

>  <PUBCHEM_FEATURE_SELFOVERLAP>  (1) 
30.448

>  <PUBCHEM_SHAPE_FINGERPRINT>  (1) 
10062212 137 18337958882952393905
10447042 23 18408598172027144198
11045977 3 14045743733276343422
11046707 91 18202566163542834705
11089746 13 13262677088703942598
11543360 7 16950566631270583423
11806522 49 18409452496824959056
12363563 72 18272656770107463187
12403259 118 11167942446290008403
12553582 1 18342746238390038939
12596602 18 13758354488073693943
12633257 1 15410606029811794366
12670546 177 17675923200757207358
12892183 10 12679194833702152173
13583140 156 13973690477413684907
13994607 96 12468357934384224743
14178342 30 16987737709085573657
1420 369 18060421326074147071
14251752 14 18335415730528572821
14251764 30 17751373978796146243
14251764 38 12181283230468238174
14576447 43 18334580144435388010
14848178 5 18411694362110666006
15183329 4 17531237327665851503
15188451 53 15769485539329815263
15209294 21 9511455619703987168
15880784 105 16845568746701201098
16752209 62 18339917130367790379
17349148 13 18410296895616216946
1798214 20 18335135397417135222
1813 80 17703799149310900213
18186145 218 17676201416338965497
18222031 100 17846495958633258854
193927 3 18273224100843370966
19784866 140 18334856134680761811
19862831 5 17676485042619317025
200 152 18409167714085074951
20374829 77 18343580750799174735
20626108 58 18408880707791912896
20645477 70 18340210811572886862
20671657 53 18408044034782209253
20739085 24 13183024034113637578
21065199 12 12463304617365641167
21250096 35 18412822499325931970
21713013 43 17968371368565311727
21756936 100 13623527922868439021
221357 26 17894904153307051463
22646028 28 18343305876707182539
23402539 116 18412547587222552429
23403322 49 18410855473430035443
23557571 272 17703514272509127208
23559900 14 18334849571406484353
25147074 1 18269011871739852105
3004659 81 18333445469456757007
312423 11 18271538570971994160
314173 85 17775287166323854499
32948 21 17604139372429952543
339767 52 18335973216935713314
351380 3 18272653471493959039
46194498 28 17096370712161690583
463206 1 18268422611254742079
465052 167 18129669745845716415
474 4 11891592642966271393
5104073 3 18202848759469327521
5281201 14 17676768777107521655
59682541 52 16226869104408309035
76465 3 18272649056145752495
7970288 3 18272932751737652687
960060 61 17458345234720750846

>  <PUBCHEM_SHAPE_MULTIPOLES>  (1) 
383.13
11.27
2.2
1.25
3.73
0.81
-0.24
-7.67
-3.12
-0.66
0.48
-0.17
-0.04
-0.78

>  <PUBCHEM_SHAPE_SELFOVERLAP>  (1) 
819.274

>  <PUBCHEM_SHAPE_VOLUME>  (1) 
211.6

>  <PUBCHEM_COORDINATE_TYPE>  (1) 
2
5
10

$$$$
