39087
     RDKit          3D

 15 15  0  0  0  0  0  0  0  0999 V2000
    1.3729   -0.5945   -0.6485 O   0  0  0  0  0  0  0  0  0  0  0  0
   -4.8488   -0.7477    0.5902 O   0  0  0  0  0  0  0  0  0  0  0  0
    3.8757   -1.2249    0.0659 O   0  0  0  0  0  0  0  0  0  0  0  0
    4.5724    0.9346    0.3336 N   0  0  0  0  0  0  0  0  0  0  0  0
    5.8600    0.5960    0.6970 N   0  0  0  0  0  0  0  0  0  0  0  0
   -2.6781   -0.0073    0.0393 C   0  0  0  0  0  0  0  0  0  0  0  0
    0.0448   -0.4020   -0.4222 C   0  0  0  0  0  0  0  0  0  0  0  0
   -1.8658    1.0724   -0.3070 C   0  0  0  0  0  0  0  0  0  0  0  0
   -2.1290   -1.2844    0.1550 C   0  0  0  0  0  0  0  0  0  0  0  0
   -0.5045    0.8751   -0.5378 C   0  0  0  0  0  0  0  0  0  0  0  0
   -0.7676   -1.4818   -0.0757 C   0  0  0  0  0  0  0  0  0  0  0  0
    2.2466    0.4942   -0.3532 C   0  0  0  0  0  0  0  0  0  0  0  0
   -4.0976    0.1982    0.2796 C   0  0  0  0  0  0  0  0  0  0  0  0
   -4.7046    1.5914    0.1547 C   0  0  0  0  0  0  0  0  0  0  0  0
    3.6236   -0.0192    0.0292 C   0  0  0  0  0  0  0  0  0  0  0  0
  1  7  1  0
  1 12  1  0
  2 13  2  0
  3 15  2  0
  4  5  1  0
  4 15  1  0
  6  8  2  0
  6  9  1  0
  6 13  1  0
  7 10  2  0
  7 11  1  0
  8 10  1  0
  9 11  2  0
 12 15  1  0
 13 14  1  0
M  END
>  <PUBCHEM_COMPOUND_CID>  (1) 
39087

>  <PUBCHEM_CONFORMER_RMSD>  (1) 
0.6

>  <PUBCHEM_CONFORMER_DIVERSEORDER>  (1) 
1
31
15
28
64
11
67
3
49
69
26
18
45
58
32
70
7
74
57
47
42
5
65
21
2
54
68
22
41
25
55
53
10
14
56
76
60
20
51
38
16
52
71
35
27
13
33
61
44
6
72
50
19
4
9
59
62
66
63
46
34
75
12
29
73
17
40
39
36
8
43
30
23
24
48
37

>  <PUBCHEM_MMFF94_PARTIAL_CHARGES>  (1) 
22
1 -0.36
10 -0.15
11 -0.15
12 0.34
13 0.42
14 0.06
15 0.57
16 0.15
17 0.15
18 0.15
19 0.15
2 -0.57
25 0.37
26 0.36
27 0.36
3 -0.57
4 -0.42
5 -0.73
6 0.09
7 0.08
8 -0.15
9 -0.15

>  <PUBCHEM_EFFECTIVE_ROTOR_COUNT>  (1) 
5

>  <PUBCHEM_PHARMACOPHORE_FEATURES>  (1) 
6
1 1 acceptor
1 2 acceptor
1 3 acceptor
1 4 donor
1 5 donor
6 6 7 8 9 10 11 rings

>  <PUBCHEM_HEAVY_ATOM_COUNT>  (1) 
15

>  <PUBCHEM_ATOM_DEF_STEREO_COUNT>  (1) 
0

>  <PUBCHEM_ATOM_UDEF_STEREO_COUNT>  (1) 
0

>  <PUBCHEM_BOND_DEF_STEREO_COUNT>  (1) 
0

>  <PUBCHEM_BOND_UDEF_STEREO_COUNT>  (1) 
0

>  <PUBCHEM_ISOTOPIC_ATOM_COUNT>  (1) 
0

>  <PUBCHEM_COMPONENT_COUNT>  (1) 
1

>  <PUBCHEM_CACTVS_TAUTO_COUNT>  (1) 
4

>  <PUBCHEM_CONFORMER_ID>  (1) 
000098AF00000001

>  <PUBCHEM_MMFF94_ENERGY>  (1) 
43.3285

>  <PUBCHEM_FEATURE_SELFOVERLAP>  (1) 
31.966

>  <PUBCHEM_SHAPE_FINGERPRINT>  (1) 
11132069 177 18409737248576769661
11401426 45 18408885127381728333
117890 112 18201720621990180353
12119455 92 17632294545223354967
12251169 10 18334858342077596060
12670543 26 9655307994942436067
13214271 11 18413388744115115111
13675066 3 18259991469871083343
14911166 2 10159697980337473567
14943859 89 17917710193093443231
15048467 5 16343710911262929601
15501527 24 11527943469846100840
17834076 25 15051736395193298767
1813 80 16370728093753663470
18522853 276 18412827979815094768
187816 3 11959730473455400573
19050596 39 18187364380787295076
20374829 77 8790888466870097364
20510252 161 18341895134580111265
20645477 56 18342173379952054532
20645477 70 16845303692027652270
20871999 31 11023831647791788603
21637258 2 14779554538706963777
22854114 59 18272652346291193796
23402539 116 18341324548522614173
23559900 14 18268452164818679078
26918003 58 16950282926984222249
2916195 48 18201995547036178808
3545911 37 18413390939033287676
42 15 18040718047845091798
42788 4 18341895194883343208
449060 50 18060143141036779039
5104073 3 18336551508195552163
69090 78 18342174470794951367

>  <PUBCHEM_SHAPE_MULTIPOLES>  (1) 
281.12
11.08
1.42
0.72
8.49
0.09
0.01
-2.8
-3.14
-0.74
-0.02
0.07
-0.03
0.32

>  <PUBCHEM_SHAPE_SELFOVERLAP>  (1) 
578.429

>  <PUBCHEM_SHAPE_VOLUME>  (1) 
161.2

>  <PUBCHEM_COORDINATE_TYPE>  (1) 
2
5
10

$$$$
