39086
     RDKit          3D

 19 20  0  0  0  0  0  0  0  0999 V2000
    0.2085   -1.0896   -0.5858 O   0  0  0  0  0  0  0  0  0  0  0  0
   -2.1841   -1.9996    0.2474 O   0  0  0  0  0  0  0  0  0  0  0  0
    6.3871   -0.1271    0.6568 O   0  0  0  0  0  0  0  0  0  0  0  0
   -3.1199    0.1300    0.2078 N   0  0  0  0  0  0  0  0  0  0  0  0
   -4.4466   -0.2331    0.6409 C   0  0  0  0  0  0  0  0  0  0  0  0
   -5.3682   -0.5081   -0.5404 C   0  0  0  0  0  0  0  0  0  0  0  0
   -5.1465    0.9173    1.3547 C   0  0  0  0  0  0  0  0  0  0  0  0
   -5.8357    0.8729   -0.9918 C   0  0  0  0  0  0  0  0  0  0  0  0
   -5.7331    1.7774    0.2365 C   0  0  0  0  0  0  0  0  0  0  0  0
   -2.0948   -0.7912    0.0470 C   0  0  0  0  0  0  0  0  0  0  0  0
   -0.8140   -0.1309   -0.4169 C   0  0  0  0  0  0  0  0  0  0  0  0
    1.5019   -0.6706   -0.3806 C   0  0  0  0  0  0  0  0  0  0  0  0
    1.8425    0.6494   -0.6413 C   0  0  0  0  0  0  0  0  0  0  0  0
    2.4477   -1.5748    0.0823 C   0  0  0  0  0  0  0  0  0  0  0  0
    4.1140    0.1739    0.0302 C   0  0  0  0  0  0  0  0  0  0  0  0
    3.1551    1.0738   -0.4348 C   0  0  0  0  0  0  0  0  0  0  0  0
    3.7603   -1.1504    0.2888 C   0  0  0  0  0  0  0  0  0  0  0  0
    5.4826    0.6170    0.2446 C   0  0  0  0  0  0  0  0  0  0  0  0
    5.8430    2.0639   -0.0452 C   0  0  0  0  0  0  0  0  0  0  0  0
  1 11  1  0
  1 12  1  0
  2 10  2  0
  3 18  2  0
  4  5  1  0
  4 10  1  0
  5  6  1  0
  5  7  1  0
  6  8  1  0
  7  9  1  0
  8  9  1  0
 10 11  1  0
 12 13  2  0
 12 14  1  0
 13 16  1  0
 14 17  2  0
 15 16  2  0
 15 17  1  0
 15 18  1  0
 18 19  1  0
M  END
>  <PUBCHEM_COMPOUND_CID>  (1) 
39086

>  <PUBCHEM_CONFORMER_RMSD>  (1) 
0.8

>  <PUBCHEM_CONFORMER_DIVERSEORDER>  (1) 
1
120
32
11
28
72
58
122
35
68
111
66
88
124
13
73
100
52
31
43
18
74
109
46
81
33
115
41
79
96
49
30
99
102
10
42
121
40
114
3
116
77
94
26
44
118
90
22
59
17
97
71
125
54
110
112
78
16
106
75
47
29
91
53
48
27
123
12
101
83
108
76
69
2
67
64
119
62
84
45
25
63
93
113
50
20
70
117
9
14
37
19
60
55
104
92
95
51
98
38
85
103
23
56
21
34
24
86
39
107
89
8
80
4
57
6
36
65
105
82
15
5
61
7
87

>  <PUBCHEM_MMFF94_PARTIAL_CHARGES>  (1) 
20
1 -0.36
10 0.57
11 0.34
12 0.08
13 -0.15
14 -0.15
15 0.09
16 -0.15
17 -0.15
18 0.42
19 0.06
2 -0.57
29 0.37
3 -0.57
32 0.15
33 0.15
34 0.15
35 0.15
4 -0.73
5 0.3

>  <PUBCHEM_EFFECTIVE_ROTOR_COUNT>  (1) 
7

>  <PUBCHEM_PHARMACOPHORE_FEATURES>  (1) 
6
1 1 acceptor
1 2 acceptor
1 3 acceptor
1 4 donor
5 5 6 7 8 9 rings
6 12 13 14 15 16 17 rings

>  <PUBCHEM_HEAVY_ATOM_COUNT>  (1) 
19

>  <PUBCHEM_ATOM_DEF_STEREO_COUNT>  (1) 
0

>  <PUBCHEM_ATOM_UDEF_STEREO_COUNT>  (1) 
0

>  <PUBCHEM_BOND_DEF_STEREO_COUNT>  (1) 
0

>  <PUBCHEM_BOND_UDEF_STEREO_COUNT>  (1) 
0

>  <PUBCHEM_ISOTOPIC_ATOM_COUNT>  (1) 
0

>  <PUBCHEM_COMPONENT_COUNT>  (1) 
1

>  <PUBCHEM_CACTVS_TAUTO_COUNT>  (1) 
4

>  <PUBCHEM_CONFORMER_ID>  (1) 
000098AE00000001

>  <PUBCHEM_MMFF94_ENERGY>  (1) 
47.4589

>  <PUBCHEM_FEATURE_SELFOVERLAP>  (1) 
30.454

>  <PUBCHEM_SHAPE_FINGERPRINT>  (1) 
10 15 17968099749931857880
10299344 5 8286198370867373037
10354089 29 18335143098530600954
11089746 13 17989201564386535488
11524674 6 14779550093373829289
117890 112 18411700971859196921
12236239 1 18273213101479572630
12596602 18 18040999544254396289
12616971 3 15864355791408600734
13073987 5 18408327662202115195
13167372 99 18412263904844005664
13288520 33 8502653706258279427
13533116 47 17988642931107770914
13631057 29 18130499860335429159
13675066 3 17313393314085501503
13785724 45 17836084468815311322
14123256 34 8070026696285556432
1420 363 11167941376784681285
14251718 22 12679463088215708952
14251764 18 18334579062166712101
14350574 20 10303812089991656646
14528608 73 17489864947037901185
14576447 43 10015589389515981316
14863182 85 14201393855617213474
15048467 5 18412825798182510144
15142383 8 16588296164274965236
15188451 53 15936985149294931363
15348495 7 16660655097540033049
15475509 35 15792554302961880560
17093844 174 12901541365163793215
17780758 139 13190341262721928301
19489759 90 17989487424930874867
20157964 124 18340486673560267127
20281389 69 18334575758656736749
21150785 3 15841544197944528029
21521721 280 12685103592252726388
221357 26 10735881655542321394
23081809 10 17060338475127213871
23402539 116 18412539908232458133
23402655 69 18201999936508527503
23559900 14 18200602397126962574
26918003 58 17458065979814506955
2767999 5 18131630080023998025
2838139 119 18201997733317119425
2916195 48 18333731325521389505
300161 21 18411696595124154438
33382 64 13912591737714356296
351380 3 7925912564972024497
3545911 37 18410858767385082422
4073 2 18040721415131575194
465052 167 10881399825108616720
5104073 3 18115302414541271210
542803 24 17846499227235200791
59682541 52 16773531975297435356
59755656 215 18410860919759875022
999808 66 11383820620229643237

>  <PUBCHEM_SHAPE_MULTIPOLES>  (1) 
368.42
17.57
1.71
0.89
3
0.14
-0.06
7.97
-1.92
-0.49
-0.05
0.83
0.13
-0.37

>  <PUBCHEM_SHAPE_SELFOVERLAP>  (1) 
766.472

>  <PUBCHEM_SHAPE_VOLUME>  (1) 
210.9

>  <PUBCHEM_COORDINATE_TYPE>  (1) 
2
5
10

$$$$
