39098
     RDKit          3D

 27 29  0  0  0  0  0  0  0  0999 V2000
   -0.7612    0.7332   -1.3390 O   0  0  0  0  0  0  0  0  0  0  0  0
    1.1408    0.4908    0.4380 O   0  0  0  0  0  0  0  0  0  0  0  0
   -0.4576    1.4259    1.8016 O   0  0  0  0  0  0  0  0  0  0  0  0
   -1.4104    2.7233   -0.3619 O   0  0  0  0  0  0  0  0  0  0  0  0
    4.0192    1.5510   -0.2420 N   0  0  0  0  0  0  0  0  0  0  0  0
   -1.1316    0.0263   -0.1210 C   0  0  0  0  0  0  0  0  0  0  0  0
   -0.7509   -1.4607   -0.2938 C   0  0  0  0  0  0  0  0  0  0  0  0
   -2.5768    0.2053    0.2021 C   0  0  0  0  0  0  0  0  0  0  0  0
   -0.1467    0.7437    0.8324 C   0  0  0  0  0  0  0  0  0  0  0  0
   -0.3378   -2.1531    0.8126 C   0  0  0  0  0  0  0  0  0  0  0  0
   -3.5072    0.3605   -0.8253 C   0  0  0  0  0  0  0  0  0  0  0  0
   -0.8468   -2.0091   -1.5447 C   0  0  0  0  0  0  0  0  0  0  0  0
   -2.9977    0.2171    1.5319 C   0  0  0  0  0  0  0  0  0  0  0  0
    0.0060   -3.4958    0.6563 C   0  0  0  0  0  0  0  0  0  0  0  0
   -4.8586    0.5278   -0.5230 C   0  0  0  0  0  0  0  0  0  0  0  0
   -0.5031   -3.3519   -1.7009 C   0  0  0  0  0  0  0  0  0  0  0  0
   -4.3490    0.3843    1.8342 C   0  0  0  0  0  0  0  0  0  0  0  0
   -0.0767   -4.0953   -0.6005 C   0  0  0  0  0  0  0  0  0  0  0  0
   -5.2796    0.5398    0.8068 C   0  0  0  0  0  0  0  0  0  0  0  0
    2.1642    1.0844    1.2431 C   0  0  0  0  0  0  0  0  0  0  0  0
   -0.9623    2.0703   -1.2946 C   0  0  0  0  0  0  0  0  0  0  0  0
    3.5055    0.7139    0.6818 C   0  0  0  0  0  0  0  0  0  0  0  0
   -0.5395    2.6605   -2.6057 C   0  0  0  0  0  0  0  0  0  0  0  0
    4.1259   -0.4363    1.1304 C   0  0  0  0  0  0  0  0  0  0  0  0
    5.3679   -0.7513    0.5905 C   0  0  0  0  0  0  0  0  0  0  0  0
    5.2278    1.2122   -0.7442 C   0  0  0  0  0  0  0  0  0  0  0  0
    5.9363    0.0835   -0.3652 C   0  0  0  0  0  0  0  0  0  0  0  0
  1  6  1  0
  1 21  1  0
  2  9  1  0
  2 20  1  0
  3  9  2  0
  4 21  2  0
  5 22  2  0
  5 26  1  0
  6  7  1  0
  6  8  1  0
  6  9  1  0
  7 10  2  0
  7 12  1  0
  8 11  2  0
  8 13  1  0
 10 14  1  0
 11 15  1  0
 12 16  2  0
 13 17  2  0
 14 18  2  0
 15 19  2  0
 16 18  1  0
 17 19  1  0
 20 22  1  0
 21 23  1  0
 22 24  1  0
 24 25  2  0
 25 27  1  0
 26 27  2  0
M  END
>  <PUBCHEM_COMPOUND_CID>  (1) 
39098

>  <PUBCHEM_CONFORMER_RMSD>  (1) 
1

>  <PUBCHEM_CONFORMER_DIVERSEORDER>  (1) 
1
40
45
21
30
52
26
18
16
22
54
46
58
51
14
35
43
36
27
57
24
34
10
33
48
39
38
13
17
20
9
53
8
15
50
31
55
44
47
11
25
56
2
4
29
41
23
6
7
5
12
59
49
42
19
28
3
37
32

>  <PUBCHEM_MMFF94_PARTIAL_CHARGES>  (1) 
41
1 -0.43
10 -0.15
11 -0.15
12 -0.15
13 -0.15
14 -0.15
15 -0.15
16 -0.15
17 -0.15
18 -0.15
19 -0.15
2 -0.43
20 0.42
21 0.66
22 0.17
23 0.06
24 -0.15
25 -0.15
26 0.16
27 -0.15
28 0.15
29 0.15
3 -0.57
30 0.15
31 0.15
32 0.15
33 0.15
34 0.15
35 0.15
36 0.15
37 0.15
4 -0.57
43 0.15
44 0.15
45 0.15
46 0.15
5 -0.62
6 0.63
7 -0.14
8 -0.14
9 0.66

>  <PUBCHEM_EFFECTIVE_ROTOR_COUNT>  (1) 
8

>  <PUBCHEM_PHARMACOPHORE_FEATURES>  (1) 
6
1 3 acceptor
1 4 acceptor
1 5 acceptor
6 5 22 24 25 26 27 rings
6 7 10 12 14 16 18 rings
6 8 11 13 15 17 19 rings

>  <PUBCHEM_HEAVY_ATOM_COUNT>  (1) 
27

>  <PUBCHEM_ATOM_DEF_STEREO_COUNT>  (1) 
0

>  <PUBCHEM_ATOM_UDEF_STEREO_COUNT>  (1) 
0

>  <PUBCHEM_BOND_DEF_STEREO_COUNT>  (1) 
0

>  <PUBCHEM_BOND_UDEF_STEREO_COUNT>  (1) 
0

>  <PUBCHEM_ISOTOPIC_ATOM_COUNT>  (1) 
0

>  <PUBCHEM_COMPONENT_COUNT>  (1) 
1

>  <PUBCHEM_CACTVS_TAUTO_COUNT>  (1) 
1

>  <PUBCHEM_CONFORMER_ID>  (1) 
000098BA00000001

>  <PUBCHEM_MMFF94_ENERGY>  (1) 
85.0957

>  <PUBCHEM_FEATURE_SELFOVERLAP>  (1) 
30.455

>  <PUBCHEM_SHAPE_FINGERPRINT>  (1) 
107951 10 18260271875718176314
11036077 3 18272939310109846051
11115154 58 17051305158435751879
11488393 25 18052257297656413427
11578080 2 17979082583136420885
12058002 1 17827963617470683289
12403814 3 18260260858825673292
12422481 6 18117004277657011041
12592029 89 18335979753590958698
12633257 1 18272931644078363412
13135754 10 17826243070388128914
14790565 3 18342461408775150248
14840074 17 18333735718887895981
14866123 147 18271803596261462375
14955137 171 18188219809366032897
15420108 30 17988079981512669047
15775530 1 17685208379270324117
15849732 13 18188493587565806629
17980427 23 13334744492468338175
19319366 153 18040712580958574626
19930381 70 17343799092423072094
21033648 29 18339063956600547112
23419403 2 17905893570179079253
23559900 14 17917142927352277568
3298306 158 18266449919837474734
3383291 50 18129664068115871822
3411729 13 18198634224674491835
3729539 64 18127704733920320830
404807 14 13609231965167924348
469060 322 13552032321001236898
5080951 261 17699813415950833598
58260988 521 18335719242492226547
81228 2 17833522954044439834

>  <PUBCHEM_SHAPE_MULTIPOLES>  (1) 
527.19
10.09
3.6
1.83
10.05
4.04
0.45
-4.07
-2.4
-0.34
1.82
-0.92
-0.53
-0.31

>  <PUBCHEM_SHAPE_SELFOVERLAP>  (1) 
1151.444

>  <PUBCHEM_SHAPE_VOLUME>  (1) 
280.6

>  <PUBCHEM_COORDINATE_TYPE>  (1) 
2
5
10

$$$$
