39094
     RDKit          3D

 23 25  0  0  0  0  0  0  0  0999 V2000
    1.0785   -0.7258   -0.0970 O   0  0  0  0  0  0  0  0  0  0  0  0
   -0.5035   -1.9280   -1.2594 O   0  0  0  0  0  0  0  0  0  0  0  0
    3.9779   -1.5826    0.7587 N   0  0  0  0  0  0  0  0  0  0  0  0
   -1.1869   -0.2519    0.4126 C   0  0  0  0  0  0  0  0  0  0  0  0
   -1.0620    1.2269    0.2639 C   0  0  0  0  0  0  0  0  0  0  0  0
   -2.6288   -0.7535    0.2476 C   0  0  0  0  0  0  0  0  0  0  0  0
   -0.2009   -1.0744   -0.4350 C   0  0  0  0  0  0  0  0  0  0  0  0
   -1.3838    2.0649    1.3316 C   0  0  0  0  0  0  0  0  0  0  0  0
   -3.4013   -0.2058   -0.7472 C   0  0  0  0  0  0  0  0  0  0  0  0
   -0.6229    1.7721   -0.9428 C   0  0  0  0  0  0  0  0  0  0  0  0
   -3.0832   -1.7285    1.1015 C   0  0  0  0  0  0  0  0  0  0  0  0
   -1.2669    3.4479    1.1927 C   0  0  0  0  0  0  0  0  0  0  0  0
   -4.7110   -0.6615   -0.8973 C   0  0  0  0  0  0  0  0  0  0  0  0
   -0.5059    3.1550   -1.0815 C   0  0  0  0  0  0  0  0  0  0  0  0
   -4.3931   -2.1843    0.9511 C   0  0  0  0  0  0  0  0  0  0  0  0
    2.1151   -1.4362   -0.7817 C   0  0  0  0  0  0  0  0  0  0  0  0
   -0.8280    3.9930   -0.0137 C   0  0  0  0  0  0  0  0  0  0  0  0
   -5.2069   -1.6507   -0.0483 C   0  0  0  0  0  0  0  0  0  0  0  0
    3.4478   -0.9408   -0.3020 C   0  0  0  0  0  0  0  0  0  0  0  0
    4.0444    0.1197   -0.9567 C   0  0  0  0  0  0  0  0  0  0  0  0
    5.2790    0.5545   -0.4876 C   0  0  0  0  0  0  0  0  0  0  0  0
    5.1786   -1.1320    1.1865 C   0  0  0  0  0  0  0  0  0  0  0  0
    5.8637   -0.0780    0.6041 C   0  0  0  0  0  0  0  0  0  0  0  0
  1  7  1  0
  1 16  1  0
  2  7  2  0
  3 19  2  0
  3 22  1  0
  4  5  1  0
  4  6  1  0
  4  7  1  0
  5  8  2  0
  5 10  1  0
  6  9  2  0
  6 11  1  0
  8 12  1  0
  9 13  1  0
 10 14  2  0
 11 15  2  0
 12 17  2  0
 13 18  2  0
 14 17  1  0
 15 18  1  0
 16 19  1  0
 19 20  1  0
 20 21  2  0
 21 23  1  0
 22 23  2  0
M  END
>  <PUBCHEM_COMPOUND_CID>  (1) 
39094

>  <PUBCHEM_CONFORMER_RMSD>  (1) 
0.8

>  <PUBCHEM_CONFORMER_DIVERSEORDER>  (1) 
1
32
73
36
21
116
85
53
82
49
65
2
47
24
10
76
91
44
122
93
75
62
115
39
81
78
41
51
28
121
80
27
55
89
106
46
56
13
22
12
117
43
118
83
54
99
40
100
67
52
29
8
3
104
42
95
112
87
34
69
35
79
4
48
102
84
50
18
109
68
15
9
111
97
59
98
124
70
38
113
20
92
110
105
17
94
11
7
96
5
120
37
14
31
6
66
90
19
125
86
103
63
101
23
74
30
60
58
107
123
45
64
119
72
57
25
108
88
61
77
33
71
114
16
26

>  <PUBCHEM_MMFF94_PARTIAL_CHARGES>  (1) 
37
1 -0.43
10 -0.15
11 -0.15
12 -0.15
13 -0.15
14 -0.15
15 -0.15
16 0.42
17 -0.15
18 -0.15
19 0.17
2 -0.57
20 -0.15
21 -0.15
22 0.16
23 -0.15
25 0.15
26 0.15
27 0.15
28 0.15
29 0.15
3 -0.62
30 0.15
31 0.15
32 0.15
35 0.15
36 0.15
37 0.15
38 0.15
39 0.15
4 0.35
40 0.15
5 -0.14
6 -0.14
7 0.66
8 -0.15
9 -0.15

>  <PUBCHEM_EFFECTIVE_ROTOR_COUNT>  (1) 
6

>  <PUBCHEM_PHARMACOPHORE_FEATURES>  (1) 
5
1 2 acceptor
1 3 acceptor
6 3 19 20 21 22 23 rings
6 5 8 10 12 14 17 rings
6 6 9 11 13 15 18 rings

>  <PUBCHEM_HEAVY_ATOM_COUNT>  (1) 
23

>  <PUBCHEM_ATOM_DEF_STEREO_COUNT>  (1) 
0

>  <PUBCHEM_ATOM_UDEF_STEREO_COUNT>  (1) 
0

>  <PUBCHEM_BOND_DEF_STEREO_COUNT>  (1) 
0

>  <PUBCHEM_BOND_UDEF_STEREO_COUNT>  (1) 
0

>  <PUBCHEM_ISOTOPIC_ATOM_COUNT>  (1) 
0

>  <PUBCHEM_COMPONENT_COUNT>  (1) 
1

>  <PUBCHEM_CACTVS_TAUTO_COUNT>  (1) 
1

>  <PUBCHEM_CONFORMER_ID>  (1) 
000098B600000001

>  <PUBCHEM_MMFF94_ENERGY>  (1) 
64.5298

>  <PUBCHEM_FEATURE_SELFOVERLAP>  (1) 
25.373

>  <PUBCHEM_SHAPE_FINGERPRINT>  (1) 
10366900 7 18261684731279952066
10369192 42 16702303490668661236
10670039 82 18339942441580640060
10906281 52 18269288893515270053
10930396 42 18051938628679073746
11036077 3 8718553830435775069
11045515 52 18114180856451024405
11265709 11 18410865386198684993
11578080 2 14833914281846650089
11582403 64 15507709124689442469
11595378 159 18338785750663076354
12107183 9 17469312640164988226
12166972 35 17676210208073490038
12403814 3 18272646840080044222
12516196 113 18411138077967613099
12596602 18 17821721754921910626
12788726 201 18408042896821364130
13004483 165 18410288120728719991
13140716 1 18126279977114021134
13257819 101 13757530872665734747
13533116 47 17894623730772031810
13782708 43 17703242715435180870
13911987 19 18410014376825505519
14142880 1 18269556031295554285
14840074 17 17988083408247621308
14955137 171 18127419062496395219
15849732 13 17561364007182413871
15927050 60 17332252399185675068
167882 2 17976541933686568461
16992727 255 18043799898062039669
17492 89 18264767658684441970
17980427 23 17846232063738438737
1813 80 18130522910796366815
200 152 17821444668647863178
20600515 1 18270418173266209323
21049683 271 18117004497116821397
21304303 282 17683781247616519133
23402539 116 18411133636781447111
23419403 2 18268408270242630117
23557571 272 18270132218306059766
23558518 356 18047195146143036987
23559900 14 17895190055878325906
283562 15 18338516344048543107
312423 11 18189065226660262254
3886686 26 17398933995734798834
404807 14 15797882376420581066
469060 322 18340218422460722736
5104073 3 18268986489374228578
5283173 99 17895464852413045917
58260988 521 10303529597777694981
6004065 56 18269549598004406679
621550 34 17846786178496090286
6913067 236 18059562590576839310
7399639 24 18060140908160655422
81228 2 18123209917426495979

>  <PUBCHEM_SHAPE_MULTIPOLES>  (1) 
456.61
11.37
3.71
1.26
11.58
4.9
0.1
-8.09
1.25
-2.77
0.49
-0.07
0.15
-0.28

>  <PUBCHEM_SHAPE_SELFOVERLAP>  (1) 
990.967

>  <PUBCHEM_SHAPE_VOLUME>  (1) 
246.8

>  <PUBCHEM_COORDINATE_TYPE>  (1) 
2
5
10

$$$$
