39092
     RDKit          3D

 19 20  0  0  1  0  0  0  0  0999 V2000
   -0.9189   -0.1706    0.0504 O   0  0  0  0  0  0  0  0  0  0  0  0
    0.7388   -1.4279    1.0386 O   0  0  0  0  0  0  0  0  0  0  0  0
   -3.8097   -1.0406   -0.8218 N   0  0  0  0  0  0  0  0  0  0  0  0
    1.3122    0.4446   -0.4272 C   0  0  0  0  0  0  0  0  0  0  0  0
    1.0003    1.9031   -0.0353 C   0  0  0  0  0  0  0  0  0  0  0  0
    2.7697    0.0541   -0.2344 C   0  0  0  0  0  0  0  0  0  0  0  0
    0.3798   -0.5052    0.3187 C   0  0  0  0  0  0  0  0  0  0  0  0
    1.8010    2.9202   -0.8390 C   0  0  0  0  0  0  0  0  0  0  0  0
    3.4698    0.5903    0.8276 C   0  0  0  0  0  0  0  0  0  0  0  0
    3.3493   -0.8251   -1.1268 C   0  0  0  0  0  0  0  0  0  0  0  0
    4.8063    0.2321    1.0046 C   0  0  0  0  0  0  0  0  0  0  0  0
    4.6858   -1.1832   -0.9497 C   0  0  0  0  0  0  0  0  0  0  0  0
   -1.9109   -0.9879    0.6799 C   0  0  0  0  0  0  0  0  0  0  0  0
    5.4142   -0.6544    0.1161 C   0  0  0  0  0  0  0  0  0  0  0  0
   -3.2726   -0.4947    0.2880 C   0  0  0  0  0  0  0  0  0  0  0  0
   -3.8872    0.4674    1.0662 C   0  0  0  0  0  0  0  0  0  0  0  0
   -5.1489    0.9029    0.6760 C   0  0  0  0  0  0  0  0  0  0  0  0
   -5.0370   -0.5929   -1.1699 C   0  0  0  0  0  0  0  0  0  0  0  0
   -5.7419    0.3676   -0.4621 C   0  0  0  0  0  0  0  0  0  0  0  0
  1  7  1  0
  1 13  1  0
  2  7  2  0
  3 15  2  0
  3 18  1  0
  4  5  1  0
  4  6  1  0
  4  7  1  0
  5  8  1  0
  6  9  2  0
  6 10  1  0
  9 11  1  0
 10 12  2  0
 11 14  2  0
 12 14  1  0
 13 15  1  0
 15 16  1  0
 16 17  2  0
 17 19  1  0
 18 19  2  0
M  END
>  <PUBCHEM_COMPOUND_CID>  (1) 
39092

>  <PUBCHEM_CONFORMER_RMSD>  (1) 
0.8

>  <PUBCHEM_CONFORMER_DIVERSEORDER>  (1) 
1
195
4
38
144
113
57
110
207
75
41
118
92
100
63
17
189
23
186
208
120
160
24
201
106
90
51
133
10
204
145
109
129
205
182
124
167
166
46
53
84
65
93
148
138
16
185
81
108
87
50
130
11
26
29
71
127
174
136
12
215
147
156
89
39
7
70
28
56
67
183
47
188
94
2
221
161
116
122
149
86
22
33
214
9
213
131
217
76
187
128
184
142
102
104
20
225
44
98
190
15
105
159
43
21
153
99
80
18
83
36
6
202
192
32
8
59
14
73
77
123
209
172
48
52
199
42
111
58
5
176
35
68
97
196
3
74
34
137
27
117
82
95
218
119
154
165
226
54
151
203
79
64
13
152
178
114
210
61
40
19
197
112
55
96
146
158
143
198
220
227
219
69
179
135
30
31
101
200
121
85
126
170
25
163
164
175
212
173
191
88
72
169
103
157
139
180
115
134
194
107
216
49
60
223
141
168
37
150
45
62
171
206
177
140
132
66
224
162
78
155
211
91
193
125
222
181

>  <PUBCHEM_MMFF94_PARTIAL_CHARGES>  (1) 
26
1 -0.43
10 -0.15
11 -0.15
12 -0.15
13 0.42
14 -0.15
15 0.17
16 -0.15
17 -0.15
18 0.16
19 -0.15
2 -0.57
26 0.15
27 0.15
28 0.15
29 0.15
3 -0.62
32 0.15
33 0.15
34 0.15
35 0.15
36 0.15
4 0.2
6 -0.14
7 0.66
9 -0.15

>  <PUBCHEM_EFFECTIVE_ROTOR_COUNT>  (1) 
6

>  <PUBCHEM_PHARMACOPHORE_FEATURES>  (1) 
5
1 2 acceptor
1 3 acceptor
1 8 hydrophobe
6 3 15 16 17 18 19 rings
6 6 9 10 11 12 14 rings

>  <PUBCHEM_HEAVY_ATOM_COUNT>  (1) 
19

>  <PUBCHEM_ATOM_DEF_STEREO_COUNT>  (1) 
0

>  <PUBCHEM_ATOM_UDEF_STEREO_COUNT>  (1) 
1

>  <PUBCHEM_BOND_DEF_STEREO_COUNT>  (1) 
0

>  <PUBCHEM_BOND_UDEF_STEREO_COUNT>  (1) 
0

>  <PUBCHEM_ISOTOPIC_ATOM_COUNT>  (1) 
0

>  <PUBCHEM_COMPONENT_COUNT>  (1) 
1

>  <PUBCHEM_CACTVS_TAUTO_COUNT>  (1) 
1

>  <PUBCHEM_CONFORMER_ID>  (1) 
000098B400000001

>  <PUBCHEM_MMFF94_ENERGY>  (1) 
44.8617

>  <PUBCHEM_FEATURE_SELFOVERLAP>  (1) 
25.372

>  <PUBCHEM_SHAPE_FINGERPRINT>  (1) 
10090160 65 11959731568608926192
10366900 7 17240479217711447441
10906281 52 18263378013594100256
11089746 13 18113890577102242245
11405975 8 18187368795739375491
11545043 162 17095531733608818409
11646440 116 18340497711562960313
12107183 9 16553147908413670627
12166972 35 18273215322178410953
12236239 1 18060418015044426907
12616971 3 18342465876347791537
13167823 11 17346878944482264775
14347329 18 15503193623933827453
146900 427 8935002559713391068
15099037 51 18334015003484214855
15163728 17 15868604437883228012
15788980 27 17846782914209882611
15848700 24 18411139130445200972
1601671 61 18040714749257428498
17834072 33 17060334136751211499
17834072 8 18334579039974613287
18006028 8 18335419046295838836
18186145 218 17967814998163943785
18222031 100 18342745104966779844
19141452 34 18201718470100756470
192875 21 18342745138873344361
19489759 90 17561082493039216315
19784866 9 16805600348169881402
200 152 17418093217707632003
20612939 158 18261396692849771909
21285901 2 18338243648348787942
21641784 216 17386582245305980164
21709351 56 18336259124423759527
22224240 67 17774993610490720786
23402539 116 17917709089360623129
23536379 177 17561365058774213139
23557571 272 14476699480562539977
23558518 356 17608937825762708906
23559900 14 18272368706666868482
23569943 247 18123757443584009851
34797466 226 15984827089967288600
351380 180 17917991680870679505
3545911 37 18335422361910637627
4072396 5 18114170918118241130
4214541 1 17561084692057099587
4340502 62 16200144392390430270
474229 33 11383828268648115676
5104073 3 18115594884259947185
5283173 99 17346037762547749921
57724786 102 17895205449437319333
59755656 215 18115308861235096906
633830 44 18187363285096049815
67856867 119 17845366816163712745
6913067 236 12607402148477411601
7495541 125 16371020636259585249
9841814 1 17967525814133010776
9971528 1 18342177769503823340
9981440 41 17333638883085187193

>  <PUBCHEM_SHAPE_MULTIPOLES>  (1) 
374.29
13.67
1.73
1.15
8.29
1.33
0.04
-1.77
0.8
-1.02
0.41
0.01
-0.07
-0.2

>  <PUBCHEM_SHAPE_SELFOVERLAP>  (1) 
787.705

>  <PUBCHEM_SHAPE_VOLUME>  (1) 
209.1

>  <PUBCHEM_COORDINATE_TYPE>  (1) 
2
5
10

$$$$
