39106
     RDKit          3D

 19 19  0  0  0  0  0  0  0  0999 V2000
    2.2842   -1.4432   -0.5823 S   0  0  0  0  0  0  0  0  0  0  0  0
    1.9811    2.1521    0.1982 O   0  0  0  0  0  0  0  0  0  0  0  0
   -5.0347   -1.0622    0.0018 O   0  0  0  0  0  0  0  0  0  0  0  0
   -3.2085   -0.6830   -1.3553 O   0  0  0  0  0  0  0  0  0  0  0  0
    4.2691   -3.1197   -1.0180 N   0  0  0  0  0  0  0  0  0  0  0  0
    4.0763   -2.3075    1.1912 N   0  0  0  0  0  0  0  0  0  0  0  0
    0.5962    0.2777    0.7594 C   0  0  0  0  0  0  0  0  0  0  0  0
   -1.8046    0.5484    0.7778 C   0  0  0  0  0  0  0  0  0  0  0  0
    0.7440    1.6147    0.3898 C   0  0  0  0  0  0  0  0  0  0  0  0
   -0.6782   -0.2554    0.9533 C   0  0  0  0  0  0  0  0  0  0  0  0
   -3.1675   -0.0203    0.9852 C   0  0  0  0  0  0  0  0  0  0  0  0
   -1.6569    1.8853    0.4084 C   0  0  0  0  0  0  0  0  0  0  0  0
    1.7909   -0.5972    0.9496 C   0  0  0  0  0  0  0  0  0  0  0  0
   -0.3826    2.4183    0.2143 C   0  0  0  0  0  0  0  0  0  0  0  0
    2.2650    2.6800   -1.0960 C   0  0  0  0  0  0  0  0  0  0  0  0
   -3.7720   -0.6162   -0.2712 C   0  0  0  0  0  0  0  0  0  0  0  0
    3.7489    2.5515   -1.3664 C   0  0  0  0  0  0  0  0  0  0  0  0
    3.6801   -2.3690   -0.0399 C   0  0  0  0  0  0  0  0  0  0  0  0
   -5.7307   -1.6543   -1.0998 C   0  0  0  0  0  0  0  0  0  0  0  0
  1 13  1  0
  1 18  1  0
  2  9  1  0
  2 15  1  0
  3 16  1  0
  3 19  1  0
  4 16  2  0
  5 18  1  0
  6 18  2  0
  7  9  2  0
  7 10  1  0
  7 13  1  0
  8 10  2  0
  8 11  1  0
  8 12  1  0
  9 14  1  0
 11 16  1  0
 12 14  2  0
 15 17  1  0
M  END
>  <PUBCHEM_COMPOUND_CID>  (1) 
39106

>  <PUBCHEM_CONFORMER_RMSD>  (1) 
0.8

>  <PUBCHEM_CONFORMER_DIVERSEORDER>  (1) 
1
118
127
125
37
57
103
145
62
135
18
51
148
80
152
71
21
44
115
23
84
137
24
68
154
123
75
55
155
16
151
74
78
40
89
153
82
107
90
19
72
150
88
124
129
9
56
146
48
147
32
101
11
93
7
41
143
39
79
13
5
99
144
8
10
54
138
100
34
149
6
97
131
108
94
22
3
17
104
30
70
111
92
130
136
83
65
126
91
142
25
140
134
45
49
77
139
96
73
114
109
26
76
29
58
116
110
59
141
106
2
27
60
63
67
133
53
122
50
15
61
98
36
121
81
95
52
87
85
112
64
132
43
119
46
12
66
4
42
20
28
113
69
105
38
128
31
117
33
35
102
86
47
14
120

>  <PUBCHEM_MMFF94_PARTIAL_CHARGES>  (1) 
24
1 -0.37
10 -0.15
11 0.2
12 -0.15
13 0.37
14 -0.15
15 0.28
16 0.66
18 0.64
19 0.28
2 -0.36
20 0.15
23 0.15
26 0.15
3 -0.43
35 0.4
36 0.4
37 0.4
4 -0.57
5 -0.85
6 -0.85
7 -0.14
8 -0.14
9 0.08

>  <PUBCHEM_EFFECTIVE_ROTOR_COUNT>  (1) 
8

>  <PUBCHEM_PHARMACOPHORE_FEATURES>  (1) 
6
1 2 acceptor
1 4 acceptor
1 5 donor
1 6 donor
3 5 6 18 cation
6 7 8 9 10 12 14 rings

>  <PUBCHEM_HEAVY_ATOM_COUNT>  (1) 
19

>  <PUBCHEM_ATOM_DEF_STEREO_COUNT>  (1) 
0

>  <PUBCHEM_ATOM_UDEF_STEREO_COUNT>  (1) 
0

>  <PUBCHEM_BOND_DEF_STEREO_COUNT>  (1) 
0

>  <PUBCHEM_BOND_UDEF_STEREO_COUNT>  (1) 
0

>  <PUBCHEM_ISOTOPIC_ATOM_COUNT>  (1) 
0

>  <PUBCHEM_COMPONENT_COUNT>  (1) 
1

>  <PUBCHEM_CACTVS_TAUTO_COUNT>  (1) 
1

>  <PUBCHEM_CONFORMER_ID>  (1) 
000098C200000001

>  <PUBCHEM_MMFF94_ENERGY>  (1) 
44.1963

>  <PUBCHEM_FEATURE_SELFOVERLAP>  (1) 
30.484

>  <PUBCHEM_SHAPE_FINGERPRINT>  (1) 
10756046 5 18334579010068598101
10989021 7 18337679620100124896
12553582 1 18189905209829534018
12616999 72 18191298484767665161
13083527 12 18411692176135452888
13257819 101 16589698183498045420
13540713 5 18341066128751650025
13968360 50 18189894412867118892
14178000 29 18340771433939110602
14576447 43 18128535066935536445
14863182 85 18269827769960635184
15502722 9 18261961846316315208
15842332 3 18058191495318913641
17539 30 17903070041298671108
1813 80 18338794507721558378
19141452 34 17914338974694693825
20388580 30 18410853248246573090
20645477 70 18334570291674916267
20671657 53 18187921733818035666
20693207 138 17531544164725320683
21344244 246 18337400430705327678
21452121 199 18410853227204435488
21501502 16 18339936930167427689
23114952 82 18040711506499318957
23402539 116 18119249459363949530
23559900 14 18338790135159689985
23598291 2 18342468019288513713
23622692 118 18341894056558903725
25147074 1 18270133348130820113
3057174 1 17757010147992401524
3060560 45 18121497126854820997
312423 11 18412554197404139617
46194498 28 18113890598381984967
5281201 14 18113609097746278973
59554788 191 18266455416989146205
59682541 52 18338218467330032543
7164475 11 18410853248616429313
7970288 3 18341044130156538983

>  <PUBCHEM_SHAPE_MULTIPOLES>  (1) 
367.29
9.65
3.6
1.28
8.83
0.11
0.18
-7.9
3.65
-5.45
1.01
-0.12
-0.08
-1.71

>  <PUBCHEM_SHAPE_SELFOVERLAP>  (1) 
731.567

>  <PUBCHEM_SHAPE_VOLUME>  (1) 
218.9

>  <PUBCHEM_COORDINATE_TYPE>  (1) 
2
5
10

$$$$
