39138
     RDKit          3D

 17 18  0  0  0  0  0  0  0  0999 V2000
   -2.3961   -0.0087    0.0165 N   0  0  0  0  0  0  0  0  0  0  0  0
    5.3639   -1.1358   -0.6146 N   0  0  0  0  0  0  0  0  0  0  0  0
   -3.1706    1.2377    0.0108 C   0  0  0  0  0  0  0  0  0  0  0  0
   -3.0119   -1.1628   -0.6537 C   0  0  0  0  0  0  0  0  0  0  0  0
   -4.5819    0.9965    0.5445 C   0  0  0  0  0  0  0  0  0  0  0  0
   -4.4193   -1.4086   -0.1143 C   0  0  0  0  0  0  0  0  0  0  0  0
   -5.2716   -0.1475   -0.1882 C   0  0  0  0  0  0  0  0  0  0  0  0
    3.3060    0.2301    0.1283 C   0  0  0  0  0  0  0  0  0  0  0  0
   -0.9972    0.0503    0.0443 C   0  0  0  0  0  0  0  0  0  0  0  0
    1.8162    0.1676    0.0991 C   0  0  0  0  0  0  0  0  0  0  0  0
    3.9060   -1.0345   -0.5971 C   0  0  0  0  0  0  0  0  0  0  0  0
    3.9234    1.4981   -0.5635 C   0  0  0  0  0  0  0  0  0  0  0  0
    3.8417    0.2795    1.5999 C   0  0  0  0  0  0  0  0  0  0  0  0
   -0.3061    1.1304   -0.5380 C   0  0  0  0  0  0  0  0  0  0  0  0
   -0.2417   -0.9694    0.6548 C   0  0  0  0  0  0  0  0  0  0  0  0
    1.0875    1.1886   -0.5109 C   0  0  0  0  0  0  0  0  0  0  0  0
    1.1516   -0.9114    0.6821 C   0  0  0  0  0  0  0  0  0  0  0  0
  1  3  1  0
  1  4  1  0
  1  9  1  0
  2 11  1  0
  3  5  1  0
  4  6  1  0
  5  7  1  0
  6  7  1  0
  8 10  1  0
  8 11  1  0
  8 12  1  0
  8 13  1  0
  9 14  2  0
  9 15  1  0
 10 16  2  0
 10 17  1  0
 14 16  1  0
 15 17  2  0
M  END
>  <PUBCHEM_COMPOUND_CID>  (1) 
39138

>  <PUBCHEM_CONFORMER_RMSD>  (1) 
0.6

>  <PUBCHEM_CONFORMER_DIVERSEORDER>  (1) 
1
20
8
10
6
14
11
19
5
9
18
12
2
4
21
13
16
15
3
17
7

>  <PUBCHEM_MMFF94_PARTIAL_CHARGES>  (1) 
18
1 -0.84
10 -0.14
11 0.27
14 -0.15
15 -0.15
16 -0.15
17 -0.15
2 -0.99
3 0.37
36 0.15
37 0.15
38 0.15
39 0.15
4 0.37
40 0.36
41 0.36
8 0.14
9 0.1

>  <PUBCHEM_EFFECTIVE_ROTOR_COUNT>  (1) 
4.2

>  <PUBCHEM_PHARMACOPHORE_FEATURES>  (1) 
6
1 1 cation
1 2 cation
1 2 donor
3 8 12 13 hydrophobe
6 1 3 4 5 6 7 rings
6 9 10 14 15 16 17 rings

>  <PUBCHEM_HEAVY_ATOM_COUNT>  (1) 
17

>  <PUBCHEM_ATOM_DEF_STEREO_COUNT>  (1) 
0

>  <PUBCHEM_ATOM_UDEF_STEREO_COUNT>  (1) 
0

>  <PUBCHEM_BOND_DEF_STEREO_COUNT>  (1) 
0

>  <PUBCHEM_BOND_UDEF_STEREO_COUNT>  (1) 
0

>  <PUBCHEM_ISOTOPIC_ATOM_COUNT>  (1) 
0

>  <PUBCHEM_COMPONENT_COUNT>  (1) 
1

>  <PUBCHEM_CACTVS_TAUTO_COUNT>  (1) 
1

>  <PUBCHEM_CONFORMER_ID>  (1) 
000098E200000001

>  <PUBCHEM_MMFF94_ENERGY>  (1) 
56.7053

>  <PUBCHEM_FEATURE_SELFOVERLAP>  (1) 
30.446

>  <PUBCHEM_SHAPE_FINGERPRINT>  (1) 
10680689 15 18040437676996768637
11128504 68 17676216779431637486
11132069 177 18409440380194813209
12107183 9 17692819185508650763
12236239 1 18410857677133139821
12507560 40 17846774117905857504
12670546 56 17418094295412029851
13167823 11 18341612628890247343
13288520 33 18342460322248131199
13583140 156 16917056806595217315
13675066 3 18201998850076713851
13760787 5 17095239211554040346
13862211 1 18113893857919472186
14911166 2 17894634759815043462
15196674 1 18408605880944560893
15536298 74 18411418431730655324
15788980 27 16343701019336184989
15848702 151 18342178830070530446
17349148 13 17894629249081729121
17834072 33 18412266163632657124
17834072 8 18409165485403191631
17844677 252 17275107240805553641
18186145 218 17821725057113418436
18222031 100 18113051649144842677
19026448 4 17632573863968194696
19784866 240 17417263026689684926
200 152 18131914853445797658
20279233 1 16128661864244810533
20281475 54 18187638089914638306
20645477 70 18201162074879365118
21267235 1 18335991930419133403
23402539 116 18413105052344500877
23402655 69 18410293626908559069
23557571 272 18343025445523836037
23559900 14 18131349726534697208
26918003 58 16702302347205066775
29717793 49 18343299262831996189
3286 77 17846779586042602144
34797466 226 17417539140845875645
3545911 37 18411983529710868171
42 15 18131071523784950343
4214541 1 18342459214468445421
4990 188 18341900658161008158
5104073 3 18409729586175915585
522135 26 17168141230965179554
542803 24 18410013247343707041
633830 44 18187365445475129726
7495541 125 16200142257475010467
77779 3 18342459252933039181
90127 26 18040161703324953721
9971528 1 18408885148640683236
9981440 41 17184465958997043993

>  <PUBCHEM_SHAPE_MULTIPOLES>  (1) 
339.89
11.32
1.5
0.96
2.39
0.06
-0.21
-1.28
0.54
0.05
0.19
-0.71
-0.01
-0.19

>  <PUBCHEM_SHAPE_SELFOVERLAP>  (1) 
697.165

>  <PUBCHEM_SHAPE_VOLUME>  (1) 
194.3

>  <PUBCHEM_COORDINATE_TYPE>  (1) 
2
5
10

$$$$
