3913
     RDKit          3D

 14 16  0  0  1  0  0  0  0  0999 V2000
    3.3519    1.4331   -0.3939 S   0  0  0  0  0  0  0  0  0  0  0  0
    2.0557   -0.7196    0.1646 N   0  0  0  0  0  0  0  0  0  0  0  0
    0.7954    0.7348   -1.0809 N   0  0  0  0  0  0  0  0  0  0  0  0
    0.7741   -1.3460    0.2751 C   0  0  0  0  0  0  0  0  0  0  0  0
   -0.0254   -0.5078   -0.7729 C   0  0  0  0  0  0  0  0  0  0  0  0
    3.1705   -0.8462    1.0645 C   0  0  0  0  0  0  0  0  0  0  0  0
    1.9270    0.4519   -0.5049 C   0  0  0  0  0  0  0  0  0  0  0  0
    4.2509    0.0885    0.4950 C   0  0  0  0  0  0  0  0  0  0  0  0
   -1.4238   -0.1824   -0.3058 C   0  0  0  0  0  0  0  0  0  0  0  0
   -2.4769   -1.0509   -0.5956 C   0  0  0  0  0  0  0  0  0  0  0  0
   -1.6648    0.9874    0.4157 C   0  0  0  0  0  0  0  0  0  0  0  0
   -3.7690   -0.7501   -0.1646 C   0  0  0  0  0  0  0  0  0  0  0  0
   -2.9568    1.2881    0.8470 C   0  0  0  0  0  0  0  0  0  0  0  0
   -4.0089    0.4193    0.5568 C   0  0  0  0  0  0  0  0  0  0  0  0
  1  7  1  0
  1  8  1  0
  2  4  1  0
  2  6  1  0
  2  7  1  0
  3  5  1  0
  3  7  2  0
  4  5  1  0
  5  9  1  0
  6  8  1  0
  9 10  2  0
  9 11  1  0
 10 12  1  0
 11 13  2  0
 12 14  2  0
 13 14  1  0
M  END
>  <PUBCHEM_COMPOUND_CID>  (1) 
3913

>  <PUBCHEM_CONFORMER_RMSD>  (1) 
0.6

>  <PUBCHEM_CONFORMER_DIVERSEORDER>  (1) 
1
2
3
4

>  <PUBCHEM_MMFF94_PARTIAL_CHARGES>  (1) 
19
1 -0.37
10 -0.15
11 -0.15
12 -0.15
13 -0.15
14 -0.15
2 -0.79
22 0.15
23 0.15
24 0.15
25 0.15
26 0.15
3 -0.7
4 0.37
5 0.39
6 0.37
7 0.64
8 0.23
9 -0.14

>  <PUBCHEM_EFFECTIVE_ROTOR_COUNT>  (1) 
2

>  <PUBCHEM_PHARMACOPHORE_FEATURES>  (1) 
4
3 2 3 7 cation
5 1 2 6 7 8 rings
5 2 3 4 5 7 rings
6 9 10 11 12 13 14 rings

>  <PUBCHEM_HEAVY_ATOM_COUNT>  (1) 
14

>  <PUBCHEM_ATOM_DEF_STEREO_COUNT>  (1) 
0

>  <PUBCHEM_ATOM_UDEF_STEREO_COUNT>  (1) 
1

>  <PUBCHEM_BOND_DEF_STEREO_COUNT>  (1) 
0

>  <PUBCHEM_BOND_UDEF_STEREO_COUNT>  (1) 
0

>  <PUBCHEM_ISOTOPIC_ATOM_COUNT>  (1) 
0

>  <PUBCHEM_COMPONENT_COUNT>  (1) 
1

>  <PUBCHEM_CACTVS_TAUTO_COUNT>  (1) 
1

>  <PUBCHEM_CONFORMER_ID>  (1) 
00000F4900000001

>  <PUBCHEM_MMFF94_ENERGY>  (1) 
43.1739

>  <PUBCHEM_FEATURE_SELFOVERLAP>  (1) 
20.516

>  <PUBCHEM_SHAPE_FINGERPRINT>  (1) 
10219947 1 17676205784046204046
10465860 228 18199476475871305562
11031198 65 14908183031805387028
11132069 177 18201720639306933033
11471102 22 17458345225887833136
12162725 195 18412545418090053128
12236239 1 18409448098134811191
12251169 10 18335419054126222098
12932764 1 18040718034738553223
13764800 53 17274835614425976083
13897977 58 18201159939800440769
14144814 61 18407761430191786671
14252887 29 17167860842530779410
14943859 89 16989123162635363510
15309172 13 18040714770648122338
15375358 24 15213294252975391784
15669948 3 18059852917512574903
15775835 57 18342182167228464225
16945 1 18335419011065838070
17862501 102 18409721880920326186
1813 80 17750803138861168718
18186145 218 18407759235732504462
19050596 39 18410856568393274193
19107657 47 17821722836330658605
19422 9 18412262839528455862
19862831 5 10231754478879159697
200 152 18335127714110903207
20279233 1 15646770102287190211
20281407 28 15213020435972810322
20510252 161 17703799076702391625
20645477 70 17458889475279919338
22485316 2 11458422449027833600
22854114 59 18040996258651899760
23048698 100 18260266360552113968
23402539 116 17846489353005134917
23557571 272 16630528470501581559
23559900 14 17703238308370830158
26918003 58 17748827427770733801
474 4 17971194978686867964
57812782 119 15719390650742331139
7364860 26 17844816875529087542
77492 1 18410009957251006975

>  <PUBCHEM_SHAPE_MULTIPOLES>  (1) 
282
7.87
1.39
0.98
0.25
0.13
0.02
0.95
1.6
0.04
0.07
0.18
0.03
-0.98

>  <PUBCHEM_SHAPE_SELFOVERLAP>  (1) 
595.418

>  <PUBCHEM_SHAPE_VOLUME>  (1) 
161.8

>  <PUBCHEM_COORDINATE_TYPE>  (1) 
2
5
10

$$$$
