39144
     RDKit          3D

 10 11  0  0  1  0  0  0  0  0999 V2000
   -2.6426    0.4710   -0.9919 O   0  0  0  0  0  0  0  0  0  0  0  0
    2.6427   -0.4710   -0.9918 O   0  0  0  0  0  0  0  0  0  0  0  0
   -2.0338   -0.1697    0.1300 C   0  0  0  0  0  0  0  0  0  0  0  0
    2.0338    0.1697    0.1300 C   0  0  0  0  0  0  0  0  0  0  0  0
   -2.8772    1.0528    0.2971 C   0  0  0  0  0  0  0  0  0  0  0  0
    2.8772   -1.0528    0.2970 C   0  0  0  0  0  0  0  0  0  0  0  0
   -2.5973   -1.5011    0.4351 C   0  0  0  0  0  0  0  0  0  0  0  0
    2.5973    1.5012    0.4351 C   0  0  0  0  0  0  0  0  0  0  0  0
   -0.5983   -0.0499    0.1297 C   0  0  0  0  0  0  0  0  0  0  0  0
    0.5982    0.0499    0.1297 C   0  0  0  0  0  0  0  0  0  0  0  0
  1  3  1  0
  1  5  1  0
  2  4  1  0
  2  6  1  0
  3  5  1  0
  3  7  1  0
  3  9  1  0
  4  6  1  0
  4  8  1  0
  4 10  1  0
  9 10  3  0
M  END
>  <PUBCHEM_COMPOUND_CID>  (1) 
39144

>  <PUBCHEM_CONFORMER_RMSD>  (1) 
0.4

>  <PUBCHEM_CONFORMER_DIVERSEORDER>  (1) 
1
3
2

>  <PUBCHEM_MMFF94_PARTIAL_CHARGES>  (1) 
14
1 -0.3
10 -0.1
11 0.1
12 0.1
13 0.1
14 0.1
2 -0.3
3 0.16
4 0.16
5 -0.05
6 -0.05
7 0.09
8 0.09
9 -0.1

>  <PUBCHEM_EFFECTIVE_ROTOR_COUNT>  (1) 
1.2

>  <PUBCHEM_PHARMACOPHORE_FEATURES>  (1) 
2
1 1 acceptor
1 2 acceptor

>  <PUBCHEM_HEAVY_ATOM_COUNT>  (1) 
10

>  <PUBCHEM_ATOM_DEF_STEREO_COUNT>  (1) 
0

>  <PUBCHEM_ATOM_UDEF_STEREO_COUNT>  (1) 
2

>  <PUBCHEM_BOND_DEF_STEREO_COUNT>  (1) 
0

>  <PUBCHEM_BOND_UDEF_STEREO_COUNT>  (1) 
0

>  <PUBCHEM_ISOTOPIC_ATOM_COUNT>  (1) 
0

>  <PUBCHEM_COMPONENT_COUNT>  (1) 
1

>  <PUBCHEM_CACTVS_TAUTO_COUNT>  (1) 
1

>  <PUBCHEM_CONFORMER_ID>  (1) 
000098E800000001

>  <PUBCHEM_MMFF94_ENERGY>  (1) 
11.0194

>  <PUBCHEM_FEATURE_SELFOVERLAP>  (1) 
10.149

>  <PUBCHEM_SHAPE_FINGERPRINT>  (1) 
12716758 59 18261107461414851475
12897270 3 18409729555936901394
12932741 1 18410575106137915409
12932764 1 17894910715468492105
13296908 3 18413392055002241058
14325111 11 18410574006642144459
14390081 3 18408036321073511233
18186145 218 18410294692065729640
19973954 147 18411703218021948601
20201158 50 18271806774552273710
20279233 1 18409162229411915994
23552423 10 18187367665814849203
3248919 1 17989204836919344106
369184 2 18412545422770018923
93112 12 18410575076073144469

>  <PUBCHEM_SHAPE_MULTIPOLES>  (1) 
194.06
5.8
1.35
0.81
0
0
-0.1
0
-0.06
0
0.21
0
0
0.37

>  <PUBCHEM_SHAPE_SELFOVERLAP>  (1) 
390.367

>  <PUBCHEM_SHAPE_VOLUME>  (1) 
116.6

>  <PUBCHEM_COORDINATE_TYPE>  (1) 
2
5
10

$$$$
