3914
     RDKit          3D

 21 22  0  0  1  0  0  0  0  0999 V2000
   -0.3474    1.6660   -0.6678 O   0  0  0  0  0  0  0  0  0  0  0  0
   -2.7645    2.3764   -1.8990 O   0  0  0  0  0  0  0  0  0  0  0  0
    4.7248   -1.3302    0.4538 O   0  0  0  0  0  0  0  0  0  0  0  0
   -3.0046   -0.1840    0.7644 N   0  0  0  0  0  0  0  0  0  0  0  0
   -3.2452   -1.6197    0.7132 C   0  0  0  0  0  0  0  0  0  0  0  0
    1.1698   -0.5702   -1.5768 C   0  0  0  0  0  0  0  0  0  0  0  0
    1.5936    0.2651   -0.3992 C   0  0  0  0  0  0  0  0  0  0  0  0
   -2.9660    0.3856   -0.5758 C   0  0  0  0  0  0  0  0  0  0  0  0
    1.7274   -1.9839   -1.4751 C   0  0  0  0  0  0  0  0  0  0  0  0
   -2.7249    1.8968   -0.5519 C   0  0  0  0  0  0  0  0  0  0  0  0
    3.2382   -1.9534   -1.3139 C   0  0  0  0  0  0  0  0  0  0  0  0
    2.7867    0.0053    0.2930 C   0  0  0  0  0  0  0  0  0  0  0  0
   -3.2860   -2.1594    2.1469 C   0  0  0  0  0  0  0  0  0  0  0  0
   -4.5899   -1.8649    0.0206 C   0  0  0  0  0  0  0  0  0  0  0  0
   -2.1163   -2.2970   -0.0727 C   0  0  0  0  0  0  0  0  0  0  0  0
    0.8055    1.3563   -0.0069 C   0  0  0  0  0  0  0  0  0  0  0  0
   -1.3832    2.2845    0.0661 C   0  0  0  0  0  0  0  0  0  0  0  0
    3.6620   -1.1207   -0.1240 C   0  0  0  0  0  0  0  0  0  0  0  0
    3.1680    0.8091    1.3740 C   0  0  0  0  0  0  0  0  0  0  0  0
    1.1871    2.1569    1.0701 C   0  0  0  0  0  0  0  0  0  0  0  0
    2.3649    1.8816    1.7608 C   0  0  0  0  0  0  0  0  0  0  0  0
  1 16  1  0
  1 17  1  0
  2 10  1  0
  3 18  2  0
  4  5  1  0
  4  8  1  0
  5 13  1  0
  5 14  1  0
  5 15  1  0
  6  7  1  0
  6  9  1  0
  7 12  2  0
  7 16  1  0
  8 10  1  0
  9 11  1  0
 10 17  1  0
 11 18  1  0
 12 18  1  0
 12 19  1  0
 16 20  2  0
 19 21  2  0
 20 21  1  0
M  END
>  <PUBCHEM_COMPOUND_CID>  (1) 
3914

>  <PUBCHEM_CONFORMER_RMSD>  (1) 
0.8

>  <PUBCHEM_CONFORMER_DIVERSEORDER>  (1) 
1
66
12
30
60
78
18
55
6
40
52
33
65
43
68
27
45
42
76
9
62
5
71
63
61
24
21
69
44
31
16
75
28
26
25
39
13
48
67
54
23
4
70
36
2
35
74
56
58
17
20
11
51
19
50
73
57
46
7
59
77
47
3
34
53
15
38
64
14
8
37
22
10
41
49
29
32
72

>  <PUBCHEM_MMFF94_PARTIAL_CHARGES>  (1) 
22
1 -0.36
10 0.28
11 0.06
12 0.09
16 0.08
17 0.28
18 0.42
19 -0.15
2 -0.68
20 -0.15
21 -0.15
28 0.36
3 -0.57
4 -0.9
43 0.15
44 0.15
45 0.15
46 0.4
5 0.27
6 0.14
7 -0.14
8 0.27

>  <PUBCHEM_EFFECTIVE_ROTOR_COUNT>  (1) 
6.6

>  <PUBCHEM_PHARMACOPHORE_FEATURES>  (1) 
9
1 1 acceptor
1 2 acceptor
1 2 donor
1 3 acceptor
1 4 cation
1 4 donor
4 5 13 14 15 hydrophobe
6 6 7 9 11 12 18 rings
6 7 12 16 19 20 21 rings

>  <PUBCHEM_HEAVY_ATOM_COUNT>  (1) 
21

>  <PUBCHEM_ATOM_DEF_STEREO_COUNT>  (1) 
0

>  <PUBCHEM_ATOM_UDEF_STEREO_COUNT>  (1) 
1

>  <PUBCHEM_BOND_DEF_STEREO_COUNT>  (1) 
0

>  <PUBCHEM_BOND_UDEF_STEREO_COUNT>  (1) 
0

>  <PUBCHEM_ISOTOPIC_ATOM_COUNT>  (1) 
0

>  <PUBCHEM_COMPONENT_COUNT>  (1) 
1

>  <PUBCHEM_CACTVS_TAUTO_COUNT>  (1) 
2

>  <PUBCHEM_CONFORMER_ID>  (1) 
00000F4A00000001

>  <PUBCHEM_MMFF94_ENERGY>  (1) 
49.4215

>  <PUBCHEM_FEATURE_SELFOVERLAP>  (1) 
45.696

>  <PUBCHEM_SHAPE_FINGERPRINT>  (1) 
10366900 7 18342174449182633703
1100329 8 16395501988707063279
11471102 22 17775279422540329524
11582403 64 16610176462853747641
117890 22 18341619256124862435
12363563 72 17896602984687291339
12506688 2 18271815592272853328
12553582 1 18048045352515471487
12633257 1 17916882303845748195
13402501 40 18412827954240463431
14790565 3 17476357678793941928
15635459 17 18342737416426888455
16752209 62 17676479541351740675
17357779 13 18410003369224946855
17913733 40 17559096882777821288
19049666 15 18270117898943142605
20397935 3 18115325477977774846
20403669 9 18409451397023570715
20600515 1 17387397159684398173
20603629 256 17489869358011505754
21285901 2 18263352746343456279
23557571 272 18334289898877093761
23559900 14 18408318886882497908
568465 68 17917706881700005824
633830 44 14635734990256817446
7987 15 18340504312531950851
81228 2 18260835912572116585
8809292 202 18340202973241955205
9709674 26 18340757196243908845

>  <PUBCHEM_SHAPE_MULTIPOLES>  (1) 
409.58
8.12
3.23
1.7
1.99
0.38
-0.21
-4.6
-1.75
0.94
0.2
0.28
-0.02
2.88

>  <PUBCHEM_SHAPE_SELFOVERLAP>  (1) 
847.867

>  <PUBCHEM_SHAPE_VOLUME>  (1) 
235.8

>  <PUBCHEM_COORDINATE_TYPE>  (1) 
2
5
10

$$$$
