39156
     RDKit          3D

 27 29  0  0  1  0  0  0  0  0999 V2000
    0.4587    3.0716   -2.6099 Cl  0  0  0  0  0  0  0  0  0  0  0  0
    1.2393   -1.0550    0.5719 O   0  0  0  0  0  0  0  0  0  0  0  0
   -0.4917    0.2370   -2.1081 O   0  0  0  0  0  0  0  0  0  0  0  0
   -1.3521    0.0949    2.5629 O   0  0  0  0  0  0  0  0  0  0  0  0
    2.1501   -3.1728    0.6745 O   0  0  0  0  0  0  0  0  0  0  0  0
    4.2689   -0.9523   -0.2845 N   0  0  0  0  0  0  0  0  0  0  0  0
   -1.0430   -0.4685    0.1788 C   0  0  0  0  0  0  0  0  0  0  0  0
   -0.0424   -1.6066    0.3257 C   0  0  0  0  0  0  0  0  0  0  0  0
   -0.5962    0.5011   -0.9241 C   0  0  0  0  0  0  0  0  0  0  0  0
   -1.0358    0.4169    1.4325 C   0  0  0  0  0  0  0  0  0  0  0  0
   -2.4167   -0.9866   -0.0946 C   0  0  0  0  0  0  0  0  0  0  0  0
   -0.3157    1.8027   -0.3127 C   0  0  0  0  0  0  0  0  0  0  0  0
   -0.5709    1.7540    1.0543 C   0  0  0  0  0  0  0  0  0  0  0  0
    3.5444   -1.2155    0.9833 C   0  0  0  0  0  0  0  0  0  0  0  0
    5.5779   -0.1961   -0.0179 C   0  0  0  0  0  0  0  0  0  0  0  0
    4.6145   -2.2668   -0.9980 C   0  0  0  0  0  0  0  0  0  0  0  0
    3.4135   -0.1040   -1.2358 C   0  0  0  0  0  0  0  0  0  0  0  0
    2.2619   -1.9557    0.7296 C   0  0  0  0  0  0  0  0  0  0  0  0
   -3.4626   -0.0951   -0.3281 C   0  0  0  0  0  0  0  0  0  0  0  0
   -2.6505   -2.3607   -0.1164 C   0  0  0  0  0  0  0  0  0  0  0  0
    0.1287    2.9573   -0.9272 C   0  0  0  0  0  0  0  0  0  0  0  0
   -0.3929    2.8578    1.8656 C   0  0  0  0  0  0  0  0  0  0  0  0
    0.3158    4.0840   -0.1219 C   0  0  0  0  0  0  0  0  0  0  0  0
    0.0576    4.0348    1.2615 C   0  0  0  0  0  0  0  0  0  0  0  0
   -4.7457   -0.5788   -0.5836 C   0  0  0  0  0  0  0  0  0  0  0  0
   -3.9336   -2.8443   -0.3721 C   0  0  0  0  0  0  0  0  0  0  0  0
   -4.9812   -1.9534   -0.6057 C   0  0  0  0  0  0  0  0  0  0  0  0
  1 21  1  0
  2  8  1  0
  2 18  1  0
  3  9  2  0
  4 10  2  0
  5 18  2  0
  6 14  1  0
  6 15  1  0
  6 16  1  0
  6 17  1  0
  7  8  1  0
  7  9  1  0
  7 10  1  0
  7 11  1  0
  9 12  1  0
 10 13  1  0
 11 19  2  0
 11 20  1  0
 12 13  2  0
 12 21  1  0
 13 22  1  0
 14 18  1  0
 19 25  1  0
 20 26  2  0
 21 23  2  0
 22 24  2  0
 23 24  1  0
 25 27  2  0
 26 27  1  0
M  CHG  1   6   1
M  END
>  <PUBCHEM_COMPOUND_CID>  (1) 
39156

>  <PUBCHEM_CONFORMER_RMSD>  (1) 
0.8

>  <PUBCHEM_CONFORMER_DIVERSEORDER>  (1) 
1
20
74
58
35
76
81
7
59
34
33
45
42
66
23
55
48
82
67
80
43
54
77
11
12
52
24
5
73
15
71
41
38
4
75
68
9
40
29
17
8
3
36
72
6
56
16
79
78
26
49
64
53
39
47
22
28
25
46
32
50
14
2
31
69
19
51
60
62
18
70
13
30
21
65
44
27
61
10
37
63
57

>  <PUBCHEM_MMFF94_PARTIAL_CHARGES>  (1) 
35
1 -0.18
10 0.42
11 -0.14
12 0.09
13 0.09
14 0.56
15 0.5
16 0.5
17 0.5
18 0.66
19 -0.15
2 -0.43
20 -0.15
21 0.18
22 -0.15
23 -0.15
24 -0.15
25 -0.15
26 -0.15
27 -0.15
3 -0.57
4 -0.57
41 0.15
42 0.15
43 0.15
44 0.15
45 0.15
46 0.15
47 0.15
48 0.15
5 -0.57
6 -1.01
7 0.27
8 0.28
9 0.42

>  <PUBCHEM_EFFECTIVE_ROTOR_COUNT>  (1) 
6.2

>  <PUBCHEM_PHARMACOPHORE_FEATURES>  (1) 
7
1 3 acceptor
1 4 acceptor
1 5 acceptor
1 6 cation
5 7 9 10 12 13 rings
6 11 19 20 25 26 27 rings
6 12 13 21 22 23 24 rings

>  <PUBCHEM_HEAVY_ATOM_COUNT>  (1) 
27

>  <PUBCHEM_ATOM_DEF_STEREO_COUNT>  (1) 
0

>  <PUBCHEM_ATOM_UDEF_STEREO_COUNT>  (1) 
1

>  <PUBCHEM_BOND_DEF_STEREO_COUNT>  (1) 
0

>  <PUBCHEM_BOND_UDEF_STEREO_COUNT>  (1) 
0

>  <PUBCHEM_ISOTOPIC_ATOM_COUNT>  (1) 
0

>  <PUBCHEM_COMPONENT_COUNT>  (1) 
1

>  <PUBCHEM_CACTVS_TAUTO_COUNT>  (1) 
1

>  <PUBCHEM_CONFORMER_ID>  (1) 
000098F400000001

>  <PUBCHEM_MMFF94_ENERGY>  (1) 
87.4244

>  <PUBCHEM_FEATURE_SELFOVERLAP>  (1) 
35.602

>  <PUBCHEM_SHAPE_FINGERPRINT>  (1) 
10369192 42 16985998437174237226
10670039 82 18262817185818377276
11045515 52 18333730199928786517
11582403 64 15148552491639894389
12156800 1 16229657474670809276
12173636 292 17765424353664844312
12788726 201 18190171283179991747
13004483 165 18266168440476334051
133893 2 18048900755139497041
14347332 77 18266456499970647366
14910302 57 17843411687332605174
14955137 171 18267326325226221787
15664445 248 18343028825910855470
15927050 60 17404863039072253302
17980427 23 17489316291263356889
17980427 26 17482541297976197309
1813 80 18130794485646924983
20600515 1 18272099291968809887
21049683 271 18189056554815024815
21120745 212 18270418091540342484
21452121 71 18410858793444867715
22907989 373 18124303909599368862
23352939 185 18411698807216746465
23419403 2 18122030291420768437
23557571 272 18341890745540246502
23558518 356 17832140520047004755
23559900 14 18192979634137014103
283562 15 18336544902778690338
3178227 256 18266471923835991665
3298306 158 17691692607282279164
350125 39 17619635678626626586
469060 322 18334858282175141424
497634 4 18059862697548778962
5081480 168 18264185059223110271
532947 4 18122904502028167272
59444896 2 17977143173231540693
6443956 14 18339357599150502616
6669772 16 17408242924562194320
70251023 43 18410863122898885962
7164475 11 18192141595380269658
7364860 26 18123459734157258379
7399639 24 18060125532547013290

>  <PUBCHEM_SHAPE_MULTIPOLES>  (1) 
529.06
8.09
4.78
1.81
2.51
4.35
-0.13
-9.56
-2.05
0.91
0.15
0.21
1.45
-0.66

>  <PUBCHEM_SHAPE_SELFOVERLAP>  (1) 
1139.397

>  <PUBCHEM_SHAPE_VOLUME>  (1) 
295.3

>  <PUBCHEM_COORDINATE_TYPE>  (1) 
2
5
10

$$$$
