39152
     RDKit          3D

 28 30  0  0  1  0  0  0  0  0999 V2000
    1.1789   -1.2786   -0.6282 O   0  0  0  0  0  0  0  0  0  0  0  0
   -1.2756    0.5269   -2.2457 O   0  0  0  0  0  0  0  0  0  0  0  0
   -0.5381   -0.6266    2.3116 O   0  0  0  0  0  0  0  0  0  0  0  0
    0.6031    5.1355   -0.3345 O   0  0  0  0  0  0  0  0  0  0  0  0
    1.9659   -3.3493   -1.2748 O   0  0  0  0  0  0  0  0  0  0  0  0
    4.1518   -1.5096    0.2600 N   0  0  0  0  0  0  0  0  0  0  0  0
   -1.0716   -0.6764   -0.0990 C   0  0  0  0  0  0  0  0  0  0  0  0
   -0.1368   -1.7962   -0.5346 C   0  0  0  0  0  0  0  0  0  0  0  0
   -0.9739    0.5111   -1.0665 C   0  0  0  0  0  0  0  0  0  0  0  0
   -0.6010   -0.0707    1.2305 C   0  0  0  0  0  0  0  0  0  0  0  0
   -2.4808   -1.1578    0.0073 C   0  0  0  0  0  0  0  0  0  0  0  0
   -0.4431    1.6642   -0.3347 C   0  0  0  0  0  0  0  0  0  0  0  0
   -0.2267    1.3267    0.9978 C   0  0  0  0  0  0  0  0  0  0  0  0
    3.4778   -1.4682   -1.0611 C   0  0  0  0  0  0  0  0  0  0  0  0
   -0.1762    2.9317   -0.8148 C   0  0  0  0  0  0  0  0  0  0  0  0
    2.1496   -2.1684   -1.0127 C   0  0  0  0  0  0  0  0  0  0  0  0
    5.5079   -0.7925    0.2033 C   0  0  0  0  0  0  0  0  0  0  0  0
    3.2938   -0.8230    1.3317 C   0  0  0  0  0  0  0  0  0  0  0  0
    4.3972   -2.9590    0.7021 C   0  0  0  0  0  0  0  0  0  0  0  0
    0.2659    2.2422    1.9075 C   0  0  0  0  0  0  0  0  0  0  0  0
   -3.5002   -0.2619    0.3266 C   0  0  0  0  0  0  0  0  0  0  0  0
   -2.7753   -2.5026   -0.2125 C   0  0  0  0  0  0  0  0  0  0  0  0
    0.3240    3.8710    0.0909 C   0  0  0  0  0  0  0  0  0  0  0  0
    0.5431    3.5294    1.4393 C   0  0  0  0  0  0  0  0  0  0  0  0
   -4.8168   -0.7119    0.4265 C   0  0  0  0  0  0  0  0  0  0  0  0
   -4.0919   -2.9525   -0.1128 C   0  0  0  0  0  0  0  0  0  0  0  0
   -5.1127   -2.0571    0.2067 C   0  0  0  0  0  0  0  0  0  0  0  0
    0.3617    5.4239   -1.7098 C   0  0  0  0  0  0  0  0  0  0  0  0
  1  8  1  0
  1 16  1  0
  2  9  2  0
  3 10  2  0
  4 23  1  0
  4 28  1  0
  5 16  2  0
  6 14  1  0
  6 17  1  0
  6 18  1  0
  6 19  1  0
  7  8  1  0
  7  9  1  0
  7 10  1  0
  7 11  1  0
  9 12  1  0
 10 13  1  0
 11 21  2  0
 11 22  1  0
 12 13  2  0
 12 15  1  0
 13 20  1  0
 14 16  1  0
 15 23  2  0
 20 24  2  0
 21 25  1  0
 22 26  2  0
 23 24  1  0
 25 27  2  0
 26 27  1  0
M  CHG  1   6   1
M  END
>  <PUBCHEM_COMPOUND_CID>  (1) 
39152

>  <PUBCHEM_CONFORMER_RMSD>  (1) 
0.8

>  <PUBCHEM_CONFORMER_DIVERSEORDER>  (1) 
1
125
126
18
101
19
24
93
114
30
85
72
50
84
55
100
54
37
67
83
28
59
108
57
40
81
34
58
56
119
10
21
92
47
74
44
68
20
9
120
97
16
66
62
45
51
73
43
128
103
25
122
42
113
105
15
41
71
116
86
3
124
61
14
98
107
29
5
96
117
127
109
70
112
77
33
23
79
11
22
48
123
94
121
52
106
110
90
78
64
13
6
17
104
26
2
82
31
69
49
39
88
4
65
95
75
27
91
38
118
115
130
99
53
60
36
80
76
87
63
129
35
32
7
46
12
102
8
89
111

>  <PUBCHEM_MMFF94_PARTIAL_CHARGES>  (1) 
36
1 -0.43
10 0.42
11 -0.14
12 0.09
13 0.09
14 0.56
15 -0.15
16 0.66
17 0.5
18 0.5
19 0.5
2 -0.57
20 -0.15
21 -0.15
22 -0.15
23 0.08
24 -0.15
25 -0.15
26 -0.15
27 -0.15
28 0.28
3 -0.57
33 0.15
4 -0.36
43 0.15
44 0.15
45 0.15
46 0.15
47 0.15
48 0.15
49 0.15
5 -0.57
6 -1.01
7 0.27
8 0.28
9 0.42

>  <PUBCHEM_EFFECTIVE_ROTOR_COUNT>  (1) 
7.2

>  <PUBCHEM_PHARMACOPHORE_FEATURES>  (1) 
8
1 2 acceptor
1 3 acceptor
1 4 acceptor
1 5 acceptor
1 6 cation
5 7 9 10 12 13 rings
6 11 21 22 25 26 27 rings
6 12 13 15 20 23 24 rings

>  <PUBCHEM_HEAVY_ATOM_COUNT>  (1) 
28

>  <PUBCHEM_ATOM_DEF_STEREO_COUNT>  (1) 
0

>  <PUBCHEM_ATOM_UDEF_STEREO_COUNT>  (1) 
1

>  <PUBCHEM_BOND_DEF_STEREO_COUNT>  (1) 
0

>  <PUBCHEM_BOND_UDEF_STEREO_COUNT>  (1) 
0

>  <PUBCHEM_ISOTOPIC_ATOM_COUNT>  (1) 
0

>  <PUBCHEM_COMPONENT_COUNT>  (1) 
1

>  <PUBCHEM_CACTVS_TAUTO_COUNT>  (1) 
1

>  <PUBCHEM_CONFORMER_ID>  (1) 
000098F000000001

>  <PUBCHEM_MMFF94_ENERGY>  (1) 
100.1035

>  <PUBCHEM_FEATURE_SELFOVERLAP>  (1) 
40.678

>  <PUBCHEM_SHAPE_FINGERPRINT>  (1) 
10670039 82 18269854055925313156
11045515 52 18409167688505214312
11833330 49 18265338317660196785
11963148 33 17188401115603532871
12156800 1 15551399554911103536
12173636 292 17690001132953943367
12788726 201 18117007593387373338
13004483 165 18268995284829342731
133893 2 18051155853514186241
15439362 3 18048311438624496865
15927050 60 17406837757750423206
167882 2 17977389656766149877
17899979 19 18192157203776895420
17980427 23 17346609534780442409
1813 80 18411703196694727339
18785283 64 18194688296274940315
20600515 1 18270697367652014543
20739085 24 18270680982066826704
21304303 282 17398917528438931404
23366157 5 18120935268107545999
23419403 2 18044068345653069023
23557571 272 18340207367394659542
23559900 14 18198615717829679427
3187 122 18339629054406134576
3380486 145 18266474122078219835
3493558 16 17775012245478099897
4409770 3 17974560304632437485
469060 322 18340782446451295570
7399639 24 18200013102655901106
81228 2 18052002249681715643
9981440 41 17266056967519505642

>  <PUBCHEM_SHAPE_MULTIPOLES>  (1) 
541.9
7.86
6.18
1.63
0.92
9.63
-0.16
-10.82
-0.97
-3.87
1.92
-0.46
0.84
0.03

>  <PUBCHEM_SHAPE_SELFOVERLAP>  (1) 
1171.835

>  <PUBCHEM_SHAPE_VOLUME>  (1) 
301

>  <PUBCHEM_COORDINATE_TYPE>  (1) 
2
5
10

$$$$
