39158
     RDKit          3D

 27 29  0  0  1  0  0  0  0  0999 V2000
    1.1220    5.3810   -1.0652 Cl  0  0  0  0  0  0  0  0  0  0  0  0
    1.1666   -1.1921    0.5390 O   0  0  0  0  0  0  0  0  0  0  0  0
   -0.4970    0.1268   -2.1805 O   0  0  0  0  0  0  0  0  0  0  0  0
   -1.3577    0.1471    2.4995 O   0  0  0  0  0  0  0  0  0  0  0  0
    1.9716   -3.3486    0.7015 O   0  0  0  0  0  0  0  0  0  0  0  0
    4.1946   -1.2649   -0.3259 N   0  0  0  0  0  0  0  0  0  0  0  0
   -1.0851   -0.5045    0.1335 C   0  0  0  0  0  0  0  0  0  0  0  0
   -0.1417   -1.6863    0.3115 C   0  0  0  0  0  0  0  0  0  0  0  0
   -0.5948    0.4071   -0.9999 C   0  0  0  0  0  0  0  0  0  0  0  0
   -1.0287    0.4175    1.3592 C   0  0  0  0  0  0  0  0  0  0  0  0
   -2.4836   -0.9613   -0.1221 C   0  0  0  0  0  0  0  0  0  0  0  0
   -0.2472    1.7112   -0.4297 C   0  0  0  0  0  0  0  0  0  0  0  0
   -0.4991    1.7174    0.9387 C   0  0  0  0  0  0  0  0  0  0  0  0
    3.4623   -1.4550    0.9504 C   0  0  0  0  0  0  0  0  0  0  0  0
    5.5404   -0.5672   -0.0842 C   0  0  0  0  0  0  0  0  0  0  0  0
    4.4721   -2.6151   -1.0015 C   0  0  0  0  0  0  0  0  0  0  0  0
    3.3791   -0.4031   -1.2999 C   0  0  0  0  0  0  0  0  0  0  0  0
    2.1439   -2.1375    0.7209 C   0  0  0  0  0  0  0  0  0  0  0  0
   -3.4844   -0.0261   -0.3813 C   0  0  0  0  0  0  0  0  0  0  0  0
   -2.7861   -2.3220   -0.1012 C   0  0  0  0  0  0  0  0  0  0  0  0
    0.2519    2.8227   -1.0807 C   0  0  0  0  0  0  0  0  0  0  0  0
   -0.2629    2.8353    1.7151 C   0  0  0  0  0  0  0  0  0  0  0  0
    0.4983    3.9628   -0.3110 C   0  0  0  0  0  0  0  0  0  0  0  0
    0.2434    3.9691    1.0739 C   0  0  0  0  0  0  0  0  0  0  0  0
   -4.7908   -0.4525   -0.6202 C   0  0  0  0  0  0  0  0  0  0  0  0
   -4.0925   -2.7483   -0.3403 C   0  0  0  0  0  0  0  0  0  0  0  0
   -5.0949   -1.8135   -0.5997 C   0  0  0  0  0  0  0  0  0  0  0  0
  1 23  1  0
  2  8  1  0
  2 18  1  0
  3  9  2  0
  4 10  2  0
  5 18  2  0
  6 14  1  0
  6 15  1  0
  6 16  1  0
  6 17  1  0
  7  8  1  0
  7  9  1  0
  7 10  1  0
  7 11  1  0
  9 12  1  0
 10 13  1  0
 11 19  2  0
 11 20  1  0
 12 13  2  0
 12 21  1  0
 13 22  1  0
 14 18  1  0
 19 25  1  0
 20 26  2  0
 21 23  2  0
 22 24  2  0
 23 24  1  0
 25 27  2  0
 26 27  1  0
M  CHG  1   6   1
M  END
>  <PUBCHEM_COMPOUND_CID>  (1) 
39158

>  <PUBCHEM_CONFORMER_RMSD>  (1) 
0.8

>  <PUBCHEM_CONFORMER_DIVERSEORDER>  (1) 
2
15
82
65
35
56
85
73
84
62
54
24
34
18
77
22
51
12
16
69
6
86
31
36
28
45
38
58
59
1
41
43
19
71
13
87
79
60
39
57
50
75
8
63
30
53
23
83
17
7
11
40
20
49
47
9
27
4
88
70
81
33
76
55
29
26
80
21
89
48
3
52
42
68
46
78
10
64
5
32
25
14
72
66
61
44
74
37
67

>  <PUBCHEM_MMFF94_PARTIAL_CHARGES>  (1) 
35
1 -0.18
10 0.42
11 -0.14
12 0.09
13 0.09
14 0.56
15 0.5
16 0.5
17 0.5
18 0.66
19 -0.15
2 -0.43
20 -0.15
21 -0.15
22 -0.15
23 0.18
24 -0.15
25 -0.15
26 -0.15
27 -0.15
3 -0.57
4 -0.57
41 0.15
42 0.15
43 0.15
44 0.15
45 0.15
46 0.15
47 0.15
48 0.15
5 -0.57
6 -1.01
7 0.27
8 0.28
9 0.42

>  <PUBCHEM_EFFECTIVE_ROTOR_COUNT>  (1) 
6.2

>  <PUBCHEM_PHARMACOPHORE_FEATURES>  (1) 
7
1 3 acceptor
1 4 acceptor
1 5 acceptor
1 6 cation
5 7 9 10 12 13 rings
6 11 19 20 25 26 27 rings
6 12 13 21 22 23 24 rings

>  <PUBCHEM_HEAVY_ATOM_COUNT>  (1) 
27

>  <PUBCHEM_ATOM_DEF_STEREO_COUNT>  (1) 
0

>  <PUBCHEM_ATOM_UDEF_STEREO_COUNT>  (1) 
1

>  <PUBCHEM_BOND_DEF_STEREO_COUNT>  (1) 
0

>  <PUBCHEM_BOND_UDEF_STEREO_COUNT>  (1) 
0

>  <PUBCHEM_ISOTOPIC_ATOM_COUNT>  (1) 
0

>  <PUBCHEM_COMPONENT_COUNT>  (1) 
1

>  <PUBCHEM_CACTVS_TAUTO_COUNT>  (1) 
1

>  <PUBCHEM_CONFORMER_ID>  (1) 
000098F600000002

>  <PUBCHEM_MMFF94_ENERGY>  (1) 
86.2446

>  <PUBCHEM_FEATURE_SELFOVERLAP>  (1) 
35.602

>  <PUBCHEM_SHAPE_FINGERPRINT>  (1) 
10369192 42 17057773443844335994
10670039 82 18338249176768146188
10871710 139 18192732071857848372
11045515 52 18335983090658968037
11763715 3 18192737582200766830
12156800 1 16084418581458532172
12173636 292 17689704273467681622
12788726 201 18044086852551278115
13004483 165 18266168427617805931
133893 2 18124055660526914649
13590594 115 18336552625557416289
14347332 77 18194398888700154718
14910302 57 17772481084112683086
14955137 171 18266482978353973619
15230672 131 17325489299645023612
15439362 3 18048028859799181741
15664445 248 18341059587674324126
15927050 60 17546731916281678742
167882 2 17975414925435388340
17980427 23 17561091297922763201
17980427 26 17340111656957167301
1813 80 18202289116857079287
19930381 70 18336825394344851600
20028762 73 15819045247893818047
20600515 1 18272381845019189615
20642791 239 18334580156945555409
21049683 271 18188494691498898463
21120745 212 18198640860098458748
21304303 282 16894779343896396364
21452121 71 18409732884969306315
22907989 373 18053935152552588182
23352939 185 18412824694175344785
23366157 5 18045203089114052811
23419403 2 17915716787123793233
23557571 272 18341890728323551510
23558518 356 17685771320275614995
23559900 14 18266726056512753719
283562 15 18264769870286261106
3178227 256 18266753381627746745
3298306 158 17691975181770637156
4017518 198 17693942204548472652
469060 322 18409731721159724968
532947 4 18121500412810406532
6443956 14 18339076107025545272
6669772 16 17763188341998186036
70251023 43 18339368461597619338
7164475 11 18120365459086442122
7399639 24 18059560374959380786

>  <PUBCHEM_SHAPE_MULTIPOLES>  (1) 
529.06
8.15
5.64
1.55
0.2
7.79
-0.32
-9.8
2.4
-4.03
0.44
-0.15
0.68
-0.57

>  <PUBCHEM_SHAPE_SELFOVERLAP>  (1) 
1138.157

>  <PUBCHEM_SHAPE_VOLUME>  (1) 
296.1

>  <PUBCHEM_COORDINATE_TYPE>  (1) 
2
5
10

$$$$
