39168
     RDKit          3D

 31 30  0  0  0  0  0  0  0  0999 V2000
    0.7343   -2.2825   -1.2588 F   0  0  0  0  0  0  0  0  0  0  0  0
    1.9678   -0.6031   -1.8449 F   0  0  0  0  0  0  0  0  0  0  0  0
    2.6776   -1.8777    0.4289 F   0  0  0  0  0  0  0  0  0  0  0  0
    0.7403   -1.5167    1.3210 F   0  0  0  0  0  0  0  0  0  0  0  0
   -0.5382   -0.2395   -2.5214 F   0  0  0  0  0  0  0  0  0  0  0  0
    0.1057    1.1735   -1.0090 F   0  0  0  0  0  0  0  0  0  0  0  0
    2.6000    0.0568    2.2894 F   0  0  0  0  0  0  0  0  0  0  0  0
    1.0895    1.1653    1.1947 F   0  0  0  0  0  0  0  0  0  0  0  0
   -1.1447   -0.2439    0.9309 F   0  0  0  0  0  0  0  0  0  0  0  0
   -1.7950   -1.7321   -0.5157 F   0  0  0  0  0  0  0  0  0  0  0  0
    2.7805    1.5083   -0.9113 F   0  0  0  0  0  0  0  0  0  0  0  0
    3.4945    2.2194    1.0121 F   0  0  0  0  0  0  0  0  0  0  0  0
    5.4332    1.1345   -0.5760 F   0  0  0  0  0  0  0  0  0  0  0  0
    5.1130    0.0083    1.2661 F   0  0  0  0  0  0  0  0  0  0  0  0
    4.3587   -0.7626   -0.6220 F   0  0  0  0  0  0  0  0  0  0  0  0
   -2.5688    1.3906   -1.5350 O   0  0  0  0  0  0  0  0  0  0  0  0
   -4.7271   -3.0771    1.3167 O   0  0  0  0  0  0  0  0  0  0  0  0
   -6.1039    3.1281    0.4868 O   0  0  0  0  0  0  0  0  0  0  0  0
   -3.8459    0.2576    0.0247 N   0  0  0  0  0  0  0  0  0  0  0  0
    1.0185   -0.9868   -0.9448 C   0  0  0  0  0  0  0  0  0  0  0  0
    1.6420   -0.9898    0.4443 C   0  0  0  0  0  0  0  0  0  0  0  0
   -0.2235   -0.1359   -1.1977 C   0  0  0  0  0  0  0  0  0  0  0  0
    2.1461    0.3227    1.0288 C   0  0  0  0  0  0  0  0  0  0  0  0
   -1.4836   -0.4145   -0.3826 C   0  0  0  0  0  0  0  0  0  0  0  0
    3.2374    1.0874    0.2944 C   0  0  0  0  0  0  0  0  0  0  0  0
   -2.6742    0.4851   -0.7036 C   0  0  0  0  0  0  0  0  0  0  0  0
    4.5486    0.3679    0.0959 C   0  0  0  0  0  0  0  0  0  0  0  0
   -4.0341   -0.8094    1.0028 C   0  0  0  0  0  0  0  0  0  0  0  0
   -5.0038    1.1158   -0.1927 C   0  0  0  0  0  0  0  0  0  0  0  0
   -4.5761   -2.0621    0.3330 C   0  0  0  0  0  0  0  0  0  0  0  0
   -4.9687    2.3123    0.7447 C   0  0  0  0  0  0  0  0  0  0  0  0
  1 20  1  0
  2 20  1  0
  3 21  1  0
  4 21  1  0
  5 22  1  0
  6 22  1  0
  7 23  1  0
  8 23  1  0
  9 24  1  0
 10 24  1  0
 11 25  1  0
 12 25  1  0
 13 27  1  0
 14 27  1  0
 15 27  1  0
 16 26  2  0
 17 30  1  0
 18 31  1  0
 19 26  1  0
 19 28  1  0
 19 29  1  0
 20 21  1  0
 20 22  1  0
 21 23  1  0
 22 24  1  0
 23 25  1  0
 24 26  1  0
 25 27  1  0
 28 30  1  0
 29 31  1  0
M  END
>  <PUBCHEM_COMPOUND_CID>  (1) 
39168

>  <PUBCHEM_CONFORMER_RMSD>  (1) 
1.2

>  <PUBCHEM_CONFORMER_DIVERSEORDER>  (1) 
1
160
70
155
171
163
34
222
250
95
79
126
49
192
71
257
255
167
69
128
83
269
61
240
119
67
131
118
211
41
226
138
248
265
194
39
176
99
114
231
150
241
210
51
239
60
63
110
214
38
227
122
198
130
201
7
212
164
182
143
238
115
147
96
216
74
207
154
19
27
203
65
91
268
97
235
158
4
139
185
234
25
264
215
175
232
54
233
28
77
59
206
243
121
37
85
209
127
120
43
22
258
87
13
247
113
193
162
66
179
48
266
142
245
148
151
105
204
180
259
219
246
161
195
157
199
42
94
17
244
124
260
251
141
93
111
137
80
135
188
202
125
225
12
218
181
107
236
40
8
103
165
117
84
56
134
256
132
86
58
217
159
183
55
10
270
174
89
92
228
16
98
144
104
146
133
213
187
190
230
200
29
112
242
208
47
224
53
35
177
108
6
153
178
101
116
267
30
62
205
82
186
156
249
15
166
44
169
24
262
3
261
78
129
196
102
9
73
140
50
76
72
263
68
109
45
106
26
184
145
253
33
57
64
197
252
149
123
52
191
31
168
220
237
36
46
32
221
90
20
172
14
5
189
170
254
173
152
21
88
18
2
11
23
223
75
229
100
81
136

>  <PUBCHEM_MMFF94_PARTIAL_CHARGES>  (1) 
33
1 -0.34
10 -0.34
11 -0.34
12 -0.34
13 -0.34
14 -0.34
15 -0.34
16 -0.57
17 -0.68
18 -0.68
19 -0.66
2 -0.34
20 0.68
21 0.68
22 0.68
23 0.68
24 0.74
25 0.68
26 0.57
27 1.02
28 0.3
29 0.3
3 -0.34
30 0.28
31 0.28
4 -0.34
40 0.4
41 0.4
5 -0.34
6 -0.34
7 -0.34
8 -0.34
9 -0.34

>  <PUBCHEM_EFFECTIVE_ROTOR_COUNT>  (1) 
12

>  <PUBCHEM_PHARMACOPHORE_FEATURES>  (1) 
5
1 16 acceptor
1 17 acceptor
1 17 donor
1 18 acceptor
1 18 donor

>  <PUBCHEM_HEAVY_ATOM_COUNT>  (1) 
31

>  <PUBCHEM_ATOM_DEF_STEREO_COUNT>  (1) 
0

>  <PUBCHEM_ATOM_UDEF_STEREO_COUNT>  (1) 
0

>  <PUBCHEM_BOND_DEF_STEREO_COUNT>  (1) 
0

>  <PUBCHEM_BOND_UDEF_STEREO_COUNT>  (1) 
0

>  <PUBCHEM_ISOTOPIC_ATOM_COUNT>  (1) 
0

>  <PUBCHEM_COMPONENT_COUNT>  (1) 
1

>  <PUBCHEM_CACTVS_TAUTO_COUNT>  (1) 
1

>  <PUBCHEM_CONFORMER_ID>  (1) 
0000990000000001

>  <PUBCHEM_MMFF94_ENERGY>  (1) 
34.9265

>  <PUBCHEM_FEATURE_SELFOVERLAP>  (1) 
25.373

>  <PUBCHEM_SHAPE_FINGERPRINT>  (1) 
10366900 7 16660922282996870360
10498660 4 16486961895936861073
10948715 1 18271804665844442814
11370993 144 18337671902254968343
11405975 8 18337389340672722163
11552529 35 18337666520845809803
11595378 159 16805883970656964533
12011746 2 10881671391948975808
12403259 118 18341042003851367145
12403259 415 17988643046718051104
12633257 1 18114168710315101377
13224815 77 17894624868436906047
13544653 18 13984648257287474446
13583140 156 18131631201590710931
14178342 30 18187654604797302671
14341114 176 18260549970053847604
14341114 328 17967811652147296777
14787075 74 17386007333615222908
14863182 85 13984948364212202120
15183329 4 14548742794029594836
15238133 3 18201145560387129864
15788980 27 17346880061215621653
1601671 61 18342174449362455624
16945 1 17696723899650397126
17349148 13 16371007446668343699
17980427 23 17822018644098371047
1813 80 15864075342833959703
18222031 100 15936960946537143086
19862831 5 16415476077640628960
200 152 14562518613921440343
21033648 29 17988915682905189985
21756936 100 18201146754451224196
22393880 68 15912745238381431733
231179 274 17418092109273695221
23557571 272 18412550924971343283
23559900 14 18268438940345465767
392239 28 17313379050098490272
463206 1 8213268842650275649
5104073 3 18334568044900391392
633830 44 18341884221184126692
6442390 28 18261108642726595434
9981440 41 13968562552835227586

>  <PUBCHEM_SHAPE_MULTIPOLES>  (1) 
506.27
11.54
2.47
1.6
4.62
0.05
-0.23
-4.57
3.16
3.6
0.56
-0.48
0.16
0.66

>  <PUBCHEM_SHAPE_SELFOVERLAP>  (1) 
1068.901

>  <PUBCHEM_SHAPE_VOLUME>  (1) 
279.9

>  <PUBCHEM_COORDINATE_TYPE>  (1) 
2
5
10

$$$$
