39164
     RDKit          3D

 20 22  0  0  0  0  0  0  0  0999 V2000
    2.5392    1.6872   -0.2894 O   0  0  0  0  0  0  0  0  0  0  0  0
   -5.3420    0.2341   -0.1830 N   0  0  0  0  0  0  0  0  0  0  0  0
    0.7500   -0.5561   -0.4691 N   0  0  0  0  0  0  0  0  0  0  0  0
    0.1531   -0.4613    0.6324 N   0  0  0  0  0  0  0  0  0  0  0  0
    4.3183    0.3285    0.0151 C   0  0  0  0  0  0  0  0  0  0  0  0
   -3.9577    0.0586    0.0223 C   0  0  0  0  0  0  0  0  0  0  0  0
    2.9432    0.3898   -0.1855 C   0  0  0  0  0  0  0  0  0  0  0  0
    2.1145   -0.7279   -0.2659 C   0  0  0  0  0  0  0  0  0  0  0  0
   -3.4276   -1.2260    0.1433 C   0  0  0  0  0  0  0  0  0  0  0  0
   -3.1184    1.1699    0.1042 C   0  0  0  0  0  0  0  0  0  0  0  0
    4.9223   -0.9340    0.1467 C   0  0  0  0  0  0  0  0  0  0  0  0
   -1.2264   -0.2874    0.4275 C   0  0  0  0  0  0  0  0  0  0  0  0
    4.7661    1.6758    0.0324 C   0  0  0  0  0  0  0  0  0  0  0  0
    2.7361   -1.9732   -0.1323 C   0  0  0  0  0  0  0  0  0  0  0  0
   -2.0586   -1.3994    0.3465 C   0  0  0  0  0  0  0  0  0  0  0  0
   -1.7494    0.9964    0.3074 C   0  0  0  0  0  0  0  0  0  0  0  0
    4.1145   -2.0770    0.0707 C   0  0  0  0  0  0  0  0  0  0  0  0
   -6.1120   -0.7695   -0.8905 C   0  0  0  0  0  0  0  0  0  0  0  0
   -6.0152    1.4138    0.3232 C   0  0  0  0  0  0  0  0  0  0  0  0
    3.6501    2.4578   -0.1561 C   0  0  0  0  0  0  0  0  0  0  0  0
  1  7  1  0
  1 20  1  0
  2  6  1  0
  2 18  1  0
  2 19  1  0
  3  4  2  0
  3  8  1  0
  4 12  1  0
  5  7  2  0
  5 11  1  0
  5 13  1  0
  6  9  2  0
  6 10  1  0
  7  8  1  0
  8 14  2  0
  9 15  1  0
 10 16  2  0
 11 17  2  0
 12 15  2  0
 12 16  1  0
 13 20  2  0
 14 17  1  0
M  END
>  <PUBCHEM_COMPOUND_CID>  (1) 
39164

>  <PUBCHEM_CONFORMER_RMSD>  (1) 
0.6

>  <PUBCHEM_CONFORMER_DIVERSEORDER>  (1) 
1
2
5
6
3
4

>  <PUBCHEM_MMFF94_PARTIAL_CHARGES>  (1) 
28
1 -0.28
10 -0.15
11 -0.15
12 0.18
13 -0.15
14 -0.15
15 -0.15
16 -0.15
17 -0.15
18 0.37
19 0.37
2 -0.84
20 -0.01
21 0.15
22 0.15
23 0.15
24 0.15
25 0.15
26 0.15
27 0.15
28 0.15
3 -0.18
35 0.15
4 -0.18
6 0.1
7 0.14
8 0.18
9 -0.15

>  <PUBCHEM_EFFECTIVE_ROTOR_COUNT>  (1) 
3

>  <PUBCHEM_PHARMACOPHORE_FEATURES>  (1) 
5
1 1 acceptor
1 2 cation
5 1 5 7 13 20 rings
6 5 7 8 11 14 17 rings
6 6 9 10 12 15 16 rings

>  <PUBCHEM_HEAVY_ATOM_COUNT>  (1) 
20

>  <PUBCHEM_ATOM_DEF_STEREO_COUNT>  (1) 
0

>  <PUBCHEM_ATOM_UDEF_STEREO_COUNT>  (1) 
0

>  <PUBCHEM_BOND_DEF_STEREO_COUNT>  (1) 
0

>  <PUBCHEM_BOND_UDEF_STEREO_COUNT>  (1) 
0

>  <PUBCHEM_ISOTOPIC_ATOM_COUNT>  (1) 
0

>  <PUBCHEM_COMPONENT_COUNT>  (1) 
1

>  <PUBCHEM_CACTVS_TAUTO_COUNT>  (1) 
1

>  <PUBCHEM_CONFORMER_ID>  (1) 
000098FC00000001

>  <PUBCHEM_MMFF94_ENERGY>  (1) 
62.718

>  <PUBCHEM_FEATURE_SELFOVERLAP>  (1) 
25.474

>  <PUBCHEM_SHAPE_FINGERPRINT>  (1) 
10411042 1 18050005486002402514
10595046 47 18342737429664971413
10912923 1 17988647380772536979
11089746 13 18261107456914350499
11287383 113 18408887351958737147
11405975 8 18334297565066650267
12107183 9 17764312734360711619
12236239 1 18060418006174852623
12403259 415 17822287946932211629
12403260 363 18340204081358997640
12788726 201 17418104182775165113
13167372 99 18270122310159801729
13167823 11 18413106156225436063
13533116 47 17313657149056658370
14251764 18 18261108570001638936
14341114 176 18409455777726337896
14528608 73 18342739649693669157
15183329 4 18412825759754787665
15196674 1 18410294730973519409
17834072 33 18343017809330258047
17844677 252 18410863127151388777
17959699 21 18409167701590881641
18335252 98 18262243343269288931
18681886 176 18130783452451110322
200 152 18131631179836130627
20157964 124 18410009944355529543
20645477 56 18113620088520064319
20645477 70 18341896264462523702
21033648 29 17312812763150379981
21065198 57 18335424573154189162
21267235 1 18411709750698737274
21859007 373 17459729446397265013
221357 26 18408885101137547660
23402539 116 18342734088359724415
23557571 272 13614525125660056922
23559900 14 18410573989815976130
29717793 49 17846222124746246358
3004659 81 18411700959169506474
335352 9 18409731768931989454
34797466 226 17560810982186386733
351380 180 18409729547389177817
3545911 37 18408606971961154092
4073 2 18040722518774581482
4214541 1 18410294679412819345
4325135 7 18271804644717662333
474 4 18041001799270611324
5104073 3 18335424581712281187
5283173 99 18262511499441638357
542803 24 18413671301223175939
59755656 215 18408609162921976534
67856867 119 18341044198811504168
7495541 125 17703782648114945683
77779 3 18410295817310309370
8272917 22 18412266121268695998
9709674 26 18410865355976301426
9971528 1 17894633651634223916

>  <PUBCHEM_SHAPE_MULTIPOLES>  (1) 
390.78
14.43
2.16
0.71
12.15
0.37
0.02
1.94
1.18
-2.32
0.02
0.28
-0.04
-0.45

>  <PUBCHEM_SHAPE_SELFOVERLAP>  (1) 
856.158

>  <PUBCHEM_SHAPE_VOLUME>  (1) 
214.9

>  <PUBCHEM_COORDINATE_TYPE>  (1) 
2
5
10

$$$$
