39169
     RDKit          3D

 18 19  0  0  0  0  0  0  0  0999 V2000
    0.0663   -2.6881   -0.8567 Cl  0  0  0  0  0  0  0  0  0  0  0  0
    0.0678    2.6890   -0.8555 Cl  0  0  0  0  0  0  0  0  0  0  0  0
    2.9785    2.7210    0.3907 Cl  0  0  0  0  0  0  0  0  0  0  0  0
    2.9768   -2.7219    0.3901 Cl  0  0  0  0  0  0  0  0  0  0  0  0
    4.4280   -0.0010    1.0121 Cl  0  0  0  0  0  0  0  0  0  0  0  0
   -0.9948    0.0007   -1.3108 O   0  0  0  0  0  0  0  0  0  0  0  0
    0.2782    0.0003   -0.7654 C   0  0  0  0  0  0  0  0  0  0  0  0
    0.9022   -1.2078   -0.4982 C   0  0  0  0  0  0  0  0  0  0  0  0
    0.9028    1.2081   -0.4976 C   0  0  0  0  0  0  0  0  0  0  0  0
   -2.0509    0.0007   -0.4525 C   0  0  0  0  0  0  0  0  0  0  0  0
    2.1850    1.2078    0.0516 C   0  0  0  0  0  0  0  0  0  0  0  0
    2.1842   -1.2082    0.0511 C   0  0  0  0  0  0  0  0  0  0  0  0
    2.8258   -0.0005    0.3260 C   0  0  0  0  0  0  0  0  0  0  0  0
   -1.8305    0.0003    0.9249 C   0  0  0  0  0  0  0  0  0  0  0  0
   -3.3540    0.0007   -0.9503 C   0  0  0  0  0  0  0  0  0  0  0  0
   -2.9130   -0.0005    1.8044 C   0  0  0  0  0  0  0  0  0  0  0  0
   -4.4365    0.0000   -0.0706 C   0  0  0  0  0  0  0  0  0  0  0  0
   -4.2159   -0.0006    1.3068 C   0  0  0  0  0  0  0  0  0  0  0  0
  1  8  1  0
  2  9  1  0
  3 11  1  0
  4 12  1  0
  5 13  1  0
  6  7  1  0
  6 10  1  0
  7  8  2  0
  7  9  1  0
  8 12  1  0
  9 11  2  0
 10 14  2  0
 10 15  1  0
 11 13  1  0
 12 13  2  0
 14 16  1  0
 15 17  2  0
 16 18  2  0
 17 18  1  0
M  END
>  <PUBCHEM_COMPOUND_CID>  (1) 
39169

>  <PUBCHEM_CONFORMER_RMSD>  (1) 
0.6

>  <PUBCHEM_CONFORMER_DIVERSEORDER>  (1) 
1
2

>  <PUBCHEM_MMFF94_PARTIAL_CHARGES>  (1) 
23
1 -0.18
10 0.08
11 0.18
12 0.18
13 0.18
14 -0.15
15 -0.15
16 -0.15
17 -0.15
18 -0.15
19 0.15
2 -0.18
20 0.15
21 0.15
22 0.15
23 0.15
3 -0.18
4 -0.18
5 -0.18
6 -0.17
7 0.08
8 0.18
9 0.18

>  <PUBCHEM_EFFECTIVE_ROTOR_COUNT>  (1) 
2

>  <PUBCHEM_PHARMACOPHORE_FEATURES>  (1) 
3
1 6 acceptor
6 10 14 15 16 17 18 rings
6 7 8 9 11 12 13 rings

>  <PUBCHEM_HEAVY_ATOM_COUNT>  (1) 
18

>  <PUBCHEM_ATOM_DEF_STEREO_COUNT>  (1) 
0

>  <PUBCHEM_ATOM_UDEF_STEREO_COUNT>  (1) 
0

>  <PUBCHEM_BOND_DEF_STEREO_COUNT>  (1) 
0

>  <PUBCHEM_BOND_UDEF_STEREO_COUNT>  (1) 
0

>  <PUBCHEM_ISOTOPIC_ATOM_COUNT>  (1) 
0

>  <PUBCHEM_COMPONENT_COUNT>  (1) 
1

>  <PUBCHEM_CACTVS_TAUTO_COUNT>  (1) 
1

>  <PUBCHEM_CONFORMER_ID>  (1) 
0000990100000001

>  <PUBCHEM_MMFF94_ENERGY>  (1) 
60.8162

>  <PUBCHEM_FEATURE_SELFOVERLAP>  (1) 
15.223

>  <PUBCHEM_SHAPE_FINGERPRINT>  (1) 
10366900 7 18186809079590372776
10493431 412 18122905605977453304
10498660 4 15123241987703292769
10980938 120 18335982081457821596
1100329 8 14514708949020976835
11471102 22 18335422352550277188
11578080 2 12614139006524117383
11582403 64 16236387662363583381
11640471 11 17632306674390333729
11796584 16 16226318218880359306
12011746 2 18335987493311747854
12236239 1 17704067400251819359
12251169 10 18412824689891043666
12390115 104 17764033858451910600
12633257 1 18113911476123000313
12644460 14 18407759253207811760
13134695 92 18334294227887350676
13140716 1 18194108832483223034
13583140 156 16590520541081538012
13965767 371 16769331754784845369
14178342 30 17980464978347060808
14252887 29 18333731286819354066
14386348 63 17676207952936259731
14787075 74 17412736581825240143
14790565 3 17901671789221716516
15209294 21 17632565059733598594
15309172 13 18411418435867328239
15775835 57 17418098715107398633
16752209 62 14274006784758107547
16945 1 18338785776432464118
1813 80 17843135709929708358
18186145 218 18131074830904539151
19049666 15 17822845360767701117
204376 136 18267305524319506272
20600515 1 16805324370672188493
20645477 70 18334846204473832343
20715895 44 17556028979207128993
20739085 24 18198912422533295314
21524375 3 17846216708512820100
22182313 1 18124016954877345710
23184049 59 18412262830785436614
2334 1 17905029706390411204
23557571 272 16950834821855426101
23559900 14 16660640722458371630
25147074 1 18122610924286900908
2748010 2 17979898442428191932
2838139 119 14548151308671915706
31174 14 18408602531044182238
3472631 163 15985109591842025809
4340502 62 18271257096928934187
4409770 3 15823858201124544439
474 4 18202003252249419819
568465 68 17967541176555262699
633830 44 17917445253682975525
77492 1 17703787029081658357
81228 2 17536602802475101981
8272917 22 18343027649126544503

>  <PUBCHEM_SHAPE_MULTIPOLES>  (1) 
373.91
7.52
2.7
1.3
3.68
0
0.29
0
3.06
-3.09
-0.51
0.91
0
0

>  <PUBCHEM_SHAPE_SELFOVERLAP>  (1) 
764.954

>  <PUBCHEM_SHAPE_VOLUME>  (1) 
220.6

>  <PUBCHEM_COORDINATE_TYPE>  (1) 
2
5
10

$$$$
