39167
     RDKit          3D

 23 24  0  0  0  0  0  0  0  0999 V2000
    1.9347   -2.2153    1.9588 Cl  0  0  0  0  0  0  0  0  0  0  0  0
    0.0151    2.3477   -0.1405 Cl  0  0  0  0  0  0  0  0  0  0  0  0
   -0.0409   -2.3581   -0.3804 Cl  0  0  0  0  0  0  0  0  0  0  0  0
   -1.9640    2.0132    2.1341 Cl  0  0  0  0  0  0  0  0  0  0  0  0
    2.6971    2.7647   -1.7711 Cl  0  0  0  0  0  0  0  0  0  0  0  0
    4.6404   -1.8539    0.3543 Cl  0  0  0  0  0  0  0  0  0  0  0  0
   -4.6586    1.7842    0.4722 Cl  0  0  0  0  0  0  0  0  0  0  0  0
    5.0116    0.6496   -1.5142 Cl  0  0  0  0  0  0  0  0  0  0  0  0
   -4.9777   -0.5724   -1.6268 Cl  0  0  0  0  0  0  0  0  0  0  0  0
   -0.0079   -0.0758    1.4994 O   0  0  0  0  0  0  0  0  0  0  0  0
   -2.6410   -2.3348   -1.7849 O   0  0  0  0  0  0  0  0  0  0  0  0
    1.1684    0.0941    0.7933 C   0  0  0  0  0  0  0  0  0  0  0  0
   -1.1655   -0.1792    0.7813 C   0  0  0  0  0  0  0  0  0  0  0  0
    2.1795   -0.8470    0.9166 C   0  0  0  0  0  0  0  0  0  0  0  0
    1.3171    1.2032   -0.0265 C   0  0  0  0  0  0  0  0  0  0  0  0
   -1.3169   -1.2117   -0.1442 C   0  0  0  0  0  0  0  0  0  0  0  0
   -2.1942    0.7436    0.9713 C   0  0  0  0  0  0  0  0  0  0  0  0
   -2.4968   -1.3216   -0.8799 C   0  0  0  0  0  0  0  0  0  0  0  0
    2.5041    1.3748   -0.7390 C   0  0  0  0  0  0  0  0  0  0  0  0
    3.3665   -0.6755    0.2043 C   0  0  0  0  0  0  0  0  0  0  0  0
   -3.3743    0.6338    0.2355 C   0  0  0  0  0  0  0  0  0  0  0  0
    3.5287    0.4354   -0.6237 C   0  0  0  0  0  0  0  0  0  0  0  0
   -3.5254   -0.3989   -0.6901 C   0  0  0  0  0  0  0  0  0  0  0  0
  1 14  1  0
  2 15  1  0
  3 16  1  0
  4 17  1  0
  5 19  1  0
  6 20  1  0
  7 21  1  0
  8 22  1  0
  9 23  1  0
 10 12  1  0
 10 13  1  0
 11 18  1  0
 12 14  2  0
 12 15  1  0
 13 16  2  0
 13 17  1  0
 14 20  1  0
 15 19  2  0
 16 18  1  0
 17 21  2  0
 18 23  2  0
 19 22  1  0
 20 22  2  0
 21 23  1  0
M  END
>  <PUBCHEM_COMPOUND_CID>  (1) 
39167

>  <PUBCHEM_CONFORMER_RMSD>  (1) 
0.6

>  <PUBCHEM_CONFORMER_DIVERSEORDER>  (1) 
1
3
2
4

>  <PUBCHEM_MMFF94_PARTIAL_CHARGES>  (1) 
24
1 -0.18
10 -0.17
11 -0.53
12 0.08
13 0.08
14 0.18
15 0.18
16 0.18
17 0.18
18 0.08
19 0.18
2 -0.18
20 0.18
21 0.18
22 0.18
23 0.18
24 0.45
3 -0.18
4 -0.18
5 -0.18
6 -0.18
7 -0.18
8 -0.18
9 -0.18

>  <PUBCHEM_EFFECTIVE_ROTOR_COUNT>  (1) 
2

>  <PUBCHEM_PHARMACOPHORE_FEATURES>  (1) 
4
1 10 acceptor
1 11 donor
6 12 14 15 19 20 22 rings
6 13 16 17 18 21 23 rings

>  <PUBCHEM_HEAVY_ATOM_COUNT>  (1) 
23

>  <PUBCHEM_ATOM_DEF_STEREO_COUNT>  (1) 
0

>  <PUBCHEM_ATOM_UDEF_STEREO_COUNT>  (1) 
0

>  <PUBCHEM_BOND_DEF_STEREO_COUNT>  (1) 
0

>  <PUBCHEM_BOND_UDEF_STEREO_COUNT>  (1) 
0

>  <PUBCHEM_ISOTOPIC_ATOM_COUNT>  (1) 
0

>  <PUBCHEM_COMPONENT_COUNT>  (1) 
1

>  <PUBCHEM_CACTVS_TAUTO_COUNT>  (1) 
3

>  <PUBCHEM_CONFORMER_ID>  (1) 
000098FF00000001

>  <PUBCHEM_MMFF94_ENERGY>  (1) 
92.4959

>  <PUBCHEM_FEATURE_SELFOVERLAP>  (1) 
20.297

>  <PUBCHEM_SHAPE_FINGERPRINT>  (1) 
10062212 137 18342170051563552571
10165383 225 15792027622820122690
10366900 7 16515401833256205635
10369192 42 15868617580493534308
10906281 52 18041574645583284228
11578080 2 18124279814812648960
11640471 11 18338529594049057229
12035759 4 18411700967395340140
12236239 1 18411419470938531627
12363563 72 15984830371153185582
12553582 1 17988639740083862947
12730499 353 17167580488382511459
12788726 201 18059583502914820593
13009979 54 18342738485778793594
13134695 92 17822010866033923100
13583140 156 17676205741566360907
13782708 43 15792023233279150971
14115302 16 18202843240573274105
14294032 229 17844532103231219425
16752209 62 18060129947393377527
16945 1 17894348861048288104
17349148 13 18060135436060609479
1813 80 17900809467078375346
18186145 218 17167863071349787122
18219364 16 17168437055016358008
19784866 34 17895201038605405136
19862831 5 18339360876183759948
20511986 3 18341316839246306000
20600515 1 17418086586046363688
20645476 183 18409168835435899819
20645477 70 17603873269462941298
20775438 99 16405589484138832879
21033648 29 15719391728948207157
21634736 98 18339086003078471340
23402539 116 17917139516594141569
23419403 2 16326730126091417633
23557571 272 17346303942887229043
23559900 14 17418373601910472848
23598291 2 18337675204942277386
238 59 17604698010167701630
25 1 17676209095671691664
2748010 2 15817063932033786992
3082319 5 18411418444441321482
34934 24 18408327700740724056
4409770 3 15384446006983050663
474 4 17967815002406358324
53917941 68 17971479752493399708
633830 44 17967256386095959890
90525 40 18343033180622506483
9981440 41 17544750592202556880

>  <PUBCHEM_SHAPE_MULTIPOLES>  (1) 
478.42
9.17
2.83
1.81
0.56
0.32
-0.16
0.4
3.42
-1.05
0.32
0.61
0.03
-3

>  <PUBCHEM_SHAPE_SELFOVERLAP>  (1) 
963.622

>  <PUBCHEM_SHAPE_VOLUME>  (1) 
287.3

>  <PUBCHEM_COORDINATE_TYPE>  (1) 
2
5
10

$$$$
