39175
     RDKit          3D

  6  5  0  0  0  0  0  0  0  0999 V2000
    1.9595   -0.4536    0.3336 C   0  0  0  0  0  0  0  0  0  0  0  0
    2.6917    0.7860   -0.1565 C   0  0  0  0  0  0  0  0  0  0  0  0
    0.5953   -0.5629   -0.2825 C   0  0  0  0  0  0  0  0  0  0  0  0
   -0.5094   -0.0285    0.2592 C   0  0  0  0  0  0  0  0  0  0  0  0
   -1.8165   -0.1362   -0.3453 C   0  0  0  0  0  0  0  0  0  0  0  0
   -2.9206    0.3951    0.1915 C   0  0  0  0  0  0  0  0  0  0  0  0
  1  2  1  0
  1  3  1  0
  3  4  2  0
  4  5  1  0
  5  6  2  0
M  END
>  <PUBCHEM_COMPOUND_CID>  (1) 
39175

>  <PUBCHEM_CONFORMER_RMSD>  (1) 
0.4

>  <PUBCHEM_CONFORMER_DIVERSEORDER>  (1) 
2
6
3
5
4
1

>  <PUBCHEM_MMFF94_PARTIAL_CHARGES>  (1) 
10
1 0.14
12 0.15
13 0.15
14 0.15
15 0.15
16 0.15
3 -0.29
4 -0.15
5 -0.15
6 -0.3

>  <PUBCHEM_EFFECTIVE_ROTOR_COUNT>  (1) 
2

>  <PUBCHEM_PHARMACOPHORE_FEATURES>  (1) 
2
1 2 hydrophobe
1 6 hydrophobe

>  <PUBCHEM_HEAVY_ATOM_COUNT>  (1) 
6

>  <PUBCHEM_ATOM_DEF_STEREO_COUNT>  (1) 
0

>  <PUBCHEM_ATOM_UDEF_STEREO_COUNT>  (1) 
0

>  <PUBCHEM_BOND_DEF_STEREO_COUNT>  (1) 
1

>  <PUBCHEM_BOND_UDEF_STEREO_COUNT>  (1) 
0

>  <PUBCHEM_ISOTOPIC_ATOM_COUNT>  (1) 
0

>  <PUBCHEM_COMPONENT_COUNT>  (1) 
1

>  <PUBCHEM_CACTVS_TAUTO_COUNT>  (1) 
1

>  <PUBCHEM_CONFORMER_ID>  (1) 
0000990700000002

>  <PUBCHEM_MMFF94_ENERGY>  (1) 
1.0822

>  <PUBCHEM_FEATURE_SELFOVERLAP>  (1) 
10.149

>  <PUBCHEM_SHAPE_FINGERPRINT>  (1) 
10857977 72 15936413368224142893
14325111 11 18410855468781542823
14390081 3 18343017808908316801
16714656 1 16415760829703773197
20096714 4 18338796818550782276
29004967 10 15213018232628207094
5460574 1 10159696897805287371

>  <PUBCHEM_SHAPE_MULTIPOLES>  (1) 
123.48
4.54
0.84
0.69
0.63
0.05
0
1.11
-0.1
-0.29
0.02
0
-0.01
-0.14

>  <PUBCHEM_SHAPE_SELFOVERLAP>  (1) 
217.619

>  <PUBCHEM_SHAPE_VOLUME>  (1) 
81.3

>  <PUBCHEM_COORDINATE_TYPE>  (1) 
2
5
10

$$$$
