39177
     RDKit          3D

 10  9  0  0  1  0  0  0  0  0999 V2000
    1.9188   -1.5998   -0.7557 O   0  0  0  0  0  0  0  0  0  0  0  0
    1.9116   -0.8756    1.3938 O   0  0  0  0  0  0  0  0  0  0  0  0
   -1.2527   -0.0107   -0.1037 C   0  0  0  0  0  0  0  0  0  0  0  0
   -0.1362    1.0265    0.1601 C   0  0  0  0  0  0  0  0  0  0  0  0
    1.2639    0.6712   -0.3797 C   0  0  0  0  0  0  0  0  0  0  0  0
   -2.5305    0.4410    0.6371 C   0  0  0  0  0  0  0  0  0  0  0  0
   -1.5087   -0.2021   -1.6011 C   0  0  0  0  0  0  0  0  0  0  0  0
    2.3075    1.7371   -0.0589 C   0  0  0  0  0  0  0  0  0  0  0  0
   -3.6960   -0.5297    0.5038 C   0  0  0  0  0  0  0  0  0  0  0  0
    1.7224   -0.6580    0.2043 C   0  0  0  0  0  0  0  0  0  0  0  0
  1 10  1  0
  2 10  2  0
  3  4  1  0
  3  6  1  0
  3  7  1  0
  4  5  1  0
  5  8  1  0
  5 10  1  0
  6  9  1  0
M  END
>  <PUBCHEM_COMPOUND_CID>  (1) 
39177

>  <PUBCHEM_CONFORMER_RMSD>  (1) 
0.6

>  <PUBCHEM_CONFORMER_DIVERSEORDER>  (1) 
2
10
35
47
13
45
33
20
46
43
28
16
39
36
15
44
40
23
38
49
12
3
42
26
18
37
9
25
31
27
1
34
14
41
48
4
24
30
29
7
19
22
17
32
5
11
21
6
8

>  <PUBCHEM_MMFF94_PARTIAL_CHARGES>  (1) 
5
1 -0.65
10 0.66
2 -0.57
26 0.5
5 0.06

>  <PUBCHEM_EFFECTIVE_ROTOR_COUNT>  (1) 
4

>  <PUBCHEM_PHARMACOPHORE_FEATURES>  (1) 
7
1 1 acceptor
1 2 acceptor
1 7 hydrophobe
1 8 hydrophobe
1 9 hydrophobe
3 1 2 10 anion
4 3 4 5 6 hydrophobe

>  <PUBCHEM_HEAVY_ATOM_COUNT>  (1) 
10

>  <PUBCHEM_ATOM_DEF_STEREO_COUNT>  (1) 
0

>  <PUBCHEM_ATOM_UDEF_STEREO_COUNT>  (1) 
2

>  <PUBCHEM_BOND_DEF_STEREO_COUNT>  (1) 
0

>  <PUBCHEM_BOND_UDEF_STEREO_COUNT>  (1) 
0

>  <PUBCHEM_ISOTOPIC_ATOM_COUNT>  (1) 
0

>  <PUBCHEM_COMPONENT_COUNT>  (1) 
1

>  <PUBCHEM_CACTVS_TAUTO_COUNT>  (1) 
1

>  <PUBCHEM_CONFORMER_ID>  (1) 
0000990900000002

>  <PUBCHEM_MMFF94_ENERGY>  (1) 
10.5297

>  <PUBCHEM_FEATURE_SELFOVERLAP>  (1) 
35.753

>  <PUBCHEM_SHAPE_FINGERPRINT>  (1) 
12932764 1 17749113253554622241
15310529 11 18411982485749316429
15775835 57 16773795896283870467
170605 34 18337961215230587056
20201158 50 17603304881701089049
20279233 1 17167858707953106257
20645477 70 18408602561494263631
20653091 64 18261114032725623696
20711978 78 18410008827632371188
20871998 22 18196378026508593270
23235685 24 18262519337318992924
23552333 60 18413675716201877080
23552449 11 18260825981921711784
29004967 10 17967531293819930349
3248919 1 18343297059555899433
5084963 1 17774451464461783539
528862 383 18336828683814851773

>  <PUBCHEM_SHAPE_MULTIPOLES>  (1) 
194.06
4.73
1.42
1.15
3.29
0.02
0.21
-0.29
-0.93
-1.25
0.03
0.19
-0.25
-0.17

>  <PUBCHEM_SHAPE_SELFOVERLAP>  (1) 
356.447

>  <PUBCHEM_SHAPE_VOLUME>  (1) 
124.1

>  <PUBCHEM_COORDINATE_TYPE>  (1) 
2
5
10

$$$$
