39178
     RDKit          3D

  8  7  0  0  0  0  0  0  0  0999 V2000
   -1.4862   -1.7126   -0.0074 Br  0  0  0  0  0  0  0  0  0  0  0  0
   -1.2667    0.9426   -1.4505 Cl  0  0  0  0  0  0  0  0  0  0  0  0
   -1.2676    0.9290    1.4607 Cl  0  0  0  0  0  0  0  0  0  0  0  0
    1.4005    1.1850   -0.0108 F   0  0  0  0  0  0  0  0  0  0  0  0
    1.2631   -0.6902    1.0915 F   0  0  0  0  0  0  0  0  0  0  0  0
    1.2525   -0.7029   -1.0863 F   0  0  0  0  0  0  0  0  0  0  0  0
   -0.7042    0.0799    0.0013 C   0  0  0  0  0  0  0  0  0  0  0  0
    0.8086   -0.0309    0.0015 C   0  0  0  0  0  0  0  0  0  0  0  0
  1  7  1  0
  2  7  1  0
  3  7  1  0
  4  8  1  0
  5  8  1  0
  6  8  1  0
  7  8  1  0
M  END
>  <PUBCHEM_COMPOUND_CID>  (1) 
39178

>  <PUBCHEM_CONFORMER_RMSD>  (1) 
0.4

>  <PUBCHEM_CONFORMER_DIVERSEORDER>  (1) 
1

>  <PUBCHEM_MMFF94_PARTIAL_CHARGES>  (1) 
8
1 -0.23
2 -0.29
3 -0.29
4 -0.34
5 -0.34
6 -0.34
7 0.81
8 1.02

>  <PUBCHEM_EFFECTIVE_ROTOR_COUNT>  (1) 
1

>  <PUBCHEM_PHARMACOPHORE_FEATURES>  (1) 
1
1 1 hydrophobe

>  <PUBCHEM_HEAVY_ATOM_COUNT>  (1) 
8

>  <PUBCHEM_ATOM_DEF_STEREO_COUNT>  (1) 
0

>  <PUBCHEM_ATOM_UDEF_STEREO_COUNT>  (1) 
0

>  <PUBCHEM_BOND_DEF_STEREO_COUNT>  (1) 
0

>  <PUBCHEM_BOND_UDEF_STEREO_COUNT>  (1) 
0

>  <PUBCHEM_ISOTOPIC_ATOM_COUNT>  (1) 
0

>  <PUBCHEM_COMPONENT_COUNT>  (1) 
1

>  <PUBCHEM_CACTVS_TAUTO_COUNT>  (1) 
1

>  <PUBCHEM_CONFORMER_ID>  (1) 
0000990A00000001

>  <PUBCHEM_MMFF94_ENERGY>  (1) 
3.8306

>  <PUBCHEM_FEATURE_SELFOVERLAP>  (1) 
5.074

>  <PUBCHEM_SHAPE_FINGERPRINT>  (1) 
137420 1 9763375178351704891
21040471 1 18193837042088104381
23552333 60 18190456241491100243
24536 1 18131630067038622313
29004967 10 17557435575851761691
5084963 1 18118963839474597276
5943 1 14761520481841900129

>  <PUBCHEM_SHAPE_MULTIPOLES>  (1) 
152.5
2
1.57
1.44
0.19
0.22
-0.01
0.37
0
-0.61
0.01
-0.33
-0.5
0

>  <PUBCHEM_SHAPE_SELFOVERLAP>  (1) 
262.835

>  <PUBCHEM_SHAPE_VOLUME>  (1) 
106.1

>  <PUBCHEM_COORDINATE_TYPE>  (1) 
2
5
10

$$$$
