39180
     RDKit          3D

 26 26  0  0  0  0  0  0  0  0999 V2000
    2.2269    1.8614    0.0477 O   0  0  0  0  0  0  0  0  0  0  0  0
    1.2963   -1.9661   -0.4132 O   0  0  0  0  0  0  0  0  0  0  0  0
    4.1886    2.2548   -1.0910 O   0  0  0  0  0  0  0  0  0  0  0  0
    1.9296   -0.2141   -1.7653 O   0  0  0  0  0  0  0  0  0  0  0  0
   -4.5087    1.4362    0.2633 C   0  0  0  0  0  0  0  0  0  0  0  0
   -5.4170    0.2492   -0.0753 C   0  0  0  0  0  0  0  0  0  0  0  0
   -3.0735    1.1849   -0.2077 C   0  0  0  0  0  0  0  0  0  0  0  0
   -6.8594    0.4137    0.4386 C   0  0  0  0  0  0  0  0  0  0  0  0
   -2.1127    2.3294    0.1282 C   0  0  0  0  0  0  0  0  0  0  0  0
   -0.6833    2.0897   -0.3642 C   0  0  0  0  0  0  0  0  0  0  0  0
    0.2373    3.2513    0.0243 C   0  0  0  0  0  0  0  0  0  0  0  0
   -6.8533    0.5602    1.9624 C   0  0  0  0  0  0  0  0  0  0  0  0
   -7.7612   -0.7544    0.0369 C   0  0  0  0  0  0  0  0  0  0  0  0
    1.6614    3.0517   -0.4827 C   0  0  0  0  0  0  0  0  0  0  0  0
    3.5025    1.5802   -0.3390 C   0  0  0  0  0  0  0  0  0  0  0  0
    3.9745    0.3159    0.2801 C   0  0  0  0  0  0  0  0  0  0  0  0
   -0.9921   -2.6858   -0.2721 C   0  0  0  0  0  0  0  0  0  0  0  0
    3.3169   -0.8929    0.0511 C   0  0  0  0  0  0  0  0  0  0  0  0
   -2.2970   -2.9091   -1.0312 C   0  0  0  0  0  0  0  0  0  0  0  0
    0.0997   -2.1379   -1.1802 C   0  0  0  0  0  0  0  0  0  0  0  0
    5.0988    0.3529    1.1051 C   0  0  0  0  0  0  0  0  0  0  0  0
    2.1399   -0.9640   -0.8048 C   0  0  0  0  0  0  0  0  0  0  0  0
    3.7838   -2.0645    0.6471 C   0  0  0  0  0  0  0  0  0  0  0  0
   -3.3718   -3.4966   -0.1307 C   0  0  0  0  0  0  0  0  0  0  0  0
    5.5655   -0.8189    1.7009 C   0  0  0  0  0  0  0  0  0  0  0  0
    4.9080   -2.0274    1.4719 C   0  0  0  0  0  0  0  0  0  0  0  0
  1 14  1  0
  1 15  1  0
  2 20  1  0
  2 22  1  0
  3 15  2  0
  4 22  2  0
  5  6  1  0
  5  7  1  0
  6  8  1  0
  7  9  1  0
  8 12  1  0
  8 13  1  0
  9 10  1  0
 10 11  1  0
 11 14  1  0
 15 16  1  0
 16 18  2  0
 16 21  1  0
 17 19  1  0
 17 20  1  0
 18 22  1  0
 18 23  1  0
 19 24  1  0
 21 25  2  0
 23 26  2  0
 25 26  1  0
M  END
>  <PUBCHEM_COMPOUND_CID>  (1) 
39180

>  <PUBCHEM_CONFORMER_RMSD>  (1) 
1.2

>  <PUBCHEM_CONFORMER_DIVERSEORDER>  (1) 
2
34
155
108
33
12
22
105
140
66
118
143
52
97
141
159
115
149
76
148
5
46
113
122
166
39
27
58
80
59
53
137
20
43
132
100
13
82
94
50
157
136
62
147
74
71
145
60
102
26
64
89
164
75
72
156
146
67
128
4
119
107
144
112
135
142
36
129
49
86
123
84
134
125
7
61
38
103
151
152
81
40
79
16
87
21
45
150
96
163
124
56
131
69
101
162
99
120
55
109
68
77
92
19
1
57
10
31
78
153
65
25
51
90
3
127
133
28
117
114
63
165
30
42
95
154
88
54
73
111
70
91
11
158
35
116
98
110
160
9
106
121
6
44
48
17
104
83
29
139
93
15
24
18
37
41
8
138
126
32
161
85
47
130
23
14

>  <PUBCHEM_MMFF94_PARTIAL_CHARGES>  (1) 
18
1 -0.43
14 0.28
15 0.63
16 0.09
18 0.09
2 -0.43
20 0.28
21 -0.15
22 0.63
23 -0.15
25 -0.15
26 -0.15
3 -0.57
4 -0.57
54 0.15
55 0.15
59 0.15
60 0.15

>  <PUBCHEM_EFFECTIVE_ROTOR_COUNT>  (1) 
15

>  <PUBCHEM_PHARMACOPHORE_FEATURES>  (1) 
5
1 24 hydrophobe
1 3 acceptor
1 4 acceptor
3 8 12 13 hydrophobe
6 16 18 21 23 25 26 rings

>  <PUBCHEM_HEAVY_ATOM_COUNT>  (1) 
26

>  <PUBCHEM_ATOM_DEF_STEREO_COUNT>  (1) 
0

>  <PUBCHEM_ATOM_UDEF_STEREO_COUNT>  (1) 
0

>  <PUBCHEM_BOND_DEF_STEREO_COUNT>  (1) 
0

>  <PUBCHEM_BOND_UDEF_STEREO_COUNT>  (1) 
0

>  <PUBCHEM_ISOTOPIC_ATOM_COUNT>  (1) 
0

>  <PUBCHEM_COMPONENT_COUNT>  (1) 
1

>  <PUBCHEM_CACTVS_TAUTO_COUNT>  (1) 
1

>  <PUBCHEM_CONFORMER_ID>  (1) 
0000990C00000002

>  <PUBCHEM_MMFF94_ENERGY>  (1) 
44.1851

>  <PUBCHEM_FEATURE_SELFOVERLAP>  (1) 
25.371

>  <PUBCHEM_SHAPE_FINGERPRINT>  (1) 
11578080 2 17487315270300139840
12107183 9 18337663136137813354
12633257 1 18410851070703253686
13111901 25 18338516459901571889
13140716 1 18339629110546410764
14117953 113 18341333288707195677
14178342 30 17765998299136178008
16728300 4 17607787423056945522
16760501 71 18411702101958140607
1979834 28 17846221016296673885
20028762 73 18341329985640617455
21133410 90 17131266995124292883
21197605 99 18412545435544449763
21304304 249 18410290268412925726
338550 245 18264213689491143469
3680242 22 18410294696698333043
373842 8 18410858759233277291
392239 28 18411702067751194543

>  <PUBCHEM_SHAPE_MULTIPOLES>  (1) 
511.59
16.59
4.19
1.32
24.84
0.41
0.31
1.61
8.22
-0.03
-0.9
-0.53
0.32
-1.99

>  <PUBCHEM_SHAPE_SELFOVERLAP>  (1) 
1011.453

>  <PUBCHEM_SHAPE_VOLUME>  (1) 
305.1

>  <PUBCHEM_COORDINATE_TYPE>  (1) 
2
5
10

$$$$
