39188
     RDKit          3D

 24 28  0  0  1  0  0  0  0  0999 V2000
    0.8793   -2.2938   -0.0774 O   0  0  0  0  0  0  0  0  0  0  0  0
   -5.0461    1.8923    1.1227 O   0  0  0  0  0  0  0  0  0  0  0  0
    1.9318    0.2826    0.0882 N   0  0  0  0  0  0  0  0  0  0  0  0
   -0.8929   -0.8378    0.7684 C   0  0  0  0  0  0  0  0  0  0  0  0
   -0.0312   -1.2468   -0.4444 C   0  0  0  0  0  0  0  0  0  0  0  0
    0.7170    0.1006   -0.7101 C   0  0  0  0  0  0  0  0  0  0  0  0
    0.1275   -0.3309    1.9033 C   0  0  0  0  0  0  0  0  0  0  0  0
   -1.6833   -2.0765    1.2642 C   0  0  0  0  0  0  0  0  0  0  0  0
   -0.8730   -1.8778   -1.5823 C   0  0  0  0  0  0  0  0  0  0  0  0
   -1.8376    0.3364    0.2560 C   0  0  0  0  0  0  0  0  0  0  0  0
    1.6729   -0.2336    1.4747 C   0  0  0  0  0  0  0  0  0  0  0  0
   -0.1272    0.9778   -1.6420 C   0  0  0  0  0  0  0  0  0  0  0  0
   -2.5065   -2.7459    0.1568 C   0  0  0  0  0  0  0  0  0  0  0  0
   -1.6657   -3.0885   -1.0720 C   0  0  0  0  0  0  0  0  0  0  0  0
   -1.5028    1.1296   -0.9176 C   0  0  0  0  0  0  0  0  0  0  0  0
    3.1456   -0.2192   -0.5225 C   0  0  0  0  0  0  0  0  0  0  0  0
    4.3346    0.1788    0.2959 C   0  0  0  0  0  0  0  0  0  0  0  0
    4.5223    1.7001    0.4716 C   0  0  0  0  0  0  0  0  0  0  0  0
    5.6753    0.1789   -0.4676 C   0  0  0  0  0  0  0  0  0  0  0  0
   -3.0264    0.6361    0.9349 C   0  0  0  0  0  0  0  0  0  0  0  0
    6.0381    1.4526    0.3241 C   0  0  0  0  0  0  0  0  0  0  0  0
   -2.3873    2.1086   -1.3822 C   0  0  0  0  0  0  0  0  0  0  0  0
   -3.8873    1.6277    0.4559 C   0  0  0  0  0  0  0  0  0  0  0  0
   -3.5771    2.3486   -0.6985 C   0  0  0  0  0  0  0  0  0  0  0  0
  1  5  1  0
  2 23  1  0
  3  6  1  0
  3 11  1  0
  3 16  1  0
  4  5  1  0
  4  7  1  0
  4  8  1  0
  4 10  1  0
  5  6  1  0
  5  9  1  0
  6 12  1  0
  7 11  1  0
  8 13  1  0
  9 14  1  0
 10 15  2  0
 10 20  1  0
 12 15  1  0
 13 14  1  0
 15 22  1  0
 16 17  1  0
 17 18  1  0
 17 19  1  0
 18 21  1  0
 19 21  1  0
 20 23  2  0
 22 24  2  0
 23 24  1  0
M  END
>  <PUBCHEM_COMPOUND_CID>  (1) 
39188

>  <PUBCHEM_CONFORMER_RMSD>  (1) 
0.8

>  <PUBCHEM_CONFORMER_DIVERSEORDER>  (1) 
1

>  <PUBCHEM_MMFF94_PARTIAL_CHARGES>  (1) 
20
1 -0.68
10 -0.14
11 0.27
12 0.14
15 -0.14
16 0.27
2 -0.53
20 -0.15
22 -0.15
23 0.08
24 -0.15
3 -0.81
4 0.14
43 0.4
48 0.15
5 0.28
51 0.15
52 0.15
53 0.45
6 0.27

>  <PUBCHEM_EFFECTIVE_ROTOR_COUNT>  (1) 
4.4

>  <PUBCHEM_PHARMACOPHORE_FEATURES>  (1) 
9
1 1 acceptor
1 1 donor
1 2 donor
1 3 cation
4 17 18 19 21 rings
6 10 15 20 22 23 24 rings
6 3 4 5 6 7 11 rings
6 4 5 6 10 12 15 rings
6 4 5 8 9 13 14 rings

>  <PUBCHEM_HEAVY_ATOM_COUNT>  (1) 
24

>  <PUBCHEM_ATOM_DEF_STEREO_COUNT>  (1) 
3

>  <PUBCHEM_ATOM_UDEF_STEREO_COUNT>  (1) 
0

>  <PUBCHEM_BOND_DEF_STEREO_COUNT>  (1) 
0

>  <PUBCHEM_BOND_UDEF_STEREO_COUNT>  (1) 
0

>  <PUBCHEM_ISOTOPIC_ATOM_COUNT>  (1) 
0

>  <PUBCHEM_COMPONENT_COUNT>  (1) 
1

>  <PUBCHEM_CACTVS_TAUTO_COUNT>  (1) 
3

>  <PUBCHEM_CONFORMER_ID>  (1) 
0000991400000001

>  <PUBCHEM_MMFF94_ENERGY>  (1) 
137.3377

>  <PUBCHEM_FEATURE_SELFOVERLAP>  (1) 
46.575

>  <PUBCHEM_SHAPE_FINGERPRINT>  (1) 
10006869 2 17533480249613844013
10165383 225 18343024359018487913
105312 117 18343303643493071916
10863032 1 18342458093308044279
10948715 1 18339642218290868847
11101153 10 17831017193590430900
11115154 58 17837749481944570223
11315181 36 17386840785821863292
11405975 8 18410285909770018168
11578080 2 18129685048439223462
11961588 58 18341880901163636329
12403814 3 18198065978536212458
12422481 6 18121815882706486379
12788726 201 18263625420384115963
12892183 10 16661209122546080329
12969540 114 18339912727958013140
13004483 165 17909260630786132111
13140716 1 17969236696658356405
13583140 156 17489306451487733736
13994607 96 17203338848142705136
14142880 1 18334849558553003695
14251751 93 18335697273712933760
14713325 29 18339360867652419231
15163728 17 18126287432897906217
15209294 21 17821444651726288136
15534591 1 18260259746471270298
16945 1 17968958430238162543
17093844 174 18272644684966291344
17492 54 17971159657175753069
17980427 23 18114473326907957885
17980427 26 16268314027265775931
20645477 56 18409172095257801876
21033648 29 18337656526098813336
21202864 24 18409451397017945165
21236236 1 18411416254008130607
21756936 100 17821725048961567776
22224240 67 18410300173346352505
23227448 37 18335420205293885420
23419403 2 13032788981233802723
23557571 272 18270406104560822036
23558518 356 17826239772032151116
23559900 14 18060423491792497574
2748010 2 17680720220192554221
283562 15 18194952165928081710
350125 39 18269557319643006576
3729539 64 17837510561260955678
4340502 62 18129678404594210809
469060 322 16515676797009579294
59755656 520 18343584010141198044
633830 44 17701826475142717133
70251023 43 17838884181452937062
9862522 239 18040989605621166141

>  <PUBCHEM_SHAPE_MULTIPOLES>  (1) 
477.19
9.43
2.94
1.52
14.58
1.26
-0.06
-6.86
-1.41
-3.55
0.65
-0.68
0.11
0.1

>  <PUBCHEM_SHAPE_SELFOVERLAP>  (1) 
1034.806

>  <PUBCHEM_SHAPE_VOLUME>  (1) 
257.8

>  <PUBCHEM_COORDINATE_TYPE>  (1) 
2
5
10

$$$$
