39198
     RDKit          3D

 22 23  0  0  1  0  0  0  0  0999 V2000
    1.7002    1.3496    0.2469 O   0  0  0  0  0  0  0  0  0  0  0  0
    1.1611   -0.7779    0.8898 O   0  0  0  0  0  0  0  0  0  0  0  0
   -5.1523    0.3188   -0.8715 O   0  0  0  0  0  0  0  0  0  0  0  0
    5.1998    0.2480   -0.2640 N   0  0  0  0  0  0  0  0  0  0  0  0
   -0.4310    0.6997    0.0166 N   0  0  0  0  0  0  0  0  0  0  0  0
    5.3517   -1.0026    0.4791 C   0  0  0  0  0  0  0  0  0  0  0  0
    6.0190    0.0786   -1.4638 C   0  0  0  0  0  0  0  0  0  0  0  0
    6.8386   -1.2982    0.3496 C   0  0  0  0  0  0  0  0  0  0  0  0
    7.2780   -0.5848   -0.9253 C   0  0  0  0  0  0  0  0  0  0  0  0
    3.8095    0.5428   -0.5776 C   0  0  0  0  0  0  0  0  0  0  0  0
    3.0554    1.1117    0.6267 C   0  0  0  0  0  0  0  0  0  0  0  0
    3.6325    2.4305    1.1251 C   0  0  0  0  0  0  0  0  0  0  0  0
    0.8275    0.3072    0.4296 C   0  0  0  0  0  0  0  0  0  0  0  0
   -1.6255   -0.0559    0.0271 C   0  0  0  0  0  0  0  0  0  0  0  0
   -2.8138    0.5115   -0.4329 C   0  0  0  0  0  0  0  0  0  0  0  0
   -3.9925   -0.2343   -0.4224 C   0  0  0  0  0  0  0  0  0  0  0  0
   -1.6158   -1.3689    0.4977 C   0  0  0  0  0  0  0  0  0  0  0  0
   -6.3648   -0.1460   -0.2802 C   0  0  0  0  0  0  0  0  0  0  0  0
   -7.3917    0.9755   -0.3178 C   0  0  0  0  0  0  0  0  0  0  0  0
   -3.9828   -1.5474    0.0482 C   0  0  0  0  0  0  0  0  0  0  0  0
   -2.7946   -2.1147    0.5083 C   0  0  0  0  0  0  0  0  0  0  0  0
   -8.7085    0.5567    0.3107 C   0  0  0  0  0  0  0  0  0  0  0  0
  1 11  1  0
  1 13  1  0
  2 13  2  0
  3 16  1  0
  3 18  1  0
  4  6  1  0
  4  7  1  0
  4 10  1  0
  5 13  1  0
  5 14  1  0
  6  8  1  0
  7  9  1  0
  8  9  1  0
 10 11  1  0
 11 12  1  0
 14 15  2  0
 14 17  1  0
 15 16  1  0
 16 20  2  0
 17 21  2  0
 18 19  1  0
 19 22  1  0
 20 21  1  0
M  END
>  <PUBCHEM_COMPOUND_CID>  (1) 
39198

>  <PUBCHEM_CONFORMER_RMSD>  (1) 
1

>  <PUBCHEM_CONFORMER_DIVERSEORDER>  (1) 
2
10
57
32
54
38
46
14
44
45
51
61
52
74
17
5
47
73
42
25
58
71
72
48
27
49
28
65
13
62
35
23
31
53
67
56
21
18
15
43
68
34
60
11
37
16
41
40
4
22
9
29
19
24
59
39
69
20
12
64
66
70
3
36
63
1
55
7
30
8
50
26
33
6

>  <PUBCHEM_MMFF94_PARTIAL_CHARGES>  (1) 
22
1 -0.43
10 0.27
11 0.28
13 0.78
14 0.12
15 -0.15
16 0.08
17 -0.15
18 0.28
2 -0.57
20 -0.15
21 -0.15
3 -0.36
37 0.37
38 0.15
39 0.15
4 -0.81
44 0.15
45 0.15
5 -0.55
6 0.27
7 0.27

>  <PUBCHEM_EFFECTIVE_ROTOR_COUNT>  (1) 
10

>  <PUBCHEM_PHARMACOPHORE_FEATURES>  (1) 
7
1 2 acceptor
1 22 hydrophobe
1 3 acceptor
1 4 cation
1 5 donor
5 4 6 7 8 9 rings
6 14 15 16 17 20 21 rings

>  <PUBCHEM_HEAVY_ATOM_COUNT>  (1) 
22

>  <PUBCHEM_ATOM_DEF_STEREO_COUNT>  (1) 
0

>  <PUBCHEM_ATOM_UDEF_STEREO_COUNT>  (1) 
1

>  <PUBCHEM_BOND_DEF_STEREO_COUNT>  (1) 
0

>  <PUBCHEM_BOND_UDEF_STEREO_COUNT>  (1) 
0

>  <PUBCHEM_ISOTOPIC_ATOM_COUNT>  (1) 
0

>  <PUBCHEM_COMPONENT_COUNT>  (1) 
1

>  <PUBCHEM_CACTVS_TAUTO_COUNT>  (1) 
2

>  <PUBCHEM_CONFORMER_ID>  (1) 
0000991E00000002

>  <PUBCHEM_MMFF94_ENERGY>  (1) 
48.6328

>  <PUBCHEM_FEATURE_SELFOVERLAP>  (1) 
35.52

>  <PUBCHEM_SHAPE_FINGERPRINT>  (1) 
10299344 5 18113618976007516079
10670039 82 17895186662960073565
10883706 142 14273454799877512748
11315181 36 18060424641799111339
11408170 108 16558481773139115254
11524674 6 17703790340449495743
11638347 137 13254802326243631980
11724838 91 10159693595286634370
11796584 16 18409735092873030142
12596602 18 13038912118660572838
13668630 136 17275107245063643190
13914758 101 16630251329331534707
13964095 4 18334576836819797557
14123256 10 7925910378912603563
14251732 16 8574714606930395421
14251752 14 18113897143817074502
14251764 18 18333729109666736011
14251764 46 18410012126125023782
14617045 38 18187082840774574035
15183329 4 18411984645859137346
15188451 53 16128379247007369370
15849732 13 16660365879111691495
17834072 8 18410856568604303086
18335252 98 7781518122734164977
20567600 234 9727630601373965002
20621476 8 18342455924929672173
21095086 128 15574714690414408867
21150785 3 16370446648208441292
21267235 1 18260551151929223449
21585482 111 18192149292927619317
220451 1 15936402373255448281
2215653 11 18341893004624206198
22224240 67 8358253735411274420
22896161 15 8358257047305553377
23035841 295 18113615685814588995
23559900 14 18339918337448980784
249057 3 18412825802261121749
28498 318 18202003200704518148
29717793 49 17704355485009397940
3004659 81 18186239525058769098
3009799 131 13398630546427439891
328311 84 18410859880340657963
335352 9 18409166623664457543
3545911 37 18260264153434633557
4073 2 18116432725252848074
4339292 15 15410315764492666749
54076057 127 13912317972225236024
59682541 35 8934990469433180894
5969126 39 11023829440796037307
59755656 215 18410575058925209694
59755656 520 17603581950643266995
6438161 24 18334850594531892970
67856867 119 11815596627841638355
9663363 56 17989204833790129420

>  <PUBCHEM_SHAPE_MULTIPOLES>  (1) 
425.18
23.28
1.72
0.98
11.85
0.06
0.1
0.04
4.34
-0.63
-0.57
-1.03
0.09
0.69

>  <PUBCHEM_SHAPE_SELFOVERLAP>  (1) 
864.635

>  <PUBCHEM_SHAPE_VOLUME>  (1) 
249.3

>  <PUBCHEM_COORDINATE_TYPE>  (1) 
2
5
10

$$$$
