39196
     RDKit          3D

 25 25  0  0  1  0  0  0  0  0999 V2000
    3.4729    1.2519    0.9292 O   0  0  0  0  0  0  0  0  0  0  0  0
   -4.0084    1.0599   -1.0582 O   0  0  0  0  0  0  0  0  0  0  0  0
    2.1340   -0.5464    0.4778 O   0  0  0  0  0  0  0  0  0  0  0  0
    6.4255   -0.7951    0.0043 N   0  0  0  0  0  0  0  0  0  0  0  0
    1.3235    1.6526    0.3852 N   0  0  0  0  0  0  0  0  0  0  0  0
    5.3069    0.1248   -0.1504 C   0  0  0  0  0  0  0  0  0  0  0  0
    4.5684    0.3610    1.1693 C   0  0  0  0  0  0  0  0  0  0  0  0
    5.9484   -2.1747    0.1211 C   0  0  0  0  0  0  0  0  0  0  0  0
    7.3539   -0.6742   -1.1220 C   0  0  0  0  0  0  0  0  0  0  0  0
   -6.8993   -1.0880    0.0121 C   0  0  0  0  0  0  0  0  0  0  0  0
   -8.4035   -0.8568    0.1814 C   0  0  0  0  0  0  0  0  0  0  0  0
   -6.1422    0.1544   -0.4544 C   0  0  0  0  0  0  0  0  0  0  0  0
    5.4478    0.9907    2.2422 C   0  0  0  0  0  0  0  0  0  0  0  0
   -9.1573   -2.0937    0.6720 C   0  0  0  0  0  0  0  0  0  0  0  0
   -4.6581   -0.1325   -0.6399 C   0  0  0  0  0  0  0  0  0  0  0  0
    7.1015   -3.1369    0.3508 C   0  0  0  0  0  0  0  0  0  0  0  0
    6.6827   -1.0569   -2.4301 C   0  0  0  0  0  0  0  0  0  0  0  0
  -10.6540   -1.8340    0.7541 C   0  0  0  0  0  0  0  0  0  0  0  0
    2.2850    0.6646    0.5837 C   0  0  0  0  0  0  0  0  0  0  0  0
   -2.6934    1.2061   -0.7002 C   0  0  0  0  0  0  0  0  0  0  0  0
   -0.0158    1.5037    0.0241 C   0  0  0  0  0  0  0  0  0  0  0  0
   -2.1654    2.4799   -0.4894 C   0  0  0  0  0  0  0  0  0  0  0  0
   -1.8826    0.0811   -0.5489 C   0  0  0  0  0  0  0  0  0  0  0  0
   -0.8267    2.6286   -0.1272 C   0  0  0  0  0  0  0  0  0  0  0  0
   -0.5438    0.2300   -0.1867 C   0  0  0  0  0  0  0  0  0  0  0  0
  1  7  1  0
  1 19  1  0
  2 15  1  0
  2 20  1  0
  3 19  2  0
  4  6  1  0
  4  8  1  0
  4  9  1  0
  5 19  1  0
  5 21  1  0
  6  7  1  0
  7 13  1  0
  8 16  1  0
  9 17  1  0
 10 11  1  0
 10 12  1  0
 11 14  1  0
 12 15  1  0
 14 18  1  0
 20 22  2  0
 20 23  1  0
 21 24  2  0
 21 25  1  0
 22 24  1  0
 23 25  2  0
M  END
>  <PUBCHEM_COMPOUND_CID>  (1) 
39196

>  <PUBCHEM_CONFORMER_RMSD>  (1) 
1.2

>  <PUBCHEM_CONFORMER_DIVERSEORDER>  (1) 
1
50
20
9
17
46
36
34
14
12
47
28
60
59
53
3
39
19
57
37
63
21
64
27
44
55
49
8
45
43
41
67
58
40
66
11
33
71
29
62
22
4
16
70
51
31
26
52
32
25
69
42
10
15
65
5
6
18
7
13
35
38
48
61
54
30
24
56
23
2
68

>  <PUBCHEM_MMFF94_PARTIAL_CHARGES>  (1) 
22
1 -0.43
15 0.28
19 0.78
2 -0.36
20 0.08
21 0.12
22 -0.15
23 -0.15
24 -0.15
25 -0.15
3 -0.57
4 -0.81
5 -0.55
55 0.37
56 0.15
57 0.15
58 0.15
59 0.15
6 0.27
7 0.28
8 0.27
9 0.27

>  <PUBCHEM_EFFECTIVE_ROTOR_COUNT>  (1) 
14

>  <PUBCHEM_PHARMACOPHORE_FEATURES>  (1) 
7
1 18 hydrophobe
1 2 acceptor
1 3 acceptor
1 4 cation
1 5 donor
4 10 11 12 14 hydrophobe
6 20 21 22 23 24 25 rings

>  <PUBCHEM_HEAVY_ATOM_COUNT>  (1) 
25

>  <PUBCHEM_ATOM_DEF_STEREO_COUNT>  (1) 
0

>  <PUBCHEM_ATOM_UDEF_STEREO_COUNT>  (1) 
1

>  <PUBCHEM_BOND_DEF_STEREO_COUNT>  (1) 
0

>  <PUBCHEM_BOND_UDEF_STEREO_COUNT>  (1) 
0

>  <PUBCHEM_ISOTOPIC_ATOM_COUNT>  (1) 
0

>  <PUBCHEM_COMPONENT_COUNT>  (1) 
1

>  <PUBCHEM_CACTVS_TAUTO_COUNT>  (1) 
2

>  <PUBCHEM_CONFORMER_ID>  (1) 
0000991C00000001

>  <PUBCHEM_MMFF94_ENERGY>  (1) 
50.4741

>  <PUBCHEM_FEATURE_SELFOVERLAP>  (1) 
35.52

>  <PUBCHEM_SHAPE_FINGERPRINT>  (1) 
10280341 67 11815632839755766795
10533779 1 14419284182722109862
10533779 47 17131565981136875407
11638347 137 17561369504582322531
125118 31 10735871798666249610
12539745 222 18272374158157143841
12661589 4 18189323603471959682
13533116 47 16630800016067895840
13673619 4 18273492364379743032
14216079 64 18413671309554953023
14344974 204 18195808703484146799
15510800 12 18040724688566496483
1818759 1 18040438815706635731
18335252 98 18410288130010011128
195137 95 11671790343020719555
20105231 36 18413393128755140966
21130971 5 18341905068824110558
21130990 3 18411422782411863031
21150785 3 16515405166103276876
21267235 1 18408885153183518309
21344244 181 18408039611140351682
21585481 151 18341617049261161227
21781051 124 18335427888874404815
21859007 373 11240003334356836850
22864921 267 14692585286147193996
23081809 10 15430590645900386036
23559900 14 18129082478072444712
23569943 247 17830168009672875402
246663 6 18408042927307998023
33532 11 18411979161365572999
34797466 226 18410853292051327580
5104073 3 17560789988898025432
5470011 282 17748828522565596398
5937810 71 11026055969460489775
636775 8 18334862714027496231
9995097 26 18333734645167183973

>  <PUBCHEM_SHAPE_MULTIPOLES>  (1) 
486.92
30.85
2.67
1.38
50.15
0.47
-0.09
30.62
2.28
-0.63
0.23
-2.93
0
2.78

>  <PUBCHEM_SHAPE_SELFOVERLAP>  (1) 
957.664

>  <PUBCHEM_SHAPE_VOLUME>  (1) 
293

>  <PUBCHEM_COORDINATE_TYPE>  (1) 
2
5
10

$$$$
