392
     RDKit          3D

 10  9  0  0  1  0  0  0  0  0999 V2000
   -3.5622   -0.4580    0.5418 O   0  0  0  0  0  0  0  0  0  0  0  0
   -1.9218   -1.5202   -0.6150 O   0  0  0  0  0  0  0  0  0  0  0  0
    0.3353    2.1491   -0.4458 N   0  0  0  0  0  0  0  0  0  0  0  0
    4.1218   -0.7560   -0.2731 N   0  0  0  0  0  0  0  0  0  0  0  0
   -0.1721    0.7741   -0.3268 C   0  0  0  0  0  0  0  0  0  0  0  0
    0.5382    0.1330    0.8827 C   0  0  0  0  0  0  0  0  0  0  0  0
    2.0704    0.0859    0.8298 C   0  0  0  0  0  0  0  0  0  0  0  0
   -1.6996    0.8492   -0.1816 C   0  0  0  0  0  0  0  0  0  0  0  0
    2.6641   -0.7571   -0.3003 C   0  0  0  0  0  0  0  0  0  0  0  0
   -2.3742   -0.5000   -0.1117 C   0  0  0  0  0  0  0  0  0  0  0  0
  1 10  1  0
  2 10  2  0
  3  5  1  0
  4  9  1  0
  5  6  1  0
  5  8  1  0
  6  7  1  0
  7  9  1  0
  8 10  1  0
M  END
>  <PUBCHEM_COMPOUND_CID>  (1) 
392

>  <PUBCHEM_CONFORMER_RMSD>  (1) 
0.6

>  <PUBCHEM_CONFORMER_DIVERSEORDER>  (1) 
4
99
40
69
88
97
101
34
66
52
81
60
98
24
64
94
55
87
16
72
36
91
73
42
103
76
83
17
106
20
67
95
44
89
102
38
59
18
70
80
92
54
21
58
96
33
14
90
26
50
61
85
79
82
12
41
105
28
13
29
77
86
7
75
104
56
53
8
32
57
10
84
35
49
30
46
22
93
62
74
27
47
37
78
71
51
1
68
11
65
23
100
31
45
9
25
48
39
5
43
6
3
15
19
63
2

>  <PUBCHEM_MMFF94_PARTIAL_CHARGES>  (1) 
13
1 -0.65
10 0.66
2 -0.57
20 0.36
21 0.36
22 0.36
23 0.36
24 0.5
3 -0.99
4 -0.99
5 0.27
8 0.06
9 0.27

>  <PUBCHEM_EFFECTIVE_ROTOR_COUNT>  (1) 
5

>  <PUBCHEM_PHARMACOPHORE_FEATURES>  (1) 
7
1 1 acceptor
1 2 acceptor
1 3 cation
1 3 donor
1 4 cation
1 4 donor
3 1 2 10 anion

>  <PUBCHEM_HEAVY_ATOM_COUNT>  (1) 
10

>  <PUBCHEM_ATOM_DEF_STEREO_COUNT>  (1) 
0

>  <PUBCHEM_ATOM_UDEF_STEREO_COUNT>  (1) 
1

>  <PUBCHEM_BOND_DEF_STEREO_COUNT>  (1) 
0

>  <PUBCHEM_BOND_UDEF_STEREO_COUNT>  (1) 
0

>  <PUBCHEM_ISOTOPIC_ATOM_COUNT>  (1) 
0

>  <PUBCHEM_COMPONENT_COUNT>  (1) 
1

>  <PUBCHEM_CACTVS_TAUTO_COUNT>  (1) 
1

>  <PUBCHEM_CONFORMER_ID>  (1) 
0000018800000004

>  <PUBCHEM_MMFF94_ENERGY>  (1) 
0.0195

>  <PUBCHEM_FEATURE_SELFOVERLAP>  (1) 
35.578

>  <PUBCHEM_SHAPE_FINGERPRINT>  (1) 
124424 183 16271927086650601137
12897270 3 18262231128044162446
12932764 1 18188478108334873272
14128692 85 18336547213117440140
14390081 3 8286209365572051171
15310529 11 14707194514151235843
20201158 50 17917429791879961086
20281407 28 18271803501961170010
20711985 344 18191851336841815729
20871999 31 18187641379986070965
21028194 46 11240000078850324861
21061003 4 17203317867775694106
21293036 1 16660368090687259818
230 275 10303541653128187712
23402539 116 17895189957837694750
23552423 10 18190172589013189701
449060 23 18411976974915820606
528716 315 18041001713170701422

>  <PUBCHEM_SHAPE_MULTIPOLES>  (1) 
184.09
5.6
1.46
0.85
2.22
0.52
0.12
-2.63
-0.11
-0.27
-0.35
0.12
0
0.12

>  <PUBCHEM_SHAPE_SELFOVERLAP>  (1) 
337.008

>  <PUBCHEM_SHAPE_VOLUME>  (1) 
116.7

>  <PUBCHEM_COORDINATE_TYPE>  (1) 
2
5
10

$$$$
