39200
     RDKit          3D

 22 23  0  0  1  0  0  0  0  0999 V2000
    1.9812    1.5497    0.4562 O   0  0  0  0  0  0  0  0  0  0  0  0
    0.8891   -0.4528    0.6217 O   0  0  0  0  0  0  0  0  0  0  0  0
   -5.4736   -0.1161   -0.7752 O   0  0  0  0  0  0  0  0  0  0  0  0
    5.1454   -0.2878   -0.1216 N   0  0  0  0  0  0  0  0  0  0  0  0
   -0.2127    1.5187    0.0057 N   0  0  0  0  0  0  0  0  0  0  0  0
    4.9223   -1.6533    0.3527 C   0  0  0  0  0  0  0  0  0  0  0  0
    6.0078   -0.4293   -1.2943 C   0  0  0  0  0  0  0  0  0  0  0  0
    6.3000   -2.2871    0.2284 C   0  0  0  0  0  0  0  0  0  0  0  0
    7.0146   -1.4805   -0.8515 C   0  0  0  0  0  0  0  0  0  0  0  0
    3.9021    0.4047   -0.4265 C   0  0  0  0  0  0  0  0  0  0  0  0
    3.1981    0.9076    0.8361 C   0  0  0  0  0  0  0  0  0  0  0  0
    4.0263    1.9172    1.6206 C   0  0  0  0  0  0  0  0  0  0  0  0
    0.8704    0.7483    0.3820 C   0  0  0  0  0  0  0  0  0  0  0  0
   -1.5495    1.1037   -0.1913 C   0  0  0  0  0  0  0  0  0  0  0  0
   -2.5185    2.0311   -0.5745 C   0  0  0  0  0  0  0  0  0  0  0  0
   -1.8995   -0.2334   -0.0036 C   0  0  0  0  0  0  0  0  0  0  0  0
   -4.1872    0.2842   -0.5823 C   0  0  0  0  0  0  0  0  0  0  0  0
   -3.8373    1.6213   -0.7700 C   0  0  0  0  0  0  0  0  0  0  0  0
   -3.2183   -0.6432   -0.1992 C   0  0  0  0  0  0  0  0  0  0  0  0
   -5.9345   -1.2188    0.0042 C   0  0  0  0  0  0  0  0  0  0  0  0
   -7.4329   -1.0746    0.2221 C   0  0  0  0  0  0  0  0  0  0  0  0
   -7.9935   -2.2096    1.0601 C   0  0  0  0  0  0  0  0  0  0  0  0
  1 11  1  0
  1 13  1  0
  2 13  2  0
  3 17  1  0
  3 20  1  0
  4  6  1  0
  4  7  1  0
  4 10  1  0
  5 13  1  0
  5 14  1  0
  6  8  1  0
  7  9  1  0
  8  9  1  0
 10 11  1  0
 11 12  1  0
 14 15  2  0
 14 16  1  0
 15 18  1  0
 16 19  2  0
 17 18  2  0
 17 19  1  0
 20 21  1  0
 21 22  1  0
M  END
>  <PUBCHEM_COMPOUND_CID>  (1) 
39200

>  <PUBCHEM_CONFORMER_RMSD>  (1) 
1

>  <PUBCHEM_CONFORMER_DIVERSEORDER>  (1) 
1
27
41
25
2
39
23
37
3
34
40
36
17
22
14
31
9
5
18
28
32
30
38
12
15
21
33
29
35
6
16
26
13
24
8
20
19
4
11
10
7

>  <PUBCHEM_MMFF94_PARTIAL_CHARGES>  (1) 
22
1 -0.43
10 0.27
11 0.28
13 0.78
14 0.12
15 -0.15
16 -0.15
17 0.08
18 -0.15
19 -0.15
2 -0.57
20 0.28
3 -0.36
37 0.37
38 0.15
39 0.15
4 -0.81
42 0.15
43 0.15
5 -0.55
6 0.27
7 0.27

>  <PUBCHEM_EFFECTIVE_ROTOR_COUNT>  (1) 
10

>  <PUBCHEM_PHARMACOPHORE_FEATURES>  (1) 
7
1 2 acceptor
1 22 hydrophobe
1 3 acceptor
1 4 cation
1 5 donor
5 4 6 7 8 9 rings
6 14 15 16 17 18 19 rings

>  <PUBCHEM_HEAVY_ATOM_COUNT>  (1) 
22

>  <PUBCHEM_ATOM_DEF_STEREO_COUNT>  (1) 
0

>  <PUBCHEM_ATOM_UDEF_STEREO_COUNT>  (1) 
1

>  <PUBCHEM_BOND_DEF_STEREO_COUNT>  (1) 
0

>  <PUBCHEM_BOND_UDEF_STEREO_COUNT>  (1) 
0

>  <PUBCHEM_ISOTOPIC_ATOM_COUNT>  (1) 
0

>  <PUBCHEM_COMPONENT_COUNT>  (1) 
1

>  <PUBCHEM_CACTVS_TAUTO_COUNT>  (1) 
2

>  <PUBCHEM_CONFORMER_ID>  (1) 
0000992000000001

>  <PUBCHEM_MMFF94_ENERGY>  (1) 
48.6163

>  <PUBCHEM_FEATURE_SELFOVERLAP>  (1) 
35.52

>  <PUBCHEM_SHAPE_FINGERPRINT>  (1) 
10730089 47 18334852780316630122
11524674 6 17060337435972255423
117890 112 9439399138368576588
12166972 35 18259989279396084588
125118 31 10879996869229900939
12616971 3 16702010993867164884
12661589 4 18187072950113797170
12778500 126 12175626144870227006
13073987 5 18131067134519012432
13533116 47 17988921214849661816
13668630 136 18272374127416898974
13673619 4 18343019995363369985
13685833 64 18273495667609844522
13782708 43 18343577443268207623
13955234 65 17845359103151607384
14123256 34 18060422379015997662
14216079 64 18412263948036343119
14350574 20 18342455933176747860
14729087 3 10807941453541887843
15183329 4 18337107848468545820
15352257 5 18410014351330208859
17134984 74 18113618968030044306
17844677 252 18343864403161430448
18222031 100 17530960293580122148
18335252 98 18336265742747024128
20281389 69 11671793667309250915
20645477 70 18060697291435887860
21049683 271 18342739633690998616
21130935 74 18059009622554720707
21150785 3 16153709834073345119
21267235 1 18407762551763826309
21344244 181 18334861636086216154
21781051 124 17968101957703719947
2297311 6 18333731317142821805
2303208 19 18410852166141739249
23081809 10 14923930229313183549
23522609 53 18124909869150668048
23559900 14 18341320150576940352
246663 6 18343308067135404383
300161 21 8718827591514266913
3004659 81 18261674762998480854
33532 11 18412262865699511031
34797466 226 17895475933428948700
4107672 100 17676763181419594365
439807 62 18334577923288767818
465052 167 18060137618531652492
5104073 3 17918270939560220728
59755656 215 18113336418747091771
636775 8 18187374241763804855
8863177 126 18343016739735838018
9995097 26 17967823781377533651
999808 66 18261401061643830235

>  <PUBCHEM_SHAPE_MULTIPOLES>  (1) 
425.18
22.18
2.3
1.06
10.09
0.2
0.12
17.96
-0.46
-0.16
0.41
-0.7
-0.17
2.35

>  <PUBCHEM_SHAPE_SELFOVERLAP>  (1) 
864.599

>  <PUBCHEM_SHAPE_VOLUME>  (1) 
249.3

>  <PUBCHEM_COORDINATE_TYPE>  (1) 
2
5
10

$$$$
