39202
     RDKit          3D

 23 24  0  0  1  0  0  0  0  0999 V2000
    2.4425    1.5118    0.5683 O   0  0  0  0  0  0  0  0  0  0  0  0
    1.2742   -0.4543    0.5606 O   0  0  0  0  0  0  0  0  0  0  0  0
   -5.0389    0.2289   -0.9319 O   0  0  0  0  0  0  0  0  0  0  0  0
    5.5493   -0.3969   -0.0843 N   0  0  0  0  0  0  0  0  0  0  0  0
    0.2595    1.5984    0.0737 N   0  0  0  0  0  0  0  0  0  0  0  0
    5.2657   -1.7846    0.2809 C   0  0  0  0  0  0  0  0  0  0  0  0
    6.4321   -0.4834   -1.2472 C   0  0  0  0  0  0  0  0  0  0  0  0
    6.6218   -2.4596    0.1364 C   0  0  0  0  0  0  0  0  0  0  0  0
    7.3896   -1.6024   -0.8652 C   0  0  0  0  0  0  0  0  0  0  0  0
    4.3394    0.3633   -0.3605 C   0  0  0  0  0  0  0  0  0  0  0  0
    3.6260    0.7971    0.9224 C   0  0  0  0  0  0  0  0  0  0  0  0
    4.4728    1.7128    1.7972 C   0  0  0  0  0  0  0  0  0  0  0  0
    1.3049    0.7612    0.4119 C   0  0  0  0  0  0  0  0  0  0  0  0
   -7.0548   -0.7252   -0.0479 C   0  0  0  0  0  0  0  0  0  0  0  0
   -1.0868    1.2507   -0.1803 C   0  0  0  0  0  0  0  0  0  0  0  0
   -7.6746   -1.9050    0.6957 C   0  0  0  0  0  0  0  0  0  0  0  0
   -5.5572   -0.9105   -0.2472 C   0  0  0  0  0  0  0  0  0  0  0  0
   -3.7434    0.5641   -0.6841 C   0  0  0  0  0  0  0  0  0  0  0  0
   -2.0123    2.2405   -0.5115 C   0  0  0  0  0  0  0  0  0  0  0  0
   -1.4896   -0.0824   -0.1012 C   0  0  0  0  0  0  0  0  0  0  0  0
   -3.3405    1.8973   -0.7633 C   0  0  0  0  0  0  0  0  0  0  0  0
   -2.8179   -0.4256   -0.3531 C   0  0  0  0  0  0  0  0  0  0  0  0
   -9.1620   -1.6961    0.9307 C   0  0  0  0  0  0  0  0  0  0  0  0
  1 11  1  0
  1 13  1  0
  2 13  2  0
  3 17  1  0
  3 18  1  0
  4  6  1  0
  4  7  1  0
  4 10  1  0
  5 13  1  0
  5 15  1  0
  6  8  1  0
  7  9  1  0
  8  9  1  0
 10 11  1  0
 11 12  1  0
 14 16  1  0
 14 17  1  0
 15 19  2  0
 15 20  1  0
 16 23  1  0
 18 21  2  0
 18 22  1  0
 19 21  1  0
 20 22  2  0
M  END
>  <PUBCHEM_COMPOUND_CID>  (1) 
39202

>  <PUBCHEM_CONFORMER_RMSD>  (1) 
1

>  <PUBCHEM_CONFORMER_DIVERSEORDER>  (1) 
2
33
21
16
38
58
8
14
7
69
9
48
22
43
5
53
57
28
68
37
32
56
6
63
17
15
52
50
71
18
46
34
19
64
54
1
70
20
4
26
65
25
30
23
10
40
47
41
3
62
49
35
67
61
42
29
51
59
11
36
39
12
31
66
60
27
55
24
13
45
44

>  <PUBCHEM_MMFF94_PARTIAL_CHARGES>  (1) 
22
1 -0.43
10 0.27
11 0.28
13 0.78
15 0.12
17 0.28
18 0.08
19 -0.15
2 -0.57
20 -0.15
21 -0.15
22 -0.15
3 -0.36
38 0.37
4 -0.81
45 0.15
46 0.15
47 0.15
48 0.15
5 -0.55
6 0.27
7 0.27

>  <PUBCHEM_EFFECTIVE_ROTOR_COUNT>  (1) 
11

>  <PUBCHEM_PHARMACOPHORE_FEATURES>  (1) 
7
1 2 acceptor
1 23 hydrophobe
1 3 acceptor
1 4 cation
1 5 donor
5 4 6 7 8 9 rings
6 15 18 19 20 21 22 rings

>  <PUBCHEM_HEAVY_ATOM_COUNT>  (1) 
23

>  <PUBCHEM_ATOM_DEF_STEREO_COUNT>  (1) 
0

>  <PUBCHEM_ATOM_UDEF_STEREO_COUNT>  (1) 
1

>  <PUBCHEM_BOND_DEF_STEREO_COUNT>  (1) 
0

>  <PUBCHEM_BOND_UDEF_STEREO_COUNT>  (1) 
0

>  <PUBCHEM_ISOTOPIC_ATOM_COUNT>  (1) 
0

>  <PUBCHEM_COMPONENT_COUNT>  (1) 
1

>  <PUBCHEM_CACTVS_TAUTO_COUNT>  (1) 
2

>  <PUBCHEM_CONFORMER_ID>  (1) 
0000992200000002

>  <PUBCHEM_MMFF94_ENERGY>  (1) 
48.3993

>  <PUBCHEM_FEATURE_SELFOVERLAP>  (1) 
35.52

>  <PUBCHEM_SHAPE_FINGERPRINT>  (1) 
11524674 6 16917344844793913639
12166972 35 18333453136211205924
125118 31 10952050069600622626
12616971 3 16486961908663825676
12661589 4 18187917358017040730
12778500 126 12031789137620823550
13073987 5 18060133233049030600
13533116 47 17917986213799486904
13668630 136 18040714775253962375
13673619 4 18343581841330880641
13685833 64 18202843241042733324
13955234 65 17774705572725056152
14123256 34 18260548957221982323
14216079 64 18412545418549300855
14344974 204 18050290560130591491
14729087 3 10952055546422091243
15183329 4 17531530872291785462
15352257 5 18411138047813301135
17134984 74 18186519874670152770
18335252 98 18409166649482123648
195137 95 12391524048971928875
2026 5 18268429045348100718
20281389 69 11815907755810143043
21130935 74 17916862564503135559
21130971 5 18340783575516926711
21130990 3 18411989048148699735
21150785 3 16008749121518773783
21267235 1 18408324397826341029
21344244 181 18335140907765770474
21781051 124 18114186362509667579
21792934 111 12247411072112763499
22864921 267 14117252620126213812
2297311 6 18334856104473877677
2303208 19 18411976962004668401
23522609 53 18126596528698943440
23559900 14 18342726413280254824
23569943 247 17973158427260083914
246663 6 18408045126289256867
300161 21 8070024480330429352
312425 54 17203036508594671839
328311 84 18341895195047009959
33532 11 18411981382032587023
34797466 226 18040997392787510540
4107672 100 17749102246091870885
439807 62 18407762525741321662
465052 167 17989203712640148284
5104073 3 17703784800041637864
5470011 282 17676490565942303663
5937810 71 11170453740519744559
636775 8 18333739013144207911
8863177 126 18272364313216121702
9995097 26 18187089476514565294

>  <PUBCHEM_SHAPE_MULTIPOLES>  (1) 
445.76
25.17
2.38
1.09
19.24
0.15
0.19
22.09
1.1
-0.54
0.26
-0.76
-0.22
2.65

>  <PUBCHEM_SHAPE_SELFOVERLAP>  (1) 
902.525

>  <PUBCHEM_SHAPE_VOLUME>  (1) 
261.9

>  <PUBCHEM_COORDINATE_TYPE>  (1) 
2
5
10

$$$$
