39208
     RDKit          3D

 25 26  0  0  1  0  0  0  0  0999 V2000
   -2.5363    2.0807   -0.1607 O   0  0  0  0  0  0  0  0  0  0  0  0
    4.4638   -1.1542    0.1849 O   0  0  0  0  0  0  0  0  0  0  0  0
   -1.6657    0.3577   -1.3870 O   0  0  0  0  0  0  0  0  0  0  0  0
   -5.4126   -0.1975    0.3951 N   0  0  0  0  0  0  0  0  0  0  0  0
   -0.4305    1.4523    0.2732 N   0  0  0  0  0  0  0  0  0  0  0  0
   -5.5709   -1.3733    1.2623 C   0  0  0  0  0  0  0  0  0  0  0  0
   -5.6922   -0.5312   -1.0086 C   0  0  0  0  0  0  0  0  0  0  0  0
   -6.9885   -1.9401    1.1704 C   0  0  0  0  0  0  0  0  0  0  0  0
   -7.1136   -1.0707   -1.1749 C   0  0  0  0  0  0  0  0  0  0  0  0
   -7.3601   -2.2726   -0.2701 C   0  0  0  0  0  0  0  0  0  0  0  0
   -4.0673    0.3606    0.5300 C   0  0  0  0  0  0  0  0  0  0  0  0
   -3.8746    1.6137   -0.3276 C   0  0  0  0  0  0  0  0  0  0  0  0
   -4.8111    2.7518    0.0577 C   0  0  0  0  0  0  0  0  0  0  0  0
   -1.5404    1.2048   -0.5111 C   0  0  0  0  0  0  0  0  0  0  0  0
    8.0946   -0.1671    0.1543 C   0  0  0  0  0  0  0  0  0  0  0  0
    6.8264   -0.9492   -0.1801 C   0  0  0  0  0  0  0  0  0  0  0  0
    9.2998   -0.7064   -0.6156 C   0  0  0  0  0  0  0  0  0  0  0  0
    5.6131   -0.3917    0.5506 C   0  0  0  0  0  0  0  0  0  0  0  0
    0.8171    0.7883    0.2503 C   0  0  0  0  0  0  0  0  0  0  0  0
   10.5578    0.0913   -0.3111 C   0  0  0  0  0  0  0  0  0  0  0  0
    3.2632   -0.5137    0.2057 C   0  0  0  0  0  0  0  0  0  0  0  0
    1.8149    1.1876    1.1250 C   0  0  0  0  0  0  0  0  0  0  0  0
    1.0180   -0.2490   -0.6463 C   0  0  0  0  0  0  0  0  0  0  0  0
    3.0461    0.5323    1.1025 C   0  0  0  0  0  0  0  0  0  0  0  0
    2.2491   -0.9045   -0.6687 C   0  0  0  0  0  0  0  0  0  0  0  0
  1 12  1  0
  1 14  1  0
  2 18  1  0
  2 21  1  0
  3 14  2  0
  4  6  1  0
  4  7  1  0
  4 11  1  0
  5 14  1  0
  5 19  1  0
  6  8  1  0
  7  9  1  0
  8 10  1  0
  9 10  1  0
 11 12  1  0
 12 13  1  0
 15 16  1  0
 15 17  1  0
 16 18  1  0
 17 20  1  0
 19 22  2  0
 19 23  1  0
 21 24  2  0
 21 25  1  0
 22 24  1  0
 23 25  2  0
M  END
>  <PUBCHEM_COMPOUND_CID>  (1) 
39208

>  <PUBCHEM_CONFORMER_RMSD>  (1) 
1

>  <PUBCHEM_CONFORMER_DIVERSEORDER>  (1) 
1
125
39
175
186
190
188
173
31
194
65
146
41
178
91
111
108
62
182
171
46
44
110
68
184
89
38
167
169
189
123
148
164
158
26
112
71
180
191
54
37
135
32
59
25
56
14
192
141
157
69
153
12
22
81
165
79
136
113
117
152
118
177
72
160
52
43
116
170
30
77
150
138
15
166
49
40
10
187
50
66
78
154
86
87
120
129
75
176
83
130
67
61
128
3
168
185
102
36
57
172
42
7
95
174
115
84
16
100
76
131
137
34
143
5
70
18
63
149
105
9
101
60
147
51
27
122
96
97
80
139
92
88
48
161
64
127
13
109
107
8
20
93
183
119
82
74
106
145
133
19
35
47
151
114
132
104
58
126
163
55
28
162
181
53
142
17
179
29
45
121
73
103
124
144
90
156
21
134
94
6
33
193
11
155
140
4
23
24
159
99
85
98
2

>  <PUBCHEM_MMFF94_PARTIAL_CHARGES>  (1) 
22
1 -0.43
11 0.27
12 0.28
14 0.78
18 0.28
19 0.12
2 -0.36
21 0.08
22 -0.15
23 -0.15
24 -0.15
25 -0.15
3 -0.57
4 -0.81
48 0.37
5 -0.55
54 0.15
55 0.15
56 0.15
57 0.15
6 0.27
7 0.27

>  <PUBCHEM_EFFECTIVE_ROTOR_COUNT>  (1) 
12.2

>  <PUBCHEM_PHARMACOPHORE_FEATURES>  (1) 
7
1 2 acceptor
1 20 hydrophobe
1 3 acceptor
1 4 cation
1 5 donor
6 19 21 22 23 24 25 rings
6 4 6 7 8 9 10 rings

>  <PUBCHEM_HEAVY_ATOM_COUNT>  (1) 
25

>  <PUBCHEM_ATOM_DEF_STEREO_COUNT>  (1) 
0

>  <PUBCHEM_ATOM_UDEF_STEREO_COUNT>  (1) 
1

>  <PUBCHEM_BOND_DEF_STEREO_COUNT>  (1) 
0

>  <PUBCHEM_BOND_UDEF_STEREO_COUNT>  (1) 
0

>  <PUBCHEM_ISOTOPIC_ATOM_COUNT>  (1) 
0

>  <PUBCHEM_COMPONENT_COUNT>  (1) 
1

>  <PUBCHEM_CACTVS_TAUTO_COUNT>  (1) 
2

>  <PUBCHEM_CONFORMER_ID>  (1) 
0000992800000001

>  <PUBCHEM_MMFF94_ENERGY>  (1) 
49.5927

>  <PUBCHEM_FEATURE_SELFOVERLAP>  (1) 
35.521

>  <PUBCHEM_SHAPE_FINGERPRINT>  (1) 
10076449 9 18131355215687420464
10162869 55 17385725820986035702
11135609 99 18188776174786585783
11135926 11 14490476344057968832
11181472 205 11023833907757158290
11211813 128 18272373070760258310
11315181 36 17894632539501658661
11724838 91 18040156211184914806
12089408 11 18113901525617360416
1361 4 18261951830706386698
13673619 4 18343580754561808104
13914758 101 10663819676896243396
14202775 3 18270122306873026710
14251764 46 18113336406072633782
14429380 56 16226054414390764310
14444916 359 16559037082350563014
14671636 106 18339642342766260406
14729087 3 8070026670705396750
14849402 71 16271351050000589976
15183329 4 11241961582119788263
15461852 350 17022619767422576222
15510794 2 18059577940910917558
15979999 66 17313104172439603836
17686467 74 18187082875588265836
18335252 98 18272092678574131670
20105231 36 17489592251876723134
21049683 271 18413670223804427440
21054139 6 17748827401542247675
21095123 145 18130790070884508510
21150785 3 17022620875529367546
21267235 1 17989485225934213952
23389318 12 17530967999447478038
23424782 7 18410855469609633656
23559900 14 17969500584487937729
246663 6 18060420222905536998
2838139 119 9727628393581589507
3004659 81 17385719236373766305
3009799 131 13118001093620538542
3178227 256 17489869341438402042
335507 130 18272651264629316366
395649 100 17967534571227883723
4073 2 18268433430134026387
4325135 7 18187083953724517532
4339292 15 18341887515740508647
5104073 3 18272926099238889257
54039377 194 18202847656285035516
54583773 228 18261961851423614268
59682541 35 18272367594977214026
636775 8 18260834829813278571
67123 10 18408323290267883228
9995097 26 18410014351609179570
999808 66 18273496762599957303

>  <PUBCHEM_SHAPE_MULTIPOLES>  (1) 
486.92
29.71
2.07
1.1
50.66
0.67
0.05
-14.93
-2.41
-4.96
0.13
-1.1
-0.19
0.89

>  <PUBCHEM_SHAPE_SELFOVERLAP>  (1) 
980.143

>  <PUBCHEM_SHAPE_VOLUME>  (1) 
285.5

>  <PUBCHEM_COORDINATE_TYPE>  (1) 
2
5
10

$$$$
