39211
     RDKit          3D

 12 12  0  0  0  0  0  0  0  0999 V2000
    3.6124   -0.2335    0.0083 O   0  0  0  0  0  0  0  0  0  0  0  0
   -2.2160    2.0526    0.0919 O   0  0  0  0  0  0  0  0  0  0  0  0
   -2.6720   -0.0764   -0.1886 O   0  0  0  0  0  0  0  0  0  0  0  0
   -1.3878   -2.5042    0.5972 O   0  0  0  0  0  0  0  0  0  0  0  0
   -1.8524    0.8608   -0.0437 N   0  0  0  0  0  0  0  0  0  0  0  0
   -0.0052   -0.7485   -0.1800 C   0  0  0  0  0  0  0  0  0  0  0  0
   -0.4615    0.5615   -0.0330 C   0  0  0  0  0  0  0  0  0  0  0  0
    1.3638   -1.0159   -0.1662 C   0  0  0  0  0  0  0  0  0  0  0  0
    0.4510    1.6040    0.1278 C   0  0  0  0  0  0  0  0  0  0  0  0
    2.2764    0.0268   -0.0054 C   0  0  0  0  0  0  0  0  0  0  0  0
    1.8199    1.3367    0.1416 C   0  0  0  0  0  0  0  0  0  0  0  0
   -0.9286   -1.8640   -0.3501 C   0  0  0  0  0  0  0  0  0  0  0  0
  1 10  1  0
  2  5  1  0
  3  5  2  0
  4 12  2  0
  5  7  1  0
  6  7  2  0
  6  8  1  0
  6 12  1  0
  7  9  1  0
  8 10  2  0
  9 11  2  0
 10 11  1  0
M  CHG  2   2  -1   5   1
M  END
>  <PUBCHEM_COMPOUND_CID>  (1) 
39211

>  <PUBCHEM_CONFORMER_RMSD>  (1) 
0.6

>  <PUBCHEM_CONFORMER_DIVERSEORDER>  (1) 
1

>  <PUBCHEM_MMFF94_PARTIAL_CHARGES>  (1) 
17
1 -0.53
10 0.08
11 -0.15
12 0.42
13 0.15
14 0.15
15 0.15
16 0.06
17 0.45
2 -0.52
3 -0.52
4 -0.57
5 0.91
6 0.09
7 0.13
8 -0.15
9 -0.15

>  <PUBCHEM_EFFECTIVE_ROTOR_COUNT>  (1) 
2

>  <PUBCHEM_PHARMACOPHORE_FEATURES>  (1) 
6
1 1 donor
1 2 acceptor
1 2 anion
1 3 acceptor
1 4 acceptor
6 6 7 8 9 10 11 rings

>  <PUBCHEM_HEAVY_ATOM_COUNT>  (1) 
12

>  <PUBCHEM_ATOM_DEF_STEREO_COUNT>  (1) 
0

>  <PUBCHEM_ATOM_UDEF_STEREO_COUNT>  (1) 
0

>  <PUBCHEM_BOND_DEF_STEREO_COUNT>  (1) 
0

>  <PUBCHEM_BOND_UDEF_STEREO_COUNT>  (1) 
0

>  <PUBCHEM_ISOTOPIC_ATOM_COUNT>  (1) 
0

>  <PUBCHEM_COMPONENT_COUNT>  (1) 
1

>  <PUBCHEM_CACTVS_TAUTO_COUNT>  (1) 
5

>  <PUBCHEM_CONFORMER_ID>  (1) 
0000992B00000001

>  <PUBCHEM_MMFF94_ENERGY>  (1) 
44.9211

>  <PUBCHEM_FEATURE_SELFOVERLAP>  (1) 
30.53

>  <PUBCHEM_SHAPE_FINGERPRINT>  (1) 
13380535 76 18341046333183715214
14325111 11 18340205181050239700
161256 15 17837219542433616220
16945 1 18410575106259260708
193761 8 18122906687955524180
19973954 147 18266457805180918444
20588541 1 18341616975634274366
20645476 183 17897188869634412342
20871998 184 18200598119391854534
21040471 1 18411418384480740348
21501502 16 18195249033913788324
2334 1 17906732857758580116
23402655 69 17981870966305208037
23552423 10 18044372966303450188
23559900 14 18271533001564722462
241688 4 15672383921430410747
2748010 2 18123192307448717844
5084963 1 18131066022005879081
528886 8 18267860579933172577
54173680 148 18337674216973529970

>  <PUBCHEM_SHAPE_MULTIPOLES>  (1) 
218.5
3.73
2.25
0.62
1.47
0.33
0
-0.23
-0.03
-1.28
-0.2
-0.02
0.09
0.15

>  <PUBCHEM_SHAPE_SELFOVERLAP>  (1) 
465.168

>  <PUBCHEM_SHAPE_VOLUME>  (1) 
121.5

>  <PUBCHEM_COORDINATE_TYPE>  (1) 
2
5
10

$$$$
