39222
     RDKit          3D

 23 23  0  0  1  0  0  0  0  0999 V2000
    2.6212   -1.6149   -0.9090 O   0  0  0  0  0  0  0  0  0  0  0  0
   -4.6954   -0.0217    1.0242 O   0  0  0  0  0  0  0  0  0  0  0  0
    1.3775    0.2551   -1.3415 O   0  0  0  0  0  0  0  0  0  0  0  0
    5.1810    0.7761    0.3133 N   0  0  0  0  0  0  0  0  0  0  0  0
    0.4994   -1.5661   -0.1528 N   0  0  0  0  0  0  0  0  0  0  0  0
    3.9610   -0.0193    0.2987 C   0  0  0  0  0  0  0  0  0  0  0  0
    3.8534   -0.8863   -0.9581 C   0  0  0  0  0  0  0  0  0  0  0  0
    5.2771    1.5979   -0.8951 C   0  0  0  0  0  0  0  0  0  0  0  0
    5.2316    1.6232    1.5070 C   0  0  0  0  0  0  0  0  0  0  0  0
    4.9834   -1.9002   -1.0836 C   0  0  0  0  0  0  0  0  0  0  0  0
    6.5783    2.3817   -0.9238 C   0  0  0  0  0  0  0  0  0  0  0  0
    5.1335    0.7917    2.7748 C   0  0  0  0  0  0  0  0  0  0  0  0
    1.4792   -0.8613   -0.8476 C   0  0  0  0  0  0  0  0  0  0  0  0
   -6.8304    0.6046    0.1393 C   0  0  0  0  0  0  0  0  0  0  0  0
   -7.5756    1.5038   -0.8430 C   0  0  0  0  0  0  0  0  0  0  0  0
   -5.3292    0.8538    0.1017 C   0  0  0  0  0  0  0  0  0  0  0  0
   -0.8076   -1.1778    0.1428 C   0  0  0  0  0  0  0  0  0  0  0  0
   -3.4118   -0.4039    0.7321 C   0  0  0  0  0  0  0  0  0  0  0  0
   -9.0695    1.2218   -0.8335 C   0  0  0  0  0  0  0  0  0  0  0  0
   -1.6449   -2.0344    0.8574 C   0  0  0  0  0  0  0  0  0  0  0  0
   -1.2770    0.0671   -0.2761 C   0  0  0  0  0  0  0  0  0  0  0  0
   -2.9516   -1.6461    1.1531 C   0  0  0  0  0  0  0  0  0  0  0  0
   -2.5837    0.4555    0.0197 C   0  0  0  0  0  0  0  0  0  0  0  0
  1  7  1  0
  1 13  1  0
  2 16  1  0
  2 18  1  0
  3 13  2  0
  4  6  1  0
  4  8  1  0
  4  9  1  0
  5 13  1  0
  5 17  1  0
  6  7  1  0
  7 10  1  0
  8 11  1  0
  9 12  1  0
 14 15  1  0
 14 16  1  0
 15 19  1  0
 17 20  2  0
 17 21  1  0
 18 22  2  0
 18 23  1  0
 20 22  1  0
 21 23  2  0
M  END
>  <PUBCHEM_COMPOUND_CID>  (1) 
39222

>  <PUBCHEM_CONFORMER_RMSD>  (1) 
1

>  <PUBCHEM_CONFORMER_DIVERSEORDER>  (1) 
1
138
2
113
182
5
89
9
40
15
145
157
123
70
149
109
76
188
67
190
133
24
65
125
175
90
39
83
155
75
8
101
27
131
77
81
150
184
124
143
42
181
12
55
69
176
119
22
20
44
147
85
171
56
17
99
146
18
48
68
66
30
163
118
33
45
63
105
116
74
7
37
34
186
94
140
60
103
132
169
170
28
78
148
41
16
144
35
14
141
174
25
127
172
84
183
95
106
160
57
122
79
51
64
117
189
32
54
61
72
86
73
49
46
71
19
98
92
159
93
151
180
158
162
23
114
165
53
107
31
153
126
156
115
88
102
43
62
142
96
10
135
173
97
36
38
59
121
108
13
50
139
3
87
152
110
52
91
166
154
112
120
137
100
129
168
4
130
161
6
177
21
26
164
187
136
179
185
11
80
178
128
111
134
104
47
82
58
29
167

>  <PUBCHEM_MMFF94_PARTIAL_CHARGES>  (1) 
22
1 -0.43
13 0.78
16 0.28
17 0.12
18 0.08
2 -0.36
20 -0.15
21 -0.15
22 -0.15
23 -0.15
3 -0.57
4 -0.81
46 0.37
5 -0.55
50 0.15
51 0.15
52 0.15
53 0.15
6 0.27
7 0.28
8 0.27
9 0.27

>  <PUBCHEM_EFFECTIVE_ROTOR_COUNT>  (1) 
12

>  <PUBCHEM_PHARMACOPHORE_FEATURES>  (1) 
6
1 19 hydrophobe
1 2 acceptor
1 3 acceptor
1 4 cation
1 5 donor
6 17 18 20 21 22 23 rings

>  <PUBCHEM_HEAVY_ATOM_COUNT>  (1) 
23

>  <PUBCHEM_ATOM_DEF_STEREO_COUNT>  (1) 
0

>  <PUBCHEM_ATOM_UDEF_STEREO_COUNT>  (1) 
1

>  <PUBCHEM_BOND_DEF_STEREO_COUNT>  (1) 
0

>  <PUBCHEM_BOND_UDEF_STEREO_COUNT>  (1) 
0

>  <PUBCHEM_ISOTOPIC_ATOM_COUNT>  (1) 
0

>  <PUBCHEM_COMPONENT_COUNT>  (1) 
1

>  <PUBCHEM_CACTVS_TAUTO_COUNT>  (1) 
2

>  <PUBCHEM_CONFORMER_ID>  (1) 
0000993600000001

>  <PUBCHEM_MMFF94_ENERGY>  (1) 
54.1867

>  <PUBCHEM_FEATURE_SELFOVERLAP>  (1) 
30.446

>  <PUBCHEM_SHAPE_FINGERPRINT>  (1) 
10 15 17749112209672087885
10835480 77 18409736174745482581
125118 31 18410296870121089989
12596602 18 17531532095988369248
12778500 126 17531240669831091192
13533116 47 18131075883530508430
13685833 64 8214142953902987109
13878862 14 18201709635943670860
14251764 18 15864075373742385339
14341114 328 17677890313897375096
14344974 204 10302369549098708685
14347424 109 13984664741393068951
14528608 73 16845293851898743754
14863182 85 14996278155256950354
16079462 125 18410009927555390421
18335252 114 17846785105265786828
20157964 124 18059858337423750631
20554085 129 18261100864761927243
21033648 29 18341893043500477594
21150785 3 16774072973915560069
21344244 181 10519987075498186340
21585482 111 18189060970390831996
21859007 373 17385996240152827485
22864921 267 15574986222225805672
23081809 10 16701747047247906139
23522609 53 11022998355127549811
23559900 14 18338248102446586494
249057 25 16988290754776241666
312425 54 16081088216108193848
33532 11 9295281734490918901
34797466 226 15195567922212450633
4072396 5 17167863037058958179
465052 167 8142088645947609384

>  <PUBCHEM_SHAPE_MULTIPOLES>  (1) 
445.76
22.37
2.18
1.58
30.58
0.07
0.9
-16.87
-2.29
-1.93
-0.28
-2.67
-0.23
2.09

>  <PUBCHEM_SHAPE_SELFOVERLAP>  (1) 
883.027

>  <PUBCHEM_SHAPE_VOLUME>  (1) 
266.5

>  <PUBCHEM_COORDINATE_TYPE>  (1) 
2
5
10

$$$$
