39224
     RDKit          3D

 11 10  0  0  0  0  0  0  0  0999 V2000
    1.6694    3.8004   -0.1893 Cl  0  0  0  0  0  0  0  0  0  0  0  0
    3.1513   -2.9339   -0.1604 Cl  0  0  0  0  0  0  0  0  0  0  0  0
    0.4159   -0.0038    0.2489 N   0  0  0  0  0  0  0  0  0  0  0  0
   -0.7540   -0.7020   -0.2704 C   0  0  0  0  0  0  0  0  0  0  0  0
   -2.0348   -0.0304    0.2219 C   0  0  0  0  0  0  0  0  0  0  0  0
    0.4236    1.3909   -0.1960 C   0  0  0  0  0  0  0  0  0  0  0  0
    1.6463   -0.6771   -0.1706 C   0  0  0  0  0  0  0  0  0  0  0  0
   -3.2751   -0.7348   -0.3291 C   0  0  0  0  0  0  0  0  0  0  0  0
    1.6624    2.0984    0.3312 C   0  0  0  0  0  0  0  0  0  0  0  0
    1.6495   -2.1136    0.3291 C   0  0  0  0  0  0  0  0  0  0  0  0
   -4.5545   -0.0941    0.1848 C   0  0  0  0  0  0  0  0  0  0  0  0
  1  9  1  0
  2 10  1  0
  3  4  1  0
  3  6  1  0
  3  7  1  0
  4  5  1  0
  5  8  1  0
  6  9  1  0
  7 10  1  0
  8 11  1  0
M  END
>  <PUBCHEM_COMPOUND_CID>  (1) 
39224

>  <PUBCHEM_CONFORMER_RMSD>  (1) 
0.6

>  <PUBCHEM_CONFORMER_DIVERSEORDER>  (1) 
1
37
67
65
88
75
15
25
55
89
42
36
90
18
26
91
82
84
8
79
68
35
54
21
20
85
39
87
13
49
70
64
10
40
51
24
53
43
66
50
31
45
48
71
73
47
34
63
86
11
41
17
44
59
72
57
74
19
60
78
4
22
76
61
77
69
38
46
52
81
30
58
56
23
7
16
14
5
28
83
62
80
6
32
29
27
2
3
9
33
12

>  <PUBCHEM_MMFF94_PARTIAL_CHARGES>  (1) 
8
1 -0.29
10 0.29
2 -0.29
3 -0.81
4 0.27
6 0.27
7 0.27
9 0.29

>  <PUBCHEM_EFFECTIVE_ROTOR_COUNT>  (1) 
7

>  <PUBCHEM_PHARMACOPHORE_FEATURES>  (1) 
2
1 11 hydrophobe
1 3 cation

>  <PUBCHEM_HEAVY_ATOM_COUNT>  (1) 
11

>  <PUBCHEM_ATOM_DEF_STEREO_COUNT>  (1) 
0

>  <PUBCHEM_ATOM_UDEF_STEREO_COUNT>  (1) 
0

>  <PUBCHEM_BOND_DEF_STEREO_COUNT>  (1) 
0

>  <PUBCHEM_BOND_UDEF_STEREO_COUNT>  (1) 
0

>  <PUBCHEM_ISOTOPIC_ATOM_COUNT>  (1) 
0

>  <PUBCHEM_COMPONENT_COUNT>  (1) 
1

>  <PUBCHEM_CACTVS_TAUTO_COUNT>  (1) 
1

>  <PUBCHEM_CONFORMER_ID>  (1) 
0000993800000001

>  <PUBCHEM_MMFF94_ENERGY>  (1) 
11.6236

>  <PUBCHEM_FEATURE_SELFOVERLAP>  (1) 
10.148

>  <PUBCHEM_SHAPE_FINGERPRINT>  (1) 
1 1 18266175226376585372
170605 34 18117834623905645921
19021347 4 17689714585747430216
20645477 70 18337099147192209167
20671657 1 18339367460653532855
20671657 53 18341052895904240863
20711985 327 18270123396401366551
20711985 344 17687737247202754066
20871998 184 17697588897252603830
20871998 22 18268143167580764978
21426921 1 17690282608580110718
21499 59 17977375363515980589
21524375 3 17840024370636689821
2255824 54 18413109493515069991
23532345 1 18265050409360572937
23532345 12 18059856100510420579
2748010 2 18123728890867038188
305870 269 18121777493676805765
3071541 12 18411141380401305069
58734987 43 18410577240995520618
68521 5 17978231556577291246
7364860 26 18412262869371466438
81228 2 17764029060518942056
81539 233 18191299588294795973

>  <PUBCHEM_SHAPE_MULTIPOLES>  (1) 
225.13
5.97
4.04
0.68
8.16
3.26
0.01
-3.23
-0.04
-6.19
0.18
-0.01
0
-0.04

>  <PUBCHEM_SHAPE_SELFOVERLAP>  (1) 
388.768

>  <PUBCHEM_SHAPE_VOLUME>  (1) 
150.4

>  <PUBCHEM_COORDINATE_TYPE>  (1) 
2
5
10

$$$$
