39227
     RDKit          3D

 15 16  0  0  0  0  0  0  0  0999 V2000
   -0.8304   -2.0924    0.0001 O   0  0  0  0  0  0  0  0  0  0  0  0
   -4.4516    0.0910   -0.0003 O   0  0  0  0  0  0  0  0  0  0  0  0
   -3.0892    1.9005    0.0011 O   0  0  0  0  0  0  0  0  0  0  0  0
    4.0855    1.2743    0.0004 O   0  0  0  0  0  0  0  0  0  0  0  0
    4.1205   -0.9206    0.0010 O   0  0  0  0  0  0  0  0  0  0  0  0
   -2.1420   -1.6337    0.0004 N   0  0  0  0  0  0  0  0  0  0  0  0
    3.4963    0.1672    0.0002 N   0  0  0  0  0  0  0  0  0  0  0  0
   -0.7126    0.1441   -0.0005 C   0  0  0  0  0  0  0  0  0  0  0  0
    0.0202   -1.0299   -0.0005 C   0  0  0  0  0  0  0  0  0  0  0  0
   -0.0333    1.3713   -0.0008 C   0  0  0  0  0  0  0  0  0  0  0  0
    1.4110   -1.0865   -0.0003 C   0  0  0  0  0  0  0  0  0  0  0  0
   -2.0489   -0.3005   -0.0003 C   0  0  0  0  0  0  0  0  0  0  0  0
    2.0753    0.1446   -0.0004 C   0  0  0  0  0  0  0  0  0  0  0  0
    1.3687    1.3520   -0.0007 C   0  0  0  0  0  0  0  0  0  0  0  0
   -3.2695    0.6185    0.0006 C   0  0  0  0  0  0  0  0  0  0  0  0
  1  6  1  0
  1  9  1  0
  2 15  1  0
  3 15  2  0
  4  7  1  0
  5  7  2  0
  6 12  2  0
  7 13  1  0
  8  9  2  0
  8 10  1  0
  8 12  1  0
  9 11  1  0
 10 14  2  0
 11 13  2  0
 12 15  1  0
 13 14  1  0
M  CHG  3   2  -1   4  -1   7   1
M  END
>  <PUBCHEM_COMPOUND_CID>  (1) 
39227

>  <PUBCHEM_CONFORMER_RMSD>  (1) 
0.6

>  <PUBCHEM_CONFORMER_DIVERSEORDER>  (1) 
1

>  <PUBCHEM_MMFF94_PARTIAL_CHARGES>  (1) 
17
1 -0.02
10 -0.15
11 -0.15
12 0.06
13 0.13
14 -0.15
15 1.03
16 0.15
17 0.15
18 0.15
2 -0.9
3 -0.9
4 -0.52
5 -0.52
6 -0.41
7 0.91
9 0.14

>  <PUBCHEM_EFFECTIVE_ROTOR_COUNT>  (1) 
2

>  <PUBCHEM_PHARMACOPHORE_FEATURES>  (1) 
9
1 2 acceptor
1 3 acceptor
1 4 acceptor
1 4 anion
1 5 acceptor
1 6 acceptor
3 2 3 15 anion
5 1 6 8 9 12 rings
6 8 9 10 11 13 14 rings

>  <PUBCHEM_HEAVY_ATOM_COUNT>  (1) 
15

>  <PUBCHEM_ATOM_DEF_STEREO_COUNT>  (1) 
0

>  <PUBCHEM_ATOM_UDEF_STEREO_COUNT>  (1) 
0

>  <PUBCHEM_BOND_DEF_STEREO_COUNT>  (1) 
0

>  <PUBCHEM_BOND_UDEF_STEREO_COUNT>  (1) 
0

>  <PUBCHEM_ISOTOPIC_ATOM_COUNT>  (1) 
0

>  <PUBCHEM_COMPONENT_COUNT>  (1) 
1

>  <PUBCHEM_CACTVS_TAUTO_COUNT>  (1) 
1

>  <PUBCHEM_CONFORMER_ID>  (1) 
0000993B00000001

>  <PUBCHEM_MMFF94_ENERGY>  (1) 
31.7697

>  <PUBCHEM_FEATURE_SELFOVERLAP>  (1) 
45.915

>  <PUBCHEM_SHAPE_FINGERPRINT>  (1) 
10608611 8 18341610485859861152
10967382 1 18410575058903824644
11132069 177 18411412921509121800
11471102 20 18410570686801262228
11543360 7 15769482222797455852
13380535 76 18411982451162848263
13690532 89 18410011018055103443
14144814 61 18409166593225276329
14325111 11 18410856568330087360
14897335 6 18411697681761397327
14943859 89 18335138704452029155
14993402 34 18409445873558101181
15196674 1 18410573968029766637
15536298 74 18343021043345783718
15775835 57 18334295370301126507
16945 1 18410856589767903143
18511873 20 18407760347960228804
193761 8 17906452482393944837
20645476 183 17896621633314237646
20645477 56 18337670914143568896
20645477 70 17346045485152077702
21267235 1 18410301285030718834
21501502 16 18193840568113946717
23402539 116 18272080605051472837
23402655 69 18270389500486560733
23463225 33 18335419045810607074
23559900 14 18343584058477900020
2748010 2 18195526128002868485
5104073 3 18410293631208730466
528886 8 18411414016367040699
53812653 166 18413386553170195056
54173680 148 18265054811248766995
69090 78 18272085015592586455
7364860 26 18196652895768002654

>  <PUBCHEM_SHAPE_MULTIPOLES>  (1) 
269.38
6.82
1.79
0.57
1.1
0.14
0
-1.37
0
-0.35
0
-0.01
-0.01
0

>  <PUBCHEM_SHAPE_SELFOVERLAP>  (1) 
591.013

>  <PUBCHEM_SHAPE_VOLUME>  (1) 
148.1

>  <PUBCHEM_COORDINATE_TYPE>  (1) 
2
5
10

$$$$
