3922
     RDKit          3D

 27 30  0  0  0  0  0  0  0  0999 V2000
    6.0706   -0.4637   -1.9940 O   0  0  0  0  0  0  0  0  0  0  0  0
    5.9726   -2.3661   -0.7538 O   0  0  0  0  0  0  0  0  0  0  0  0
    2.8359    1.2387   -0.2744 N   0  0  0  0  0  0  0  0  0  0  0  0
    0.9845    1.2453    1.2958 C   0  0  0  0  0  0  0  0  0  0  0  0
    0.9587    1.4299    2.7831 C   0  0  0  0  0  0  0  0  0  0  0  0
    1.1751    2.6112    1.8834 C   0  0  0  0  0  0  0  0  0  0  0  0
   -0.3105    0.9600    0.6105 C   0  0  0  0  0  0  0  0  0  0  0  0
   -3.1070   -1.6520    0.9331 C   0  0  0  0  0  0  0  0  0  0  0  0
   -4.0698    0.0720   -1.4052 C   0  0  0  0  0  0  0  0  0  0  0  0
   -2.3125   -0.4436    0.4210 C   0  0  0  0  0  0  0  0  0  0  0  0
   -2.7542    0.3495   -0.6667 C   0  0  0  0  0  0  0  0  0  0  0  0
   -4.5567   -1.6482    0.3995 C   0  0  0  0  0  0  0  0  0  0  0  0
   -4.6156   -1.3377   -1.0866 C   0  0  0  0  0  0  0  0  0  0  0  0
    2.1688    0.5727    0.6973 C   0  0  0  0  0  0  0  0  0  0  0  0
   -1.0760   -0.1273    1.0274 C   0  0  0  0  0  0  0  0  0  0  0  0
   -0.7614    1.7585   -0.4274 C   0  0  0  0  0  0  0  0  0  0  0  0
   -1.9680    1.4572   -1.0560 C   0  0  0  0  0  0  0  0  0  0  0  0
   -3.2099   -1.6621    2.4771 C   0  0  0  0  0  0  0  0  0  0  0  0
   -2.3863   -2.9434    0.4866 C   0  0  0  0  0  0  0  0  0  0  0  0
   -5.1047    1.1419   -0.9919 C   0  0  0  0  0  0  0  0  0  0  0  0
   -3.8933    0.1348   -2.9412 C   0  0  0  0  0  0  0  0  0  0  0  0
    2.5291   -0.6867    1.1549 C   0  0  0  0  0  0  0  0  0  0  0  0
    0.0238    2.9409   -0.8920 C   0  0  0  0  0  0  0  0  0  0  0  0
    3.6389   -1.2980    0.5820 C   0  0  0  0  0  0  0  0  0  0  0  0
    3.9092    0.6131   -0.8076 C   0  0  0  0  0  0  0  0  0  0  0  0
    4.3476   -0.6424   -0.4186 C   0  0  0  0  0  0  0  0  0  0  0  0
    5.5110   -1.2543   -1.0363 C   0  0  0  0  0  0  0  0  0  0  0  0
  1 27  1  0
  2 27  2  0
  3 14  2  0
  3 25  1  0
  4  5  1  0
  4  6  1  0
  4  7  1  0
  4 14  1  0
  5  6  1  0
  7 15  2  0
  7 16  1  0
  8 10  1  0
  8 12  1  0
  8 18  1  0
  8 19  1  0
  9 11  1  0
  9 13  1  0
  9 20  1  0
  9 21  1  0
 10 11  2  0
 10 15  1  0
 11 17  1  0
 12 13  1  0
 14 22  1  0
 16 17  2  0
 16 23  1  0
 22 24  2  0
 24 26  1  0
 25 26  2  0
 26 27  1  0
M  END
>  <PUBCHEM_COMPOUND_CID>  (1) 
3922

>  <PUBCHEM_CONFORMER_RMSD>  (1) 
0.8

>  <PUBCHEM_CONFORMER_DIVERSEORDER>  (1) 
1
6
2
7
3
4
5
8

>  <PUBCHEM_MMFF94_PARTIAL_CHARGES>  (1) 
31
1 -0.65
10 -0.14
11 -0.14
14 0.28
15 -0.15
16 -0.14
17 -0.15
2 -0.57
22 -0.15
23 0.14
24 -0.15
25 0.16
26 0.09
27 0.63
28 0.1
29 0.1
3 -0.62
30 0.1
31 0.1
36 0.15
37 0.15
4 0.06
5 -0.2
50 0.15
54 0.15
55 0.15
56 0.5
6 -0.2
7 -0.03
8 0.14
9 0.14

>  <PUBCHEM_EFFECTIVE_ROTOR_COUNT>  (1) 
4.4

>  <PUBCHEM_PHARMACOPHORE_FEATURES>  (1) 
9
1 1 acceptor
1 2 acceptor
1 3 acceptor
3 1 2 27 anion
3 8 18 19 hydrophobe
3 9 20 21 hydrophobe
6 3 14 22 24 25 26 rings
6 7 10 11 15 16 17 rings
6 8 9 10 11 12 13 rings

>  <PUBCHEM_HEAVY_ATOM_COUNT>  (1) 
27

>  <PUBCHEM_ATOM_DEF_STEREO_COUNT>  (1) 
0

>  <PUBCHEM_ATOM_UDEF_STEREO_COUNT>  (1) 
0

>  <PUBCHEM_BOND_DEF_STEREO_COUNT>  (1) 
0

>  <PUBCHEM_BOND_UDEF_STEREO_COUNT>  (1) 
0

>  <PUBCHEM_ISOTOPIC_ATOM_COUNT>  (1) 
0

>  <PUBCHEM_COMPONENT_COUNT>  (1) 
1

>  <PUBCHEM_CACTVS_TAUTO_COUNT>  (1) 
1

>  <PUBCHEM_CONFORMER_ID>  (1) 
00000F5200000001

>  <PUBCHEM_MMFF94_ENERGY>  (1) 
96.1831

>  <PUBCHEM_FEATURE_SELFOVERLAP>  (1) 
45.748

>  <PUBCHEM_SHAPE_FINGERPRINT>  (1) 
10319926 262 12103575194656127644
10369192 42 17686893230511741452
10674148 151 18268423551561955665
10730089 88 18335697230763163389
10764073 3 13180249850033274208
10928967 22 17489305257366098326
11135609 201 13407085807281348772
11991303 11 17626690205561024584
12363563 72 17775283854999164064
12422481 6 14548191874485038620
12596602 18 14405178469906353046
12633257 1 16558755649648258868
12670546 177 17313100864918470388
12760667 363 18130794404353834430
12788726 201 18194394485772626993
12892183 10 12463576162304188420
12969540 114 13190345673220629526
13103583 49 15769784541482426206
13533116 47 17701820119065944331
13544592 145 18340476842226963873
13544653 18 18060420218383904848
13583140 156 16985173876214874521
13690498 29 17822582736387323523
13782708 43 17702089469687751271
13914758 101 15554448453932472753
14178342 30 12894532008437922899
14251757 5 17821727226251257645
14790565 3 17825093815187706221
14932701 244 14780699155543238083
14950920 106 14333115339908788222
15064986 266 18265349317451425492
15188451 53 14764335055636706477
15475509 8 18334009480937176285
15575132 122 15792277208472003535
17349148 13 14692290707394340085
17780758 139 14764344912302086670
1813 80 16845581924209426568
18222031 100 17131829867984611996
19784866 240 16988838393429325533
19784866 34 13623525749198411336
20645477 70 18129649936812533593
20693207 138 18336812169739744101
20832881 197 17917706890358551377
20871999 31 17749107811646455075
21033650 10 17022617559308635260
21307412 95 18411135840490300927
21401589 2 10809353247339880748
21756936 100 14779274106937930600
22182313 1 18190168173565620961
22393880 68 17821730542156089282
22907989 373 16444441552387165207
23559900 14 18334848454831194212
2838139 119 14129060339926813950
312425 83 16444176518044564174
314194 84 17632293514747656198
3886686 26 13972313875991920229
394222 165 14689451883818536609
4058900 60 17098603580625029381
4280585 95 18186511112604169364
437815 12 17988642977945722600
46194498 28 17751924863378927797
474 4 12829483744723058356
484985 159 16987437495113790100
4938544 92 15266789797677885634
563151 40 18050572833522241625
6034566 193 12685101388159355115
6669772 16 17840591723902754668
6823239 73 18115016532385048913
7970288 3 17632578223840685430
9709674 26 18044921610100642737
9981440 41 11239732842159705711

>  <PUBCHEM_SHAPE_MULTIPOLES>  (1) 
538.93
11.82
2.73
2.31
9.87
0.02
-0.36
7.02
7.76
-0.3
-0.48
-0.42
-0.37
2.4

>  <PUBCHEM_SHAPE_SELFOVERLAP>  (1) 
1173.609

>  <PUBCHEM_SHAPE_VOLUME>  (1) 
294.9

>  <PUBCHEM_COORDINATE_TYPE>  (1) 
2
5
10

$$$$
