39239
     RDKit          3D

 16 18  0  0  1  0  0  0  0  0999 V2000
   -3.5864   -0.3629    0.0593 O   0  0  0  0  0  0  0  0  0  0  0  0
   -2.4044   -2.3086    0.1734 O   0  0  0  0  0  0  0  0  0  0  0  0
    2.6333   -1.7927   -0.8803 O   0  0  0  0  0  0  0  0  0  0  0  0
    3.2863   -0.7554    0.9506 O   0  0  0  0  0  0  0  0  0  0  0  0
    2.4823   -0.9583    0.0264 N   0  0  0  0  0  0  0  0  0  0  0  0
   -1.2413   -0.1914    0.0282 C   0  0  0  0  0  0  0  0  0  0  0  0
    1.2624   -0.1263   -0.0063 C   0  0  0  0  0  0  0  0  0  0  0  0
   -0.0269    1.5408   -1.3572 C   0  0  0  0  0  0  0  0  0  0  0  0
    0.0030    1.6937    1.1646 C   0  0  0  0  0  0  0  0  0  0  0  0
    0.0401   -1.0507    0.0645 C   0  0  0  0  0  0  0  0  0  0  0  0
   -1.2634    0.6258   -1.2805 C   0  0  0  0  0  0  0  0  0  0  0  0
   -1.2338    0.7784    1.2280 C   0  0  0  0  0  0  0  0  0  0  0  0
    1.2463    0.6747   -1.3146 C   0  0  0  0  0  0  0  0  0  0  0  0
    1.2755    0.8264    1.1965 C   0  0  0  0  0  0  0  0  0  0  0  0
   -0.0302    2.4958   -0.1494 C   0  0  0  0  0  0  0  0  0  0  0  0
   -2.4429   -1.0895    0.0967 C   0  0  0  0  0  0  0  0  0  0  0  0
  1 16  1  0
  2 16  2  0
  3  5  1  0
  4  5  2  0
  5  7  1  0
  6 10  1  0
  6 11  1  0
  6 12  1  0
  6 16  1  0
  7 10  1  0
  7 13  1  0
  7 14  1  0
  8 11  1  0
  8 13  1  0
  8 15  1  0
  9 12  1  0
  9 14  1  0
  9 15  1  0
M  CHG  2   3  -1   5   1
M  END
>  <PUBCHEM_COMPOUND_CID>  (1) 
39239

>  <PUBCHEM_CONFORMER_RMSD>  (1) 
0.6

>  <PUBCHEM_CONFORMER_DIVERSEORDER>  (1) 
1
2

>  <PUBCHEM_MMFF94_PARTIAL_CHARGES>  (1) 
9
1 -0.65
16 0.66
2 -0.57
3 -0.52
31 0.5
4 -0.52
5 0.8
6 0.06
7 0.24

>  <PUBCHEM_EFFECTIVE_ROTOR_COUNT>  (1) 
3.2

>  <PUBCHEM_PHARMACOPHORE_FEATURES>  (1) 
10
1 1 acceptor
1 2 acceptor
1 3 acceptor
1 3 anion
1 4 acceptor
3 1 2 16 anion
6 6 7 8 10 11 13 rings
6 6 7 9 10 12 14 rings
6 6 8 9 11 12 15 rings
6 7 8 9 13 14 15 rings

>  <PUBCHEM_HEAVY_ATOM_COUNT>  (1) 
16

>  <PUBCHEM_ATOM_DEF_STEREO_COUNT>  (1) 
0

>  <PUBCHEM_ATOM_UDEF_STEREO_COUNT>  (1) 
2

>  <PUBCHEM_BOND_DEF_STEREO_COUNT>  (1) 
0

>  <PUBCHEM_BOND_UDEF_STEREO_COUNT>  (1) 
0

>  <PUBCHEM_ISOTOPIC_ATOM_COUNT>  (1) 
0

>  <PUBCHEM_COMPONENT_COUNT>  (1) 
1

>  <PUBCHEM_CACTVS_TAUTO_COUNT>  (1) 
1

>  <PUBCHEM_CONFORMER_ID>  (1) 
0000994700000001

>  <PUBCHEM_MMFF94_ENERGY>  (1) 
47.0435

>  <PUBCHEM_FEATURE_SELFOVERLAP>  (1) 
63.427

>  <PUBCHEM_SHAPE_FINGERPRINT>  (1) 
10353120 184 16660353792904720325
10863032 1 18409447028719973277
12326174 3 17171228826592516089
12423570 1 15471778428680531289
12725867 57 18339920527750309285
13024252 1 14203117829203292300
14128692 85 18261399978462446622
144361 1 17752775893873860685
14817 1 13021085456891656797
15001771 113 18337688463173952199
16945 1 18192149287344488532
20653085 51 11097869470713433002
21296965 67 18409445873473601137
22112679 90 18124910951492228937
23419403 2 17974249340136310212
23559900 14 18267292146208548962
241688 4 18335422343928830737
2748010 2 18339348742901148653
369184 2 17486759789025891328
7364860 26 18122348153238811821
81228 2 18266467498711096256

>  <PUBCHEM_SHAPE_MULTIPOLES>  (1) 
300.81
3.74
2.16
1.32
0.43
0.21
0.09
-2.69
-0.32
0.01
0.08
-0.27
0.51
0.14

>  <PUBCHEM_SHAPE_SELFOVERLAP>  (1) 
662.741

>  <PUBCHEM_SHAPE_VOLUME>  (1) 
158.7

>  <PUBCHEM_COORDINATE_TYPE>  (1) 
2
5
10

$$$$
